0:0:0
     RDKit          3D

 96104  0  0  1  0  0  0  0  0999 V2000
  -30.4240  -21.8960   20.6280 C   0  0  0  0  0  2  0  0  0  0  0  0
  -29.8870  -20.7520   19.7370 C   0  0  0  0  0  3  0  0  0  0  0  0
  -29.4760  -22.8290   19.8440 C   0  0  0  0  0  3  0  0  0  0  0  0
  -28.6690  -21.5890   19.6750 N   0  0  0  0  0  4  0  0  0  0  0  0
  -28.0770  -21.3720   20.4600 H   0  0  0  0  0  0  0  0  0  0  0  0
  -28.1770  -21.5050   18.7990 H   0  0  0  0  0  0  0  0  0  0  0  0
  -29.6430  -19.3450   20.3540 C   0  0  0  0  0  0  0  0  0  0  0  0
  -28.5740  -19.0500   20.8970 O   0  0  0  0  0  0  0  0  0  0  0  0
  -30.8290  -18.2740   20.2920 C   0  0  0  0  0  3  0  0  0  0  0  0
  -32.0310  -18.9910   20.7700 N   0  0  0  0  0  4  0  0  0  0  0  0
  -31.8960  -19.3430   21.7010 H   0  0  0  0  0  0  0  0  0  0  0  0
  -32.2920  -19.7480   20.1640 H   0  0  0  0  0  0  0  0  0  0  0  0
  -32.8090  -18.3560   20.7920 H   0  0  0  0  0  0  0  0  0  0  0  0
  -30.6810  -16.9590   21.1870 C   0  0  0  0  0  2  0  0  0  0  0  0
  -30.7180  -14.6610   20.1030 C   0  0  0  0  0  0  0  0  0  0  0  0
  -30.3780  -12.4860   18.9570 C   0  0  0  0  0  2  0  0  0  0  0  0
  -29.3680  -12.6460   17.8020 C   0  0  0  0  0  2  0  0  0  0  0  0
  -27.9220  -12.4900   18.3170 C   0  0  0  0  0  2  0  0  0  0  0  0
  -27.6430  -13.3370   19.5860 C   0  0  0  0  0  3  0  0  0  0  0  0
  -28.7600  -13.1550   20.6360 C   0  0  0  0  0  2  0  0  0  0  0  0
  -30.0370  -13.4840   19.9860 N   0  0  0  0  0  0  0  0  0  0  0  0
  -31.8490  -14.8140   19.6340 O   0  0  0  0  0  0  0  0  0  0  0  0
  -30.0530  -15.7150   20.6490 N   0  0  0  0  0  0  0  0  0  0  0  0
  -29.0940  -15.5430   20.9150 H   0  0  0  0  0  0  0  0  0  0  0  0
  -25.2980  -13.9350   20.4560 C   0  0  0  0  0  0  0  0  0  0  0  0
  -24.2500  -13.1590   20.8680 C   0  0  0  0  0  0  0  0  0  0  0  0
  -24.7010  -11.8060   20.7810 C   0  0  0  0  0  0  0  0  0  0  0  0
  -26.3230  -13.0550   20.1430 N   0  0  0  0  0  0  0  0  0  0  0  0
  -25.9720  -11.7690   20.4010 N   0  0  0  0  0  0  0  0  0  0  0  0
  -23.9800  -10.5430   20.9850 C   0  0  0  0  0  0  0  0  0  0  0  0
  -24.4350   -9.5720   21.9050 C   0  0  0  0  0  3  0  0  0  0  0  0
  -23.7140   -8.3740   22.0940 C   0  0  0  0  0  3  0  0  0  0  0  0
  -22.5250   -8.1380   21.3650 C   0  0  0  0  0  0  0  0  0  0  0  0
  -22.0890   -9.0960   20.4340 C   0  0  0  0  0  3  0  0  0  0  0  0
  -22.8100  -10.2870   20.2420 C   0  0  0  0  0  3  0  0  0  0  0  0
  -21.7740   -6.9920   21.4660 O   0  0  0  0  0  0  0  0  0  0  0  0
  -21.7320   -6.2590   22.6240 C   0  0  0  0  0  0  0  0  0  0  0  0
  -21.2840   -6.8140   23.8430 C   0  0  0  0  0  3  0  0  0  0  0  0
  -21.1910   -6.0060   24.9940 C   0  0  0  0  0  3  0  0  0  0  0  0
  -21.5350   -4.6420   24.9270 C   0  0  0  0  0  0  0  0  0  0  0  0
  -21.9750   -4.0850   23.7140 C   0  0  0  0  0  3  0  0  0  0  0  0
  -22.0700   -4.8910   22.5650 C   0  0  0  0  0  0  0  0  0  0  0  0
  -22.4760   -4.3460   21.3930 F   0  0  0  0  0  0  0  0  0  0  0  0
  -21.4380   -3.8640   26.0300 F   0  0  0  0  0  0  0  0  0  0  0  0
  -22.8720  -13.6370   21.2280 C   0  0  0  0  0  0  0  0  0  0  0  0
  -22.1870  -12.9190   22.1110 N   0  0  0  0  0  0  0  0  0  0  0  0
  -22.4150  -14.6790   20.7610 O   0  0  0  0  0  0  0  0  0  0  0  0
  -22.5700  -12.0750   22.5100 H   0  0  0  0  0  0  0  0  0  0  0  0
  -21.2640  -13.2190   22.3930 H   0  0  0  0  0  0  0  0  0  0  0  0
  -25.4620  -15.3080   20.2990 N   0  0  0  0  0  0  0  0  0  0  0  0
  -24.7020  -15.9620   20.4610 H   0  0  0  0  0  0  0  0  0  0  0  0
  -26.2850  -15.7480   19.9060 H   0  0  0  0  0  0  0  0  0  0  0  0
  -27.4830  -23.8150   21.2390 C   0  0  0  0  0  1  0  0  0  0  0  0
  -28.8050  -24.1060   20.5080 C   0  0  0  0  0  3  0  0  0  0  0  0
  -28.6560  -25.3590   19.5590 C   0  0  0  0  0  2  0  0  0  0  0  0
  -28.4840  -26.6580   20.2130 O   0  0  0  0  0  0  0  0  0  0  0  0
  -24.5750  -31.8460   23.2470 C   0  0  0  0  0  0  0  0  0  0  0  0
  -27.3040  -27.4030   20.1540 C   0  0  0  0  0  0  0  0  0  0  0  0
  -23.4230  -30.4850   21.5370 C   0  0  0  0  0  3  0  0  0  0  0  0
  -24.9170  -28.9710   20.1230 C   0  0  0  0  0  0  0  0  0  0  0  0
  -25.9610  -30.8220   21.4350 C   0  0  0  0  0  2  0  0  0  0  0  0
  -26.0610  -29.4610   20.7620 C   0  0  0  0  0  0  0  0  0  0  0  0
  -27.2540  -28.6850   20.7720 C   0  0  0  0  0  3  0  0  0  0  0  0
  -26.1260  -26.9430   19.5180 C   0  0  0  0  0  3  0  0  0  0  0  0
  -24.9480  -27.7140   19.5000 C   0  0  0  0  0  3  0  0  0  0  0  0
  -23.6770  -29.8370   20.1500 C   0  0  0  0  0  2  0  0  0  0  0  0
  -24.6700  -31.0660   22.1320 N   0  0  0  0  0  0  0  0  0  0  0  0
  -23.4770  -32.1100   23.7560 O   0  0  0  0  0  0  0  0  0  0  0  0
  -22.7360  -29.4460   22.4520 C   0  0  0  0  0  0  0  0  0  0  0  0
  -21.4110  -29.2860   22.2930 N   0  0  0  0  0  0  0  0  0  0  0  0
  -23.3940  -28.7870   23.2620 O   0  0  0  0  0  0  0  0  0  0  0  0
  -20.9440  -29.8700   21.6150 H   0  0  0  0  0  0  0  0  0  0  0  0
  -18.0070  -28.1480   22.7160 C   0  0  0  0  0  0  0  0  0  0  0  0
  -20.5680  -28.3360   23.0190 C   0  0  0  0  0  3  0  0  0  0  0  0
  -20.6430  -26.9280   22.3830 C   0  0  0  0  0  2  0  0  0  0  0  0
  -19.5430  -26.6740   21.3470 C   0  0  0  0  0  2  0  0  0  0  0  0
  -18.1580  -26.8240   21.9860 C   0  0  0  0  0  2  0  0  0  0  0  0
  -19.1390  -28.8640   23.1860 C   0  0  0  0  0  0  0  0  0  0  0  0
  -18.9440  -30.1080   23.8270 C   0  0  0  0  0  3  0  0  0  0  0  0
  -17.6490  -30.6300   24.0040 C   0  0  0  0  0  3  0  0  0  0  0  0
  -16.5310  -29.9100   23.5510 C   0  0  0  0  0  3  0  0  0  0  0  0
  -16.7110  -28.6700   22.9110 C   0  0  0  0  0  3  0  0  0  0  0  0
  -25.8390  -32.4600   23.9220 C   0  0  0  0  0  3  0  0  0  0  0  0
  -25.5300  -33.8580   24.2510 N   0  0  0  0  0  0  0  0  0  0  0  0
  -25.8940  -34.9150   23.5110 C   0  0  0  0  0  0  0  0  0  0  0  0
  -26.5950  -34.8140   22.5010 O   0  0  0  0  0  0  0  0  0  0  0  0
  -24.9080  -34.0100   25.0310 H   0  0  0  0  0  0  0  0  0  0  0  0
  -24.1880  -36.7220   23.1180 C   0  0  0  0  0  1  0  0  0  0  0  0
  -25.4020  -36.3030   23.9630 C   0  0  0  0  0  3  0  0  0  0  0  0
  -27.5110  -37.1750   24.8670 C   0  0  0  0  0  1  0  0  0  0  0  0
  -26.4430  -37.3500   23.8880 N   0  0  0  0  0  0  0  0  0  0  0  0
  -26.0360  -38.2730   24.0210 H   0  0  0  0  0  0  0  0  0  0  0  0
  -26.3000  -31.6740   25.2110 C   0  0  1  0  0  0  0  0  0  0  0  0
  -25.1640  -31.4330   26.2330 C   0  0  0  0  0  1  0  0  0  0  0  0
  -26.8920  -30.2980   24.8290 C   0  0  0  0  0  1  0  0  0  0  0  0
  -27.4270  -32.4570   25.9260 C   0  0  0  0  0  1  0  0  0  0  0  0
  2  7  1  0
  2  1  1  0
  3 54  1  0
  3  1  1  0
  4  2  1  0
  4  3  1  0
  4  5  1  0
  6  4  1  0
  7  8  2  0
  9  7  1  0
  9 10  1  0
  9 14  1  0
 10 13  1  0
 10 11  1  0
 12 10  1  0
 15 23  1  0
 16 21  1  0
 17 18  1  0
 17 16  1  0
 19 18  1  0
 19 28  1  0
 19 20  1  0
 21 15  1  0
 21 20  1  0
 22 15  2  0
 23 24  1  0
 23 14  1  0
 25 26  2  0
 26 45  1  0
 27 26  1  0
 27 30  1  0
 28 29  1  0
 28 25  1  0
 29 27  2  0
 30 31  1  0
 31 32  2  0
 33 36  1  0
 33 32  1  0
 34 33  2  0
 35 34  1  0
 35 30  2  0
 36 37  1  0
 37 38  1  0
 38 39  2  0
 40 39  1  0
 40 44  1  0
 41 40  2  0
 42 37  2  0
 42 41  1  0
 43 42  1  0
 45 46  1  0
 46 49  1  0
 46 48  1  0
 47 45  2  0
 50 25  1  0
 50 51  1  0
 52 50  1  0
 54 53  1  0
 55 56  1  0
 55 54  1  0
 57 68  2  0
 58 56  1  0
 58 63  1  0
 59 67  1  0
 59 69  1  0
 60 66  1  0
 60 62  1  0
 61 67  1  0
 62 63  2  0
 62 61  1  0
 64 58  2  0
 65 64  1  0
 65 60  2  0
 66 59  1  0
 67 57  1  0
 69 71  2  0
 70 69  1  0
 72 70  1  0
 73 82  2  0
 73 78  1  0
 74 70  1  0
 74 78  1  0
 75 74  1  0
 76 77  1  0
 76 75  1  0
 77 73  1  0
 78 79  2  0
 79 80  1  0
 81 80  2  0
 82 81  1  0
 83 57  1  0
 83 84  1  0
 83 93  1  0
 84 87  1  0
 85 89  1  0
 85 84  1  0
 86 85  2  0
 89 88  1  0
 91 89  1  0
 91 92  1  0
 91 90  1  0
 93 96  1  1
 93 94  1  0
 95 93  1  0
M  ISO  4  15 100  23 100  55 101  56 101
M  END
>  <TORSDO>  (1) 
F 22

>  <SCORE>  (1) 
-13.226

>  <name>  (1) 
0

>  <ligand_id>  (1) 
0

>  <original_smiles>  (1) 
[H]c1c([H])c([H])c2c(c1[H])C([H])([H])C([H])([H])C([H])([H])C2([H])N([H])C(=O)C1([H])N(C(=O)C([H])(N([H])C(=O)C([H])(N([H])C([H])([H])[H])C([H])([H])[H])C(C([H])([H])[H])(C([H])([H])[H])C([H])([H])[H])C([H])([H])c2c([H])c(OC([H])([H])C([H])(C([H])([H])[H])C3([H])C([H])([H])C([H])(C(=O)C([H])(C([H])([H])N([H])C(=O)N4C([H])([H])C([H])([H])C([H])([H])C([H])(n5nc(-c6c([H])c([H])c(Oc7c([H])c([H])c(F)c([H])c7F)c([H])c6[H])c(C(=O)N([H])[H])c5N([H])[H])C4([H])[H])[N+]([H])([H])[H])[N+]3([H])[H])c([H])c([H])c2C1([H])[H]

>  <smiles>  (1) 
[H]c1c([H])c([H])c2c(c1[H])C([H])([H])C([H])([H])C([H])([H])C2([H])N([H])C(=O)C1([H])N(C(=O)C([H])(N([H])C(=O)C([H])(N([H])C([H])([H])[H])C([H])([H])[H])C(C([H])([H])[H])(C([H])([H])[H])C([H])([H])[H])C([H])([H])c2c([H])c(OC([H])([H])C([H])(C([H])([H])[H])C3([H])C([H])([H])C([H])(C(=O)C([H])(C([H])([H])N([H])C(=O)N4C([H])([H])C([H])([H])C([H])([H])C([H])(n5nc(-c6c([H])c([H])c(Oc7c([H])c([H])c(F)c([H])c7F)c([H])c6[H])c(C(=O)N([H])[H])c5N([H])[H])C4([H])[H])[N+]([H])([H])[H])[N+]3([H])[H])c([H])c([H])c2C1([H])[H]

$$$$
1:0:0
     RDKit          3D

 94102  0  0  1  0  0  0  0  0999 V2000
  -30.1450  -20.8910   23.3150 C   0  0  0  0  0  3  0  0  0  0  0  0
  -29.9580  -19.6430   22.6990 C   0  0  0  0  0  3  0  0  0  0  0  0
  -30.0960  -22.0690   22.5500 C   0  0  0  0  0  3  0  0  0  0  0  0
  -29.6030  -20.7580   20.5560 C   0  0  0  0  0  3  0  0  0  0  0  0
  -29.7270  -19.5550   21.3120 C   0  0  0  0  0  0  0  0  0  0  0  0
  -29.7850  -22.0290   21.1730 C   0  0  0  0  0  0  0  0  0  0  0  0
  -29.6230  -18.1570   20.6790 C   0  0  0  0  0  2  0  0  0  0  0  0
  -32.0840  -17.6920   20.1890 C   0  0  0  0  0  1  0  0  0  0  0  0
  -30.8370  -17.2140   20.9690 C   0  0  0  0  0  3  0  0  0  0  0  0
  -31.1780  -14.7190   20.3420 C   0  0  0  0  0  0  0  0  0  0  0  0
  -30.8640  -12.5000   19.3140 C   0  0  0  0  0  2  0  0  0  0  0  0
  -29.9370  -12.6500   18.0920 C   0  0  0  0  0  2  0  0  0  0  0  0
  -28.4540  -12.5600   18.5110 C   0  0  0  0  0  2  0  0  0  0  0  0
  -28.1170  -13.4560   19.7350 C   0  0  0  0  0  3  0  0  0  0  0  0
  -29.1630  -13.2840   20.8580 C   0  0  0  0  0  2  0  0  0  0  0  0
  -30.4900  -13.5470   20.2780 N   0  0  0  0  0  0  0  0  0  0  0  0
  -32.3240  -14.8270   19.8980 O   0  0  0  0  0  0  0  0  0  0  0  0
  -30.4700  -15.7820   20.7870 N   0  0  0  0  0  0  0  0  0  0  0  0
  -29.5370  -15.5470   21.0920 H   0  0  0  0  0  0  0  0  0  0  0  0
  -25.7560  -14.1400   20.4950 C   0  0  0  0  0  0  0  0  0  0  0  0
  -24.6560  -13.4020   20.8440 C   0  0  0  0  0  0  0  0  0  0  0  0
  -25.0530  -12.0330   20.7470 C   0  0  0  0  0  0  0  0  0  0  0  0
  -26.7560  -13.2220   20.2150 N   0  0  0  0  0  0  0  0  0  0  0  0
  -26.3360  -11.9470   20.4210 N   0  0  0  0  0  0  0  0  0  0  0  0
  -24.2710  -10.8000   20.8860 C   0  0  0  0  0  0  0  0  0  0  0  0
  -24.6400   -9.7910   21.8030 C   0  0  0  0  0  3  0  0  0  0  0  0
  -23.8600   -8.6220   21.9340 C   0  0  0  0  0  3  0  0  0  0  0  0
  -22.6970   -8.4540   21.1460 C   0  0  0  0  0  0  0  0  0  0  0  0
  -22.3470   -9.4490   20.2170 C   0  0  0  0  0  3  0  0  0  0  0  0
  -23.1270  -10.6100   20.0840 C   0  0  0  0  0  3  0  0  0  0  0  0
  -21.8900   -7.3420   21.1870 O   0  0  0  0  0  0  0  0  0  0  0  0
  -21.7340   -6.6090   22.3370 C   0  0  0  0  0  0  0  0  0  0  0  0
  -21.2280   -7.1820   23.5230 C   0  0  0  0  0  3  0  0  0  0  0  0
  -21.0160   -6.3770   24.6600 C   0  0  0  0  0  3  0  0  0  0  0  0
  -21.3020   -4.9990   24.6100 C   0  0  0  0  0  0  0  0  0  0  0  0
  -21.8020   -4.4260   23.4270 C   0  0  0  0  0  3  0  0  0  0  0  0
  -22.0140   -5.2280   22.2930 C   0  0  0  0  0  0  0  0  0  0  0  0
  -22.4740   -4.6670   21.1490 F   0  0  0  0  0  0  0  0  0  0  0  0
  -21.0930   -4.2220   25.6990 F   0  0  0  0  0  0  0  0  0  0  0  0
  -23.2840  -13.9310   21.1540 C   0  0  0  0  0  0  0  0  0  0  0  0
  -22.5390  -13.2350   22.0070 N   0  0  0  0  0  0  0  0  0  0  0  0
  -22.8840  -14.9910   20.6760 O   0  0  0  0  0  0  0  0  0  0  0  0
  -22.8770  -12.3780   22.4190 H   0  0  0  0  0  0  0  0  0  0  0  0
  -21.6160  -13.5650   22.2510 H   0  0  0  0  0  0  0  0  0  0  0  0
  -25.9800  -15.5080   20.3750 N   0  0  0  0  0  0  0  0  0  0  0  0
  -25.2380  -16.1870   20.5130 H   0  0  0  0  0  0  0  0  0  0  0  0
  -26.8300  -15.9250   20.0170 H   0  0  0  0  0  0  0  0  0  0  0  0
  -29.7780  -23.3500   20.3690 C   0  0  0  0  0  2  0  0  0  0  0  0
  -27.3660  -23.5140   19.7210 C   0  0  0  0  0  1  0  0  0  0  0  0
  -28.5080  -24.2930   20.4110 C   0  0  1  0  0  0  0  0  0  0  0  0
  -26.6630  -25.0510   22.1930 C   0  0  0  0  0  1  0  0  0  0  0  0
  -28.1060  -24.6080   21.8880 C   0  0  0  0  0  2  0  0  0  0  0  0
  -28.8420  -25.6010   19.5680 C   0  0  0  0  0  2  0  0  0  0  0  0
  -28.7050  -26.9180   20.1600 O   0  0  0  0  0  0  0  0  0  0  0  0
  -24.6040  -31.8650   23.2440 C   0  0  0  0  0  0  0  0  0  0  0  0
  -27.5190  -27.6310   20.0730 C   0  0  0  0  0  0  0  0  0  0  0  0
  -23.5180  -30.4920   21.5030 C   0  0  0  0  0  3  0  0  0  0  0  0
  -25.0770  -29.0800   20.0640 C   0  0  0  0  0  0  0  0  0  0  0  0
  -26.0370  -30.9440   21.4180 C   0  0  0  0  0  2  0  0  0  0  0  0
  -26.1950  -29.6050   20.7190 C   0  0  0  0  0  0  0  0  0  0  0  0
  -27.4170  -28.8880   20.7230 C   0  0  0  0  0  3  0  0  0  0  0  0
  -26.3760  -27.1360   19.3990 C   0  0  0  0  0  3  0  0  0  0  0  0
  -25.1640  -27.8440   19.4020 C   0  0  0  0  0  3  0  0  0  0  0  0
  -23.8030  -29.8900   20.1020 C   0  0  0  0  0  2  0  0  0  0  0  0
  -24.7360  -31.1140   22.1140 N   0  0  0  0  0  0  0  0  0  0  0  0
  -23.4940  -32.0710   23.7530 O   0  0  0  0  0  0  0  0  0  0  0  0
  -22.8740  -29.4020   22.3910 C   0  0  0  0  0  0  0  0  0  0  0  0
  -21.5570  -29.1940   22.2230 N   0  0  0  0  0  0  0  0  0  0  0  0
  -23.5540  -28.7520   23.1880 O   0  0  0  0  0  0  0  0  0  0  0  0
  -21.0680  -29.7740   21.5560 H   0  0  0  0  0  0  0  0  0  0  0  0
  -18.1960  -27.9270   22.6170 C   0  0  0  0  0  0  0  0  0  0  0  0
  -20.7490  -28.1990   22.9240 C   0  0  0  0  0  3  0  0  0  0  0  0
  -20.8760  -26.8100   22.2560 C   0  0  0  0  0  2  0  0  0  0  0  0
  -19.7840  -26.5380   21.2180 C   0  0  0  0  0  2  0  0  0  0  0  0
  -18.3950  -26.6260   21.8580 C   0  0  0  0  0  2  0  0  0  0  0  0
  -19.3020  -28.6720   23.1040 C   0  0  0  0  0  0  0  0  0  0  0  0
  -19.0630  -29.8920   23.7750 C   0  0  0  0  0  3  0  0  0  0  0  0
  -17.7510  -30.3640   23.9640 C   0  0  0  0  0  3  0  0  0  0  0  0
  -16.6600  -29.6130   23.4950 C   0  0  0  0  0  3  0  0  0  0  0  0
  -16.8820  -28.3980   22.8240 C   0  0  0  0  0  3  0  0  0  0  0  0
  -25.8400  -32.5200   23.9370 C   0  0  0  0  0  3  0  0  0  0  0  0
  -25.4890  -33.9130   24.2400 N   0  0  0  0  0  0  0  0  0  0  0  0
  -25.8520  -34.9680   23.4990 C   0  0  0  0  0  0  0  0  0  0  0  0
  -26.5840  -34.8700   22.5100 O   0  0  0  0  0  0  0  0  0  0  0  0
  -24.8460  -34.0640   25.0040 H   0  0  0  0  0  0  0  0  0  0  0  0
  -24.1140  -36.7270   23.0360 C   0  0  0  0  0  1  0  0  0  0  0  0
  -25.3140  -36.3490   23.9180 C   0  0  0  0  0  3  0  0  0  0  0  0
  -27.3800  -37.2780   24.8650 C   0  0  0  0  0  1  0  0  0  0  0  0
  -26.3310  -37.4200   23.8590 N   0  0  0  0  0  0  0  0  0  0  0  0
  -25.9010  -38.3330   23.9750 H   0  0  0  0  0  0  0  0  0  0  0  0
  -26.2900  -31.7600   25.2450 C   0  0  1  0  0  0  0  0  0  0  0  0
  -25.1340  -31.4990   26.2400 C   0  0  0  0  0  1  0  0  0  0  0  0
  -26.9250  -30.3960   24.8920 C   0  0  0  0  0  1  0  0  0  0  0  0
  -27.3790  -32.5780   25.9780 C   0  0  0  0  0  1  0  0  0  0  0  0
  2  1  1  0
  3  1  2  0
  4  6  2  0
  4  5  1  0
  5  2  2  0
  6  3  1  0
  7  9  1  0
  7  5  1  0
  9  8  1  0
 10 18  1  0
 11 16  1  0
 12 13  1  0
 12 11  1  0
 14 13  1  0
 14 23  1  0
 14 15  1  0
 16 10  1  0
 16 15  1  0
 17 10  2  0
 18  9  1  0
 18 19  1  0
 20 21  2  0
 21 40  1  0
 22 21  1  0
 22 25  1  0
 23 24  1  0
 23 20  1  0
 24 22  2  0
 25 26  1  0
 26 27  2  0
 28 31  1  0
 28 27  1  0
 29 28  2  0
 30 29  1  0
 30 25  2  0
 31 32  1  0
 32 33  1  0
 33 34  2  0
 35 34  1  0
 35 39  1  0
 36 35  2  0
 37 32  2  0
 37 36  1  0
 38 37  1  0
 40 41  1  0
 41 44  1  0
 41 43  1  0
 42 40  2  0
 45 20  1  0
 45 46  1  0
 47 45  1  0
 48 50  1  0
 48  6  1  0
 50 49  1  6
 50 52  1  0
 52 51  1  0
 53 54  1  0
 53 50  1  0
 55 66  2  0
 56 54  1  0
 56 61  1  0
 57 65  1  0
 57 67  1  0
 58 64  1  0
 58 60  1  0
 59 65  1  0
 60 61  2  0
 60 59  1  0
 62 63  1  0
 62 56  2  0
 63 58  2  0
 64 57  1  0
 65 55  1  0
 67 69  2  0
 68 67  1  0
 70 68  1  0
 71 80  2  0
 71 76  1  0
 72 68  1  0
 72 76  1  0
 73 72  1  0
 74 75  1  0
 74 73  1  0
 75 71  1  0
 76 77  2  0
 77 78  1  0
 79 78  2  0
 80 79  1  0
 81 55  1  0
 81 82  1  0
 81 91  1  0
 82 85  1  0
 83 87  1  0
 83 82  1  0
 84 83  2  0
 87 86  1  0
 89 87  1  0
 89 90  1  0
 89 88  1  0
 91 94  1  1
 91 92  1  0
 93 91  1  0
M  ISO  4  10 100  18 100  53 101  54 101
M  END
>  <TORSDO>  (2) 
F 22

>  <SCORE>  (2) 
-11.847

>  <name>  (2) 
1

>  <ligand_id>  (2) 
1

>  <original_smiles>  (2) 
[H]c1c([H])c([H])c2c(c1[H])C([H])([H])C([H])([H])C([H])([H])C2([H])N([H])C(=O)C1([H])N(C(=O)C([H])(N([H])C(=O)C([H])(N([H])C([H])([H])[H])C([H])([H])[H])C(C([H])([H])[H])(C([H])([H])[H])C([H])([H])[H])C([H])([H])c2c([H])c(OC([H])([H])C(C([H])([H])[H])(C([H])([H])c3c([H])c([H])c([H])c(C([H])([H])C([H])(N([H])C(=O)N4C([H])([H])C([H])([H])C([H])([H])C([H])(n5nc(-c6c([H])c([H])c(Oc7c([H])c([H])c(F)c([H])c7F)c([H])c6[H])c(C(=O)N([H])[H])c5N([H])[H])C4([H])[H])C([H])([H])[H])c3[H])C([H])([H])C([H])([H])[H])c([H])c([H])c2C1([H])[H]

>  <smiles>  (2) 
[H]c1c([H])c([H])c2c(c1[H])C([H])([H])C([H])([H])C([H])([H])C2([H])N([H])C(=O)C1([H])N(C(=O)C([H])(N([H])C(=O)C([H])(N([H])C([H])([H])[H])C([H])([H])[H])C(C([H])([H])[H])(C([H])([H])[H])C([H])([H])[H])C([H])([H])c2c([H])c(OC([H])([H])C(C([H])([H])[H])(C([H])([H])c3c([H])c([H])c([H])c(C([H])([H])C([H])(N([H])C(=O)N4C([H])([H])C([H])([H])C([H])([H])C([H])(n5nc(-c6c([H])c([H])c(Oc7c([H])c([H])c(F)c([H])c7F)c([H])c6[H])c(C(=O)N([H])[H])c5N([H])[H])C4([H])[H])C([H])([H])[H])c3[H])C([H])([H])C([H])([H])[H])c([H])c([H])c2C1([H])[H]

$$$$
2:0:0
     RDKit          3D

 91 99  0  0  1  0  0  0  0  0999 V2000
  -29.6850  -21.2370   22.3760 C   0  0  0  0  0  1  0  0  0  0  0  0
  -29.5880  -21.2180   20.8310 C   0  0  0  0  0  3  0  0  0  0  0  0
  -29.2770  -19.7370   20.2910 C   0  0  0  0  0  2  0  0  0  0  0  0
  -31.9810  -17.4820   20.5040 C   0  0  0  0  0  2  0  0  0  0  0  0
  -30.5360  -17.1680   20.0760 C   0  0  0  0  0  3  0  0  0  0  0  0
  -30.2220  -18.5570   20.7930 C   0  0  0  0  0  3  0  0  0  0  0  0
  -31.6150  -18.8840   20.4240 N   0  0  0  0  0  4  0  0  0  0  0  0
  -31.7050  -19.2200   19.4780 H   0  0  0  0  0  0  0  0  0  0  0  0
  -32.1090  -19.4720   21.0800 H   0  0  0  0  0  0  0  0  0  0  0  0
  -30.7010  -14.6340   20.4530 C   0  0  0  0  0  0  0  0  0  0  0  0
  -30.4210  -12.3910   19.4590 C   0  0  0  0  0  2  0  0  0  0  0  0
  -29.4970  -12.4660   18.2250 C   0  0  0  0  0  2  0  0  0  0  0  0
  -28.0200  -12.3230   18.6370 C   0  0  0  0  0  2  0  0  0  0  0  0
  -27.6360  -13.2310   19.8370 C   0  0  0  0  0  3  0  0  0  0  0  0
  -28.6840  -13.1600   20.9720 C   0  0  0  0  0  2  0  0  0  0  0  0
  -30.0000  -13.4590   20.3910 N   0  0  0  0  0  0  0  0  0  0  0  0
  -31.8960  -14.6570   20.1630 O   0  0  0  0  0  0  0  0  0  0  0  0
  -30.0180  -15.8220   20.5610 N   0  0  0  0  0  0  0  0  0  0  0  0
  -29.0250  -15.7460   20.7180 H   0  0  0  0  0  0  0  0  0  0  0  0
  -25.2490  -13.8220   20.5690 C   0  0  0  0  0  0  0  0  0  0  0  0
  -24.1770  -13.0470   20.9270 C   0  0  0  0  0  0  0  0  0  0  0  0
  -24.6370  -11.6930   20.8750 C   0  0  0  0  0  0  0  0  0  0  0  0
  -26.2900  -12.9420   20.3220 N   0  0  0  0  0  0  0  0  0  0  0  0
  -25.9290  -11.6580   20.5740 N   0  0  0  0  0  0  0  0  0  0  0  0
  -23.9060  -10.4310   21.0380 C   0  0  0  0  0  0  0  0  0  0  0  0
  -24.3620   -9.4230   21.9170 C   0  0  0  0  0  3  0  0  0  0  0  0
  -23.6320   -8.2260   22.0730 C   0  0  0  0  0  3  0  0  0  0  0  0
  -22.4300   -8.0270   21.3530 C   0  0  0  0  0  0  0  0  0  0  0  0
  -21.9930   -9.0230   20.4620 C   0  0  0  0  0  3  0  0  0  0  0  0
  -22.7230  -10.2130   20.3020 C   0  0  0  0  0  3  0  0  0  0  0  0
  -21.6660   -6.8880   21.4250 O   0  0  0  0  0  0  0  0  0  0  0  0
  -21.6860   -6.0740   22.5290 C   0  0  0  0  0  0  0  0  0  0  0  0
  -21.4000   -6.5650   23.8230 C   0  0  0  0  0  3  0  0  0  0  0  0
  -21.3660   -5.6790   24.9190 C   0  0  0  0  0  3  0  0  0  0  0  0
  -21.6050   -4.3060   24.7240 C   0  0  0  0  0  0  0  0  0  0  0  0
  -21.8810   -3.8160   23.4370 C   0  0  0  0  0  3  0  0  0  0  0  0
  -21.9190   -4.6980   22.3430 C   0  0  0  0  0  0  0  0  0  0  0  0
  -22.1650   -4.2170   21.1000 F   0  0  0  0  0  0  0  0  0  0  0  0
  -21.5670   -3.4540   25.7760 F   0  0  0  0  0  0  0  0  0  0  0  0
  -22.7800  -13.5240   21.1920 C   0  0  0  0  0  0  0  0  0  0  0  0
  -22.0410  -12.8210   22.0460 N   0  0  0  0  0  0  0  0  0  0  0  0
  -22.3460  -14.5540   20.6750 O   0  0  0  0  0  0  0  0  0  0  0  0
  -22.3980  -11.9870   22.4860 H   0  0  0  0  0  0  0  0  0  0  0  0
  -21.0980  -13.1170   22.2550 H   0  0  0  0  0  0  0  0  0  0  0  0
  -25.4240  -15.1920   20.4050 N   0  0  0  0  0  0  0  0  0  0  0  0
  -24.6760  -15.8640   20.5380 H   0  0  0  0  0  0  0  0  0  0  0  0
  -26.2790  -15.6200   20.0740 H   0  0  0  0  0  0  0  0  0  0  0  0
  -28.6570  -22.3970   20.2920 C   0  0  0  0  0  2  0  0  0  0  0  0
  -29.0710  -23.9240   20.5200 C   0  0  0  0  0  3  0  0  0  0  0  0
  -28.0780  -25.0130   19.9380 C   0  0  0  0  0  3  0  0  0  0  0  0
  -28.3190  -26.4590   20.1660 O   0  0  0  0  0  0  0  0  0  0  0  0
  -24.6270  -31.8620   23.2020 C   0  0  0  0  0  0  0  0  0  0  0  0
  -27.2130  -27.3230   20.0980 C   0  0  0  0  0  0  0  0  0  0  0  0
  -23.4180  -30.4880   21.5460 C   0  0  0  0  0  3  0  0  0  0  0  0
  -24.8590  -28.9480   20.1060 C   0  0  0  0  0  0  0  0  0  0  0  0
  -25.9600  -30.7890   21.3780 C   0  0  0  0  0  2  0  0  0  0  0  0
  -26.0320  -29.4230   20.7100 C   0  0  0  0  0  0  0  0  0  0  0  0
  -27.2100  -28.6200   20.6980 C   0  0  0  0  0  3  0  0  0  0  0  0
  -26.0210  -26.9150   19.4530 C   0  0  0  0  0  3  0  0  0  0  0  0
  -24.8560  -27.7010   19.4720 C   0  0  0  0  0  3  0  0  0  0  0  0
  -23.6290  -29.8280   20.1600 C   0  0  0  0  0  2  0  0  0  0  0  0
  -24.6870  -31.0620   22.0980 N   0  0  0  0  0  0  0  0  0  0  0  0
  -23.5430  -32.1410   23.7350 O   0  0  0  0  0  0  0  0  0  0  0  0
  -22.7470  -29.4650   22.4930 C   0  0  0  0  0  0  0  0  0  0  0  0
  -21.4190  -29.3060   22.3680 N   0  0  0  0  0  0  0  0  0  0  0  0
  -23.4190  -28.8150   23.2970 O   0  0  0  0  0  0  0  0  0  0  0  0
  -20.9340  -29.8880   21.6990 H   0  0  0  0  0  0  0  0  0  0  0  0
  -18.0280  -28.1380   22.8490 C   0  0  0  0  0  0  0  0  0  0  0  0
  -20.5890  -28.3680   23.1260 C   0  0  0  0  0  3  0  0  0  0  0  0
  -20.6730  -26.9400   22.5390 C   0  0  0  0  0  2  0  0  0  0  0  0
  -19.5700  -26.6370   21.5200 C   0  0  0  0  0  2  0  0  0  0  0  0
  -18.1900  -26.7930   22.1630 C   0  0  0  0  0  2  0  0  0  0  0  0
  -19.1540  -28.8850   23.2870 C   0  0  0  0  0  0  0  0  0  0  0  0
  -18.9460  -30.1460   23.8860 C   0  0  0  0  0  3  0  0  0  0  0  0
  -17.6460  -30.6590   24.0540 C   0  0  0  0  0  3  0  0  0  0  0  0
  -16.5350  -29.9070   23.6330 C   0  0  0  0  0  3  0  0  0  0  0  0
  -16.7270  -28.6510   23.0330 C   0  0  0  0  0  3  0  0  0  0  0  0
  -25.9120  -32.4800   23.8330 C   0  0  0  0  0  3  0  0  0  0  0  0
  -25.5910  -33.8600   24.2230 N   0  0  0  0  0  0  0  0  0  0  0  0
  -25.9070  -34.9480   23.5070 C   0  0  0  0  0  0  0  0  0  0  0  0
  -26.5690  -34.8950   22.4670 O   0  0  0  0  0  0  0  0  0  0  0  0
  -24.9860  -33.9740   25.0230 H   0  0  0  0  0  0  0  0  0  0  0  0
  -24.1480  -36.7300   23.2640 C   0  0  0  0  0  1  0  0  0  0  0  0
  -25.4120  -36.3090   24.0300 C   0  0  0  0  0  3  0  0  0  0  0  0
  -27.5580  -37.1800   24.8440 C   0  0  0  0  0  1  0  0  0  0  0  0
  -26.4280  -37.3810   23.9400 N   0  0  0  0  0  0  0  0  0  0  0  0
  -26.0160  -38.2870   24.1450 H   0  0  0  0  0  0  0  0  0  0  0  0
  -26.4470  -31.6640   25.0730 C   0  0  1  0  0  0  0  0  0  0  0  0
  -25.3640  -31.3750   26.1390 C   0  0  0  0  0  1  0  0  0  0  0  0
  -27.0330  -30.3060   24.6270 C   0  0  0  0  0  1  0  0  0  0  0  0
  -27.6050  -32.4360   25.7500 C   0  0  0  0  0  1  0  0  0  0  0  0
  2  1  1  0
  3  2  1  0
  5  4  1  0
  5 18  1  0
  5  6  1  0
  6  3  1  0
  7  4  1  0
  7  6  1  0
  7  9  1  0
  8  7  1  0
 10 18  1  0
 11 16  1  0
 12 13  1  0
 12 11  1  0
 14 13  1  0
 14 23  1  0
 14 15  1  0
 16 10  1  0
 16 15  1  0
 17 10  2  0
 18 19  1  0
 20 21  2  0
 21 40  1  0
 22 21  1  0
 22 25  1  0
 23 20  1  0
 23 24  1  0
 24 22  2  0
 25 26  1  0
 26 27  2  0
 28 31  1  0
 28 27  1  0
 29 28  2  0
 30 29  1  0
 30 25  2  0
 31 32  1  0
 32 33  1  0
 33 34  2  0
 35 34  1  0
 35 39  1  0
 36 35  2  0
 37 32  2  0
 37 36  1  0
 38 37  1  0
 40 41  1  0
 41 44  1  0
 41 43  1  0
 42 40  2  0
 45 46  1  0
 45 20  1  0
 47 45  1  0
 48 49  1  0
 48  2  1  0
 50 51  1  0
 50 49  2  0
 52 63  2  0
 53 51  1  0
 53 58  1  0
 54 62  1  0
 54 64  1  0
 55 61  1  0
 55 57  1  0
 56 62  1  0
 57 56  1  0
 58 57  2  0
 59 60  1  0
 59 53  2  0
 60 55  2  0
 61 54  1  0
 62 52  1  0
 64 66  2  0
 65 64  1  0
 67 65  1  0
 68 77  2  0
 68 73  1  0
 69 65  1  0
 69 73  1  0
 70 69  1  0
 71 72  1  0
 71 70  1  0
 72 68  1  0
 73 74  2  0
 74 75  1  0
 76 75  2  0
 77 76  1  0
 78 52  1  0
 78 79  1  0
 78 88  1  0
 79 82  1  0
 80 84  1  0
 80 79  1  0
 81 80  2  0
 84 83  1  0
 86 84  1  0
 86 87  1  0
 86 85  1  0
 88 91  1  1
 88 89  1  0
 90 88  1  0
M  ISO  4  10 100  18 100  50 101  51 101
M  END
>  <TORSDO>  (3) 
F 21

>  <SCORE>  (3) 
-13.318

>  <name>  (3) 
2

>  <ligand_id>  (3) 
2

>  <original_smiles>  (3) 
[H]c1c([H])c([H])c2c(c1[H])C([H])([H])C([H])([H])C([H])([H])C2([H])N([H])C(=O)C1([H])N(C(=O)C([H])(N([H])C(=O)C([H])(N([H])C([H])([H])[H])C([H])([H])[H])C(C([H])([H])[H])(C([H])([H])[H])C([H])([H])[H])C([H])([H])c2c([H])c(OC([H])([H])C([H])([H])C([H])([H])C([H])(C([H])([H])[H])C([H])([H])C3([H])C([H])(N([H])C(=O)N4C([H])([H])C([H])([H])C([H])([H])C([H])(n5nc(-c6c([H])c([H])c(Oc7c([H])c([H])c(F)c([H])c7F)c([H])c6[H])c(C(=O)N([H])[H])c5N([H])[H])C4([H])[H])C([H])([H])[N+]3([H])[H])c([H])c([H])c2C1([H])[H]

>  <smiles>  (3) 
[H]c1c([H])c([H])c2c(c1[H])C([H])([H])C([H])([H])C([H])([H])C2([H])N([H])C(=O)C1([H])N(C(=O)C([H])(N([H])C(=O)C([H])(N([H])C([H])([H])[H])C([H])([H])[H])C(C([H])([H])[H])(C([H])([H])[H])C([H])([H])[H])C([H])([H])c2c([H])c(OC([H])([H])C([H])([H])C([H])([H])C([H])(C([H])([H])[H])C([H])([H])C3([H])C([H])(N([H])C(=O)N4C([H])([H])C([H])([H])C([H])([H])C([H])(n5nc(-c6c([H])c([H])c(Oc7c([H])c([H])c(F)c([H])c7F)c([H])c6[H])c(C(=O)N([H])[H])c5N([H])[H])C4([H])[H])C([H])([H])[N+]3([H])[H])c([H])c([H])c2C1([H])[H]

$$$$
3:0:0
     RDKit          3D

104113  0  0  1  0  0  0  0  0999 V2000
  -30.0020  -20.1800   22.0820 C   0  0  0  0  0  2  0  0  0  0  0  0
  -28.6650  -20.4710   21.4600 C   0  0  0  0  0  2  0  0  0  0  0  0
  -29.7190  -19.6730   20.6750 C   0  0  1  0  0  0  0  0  0  0  0  0
  -30.4930  -20.3380   19.5110 C   0  0  0  0  0  2  0  0  0  0  0  0
  -30.5030  -22.9660   19.9360 C   0  0  0  0  0  2  0  0  0  0  0  0
  -30.5450  -22.2080   17.7150 C   0  0  0  0  0  2  0  0  0  0  0  0
  -30.0440  -21.7630   19.0910 C   0  0  0  0  0  3  0  0  0  0  0  0
  -30.1060  -24.1580   19.0470 C   0  0  0  0  0  3  0  0  0  0  0  0
  -30.2390  -23.6540   17.6570 N   0  0  0  0  0  4  0  0  0  0  0  0
  -29.3560  -23.7780   17.1860 H   0  0  0  0  0  0  0  0  0  0  0  0
  -30.9460  -24.1420   17.1340 H   0  0  0  0  0  0  0  0  0  0  0  0
  -30.8750  -25.4790   19.2980 C   0  0  0  0  0  2  0  0  0  0  0  0
  -30.0300  -26.7360   18.9860 C   0  0  0  0  0  2  0  0  0  0  0  0
  -29.4420  -27.2520   20.1860 O   0  0  0  0  0  0  0  0  0  0  0  0
  -24.8020  -31.6370   23.3160 C   0  0  0  0  0  0  0  0  0  0  0  0
  -28.1780  -27.8000   20.1260 C   0  0  0  0  0  0  0  0  0  0  0  0
  -23.8760  -30.2000   21.5290 C   0  0  0  0  0  3  0  0  0  0  0  0
  -25.5920  -28.9550   20.1060 C   0  0  0  0  0  0  0  0  0  0  0  0
  -26.3370  -30.8990   21.4990 C   0  0  0  0  0  2  0  0  0  0  0  0
  -26.6370  -29.5930   20.7900 C   0  0  0  0  0  0  0  0  0  0  0  0
  -27.9240  -29.0150   20.8070 C   0  0  0  0  0  3  0  0  0  0  0  0
  -27.1090  -27.1620   19.4600 C   0  0  0  0  0  3  0  0  0  0  0  0
  -25.8210  -27.7350   19.4470 C   0  0  0  0  0  3  0  0  0  0  0  0
  -24.2410  -29.6370   20.1280 C   0  0  0  0  0  2  0  0  0  0  0  0
  -25.0180  -30.9250   22.1740 N   0  0  0  0  0  0  0  0  0  0  0  0
  -23.6710  -31.7320   23.8070 O   0  0  0  0  0  0  0  0  0  0  0  0
  -23.3170  -29.0460   22.3930 C   0  0  0  0  0  0  0  0  0  0  0  0
  -22.0510  -28.6730   22.1410 N   0  0  0  0  0  0  0  0  0  0  0  0
  -24.0200  -28.4890   23.2370 O   0  0  0  0  0  0  0  0  0  0  0  0
  -21.5400  -29.1890   21.4400 H   0  0  0  0  0  0  0  0  0  0  0  0
  -18.8850  -26.9360   22.2500 C   0  0  0  0  0  0  0  0  0  0  0  0
  -21.3260  -27.5840   22.7960 C   0  0  0  0  0  3  0  0  0  0  0  0
  -21.7160  -26.2150   22.1910 C   0  0  0  0  0  2  0  0  0  0  0  0
  -20.7850  -25.7650   21.0620 C   0  0  0  0  0  2  0  0  0  0  0  0
  -19.3430  -25.6610   21.5620 C   0  0  0  0  0  2  0  0  0  0  0  0
  -19.8160  -27.8460   22.8140 C   0  0  0  0  0  0  0  0  0  0  0  0
  -19.3390  -29.0340   23.4100 C   0  0  0  0  0  3  0  0  0  0  0  0
  -17.9610  -29.3130   23.4550 C   0  0  0  0  0  3  0  0  0  0  0  0
  -17.0410  -28.3990   22.9120 C   0  0  0  0  0  3  0  0  0  0  0  0
  -17.5040  -27.2130   22.3150 C   0  0  0  0  0  3  0  0  0  0  0  0
  -25.9630  -32.3860   24.0480 C   0  0  0  0  0  3  0  0  0  0  0  0
  -26.4310  -31.6660   25.3720 C   0  0  1  0  0  0  0  0  0  0  0  0
  -25.2710  -31.3000   26.3250 C   0  0  0  0  0  1  0  0  0  0  0  0
  -27.1980  -30.3660   25.0370 C   0  0  0  0  0  1  0  0  0  0  0  0
  -27.4080  -32.5780   26.1470 C   0  0  0  0  0  1  0  0  0  0  0  0
  -25.4930  -33.7480   24.3360 N   0  0  0  0  0  0  0  0  0  0  0  0
  -25.7960  -34.8300   23.6050 C   0  0  0  0  0  0  0  0  0  0  0  0
  -26.5700  -34.7920   22.6440 O   0  0  0  0  0  0  0  0  0  0  0  0
  -24.8200  -33.8420   25.0820 H   0  0  0  0  0  0  0  0  0  0  0  0
  -23.9530  -36.4540   23.0670 C   0  0  0  0  0  1  0  0  0  0  0  0
  -25.1350  -36.1630   24.0050 C   0  0  0  0  0  3  0  0  0  0  0  0
  -27.0860  -37.2330   25.0440 C   0  0  0  0  0  1  0  0  0  0  0  0
  -26.0710  -37.3090   23.9970 N   0  0  0  0  0  0  0  0  0  0  0  0
  -25.5690  -38.1890   24.1040 H   0  0  0  0  0  0  0  0  0  0  0  0
  -29.4510  -18.1670   20.3820 C   0  0  0  0  0  3  0  0  0  0  0  0
  -28.6120  -17.5280   21.4220 N   0  0  0  0  0  4  0  0  0  0  0  0
  -29.1190  -17.3600   22.2710 H   0  0  0  0  0  0  0  0  0  0  0  0
  -28.2040  -16.6670   21.1110 H   0  0  0  0  0  0  0  0  0  0  0  0
  -27.8490  -18.1530   21.6340 H   0  0  0  0  0  0  0  0  0  0  0  0
  -30.6910  -17.2890   19.9740 C   0  0  0  0  0  3  0  0  0  0  0  0
  -31.1540  -14.8250   19.7340 C   0  0  0  0  0  0  0  0  0  0  0  0
  -30.9360  -12.5050   18.9300 C   0  0  0  0  0  2  0  0  0  0  0  0
  -29.9460  -12.4790   17.7430 C   0  0  0  0  0  2  0  0  0  0  0  0
  -28.4860  -12.3720   18.2300 C   0  0  0  0  0  2  0  0  0  0  0  0
  -28.1600  -13.3730   19.3710 C   0  0  0  0  0  3  0  0  0  0  0  0
  -29.2530  -13.3390   20.4630 C   0  0  0  0  0  2  0  0  0  0  0  0
  -30.5460  -13.6130   19.8140 N   0  0  0  0  0  0  0  0  0  0  0  0
  -32.2160  -15.0100   19.1310 O   0  0  0  0  0  0  0  0  0  0  0  0
  -30.4430  -15.8520   20.2410 N   0  0  0  0  0  0  0  0  0  0  0  0
  -29.5870  -15.5810   20.6940 H   0  0  0  0  0  0  0  0  0  0  0  0
  -25.8430  -14.0480   20.2700 C   0  0  0  0  0  0  0  0  0  0  0  0
  -24.7720  -13.3060   20.6970 C   0  0  0  0  0  0  0  0  0  0  0  0
  -25.1760  -11.9390   20.5900 C   0  0  0  0  0  0  0  0  0  0  0  0
  -26.8310  -13.1370   19.9340 N   0  0  0  0  0  0  0  0  0  0  0  0
  -26.4340  -11.8620   20.1780 N   0  0  0  0  0  0  0  0  0  0  0  0
  -24.4150  -10.6990   20.8000 C   0  0  0  0  0  0  0  0  0  0  0  0
  -24.8200   -9.7360   21.7510 C   0  0  0  0  0  3  0  0  0  0  0  0
  -24.0650   -8.5590   21.9450 C   0  0  0  0  0  3  0  0  0  0  0  0
  -22.8940   -8.3350   21.1850 C   0  0  0  0  0  0  0  0  0  0  0  0
  -22.5080   -9.2860   20.2230 C   0  0  0  0  0  3  0  0  0  0  0  0
  -23.2630  -10.4530   20.0290 C   0  0  0  0  0  3  0  0  0  0  0  0
  -22.1110   -7.2110   21.2880 O   0  0  0  0  0  0  0  0  0  0  0  0
  -21.9390   -6.5620   22.4840 C   0  0  0  0  0  0  0  0  0  0  0  0
  -21.4130   -7.2160   23.6200 C   0  0  0  0  0  3  0  0  0  0  0  0
  -21.1870   -6.4940   24.8080 C   0  0  0  0  0  3  0  0  0  0  0  0
  -21.4740   -5.1150   24.8600 C   0  0  0  0  0  0  0  0  0  0  0  0
  -21.9950   -4.4610   23.7310 C   0  0  0  0  0  3  0  0  0  0  0  0
  -22.2210   -5.1810   22.5450 C   0  0  0  0  0  0  0  0  0  0  0  0
  -22.7020   -4.5410   21.4520 F   0  0  0  0  0  0  0  0  0  0  0  0
  -21.2490   -4.4180   25.9990 F   0  0  0  0  0  0  0  0  0  0  0  0
  -23.4190  -13.8260   21.0870 C   0  0  0  0  0  0  0  0  0  0  0  0
  -22.7360  -13.1440   21.9980 N   0  0  0  0  0  0  0  0  0  0  0  0
  -22.9810  -14.8780   20.6200 O   0  0  0  0  0  0  0  0  0  0  0  0
  -23.1060  -12.2950   22.4010 H   0  0  0  0  0  0  0  0  0  0  0  0
  -21.8280  -13.4730   22.2970 H   0  0  0  0  0  0  0  0  0  0  0  0
  -26.0460  -15.4160   20.1150 N   0  0  0  0  0  0  0  0  0  0  0  0
  -25.2440  -16.0340   20.1880 H   0  0  0  0  0  0  0  0  0  0  0  0
  -26.7440  -15.7630   19.4690 H   0  0  0  0  0  0  0  0  0  0  0  0
  -32.0610  -17.7230   20.5740 C   0  0  0  0  0  2  0  0  0  0  0  0
  -32.8110  -18.7970   19.7490 C   0  0  0  0  0  2  0  0  0  0  0  0
  -34.1930  -19.0010   20.2160 N   0  0  0  0  0  4  0  0  0  0  0  0
  -34.2260  -19.2850   21.1780 H   0  0  0  0  0  0  0  0  0  0  0  0
  -34.6280  -19.7190   19.6620 H   0  0  0  0  0  0  0  0  0  0  0  0
  -34.7370  -18.1650   20.1100 H   0  0  0  0  0  0  0  0  0  0  0  0
  2  1  1  0
  3  2  1  0
  3  1  1  0
  3  4  1  6
  6  7  1  0
  7  4  1  0
  7  5  1  0
  8 12  1  0
  8  5  1  0
  9  6  1  0
  9  8  1  0
 10  9  1  0
 11  9  1  0
 13 12  1  0
 13 14  1  0
 15 26  2  0
 16 14  1  0
 16 21  1  0
 17 25  1  0
 17 27  1  0
 18 24  1  0
 18 20  1  0
 19 25  1  0
 20 21  2  0
 20 19  1  0
 22 16  2  0
 23 22  1  0
 23 18  2  0
 24 17  1  0
 25 15  1  0
 27 29  2  0
 28 27  1  0
 30 28  1  0
 31 40  2  0
 31 36  1  0
 32 28  1  0
 32 36  1  0
 33 32  1  0
 34 35  1  0
 34 33  1  0
 35 31  1  0
 36 37  2  0
 37 38  1  0
 39 38  2  0
 40 39  1  0
 41 15  1  0
 41 46  1  0
 41 42  1  0
 42 45  1  1
 42 43  1  0
 44 42  1  0
 46 49  1  0
 47 51  1  0
 47 46  1  0
 48 47  2  0
 51 50  1  0
 53 51  1  0
 53 54  1  0
 53 52  1  0
 55  3  1  0
 55 56  1  0
 56 59  1  0
 56 57  1  0
 58 56  1  0
 60 69  1  0
 60 55  1  0
 60 99  1  0
 61 67  1  0
 61 69  1  0
 62 67  1  0
 63 64  1  0
 63 62  1  0
 65 64  1  0
 65 74  1  0
 65 66  1  0
 67 66  1  0
 68 61  2  0
 69 70  1  0
 71 72  2  0
 72 91  1  0
 73 72  1  0
 73 76  1  0
 74 75  1  0
 74 71  1  0
 75 73  2  0
 76 77  1  0
 77 78  2  0
 79 82  1  0
 79 78  1  0
 80 79  2  0
 81 80  1  0
 81 76  2  0
 82 83  1  0
 83 88  2  0
 83 84  1  0
 84 85  2  0
 85 86  1  0
 86 90  1  0
 87 86  2  0
 88 87  1  0
 89 88  1  0
 91 92  1  0
 92 95  1  0
 92 94  1  0
 93 91  2  0
 96 97  1  0
 96 71  1  0
 98 96  1  0
100101  1  0
100 99  1  0
101102  1  0
103101  1  0
104101  1  0
M  ISO  4  13 101  14 101  61 100  69 100
M  END
>  <TORSDO>  (4) 
F 26

>  <SCORE>  (4) 
-9.906

>  <name>  (4) 
3

>  <ligand_id>  (4) 
3

>  <original_smiles>  (4) 
[H]c1c([H])c([H])c2c(c1[H])C([H])([H])C([H])([H])C([H])([H])C2([H])N([H])C(=O)C1([H])N(C(=O)C([H])(N([H])C(=O)C([H])(N([H])C([H])([H])[H])C([H])([H])[H])C(C([H])([H])[H])(C([H])([H])[H])C([H])([H])[H])C([H])([H])c2c([H])c(OC([H])([H])C([H])([H])C3([H])C([H])([H])C([H])(C([H])([H])C4(C([H])(C([H])(N([H])C(=O)N5C([H])([H])C([H])([H])C([H])([H])C([H])(n6nc(-c7c([H])c([H])c(Oc8c([H])c([H])c(F)c([H])c8F)c([H])c7[H])c(C(=O)N([H])[H])c6N([H])[H])C5([H])[H])C([H])([H])C([H])([H])[N+]([H])([H])[H])[N+]([H])([H])[H])C([H])([H])C4([H])[H])C([H])([H])[N+]3([H])[H])c([H])c([H])c2C1([H])[H]

>  <smiles>  (4) 
[H]c1c([H])c([H])c2c(c1[H])C([H])([H])C([H])([H])C([H])([H])C2([H])N([H])C(=O)C1([H])N(C(=O)C([H])(N([H])C(=O)C([H])(N([H])C([H])([H])[H])C([H])([H])[H])C(C([H])([H])[H])(C([H])([H])[H])C([H])([H])[H])C([H])([H])c2c([H])c(OC([H])([H])C([H])([H])C3([H])C([H])([H])C([H])(C([H])([H])C4(C([H])(C([H])(N([H])C(=O)N5C([H])([H])C([H])([H])C([H])([H])C([H])(n6nc(-c7c([H])c([H])c(Oc8c([H])c([H])c(F)c([H])c8F)c([H])c7[H])c(C(=O)N([H])[H])c6N([H])[H])C5([H])[H])C([H])([H])C([H])([H])[N+]([H])([H])[H])[N+]([H])([H])[H])C([H])([H])C4([H])[H])C([H])([H])[N+]3([H])[H])c([H])c([H])c2C1([H])[H]

$$$$
4:0:0
     RDKit          3D

 97105  0  0  1  0  0  0  0  0999 V2000
  -30.0160  -22.4840   21.3880 C   0  0  0  0  0  2  0  0  0  0  0  0
  -28.1570  -22.7930   19.9730 C   0  0  0  0  0  2  0  0  0  0  0  0
  -29.2690  -21.1370   21.2810 C   0  0  0  0  0  3  0  0  0  0  0  0
  -28.4240  -21.2820   20.0050 C   0  0  0  0  0  3  0  0  0  0  0  0
  -29.4320  -23.3830   20.3860 N   0  0  0  0  0  0  0  0  0  0  0  0
  -27.1870  -20.4820   20.0400 N   0  0  0  0  0  4  0  0  0  0  0  0
  -26.6280  -20.7050   20.8430 H   0  0  0  0  0  0  0  0  0  0  0  0
  -27.3980  -19.5000   20.0590 H   0  0  0  0  0  0  0  0  0  0  0  0
  -26.6390  -20.6590   19.2160 H   0  0  0  0  0  0  0  0  0  0  0  0
  -31.2420  -20.0930   22.5040 C   0  0  0  0  0  1  0  0  0  0  0  0
  -30.1390  -19.8470   21.4470 C   0  0  0  0  0  3  0  0  0  0  0  0
  -30.6630  -19.2470   20.1040 C   0  0  0  0  0  2  0  0  0  0  0  0
  -31.6790  -18.0970   20.1700 C   0  0  0  0  0  0  0  0  0  0  0  0
  -32.6200  -18.0360   19.3290 N   0  0  0  0  0  0  0  0  0  0  0  0
  -32.5950  -18.8050   18.6670 H   0  0  0  0  0  0  0  0  0  0  0  0
  -31.5330  -17.0350   21.2670 C   0  0  0  0  0  2  0  0  0  0  0  0
  -31.5460  -14.7770   20.1420 C   0  0  0  0  0  0  0  0  0  0  0  0
  -31.1160  -12.6360   18.9890 C   0  0  0  0  0  2  0  0  0  0  0  0
  -30.1550  -12.8580   17.8050 C   0  0  0  0  0  2  0  0  0  0  0  0
  -28.6870  -12.7900   18.2680 C   0  0  0  0  0  2  0  0  0  0  0  0
  -28.4140  -13.6680   19.5190 C   0  0  0  0  0  3  0  0  0  0  0  0
  -29.4780  -13.4080   20.6080 C   0  0  0  0  0  2  0  0  0  0  0  0
  -30.8020  -13.6470   20.0090 N   0  0  0  0  0  0  0  0  0  0  0  0
  -32.6580  -14.9100   19.6280 O   0  0  0  0  0  0  0  0  0  0  0  0
  -30.9490  -15.7630   20.8280 N   0  0  0  0  0  0  0  0  0  0  0  0
  -30.0180  -15.5640   21.1580 H   0  0  0  0  0  0  0  0  0  0  0  0
  -26.0810  -14.4090   20.3150 C   0  0  0  0  0  0  0  0  0  0  0  0
  -24.9750  -13.6960   20.6940 C   0  0  0  0  0  0  0  0  0  0  0  0
  -25.3450  -12.3200   20.6080 C   0  0  0  0  0  0  0  0  0  0  0  0
  -27.0600  -13.4690   20.0280 N   0  0  0  0  0  0  0  0  0  0  0  0
  -26.6210  -12.2060   20.2610 N   0  0  0  0  0  0  0  0  0  0  0  0
  -24.5450  -11.1000   20.7810 C   0  0  0  0  0  0  0  0  0  0  0  0
  -24.9180  -10.0970   21.7020 C   0  0  0  0  0  3  0  0  0  0  0  0
  -24.1220   -8.9420   21.8640 C   0  0  0  0  0  3  0  0  0  0  0  0
  -22.9380   -8.7840   21.1050 C   0  0  0  0  0  0  0  0  0  0  0  0
  -22.5840   -9.7760   20.1720 C   0  0  0  0  0  3  0  0  0  0  0  0
  -23.3800  -10.9210   20.0080 C   0  0  0  0  0  3  0  0  0  0  0  0
  -22.1170   -7.6840   21.1750 O   0  0  0  0  0  0  0  0  0  0  0  0
  -21.9780   -6.9660   22.3350 C   0  0  0  0  0  0  0  0  0  0  0  0
  -21.5310   -7.5620   23.5330 C   0  0  0  0  0  3  0  0  0  0  0  0
  -21.3350   -6.7710   24.6840 C   0  0  0  0  0  3  0  0  0  0  0  0
  -21.5750   -5.3860   24.6350 C   0  0  0  0  0  0  0  0  0  0  0  0
  -22.0150   -4.7880   23.4410 C   0  0  0  0  0  3  0  0  0  0  0  0
  -22.2120   -5.5760   22.2920 C   0  0  0  0  0  0  0  0  0  0  0  0
  -22.6150   -4.9920   21.1380 F   0  0  0  0  0  0  0  0  0  0  0  0
  -21.3800   -4.6240   25.7370 F   0  0  0  0  0  0  0  0  0  0  0  0
  -23.6200  -14.2530   21.0220 C   0  0  0  0  0  0  0  0  0  0  0  0
  -22.8770  -13.5830   21.8960 N   0  0  0  0  0  0  0  0  0  0  0  0
  -23.2320  -15.3160   20.5380 O   0  0  0  0  0  0  0  0  0  0  0  0
  -23.2050  -12.7220   22.3080 H   0  0  0  0  0  0  0  0  0  0  0  0
  -21.9690  -13.9370   22.1580 H   0  0  0  0  0  0  0  0  0  0  0  0
  -26.3310  -15.7710   20.1720 N   0  0  0  0  0  0  0  0  0  0  0  0
  -25.6030  -16.4660   20.3030 H   0  0  0  0  0  0  0  0  0  0  0  0
  -27.1910  -16.1590   19.8080 H   0  0  0  0  0  0  0  0  0  0  0  0
  -29.3120  -24.7720   20.8540 C   0  0  0  0  0  2  0  0  0  0  0  0
  -29.1200  -25.7580   19.6830 C   0  0  0  0  0  2  0  0  0  0  0  0
  -28.9380  -27.0990   20.1660 O   0  0  0  0  0  0  0  0  0  0  0  0
  -24.6390  -31.8590   23.2580 C   0  0  0  0  0  0  0  0  0  0  0  0
  -27.6950  -27.7070   20.1340 C   0  0  0  0  0  0  0  0  0  0  0  0
  -23.5980  -30.4480   21.5160 C   0  0  0  0  0  3  0  0  0  0  0  0
  -25.2050  -29.0670   20.1050 C   0  0  0  0  0  0  0  0  0  0  0  0
  -26.1040  -30.9690   21.4490 C   0  0  0  0  0  2  0  0  0  0  0  0
  -26.3020  -29.6320   20.7630 C   0  0  0  0  0  0  0  0  0  0  0  0
  -27.5450  -28.9580   20.7790 C   0  0  0  0  0  3  0  0  0  0  0  0
  -26.5710  -27.1630   19.4630 C   0  0  0  0  0  3  0  0  0  0  0  0
  -25.3340  -27.8310   19.4550 C   0  0  0  0  0  3  0  0  0  0  0  0
  -23.9100  -29.8430   20.1240 C   0  0  0  0  0  2  0  0  0  0  0  0
  -24.7950  -31.1060   22.1330 N   0  0  0  0  0  0  0  0  0  0  0  0
  -23.5180  -32.0400   23.7580 O   0  0  0  0  0  0  0  0  0  0  0  0
  -22.9780  -29.3480   22.4070 C   0  0  0  0  0  0  0  0  0  0  0  0
  -21.6680  -29.1060   22.2340 N   0  0  0  0  0  0  0  0  0  0  0  0
  -23.6720  -28.7150   23.2090 O   0  0  0  0  0  0  0  0  0  0  0  0
  -21.1680  -29.6720   21.5620 H   0  0  0  0  0  0  0  0  0  0  0  0
  -18.3350  -27.7660   22.6200 C   0  0  0  0  0  0  0  0  0  0  0  0
  -20.8800  -28.0930   22.9370 C   0  0  0  0  0  3  0  0  0  0  0  0
  -21.0380  -26.7070   22.2730 C   0  0  0  0  0  2  0  0  0  0  0  0
  -19.9570  -26.4100   21.2290 C   0  0  0  0  0  2  0  0  0  0  0  0
  -18.5650  -26.4670   21.8660 C   0  0  0  0  0  2  0  0  0  0  0  0
  -19.4230  -28.5370   23.1100 C   0  0  0  0  0  0  0  0  0  0  0  0
  -19.1560  -29.7530   23.7740 C   0  0  0  0  0  3  0  0  0  0  0  0
  -17.8330  -30.2000   23.9560 C   0  0  0  0  0  3  0  0  0  0  0  0
  -16.7590  -29.4240   23.4860 C   0  0  0  0  0  3  0  0  0  0  0  0
  -17.0110  -28.2090   22.8230 C   0  0  0  0  0  3  0  0  0  0  0  0
  -25.8520  -32.5470   23.9560 C   0  0  0  0  0  3  0  0  0  0  0  0
  -26.3130  -31.8090   25.2720 C   0  0  1  0  0  0  0  0  0  0  0  0
  -25.1590  -31.5280   26.2640 C   0  0  0  0  0  1  0  0  0  0  0  0
  -26.9840  -30.4580   24.9350 C   0  0  0  0  0  1  0  0  0  0  0  0
  -27.3780  -32.6590   26.0040 C   0  0  0  0  0  1  0  0  0  0  0  0
  -25.4660  -33.9340   24.2450 N   0  0  0  0  0  0  0  0  0  0  0  0
  -25.8090  -34.9900   23.4960 C   0  0  0  0  0  0  0  0  0  0  0  0
  -26.5520  -34.9020   22.5150 O   0  0  0  0  0  0  0  0  0  0  0  0
  -24.8140  -34.0740   25.0020 H   0  0  0  0  0  0  0  0  0  0  0  0
  -24.0320  -36.7010   23.0040 C   0  0  0  0  0  1  0  0  0  0  0  0
  -25.2340  -36.3620   23.9000 C   0  0  0  0  0  3  0  0  0  0  0  0
  -27.2700  -37.3470   24.8520 C   0  0  0  0  0  1  0  0  0  0  0  0
  -26.2270  -37.4560   23.8370 N   0  0  0  0  0  0  0  0  0  0  0  0
  -25.7740  -38.3600   23.9430 H   0  0  0  0  0  0  0  0  0  0  0  0
  2  4  1  0
  2  5  1  0
  3  1  1  0
  3 11  1  0
  4  6  1  0
  4  3  1  0
  5 55  1  0
  5  1  1  0
  6  8  1  0
  6  7  1  0
  9  6  1  0
 11 10  1  0
 12 13  1  0
 12 11  1  0
 13 16  1  0
 14 13  2  0
 15 14  1  0
 17 25  1  0
 18 23  1  0
 19 20  1  0
 19 18  1  0
 21 20  1  0
 21 30  1  0
 21 22  1  0
 23 17  1  0
 23 22  1  0
 24 17  2  0
 25 26  1  0
 25 16  1  0
 27 28  2  0
 28 47  1  0
 29 28  1  0
 29 32  1  0
 30 31  1  0
 30 27  1  0
 31 29  2  0
 32 33  1  0
 33 34  2  0
 35 38  1  0
 35 34  1  0
 36 35  2  0
 37 36  1  0
 37 32  2  0
 38 39  1  0
 39 40  1  0
 40 41  2  0
 42 41  1  0
 42 46  1  0
 43 42  2  0
 44 39  2  0
 44 43  1  0
 45 44  1  0
 47 48  1  0
 48 51  1  0
 48 50  1  0
 49 47  2  0
 52 53  1  0
 52 27  1  0
 54 52  1  0
 56 57  1  0
 56 55  1  0
 58 69  2  0
 59 57  1  0
 59 64  1  0
 60 68  1  0
 60 70  1  0
 61 67  1  0
 61 63  1  0
 62 68  1  0
 63 64  2  0
 63 62  1  0
 65 59  2  0
 66 65  1  0
 66 61  2  0
 67 60  1  0
 68 58  1  0
 70 72  2  0
 71 70  1  0
 73 71  1  0
 74 83  2  0
 74 79  1  0
 75 71  1  0
 75 79  1  0
 76 75  1  0
 77 78  1  0
 77 76  1  0
 78 74  1  0
 79 80  2  0
 80 81  1  0
 82 81  2  0
 83 82  1  0
 84 58  1  0
 84 89  1  0
 84 85  1  0
 85 88  1  1
 85 86  1  0
 87 85  1  0
 89 92  1  0
 90 94  1  0
 90 89  1  0
 91 90  2  0
 94 93  1  0
 96 94  1  0
 96 97  1  0
 96 95  1  0
M  ISO  4  17 100  25 100  56 101  57 101
M  END
>  <TORSDO>  (5) 
F 23

>  <SCORE>  (5) 
-11.835

>  <name>  (5) 
4

>  <ligand_id>  (5) 
4

>  <original_smiles>  (5) 
[H]N=C(C([H])([H])N([H])C(=O)N1C([H])([H])C([H])([H])C([H])([H])C([H])(n2nc(-c3c([H])c([H])c(Oc4c([H])c([H])c(F)c([H])c4F)c([H])c3[H])c(C(=O)N([H])[H])c2N([H])[H])C1([H])[H])C([H])([H])C([H])(C([H])([H])[H])C1([H])C([H])([H])N(C([H])([H])C([H])([H])Oc2c([H])c([H])c3c(c2[H])C([H])([H])N(C(=O)C([H])(N([H])C(=O)C([H])(N([H])C([H])([H])[H])C([H])([H])[H])C(C([H])([H])[H])(C([H])([H])[H])C([H])([H])[H])C([H])(C(=O)N([H])C2([H])c4c([H])c([H])c([H])c([H])c4C([H])([H])C([H])([H])C2([H])[H])C3([H])[H])C([H])([H])C1([H])[N+]([H])([H])[H]

>  <smiles>  (5) 
[H]N=C(C([H])([H])N([H])C(=O)N1C([H])([H])C([H])([H])C([H])([H])C([H])(n2nc(-c3c([H])c([H])c(Oc4c([H])c([H])c(F)c([H])c4F)c([H])c3[H])c(C(=O)N([H])[H])c2N([H])[H])C1([H])[H])C([H])([H])C([H])(C([H])([H])[H])C1([H])C([H])([H])N(C([H])([H])C([H])([H])Oc2c([H])c([H])c3c(c2[H])C([H])([H])N(C(=O)C([H])(N([H])C(=O)C([H])(N([H])C([H])([H])[H])C([H])([H])[H])C(C([H])([H])[H])(C([H])([H])[H])C([H])([H])[H])C([H])(C(=O)N([H])C2([H])c4c([H])c([H])c([H])c([H])c4C([H])([H])C([H])([H])C2([H])[H])C3([H])[H])C([H])([H])C1([H])[N+]([H])([H])[H]

$$$$
5:0:0
     RDKit          3D

 96104  0  0  1  0  0  0  0  0999 V2000
  -30.2100  -22.5880   19.6350 C   0  0  0  0  0  3  0  0  0  0  0  0
  -30.8450  -23.0870   18.3990 N   0  0  0  0  0  4  0  0  0  0  0  0
  -30.1550  -23.3620   17.7220 H   0  0  0  0  0  0  0  0  0  0  0  0
  -31.4120  -22.3650   17.9900 H   0  0  0  0  0  0  0  0  0  0  0  0
  -31.4430  -23.8690   18.5950 H   0  0  0  0  0  0  0  0  0  0  0  0
  -29.4200  -21.2880   19.3100 C   0  0  0  0  0  0  0  0  0  0  0  0
  -28.1870  -21.2660   19.2660 O   0  0  0  0  0  0  0  0  0  0  0  0
  -31.2950  -19.9480   18.0040 C   0  0  0  0  0  2  0  0  0  0  0  0
  -29.9760  -19.3220   17.6670 C   0  0  0  0  0  3  0  0  0  0  0  0
  -30.1810  -19.9860   19.0450 C   0  0  2  0  0  0  0  0  0  0  0  0
  -29.1410  -19.8990   16.5350 C   0  0  0  0  0  1  0  0  0  0  0  0
  -30.3540  -19.1460   20.3290 C   0  0  0  0  0  2  0  0  0  0  0  0
  -30.1510  -17.6190   20.1550 C   0  0  0  0  0  2  0  0  0  0  0  0
  -30.4100  -16.7810   21.4260 C   0  0  0  0  0  2  0  0  0  0  0  0
  -30.6780  -14.4340   20.5470 C   0  0  0  0  0  0  0  0  0  0  0  0
  -30.3630  -12.3140   19.3270 C   0  0  0  0  0  2  0  0  0  0  0  0
  -29.4130  -12.5510   18.1340 C   0  0  0  0  0  2  0  0  0  0  0  0
  -27.9390  -12.4260   18.5620 C   0  0  0  0  0  2  0  0  0  0  0  0
  -27.6160  -13.2320   19.8470 C   0  0  0  0  0  3  0  0  0  0  0  0
  -28.6690  -12.9600   20.9430 C   0  0  0  0  0  2  0  0  0  0  0  0
  -29.9990  -13.2680   20.3850 N   0  0  0  0  0  0  0  0  0  0  0  0
  -31.7670  -14.6640   20.0130 O   0  0  0  0  0  0  0  0  0  0  0  0
  -30.0260  -15.3780   21.2470 N   0  0  0  0  0  0  0  0  0  0  0  0
  -29.1440  -15.0930   21.6460 H   0  0  0  0  0  0  0  0  0  0  0  0
  -25.2130  -13.8470   20.5400 C   0  0  0  0  0  0  0  0  0  0  0  0
  -24.1430  -13.0780   20.9090 C   0  0  0  0  0  0  0  0  0  0  0  0
  -24.6020  -11.7250   20.8830 C   0  0  0  0  0  0  0  0  0  0  0  0
  -26.2600  -12.9640   20.3180 N   0  0  0  0  0  0  0  0  0  0  0  0
  -25.8920  -11.6820   20.5770 N   0  0  0  0  0  0  0  0  0  0  0  0
  -23.8720  -10.4650   21.0780 C   0  0  0  0  0  0  0  0  0  0  0  0
  -24.3160   -9.4900   21.9960 C   0  0  0  0  0  3  0  0  0  0  0  0
  -23.5870   -8.2950   22.1780 C   0  0  0  0  0  3  0  0  0  0  0  0
  -22.4000   -8.0660   21.4400 C   0  0  0  0  0  0  0  0  0  0  0  0
  -21.9770   -9.0320   20.5110 C   0  0  0  0  0  3  0  0  0  0  0  0
  -22.7070  -10.2180   20.3280 C   0  0  0  0  0  3  0  0  0  0  0  0
  -21.6410   -6.9240   21.5310 O   0  0  0  0  0  0  0  0  0  0  0  0
  -21.6250   -6.1620   22.6720 C   0  0  0  0  0  0  0  0  0  0  0  0
  -21.2580   -6.7020   23.9240 C   0  0  0  0  0  3  0  0  0  0  0  0
  -21.1870   -5.8680   25.0570 C   0  0  0  0  0  3  0  0  0  0  0  0
  -21.4720   -4.4940   24.9380 C   0  0  0  0  0  0  0  0  0  0  0  0
  -21.8300   -3.9520   23.6910 C   0  0  0  0  0  3  0  0  0  0  0  0
  -21.9040   -4.7850   22.5600 C   0  0  0  0  0  0  0  0  0  0  0  0
  -22.2320   -4.2560   21.3570 F   0  0  0  0  0  0  0  0  0  0  0  0
  -21.3960   -3.6910   26.0250 F   0  0  0  0  0  0  0  0  0  0  0  0
  -22.7460  -13.5580   21.1790 C   0  0  0  0  0  0  0  0  0  0  0  0
  -22.0190  -12.8650   22.0480 N   0  0  0  0  0  0  0  0  0  0  0  0
  -22.3090  -14.5840   20.6580 O   0  0  0  0  0  0  0  0  0  0  0  0
  -22.3900  -12.0370   22.4910 H   0  0  0  0  0  0  0  0  0  0  0  0
  -21.0820  -13.1640   22.2770 H   0  0  0  0  0  0  0  0  0  0  0  0
  -25.3780  -15.2170   20.3550 N   0  0  0  0  0  0  0  0  0  0  0  0
  -24.6070  -15.8690   20.4480 H   0  0  0  0  0  0  0  0  0  0  0  0
  -26.2320  -15.6570   20.0370 H   0  0  0  0  0  0  0  0  0  0  0  0
  -29.3500  -23.6950   20.3230 C   0  0  0  0  0  2  0  0  0  0  0  0
  -28.2680  -24.4040   19.4650 C   0  0  0  0  0  2  0  0  0  0  0  0
  -28.6360  -25.8380   19.0260 C   0  0  0  0  0  2  0  0  0  0  0  0
  -28.4280  -26.7900   20.0730 O   0  0  0  0  0  0  0  0  0  0  0  0
  -24.5970  -31.8900   23.2410 C   0  0  0  0  0  0  0  0  0  0  0  0
  -27.2230  -27.4640   20.1140 C   0  0  0  0  0  0  0  0  0  0  0  0
  -23.3760  -30.4880   21.6100 C   0  0  0  0  0  3  0  0  0  0  0  0
  -24.8150  -28.9470   20.1800 C   0  0  0  0  0  0  0  0  0  0  0  0
  -25.8990  -30.8460   21.3910 C   0  0  0  0  0  2  0  0  0  0  0  0
  -25.9770  -29.4740   20.7560 C   0  0  0  0  0  0  0  0  0  0  0  0
  -27.1780  -28.7310   20.7350 C   0  0  0  0  0  3  0  0  0  0  0  0
  -26.0330  -26.9430   19.5510 C   0  0  0  0  0  3  0  0  0  0  0  0
  -24.8340  -27.6770   19.5840 C   0  0  0  0  0  3  0  0  0  0  0  0
  -23.5730  -29.8080   20.2300 C   0  0  0  0  0  2  0  0  0  0  0  0
  -24.6430  -31.0880   22.1400 N   0  0  0  0  0  0  0  0  0  0  0  0
  -23.5200  -32.1630   23.7900 O   0  0  0  0  0  0  0  0  0  0  0  0
  -22.7340  -29.4650   22.5740 C   0  0  0  0  0  0  0  0  0  0  0  0
  -21.4100  -29.2800   22.4530 N   0  0  0  0  0  0  0  0  0  0  0  0
  -23.4230  -28.8430   23.3870 O   0  0  0  0  0  0  0  0  0  0  0  0
  -20.9160  -29.8350   21.7690 H   0  0  0  0  0  0  0  0  0  0  0  0
  -18.0430  -28.0760   22.9570 C   0  0  0  0  0  0  0  0  0  0  0  0
  -20.5990  -28.3440   23.2290 C   0  0  0  0  0  3  0  0  0  0  0  0
  -20.7070  -26.9110   22.6570 C   0  0  0  0  0  2  0  0  0  0  0  0
  -19.6060  -26.5790   21.6450 C   0  0  0  0  0  2  0  0  0  0  0  0
  -18.2240  -26.7230   22.2890 C   0  0  0  0  0  2  0  0  0  0  0  0
  -19.1580  -28.8440   23.3840 C   0  0  0  0  0  0  0  0  0  0  0  0
  -18.9360  -30.1100   23.9670 C   0  0  0  0  0  3  0  0  0  0  0  0
  -17.6300  -30.6090   24.1290 C   0  0  0  0  0  3  0  0  0  0  0  0
  -16.5290  -29.8380   23.7200 C   0  0  0  0  0  3  0  0  0  0  0  0
  -16.7360  -28.5740   23.1390 C   0  0  0  0  0  3  0  0  0  0  0  0
  -25.8890  -32.5190   23.8490 C   0  0  0  0  0  3  0  0  0  0  0  0
  -26.4220  -31.7410   25.1150 C   0  0  1  0  0  0  0  0  0  0  0  0
  -25.3420  -31.4950   26.1940 C   0  0  0  0  0  1  0  0  0  0  0  0
  -27.0000  -30.3660   24.7040 C   0  0  0  0  0  1  0  0  0  0  0  0
  -27.5800  -32.5310   25.7670 C   0  0  0  0  0  1  0  0  0  0  0  0
  -25.5850  -33.9140   24.1880 N   0  0  0  0  0  0  0  0  0  0  0  0
  -25.9090  -34.9680   23.4270 C   0  0  0  0  0  0  0  0  0  0  0  0
  -26.5690  -34.8670   22.3900 O   0  0  0  0  0  0  0  0  0  0  0  0
  -24.9980  -34.0660   24.9950 H   0  0  0  0  0  0  0  0  0  0  0  0
  -24.1740  -36.7560   23.0920 C   0  0  0  0  0  1  0  0  0  0  0  0
  -25.4230  -36.3550   23.8930 C   0  0  0  0  0  3  0  0  0  0  0  0
  -27.5670  -37.2370   24.7020 C   0  0  0  0  0  1  0  0  0  0  0  0
  -26.4530  -37.4090   23.7730 N   0  0  0  0  0  0  0  0  0  0  0  0
  -26.0470  -38.3270   23.9310 H   0  0  0  0  0  0  0  0  0  0  0  0
  1 53  1  0
  2  5  1  0
  2  1  1  0
  3  2  1  0
  4  2  1  0
  6  1  1  0
  7  6  2  0
  8 10  1  0
  9 11  1  0
  9  8  1  0
  9 10  1  0
 10  6  1  0
 10 12  1  1
 13 12  1  0
 13 14  1  0
 15 23  1  0
 16 21  1  0
 17 18  1  0
 17 16  1  0
 19 18  1  0
 19 28  1  0
 19 20  1  0
 21 15  1  0
 21 20  1  0
 22 15  2  0
 23 14  1  0
 23 24  1  0
 25 26  2  0
 26 45  1  0
 27 26  1  0
 27 30  1  0
 28 25  1  0
 28 29  1  0
 29 27  2  0
 30 31  1  0
 31 32  2  0
 33 36  1  0
 33 32  1  0
 34 33  2  0
 35 34  1  0
 35 30  2  0
 36 37  1  0
 37 38  1  0
 38 39  2  0
 40 39  1  0
 40 44  1  0
 41 40  2  0
 42 37  2  0
 42 41  1  0
 43 42  1  0
 45 46  1  0
 46 49  1  0
 46 48  1  0
 47 45  2  0
 50 51  1  0
 50 25  1  0
 52 50  1  0
 54 53  1  0
 55 54  1  0
 55 56  1  0
 56 58  1  0
 57 68  2  0
 58 63  1  0
 59 67  1  0
 59 69  1  0
 60 66  1  0
 60 62  1  0
 61 67  1  0
 62 61  1  0
 63 62  2  0
 64 65  1  0
 64 58  2  0
 65 60  2  0
 66 59  1  0
 67 57  1  0
 69 71  2  0
 70 69  1  0
 72 70  1  0
 73 82  2  0
 73 78  1  0
 74 70  1  0
 74 78  1  0
 75 74  1  0
 76 77  1  0
 76 75  1  0
 77 73  1  0
 78 79  2  0
 79 80  1  0
 81 80  2  0
 82 81  1  0
 83 57  1  0
 83 88  1  0
 83 84  1  0
 84 87  1  1
 84 85  1  0
 86 84  1  0
 88 91  1  0
 89 93  1  0
 89 88  1  0
 90 89  2  0
 93 92  1  0
 95 93  1  0
 95 96  1  0
 95 94  1  0
M  ISO  4  15 100  23 100  55 101  56 101
M  END
>  <TORSDO>  (6) 
F 25

>  <SCORE>  (6) 
-12.431

>  <name>  (6) 
5

>  <ligand_id>  (6) 
5

>  <original_smiles>  (6) 
[H]c1c([H])c([H])c2c(c1[H])C([H])([H])C([H])([H])C([H])([H])C2([H])N([H])C(=O)C1([H])N(C(=O)C([H])(N([H])C(=O)C([H])(N([H])C([H])([H])[H])C([H])([H])[H])C(C([H])([H])[H])(C([H])([H])[H])C([H])([H])[H])C([H])([H])c2c([H])c(OC([H])([H])C([H])([H])C([H])([H])C([H])(C(=O)C3(C([H])([H])C([H])([H])C([H])([H])N([H])C(=O)N4C([H])([H])C([H])([H])C([H])([H])C([H])(n5nc(-c6c([H])c([H])c(Oc7c([H])c([H])c(F)c([H])c7F)c([H])c6[H])c(C(=O)N([H])[H])c5N([H])[H])C4([H])[H])C([H])([H])C3([H])C([H])([H])[H])[N+]([H])([H])[H])c([H])c([H])c2C1([H])[H]

>  <smiles>  (6) 
[H]c1c([H])c([H])c2c(c1[H])C([H])([H])C([H])([H])C([H])([H])C2([H])N([H])C(=O)C1([H])N(C(=O)C([H])(N([H])C(=O)C([H])(N([H])C([H])([H])[H])C([H])([H])[H])C(C([H])([H])[H])(C([H])([H])[H])C([H])([H])[H])C([H])([H])c2c([H])c(OC([H])([H])C([H])([H])C([H])([H])C([H])(C(=O)C3(C([H])([H])C([H])([H])C([H])([H])N([H])C(=O)N4C([H])([H])C([H])([H])C([H])([H])C([H])(n5nc(-c6c([H])c([H])c(Oc7c([H])c([H])c(F)c([H])c7F)c([H])c6[H])c(C(=O)N([H])[H])c5N([H])[H])C4([H])[H])C([H])([H])C3([H])C([H])([H])[H])[N+]([H])([H])[H])c([H])c([H])c2C1([H])[H]

$$$$
6:0:0
     RDKit          3D

 92100  0  0  1  0  0  0  0  0999 V2000
  -28.8440  -21.6900   20.3950 C   0  0  0  0  0  2  0  0  0  0  0  0
  -27.0000  -21.2210   19.6380 C   0  0  0  0  0  2  0  0  0  0  0  0
  -28.3550  -20.5200   19.5400 C   0  0  0  0  0  3  0  0  0  0  0  0
  -27.7630  -22.4630   19.7780 N   0  0  1  0  0  4  0  0  0  0  0  0
  -28.0370  -22.7900   18.8630 H   0  0  0  0  0  0  0  0  0  0  0  0
  -29.4800  -18.7260   20.9080 C   0  0  0  0  0  3  0  0  0  0  0  0
  -28.4520  -19.1140   20.1210 C   0  0  0  0  0  0  0  0  0  0  0  0
  -27.3090  -18.2120   19.6870 C   0  0  0  0  0  1  0  0  0  0  0  0
  -29.7390  -17.3470   21.5050 C   0  0  0  0  0  2  0  0  0  0  0  0
  -30.7250  -16.5210   20.6490 C   0  0  0  0  0  2  0  0  0  0  0  0
  -30.9900  -14.1380   19.9580 C   0  0  0  0  0  0  0  0  0  0  0  0
  -30.6440  -11.9130   18.9440 C   0  0  0  0  0  2  0  0  0  0  0  0
  -29.6560  -12.0310   17.7660 C   0  0  0  0  0  2  0  0  0  0  0  0
  -28.1960  -11.9380   18.2560 C   0  0  0  0  0  2  0  0  0  0  0  0
  -27.9110  -12.8810   19.4570 C   0  0  0  0  0  3  0  0  0  0  0  0
  -28.9980  -12.7110   20.5420 C   0  0  0  0  0  2  0  0  0  0  0  0
  -30.3120  -12.9600   19.9200 N   0  0  0  0  0  0  0  0  0  0  0  0
  -32.0290  -14.3490   19.3260 O   0  0  0  0  0  0  0  0  0  0  0  0
  -30.3930  -15.1000   20.6760 N   0  0  0  0  0  0  0  0  0  0  0  0
  -29.5550  -14.8300   21.1700 H   0  0  0  0  0  0  0  0  0  0  0  0
  -25.5640  -13.5850   20.2560 C   0  0  0  0  0  0  0  0  0  0  0  0
  -24.4930  -12.8580   20.7010 C   0  0  0  0  0  0  0  0  0  0  0  0
  -24.9100  -11.4920   20.6770 C   0  0  0  0  0  0  0  0  0  0  0  0
  -26.5700  -12.6660   20.0000 N   0  0  0  0  0  0  0  0  0  0  0  0
  -26.1810  -11.4030   20.3070 N   0  0  0  0  0  0  0  0  0  0  0  0
  -24.1560  -10.2590   20.9310 C   0  0  0  0  0  0  0  0  0  0  0  0
  -24.5330   -9.3610   21.9520 C   0  0  0  0  0  3  0  0  0  0  0  0
  -23.7810   -8.1900   22.1880 C   0  0  0  0  0  3  0  0  0  0  0  0
  -22.6360   -7.9130   21.4030 C   0  0  0  0  0  0  0  0  0  0  0  0
  -22.2780   -8.7990   20.3720 C   0  0  0  0  0  3  0  0  0  0  0  0
  -23.0310   -9.9610   20.1350 C   0  0  0  0  0  3  0  0  0  0  0  0
  -21.8590   -6.7890   21.5440 O   0  0  0  0  0  0  0  0  0  0  0  0
  -21.6750   -6.1890   22.7640 C   0  0  0  0  0  0  0  0  0  0  0  0
  -21.1140   -6.8830   23.8590 C   0  0  0  0  0  3  0  0  0  0  0  0
  -20.8810   -6.2080   25.0730 C   0  0  0  0  0  3  0  0  0  0  0  0
  -21.1970   -4.8410   25.1930 C   0  0  0  0  0  0  0  0  0  0  0  0
  -21.7490   -4.1490   24.1010 C   0  0  0  0  0  3  0  0  0  0  0  0
  -21.9850   -4.8200   22.8890 C   0  0  0  0  0  0  0  0  0  0  0  0
  -22.4970   -4.1430   21.8340 F   0  0  0  0  0  0  0  0  0  0  0  0
  -20.9640   -4.1900   26.3570 F   0  0  0  0  0  0  0  0  0  0  0  0
  -23.1280  -13.3880   21.0350 C   0  0  0  0  0  0  0  0  0  0  0  0
  -22.4330  -12.7490   21.9700 N   0  0  0  0  0  0  0  0  0  0  0  0
  -22.6890  -14.4070   20.5020 O   0  0  0  0  0  0  0  0  0  0  0  0
  -22.7990  -11.9240   22.4230 H   0  0  0  0  0  0  0  0  0  0  0  0
  -21.5190  -13.0890   22.2350 H   0  0  0  0  0  0  0  0  0  0  0  0
  -25.7580  -14.9410   20.0300 N   0  0  0  0  0  0  0  0  0  0  0  0
  -25.0170  -15.6220   20.1510 H   0  0  0  0  0  0  0  0  0  0  0  0
  -26.6060  -15.3390   19.6480 H   0  0  0  0  0  0  0  0  0  0  0  0
  -27.1390  -23.5300   20.5970 C   0  0  0  0  0  2  0  0  0  0  0  0
  -28.1160  -24.6550   20.9920 C   0  0  0  0  0  2  0  0  0  0  0  0
  -28.7200  -25.4580   19.8220 C   0  0  0  0  0  2  0  0  0  0  0  0
  -28.6390  -26.8560   20.0870 O   0  0  0  0  0  0  0  0  0  0  0  0
  -24.5720  -31.8020   23.1520 C   0  0  0  0  0  0  0  0  0  0  0  0
  -27.4100  -27.4800   20.0850 C   0  0  0  0  0  0  0  0  0  0  0  0
  -23.4450  -30.3940   21.4590 C   0  0  0  0  0  3  0  0  0  0  0  0
  -24.9690  -28.9050   20.0650 C   0  0  0  0  0  0  0  0  0  0  0  0
  -25.9640  -30.8170   21.3350 C   0  0  0  0  0  2  0  0  0  0  0  0
  -26.0960  -29.4560   20.6850 C   0  0  0  0  0  0  0  0  0  0  0  0
  -27.3180  -28.7520   20.6870 C   0  0  0  0  0  3  0  0  0  0  0  0
  -26.2550  -26.9280   19.4790 C   0  0  0  0  0  3  0  0  0  0  0  0
  -25.0400  -27.6370   19.4660 C   0  0  0  0  0  3  0  0  0  0  0  0
  -23.7060  -29.7330   20.0800 C   0  0  0  0  0  2  0  0  0  0  0  0
  -24.6770  -31.0180   22.0410 N   0  0  0  0  0  0  0  0  0  0  0  0
  -23.4700  -32.0440   23.6620 O   0  0  0  0  0  0  0  0  0  0  0  0
  -22.7890  -29.3460   22.3870 C   0  0  0  0  0  0  0  0  0  0  0  0
  -21.4680  -29.1590   22.2360 N   0  0  0  0  0  0  0  0  0  0  0  0
  -23.4660  -28.7040   23.1950 O   0  0  0  0  0  0  0  0  0  0  0  0
  -20.9840  -29.7330   21.5590 H   0  0  0  0  0  0  0  0  0  0  0  0
  -18.0840  -27.9830   22.7010 C   0  0  0  0  0  0  0  0  0  0  0  0
  -20.6460  -28.1980   22.9690 C   0  0  0  0  0  3  0  0  0  0  0  0
  -20.7290  -26.7920   22.3310 C   0  0  0  0  0  2  0  0  0  0  0  0
  -19.6170  -26.5250   21.3110 C   0  0  0  0  0  2  0  0  0  0  0  0
  -18.2410  -26.6610   21.9690 C   0  0  0  0  0  2  0  0  0  0  0  0
  -19.2140  -28.7120   23.1570 C   0  0  0  0  0  0  0  0  0  0  0  0
  -19.0150  -29.9530   23.8010 C   0  0  0  0  0  3  0  0  0  0  0  0
  -17.7180  -30.4630   23.9930 C   0  0  0  0  0  3  0  0  0  0  0  0
  -16.6020  -29.7300   23.5540 C   0  0  0  0  0  3  0  0  0  0  0  0
  -16.7870  -28.4920   22.9130 C   0  0  0  0  0  3  0  0  0  0  0  0
  -25.8260  -32.4510   23.8170 C   0  0  0  0  0  3  0  0  0  0  0  0
  -25.4820  -33.8400   24.1470 N   0  0  0  0  0  0  0  0  0  0  0  0
  -25.8250  -34.9030   23.4060 C   0  0  0  0  0  0  0  0  0  0  0  0
  -26.5340  -34.8170   22.4000 O   0  0  0  0  0  0  0  0  0  0  0  0
  -24.8580  -33.9810   24.9280 H   0  0  0  0  0  0  0  0  0  0  0  0
  -24.0830  -36.6670   22.9910 C   0  0  0  0  0  1  0  0  0  0  0  0
  -25.2960  -36.2790   23.8520 C   0  0  0  0  0  3  0  0  0  0  0  0
  -27.3770  -37.1880   24.7830 C   0  0  0  0  0  1  0  0  0  0  0  0
  -26.3150  -37.3500   23.7940 N   0  0  0  0  0  0  0  0  0  0  0  0
  -25.8870  -38.2610   23.9300 H   0  0  0  0  0  0  0  0  0  0  0  0
  -26.3190  -31.6780   25.1010 C   0  0  1  0  0  0  0  0  0  0  0  0
  -25.1940  -31.3850   26.1220 C   0  0  0  0  0  1  0  0  0  0  0  0
  -26.9660  -30.3300   24.7100 C   0  0  0  0  0  1  0  0  0  0  0  0
  -27.4170  -32.5010   25.8180 C   0  0  0  0  0  1  0  0  0  0  0  0
  2  4  1  0
  3  2  1  0
  3  7  1  0
  3  1  1  0
  4  1  1  0
  4 49  1  0
  4  5  1  6
  6  9  1  0
  7  6  2  0
  8  7  1  0
 10 19  1  0
 10  9  1  0
 11 19  1  0
 12 17  1  0
 13 14  1  0
 13 12  1  0
 15 14  1  0
 15 24  1  0
 15 16  1  0
 17 11  1  0
 17 16  1  0
 18 11  2  0
 19 20  1  0
 21 22  2  0
 22 41  1  0
 23 22  1  0
 23 26  1  0
 24 21  1  0
 24 25  1  0
 25 23  2  0
 26 27  1  0
 27 28  2  0
 29 32  1  0
 29 28  1  0
 30 29  2  0
 31 30  1  0
 31 26  2  0
 32 33  1  0
 33 38  2  0
 33 34  1  0
 34 35  2  0
 35 36  1  0
 36 40  1  0
 37 36  2  0
 38 37  1  0
 39 38  1  0
 41 42  1  0
 42 45  1  0
 42 44  1  0
 43 41  2  0
 46 47  1  0
 46 21  1  0
 48 46  1  0
 49 50  1  0
 51 52  1  0
 51 50  1  0
 53 64  2  0
 54 52  1  0
 54 59  1  0
 55 63  1  0
 55 65  1  0
 56 62  1  0
 56 58  1  0
 57 63  1  0
 58 59  2  0
 58 57  1  0
 60 54  2  0
 61 60  1  0
 61 56  2  0
 62 55  1  0
 63 53  1  0
 65 67  2  0
 66 65  1  0
 68 66  1  0
 69 78  2  0
 69 74  1  0
 70 66  1  0
 70 74  1  0
 71 70  1  0
 72 73  1  0
 72 71  1  0
 73 69  1  0
 74 75  2  0
 75 76  1  0
 77 76  2  0
 78 77  1  0
 79 53  1  0
 79 80  1  0
 79 89  1  0
 80 83  1  0
 81 85  1  0
 81 80  1  0
 82 81  2  0
 85 84  1  0
 87 85  1  0
 87 88  1  0
 87 86  1  0
 89 92  1  1
 89 90  1  0
 91 89  1  0
M  ISO  4  11 100  19 100  51 101  52 101
M  END
>  <TORSDO>  (7) 
F 22

>  <SCORE>  (7) 
-12.245

>  <name>  (7) 
6

>  <ligand_id>  (7) 
6

>  <original_smiles>  (7) 
[H]C(=C(C([H])([H])[H])C1([H])C([H])([H])[N+]([H])(C([H])([H])C([H])([H])C([H])([H])Oc2c([H])c([H])c3c(c2[H])C([H])([H])N(C(=O)C([H])(N([H])C(=O)C([H])(N([H])C([H])([H])[H])C([H])([H])[H])C(C([H])([H])[H])(C([H])([H])[H])C([H])([H])[H])C([H])(C(=O)N([H])C2([H])c4c([H])c([H])c([H])c([H])c4C([H])([H])C([H])([H])C2([H])[H])C3([H])[H])C1([H])[H])C([H])([H])C([H])([H])N([H])C(=O)N1C([H])([H])C([H])([H])C([H])([H])C([H])(n2nc(-c3c([H])c([H])c(Oc4c([H])c([H])c(F)c([H])c4F)c([H])c3[H])c(C(=O)N([H])[H])c2N([H])[H])C1([H])[H]

>  <smiles>  (7) 
[H]C(=C(C([H])([H])[H])C1([H])C([H])([H])[N+]([H])(C([H])([H])C([H])([H])C([H])([H])Oc2c([H])c([H])c3c(c2[H])C([H])([H])N(C(=O)C([H])(N([H])C(=O)C([H])(N([H])C([H])([H])[H])C([H])([H])[H])C(C([H])([H])[H])(C([H])([H])[H])C([H])([H])[H])C([H])(C(=O)N([H])C2([H])c4c([H])c([H])c([H])c([H])c4C([H])([H])C([H])([H])C2([H])[H])C3([H])[H])C1([H])[H])C([H])([H])C([H])([H])N([H])C(=O)N1C([H])([H])C([H])([H])C([H])([H])C([H])(n2nc(-c3c([H])c([H])c(Oc4c([H])c([H])c(F)c([H])c4F)c([H])c3[H])c(C(=O)N([H])[H])c2N([H])[H])C1([H])[H]

$$$$
7:0:0
     RDKit          3D

 90 98  0  0  1  0  0  0  0  0999 V2000
  -29.8970  -20.4670   20.1990 C   0  0  0  0  0  0  0  0  0  0  0  0
  -29.7860  -21.6130   19.3500 C   0  0  0  0  0  0  0  0  0  0  0  0
  -30.2160  -19.1940   19.8910 C   0  0  0  0  0  3  0  0  0  0  0  0
  -29.6400  -21.3090   21.4150 C   0  0  0  0  0  2  0  0  0  0  0  0
  -29.6890  -22.4520   20.4470 N   0  0  0  0  0  0  0  0  0  0  0  0
  -29.8460  -21.7260   18.1430 O   0  0  0  0  0  0  0  0  0  0  0  0
  -30.3690  -17.9980   20.8250 C   0  0  0  0  0  2  0  0  0  0  0  0
  -29.7200  -16.7550   20.1760 C   0  0  0  0  0  2  0  0  0  0  0  0
  -30.6360  -14.4730   20.4460 C   0  0  0  0  0  0  0  0  0  0  0  0
  -30.3550  -12.3220   19.2880 C   0  0  0  0  0  2  0  0  0  0  0  0
  -29.4160  -12.5720   18.0870 C   0  0  0  0  0  2  0  0  0  0  0  0
  -27.9390  -12.4390   18.5100 C   0  0  0  0  0  2  0  0  0  0  0  0
  -27.6100  -13.2420   19.7990 C   0  0  0  0  0  3  0  0  0  0  0  0
  -28.6630  -12.9790   20.9030 C   0  0  0  0  0  2  0  0  0  0  0  0
  -29.9940  -13.2800   20.3450 N   0  0  0  0  0  0  0  0  0  0  0  0
  -31.7470  -14.6930   19.9490 O   0  0  0  0  0  0  0  0  0  0  0  0
  -29.8650  -15.4810   20.8940 N   0  0  0  0  0  0  0  0  0  0  0  0
  -29.0410  -15.1800   21.3920 H   0  0  0  0  0  0  0  0  0  0  0  0
  -25.2080  -13.8450   20.5060 C   0  0  0  0  0  0  0  0  0  0  0  0
  -24.1440  -13.0690   20.8780 C   0  0  0  0  0  0  0  0  0  0  0  0
  -24.6100  -11.7190   20.8470 C   0  0  0  0  0  0  0  0  0  0  0  0
  -26.2540  -12.9670   20.2710 N   0  0  0  0  0  0  0  0  0  0  0  0
  -25.8970  -11.6830   20.5350 N   0  0  0  0  0  0  0  0  0  0  0  0
  -23.8890  -10.4550   21.0430 C   0  0  0  0  0  0  0  0  0  0  0  0
  -24.3290   -9.4880   21.9750 C   0  0  0  0  0  3  0  0  0  0  0  0
  -23.6090   -8.2880   22.1550 C   0  0  0  0  0  3  0  0  0  0  0  0
  -22.4360   -8.0440   21.4030 C   0  0  0  0  0  0  0  0  0  0  0  0
  -22.0130   -8.9980   20.4620 C   0  0  0  0  0  3  0  0  0  0  0  0
  -22.7340  -10.1900   20.2800 C   0  0  0  0  0  3  0  0  0  0  0  0
  -21.6860   -6.8950   21.4940 O   0  0  0  0  0  0  0  0  0  0  0  0
  -21.6480   -6.1500   22.6450 C   0  0  0  0  0  0  0  0  0  0  0  0
  -21.2220   -6.7000   23.8740 C   0  0  0  0  0  3  0  0  0  0  0  0
  -21.1300   -5.8810   25.0170 C   0  0  0  0  0  3  0  0  0  0  0  0
  -21.4560   -4.5140   24.9320 C   0  0  0  0  0  0  0  0  0  0  0  0
  -21.8760   -3.9640   23.7090 C   0  0  0  0  0  3  0  0  0  0  0  0
  -21.9700   -4.7810   22.5690 C   0  0  0  0  0  0  0  0  0  0  0  0
  -22.3550   -4.2430   21.3860 F   0  0  0  0  0  0  0  0  0  0  0  0
  -21.3620   -3.7250   26.0280 F   0  0  0  0  0  0  0  0  0  0  0  0
  -22.7460  -13.5430   21.1550 C   0  0  0  0  0  0  0  0  0  0  0  0
  -22.0220  -12.8440   22.0240 N   0  0  0  0  0  0  0  0  0  0  0  0
  -22.3050  -14.5670   20.6350 O   0  0  0  0  0  0  0  0  0  0  0  0
  -22.3930  -12.0170   22.4710 H   0  0  0  0  0  0  0  0  0  0  0  0
  -21.0850  -13.1420   22.2500 H   0  0  0  0  0  0  0  0  0  0  0  0
  -25.3690  -15.2150   20.3280 N   0  0  0  0  0  0  0  0  0  0  0  0
  -24.6030  -15.8680   20.4480 H   0  0  0  0  0  0  0  0  0  0  0  0
  -26.2160  -15.6510   19.9870 H   0  0  0  0  0  0  0  0  0  0  0  0
  -29.7810  -23.9090   20.5570 C   0  0  0  0  0  2  0  0  0  0  0  0
  -28.5940  -24.5450   21.3010 C   0  0  0  0  0  2  0  0  0  0  0  0
  -28.7060  -26.0810   21.4230 C   0  0  0  0  0  2  0  0  0  0  0  0
  -28.4370  -26.7280   20.1780 O   0  0  0  0  0  0  0  0  0  0  0  0
  -24.5910  -31.8970   23.2140 C   0  0  0  0  0  0  0  0  0  0  0  0
  -27.2820  -27.4700   20.1780 C   0  0  0  0  0  0  0  0  0  0  0  0
  -23.4020  -30.4830   21.5670 C   0  0  0  0  0  3  0  0  0  0  0  0
  -24.8760  -28.9430   20.1620 C   0  0  0  0  0  0  0  0  0  0  0  0
  -25.9260  -30.8570   21.3860 C   0  0  0  0  0  2  0  0  0  0  0  0
  -26.0240  -29.4820   20.7600 C   0  0  0  0  0  0  0  0  0  0  0  0
  -27.2320  -28.7510   20.7700 C   0  0  0  0  0  3  0  0  0  0  0  0
  -26.1260  -26.9390   19.5730 C   0  0  0  0  0  3  0  0  0  0  0  0
  -24.9200  -27.6670   19.5700 C   0  0  0  0  0  3  0  0  0  0  0  0
  -23.6260  -29.7940   20.1930 C   0  0  0  0  0  2  0  0  0  0  0  0
  -24.6570  -31.0940   22.1150 N   0  0  0  0  0  0  0  0  0  0  0  0
  -23.5050  -32.1680   23.7460 O   0  0  0  0  0  0  0  0  0  0  0  0
  -22.7470  -29.4660   22.5270 C   0  0  0  0  0  0  0  0  0  0  0  0
  -21.4240  -29.2850   22.3910 N   0  0  0  0  0  0  0  0  0  0  0  0
  -23.4240  -28.8410   23.3460 O   0  0  0  0  0  0  0  0  0  0  0  0
  -20.9420  -29.8380   21.6950 H   0  0  0  0  0  0  0  0  0  0  0  0
  -18.0400  -28.1180   22.8810 C   0  0  0  0  0  0  0  0  0  0  0  0
  -20.5990  -28.3520   23.1560 C   0  0  0  0  0  3  0  0  0  0  0  0
  -20.6900  -26.9230   22.5720 C   0  0  0  0  0  2  0  0  0  0  0  0
  -19.5850  -26.6150   21.5550 C   0  0  0  0  0  2  0  0  0  0  0  0
  -18.2050  -26.7700   22.2010 C   0  0  0  0  0  2  0  0  0  0  0  0
  -19.1650  -28.8680   23.3140 C   0  0  0  0  0  0  0  0  0  0  0  0
  -18.9590  -30.1320   23.9090 C   0  0  0  0  0  3  0  0  0  0  0  0
  -17.6600  -30.6450   24.0760 C   0  0  0  0  0  3  0  0  0  0  0  0
  -16.5470  -29.8910   23.6610 C   0  0  0  0  0  3  0  0  0  0  0  0
  -16.7400  -28.6290   23.0690 C   0  0  0  0  0  3  0  0  0  0  0  0
  -25.8710  -32.5310   23.8440 C   0  0  0  0  0  3  0  0  0  0  0  0
  -25.5570  -33.9290   24.1680 N   0  0  0  0  0  0  0  0  0  0  0  0
  -25.8980  -34.9790   23.4100 C   0  0  0  0  0  0  0  0  0  0  0  0
  -26.5830  -34.8750   22.3890 O   0  0  0  0  0  0  0  0  0  0  0  0
  -24.9480  -34.0830   24.9580 H   0  0  0  0  0  0  0  0  0  0  0  0
  -24.1760  -36.7690   23.0200 C   0  0  0  0  0  1  0  0  0  0  0  0
  -25.4020  -36.3680   23.8560 C   0  0  0  0  0  3  0  0  0  0  0  0
  -27.5210  -37.2520   24.7260 C   0  0  0  0  0  1  0  0  0  0  0  0
  -26.4360  -37.4220   23.7610 N   0  0  0  0  0  0  0  0  0  0  0  0
  -26.0290  -38.3420   23.9010 H   0  0  0  0  0  0  0  0  0  0  0  0
  -26.3830  -31.7620   25.1240 C   0  0  1  0  0  0  0  0  0  0  0  0
  -25.2840  -31.5190   26.1840 C   0  0  0  0  0  1  0  0  0  0  0  0
  -26.9740  -30.3870   24.7330 C   0  0  0  0  0  1  0  0  0  0  0  0
  -27.5260  -32.5610   25.7930 C   0  0  0  0  0  1  0  0  0  0  0  0
  1  4  1  0
  2  1  1  0
  2  5  1  0
  3  1  2  0
  3  7  1  0
  5 47  1  0
  5  4  1  0
  6  2  2  0
  8  7  1  0
  8 17  1  0
  9 17  1  0
 10 15  1  0
 11 12  1  0
 11 10  1  0
 13 12  1  0
 13 22  1  0
 13 14  1  0
 15  9  1  0
 15 14  1  0
 16  9  2  0
 17 18  1  0
 19 20  2  0
 20 39  1  0
 21 20  1  0
 21 24  1  0
 22 19  1  0
 22 23  1  0
 23 21  2  0
 24 25  1  0
 25 26  2  0
 27 30  1  0
 27 26  1  0
 28 27  2  0
 29 28  1  0
 29 24  2  0
 30 31  1  0
 31 32  1  0
 32 33  2  0
 34 33  1  0
 34 38  1  0
 35 34  2  0
 36 31  2  0
 36 35  1  0
 37 36  1  0
 39 40  1  0
 40 43  1  0
 40 42  1  0
 41 39  2  0
 44 45  1  0
 44 19  1  0
 46 44  1  0
 47 48  1  0
 48 49  1  0
 50 52  1  0
 50 49  1  0
 51 62  2  0
 52 57  1  0
 53 61  1  0
 53 63  1  0
 54 60  1  0
 54 56  1  0
 55 61  1  0
 56 57  2  0
 56 55  1  0
 58 52  2  0
 59 58  1  0
 59 54  2  0
 60 53  1  0
 61 51  1  0
 63 65  2  0
 64 63  1  0
 66 64  1  0
 67 76  2  0
 67 72  1  0
 68 64  1  0
 68 72  1  0
 69 68  1  0
 70 71  1  0
 70 69  1  0
 71 67  1  0
 72 73  2  0
 73 74  1  0
 75 74  2  0
 76 75  1  0
 77 51  1  0
 77 78  1  0
 77 87  1  0
 78 81  1  0
 79 83  1  0
 79 78  1  0
 80 79  2  0
 83 82  1  0
 85 83  1  0
 85 86  1  0
 85 84  1  0
 87 90  1  1
 87 88  1  0
 89 87  1  0
M  ISO  4   9 100  17 100  49 101  50 101
M  END
>  <TORSDO>  (8) 
F 21

>  <SCORE>  (8) 
-13.538

>  <name>  (8) 
7

>  <ligand_id>  (8) 
7

>  <original_smiles>  (8) 
[H]C(=C1C(=O)N(C([H])([H])C([H])([H])C([H])([H])Oc2c([H])c([H])c3c(c2[H])C([H])([H])N(C(=O)C([H])(N([H])C(=O)C([H])(N([H])C([H])([H])[H])C([H])([H])[H])C(C([H])([H])[H])(C([H])([H])[H])C([H])([H])[H])C([H])(C(=O)N([H])C2([H])c4c([H])c([H])c([H])c([H])c4C([H])([H])C([H])([H])C2([H])[H])C3([H])[H])C1([H])[H])C([H])([H])C([H])([H])N([H])C(=O)N1C([H])([H])C([H])([H])C([H])([H])C([H])(n2nc(-c3c([H])c([H])c(Oc4c([H])c([H])c(F)c([H])c4F)c([H])c3[H])c(C(=O)N([H])[H])c2N([H])[H])C1([H])[H]

>  <smiles>  (8) 
[H]C(=C1C(=O)N(C([H])([H])C([H])([H])C([H])([H])Oc2c([H])c([H])c3c(c2[H])C([H])([H])N(C(=O)C([H])(N([H])C(=O)C([H])(N([H])C([H])([H])[H])C([H])([H])[H])C(C([H])([H])[H])(C([H])([H])[H])C([H])([H])[H])C([H])(C(=O)N([H])C2([H])c4c([H])c([H])c([H])c([H])c4C([H])([H])C([H])([H])C2([H])[H])C3([H])[H])C1([H])[H])C([H])([H])C([H])([H])N([H])C(=O)N1C([H])([H])C([H])([H])C([H])([H])C([H])(n2nc(-c3c([H])c([H])c(Oc4c([H])c([H])c(F)c([H])c4F)c([H])c3[H])c(C(=O)N([H])[H])c2N([H])[H])C1([H])[H]

$$$$
8:0:0
     RDKit          3D

 95103  0  0  1  0  0  0  0  0999 V2000
  -29.5560  -19.7790   18.4130 C   0  0  0  0  0  3  0  0  0  0  0  0
  -29.2790  -21.1430   20.3930 C   0  0  0  0  0  3  0  0  0  0  0  0
  -29.1350  -22.2050   18.1980 C   0  0  0  0  0  0  0  0  0  0  0  0
  -29.5120  -19.8360   19.8140 C   0  0  0  0  0  0  0  0  0  0  0  0
  -29.3790  -20.9230   17.6170 C   0  0  0  0  0  0  0  0  0  0  0  0
  -29.0780  -22.3620   19.6260 C   0  0  0  0  0  0  0  0  0  0  0  0
  -29.4400  -20.7210   16.1030 C   0  0  0  0  0  1  0  0  0  0  0  0
  -28.9330  -23.3530   17.2540 C   0  0  0  0  0  0  0  0  0  0  0  0
  -30.0440  -23.9310   16.8200 N   0  0  0  0  0  0  0  0  0  0  0  0
  -27.8130  -23.6990   16.8880 O   0  0  0  0  0  0  0  0  0  0  0  0
  -30.9400  -23.5910   17.1400 H   0  0  0  0  0  0  0  0  0  0  0  0
  -30.0010  -24.6910   16.1580 H   0  0  0  0  0  0  0  0  0  0  0  0
  -29.6810  -18.4900   20.6340 C   0  0  0  0  0  3  0  0  0  0  0  0
  -30.1730  -17.1400   19.8860 C   0  0  0  0  0  3  0  0  0  0  0  0
  -30.8400  -14.6650   20.0890 C   0  0  0  0  0  0  0  0  0  0  0  0
  -30.4890  -12.4770   18.9320 C   0  0  0  0  0  2  0  0  0  0  0  0
  -29.4840  -12.6580   17.7730 C   0  0  0  0  0  2  0  0  0  0  0  0
  -28.0360  -12.4980   18.2790 C   0  0  0  0  0  2  0  0  0  0  0  0
  -27.7660  -13.3120   19.5740 C   0  0  0  0  0  3  0  0  0  0  0  0
  -28.8830  -13.1070   20.6150 C   0  0  0  0  0  2  0  0  0  0  0  0
  -30.1590  -13.4710   19.9800 N   0  0  0  0  0  0  0  0  0  0  0  0
  -31.9340  -14.7940   19.5280 O   0  0  0  0  0  0  0  0  0  0  0  0
  -29.9500  -15.8670   22.0330 C   0  0  0  0  0  1  0  0  0  0  0  0
  -30.1830  -15.7840   20.5880 N   0  0  0  0  0  0  0  0  0  0  0  0
  -25.4370  -13.9050   20.4760 C   0  0  0  0  0  0  0  0  0  0  0  0
  -24.3850  -13.1310   20.8820 C   0  0  0  0  0  0  0  0  0  0  0  0
  -24.8230  -11.7770   20.7680 C   0  0  0  0  0  0  0  0  0  0  0  0
  -26.4490  -13.0220   20.1340 N   0  0  0  0  0  0  0  0  0  0  0  0
  -26.0900  -11.7340   20.3700 N   0  0  0  0  0  0  0  0  0  0  0  0
  -24.0920  -10.5180   20.9580 C   0  0  0  0  0  0  0  0  0  0  0  0
  -24.5370   -9.5340   21.8690 C   0  0  0  0  0  3  0  0  0  0  0  0
  -23.8040   -8.3410   22.0470 C   0  0  0  0  0  3  0  0  0  0  0  0
  -22.6140   -8.1220   21.3150 C   0  0  0  0  0  0  0  0  0  0  0  0
  -22.1880   -9.0940   20.3930 C   0  0  0  0  0  3  0  0  0  0  0  0
  -22.9200  -10.2800   20.2130 C   0  0  0  0  0  3  0  0  0  0  0  0
  -21.8510   -6.9820   21.4020 O   0  0  0  0  0  0  0  0  0  0  0  0
  -21.7800   -6.2500   22.5610 C   0  0  0  0  0  0  0  0  0  0  0  0
  -21.3180   -6.8130   23.7710 C   0  0  0  0  0  3  0  0  0  0  0  0
  -21.1950   -6.0070   24.9210 C   0  0  0  0  0  3  0  0  0  0  0  0
  -21.5260   -4.6400   24.8620 C   0  0  0  0  0  0  0  0  0  0  0  0
  -21.9830   -4.0760   23.6570 C   0  0  0  0  0  3  0  0  0  0  0  0
  -22.1070   -4.8800   22.5100 C   0  0  0  0  0  0  0  0  0  0  0  0
  -22.5260   -4.3270   21.3460 F   0  0  0  0  0  0  0  0  0  0  0  0
  -21.4010   -3.8640   25.9640 F   0  0  0  0  0  0  0  0  0  0  0  0
  -23.0160  -13.6170   21.2630 C   0  0  0  0  0  0  0  0  0  0  0  0
  -22.3340  -12.9000   22.1490 N   0  0  0  0  0  0  0  0  0  0  0  0
  -22.5620  -14.6670   20.8110 O   0  0  0  0  0  0  0  0  0  0  0  0
  -22.7150  -12.0510   22.5400 H   0  0  0  0  0  0  0  0  0  0  0  0
  -21.4160  -13.2060   22.4410 H   0  0  0  0  0  0  0  0  0  0  0  0
  -25.6130  -15.2800   20.3460 N   0  0  0  0  0  0  0  0  0  0  0  0
  -24.8690  -15.9400   20.5440 H   0  0  0  0  0  0  0  0  0  0  0  0
  -26.4570  -15.7230   20.0040 H   0  0  0  0  0  0  0  0  0  0  0  0
  -28.7930  -23.7520   20.3900 C   0  0  0  0  0  3  0  0  0  0  0  0
  -28.7190  -25.2070   19.6820 C   0  0  0  0  0  3  0  0  0  0  0  0
  -28.5060  -26.4710   20.4400 O   0  0  0  0  0  0  0  0  0  0  0  0
  -24.6780  -31.9140   23.2400 C   0  0  0  0  0  0  0  0  0  0  0  0
  -27.3570  -27.2780   20.3340 C   0  0  0  0  0  0  0  0  0  0  0  0
  -23.5010  -30.4650   21.6250 C   0  0  0  0  0  3  0  0  0  0  0  0
  -24.9760  -28.8800   20.2600 C   0  0  0  0  0  0  0  0  0  0  0  0
  -26.0410  -30.7890   21.4620 C   0  0  0  0  0  2  0  0  0  0  0  0
  -26.1340  -29.3910   20.8540 C   0  0  0  0  0  0  0  0  0  0  0  0
  -27.3220  -28.6010   20.8820 C   0  0  0  0  0  3  0  0  0  0  0  0
  -26.1640  -26.8120   19.7340 C   0  0  0  0  0  3  0  0  0  0  0  0
  -24.9930  -27.5960   19.6930 C   0  0  0  0  0  3  0  0  0  0  0  0
  -23.7350  -29.7510   20.2680 C   0  0  0  0  0  2  0  0  0  0  0  0
  -24.7580  -31.0750   22.1670 N   0  0  0  0  0  0  0  0  0  0  0  0
  -23.5880  -32.2010   23.7550 O   0  0  0  0  0  0  0  0  0  0  0  0
  -22.8290  -29.4740   22.6060 C   0  0  0  0  0  0  0  0  0  0  0  0
  -21.5060  -29.2870   22.4660 N   0  0  0  0  0  0  0  0  0  0  0  0
  -23.4990  -28.8740   23.4510 O   0  0  0  0  0  0  0  0  0  0  0  0
  -21.0230  -29.8240   21.7600 H   0  0  0  0  0  0  0  0  0  0  0  0
  -18.1270  -28.0870   22.9490 C   0  0  0  0  0  0  0  0  0  0  0  0
  -20.6800  -28.3690   23.2520 C   0  0  0  0  0  3  0  0  0  0  0  0
  -20.7980  -26.9210   22.7230 C   0  0  0  0  0  2  0  0  0  0  0  0
  -19.7150  -26.5620   21.7000 C   0  0  0  0  0  2  0  0  0  0  0  0
  -18.3220  -26.7190   22.3180 C   0  0  0  0  0  2  0  0  0  0  0  0
  -19.2360  -28.8680   23.3730 C   0  0  0  0  0  0  0  0  0  0  0  0
  -19.0010  -30.1470   23.9230 C   0  0  0  0  0  3  0  0  0  0  0  0
  -17.6910  -30.6460   24.0540 C   0  0  0  0  0  3  0  0  0  0  0  0
  -16.5980  -29.8640   23.6460 C   0  0  0  0  0  3  0  0  0  0  0  0
  -16.8160  -28.5860   23.0980 C   0  0  0  0  0  3  0  0  0  0  0  0
  -25.9510  -32.5700   23.8610 C   0  0  0  0  0  3  0  0  0  0  0  0
  -25.6200  -33.9660   24.1820 N   0  0  0  0  0  0  0  0  0  0  0  0
  -25.9310  -35.0180   23.4140 C   0  0  0  0  0  0  0  0  0  0  0  0
  -26.5960  -34.9180   22.3790 O   0  0  0  0  0  0  0  0  0  0  0  0
  -25.0260  -34.1160   24.9830 H   0  0  0  0  0  0  0  0  0  0  0  0
  -24.1700  -36.7810   23.0640 C   0  0  0  0  0  1  0  0  0  0  0  0
  -25.4260  -36.4030   23.8650 C   0  0  0  0  0  3  0  0  0  0  0  0
  -27.5520  -37.3340   24.6700 C   0  0  0  0  0  1  0  0  0  0  0  0
  -26.4400  -37.4720   23.7330 N   0  0  0  0  0  0  0  0  0  0  0  0
  -26.0190  -38.3860   23.8740 H   0  0  0  0  0  0  0  0  0  0  0  0
  -26.4740  -31.8150   25.1450 C   0  0  1  0  0  0  0  0  0  0  0  0
  -25.3800  -31.5610   26.2090 C   0  0  0  0  0  1  0  0  0  0  0  0
  -27.0850  -30.4450   24.7640 C   0  0  0  0  0  1  0  0  0  0  0  0
  -27.6040  -32.6340   25.8110 C   0  0  0  0  0  1  0  0  0  0  0  0
  1  4  1  0
  3  6  2  0
  4  2  2  0
  4 13  1  0
  5  3  1  0
  5  1  2  0
  6 53  1  0
  6  2  1  0
  7  5  1  0
  8  3  1  0
  9 11  1  0
  9  8  1  0
 10  8  2  0
 12  9  1  0
 14 24  1  0
 14 13  2  0
 15 24  1  0
 16 21  1  0
 17 18  1  0
 17 16  1  0
 19 18  1  0
 19 28  1  0
 19 20  1  0
 21 15  1  0
 21 20  1  0
 22 15  2  0
 24 23  1  0
 25 26  2  0
 26 45  1  0
 27 26  1  0
 27 30  1  0
 28 29  1  0
 28 25  1  0
 29 27  2  0
 30 31  1  0
 31 32  2  0
 33 36  1  0
 33 32  1  0
 34 33  2  0
 35 34  1  0
 35 30  2  0
 36 37  1  0
 37 38  1  0
 38 39  2  0
 40 39  1  0
 40 44  1  0
 41 40  2  0
 42 37  2  0
 42 41  1  0
 43 42  1  0
 45 46  1  0
 46 49  1  0
 46 48  1  0
 47 45  2  0
 50 25  1  0
 50 51  1  0
 52 50  1  0
 54 53  2  0
 54 55  1  0
 56 67  2  0
 57 55  1  0
 57 62  1  0
 58 66  1  0
 58 68  1  0
 59 65  1  0
 59 61  1  0
 60 66  1  0
 61 62  2  0
 61 60  1  0
 63 57  2  0
 64 63  1  0
 64 59  2  0
 65 58  1  0
 66 56  1  0
 68 70  2  0
 69 68  1  0
 71 69  1  0
 72 81  2  0
 72 77  1  0
 73 69  1  0
 73 77  1  0
 74 73  1  0
 75 76  1  0
 75 74  1  0
 76 72  1  0
 77 78  2  0
 78 79  1  0
 80 79  2  0
 81 80  1  0
 82 56  1  0
 82 83  1  0
 82 92  1  0
 83 86  1  0
 84 88  1  0
 84 83  1  0
 85 84  2  0
 88 87  1  0
 90 88  1  0
 90 91  1  0
 90 89  1  0
 92 95  1  1
 92 93  1  0
 94 92  1  0
M  ISO  4  15 100  24 100  54 101  55 101
M  END
>  <TORSDO>  (9) 
F 21

>  <SCORE>  (9) 
-13.042

>  <name>  (9) 
8

>  <ligand_id>  (9) 
8

>  <original_smiles>  (9) 
[H]c1c([H])c([H])c2c(c1[H])C([H])([H])C([H])([H])C([H])([H])C2([H])N([H])C(=O)C1([H])N(C(=O)C([H])(N([H])C(=O)C([H])(N([H])C([H])([H])[H])C([H])([H])[H])C(C([H])([H])[H])(C([H])([H])[H])C([H])([H])[H])C([H])([H])c2c([H])c(OC([H])([H])C([H])([H])c3c([H])c(C([H])([H])C([H])([H])N(C(=O)N4C([H])([H])C([H])([H])C([H])([H])C([H])(n5nc(-c6c([H])c([H])c(Oc7c([H])c([H])c(F)c([H])c7F)c([H])c6[H])c(C(=O)N([H])[H])c5N([H])[H])C4([H])[H])C([H])([H])[H])c([H])c(C([H])([H])[H])c3C(=O)N([H])[H])c([H])c([H])c2C1([H])[H]

>  <smiles>  (9) 
[H]c1c([H])c([H])c2c(c1[H])C([H])([H])C([H])([H])C([H])([H])C2([H])N([H])C(=O)C1([H])N(C(=O)C([H])(N([H])C(=O)C([H])(N([H])C([H])([H])[H])C([H])([H])[H])C(C([H])([H])[H])(C([H])([H])[H])C([H])([H])[H])C([H])([H])c2c([H])c(OC([H])([H])C([H])([H])c3c([H])c(C([H])([H])C([H])([H])N(C(=O)N4C([H])([H])C([H])([H])C([H])([H])C([H])(n5nc(-c6c([H])c([H])c(Oc7c([H])c([H])c(F)c([H])c7F)c([H])c6[H])c(C(=O)N([H])[H])c5N([H])[H])C4([H])[H])C([H])([H])[H])c([H])c(C([H])([H])[H])c3C(=O)N([H])[H])c([H])c([H])c2C1([H])[H]

$$$$
9:0:0
     RDKit          3D

 96105  0  0  1  0  0  0  0  0999 V2000
  -30.1130  -23.3460   19.2000 C   0  0  0  0  0  3  0  0  0  0  0  0
  -29.4020  -23.0020   17.9510 N   0  0  0  0  0  4  0  0  0  0  0  0
  -28.4050  -22.9900   18.0750 H   0  0  0  0  0  0  0  0  0  0  0  0
  -29.6810  -22.0860   17.6430 H   0  0  0  0  0  0  0  0  0  0  0  0
  -29.6320  -23.6460   17.2160 H   0  0  0  0  0  0  0  0  0  0  0  0
  -30.7360  -22.1900   21.5210 C   0  0  0  0  0  2  0  0  0  0  0  0
  -30.8860  -21.1510   20.4420 C   0  0  0  0  0  3  0  0  0  0  0  0
  -29.8660  -22.2830   20.2810 C   0  0  0  0  0  3  0  0  0  0  0  0
  -31.6540  -18.8220   21.0020 C   0  0  0  0  0  3  0  0  0  0  0  0
  -29.2910  -19.1270   20.5690 C   0  0  0  0  0  3  0  0  0  0  0  0
  -31.4620  -17.4330   21.1500 C   0  0  0  0  0  3  0  0  0  0  0  0
  -29.0910  -17.7340   20.7250 C   0  0  0  0  0  3  0  0  0  0  0  0
  -30.5830  -19.6870   20.6850 C   0  0  0  0  0  0  0  0  0  0  0  0
  -30.1780  -16.8670   20.9790 C   0  0  0  0  0  0  0  0  0  0  0  0
  -30.6570  -14.4670   20.5110 C   0  0  0  0  0  0  0  0  0  0  0  0
  -30.3710  -12.3180   19.3360 C   0  0  0  0  0  2  0  0  0  0  0  0
  -29.4290  -12.5320   18.1320 C   0  0  0  0  0  2  0  0  0  0  0  0
  -27.9540  -12.3910   18.5580 C   0  0  0  0  0  2  0  0  0  0  0  0
  -27.6140  -13.2200   19.8260 C   0  0  0  0  0  3  0  0  0  0  0  0
  -28.6650  -12.9790   20.9330 C   0  0  0  0  0  2  0  0  0  0  0  0
  -29.9920  -13.2900   20.3740 N   0  0  0  0  0  0  0  0  0  0  0  0
  -31.7840  -14.6510   20.0390 O   0  0  0  0  0  0  0  0  0  0  0  0
  -29.9400  -15.4620   21.0760 N   0  0  0  0  0  0  0  0  0  0  0  0
  -29.0120  -15.1870   21.3590 H   0  0  0  0  0  0  0  0  0  0  0  0
  -25.2100  -13.8330   20.5150 C   0  0  0  0  0  0  0  0  0  0  0  0
  -24.1410  -13.0620   20.8840 C   0  0  0  0  0  0  0  0  0  0  0  0
  -24.6030  -11.7110   20.8640 C   0  0  0  0  0  0  0  0  0  0  0  0
  -26.2580  -12.9500   20.2960 N   0  0  0  0  0  0  0  0  0  0  0  0
  -25.8940  -11.6690   20.5620 N   0  0  0  0  0  0  0  0  0  0  0  0
  -23.8770  -10.4500   21.0590 C   0  0  0  0  0  0  0  0  0  0  0  0
  -24.3180   -9.4790   21.9850 C   0  0  0  0  0  3  0  0  0  0  0  0
  -23.5940   -8.2820   22.1670 C   0  0  0  0  0  3  0  0  0  0  0  0
  -22.4130   -8.0460   21.4230 C   0  0  0  0  0  0  0  0  0  0  0  0
  -21.9910   -9.0050   20.4870 C   0  0  0  0  0  3  0  0  0  0  0  0
  -22.7160  -10.1940   20.3020 C   0  0  0  0  0  3  0  0  0  0  0  0
  -21.6610   -6.9010   21.5150 O   0  0  0  0  0  0  0  0  0  0  0  0
  -21.6370   -6.1430   22.6590 C   0  0  0  0  0  0  0  0  0  0  0  0
  -21.2510   -6.6850   23.9030 C   0  0  0  0  0  3  0  0  0  0  0  0
  -21.1730   -5.8570   25.0390 C   0  0  0  0  0  3  0  0  0  0  0  0
  -21.4730   -4.4850   24.9320 C   0  0  0  0  0  0  0  0  0  0  0  0
  -21.8540   -3.9430   23.6930 C   0  0  0  0  0  3  0  0  0  0  0  0
  -21.9340   -4.7690   22.5590 C   0  0  0  0  0  0  0  0  0  0  0  0
  -22.2800   -4.2360   21.3610 F   0  0  0  0  0  0  0  0  0  0  0  0
  -21.3910   -3.6850   26.0220 F   0  0  0  0  0  0  0  0  0  0  0  0
  -22.7410  -13.5400   21.1450 C   0  0  0  0  0  0  0  0  0  0  0  0
  -22.0080  -12.8520   22.0130 N   0  0  0  0  0  0  0  0  0  0  0  0
  -22.3050  -14.5620   20.6160 O   0  0  0  0  0  0  0  0  0  0  0  0
  -22.3700  -12.0250   22.4640 H   0  0  0  0  0  0  0  0  0  0  0  0
  -21.0690  -13.1560   22.2270 H   0  0  0  0  0  0  0  0  0  0  0  0
  -25.3760  -15.2020   20.3270 N   0  0  0  0  0  0  0  0  0  0  0  0
  -24.6070  -15.8580   20.4240 H   0  0  0  0  0  0  0  0  0  0  0  0
  -26.2180  -15.6310   19.9680 H   0  0  0  0  0  0  0  0  0  0  0  0
  -30.7620  -25.7740   18.7590 C   0  0  0  0  0  1  0  0  0  0  0  0
  -29.9020  -24.8380   19.6360 C   0  0  0  0  0  3  0  0  0  0  0  0
  -28.4390  -25.3590   19.6750 C   0  0  0  0  0  2  0  0  0  0  0  0
  -28.4110  -26.7270   20.1170 O   0  0  0  0  0  0  0  0  0  0  0  0
  -24.6020  -31.8760   23.2250 C   0  0  0  0  0  0  0  0  0  0  0  0
  -27.2150  -27.4220   20.1170 C   0  0  0  0  0  0  0  0  0  0  0  0
  -23.3790  -30.4760   21.5940 C   0  0  0  0  0  3  0  0  0  0  0  0
  -24.8170  -28.9360   20.1580 C   0  0  0  0  0  0  0  0  0  0  0  0
  -25.9040  -30.8290   21.3740 C   0  0  0  0  0  2  0  0  0  0  0  0
  -25.9810  -29.4570   20.7330 C   0  0  0  0  0  0  0  0  0  0  0  0
  -27.1800  -28.7080   20.7090 C   0  0  0  0  0  3  0  0  0  0  0  0
  -26.0230  -26.9110   19.5520 C   0  0  0  0  0  3  0  0  0  0  0  0
  -24.8320  -27.6610   19.5680 C   0  0  0  0  0  3  0  0  0  0  0  0
  -23.5750  -29.7970   20.2120 C   0  0  0  0  0  2  0  0  0  0  0  0
  -24.6470  -31.0760   22.1220 N   0  0  0  0  0  0  0  0  0  0  0  0
  -23.5270  -32.1500   23.7740 O   0  0  0  0  0  0  0  0  0  0  0  0
  -22.7360  -29.4550   22.5590 C   0  0  0  0  0  0  0  0  0  0  0  0
  -21.4100  -29.2720   22.4380 N   0  0  0  0  0  0  0  0  0  0  0  0
  -23.4240  -28.8300   23.3700 O   0  0  0  0  0  0  0  0  0  0  0  0
  -20.9160  -29.8280   21.7540 H   0  0  0  0  0  0  0  0  0  0  0  0
  -18.0410  -28.0710   22.9430 C   0  0  0  0  0  0  0  0  0  0  0  0
  -20.5980  -28.3370   23.2150 C   0  0  0  0  0  3  0  0  0  0  0  0
  -20.7040  -26.9030   22.6460 C   0  0  0  0  0  2  0  0  0  0  0  0
  -19.6040  -26.5740   21.6300 C   0  0  0  0  0  2  0  0  0  0  0  0
  -18.2200  -26.7190   22.2720 C   0  0  0  0  0  2  0  0  0  0  0  0
  -19.1580  -28.8370   23.3700 C   0  0  0  0  0  0  0  0  0  0  0  0
  -18.9370  -30.1040   23.9550 C   0  0  0  0  0  3  0  0  0  0  0  0
  -17.6310  -30.6030   24.1170 C   0  0  0  0  0  3  0  0  0  0  0  0
  -16.5280  -29.8330   23.7080 C   0  0  0  0  0  3  0  0  0  0  0  0
  -16.7340  -28.5700   23.1270 C   0  0  0  0  0  3  0  0  0  0  0  0
  -25.8960  -32.5030   23.8320 C   0  0  0  0  0  3  0  0  0  0  0  0
  -25.5910  -33.8980   24.1750 N   0  0  0  0  0  0  0  0  0  0  0  0
  -25.9150  -34.9550   23.4170 C   0  0  0  0  0  0  0  0  0  0  0  0
  -26.5730  -34.8570   22.3780 O   0  0  0  0  0  0  0  0  0  0  0  0
  -25.0070  -34.0490   24.9840 H   0  0  0  0  0  0  0  0  0  0  0  0
  -24.1810  -36.7470   23.0890 C   0  0  0  0  0  1  0  0  0  0  0  0
  -25.4310  -36.3400   23.8870 C   0  0  0  0  0  3  0  0  0  0  0  0
  -27.5750  -37.2180   24.6980 C   0  0  0  0  0  1  0  0  0  0  0  0
  -26.4600  -37.3950   23.7710 N   0  0  0  0  0  0  0  0  0  0  0  0
  -26.0550  -38.3130   23.9330 H   0  0  0  0  0  0  0  0  0  0  0  0
  -26.4320  -31.7230   25.0950 C   0  0  1  0  0  0  0  0  0  0  0  0
  -25.3550  -31.4810   26.1790 C   0  0  0  0  0  1  0  0  0  0  0  0
  -27.0080  -30.3480   24.6850 C   0  0  0  0  0  1  0  0  0  0  0  0
  -27.5930  -32.5130   25.7460 C   0  0  0  0  0  1  0  0  0  0  0  0
  1  2  1  0
  1 54  1  0
  2  3  1  0
  4  2  1  0
  5  2  1  0
  7 13  1  0
  7  6  1  0
  8  1  1  0
  8  7  1  0
  8  6  1  0
  9 11  1  0
 10 13  1  0
 10 12  2  0
 12 14  1  0
 13  9  2  0
 14 23  1  0
 14 11  2  0
 15 23  1  0
 16 21  1  0
 17 18  1  0
 17 16  1  0
 19 18  1  0
 19 28  1  0
 19 20  1  0
 21 15  1  0
 21 20  1  0
 22 15  2  0
 23 24  1  0
 25 26  2  0
 26 45  1  0
 27 26  1  0
 27 30  1  0
 28 25  1  0
 28 29  1  0
 29 27  2  0
 30 31  1  0
 31 32  2  0
 33 36  1  0
 33 32  1  0
 34 33  2  0
 35 34  1  0
 35 30  2  0
 36 37  1  0
 37 38  1  0
 38 39  2  0
 40 39  1  0
 40 44  1  0
 41 40  2  0
 42 37  2  0
 42 41  1  0
 43 42  1  0
 45 46  1  0
 46 49  1  0
 46 48  1  0
 47 45  2  0
 50 51  1  0
 50 25  1  0
 52 50  1  0
 54 53  1  0
 54 55  1  0
 55 56  1  0
 56 58  1  0
 57 68  2  0
 58 63  1  0
 59 67  1  0
 59 69  1  0
 60 66  1  0
 60 62  1  0
 61 67  1  0
 62 61  1  0
 63 62  2  0
 64 65  1  0
 64 58  2  0
 65 60  2  0
 66 59  1  0
 67 57  1  0
 69 71  2  0
 70 69  1  0
 72 70  1  0
 73 82  2  0
 73 78  1  0
 74 70  1  0
 74 78  1  0
 75 74  1  0
 76 77  1  0
 76 75  1  0
 77 73  1  0
 78 79  2  0
 79 80  1  0
 81 80  2  0
 82 81  1  0
 83 57  1  0
 83 84  1  0
 83 93  1  0
 84 87  1  0
 85 89  1  0
 85 84  1  0
 86 85  2  0
 89 88  1  0
 91 89  1  0
 91 92  1  0
 91 90  1  0
 93 96  1  1
 93 94  1  0
 95 93  1  0
M  ISO  4  15 100  23 100  55 101  56 101
M  END
>  <TORSDO>  (10) 
F 21

>  <SCORE>  (10) 
-13.914

>  <name>  (10) 
9

>  <ligand_id>  (10) 
9

>  <original_smiles>  (10) 
[H]c1c([H])c([H])c2c(c1[H])C([H])([H])C([H])([H])C([H])([H])C2([H])N([H])C(=O)C1([H])N(C(=O)C([H])(N([H])C(=O)C([H])(N([H])C([H])([H])[H])C([H])([H])[H])C(C([H])([H])[H])(C([H])([H])[H])C([H])([H])[H])C([H])([H])c2c([H])c(OC([H])([H])C([H])(C([H])([H])[H])C([H])(C3([H])C([H])([H])C3([H])c3c([H])c([H])c(N([H])C(=O)N4C([H])([H])C([H])([H])C([H])([H])C([H])(n5nc(-c6c([H])c([H])c(Oc7c([H])c([H])c(F)c([H])c7F)c([H])c6[H])c(C(=O)N([H])[H])c5N([H])[H])C4([H])[H])c([H])c3[H])[N+]([H])([H])[H])c([H])c([H])c2C1([H])[H]

>  <smiles>  (10) 
[H]c1c([H])c([H])c2c(c1[H])C([H])([H])C([H])([H])C([H])([H])C2([H])N([H])C(=O)C1([H])N(C(=O)C([H])(N([H])C(=O)C([H])(N([H])C([H])([H])[H])C([H])([H])[H])C(C([H])([H])[H])(C([H])([H])[H])C([H])([H])[H])C([H])([H])c2c([H])c(OC([H])([H])C([H])(C([H])([H])[H])C([H])(C3([H])C([H])([H])C3([H])c3c([H])c([H])c(N([H])C(=O)N4C([H])([H])C([H])([H])C([H])([H])C([H])(n5nc(-c6c([H])c([H])c(Oc7c([H])c([H])c(F)c([H])c7F)c([H])c6[H])c(C(=O)N([H])[H])c5N([H])[H])C4([H])[H])c([H])c3[H])[N+]([H])([H])[H])c([H])c([H])c2C1([H])[H]

$$$$
10:0:0
     RDKit          3D

 90 98  0  0  1  0  0  0  0  0999 V2000
  -30.3420  -21.8110   19.2960 C   0  0  0  0  0  1  0  0  0  0  0  0
  -29.7060  -21.6170   20.6830 C   0  0  0  0  0  3  0  0  0  0  0  0
  -29.1090  -22.9830   21.2470 C   0  0  0  0  0  2  0  0  0  0  0  0
  -28.1000  -23.8840   20.4280 C   0  0  0  0  0  2  0  0  0  0  0  0
  -28.6150  -25.2160   19.7340 C   0  0  0  0  0  2  0  0  0  0  0  0
  -28.4850  -26.5340   20.3690 O   0  0  0  0  0  0  0  0  0  0  0  0
  -24.6530  -31.8780   23.2380 C   0  0  0  0  0  0  0  0  0  0  0  0
  -27.3320  -27.3170   20.2660 C   0  0  0  0  0  0  0  0  0  0  0  0
  -23.4780  -30.4560   21.5940 C   0  0  0  0  0  3  0  0  0  0  0  0
  -24.9530  -28.8950   20.2050 C   0  0  0  0  0  0  0  0  0  0  0  0
  -26.0170  -30.7860   21.4440 C   0  0  0  0  0  2  0  0  0  0  0  0
  -26.1060  -29.4040   20.8110 C   0  0  0  0  0  0  0  0  0  0  0  0
  -27.2950  -28.6230   20.8340 C   0  0  0  0  0  3  0  0  0  0  0  0
  -26.1540  -26.8430   19.6450 C   0  0  0  0  0  3  0  0  0  0  0  0
  -24.9750  -27.6180   19.6190 C   0  0  0  0  0  3  0  0  0  0  0  0
  -23.7130  -29.7660   20.2230 C   0  0  0  0  0  2  0  0  0  0  0  0
  -24.7330  -31.0600   22.1470 N   0  0  0  0  0  0  0  0  0  0  0  0
  -23.5600  -32.1550   23.7540 O   0  0  0  0  0  0  0  0  0  0  0  0
  -22.8100  -29.4460   22.5570 C   0  0  0  0  0  0  0  0  0  0  0  0
  -21.4910  -29.2460   22.3980 N   0  0  0  0  0  0  0  0  0  0  0  0
  -23.4780  -28.8430   23.4000 O   0  0  0  0  0  0  0  0  0  0  0  0
  -21.0140  -29.7760   21.6810 H   0  0  0  0  0  0  0  0  0  0  0  0
  -18.1220  -28.0040   22.8290 C   0  0  0  0  0  0  0  0  0  0  0  0
  -20.6660  -28.3130   23.1650 C   0  0  0  0  0  3  0  0  0  0  0  0
  -20.8120  -26.8730   22.6230 C   0  0  0  0  0  2  0  0  0  0  0  0
  -19.7440  -26.5100   21.5860 C   0  0  0  0  0  2  0  0  0  0  0  0
  -18.3410  -26.6450   22.1860 C   0  0  0  0  0  2  0  0  0  0  0  0
  -19.2160  -28.7930   23.2750 C   0  0  0  0  0  0  0  0  0  0  0  0
  -18.9610  -30.0630   23.8370 C   0  0  0  0  0  3  0  0  0  0  0  0
  -17.6440  -30.5440   23.9610 C   0  0  0  0  0  3  0  0  0  0  0  0
  -16.5640  -29.7530   23.5300 C   0  0  0  0  0  3  0  0  0  0  0  0
  -16.8040  -28.4860   22.9700 C   0  0  0  0  0  3  0  0  0  0  0  0
  -25.9240  -32.5200   23.8750 C   0  0  0  0  0  3  0  0  0  0  0  0
  -25.5960  -33.9170   24.1970 N   0  0  0  0  0  0  0  0  0  0  0  0
  -25.9200  -34.9720   23.4370 C   0  0  0  0  0  0  0  0  0  0  0  0
  -26.5960  -34.8740   22.4100 O   0  0  0  0  0  0  0  0  0  0  0  0
  -25.0020  -34.0670   24.9990 H   0  0  0  0  0  0  0  0  0  0  0  0
  -24.1700  -36.7410   23.0690 C   0  0  0  0  0  1  0  0  0  0  0  0
  -25.4130  -36.3570   23.8870 C   0  0  0  0  0  3  0  0  0  0  0  0
  -27.5340  -37.2690   24.7230 C   0  0  0  0  0  1  0  0  0  0  0  0
  -26.4340  -37.4200   23.7750 N   0  0  0  0  0  0  0  0  0  0  0  0
  -26.0170  -38.3380   23.9160 H   0  0  0  0  0  0  0  0  0  0  0  0
  -26.4310  -31.7610   25.1620 C   0  0  1  0  0  0  0  0  0  0  0  0
  -25.3230  -31.5220   26.2160 C   0  0  0  0  0  1  0  0  0  0  0  0
  -27.0360  -30.3870   24.7910 C   0  0  0  0  0  1  0  0  0  0  0  0
  -27.5650  -32.5690   25.8350 C   0  0  0  0  0  1  0  0  0  0  0  0
  -28.8250  -20.3020   20.7770 C   0  0  0  0  0  2  0  0  0  0  0  0
  -30.0630  -18.0480   21.4000 C   0  0  0  0  0  0  0  0  0  0  0  0
  -29.5270  -18.0140   19.4100 C   0  0  0  0  0  2  0  0  0  0  0  0
  -30.4460  -17.0870   20.2440 C   0  0  0  0  0  3  0  0  0  0  0  0
  -29.5170  -18.9890   20.5380 N   0  0  0  0  0  0  0  0  0  0  0  0
  -30.1630  -18.0470   22.6080 O   0  0  0  0  0  0  0  0  0  0  0  0
  -30.7150  -14.5710   19.9870 C   0  0  0  0  0  0  0  0  0  0  0  0
  -30.3980  -12.3500   18.9390 C   0  0  0  0  0  2  0  0  0  0  0  0
  -29.3920  -12.5000   17.7760 C   0  0  0  0  0  2  0  0  0  0  0  0
  -27.9450  -12.3500   18.2860 C   0  0  0  0  0  2  0  0  0  0  0  0
  -27.6570  -13.2060   19.5490 C   0  0  0  0  0  3  0  0  0  0  0  0
  -28.7760  -13.0590   20.6030 C   0  0  0  0  0  2  0  0  0  0  0  0
  -30.0560  -13.3700   19.9480 N   0  0  0  0  0  0  0  0  0  0  0  0
  -31.8460  -14.7000   19.5140 O   0  0  0  0  0  0  0  0  0  0  0  0
  -30.0030  -15.6630   20.3760 N   0  0  0  0  0  0  0  0  0  0  0  0
  -29.0790  -15.5130   20.7470 H   0  0  0  0  0  0  0  0  0  0  0  0
  -25.3140  -13.8020   20.4230 C   0  0  0  0  0  0  0  0  0  0  0  0
  -24.2730  -13.0250   20.8520 C   0  0  0  0  0  0  0  0  0  0  0  0
  -24.7300  -11.6730   20.7800 C   0  0  0  0  0  0  0  0  0  0  0  0
  -26.3400  -12.9220   20.1100 N   0  0  0  0  0  0  0  0  0  0  0  0
  -25.9970  -11.6370   20.3870 N   0  0  0  0  0  0  0  0  0  0  0  0
  -24.0140  -10.4110   21.0110 C   0  0  0  0  0  0  0  0  0  0  0  0
  -24.4720   -9.4660   21.9570 C   0  0  0  0  0  3  0  0  0  0  0  0
  -23.7570   -8.2680   22.1710 C   0  0  0  0  0  3  0  0  0  0  0  0
  -22.5750   -8.0050   21.4390 C   0  0  0  0  0  0  0  0  0  0  0  0
  -22.1360   -8.9370   20.4820 C   0  0  0  0  0  3  0  0  0  0  0  0
  -22.8520  -10.1270   20.2690 C   0  0  0  0  0  3  0  0  0  0  0  0
  -21.8360   -6.8560   21.5600 O   0  0  0  0  0  0  0  0  0  0  0  0
  -21.7590   -6.1660   22.7460 C   0  0  0  0  0  0  0  0  0  0  0  0
  -21.2950   -6.7720   23.9300 C   0  0  0  0  0  3  0  0  0  0  0  0
  -21.1690   -6.0110   25.1090 C   0  0  0  0  0  3  0  0  0  0  0  0
  -21.5020   -4.6420   25.1020 C   0  0  0  0  0  0  0  0  0  0  0  0
  -21.9590   -4.0340   23.9200 C   0  0  0  0  0  3  0  0  0  0  0  0
  -22.0870   -4.7950   22.7440 C   0  0  0  0  0  0  0  0  0  0  0  0
  -22.5100   -4.2010   21.6020 F   0  0  0  0  0  0  0  0  0  0  0  0
  -21.3720   -3.9070   26.2290 F   0  0  0  0  0  0  0  0  0  0  0  0
  -22.8970  -13.5040   21.2140 C   0  0  0  0  0  0  0  0  0  0  0  0
  -22.2260  -12.8110   22.1280 N   0  0  0  0  0  0  0  0  0  0  0  0
  -22.4250  -14.5280   20.7210 O   0  0  0  0  0  0  0  0  0  0  0  0
  -22.6210  -11.9850   22.5540 H   0  0  0  0  0  0  0  0  0  0  0  0
  -21.3070  -13.1210   22.4100 H   0  0  0  0  0  0  0  0  0  0  0  0
  -25.4690  -15.1760   20.2580 N   0  0  0  0  0  0  0  0  0  0  0  0
  -24.7030  -15.8200   20.4460 H   0  0  0  0  0  0  0  0  0  0  0  0
  -26.2710  -15.6300   19.8380 H   0  0  0  0  0  0  0  0  0  0  0  0
  2  1  1  0
  2 47  1  0
  2  3  1  0
  4  3  1  0
  5  6  1  0
  5  4  1  0
  7 18  2  0
  8  6  1  0
  8 13  1  0
  9 17  1  0
  9 19  1  0
 10 16  1  0
 10 12  1  0
 11 17  1  0
 12 13  2  0
 12 11  1  0
 14  8  2  0
 15 14  1  0
 15 10  2  0
 16  9  1  0
 17  7  1  0
 19 21  2  0
 20 19  1  0
 22 20  1  0
 23 32  2  0
 23 28  1  0
 24 20  1  0
 24 28  1  0
 25 24  1  0
 26 27  1  0
 26 25  1  0
 27 23  1  0
 28 29  2  0
 29 30  1  0
 31 30  2  0
 32 31  1  0
 33  7  1  0
 33 34  1  0
 33 43  1  0
 34 37  1  0
 35 39  1  0
 35 34  1  0
 36 35  2  0
 39 38  1  0
 41 39  1  0
 41 42  1  0
 41 40  1  0
 43 46  1  1
 43 44  1  0
 45 43  1  0
 48 52  2  0
 49 50  1  0
 49 51  1  0
 50 61  1  0
 50 48  1  0
 51 47  1  0
 51 48  1  0
 53 61  1  0
 54 59  1  0
 55 56  1  0
 55 54  1  0
 57 56  1  0
 57 66  1  0
 57 58  1  0
 59 53  1  0
 59 58  1  0
 60 53  2  0
 61 62  1  0
 63 64  2  0
 64 83  1  0
 65 64  1  0
 65 68  1  0
 66 67  1  0
 66 63  1  0
 67 65  2  0
 68 69  1  0
 69 70  2  0
 71 74  1  0
 71 70  1  0
 72 71  2  0
 73 72  1  0
 73 68  2  0
 74 75  1  0
 75 76  1  0
 76 77  2  0
 78 77  1  0
 78 82  1  0
 79 78  2  0
 80 75  2  0
 80 79  1  0
 81 80  1  0
 83 84  1  0
 84 87  1  0
 84 86  1  0
 85 83  2  0
 88 63  1  0
 88 89  1  0
 90 88  1  0
M  ISO  4   5 101   6 101  53 100  61 100
M  END
>  <TORSDO>  (11) 
F 21

>  <SCORE>  (11) 
-12.948

>  <name>  (11) 
10

>  <ligand_id>  (11) 
10

>  <original_smiles>  (11) 
[H]c1c([H])c([H])c2c(c1[H])C([H])([H])C([H])([H])C([H])([H])C2([H])N([H])C(=O)C1([H])N(C(=O)C([H])(N([H])C(=O)C([H])(N([H])C([H])([H])[H])C([H])([H])[H])C(C([H])([H])[H])(C([H])([H])[H])C([H])([H])[H])C([H])([H])c2c([H])c(OC([H])([H])C([H])([H])C([H])([H])C([H])(C([H])([H])[H])C([H])([H])N3C(=O)C([H])(N([H])C(=O)N4C([H])([H])C([H])([H])C([H])([H])C([H])(n5nc(-c6c([H])c([H])c(Oc7c([H])c([H])c(F)c([H])c7F)c([H])c6[H])c(C(=O)N([H])[H])c5N([H])[H])C4([H])[H])C3([H])[H])c([H])c([H])c2C1([H])[H]

>  <smiles>  (11) 
[H]c1c([H])c([H])c2c(c1[H])C([H])([H])C([H])([H])C([H])([H])C2([H])N([H])C(=O)C1([H])N(C(=O)C([H])(N([H])C(=O)C([H])(N([H])C([H])([H])[H])C([H])([H])[H])C(C([H])([H])[H])(C([H])([H])[H])C([H])([H])[H])C([H])([H])c2c([H])c(OC([H])([H])C([H])([H])C([H])([H])C([H])(C([H])([H])[H])C([H])([H])N3C(=O)C([H])(N([H])C(=O)N4C([H])([H])C([H])([H])C([H])([H])C([H])(n5nc(-c6c([H])c([H])c(Oc7c([H])c([H])c(F)c([H])c7F)c([H])c6[H])c(C(=O)N([H])[H])c5N([H])[H])C4([H])[H])C3([H])[H])c([H])c([H])c2C1([H])[H]

$$$$
11:0:0
     RDKit          3D

 96104  0  0  1  0  0  0  0  0999 V2000
  -30.3760  -20.6770   19.1240 C   0  0  0  0  0  0  0  0  0  0  0  0
  -29.7850  -20.3410   18.0910 O   0  0  0  0  0  0  0  0  0  0  0  0
  -28.9530  -22.8190   19.3930 C   0  0  0  0  0  2  0  0  0  0  0  0
  -30.8530  -22.9950   20.2090 C   0  0  0  0  0  2  0  0  0  0  0  0
  -29.9090  -21.8000   20.0260 C   0  0  0  0  0  3  0  0  0  0  0  0
  -29.7110  -23.8960   20.0380 N   0  0  1  0  0  4  0  0  0  0  0  0
  -29.3080  -24.1260   20.9360 H   0  0  0  0  0  0  0  0  0  0  0  0
  -29.9700  -25.1140   19.2300 C   0  0  0  0  0  2  0  0  0  0  0  0
  -28.6980  -25.9430   18.9870 C   0  0  0  0  0  2  0  0  0  0  0  0
  -28.4070  -26.7520   20.1300 O   0  0  0  0  0  0  0  0  0  0  0  0
  -24.5770  -31.8820   23.2330 C   0  0  0  0  0  0  0  0  0  0  0  0
  -27.2200  -27.4540   20.1290 C   0  0  0  0  0  0  0  0  0  0  0  0
  -23.3690  -30.4870   21.5870 C   0  0  0  0  0  3  0  0  0  0  0  0
  -24.8210  -28.9510   20.1640 C   0  0  0  0  0  0  0  0  0  0  0  0
  -25.8960  -30.8410   21.3920 C   0  0  0  0  0  2  0  0  0  0  0  0
  -25.9790  -29.4700   20.7560 C   0  0  0  0  0  0  0  0  0  0  0  0
  -27.1770  -28.7220   20.7480 C   0  0  0  0  0  3  0  0  0  0  0  0
  -26.0340  -26.9360   19.5550 C   0  0  0  0  0  3  0  0  0  0  0  0
  -24.8400  -27.6790   19.5710 C   0  0  0  0  0  3  0  0  0  0  0  0
  -23.5790  -29.8100   20.2080 C   0  0  0  0  0  2  0  0  0  0  0  0
  -24.6330  -31.0830   22.1300 N   0  0  0  0  0  0  0  0  0  0  0  0
  -23.4950  -32.1550   23.7720 O   0  0  0  0  0  0  0  0  0  0  0  0
  -22.7190  -29.4620   22.5440 C   0  0  0  0  0  0  0  0  0  0  0  0
  -21.3950  -29.2760   22.4110 N   0  0  0  0  0  0  0  0  0  0  0  0
  -23.4010  -28.8360   23.3610 O   0  0  0  0  0  0  0  0  0  0  0  0
  -20.9070  -29.8350   21.7240 H   0  0  0  0  0  0  0  0  0  0  0  0
  -18.0220  -28.0700   22.8810 C   0  0  0  0  0  0  0  0  0  0  0  0
  -20.5750  -28.3390   23.1770 C   0  0  0  0  0  3  0  0  0  0  0  0
  -20.6900  -26.9050   22.6070 C   0  0  0  0  0  2  0  0  0  0  0  0
  -19.5990  -26.5740   21.5840 C   0  0  0  0  0  2  0  0  0  0  0  0
  -18.2110  -26.7180   22.2140 C   0  0  0  0  0  2  0  0  0  0  0  0
  -19.1330  -28.8380   23.3190 C   0  0  0  0  0  0  0  0  0  0  0  0
  -18.9060  -30.1040   23.9000 C   0  0  0  0  0  3  0  0  0  0  0  0
  -17.5980  -30.6030   24.0490 C   0  0  0  0  0  3  0  0  0  0  0  0
  -16.5000  -29.8320   23.6270 C   0  0  0  0  0  3  0  0  0  0  0  0
  -16.7130  -28.5680   23.0500 C   0  0  0  0  0  3  0  0  0  0  0  0
  -25.8640  -32.5100   23.8540 C   0  0  0  0  0  3  0  0  0  0  0  0
  -26.3840  -31.7330   25.1250 C   0  0  1  0  0  0  0  0  0  0  0  0
  -25.2930  -31.4910   26.1950 C   0  0  0  0  0  1  0  0  0  0  0  0
  -26.9640  -30.3580   24.7230 C   0  0  0  0  0  1  0  0  0  0  0  0
  -27.5370  -32.5240   25.7880 C   0  0  0  0  0  1  0  0  0  0  0  0
  -25.5560  -33.9070   24.1860 N   0  0  0  0  0  0  0  0  0  0  0  0
  -25.8910  -34.9610   23.4280 C   0  0  0  0  0  0  0  0  0  0  0  0
  -26.5640  -34.8580   22.3990 O   0  0  0  0  0  0  0  0  0  0  0  0
  -24.9610  -34.0610   24.9880 H   0  0  0  0  0  0  0  0  0  0  0  0
  -24.1660  -36.7550   23.0670 C   0  0  0  0  0  1  0  0  0  0  0  0
  -25.4020  -36.3480   23.8850 C   0  0  0  0  0  3  0  0  0  0  0  0
  -27.5350  -37.2260   24.7290 C   0  0  0  0  0  1  0  0  0  0  0  0
  -26.4380  -37.3990   23.7810 N   0  0  0  0  0  0  0  0  0  0  0  0
  -26.0320  -38.3200   23.9290 H   0  0  0  0  0  0  0  0  0  0  0  0
  -31.6690  -19.9490   19.5610 C   0  0  0  0  0  3  0  0  0  0  0  0
  -32.2280  -19.2890   18.3650 N   0  0  0  0  0  4  0  0  0  0  0  0
  -31.5710  -18.6230   17.9980 H   0  0  0  0  0  0  0  0  0  0  0  0
  -33.1040  -18.8400   18.5590 H   0  0  0  0  0  0  0  0  0  0  0  0
  -32.3720  -19.9800   17.6490 H   0  0  0  0  0  0  0  0  0  0  0  0
  -31.4690  -18.9540   20.7430 C   0  0  0  0  0  2  0  0  0  0  0  0
  -30.6300  -17.6830   20.4670 C   0  0  0  0  0  2  0  0  0  0  0  0
  -30.6890  -16.6710   21.6380 C   0  0  0  0  0  2  0  0  0  0  0  0
  -30.7100  -14.4260   20.5440 C   0  0  0  0  0  0  0  0  0  0  0  0
  -30.3600  -12.3290   19.2980 C   0  0  0  0  0  2  0  0  0  0  0  0
  -29.4110  -12.5730   18.1090 C   0  0  0  0  0  2  0  0  0  0  0  0
  -27.9420  -12.4300   18.5460 C   0  0  0  0  0  2  0  0  0  0  0  0
  -27.6170  -13.2440   19.8260 C   0  0  0  0  0  3  0  0  0  0  0  0
  -28.6720  -12.9850   20.9230 C   0  0  0  0  0  2  0  0  0  0  0  0
  -30.0010  -13.2820   20.3600 N   0  0  0  0  0  0  0  0  0  0  0  0
  -31.7970  -14.6410   20.0030 O   0  0  0  0  0  0  0  0  0  0  0  0
  -30.1170  -15.3640   21.2990 N   0  0  0  0  0  0  0  0  0  0  0  0
  -29.2180  -15.1310   21.6920 H   0  0  0  0  0  0  0  0  0  0  0  0
  -25.2170  -13.8540   20.5290 C   0  0  0  0  0  0  0  0  0  0  0  0
  -24.1480  -13.0810   20.8990 C   0  0  0  0  0  0  0  0  0  0  0  0
  -24.6100  -11.7290   20.8740 C   0  0  0  0  0  0  0  0  0  0  0  0
  -26.2620  -12.9710   20.3020 N   0  0  0  0  0  0  0  0  0  0  0  0
  -25.9000  -11.6900   20.5660 N   0  0  0  0  0  0  0  0  0  0  0  0
  -23.8860  -10.4670   21.0670 C   0  0  0  0  0  0  0  0  0  0  0  0
  -24.3320   -9.4960   21.9900 C   0  0  0  0  0  3  0  0  0  0  0  0
  -23.6110   -8.2950   22.1710 C   0  0  0  0  0  3  0  0  0  0  0  0
  -22.4300   -8.0590   21.4290 C   0  0  0  0  0  0  0  0  0  0  0  0
  -22.0040   -9.0180   20.4940 C   0  0  0  0  0  3  0  0  0  0  0  0
  -22.7250  -10.2090   20.3100 C   0  0  0  0  0  3  0  0  0  0  0  0
  -21.6790   -6.9110   21.5180 O   0  0  0  0  0  0  0  0  0  0  0  0
  -21.6550   -6.1540   22.6620 C   0  0  0  0  0  0  0  0  0  0  0  0
  -21.2650   -6.6950   23.9070 C   0  0  0  0  0  3  0  0  0  0  0  0
  -21.1880   -5.8650   25.0420 C   0  0  0  0  0  3  0  0  0  0  0  0
  -21.4900   -4.4950   24.9360 C   0  0  0  0  0  0  0  0  0  0  0  0
  -21.8730   -3.9520   23.6960 C   0  0  0  0  0  3  0  0  0  0  0  0
  -21.9530   -4.7800   22.5620 C   0  0  0  0  0  0  0  0  0  0  0  0
  -22.3010   -4.2480   21.3660 F   0  0  0  0  0  0  0  0  0  0  0  0
  -21.4100   -3.6950   26.0240 F   0  0  0  0  0  0  0  0  0  0  0  0
  -22.7510  -13.5560   21.1710 C   0  0  0  0  0  0  0  0  0  0  0  0
  -22.0220  -12.8620   22.0380 N   0  0  0  0  0  0  0  0  0  0  0  0
  -22.3110  -14.5780   20.6460 O   0  0  0  0  0  0  0  0  0  0  0  0
  -22.3880  -12.0340   22.4840 H   0  0  0  0  0  0  0  0  0  0  0  0
  -21.0840  -13.1640   22.2600 H   0  0  0  0  0  0  0  0  0  0  0  0
  -25.3850  -15.2230   20.3480 N   0  0  0  0  0  0  0  0  0  0  0  0
  -24.6220  -15.8860   20.4380 H   0  0  0  0  0  0  0  0  0  0  0  0
  -26.2420  -15.6530   20.0200 H   0  0  0  0  0  0  0  0  0  0  0  0
  1 51  1  0
  2  1  2  0
  3  5  1  0
  3  6  1  0
  5  1  1  0
  5  4  1  0
  6  4  1  0
  6  7  1  1
  8  6  1  0
  9  8  1  0
  9 10  1  0
 11 22  2  0
 12 10  1  0
 12 17  1  0
 13 21  1  0
 13 23  1  0
 14 20  1  0
 14 16  1  0
 15 21  1  0
 16 15  1  0
 17 16  2  0
 18 19  1  0
 18 12  2  0
 19 14  2  0
 20 13  1  0
 21 11  1  0
 23 25  2  0
 24 23  1  0
 26 24  1  0
 27 36  2  0
 27 32  1  0
 28 24  1  0
 28 32  1  0
 29 28  1  0
 30 31  1  0
 30 29  1  0
 31 27  1  0
 32 33  2  0
 33 34  1  0
 35 34  2  0
 36 35  1  0
 37 11  1  0
 37 42  1  0
 37 38  1  0
 38 41  1  1
 38 39  1  0
 40 38  1  0
 42 45  1  0
 43 47  1  0
 43 42  1  0
 44 43  2  0
 47 46  1  0
 49 47  1  0
 49 50  1  0
 49 48  1  0
 51 56  1  0
 52 54  1  0
 52 51  1  0
 53 52  1  0
 55 52  1  0
 57 56  1  0
 57 58  1  0
 59 67  1  0
 60 65  1  0
 61 62  1  0
 61 60  1  0
 63 62  1  0
 63 72  1  0
 63 64  1  0
 65 59  1  0
 65 64  1  0
 66 59  2  0
 67 58  1  0
 67 68  1  0
 69 70  2  0
 70 89  1  0
 71 70  1  0
 71 74  1  0
 72 69  1  0
 72 73  1  0
 73 71  2  0
 74 75  1  0
 75 76  2  0
 77 80  1  0
 77 76  1  0
 78 77  2  0
 79 78  1  0
 79 74  2  0
 80 81  1  0
 81 82  1  0
 82 83  2  0
 84 83  1  0
 84 88  1  0
 85 84  2  0
 86 81  2  0
 86 85  1  0
 87 86  1  0
 89 90  1  0
 90 93  1  0
 90 92  1  0
 91 89  2  0
 94 95  1  0
 94 69  1  0
 96 94  1  0
M  ISO  4   9 101  10 101  59 100  67 100
M  END
>  <TORSDO>  (12) 
F 24

>  <SCORE>  (12) 
-12.726

>  <name>  (12) 
11

>  <ligand_id>  (12) 
11

>  <original_smiles>  (12) 
[H]c1c([H])c([H])c2c(c1[H])C([H])([H])C([H])([H])C([H])([H])C2([H])N([H])C(=O)C1([H])N(C(=O)C([H])(N([H])C(=O)C([H])(N([H])C([H])([H])[H])C([H])([H])[H])C(C([H])([H])[H])(C([H])([H])[H])C([H])([H])[H])C([H])([H])c2c([H])c(OC([H])([H])C([H])([H])[N+]3([H])C([H])([H])C([H])(C(=O)C([H])(C([H])([H])C([H])([H])C([H])([H])N([H])C(=O)N4C([H])([H])C([H])([H])C([H])([H])C([H])(n5nc(-c6c([H])c([H])c(Oc7c([H])c([H])c(F)c([H])c7F)c([H])c6[H])c(C(=O)N([H])[H])c5N([H])[H])C4([H])[H])[N+]([H])([H])[H])C3([H])[H])c([H])c([H])c2C1([H])[H]

>  <smiles>  (12) 
[H]c1c([H])c([H])c2c(c1[H])C([H])([H])C([H])([H])C([H])([H])C2([H])N([H])C(=O)C1([H])N(C(=O)C([H])(N([H])C(=O)C([H])(N([H])C([H])([H])[H])C([H])([H])[H])C(C([H])([H])[H])(C([H])([H])[H])C([H])([H])[H])C([H])([H])c2c([H])c(OC([H])([H])C([H])([H])[N+]3([H])C([H])([H])C([H])(C(=O)C([H])(C([H])([H])C([H])([H])C([H])([H])N([H])C(=O)N4C([H])([H])C([H])([H])C([H])([H])C([H])(n5nc(-c6c([H])c([H])c(Oc7c([H])c([H])c(F)c([H])c7F)c([H])c6[H])c(C(=O)N([H])[H])c5N([H])[H])C4([H])[H])[N+]([H])([H])[H])C3([H])[H])c([H])c([H])c2C1([H])[H]

$$$$
12:0:0
     RDKit          3D

 90 98  0  0  1  0  0  0  0  0999 V2000
  -28.5200  -18.9660   20.4210 C   0  0  0  0  0  2  0  0  0  0  0  0
  -30.4550  -19.1430   20.0560 C   0  0  0  0  0  3  0  0  0  0  0  0
  -29.7000  -17.9070   20.7450 C   0  0  0  0  0  3  0  0  0  0  0  0
  -29.4440  -20.1680   20.6300 N   0  0  1  0  0  4  0  0  0  0  0  0
  -29.6670  -20.2490   21.6110 H   0  0  0  0  0  0  0  0  0  0  0  0
  -30.4660  -15.1390   20.2440 C   0  0  0  0  0  0  0  0  0  0  0  0
  -30.4060  -12.7630   19.2770 C   0  0  0  0  0  2  0  0  0  0  0  0
  -29.4500  -12.6410   18.0650 C   0  0  0  0  0  2  0  0  0  0  0  0
  -28.0010  -12.3920   18.5270 C   0  0  0  0  0  2  0  0  0  0  0  0
  -27.5870  -13.3200   19.6980 C   0  0  0  0  0  3  0  0  0  0  0  0
  -28.6620  -13.3840   20.8010 C   0  0  0  0  0  2  0  0  0  0  0  0
  -29.8950  -13.8600   20.1550 N   0  0  0  0  0  0  0  0  0  0  0  0
  -31.6870  -15.1990   20.0610 O   0  0  0  0  0  0  0  0  0  0  0  0
  -29.6440  -16.3300   20.3230 N   0  0  0  0  0  0  0  0  0  0  0  0
  -28.6820  -16.0400   20.2490 H   0  0  0  0  0  0  0  0  0  0  0  0
  -25.2150  -13.8660   20.4810 C   0  0  0  0  0  0  0  0  0  0  0  0
  -24.1660  -13.0780   20.8610 C   0  0  0  0  0  0  0  0  0  0  0  0
  -24.6440  -11.7320   20.8170 C   0  0  0  0  0  0  0  0  0  0  0  0
  -26.2650  -13.0010   20.2210 N   0  0  0  0  0  0  0  0  0  0  0  0
  -25.9320  -11.7110   20.4930 N   0  0  0  0  0  0  0  0  0  0  0  0
  -23.9310  -10.4620   21.0090 C   0  0  0  0  0  0  0  0  0  0  0  0
  -24.3750   -9.4990   21.9410 C   0  0  0  0  0  3  0  0  0  0  0  0
  -23.6600   -8.2950   22.1210 C   0  0  0  0  0  3  0  0  0  0  0  0
  -22.4870   -8.0470   21.3700 C   0  0  0  0  0  0  0  0  0  0  0  0
  -22.0630   -8.9980   20.4250 C   0  0  0  0  0  3  0  0  0  0  0  0
  -22.7780  -10.1940   20.2430 C   0  0  0  0  0  3  0  0  0  0  0  0
  -21.7430   -6.8940   21.4590 O   0  0  0  0  0  0  0  0  0  0  0  0
  -21.6960   -6.1560   22.6150 C   0  0  0  0  0  0  0  0  0  0  0  0
  -21.2400   -6.7060   23.8320 C   0  0  0  0  0  3  0  0  0  0  0  0
  -21.1420   -5.8930   24.9800 C   0  0  0  0  0  3  0  0  0  0  0  0
  -21.4910   -4.5310   24.9100 C   0  0  0  0  0  0  0  0  0  0  0  0
  -21.9410   -3.9800   23.6970 C   0  0  0  0  0  3  0  0  0  0  0  0
  -22.0410   -4.7910   22.5520 C   0  0  0  0  0  0  0  0  0  0  0  0
  -22.4540   -4.2510   21.3800 F   0  0  0  0  0  0  0  0  0  0  0  0
  -21.3900   -3.7480   26.0090 F   0  0  0  0  0  0  0  0  0  0  0  0
  -22.7670  -13.5400   21.1470 C   0  0  0  0  0  0  0  0  0  0  0  0
  -22.0540  -12.8320   22.0140 N   0  0  0  0  0  0  0  0  0  0  0  0
  -22.3140  -14.5640   20.6340 O   0  0  0  0  0  0  0  0  0  0  0  0
  -22.4330  -12.0030   22.4480 H   0  0  0  0  0  0  0  0  0  0  0  0
  -21.1160  -13.1220   22.2520 H   0  0  0  0  0  0  0  0  0  0  0  0
  -25.3590  -15.2400   20.3050 N   0  0  0  0  0  0  0  0  0  0  0  0
  -24.5760  -15.8730   20.4180 H   0  0  0  0  0  0  0  0  0  0  0  0
  -26.1720  -15.6870   19.9070 H   0  0  0  0  0  0  0  0  0  0  0  0
  -31.8410  -19.4540   20.5640 C   0  0  0  0  0  0  0  0  0  0  0  0
  -32.9480  -18.5470   20.0440 C   0  0  0  0  0  1  0  0  0  0  0  0
  -32.1450  -20.3630   21.3450 O   0  0  0  0  0  0  0  0  0  0  0  0
  -29.3200  -21.6860   20.0360 C   0  0  0  0  0  2  0  0  0  0  0  0
  -28.2180  -22.9720   20.4220 C   0  0  0  0  0  2  0  0  0  0  0  0
  -28.3750  -24.6620   20.8520 C   0  0  0  0  0  2  0  0  0  0  0  0
  -28.3040  -26.1150   20.2030 O   0  0  0  0  0  0  0  0  0  0  0  0
  -24.6080  -31.8930   23.2080 C   0  0  0  0  0  0  0  0  0  0  0  0
  -27.2230  -27.0930   20.2670 C   0  0  0  0  0  0  0  0  0  0  0  0
  -23.4280  -30.4770   21.5740 C   0  0  0  0  0  3  0  0  0  0  0  0
  -24.8920  -28.8720   20.1880 C   0  0  0  0  0  0  0  0  0  0  0  0
  -25.9860  -30.7320   21.4300 C   0  0  0  0  0  2  0  0  0  0  0  0
  -26.0690  -29.3220   20.8000 C   0  0  0  0  0  0  0  0  0  0  0  0
  -27.2360  -28.4520   20.8110 C   0  0  0  0  0  3  0  0  0  0  0  0
  -26.0130  -26.7550   19.6270 C   0  0  0  0  0  3  0  0  0  0  0  0
  -24.8790  -27.6020   19.5870 C   0  0  0  0  0  3  0  0  0  0  0  0
  -23.6650  -29.7770   20.2080 C   0  0  0  0  0  2  0  0  0  0  0  0
  -24.6940  -31.0590   22.1250 N   0  0  0  0  0  0  0  0  0  0  0  0
  -23.5160  -32.1790   23.7260 O   0  0  0  0  0  0  0  0  0  0  0  0
  -22.7400  -29.4820   22.5450 C   0  0  0  0  0  0  0  0  0  0  0  0
  -21.4100  -29.3120   22.4160 N   0  0  0  0  0  0  0  0  0  0  0  0
  -23.4060  -28.8620   23.3770 O   0  0  0  0  0  0  0  0  0  0  0  0
  -20.9270  -29.8640   21.7210 H   0  0  0  0  0  0  0  0  0  0  0  0
  -18.0250  -28.1210   22.9260 C   0  0  0  0  0  0  0  0  0  0  0  0
  -20.5860  -28.3820   23.1920 C   0  0  0  0  0  3  0  0  0  0  0  0
  -20.6860  -26.9460   22.6260 C   0  0  0  0  0  2  0  0  0  0  0  0
  -19.5840  -26.6210   21.6130 C   0  0  0  0  0  2  0  0  0  0  0  0
  -18.2000  -26.7710   22.2540 C   0  0  0  0  0  2  0  0  0  0  0  0
  -19.1460  -28.8850   23.3530 C   0  0  0  0  0  0  0  0  0  0  0  0
  -18.9270  -30.1490   23.9420 C   0  0  0  0  0  3  0  0  0  0  0  0
  -17.6210  -30.6500   24.1100 C   0  0  0  0  0  3  0  0  0  0  0  0
  -16.5170  -29.8830   23.6990 C   0  0  0  0  0  3  0  0  0  0  0  0
  -16.7190  -28.6200   23.1140 C   0  0  0  0  0  3  0  0  0  0  0  0
  -25.8760  -32.5430   23.8410 C   0  0  0  0  0  3  0  0  0  0  0  0
  -26.3760  -31.7920   25.1350 C   0  0  1  0  0  0  0  0  0  0  0  0
  -25.2690  -31.5740   26.1930 C   0  0  0  0  0  1  0  0  0  0  0  0
  -26.9640  -30.4090   24.7770 C   0  0  0  0  0  1  0  0  0  0  0  0
  -27.5180  -32.5970   25.7990 C   0  0  0  0  0  1  0  0  0  0  0  0
  -25.5570  -33.9450   24.1570 N   0  0  0  0  0  0  0  0  0  0  0  0
  -25.8950  -34.9980   23.4000 C   0  0  0  0  0  0  0  0  0  0  0  0
  -26.5740  -34.8910   22.3760 O   0  0  0  0  0  0  0  0  0  0  0  0
  -24.9570  -34.1030   24.9540 H   0  0  0  0  0  0  0  0  0  0  0  0
  -24.1750  -36.7950   23.0160 C   0  0  0  0  0  1  0  0  0  0  0  0
  -25.4020  -36.3890   23.8480 C   0  0  0  0  0  3  0  0  0  0  0  0
  -27.5240  -37.2740   24.7160 C   0  0  0  0  0  1  0  0  0  0  0  0
  -26.4390  -37.4410   23.7520 N   0  0  0  0  0  0  0  0  0  0  0  0
  -26.0300  -38.3610   23.8910 H   0  0  0  0  0  0  0  0  0  0  0  0
  1  4  1  0
  1  3  1  0
  2 44  1  0
  2  4  1  0
  2  3  1  0
  3 14  1  0
  4  5  1  1
  6 14  1  0
  7 12  1  0
  8  9  1  0
  8  7  1  0
 10  9  1  0
 10 19  1  0
 10 11  1  0
 12  6  1  0
 12 11  1  0
 13  6  2  0
 15 14  1  0
 16 17  2  0
 17 36  1  0
 18 17  1  0
 18 21  1  0
 19 16  1  0
 19 20  1  0
 20 18  2  0
 21 22  1  0
 22 23  2  0
 24 27  1  0
 24 23  1  0
 25 24  2  0
 26 25  1  0
 26 21  2  0
 27 28  1  0
 28 29  1  0
 29 30  2  0
 31 30  1  0
 31 35  1  0
 32 31  2  0
 33 28  2  0
 33 32  1  0
 34 33  1  0
 36 37  1  0
 37 40  1  0
 37 39  1  0
 38 36  2  0
 41 42  1  0
 41 16  1  0
 43 41  1  0
 44 46  2  0
 45 44  1  0
 47 48  1  0
 47  4  1  0
 48 49  1  0
 50 52  1  0
 50 49  1  0
 51 62  2  0
 52 57  1  0
 53 61  1  0
 53 63  1  0
 54 60  1  0
 54 56  1  0
 55 61  1  0
 56 57  2  0
 56 55  1  0
 58 52  2  0
 59 58  1  0
 59 54  2  0
 60 53  1  0
 61 51  1  0
 63 65  2  0
 64 63  1  0
 66 64  1  0
 67 76  2  0
 67 72  1  0
 68 64  1  0
 68 72  1  0
 69 68  1  0
 70 71  1  0
 70 69  1  0
 71 67  1  0
 72 73  2  0
 73 74  1  0
 75 74  2  0
 76 75  1  0
 77 51  1  0
 77 82  1  0
 77 78  1  0
 78 81  1  1
 78 79  1  0
 80 78  1  0
 82 85  1  0
 83 87  1  0
 83 82  1  0
 84 83  2  0
 87 86  1  0
 89 87  1  0
 89 90  1  0
 89 88  1  0
M  ISO  4   6 100  14 100  49 101  50 101
M  END
>  <TORSDO>  (13) 
F 20

>  <SCORE>  (13) 
-15.190

>  <name>  (13) 
12

>  <ligand_id>  (13) 
12

>  <original_smiles>  (13) 
[H]c1c([H])c([H])c2c(c1[H])C([H])([H])C([H])([H])C([H])([H])C2([H])N([H])C(=O)C1([H])N(C(=O)C([H])(N([H])C(=O)C([H])(N([H])C([H])([H])[H])C([H])([H])[H])C(C([H])([H])[H])(C([H])([H])[H])C([H])([H])[H])C([H])([H])c2c([H])c(OC([H])([H])C([H])([H])C([H])([H])[N+]3([H])C([H])([H])C([H])(N([H])C(=O)N4C([H])([H])C([H])([H])C([H])([H])C([H])(n5nc(-c6c([H])c([H])c(Oc7c([H])c([H])c(F)c([H])c7F)c([H])c6[H])c(C(=O)N([H])[H])c5N([H])[H])C4([H])[H])C3([H])C(=O)C([H])([H])[H])c([H])c([H])c2C1([H])[H]

>  <smiles>  (13) 
[H]c1c([H])c([H])c2c(c1[H])C([H])([H])C([H])([H])C([H])([H])C2([H])N([H])C(=O)C1([H])N(C(=O)C([H])(N([H])C(=O)C([H])(N([H])C([H])([H])[H])C([H])([H])[H])C(C([H])([H])[H])(C([H])([H])[H])C([H])([H])[H])C([H])([H])c2c([H])c(OC([H])([H])C([H])([H])C([H])([H])[N+]3([H])C([H])([H])C([H])(N([H])C(=O)N4C([H])([H])C([H])([H])C([H])([H])C([H])(n5nc(-c6c([H])c([H])c(Oc7c([H])c([H])c(F)c([H])c7F)c([H])c6[H])c(C(=O)N([H])[H])c5N([H])[H])C4([H])[H])C3([H])C(=O)C([H])([H])[H])c([H])c([H])c2C1([H])[H]

$$$$
13:0:0
     RDKit          3D

 92101  0  0  1  0  0  0  0  0999 V2000
  -31.9550  -20.8260   19.6510 C   0  0  0  0  0  2  0  0  0  0  0  0
  -31.7460  -19.6060   20.1560 C   0  0  0  0  0  2  0  0  0  0  0  0
  -29.8730  -20.1250   18.8800 C   0  0  0  0  0  2  0  0  0  0  0  0
  -29.5900  -20.3860   21.1510 C   0  0  0  0  0  2  0  0  0  0  0  0
  -30.6040  -21.4120   19.3020 C   0  0  0  0  0  3  0  0  0  0  0  0
  -30.2460  -19.3630   20.1610 C   0  0  2  0  0  0  0  0  0  0  0  0
  -29.9630  -21.7420   20.6020 N   0  0  1  0  0  4  0  0  0  0  0  0
  -30.6790  -22.1250   21.2020 H   0  0  0  0  0  0  0  0  0  0  0  0
  -29.8030  -17.8590   20.1660 C   0  0  0  0  0  2  0  0  0  0  0  0
  -30.4330  -16.9130   21.2310 C   0  0  0  0  0  2  0  0  0  0  0  0
  -30.6810  -14.4940   20.5160 C   0  0  0  0  0  0  0  0  0  0  0  0
  -30.3840  -12.3350   19.3520 C   0  0  0  0  0  2  0  0  0  0  0  0
  -29.4460  -12.5350   18.1430 C   0  0  0  0  0  2  0  0  0  0  0  0
  -27.9710  -12.3960   18.5650 C   0  0  0  0  0  2  0  0  0  0  0  0
  -27.6280  -13.2350   19.8260 C   0  0  0  0  0  3  0  0  0  0  0  0
  -28.6770  -13.0140   20.9400 C   0  0  0  0  0  2  0  0  0  0  0  0
  -30.0030  -13.3200   20.3790 N   0  0  0  0  0  0  0  0  0  0  0  0
  -31.8020  -14.6770   20.0370 O   0  0  0  0  0  0  0  0  0  0  0  0
  -29.9970  -15.5060   21.0920 N   0  0  0  0  0  0  0  0  0  0  0  0
  -29.0800  -15.2730   21.4460 H   0  0  0  0  0  0  0  0  0  0  0  0
  -25.2220  -13.8430   20.5100 C   0  0  0  0  0  0  0  0  0  0  0  0
  -24.1520  -13.0730   20.8780 C   0  0  0  0  0  0  0  0  0  0  0  0
  -24.6150  -11.7220   20.8630 C   0  0  0  0  0  0  0  0  0  0  0  0
  -26.2710  -12.9620   20.2960 N   0  0  0  0  0  0  0  0  0  0  0  0
  -25.9080  -11.6810   20.5650 N   0  0  0  0  0  0  0  0  0  0  0  0
  -23.8880  -10.4600   21.0570 C   0  0  0  0  0  0  0  0  0  0  0  0
  -24.3280   -9.4910   21.9850 C   0  0  0  0  0  3  0  0  0  0  0  0
  -23.6030   -8.2930   22.1680 C   0  0  0  0  0  3  0  0  0  0  0  0
  -22.4230   -8.0570   21.4230 C   0  0  0  0  0  0  0  0  0  0  0  0
  -22.0020   -9.0150   20.4840 C   0  0  0  0  0  3  0  0  0  0  0  0
  -22.7280  -10.2050   20.2990 C   0  0  0  0  0  3  0  0  0  0  0  0
  -21.6680   -6.9130   21.5160 O   0  0  0  0  0  0  0  0  0  0  0  0
  -21.6420   -6.1590   22.6610 C   0  0  0  0  0  0  0  0  0  0  0  0
  -21.2520   -6.7050   23.9040 C   0  0  0  0  0  3  0  0  0  0  0  0
  -21.1720   -5.8770   25.0420 C   0  0  0  0  0  3  0  0  0  0  0  0
  -21.4730   -4.5050   24.9380 C   0  0  0  0  0  0  0  0  0  0  0  0
  -21.8560   -3.9590   23.7000 C   0  0  0  0  0  3  0  0  0  0  0  0
  -21.9370   -4.7840   22.5640 C   0  0  0  0  0  0  0  0  0  0  0  0
  -22.2860   -4.2490   21.3690 F   0  0  0  0  0  0  0  0  0  0  0  0
  -21.3890   -3.7080   26.0290 F   0  0  0  0  0  0  0  0  0  0  0  0
  -22.7510  -13.5500   21.1350 C   0  0  0  0  0  0  0  0  0  0  0  0
  -22.0180  -12.8630   22.0040 N   0  0  0  0  0  0  0  0  0  0  0  0
  -22.3170  -14.5710   20.6030 O   0  0  0  0  0  0  0  0  0  0  0  0
  -22.3830  -12.0380   22.4580 H   0  0  0  0  0  0  0  0  0  0  0  0
  -21.0790  -13.1660   22.2190 H   0  0  0  0  0  0  0  0  0  0  0  0
  -25.3890  -15.2120   20.3220 N   0  0  0  0  0  0  0  0  0  0  0  0
  -24.6230  -15.8690   20.4190 H   0  0  0  0  0  0  0  0  0  0  0  0
  -26.2430  -15.6460   19.9940 H   0  0  0  0  0  0  0  0  0  0  0  0
  -28.8600  -22.7510   20.5190 C   0  0  0  0  0  2  0  0  0  0  0  0
  -29.3210  -24.2420   20.4030 C   0  0  0  0  0  2  0  0  0  0  0  0
  -28.1410  -25.1880   20.0490 C   0  0  0  0  0  2  0  0  0  0  0  0
  -28.3570  -26.6150   20.1940 O   0  0  0  0  0  0  0  0  0  0  0  0
  -24.6170  -31.9040   23.2380 C   0  0  0  0  0  0  0  0  0  0  0  0
  -27.2110  -27.4030   20.1580 C   0  0  0  0  0  0  0  0  0  0  0  0
  -23.3980  -30.5080   21.6040 C   0  0  0  0  0  3  0  0  0  0  0  0
  -24.8360  -28.9640   20.1750 C   0  0  0  0  0  0  0  0  0  0  0  0
  -25.9310  -30.8380   21.4010 C   0  0  0  0  0  2  0  0  0  0  0  0
  -26.0040  -29.4650   20.7600 C   0  0  0  0  0  0  0  0  0  0  0  0
  -27.1970  -28.6960   20.7450 C   0  0  0  0  0  3  0  0  0  0  0  0
  -26.0150  -26.9360   19.5580 C   0  0  0  0  0  3  0  0  0  0  0  0
  -24.8380  -27.6990   19.5690 C   0  0  0  0  0  3  0  0  0  0  0  0
  -23.5990  -29.8310   20.2240 C   0  0  0  0  0  2  0  0  0  0  0  0
  -24.6680  -31.0990   22.1390 N   0  0  0  0  0  0  0  0  0  0  0  0
  -23.5390  -32.1840   23.7790 O   0  0  0  0  0  0  0  0  0  0  0  0
  -22.7430  -29.4910   22.5670 C   0  0  0  0  0  0  0  0  0  0  0  0
  -21.4160  -29.3170   22.4440 N   0  0  0  0  0  0  0  0  0  0  0  0
  -23.4240  -28.8630   23.3810 O   0  0  0  0  0  0  0  0  0  0  0  0
  -20.9280  -29.8770   21.7600 H   0  0  0  0  0  0  0  0  0  0  0  0
  -18.0350  -28.1420   22.9490 C   0  0  0  0  0  0  0  0  0  0  0  0
  -20.5940  -28.3860   23.2180 C   0  0  0  0  0  3  0  0  0  0  0  0
  -20.6880  -26.9530   22.6460 C   0  0  0  0  0  2  0  0  0  0  0  0
  -19.5840  -26.6320   21.6340 C   0  0  0  0  0  2  0  0  0  0  0  0
  -18.2030  -26.7890   22.2790 C   0  0  0  0  0  2  0  0  0  0  0  0
  -19.1590  -28.8990   23.3760 C   0  0  0  0  0  0  0  0  0  0  0  0
  -18.9470  -30.1660   23.9610 C   0  0  0  0  0  3  0  0  0  0  0  0
  -17.6470  -30.6760   24.1250 C   0  0  0  0  0  3  0  0  0  0  0  0
  -16.5370  -29.9160   23.7160 C   0  0  0  0  0  3  0  0  0  0  0  0
  -16.7330  -28.6510   23.1340 C   0  0  0  0  0  3  0  0  0  0  0  0
  -25.9090  -32.5280   23.8530 C   0  0  0  0  0  3  0  0  0  0  0  0
  -25.6040  -33.9240   24.1930 N   0  0  0  0  0  0  0  0  0  0  0  0
  -25.9240  -34.9790   23.4320 C   0  0  0  0  0  0  0  0  0  0  0  0
  -26.5770  -34.8800   22.3900 O   0  0  0  0  0  0  0  0  0  0  0  0
  -25.0240  -34.0760   25.0050 H   0  0  0  0  0  0  0  0  0  0  0  0
  -24.1850  -36.7680   23.1150 C   0  0  0  0  0  1  0  0  0  0  0  0
  -25.4420  -36.3650   23.9020 C   0  0  0  0  0  3  0  0  0  0  0  0
  -27.5910  -37.2510   24.6910 C   0  0  0  0  0  1  0  0  0  0  0  0
  -26.4690  -37.4210   23.7720 N   0  0  0  0  0  0  0  0  0  0  0  0
  -26.0640  -38.3400   23.9330 H   0  0  0  0  0  0  0  0  0  0  0  0
  -26.4350  -31.7470   25.1190 C   0  0  1  0  0  0  0  0  0  0  0  0
  -25.3520  -31.5030   26.1960 C   0  0  0  0  0  1  0  0  0  0  0  0
  -27.0110  -30.3710   24.7100 C   0  0  0  0  0  1  0  0  0  0  0  0
  -27.5950  -32.5330   25.7750 C   0  0  0  0  0  1  0  0  0  0  0  0
  1  2  1  0
  2  6  1  0
  3  6  1  0
  5  3  1  0
  5  1  1  0
  5  7  1  0
  6  9  1  6
  6  4  1  0
  7  4  1  0
  7  8  1  1
  9 10  1  0
 11 19  1  0
 12 17  1  0
 13 14  1  0
 13 12  1  0
 15 14  1  0
 15 24  1  0
 15 16  1  0
 17 11  1  0
 17 16  1  0
 18 11  2  0
 19 10  1  0
 19 20  1  0
 21 22  2  0
 22 41  1  0
 23 22  1  0
 23 26  1  0
 24 21  1  0
 24 25  1  0
 25 23  2  0
 26 27  1  0
 27 28  2  0
 29 32  1  0
 29 28  1  0
 30 29  2  0
 31 30  1  0
 31 26  2  0
 32 33  1  0
 33 34  1  0
 34 35  2  0
 36 35  1  0
 36 40  1  0
 37 36  2  0
 38 33  2  0
 38 37  1  0
 39 38  1  0
 41 42  1  0
 42 45  1  0
 42 44  1  0
 43 41  2  0
 46 47  1  0
 46 21  1  0
 48 46  1  0
 49  7  1  0
 50 49  1  0
 51 52  1  0
 51 50  1  0
 53 64  2  0
 54 52  1  0
 54 59  1  0
 55 63  1  0
 55 65  1  0
 56 62  1  0
 56 58  1  0
 57 63  1  0
 58 57  1  0
 59 58  2  0
 60 61  1  0
 60 54  2  0
 61 56  2  0
 62 55  1  0
 63 53  1  0
 65 67  2  0
 66 65  1  0
 68 66  1  0
 69 78  2  0
 69 74  1  0
 70 66  1  0
 70 74  1  0
 71 70  1  0
 72 73  1  0
 72 71  1  0
 73 69  1  0
 74 75  2  0
 75 76  1  0
 77 76  2  0
 78 77  1  0
 79 53  1  0
 79 80  1  0
 79 89  1  0
 80 83  1  0
 81 85  1  0
 81 80  1  0
 82 81  2  0
 85 84  1  0
 87 85  1  0
 87 88  1  0
 87 86  1  0
 89 92  1  1
 89 90  1  0
 91 89  1  0
M  ISO  4  11 100  19 100  51 101  52 101
M  END
>  <TORSDO>  (14) 
F 21

>  <SCORE>  (14) 
-13.586

>  <name>  (14) 
13

>  <ligand_id>  (14) 
13

>  <original_smiles>  (14) 
[H]C1=C([H])C2([H])C([H])([H])C1(C([H])([H])C([H])([H])N([H])C(=O)N1C([H])([H])C([H])([H])C([H])([H])C([H])(n3nc(-c4c([H])c([H])c(Oc5c([H])c([H])c(F)c([H])c5F)c([H])c4[H])c(C(=O)N([H])[H])c3N([H])[H])C1([H])[H])C([H])([H])[N+]2([H])C([H])([H])C([H])([H])C([H])([H])Oc1c([H])c([H])c2c(c1[H])C([H])([H])N(C(=O)C([H])(N([H])C(=O)C([H])(N([H])C([H])([H])[H])C([H])([H])[H])C(C([H])([H])[H])(C([H])([H])[H])C([H])([H])[H])C([H])(C(=O)N([H])C1([H])c3c([H])c([H])c([H])c([H])c3C([H])([H])C([H])([H])C1([H])[H])C2([H])[H]

>  <smiles>  (14) 
[H]C1=C([H])C2([H])C([H])([H])C1(C([H])([H])C([H])([H])N([H])C(=O)N1C([H])([H])C([H])([H])C([H])([H])C([H])(n3nc(-c4c([H])c([H])c(Oc5c([H])c([H])c(F)c([H])c5F)c([H])c4[H])c(C(=O)N([H])[H])c3N([H])[H])C1([H])[H])C([H])([H])[N+]2([H])C([H])([H])C([H])([H])C([H])([H])Oc1c([H])c([H])c2c(c1[H])C([H])([H])N(C(=O)C([H])(N([H])C(=O)C([H])(N([H])C([H])([H])[H])C([H])([H])[H])C(C([H])([H])[H])(C([H])([H])[H])C([H])([H])[H])C([H])(C(=O)N([H])C1([H])c3c([H])c([H])c([H])c([H])c3C([H])([H])C([H])([H])C1([H])[H])C2([H])[H]

$$$$
14:0:0
     RDKit          3D

101110  0  0  1  0  0  0  0  0999 V2000
  -29.6760  -20.5790   21.3800 C   0  0  0  0  0  2  0  0  0  0  0  0
  -31.4910  -22.0410   21.7280 C   0  0  0  0  0  2  0  0  0  0  0  0
  -30.9810  -19.7260   21.3580 C   0  0  0  0  0  3  0  0  0  0  0  0
  -31.9120  -20.6270   22.1800 C   0  0  0  0  0  3  0  0  0  0  0  0
  -30.0260  -21.9870   21.6940 N   0  0  0  0  0  0  0  0  0  0  0  0
  -33.3430  -20.3520   21.9470 N   0  0  0  0  0  4  0  0  0  0  0  0
  -33.5780  -20.3680   20.9730 H   0  0  0  0  0  0  0  0  0  0  0  0
  -33.6060  -19.4570   22.3190 H   0  0  0  0  0  0  0  0  0  0  0  0
  -33.9080  -21.0430   22.4120 H   0  0  0  0  0  0  0  0  0  0  0  0
  -30.8940  -18.2200   21.8570 C   0  0  0  0  0  3  0  0  0  0  0  0
  -30.0740  -17.1510   21.0710 C   0  0  0  0  0  0  0  0  0  0  0  0
  -29.9860  -15.9330   21.5200 N   0  0  0  0  0  2  0  0  0  0  0  0
  -30.8380  -14.9310   21.0100 C   0  0  0  0  0  0  0  0  0  0  0  0
  -30.6550  -12.9120   19.5850 C   0  0  0  0  0  2  0  0  0  0  0  0
  -29.7680  -13.2860   18.3780 C   0  0  0  0  0  2  0  0  0  0  0  0
  -28.2700  -13.0990   18.7000 C   0  0  0  0  0  2  0  0  0  0  0  0
  -27.8730  -13.7240   20.0650 C   0  0  0  0  0  3  0  0  0  0  0  0
  -28.8780  -13.3410   21.1680 C   0  0  0  0  0  2  0  0  0  0  0  0
  -30.2220  -13.7450   20.7190 N   0  0  0  0  0  0  0  0  0  0  0  0
  -32.0100  -15.1160   20.6660 O   0  0  0  0  0  0  0  0  0  0  0  0
  -25.4190  -14.2520   20.6370 C   0  0  0  0  0  0  0  0  0  0  0  0
  -24.3450  -13.4470   20.8840 C   0  0  0  0  0  0  0  0  0  0  0  0
  -24.8430  -12.1100   20.8440 C   0  0  0  0  0  0  0  0  0  0  0  0
  -26.4990  -13.4040   20.4410 N   0  0  0  0  0  0  0  0  0  0  0  0
  -26.1530  -12.1060   20.6300 N   0  0  0  0  0  0  0  0  0  0  0  0
  -24.1390  -10.8280   20.9510 C   0  0  0  0  0  0  0  0  0  0  0  0
  -24.5530   -9.8270   21.8590 C   0  0  0  0  0  3  0  0  0  0  0  0
  -23.8490   -8.6090   21.9480 C   0  0  0  0  0  3  0  0  0  0  0  0
  -22.7150   -8.3850   21.1330 C   0  0  0  0  0  0  0  0  0  0  0  0
  -22.3190   -9.3740   20.2130 C   0  0  0  0  0  3  0  0  0  0  0  0
  -23.0220  -10.5860   20.1230 C   0  0  0  0  0  3  0  0  0  0  0  0
  -21.9830   -7.2230   21.1340 O   0  0  0  0  0  0  0  0  0  0  0  0
  -21.8970   -6.4290   22.2490 C   0  0  0  0  0  0  0  0  0  0  0  0
  -21.3840   -6.9130   23.4720 C   0  0  0  0  0  3  0  0  0  0  0  0
  -21.2490   -6.0410   24.5710 C   0  0  0  0  0  3  0  0  0  0  0  0
  -21.6160   -4.6880   24.4460 C   0  0  0  0  0  0  0  0  0  0  0  0
  -22.1230   -4.2050   23.2280 C   0  0  0  0  0  3  0  0  0  0  0  0
  -22.2600   -5.0720   22.1310 C   0  0  0  0  0  0  0  0  0  0  0  0
  -22.7280   -4.5970   20.9510 F   0  0  0  0  0  0  0  0  0  0  0  0
  -21.4770   -3.8480   25.4980 F   0  0  0  0  0  0  0  0  0  0  0  0
  -22.9220  -13.8860   21.0750 C   0  0  0  0  0  0  0  0  0  0  0  0
  -22.1560  -13.1520   21.8730 N   0  0  0  0  0  0  0  0  0  0  0  0
  -22.4940  -14.9190   20.5570 O   0  0  0  0  0  0  0  0  0  0  0  0
  -22.5130  -12.3150   22.3110 H   0  0  0  0  0  0  0  0  0  0  0  0
  -21.2030  -13.4310   22.0520 H   0  0  0  0  0  0  0  0  0  0  0  0
  -25.5720  -15.6310   20.5670 N   0  0  0  0  0  0  0  0  0  0  0  0
  -24.8060  -16.1880   20.9190 H   0  0  0  0  0  0  0  0  0  0  0  0
  -26.4620  -15.9420   20.9340 H   0  0  0  0  0  0  0  0  0  0  0  0
  -29.4390  -16.8690   18.5430 C   0  0  0  0  0  0  0  0  0  0  0  0
  -27.9120  -16.6730   18.4360 C   0  0  0  0  0  2  0  0  0  0  0  0
  -29.2890  -17.6990   19.8440 C   0  0  0  0  0  3  0  0  0  0  0  0
  -27.7570  -17.4370   19.7770 C   0  0  0  0  0  3  0  0  0  0  0  0
  -30.3920  -16.5310   17.8440 O   0  0  0  0  0  0  0  0  0  0  0  0
  -26.9070  -18.6590   19.6610 N   0  0  0  0  0  4  0  0  0  0  0  0
  -27.1630  -19.2600   18.8990 H   0  0  0  0  0  0  0  0  0  0  0  0
  -26.9290  -19.2110   20.5030 H   0  0  0  0  0  0  0  0  0  0  0  0
  -25.9420  -18.4050   19.5170 H   0  0  0  0  0  0  0  0  0  0  0  0
  -29.3620  -22.9790   20.8120 C   0  0  0  0  0  2  0  0  0  0  0  0
  -29.4620  -24.5110   21.1490 C   0  0  0  0  0  2  0  0  0  0  0  0
  -28.5250  -25.3780   20.2260 C   0  0  0  0  0  2  0  0  0  0  0  0
  -28.5850  -26.8250   20.3770 O   0  0  0  0  0  0  0  0  0  0  0  0
  -24.6590  -31.9370   23.4490 C   0  0  0  0  0  0  0  0  0  0  0  0
  -27.4120  -27.5760   20.2920 C   0  0  0  0  0  0  0  0  0  0  0  0
  -23.5030  -30.5920   21.7200 C   0  0  0  0  0  3  0  0  0  0  0  0
  -25.0060  -29.1110   20.2700 C   0  0  0  0  0  0  0  0  0  0  0  0
  -26.0300  -30.9560   21.6060 C   0  0  0  0  0  2  0  0  0  0  0  0
  -26.1440  -29.6030   20.9240 C   0  0  0  0  0  0  0  0  0  0  0  0
  -27.3400  -28.8450   20.9280 C   0  0  0  0  0  3  0  0  0  0  0  0
  -26.2630  -27.1340   19.5910 C   0  0  0  0  0  3  0  0  0  0  0  0
  -25.0690  -27.8830   19.5850 C   0  0  0  0  0  3  0  0  0  0  0  0
  -23.7490  -29.9540   20.3230 C   0  0  0  0  0  2  0  0  0  0  0  0
  -24.7480  -31.1730   22.3190 N   0  0  0  0  0  0  0  0  0  0  0  0
  -23.5630  -32.1900   23.9670 O   0  0  0  0  0  0  0  0  0  0  0  0
  -22.8240  -29.5440   22.6310 C   0  0  0  0  0  0  0  0  0  0  0  0
  -21.5020  -29.3760   22.4650 N   0  0  0  0  0  0  0  0  0  0  0  0
  -23.4850  -28.8860   23.4390 O   0  0  0  0  0  0  0  0  0  0  0  0
  -21.0320  -29.9600   21.7870 H   0  0  0  0  0  0  0  0  0  0  0  0
  -18.1170  -28.1700   22.8380 C   0  0  0  0  0  0  0  0  0  0  0  0
  -20.6660  -28.4130   23.1790 C   0  0  0  0  0  3  0  0  0  0  0  0
  -20.7810  -27.0060   22.5520 C   0  0  0  0  0  2  0  0  0  0  0  0
  -19.7060  -26.7220   21.5000 C   0  0  0  0  0  2  0  0  0  0  0  0
  -18.3080  -26.8480   22.1120 C   0  0  0  0  0  2  0  0  0  0  0  0
  -19.2240  -28.9120   23.3250 C   0  0  0  0  0  0  0  0  0  0  0  0
  -18.9950  -30.1510   23.9610 C   0  0  0  0  0  3  0  0  0  0  0  0
  -17.6870  -30.6470   24.1190 C   0  0  0  0  0  3  0  0  0  0  0  0
  -16.5920  -29.9010   23.6480 C   0  0  0  0  0  3  0  0  0  0  0  0
  -16.8080  -28.6650   23.0130 C   0  0  0  0  0  3  0  0  0  0  0  0
  -25.9260  -32.5480   24.1250 C   0  0  0  0  0  3  0  0  0  0  0  0
  -26.3970  -31.7510   25.4040 C   0  0  1  0  0  0  0  0  0  0  0  0
  -25.2720  -31.5170   26.4390 C   0  0  0  0  0  1  0  0  0  0  0  0
  -26.9640  -30.3680   25.0050 C   0  0  0  0  0  1  0  0  0  0  0  0
  -27.5420  -32.5150   26.1080 C   0  0  0  0  0  1  0  0  0  0  0  0
  -25.6170  -33.9420   24.4690 N   0  0  0  0  0  0  0  0  0  0  0  0
  -26.0260  -35.0090   23.7700 C   0  0  0  0  0  0  0  0  0  0  0  0
  -26.7720  -34.9220   22.7910 O   0  0  0  0  0  0  0  0  0  0  0  0
  -24.9660  -34.0890   25.2270 H   0  0  0  0  0  0  0  0  0  0  0  0
  -24.3550  -36.8420   23.3410 C   0  0  0  0  0  1  0  0  0  0  0  0
  -25.5250  -36.3920   24.2290 C   0  0  0  0  0  3  0  0  0  0  0  0
  -27.6000  -37.2220   25.2460 C   0  0  0  0  0  1  0  0  0  0  0  0
  -26.5790  -37.4290   24.2240 N   0  0  0  0  0  0  0  0  0  0  0  0
  -26.1740  -38.3520   24.3650 H   0  0  0  0  0  0  0  0  0  0  0  0
  1  5  1  0
  2  4  1  0
  3  1  1  0
  3 10  1  0
  3  4  1  0
  4  6  1  0
  5  2  1  0
  6  8  1  0
  6  9  1  0
  7  6  1  0
 11 12  1  0
 11 10  2  0
 13 12  1  0
 14 19  1  0
 15 16  1  0
 15 14  1  0
 17 16  1  0
 17 24  1  0
 17 18  1  0
 19 13  1  0
 19 18  1  0
 20 13  2  0
 21 22  2  0
 22 41  1  0
 23 22  1  0
 23 26  1  0
 24 25  1  0
 24 21  1  0
 25 23  2  0
 26 27  1  0
 27 28  2  0
 29 32  1  0
 29 28  1  0
 30 29  2  0
 31 30  1  0
 31 26  2  0
 32 33  1  0
 33 34  1  0
 34 35  2  0
 36 35  1  0
 36 40  1  0
 37 36  2  0
 38 33  2  0
 38 37  1  0
 39 38  1  0
 41 42  1  0
 42 45  1  0
 42 44  1  0
 43 41  2  0
 46 21  1  0
 46 47  1  0
 46 48  1  0
 49 51  1  0
 50 49  1  0
 50 52  1  0
 51 11  1  0
 52 54  1  0
 52 51  1  0
 53 49  2  0
 54 56  1  0
 55 54  1  0
 57 54  1  0
 58 59  1  0
 58  5  1  0
 60 61  1  0
 60 59  1  0
 62 73  2  0
 63 61  1  0
 63 68  1  0
 64 72  1  0
 64 74  1  0
 65 71  1  0
 65 67  1  0
 66 72  1  0
 67 68  2  0
 67 66  1  0
 69 63  2  0
 70 69  1  0
 70 65  2  0
 71 64  1  0
 72 62  1  0
 74 76  2  0
 75 74  1  0
 77 75  1  0
 78 87  2  0
 78 83  1  0
 79 75  1  0
 79 83  1  0
 80 79  1  0
 81 82  1  0
 81 80  1  0
 82 78  1  0
 83 84  2  0
 84 85  1  0
 86 85  2  0
 87 86  1  0
 88 62  1  0
 88 93  1  0
 88 89  1  0
 89 92  1  1
 89 90  1  0
 91 89  1  0
 93 96  1  0
 94 98  1  0
 94 93  1  0
 95 94  2  0
 98 97  1  0
100 98  1  0
100101  1  0
100 99  1  0
M  ISO  4  12 100  13 100  60 101  61 101
M  END
>  <TORSDO>  (15) 
F 24

>  <SCORE>  (15) 
-12.352

>  <name>  (15) 
14

>  <ligand_id>  (15) 
14

>  <original_smiles>  (15) 
[H]c1c([H])c([H])c2c(c1[H])C([H])([H])C([H])([H])C([H])([H])C2([H])N([H])C(=O)C1([H])N(C(=O)C([H])(N([H])C(=O)C([H])(N([H])C([H])([H])[H])C([H])([H])[H])C(C([H])([H])[H])(C([H])([H])[H])C([H])([H])[H])C([H])([H])c2c([H])c(OC([H])([H])C([H])([H])C([H])([H])N3C([H])([H])C([H])(C([H])([H])C(=NC(=O)N4C([H])([H])C([H])([H])C([H])([H])C([H])(n5nc(-c6c([H])c([H])c(Oc7c([H])c([H])c(F)c([H])c7F)c([H])c6[H])c(C(=O)N([H])[H])c5N([H])[H])C4([H])[H])C4([H])C(=O)C([H])([H])C4([H])[N+]([H])([H])[H])C([H])([N+]([H])([H])[H])C3([H])[H])c([H])c([H])c2C1([H])[H]

>  <smiles>  (15) 
[H]c1c([H])c([H])c2c(c1[H])C([H])([H])C([H])([H])C([H])([H])C2([H])N([H])C(=O)C1([H])N(C(=O)C([H])(N([H])C(=O)C([H])(N([H])C([H])([H])[H])C([H])([H])[H])C(C([H])([H])[H])(C([H])([H])[H])C([H])([H])[H])C([H])([H])c2c([H])c(OC([H])([H])C([H])([H])C([H])([H])N3C([H])([H])C([H])(C([H])([H])C(=NC(=O)N4C([H])([H])C([H])([H])C([H])([H])C([H])(n5nc(-c6c([H])c([H])c(Oc7c([H])c([H])c(F)c([H])c7F)c([H])c6[H])c(C(=O)N([H])[H])c5N([H])[H])C4([H])[H])C4([H])C(=O)C([H])([H])C4([H])[N+]([H])([H])[H])C([H])([N+]([H])([H])[H])C3([H])[H])c([H])c([H])c2C1([H])[H]

$$$$
15:0:0
     RDKit          3D

 94102  0  0  1  0  0  0  0  0999 V2000
  -28.3570  -23.3210   21.7800 C   0  0  0  0  0  3  0  0  0  0  0  0
  -29.0880  -22.9890   19.5120 C   0  0  0  0  0  3  0  0  0  0  0  0
  -28.2500  -24.7210   21.5600 C   0  0  0  0  0  3  0  0  0  0  0  0
  -29.0020  -24.3990   19.2950 C   0  0  0  0  0  3  0  0  0  0  0  0
  -28.7840  -22.4130   20.7730 C   0  0  0  0  0  0  0  0  0  0  0  0
  -28.5740  -25.2940   20.3110 C   0  0  0  0  0  0  0  0  0  0  0  0
  -28.5730  -26.6810   20.1180 O   0  0  0  0  0  0  0  0  0  0  0  0
  -24.6930  -31.8700   23.2250 C   0  0  0  0  0  0  0  0  0  0  0  0
  -27.3960  -27.4230   20.1630 C   0  0  0  0  0  0  0  0  0  0  0  0
  -23.5070  -30.4440   21.5910 C   0  0  0  0  0  3  0  0  0  0  0  0
  -24.9840  -28.9240   20.1620 C   0  0  0  0  0  0  0  0  0  0  0  0
  -26.0260  -30.8400   21.3760 C   0  0  0  0  0  2  0  0  0  0  0  0
  -26.1370  -29.4620   20.7500 C   0  0  0  0  0  0  0  0  0  0  0  0
  -27.3480  -28.7180   20.7490 C   0  0  0  0  0  3  0  0  0  0  0  0
  -26.2250  -26.9140   19.5650 C   0  0  0  0  0  3  0  0  0  0  0  0
  -25.0230  -27.6510   19.5670 C   0  0  0  0  0  3  0  0  0  0  0  0
  -23.7310  -29.7760   20.2050 C   0  0  0  0  0  2  0  0  0  0  0  0
  -24.7620  -31.0660   22.1260 N   0  0  0  0  0  0  0  0  0  0  0  0
  -23.6090  -32.1190   23.7710 O   0  0  0  0  0  0  0  0  0  0  0  0
  -22.8810  -29.4080   22.5520 C   0  0  0  0  0  0  0  0  0  0  0  0
  -21.5590  -29.2030   22.4360 N   0  0  0  0  0  0  0  0  0  0  0  0
  -23.5830  -28.7960   23.3610 O   0  0  0  0  0  0  0  0  0  0  0  0
  -21.0490  -29.7600   21.7650 H   0  0  0  0  0  0  0  0  0  0  0  0
  -18.2190  -27.9180   22.9400 C   0  0  0  0  0  0  0  0  0  0  0  0
  -20.7680  -28.2500   23.2130 C   0  0  0  0  0  3  0  0  0  0  0  0
  -20.9120  -26.8160   22.6550 C   0  0  0  0  0  2  0  0  0  0  0  0
  -19.8210  -26.4520   21.6410 C   0  0  0  0  0  2  0  0  0  0  0  0
  -18.4350  -26.5670   22.2810 C   0  0  0  0  0  2  0  0  0  0  0  0
  -19.3150  -28.7130   23.3670 C   0  0  0  0  0  0  0  0  0  0  0  0
  -19.0610  -29.9750   23.9450 C   0  0  0  0  0  3  0  0  0  0  0  0
  -17.7440  -30.4460   24.0970 C   0  0  0  0  0  3  0  0  0  0  0  0
  -16.6620  -29.6480   23.6850 C   0  0  0  0  0  3  0  0  0  0  0  0
  -16.9010  -28.3850   23.1150 C   0  0  0  0  0  3  0  0  0  0  0  0
  -25.9670  -32.5320   23.8350 C   0  0  0  0  0  3  0  0  0  0  0  0
  -25.6320  -33.9240   24.1650 N   0  0  0  0  0  0  0  0  0  0  0  0
  -25.9460  -34.9810   23.4050 C   0  0  0  0  0  0  0  0  0  0  0  0
  -26.6210  -34.8900   22.3740 O   0  0  0  0  0  0  0  0  0  0  0  0
  -25.0370  -34.0670   24.9670 H   0  0  0  0  0  0  0  0  0  0  0  0
  -24.1870  -36.7400   23.0390 C   0  0  0  0  0  1  0  0  0  0  0  0
  -25.4300  -36.3600   23.8600 C   0  0  0  0  0  3  0  0  0  0  0  0
  -27.5400  -37.2790   24.7110 C   0  0  0  0  0  1  0  0  0  0  0  0
  -26.4450  -37.4330   23.7580 N   0  0  0  0  0  0  0  0  0  0  0  0
  -26.0180  -38.3430   23.9110 H   0  0  0  0  0  0  0  0  0  0  0  0
  -26.5110  -31.7760   25.1080 C   0  0  1  0  0  0  0  0  0  0  0  0
  -25.4310  -31.5140   26.1820 C   0  0  0  0  0  1  0  0  0  0  0  0
  -27.1240  -30.4170   24.7040 C   0  0  0  0  0  1  0  0  0  0  0  0
  -27.6450  -32.5970   25.7660 C   0  0  0  0  0  1  0  0  0  0  0  0
  -28.8000  -20.8770   21.1150 C   0  0  0  0  0  2  0  0  0  0  0  0
  -30.9930  -20.3320   19.8170 C   0  0  0  0  0  1  0  0  0  0  0  0
  -29.6490  -19.7740   20.3340 C   0  0  0  0  0  3  0  0  0  0  0  0
  -29.7800  -18.3310   21.0460 C   0  0  0  0  0  3  0  0  0  0  0  0
  -30.4540  -18.4270   22.3630 N   0  0  0  0  0  4  0  0  0  0  0  0
  -31.3830  -18.7990   22.2730 H   0  0  0  0  0  0  0  0  0  0  0  0
  -30.5290  -17.5170   22.7800 H   0  0  0  0  0  0  0  0  0  0  0  0
  -29.9430  -19.0010   23.0120 H   0  0  0  0  0  0  0  0  0  0  0  0
  -30.4590  -17.1760   20.1790 C   0  0  0  0  0  2  0  0  0  0  0  0
  -30.8940  -14.6650   20.0400 C   0  0  0  0  0  0  0  0  0  0  0  0
  -30.6000  -12.4360   18.9740 C   0  0  0  0  0  2  0  0  0  0  0  0
  -29.6040  -12.5680   17.7990 C   0  0  0  0  0  2  0  0  0  0  0  0
  -28.1470  -12.4270   18.2900 C   0  0  0  0  0  2  0  0  0  0  0  0
  -27.8560  -13.2960   19.5440 C   0  0  0  0  0  3  0  0  0  0  0  0
  -28.9640  -13.1350   20.6100 C   0  0  0  0  0  2  0  0  0  0  0  0
  -30.2480  -13.4610   19.9770 N   0  0  0  0  0  0  0  0  0  0  0  0
  -32.0100  -14.8240   19.5330 O   0  0  0  0  0  0  0  0  0  0  0  0
  -30.1770  -15.7310   20.5060 N   0  0  0  0  0  0  0  0  0  0  0  0
  -29.2690  -15.4970   20.8810 H   0  0  0  0  0  0  0  0  0  0  0  0
  -25.5230  -13.9170   20.4260 C   0  0  0  0  0  0  0  0  0  0  0  0
  -24.4630  -13.1530   20.8340 C   0  0  0  0  0  0  0  0  0  0  0  0
  -24.8950  -11.7940   20.7310 C   0  0  0  0  0  0  0  0  0  0  0  0
  -26.5320  -13.0260   20.0970 N   0  0  0  0  0  0  0  0  0  0  0  0
  -26.1620  -11.7400   20.3390 N   0  0  0  0  0  0  0  0  0  0  0  0
  -24.1540  -10.5410   20.9240 C   0  0  0  0  0  0  0  0  0  0  0  0
  -24.5680   -9.5790   21.8710 C   0  0  0  0  0  3  0  0  0  0  0  0
  -23.8290   -8.3890   22.0520 C   0  0  0  0  0  3  0  0  0  0  0  0
  -22.6610   -8.1560   21.2860 C   0  0  0  0  0  0  0  0  0  0  0  0
  -22.2690   -9.1080   20.3280 C   0  0  0  0  0  3  0  0  0  0  0  0
  -23.0090  -10.2850   20.1450 C   0  0  0  0  0  3  0  0  0  0  0  0
  -21.8930   -7.0190   21.3750 O   0  0  0  0  0  0  0  0  0  0  0  0
  -21.7460   -6.3430   22.5590 C   0  0  0  0  0  0  0  0  0  0  0  0
  -21.2050   -6.9620   23.7080 C   0  0  0  0  0  3  0  0  0  0  0  0
  -21.0070   -6.2100   24.8830 C   0  0  0  0  0  3  0  0  0  0  0  0
  -21.3350   -4.8420   24.9090 C   0  0  0  0  0  0  0  0  0  0  0  0
  -21.8660   -4.2240   23.7630 C   0  0  0  0  0  3  0  0  0  0  0  0
  -22.0680   -4.9720   22.5910 C   0  0  0  0  0  0  0  0  0  0  0  0
  -22.5620   -4.3650   21.4850 F   0  0  0  0  0  0  0  0  0  0  0  0
  -21.1350   -4.1200   26.0350 F   0  0  0  0  0  0  0  0  0  0  0  0
  -23.0970  -13.6510   21.2050 C   0  0  0  0  0  0  0  0  0  0  0  0
  -22.4080  -12.9430   22.0940 N   0  0  0  0  0  0  0  0  0  0  0  0
  -22.6500  -14.7020   20.7430 O   0  0  0  0  0  0  0  0  0  0  0  0
  -22.7820  -12.0930   22.4930 H   0  0  0  0  0  0  0  0  0  0  0  0
  -21.4960  -13.2570   22.3890 H   0  0  0  0  0  0  0  0  0  0  0  0
  -25.6980  -15.2900   20.2840 N   0  0  0  0  0  0  0  0  0  0  0  0
  -24.9360  -15.9360   20.4580 H   0  0  0  0  0  0  0  0  0  0  0  0
  -26.5090  -15.7350   19.8760 H   0  0  0  0  0  0  0  0  0  0  0  0
  2  5  1  0
  3  1  1  0
  4  2  2  0
  4  6  1  0
  5 48  1  0
  5  1  2  0
  6  3  2  0
  7  9  1  0
  7  6  1  0
  8 19  2  0
  9 14  1  0
 10 18  1  0
 10 20  1  0
 11 17  1  0
 11 13  1  0
 12 18  1  0
 13 12  1  0
 14 13  2  0
 15 16  1  0
 15  9  2  0
 16 11  2  0
 17 10  1  0
 18  8  1  0
 20 22  2  0
 21 20  1  0
 23 21  1  0
 24 33  2  0
 24 29  1  0
 25 21  1  0
 25 29  1  0
 26 25  1  0
 27 28  1  0
 27 26  1  0
 28 24  1  0
 29 30  2  0
 30 31  1  0
 32 31  2  0
 33 32  1  0
 34  8  1  0
 34 35  1  0
 34 44  1  0
 35 38  1  0
 36 40  1  0
 36 35  1  0
 37 36  2  0
 40 39  1  0
 42 40  1  0
 42 43  1  0
 42 41  1  0
 44 47  1  1
 44 45  1  0
 46 44  1  0
 50 49  1  0
 50 51  1  0
 50 48  1  0
 51 56  1  0
 51 52  1  0
 52 54  1  0
 52 55  1  0
 53 52  1  0
 56 65  1  0
 57 65  1  0
 58 63  1  0
 59 60  1  0
 59 58  1  0
 61 60  1  0
 61 70  1  0
 61 62  1  0
 63 57  1  0
 63 62  1  0
 64 57  2  0
 65 66  1  0
 67 68  2  0
 68 87  1  0
 69 68  1  0
 69 72  1  0
 70 71  1  0
 70 67  1  0
 71 69  2  0
 72 73  1  0
 73 74  2  0
 75 78  1  0
 75 74  1  0
 76 75  2  0
 77 76  1  0
 77 72  2  0
 78 79  1  0
 79 84  2  0
 79 80  1  0
 80 81  2  0
 81 82  1  0
 82 86  1  0
 83 82  2  0
 84 83  1  0
 85 84  1  0
 87 88  1  0
 88 91  1  0
 88 90  1  0
 89 87  2  0
 92 67  1  0
 92 93  1  0
 94 92  1  0
M  ISO  4   6 101   7 101  57 100  65 100
M  END
>  <TORSDO>  (16) 
F 21

>  <SCORE>  (16) 
-13.404

>  <name>  (16) 
15

>  <ligand_id>  (16) 
15

>  <original_smiles>  (16) 
[H]c1c([H])c([H])c2c(c1[H])C([H])([H])C([H])([H])C([H])([H])C2([H])N([H])C(=O)C1([H])N(C(=O)C([H])(N([H])C(=O)C([H])(N([H])C([H])([H])[H])C([H])([H])[H])C(C([H])([H])[H])(C([H])([H])[H])C([H])([H])[H])C([H])([H])c2c([H])c(Oc3c([H])c([H])c(C([H])([H])C([H])(C([H])([H])[H])C([H])(C([H])([H])N([H])C(=O)N4C([H])([H])C([H])([H])C([H])([H])C([H])(n5nc(-c6c([H])c([H])c(Oc7c([H])c([H])c(F)c([H])c7F)c([H])c6[H])c(C(=O)N([H])[H])c5N([H])[H])C4([H])[H])[N+]([H])([H])[H])c([H])c3[H])c([H])c([H])c2C1([H])[H]

>  <smiles>  (16) 
[H]c1c([H])c([H])c2c(c1[H])C([H])([H])C([H])([H])C([H])([H])C2([H])N([H])C(=O)C1([H])N(C(=O)C([H])(N([H])C(=O)C([H])(N([H])C([H])([H])[H])C([H])([H])[H])C(C([H])([H])[H])(C([H])([H])[H])C([H])([H])[H])C([H])([H])c2c([H])c(Oc3c([H])c([H])c(C([H])([H])C([H])(C([H])([H])[H])C([H])(C([H])([H])N([H])C(=O)N4C([H])([H])C([H])([H])C([H])([H])C([H])(n5nc(-c6c([H])c([H])c(Oc7c([H])c([H])c(F)c([H])c7F)c([H])c6[H])c(C(=O)N([H])[H])c5N([H])[H])C4([H])[H])[N+]([H])([H])[H])c([H])c3[H])c([H])c([H])c2C1([H])[H]

$$$$
16:0:0
     RDKit          3D

 91 99  0  0  1  0  0  0  0  0999 V2000
  -30.8680  -18.0920   21.6060 C   0  0  0  0  0  0  0  0  0  0  0  0
  -29.8620  -18.6690   19.5510 C   0  0  0  0  0  2  0  0  0  0  0  0
  -30.8020  -17.5610   20.1860 C   0  0  0  0  0  3  0  0  0  0  0  0
  -30.5390  -19.6090   21.6760 C   0  0  0  0  0  3  0  0  0  0  0  0
  -29.7260  -19.9210   22.9510 C   0  0  0  0  0  1  0  0  0  0  0  0
  -29.7660  -19.9060   20.4360 N   0  0  1  0  0  4  0  0  0  0  0  0
  -31.1570  -17.3820   22.5770 O   0  0  0  0  0  0  0  0  0  0  0  0
  -28.7980  -19.8910   20.7180 H   0  0  0  0  0  0  0  0  0  0  0  0
  -31.1130  -14.9720   19.9000 C   0  0  0  0  0  0  0  0  0  0  0  0
  -30.8130  -12.7230   18.8860 C   0  0  0  0  0  2  0  0  0  0  0  0
  -29.8250  -12.8460   17.7080 C   0  0  0  0  0  2  0  0  0  0  0  0
  -28.3650  -12.7210   18.1890 C   0  0  0  0  0  2  0  0  0  0  0  0
  -28.0710  -13.6020   19.4330 C   0  0  0  0  0  3  0  0  0  0  0  0
  -29.1720  -13.4600   20.5080 C   0  0  0  0  0  2  0  0  0  0  0  0
  -30.4540  -13.7690   19.8650 N   0  0  0  0  0  0  0  0  0  0  0  0
  -32.2880  -15.0590   19.5390 O   0  0  0  0  0  0  0  0  0  0  0  0
  -30.3580  -16.1040   20.1150 N   0  0  0  0  0  0  0  0  0  0  0  0
  -29.4030  -15.9280   20.3900 H   0  0  0  0  0  0  0  0  0  0  0  0
  -25.7360  -14.2590   20.2730 C   0  0  0  0  0  0  0  0  0  0  0  0
  -24.6610  -13.5150   20.6700 C   0  0  0  0  0  0  0  0  0  0  0  0
  -25.0730  -12.1500   20.5860 C   0  0  0  0  0  0  0  0  0  0  0  0
  -26.7390  -13.3510   19.9730 N   0  0  0  0  0  0  0  0  0  0  0  0
  -26.3470  -12.0750   20.2220 N   0  0  0  0  0  0  0  0  0  0  0  0
  -24.3090  -10.9090   20.7720 C   0  0  0  0  0  0  0  0  0  0  0  0
  -24.7190   -9.9210   21.6940 C   0  0  0  0  0  3  0  0  0  0  0  0
  -23.9590   -8.7450   21.8690 C   0  0  0  0  0  3  0  0  0  0  0  0
  -22.7730   -8.5480   21.1240 C   0  0  0  0  0  0  0  0  0  0  0  0
  -22.3810   -9.5220   20.1890 C   0  0  0  0  0  3  0  0  0  0  0  0
  -23.1420  -10.6900   20.0110 C   0  0  0  0  0  3  0  0  0  0  0  0
  -21.9850   -7.4260   21.2150 O   0  0  0  0  0  0  0  0  0  0  0  0
  -21.9130   -6.6860   22.3680 C   0  0  0  0  0  0  0  0  0  0  0  0
  -21.4390   -7.2370   23.5780 C   0  0  0  0  0  3  0  0  0  0  0  0
  -21.3150   -6.4230   24.7210 C   0  0  0  0  0  3  0  0  0  0  0  0
  -21.6550   -5.0590   24.6540 C   0  0  0  0  0  0  0  0  0  0  0  0
  -22.1210   -4.5060   23.4480 C   0  0  0  0  0  3  0  0  0  0  0  0
  -22.2470   -5.3190   22.3070 C   0  0  0  0  0  0  0  0  0  0  0  0
  -22.6790   -4.7770   21.1410 F   0  0  0  0  0  0  0  0  0  0  0  0
  -21.5270   -4.2730   25.7490 F   0  0  0  0  0  0  0  0  0  0  0  0
  -23.2920  -14.0330   21.0050 C   0  0  0  0  0  0  0  0  0  0  0  0
  -22.5700  -13.3420   21.8780 N   0  0  0  0  0  0  0  0  0  0  0  0
  -22.8760  -15.0880   20.5280 O   0  0  0  0  0  0  0  0  0  0  0  0
  -22.9230  -12.4930   22.2920 H   0  0  0  0  0  0  0  0  0  0  0  0
  -21.6510  -13.6730   22.1370 H   0  0  0  0  0  0  0  0  0  0  0  0
  -25.9350  -15.6300   20.1180 N   0  0  0  0  0  0  0  0  0  0  0  0
  -25.1720  -16.2840   20.2570 H   0  0  0  0  0  0  0  0  0  0  0  0
  -26.7280  -16.0530   19.6570 H   0  0  0  0  0  0  0  0  0  0  0  0
  -29.9860  -21.2990   19.8130 C   0  0  0  0  0  3  0  0  0  0  0  0
  -29.1770  -22.5710   20.3960 C   0  0  0  0  0  3  0  0  0  0  0  0
  -29.4660  -24.0640   19.8500 C   0  0  0  0  0  3  0  0  0  0  0  0
  -28.5130  -25.2550   20.3550 C   0  0  0  0  0  3  0  0  0  0  0  0
  -28.6980  -26.6840   19.9450 O   0  0  0  0  0  0  0  0  0  0  0  0
  -24.7390  -31.8110   23.2500 C   0  0  0  0  0  0  0  0  0  0  0  0
  -27.5610  -27.5150   19.9690 C   0  0  0  0  0  0  0  0  0  0  0  0
  -23.6060  -30.4310   21.5480 C   0  0  0  0  0  3  0  0  0  0  0  0
  -25.1270  -29.0230   20.0500 C   0  0  0  0  0  0  0  0  0  0  0  0
  -26.1310  -30.8740   21.3850 C   0  0  0  0  0  2  0  0  0  0  0  0
  -26.2750  -29.5320   20.6710 C   0  0  0  0  0  0  0  0  0  0  0  0
  -27.4970  -28.7880   20.6230 C   0  0  0  0  0  3  0  0  0  0  0  0
  -26.3920  -27.0840   19.3040 C   0  0  0  0  0  3  0  0  0  0  0  0
  -25.1860  -27.8050   19.3610 C   0  0  0  0  0  3  0  0  0  0  0  0
  -23.8510  -29.8370   20.1370 C   0  0  0  0  0  2  0  0  0  0  0  0
  -24.8440  -31.0560   22.1180 N   0  0  0  0  0  0  0  0  0  0  0  0
  -23.6420  -32.0100   23.7920 O   0  0  0  0  0  0  0  0  0  0  0  0
  -22.9950  -29.3390   22.4570 C   0  0  0  0  0  0  0  0  0  0  0  0
  -21.6870  -29.0770   22.2920 N   0  0  0  0  0  0  0  0  0  0  0  0
  -23.6980  -28.7300   23.2670 O   0  0  0  0  0  0  0  0  0  0  0  0
  -21.1740  -29.6330   21.6220 H   0  0  0  0  0  0  0  0  0  0  0  0
  -18.3840  -27.6500   22.6830 C   0  0  0  0  0  0  0  0  0  0  0  0
  -20.9170  -28.0610   23.0110 C   0  0  0  0  0  3  0  0  0  0  0  0
  -21.1170  -26.6610   22.3840 C   0  0  0  0  0  2  0  0  0  0  0  0
  -20.0550  -26.3060   21.3390 C   0  0  0  0  0  2  0  0  0  0  0  0
  -18.6560  -26.3420   21.9610 C   0  0  0  0  0  2  0  0  0  0  0  0
  -19.4450  -28.4640   23.1620 C   0  0  0  0  0  0  0  0  0  0  0  0
  -19.1370  -29.6880   23.7960 C   0  0  0  0  0  3  0  0  0  0  0  0
  -17.8020  -30.0990   23.9570 C   0  0  0  0  0  3  0  0  0  0  0  0
  -16.7540  -29.2830   23.4930 C   0  0  0  0  0  3  0  0  0  0  0  0
  -17.0470  -28.0610   22.8630 C   0  0  0  0  0  3  0  0  0  0  0  0
  -25.9870  -32.4770   23.9040 C   0  0  0  0  0  3  0  0  0  0  0  0
  -26.4790  -31.7270   25.2030 C   0  0  1  0  0  0  0  0  0  0  0  0
  -25.3590  -31.4680   26.2360 C   0  0  0  0  0  1  0  0  0  0  0  0
  -27.1090  -30.3610   24.8420 C   0  0  0  0  0  1  0  0  0  0  0  0
  -27.5870  -32.5550   25.8950 C   0  0  0  0  0  1  0  0  0  0  0  0
  -25.6380  -33.8710   24.2120 N   0  0  0  0  0  0  0  0  0  0  0  0
  -25.9630  -34.9230   23.4490 C   0  0  0  0  0  0  0  0  0  0  0  0
  -26.6580  -34.8240   22.4340 O   0  0  0  0  0  0  0  0  0  0  0  0
  -25.0230  -34.0180   24.9980 H   0  0  0  0  0  0  0  0  0  0  0  0
  -24.1990  -36.6690   23.0420 C   0  0  0  0  0  1  0  0  0  0  0  0
  -25.4340  -36.3050   23.8810 C   0  0  0  0  0  3  0  0  0  0  0  0
  -27.5240  -37.2580   24.7500 C   0  0  0  0  0  1  0  0  0  0  0  0
  -26.4450  -37.3810   23.7750 N   0  0  0  0  0  0  0  0  0  0  0  0
  -26.0130  -38.2940   23.8910 H   0  0  0  0  0  0  0  0  0  0  0  0
  1  4  1  0
  1  7  2  0
  2  3  1  0
  2  6  1  0
  3 17  1  0
  3  1  1  0
  4  5  1  0
  6  8  1  1
  6  4  1  0
  9 17  1  0
 10 15  1  0
 11 12  1  0
 11 10  1  0
 13 12  1  0
 13 22  1  0
 13 14  1  0
 15  9  1  0
 15 14  1  0
 16  9  2  0
 17 18  1  0
 19 20  2  0
 20 39  1  0
 21 20  1  0
 21 24  1  0
 22 23  1  0
 22 19  1  0
 23 21  2  0
 24 25  1  0
 25 26  2  0
 27 30  1  0
 27 26  1  0
 28 27  2  0
 29 28  1  0
 29 24  2  0
 30 31  1  0
 31 32  1  0
 32 33  2  0
 34 33  1  0
 34 38  1  0
 35 34  2  0
 36 31  2  0
 36 35  1  0
 37 36  1  0
 39 40  1  0
 40 43  1  0
 40 42  1  0
 41 39  2  0
 44 45  1  0
 44 19  1  0
 46 44  1  0
 47 48  2  0
 47  6  1  0
 49 50  2  0
 49 48  1  0
 51 53  1  0
 51 50  1  0
 52 63  2  0
 53 58  1  0
 54 62  1  0
 54 64  1  0
 55 61  1  0
 55 57  1  0
 56 62  1  0
 57 56  1  0
 58 57  2  0
 59 60  1  0
 59 53  2  0
 60 55  2  0
 61 54  1  0
 62 52  1  0
 64 66  2  0
 65 64  1  0
 67 65  1  0
 68 77  2  0
 68 73  1  0
 69 65  1  0
 69 73  1  0
 70 69  1  0
 71 72  1  0
 71 70  1  0
 72 68  1  0
 73 74  2  0
 74 75  1  0
 76 75  2  0
 77 76  1  0
 78 52  1  0
 78 83  1  0
 78 79  1  0
 79 82  1  1
 79 80  1  0
 81 79  1  0
 83 86  1  0
 84 88  1  0
 84 83  1  0
 85 84  2  0
 88 87  1  0
 90 88  1  0
 90 91  1  0
 90 89  1  0
M  ISO  4   9 100  17 100  50 101  51 101
M  END
>  <TORSDO>  (17) 
F 20

>  <SCORE>  (17) 
-11.453

>  <name>  (17) 
16

>  <ligand_id>  (17) 
16

>  <original_smiles>  (17) 
[H]c1c([H])c([H])c2c(c1[H])C([H])([H])C([H])([H])C([H])([H])C2([H])N([H])C(=O)C1([H])N(C(=O)C([H])(N([H])C(=O)C([H])(N([H])C([H])([H])[H])C([H])([H])[H])C(C([H])([H])[H])(C([H])([H])[H])C([H])([H])[H])C([H])([H])c2c([H])c(OC([H])([H])C([H])([H])C([H])([H])C([H])([H])[N+]3([H])C([H])([H])C([H])(N([H])C(=O)N4C([H])([H])C([H])([H])C([H])([H])C([H])(n5nc(-c6c([H])c([H])c(Oc7c([H])c([H])c(F)c([H])c7F)c([H])c6[H])c(C(=O)N([H])[H])c5N([H])[H])C4([H])[H])C(=O)C3([H])C([H])([H])[H])c([H])c([H])c2C1([H])[H]

>  <smiles>  (17) 
[H]c1c([H])c([H])c2c(c1[H])C([H])([H])C([H])([H])C([H])([H])C2([H])N([H])C(=O)C1([H])N(C(=O)C([H])(N([H])C(=O)C([H])(N([H])C([H])([H])[H])C([H])([H])[H])C(C([H])([H])[H])(C([H])([H])[H])C([H])([H])[H])C([H])([H])c2c([H])c(OC([H])([H])C([H])([H])C([H])([H])C([H])([H])[N+]3([H])C([H])([H])C([H])(N([H])C(=O)N4C([H])([H])C([H])([H])C([H])([H])C([H])(n5nc(-c6c([H])c([H])c(Oc7c([H])c([H])c(F)c([H])c7F)c([H])c6[H])c(C(=O)N([H])[H])c5N([H])[H])C4([H])[H])C(=O)C3([H])C([H])([H])[H])c([H])c([H])c2C1([H])[H]

$$$$
17:0:0
     RDKit          3D

 95104  0  0  1  0  0  0  0  0999 V2000
  -31.5480  -19.4890   20.7080 C   0  0  0  0  0  0  0  0  0  0  0  0
  -31.1660  -20.7640   19.9370 C   0  0  0  0  0  2  0  0  0  0  0  0
  -30.0980  -18.9770   20.6820 C   0  0  0  0  0  3  0  0  0  0  0  0
  -29.7420  -20.3810   19.9710 N   0  0  1  0  0  4  0  0  0  0  0  0
  -32.6150  -19.0390   21.1380 O   0  0  0  0  0  0  0  0  0  0  0  0
  -29.4590  -20.1920   19.0230 H   0  0  0  0  0  0  0  0  0  0  0  0
  -30.8860  -14.9350   21.0160 C   0  0  0  0  0  0  0  0  0  0  0  0
  -30.7830  -12.5080   20.3050 C   0  0  0  0  0  2  0  0  0  0  0  0
  -29.9930  -12.2240   19.0090 C   0  0  0  0  0  2  0  0  0  0  0  0
  -28.4970  -12.0370   19.2940 C   0  0  0  0  0  2  0  0  0  0  0  0
  -27.9400  -13.1230   20.2540 C   0  0  0  0  0  3  0  0  0  0  0  0
  -28.8700  -13.3780   21.4650 C   0  0  0  0  0  2  0  0  0  0  0  0
  -30.1890  -13.7290   20.9160 N   0  0  0  0  0  0  0  0  0  0  0  0
  -32.0890  -14.8250   21.2420 O   0  0  0  0  0  0  0  0  0  0  0  0
  -30.4190  -17.3280   18.5390 C   0  0  0  0  0  2  0  0  0  0  0  0
  -31.5280  -16.4430   19.1120 C   0  0  0  0  0  3  0  0  0  0  0  0
  -29.8480  -17.4680   19.9490 C   0  0  0  0  0  3  0  0  0  0  0  0
  -30.5640  -16.0450   20.1660 N   0  0  0  0  0  0  0  0  0  0  0  0
  -25.4960  -13.7420   20.7100 C   0  0  0  0  0  0  0  0  0  0  0  0
  -24.3880  -12.9840   20.9720 C   0  0  0  0  0  0  0  0  0  0  0  0
  -24.8420  -11.6330   21.0540 C   0  0  0  0  0  0  0  0  0  0  0  0
  -26.5540  -12.8550   20.6320 N   0  0  0  0  0  0  0  0  0  0  0  0
  -26.1610  -11.5830   20.9130 N   0  0  0  0  0  0  0  0  0  0  0  0
  -24.0900  -10.3790   21.2040 C   0  0  0  0  0  0  0  0  0  0  0  0
  -24.4370   -9.4250   22.1840 C   0  0  0  0  0  3  0  0  0  0  0  0
  -23.6880   -8.2350   22.3220 C   0  0  0  0  0  3  0  0  0  0  0  0
  -22.5750   -7.9930   21.4800 C   0  0  0  0  0  0  0  0  0  0  0  0
  -22.2480   -8.9370   20.4900 C   0  0  0  0  0  3  0  0  0  0  0  0
  -22.9990  -10.1180   20.3500 C   0  0  0  0  0  3  0  0  0  0  0  0
  -21.8030   -6.8570   21.5280 O   0  0  0  0  0  0  0  0  0  0  0  0
  -21.6910   -6.1060   22.6720 C   0  0  0  0  0  0  0  0  0  0  0  0
  -21.2170   -6.6600   23.8800 C   0  0  0  0  0  3  0  0  0  0  0  0
  -21.0540   -5.8390   25.0140 C   0  0  0  0  0  3  0  0  0  0  0  0
  -21.3510   -4.4650   24.9400 C   0  0  0  0  0  0  0  0  0  0  0  0
  -21.8190   -3.9110   23.7380 C   0  0  0  0  0  3  0  0  0  0  0  0
  -21.9870   -4.7290   22.6060 C   0  0  0  0  0  0  0  0  0  0  0  0
  -22.4170   -4.1860   21.4410 F   0  0  0  0  0  0  0  0  0  0  0  0
  -21.1870   -3.6760   26.0290 F   0  0  0  0  0  0  0  0  0  0  0  0
  -22.9710  -13.4770   21.0360 C   0  0  0  0  0  0  0  0  0  0  0  0
  -22.1360  -12.8360   21.8470 N   0  0  0  0  0  0  0  0  0  0  0  0
  -22.6050  -14.4650   20.3970 O   0  0  0  0  0  0  0  0  0  0  0  0
  -22.4460  -12.0500   22.3970 H   0  0  0  0  0  0  0  0  0  0  0  0
  -21.1740  -13.1350   21.9220 H   0  0  0  0  0  0  0  0  0  0  0  0
  -25.6850  -15.1040   20.5000 N   0  0  0  0  0  0  0  0  0  0  0  0
  -24.9100  -15.7600   20.4920 H   0  0  0  0  0  0  0  0  0  0  0  0
  -26.5780  -15.5340   20.3020 H   0  0  0  0  0  0  0  0  0  0  0  0
  -31.9900  -15.3410   18.1270 C   0  0  0  0  0  0  0  0  0  0  0  0
  -33.2650  -14.9700   18.1570 N   0  0  0  0  0  0  0  0  0  0  0  0
  -31.2210  -14.8500   17.3060 O   0  0  0  0  0  0  0  0  0  0  0  0
  -33.9290  -15.4290   18.7680 H   0  0  0  0  0  0  0  0  0  0  0  0
  -33.6050  -14.2510   17.5320 H   0  0  0  0  0  0  0  0  0  0  0  0
  -28.8410  -21.5850   20.4940 C   0  0  0  0  0  2  0  0  0  0  0  0
  -29.0080  -23.1910   19.9430 C   0  0  0  0  0  3  0  0  0  0  0  0
  -27.9430  -24.4810   20.1990 C   0  0  0  0  0  3  0  0  0  0  0  0
  -28.1910  -26.0090   19.9750 O   0  0  0  0  0  0  0  0  0  0  0  0
  -24.5400  -31.6620   23.0200 C   0  0  0  0  0  0  0  0  0  0  0  0
  -27.1210  -26.9790   19.9510 C   0  0  0  0  0  0  0  0  0  0  0  0
  -23.3430  -30.2930   21.3510 C   0  0  0  0  0  3  0  0  0  0  0  0
  -24.7930  -28.7350   19.9180 C   0  0  0  0  0  0  0  0  0  0  0  0
  -25.8970  -30.5550   21.2050 C   0  0  0  0  0  2  0  0  0  0  0  0
  -25.9700  -29.1680   20.5430 C   0  0  0  0  0  0  0  0  0  0  0  0
  -27.1330  -28.3080   20.5430 C   0  0  0  0  0  3  0  0  0  0  0  0
  -25.9160  -26.6520   19.2840 C   0  0  0  0  0  3  0  0  0  0  0  0
  -24.7790  -27.4900   19.2720 C   0  0  0  0  0  3  0  0  0  0  0  0
  -23.5640  -29.6310   19.9670 C   0  0  0  0  0  2  0  0  0  0  0  0
  -24.6120  -30.8630   21.9090 N   0  0  0  0  0  0  0  0  0  0  0  0
  -23.4510  -31.9370   23.5510 O   0  0  0  0  0  0  0  0  0  0  0  0
  -22.6620  -29.2750   22.3020 C   0  0  0  0  0  0  0  0  0  0  0  0
  -21.3260  -29.1340   22.2020 N   0  0  0  0  0  0  0  0  0  0  0  0
  -23.3370  -28.6140   23.0950 O   0  0  0  0  0  0  0  0  0  0  0  0
  -20.8380  -29.7130   21.5340 H   0  0  0  0  0  0  0  0  0  0  0  0
  -17.9270  -28.0240   22.7580 C   0  0  0  0  0  0  0  0  0  0  0  0
  -20.4990  -28.1950   22.9620 C   0  0  0  0  0  3  0  0  0  0  0  0
  -20.5450  -26.7840   22.3330 C   0  0  0  0  0  2  0  0  0  0  0  0
  -19.4080  -26.5320   21.3390 C   0  0  0  0  0  2  0  0  0  0  0  0
  -18.0470  -26.6960   22.0270 C   0  0  0  0  0  2  0  0  0  0  0  0
  -19.0810  -28.7360   23.1810 C   0  0  0  0  0  0  0  0  0  0  0  0
  -18.9160  -29.9840   23.8220 C   0  0  0  0  0  3  0  0  0  0  0  0
  -17.6320  -30.5160   24.0500 C   0  0  0  0  0  3  0  0  0  0  0  0
  -16.4940  -29.7980   23.6420 C   0  0  0  0  0  3  0  0  0  0  0  0
  -16.6420  -28.5550   23.0010 C   0  0  0  0  0  3  0  0  0  0  0  0
  -25.8160  -32.2910   23.6590 C   0  0  0  0  0  3  0  0  0  0  0  0
  -26.3430  -31.4910   24.9120 C   0  0  1  0  0  0  0  0  0  0  0  0
  -25.2560  -31.2300   25.9800 C   0  0  0  0  0  1  0  0  0  0  0  0
  -26.9250  -30.1220   24.4870 C   0  0  0  0  0  1  0  0  0  0  0  0
  -27.5000  -32.2650   25.5850 C   0  0  0  0  0  1  0  0  0  0  0  0
  -25.4900  -33.6780   24.0340 N   0  0  0  0  0  0  0  0  0  0  0  0
  -25.8220  -34.7630   23.3230 C   0  0  0  0  0  0  0  0  0  0  0  0
  -26.4940  -34.7060   22.2920 O   0  0  0  0  0  0  0  0  0  0  0  0
  -24.8980  -33.7940   24.8430 H   0  0  0  0  0  0  0  0  0  0  0  0
  -24.0860  -36.5630   23.0340 C   0  0  0  0  0  1  0  0  0  0  0  0
  -25.3250  -36.1300   23.8350 C   0  0  0  0  0  3  0  0  0  0  0  0
  -27.4550  -36.9930   24.7110 C   0  0  0  0  0  1  0  0  0  0  0  0
  -26.3540  -37.1910   23.7720 N   0  0  0  0  0  0  0  0  0  0  0  0
  -25.9400  -38.1020   23.9490 H   0  0  0  0  0  0  0  0  0  0  0  0
  1  5  2  0
  2  4  1  0
  2  1  1  0
  3  1  1  0
  4 52  1  0
  4  3  1  0
  4  6  1  6
  7 14  2  0
  8 13  1  0
  9 10  1  0
  9  8  1  0
 11 10  1  0
 11 22  1  0
 11 12  1  0
 13  7  1  0
 13 12  1  0
 15 16  1  0
 16 47  1  0
 16 18  1  0
 17 15  1  0
 17 18  1  0
 17  3  1  0
 18  7  1  0
 19 20  2  0
 20 39  1  0
 20 21  1  0
 21 24  1  0
 22 19  1  0
 22 23  1  0
 23 21  2  0
 24 25  1  0
 25 26  2  0
 27 30  1  0
 27 26  1  0
 28 27  2  0
 29 28  1  0
 29 24  2  0
 30 31  1  0
 31 32  1  0
 32 33  2  0
 34 33  1  0
 34 38  1  0
 35 34  2  0
 36 31  2  0
 36 35  1  0
 37 36  1  0
 39 40  1  0
 40 43  1  0
 40 42  1  0
 41 39  2  0
 44 19  1  0
 45 44  1  0
 46 44  1  0
 47 48  1  0
 48 50  1  0
 49 47  2  0
 51 48  1  0
 53 54  2  0
 53 52  1  0
 55 54  1  0
 56 67  2  0
 57 55  1  0
 57 62  1  0
 58 66  1  0
 58 68  1  0
 59 65  1  0
 59 61  1  0
 60 66  1  0
 61 62  2  0
 61 60  1  0
 63 57  2  0
 64 63  1  0
 64 59  2  0
 65 58  1  0
 66 56  1  0
 68 70  2  0
 69 68  1  0
 71 69  1  0
 72 81  2  0
 72 77  1  0
 73 69  1  0
 73 77  1  0
 74 73  1  0
 75 76  1  0
 75 74  1  0
 76 72  1  0
 77 78  2  0
 78 79  1  0
 80 79  2  0
 81 80  1  0
 82 56  1  0
 82 87  1  0
 82 83  1  0
 83 86  1  1
 83 84  1  0
 85 83  1  0
 87 90  1  0
 88 92  1  0
 88 87  1  0
 89 88  2  0
 92 91  1  0
 94 92  1  0
 94 95  1  0
 94 93  1  0
M  ISO  4   7 100  18 100  54 101  55 101
M  END
>  <TORSDO>  (18) 
F 20

>  <SCORE>  (18) 
-14.153

>  <name>  (18) 
17

>  <ligand_id>  (18) 
17

>  <original_smiles>  (18) 
[H]c1c([H])c([H])c2c(c1[H])C([H])([H])C([H])([H])C([H])([H])C2([H])N([H])C(=O)C1([H])N(C(=O)C([H])(N([H])C(=O)C([H])(N([H])C([H])([H])[H])C([H])([H])[H])C(C([H])([H])[H])(C([H])([H])[H])C([H])([H])[H])C([H])([H])c2c([H])c(OC([H])([H])C([H])([H])C([H])([H])[N+]3([H])C([H])([H])C(=O)C3([H])C3([H])N(C(=O)N4C([H])([H])C([H])([H])C([H])([H])C([H])(n5nc(-c6c([H])c([H])c(Oc7c([H])c([H])c(F)c([H])c7F)c([H])c6[H])c(C(=O)N([H])[H])c5N([H])[H])C4([H])[H])C([H])(C(=O)N([H])[H])C3([H])[H])c([H])c([H])c2C1([H])[H]

>  <smiles>  (18) 
[H]c1c([H])c([H])c2c(c1[H])C([H])([H])C([H])([H])C([H])([H])C2([H])N([H])C(=O)C1([H])N(C(=O)C([H])(N([H])C(=O)C([H])(N([H])C([H])([H])[H])C([H])([H])[H])C(C([H])([H])[H])(C([H])([H])[H])C([H])([H])[H])C([H])([H])c2c([H])c(OC([H])([H])C([H])([H])C([H])([H])[N+]3([H])C([H])([H])C(=O)C3([H])C3([H])N(C(=O)N4C([H])([H])C([H])([H])C([H])([H])C([H])(n5nc(-c6c([H])c([H])c(Oc7c([H])c([H])c(F)c([H])c7F)c([H])c6[H])c(C(=O)N([H])[H])c5N([H])[H])C4([H])[H])C([H])(C(=O)N([H])[H])C3([H])[H])c([H])c([H])c2C1([H])[H]

$$$$
18:0:0
     RDKit          3D

 91 99  0  0  1  0  0  0  0  0999 V2000
  -28.1280  -20.9270   20.9620 C   0  0  0  0  0  2  0  0  0  0  0  0
  -28.8650  -22.1800   20.5310 C   0  0  0  0  0  3  0  0  0  0  0  0
  -29.5870  -21.1040   21.3170 C   0  0  0  0  0  3  0  0  0  0  0  0
  -28.9880  -24.6430   20.4290 C   0  0  0  0  0  3  0  0  0  0  0  0
  -28.5730  -23.5410   21.0920 C   0  0  0  0  0  0  0  0  0  0  0  0
  -27.7910  -23.5810   22.4000 C   0  0  0  0  0  1  0  0  0  0  0  0
  -28.7620  -26.1040   20.7890 C   0  0  0  0  0  2  0  0  0  0  0  0
  -28.4090  -26.8430   19.6220 O   0  0  0  0  0  0  0  0  0  0  0  0
  -24.4590  -31.6890   23.0270 C   0  0  0  0  0  0  0  0  0  0  0  0
  -27.2240  -27.5220   19.7120 C   0  0  0  0  0  0  0  0  0  0  0  0
  -23.2830  -30.3310   21.3250 C   0  0  0  0  0  3  0  0  0  0  0  0
  -24.7750  -28.9120   19.8190 C   0  0  0  0  0  0  0  0  0  0  0  0
  -25.7900  -30.7890   21.1260 C   0  0  0  0  0  2  0  0  0  0  0  0
  -25.9160  -29.4540   20.4260 C   0  0  0  0  0  0  0  0  0  0  0  0
  -27.1440  -28.7620   20.3780 C   0  0  0  0  0  3  0  0  0  0  0  0
  -26.0730  -26.9820   19.1040 C   0  0  0  0  0  3  0  0  0  0  0  0
  -24.8460  -27.6700   19.1600 C   0  0  0  0  0  3  0  0  0  0  0  0
  -23.5020  -29.7230   19.9120 C   0  0  0  0  0  2  0  0  0  0  0  0
  -24.5290  -30.9490   21.8850 N   0  0  0  0  0  0  0  0  0  0  0  0
  -23.3750  -31.8990   23.5890 O   0  0  0  0  0  0  0  0  0  0  0  0
  -22.6740  -29.2440   22.2390 C   0  0  0  0  0  0  0  0  0  0  0  0
  -21.3540  -29.0330   22.1160 N   0  0  0  0  0  0  0  0  0  0  0  0
  -23.3850  -28.5960   23.0110 O   0  0  0  0  0  0  0  0  0  0  0  0
  -20.8420  -29.6090   21.4630 H   0  0  0  0  0  0  0  0  0  0  0  0
  -18.0190  -27.7250   22.5860 C   0  0  0  0  0  0  0  0  0  0  0  0
  -20.5710  -28.0360   22.8450 C   0  0  0  0  0  3  0  0  0  0  0  0
  -20.7050  -26.6400   22.1930 C   0  0  0  0  0  2  0  0  0  0  0  0
  -19.6000  -26.3420   21.1750 C   0  0  0  0  0  2  0  0  0  0  0  0
  -18.2230  -26.4180   21.8390 C   0  0  0  0  0  2  0  0  0  0  0  0
  -19.1230  -28.4930   23.0440 C   0  0  0  0  0  0  0  0  0  0  0  0
  -18.8800  -29.7180   23.7020 C   0  0  0  0  0  3  0  0  0  0  0  0
  -17.5650  -30.1770   23.9060 C   0  0  0  0  0  3  0  0  0  0  0  0
  -16.4750  -29.4070   23.4650 C   0  0  0  0  0  3  0  0  0  0  0  0
  -16.7040  -28.1820   22.8110 C   0  0  0  0  0  3  0  0  0  0  0  0
  -25.7310  -32.3280   23.6670 C   0  0  0  0  0  3  0  0  0  0  0  0
  -25.3840  -33.6970   24.0690 N   0  0  0  0  0  0  0  0  0  0  0  0
  -25.6820  -34.7950   23.3620 C   0  0  0  0  0  0  0  0  0  0  0  0
  -26.3540  -34.7640   22.3260 O   0  0  0  0  0  0  0  0  0  0  0  0
  -24.7880  -33.7940   24.8790 H   0  0  0  0  0  0  0  0  0  0  0  0
  -23.9100  -36.5570   23.0850 C   0  0  0  0  0  1  0  0  0  0  0  0
  -25.1550  -36.1440   23.8870 C   0  0  0  0  0  3  0  0  0  0  0  0
  -27.2550  -37.0400   24.7910 C   0  0  0  0  0  1  0  0  0  0  0  0
  -26.1600  -37.2270   23.8420 N   0  0  0  0  0  0  0  0  0  0  0  0
  -25.7270  -38.1280   24.0310 H   0  0  0  0  0  0  0  0  0  0  0  0
  -26.2880  -31.5090   24.8950 C   0  0  1  0  0  0  0  0  0  0  0  0
  -25.2170  -31.1820   25.9620 C   0  0  0  0  0  1  0  0  0  0  0  0
  -26.9060  -30.1710   24.4240 C   0  0  0  0  0  1  0  0  0  0  0  0
  -27.4250  -32.3010   25.5830 C   0  0  0  0  0  1  0  0  0  0  0  0
  -31.9800  -21.0220   20.5580 C   0  0  0  0  0  1  0  0  0  0  0  0
  -30.6600  -20.2470   20.6640 C   0  0  0  0  0  3  0  0  0  0  0  0
  -30.9450  -17.7290   20.8740 C   0  0  0  0  0  3  0  0  0  0  0  0
  -30.8700  -18.9520   21.4300 C   0  0  0  0  0  3  0  0  0  0  0  0
  -31.2010  -16.4560   21.6630 C   0  0  0  0  0  2  0  0  0  0  0  0
  -30.8610  -14.5070   20.1450 C   0  0  0  0  0  0  0  0  0  0  0  0
  -30.4330  -12.4210   18.8970 C   0  0  0  0  0  2  0  0  0  0  0  0
  -29.4250  -12.6430   17.7560 C   0  0  0  0  0  2  0  0  0  0  0  0
  -27.9810  -12.4960   18.2690 C   0  0  0  0  0  2  0  0  0  0  0  0
  -27.7180  -13.3280   19.5510 C   0  0  0  0  0  3  0  0  0  0  0  0
  -28.8260  -13.0850   20.5980 C   0  0  0  0  0  2  0  0  0  0  0  0
  -30.1290  -13.3770   19.9730 N   0  0  0  0  0  0  0  0  0  0  0  0
  -31.8500  -14.7870   19.4590 O   0  0  0  0  0  0  0  0  0  0  0  0
  -30.4680  -15.2980   21.1520 N   0  0  0  0  0  0  0  0  0  0  0  0
  -29.6510  -15.0020   21.6650 H   0  0  0  0  0  0  0  0  0  0  0  0
  -25.3660  -13.9400   20.4030 C   0  0  0  0  0  0  0  0  0  0  0  0
  -24.3140  -13.1670   20.8180 C   0  0  0  0  0  0  0  0  0  0  0  0
  -24.7620  -11.8130   20.7360 C   0  0  0  0  0  0  0  0  0  0  0  0
  -26.3900  -13.0560   20.0990 N   0  0  0  0  0  0  0  0  0  0  0  0
  -26.0310  -11.7710   20.3530 N   0  0  0  0  0  0  0  0  0  0  0  0
  -24.0390  -10.5520   20.9430 C   0  0  0  0  0  0  0  0  0  0  0  0
  -24.4700   -9.6010   21.8940 C   0  0  0  0  0  3  0  0  0  0  0  0
  -23.7480   -8.4040   22.0880 C   0  0  0  0  0  3  0  0  0  0  0  0
  -22.5800   -8.1490   21.3310 C   0  0  0  0  0  0  0  0  0  0  0  0
  -22.1690   -9.0890   20.3690 C   0  0  0  0  0  3  0  0  0  0  0  0
  -22.8910  -10.2780   20.1730 C   0  0  0  0  0  3  0  0  0  0  0  0
  -21.8300   -7.0030   21.4320 O   0  0  0  0  0  0  0  0  0  0  0  0
  -21.7230   -6.3150   22.6140 C   0  0  0  0  0  0  0  0  0  0  0  0
  -21.1940   -6.9130   23.7790 C   0  0  0  0  0  3  0  0  0  0  0  0
  -21.0380   -6.1490   24.9540 C   0  0  0  0  0  3  0  0  0  0  0  0
  -21.4000   -4.7890   24.9630 C   0  0  0  0  0  0  0  0  0  0  0  0
  -21.9220   -4.1910   23.8020 C   0  0  0  0  0  3  0  0  0  0  0  0
  -22.0800   -4.9520   22.6300 C   0  0  0  0  0  0  0  0  0  0  0  0
  -22.5630   -4.3650   21.5090 F   0  0  0  0  0  0  0  0  0  0  0  0
  -21.2440   -4.0530   26.0880 F   0  0  0  0  0  0  0  0  0  0  0  0
  -22.9390  -13.6470   21.1820 C   0  0  0  0  0  0  0  0  0  0  0  0
  -22.2530  -12.9320   22.0670 N   0  0  0  0  0  0  0  0  0  0  0  0
  -22.4820  -14.6920   20.7180 O   0  0  0  0  0  0  0  0  0  0  0  0
  -22.6350  -12.0860   22.4620 H   0  0  0  0  0  0  0  0  0  0  0  0
  -21.3320  -13.2340   22.3530 H   0  0  0  0  0  0  0  0  0  0  0  0
  -25.5310  -15.3120   20.2440 N   0  0  0  0  0  0  0  0  0  0  0  0
  -24.7810  -15.9740   20.4130 H   0  0  0  0  0  0  0  0  0  0  0  0
  -26.3750  -15.7500   19.8940 H   0  0  0  0  0  0  0  0  0  0  0  0
  1  3  1  0
  2  1  1  0
  2  5  1  0
  2  3  1  0
  3 50  1  0
  4  7  1  0
  4  5  2  0
  5  6  1  0
  8 10  1  0
  8  7  1  0
  9 20  2  0
 10 15  1  0
 11 19  1  0
 11 21  1  0
 12 18  1  0
 12 14  1  0
 13 19  1  0
 14 13  1  0
 15 14  2  0
 16 17  1  0
 16 10  2  0
 17 12  2  0
 18 11  1  0
 19  9  1  0
 21 23  2  0
 22 21  1  0
 24 22  1  0
 25 34  2  0
 25 30  1  0
 26 22  1  0
 26 30  1  0
 27 26  1  0
 28 29  1  0
 28 27  1  0
 29 25  1  0
 30 31  2  0
 31 32  1  0
 33 32  2  0
 34 33  1  0
 35  9  1  0
 35 36  1  0
 35 45  1  0
 36 39  1  0
 37 41  1  0
 37 36  1  0
 38 37  2  0
 41 40  1  0
 43 41  1  0
 43 44  1  0
 43 42  1  0
 45 48  1  1
 45 46  1  0
 47 45  1  0
 50 49  1  0
 50 52  1  0
 51 52  2  0
 51 53  1  0
 54 62  1  0
 55 60  1  0
 56 57  1  0
 56 55  1  0
 58 57  1  0
 58 67  1  0
 58 59  1  0
 60 54  1  0
 60 59  1  0
 61 54  2  0
 62 53  1  0
 62 63  1  0
 64 65  2  0
 65 84  1  0
 66 65  1  0
 66 69  1  0
 67 68  1  0
 67 64  1  0
 68 66  2  0
 69 70  1  0
 70 71  2  0
 72 75  1  0
 72 71  1  0
 73 72  2  0
 74 73  1  0
 74 69  2  0
 75 76  1  0
 76 81  2  0
 76 77  1  0
 77 78  2  0
 78 79  1  0
 79 83  1  0
 80 79  2  0
 81 80  1  0
 82 81  1  0
 84 85  1  0
 85 88  1  0
 85 87  1  0
 86 84  2  0
 89 64  1  0
 89 90  1  0
 91 89  1  0
M  ISO  4   7 101   8 101  54 100  62 100
M  END
>  <TORSDO>  (19) 
F 21

>  <SCORE>  (19) 
-12.707

>  <name>  (19) 
18

>  <ligand_id>  (19) 
18

>  <original_smiles>  (19) 
[H]C(=C(C([H])([H])[H])C1([H])C([H])([H])C1([H])C([H])(C([H])=C([H])C([H])([H])N([H])C(=O)N1C([H])([H])C([H])([H])C([H])([H])C([H])(n2nc(-c3c([H])c([H])c(Oc4c([H])c([H])c(F)c([H])c4F)c([H])c3[H])c(C(=O)N([H])[H])c2N([H])[H])C1([H])[H])C([H])([H])[H])C([H])([H])Oc1c([H])c([H])c2c(c1[H])C([H])([H])N(C(=O)C([H])(N([H])C(=O)C([H])(N([H])C([H])([H])[H])C([H])([H])[H])C(C([H])([H])[H])(C([H])([H])[H])C([H])([H])[H])C([H])(C(=O)N([H])C1([H])c3c([H])c([H])c([H])c([H])c3C([H])([H])C([H])([H])C1([H])[H])C2([H])[H]

>  <smiles>  (19) 
[H]C(=C(C([H])([H])[H])C1([H])C([H])([H])C1([H])C([H])(C([H])=C([H])C([H])([H])N([H])C(=O)N1C([H])([H])C([H])([H])C([H])([H])C([H])(n2nc(-c3c([H])c([H])c(Oc4c([H])c([H])c(F)c([H])c4F)c([H])c3[H])c(C(=O)N([H])[H])c2N([H])[H])C1([H])[H])C([H])([H])[H])C([H])([H])Oc1c([H])c([H])c2c(c1[H])C([H])([H])N(C(=O)C([H])(N([H])C(=O)C([H])(N([H])C([H])([H])[H])C([H])([H])[H])C(C([H])([H])[H])(C([H])([H])[H])C([H])([H])[H])C([H])(C(=O)N([H])C1([H])c3c([H])c([H])c([H])c([H])c3C([H])([H])C([H])([H])C1([H])[H])C2([H])[H]

$$$$
19:0:0
     RDKit          3D

 91 99  0  0  1  0  0  0  0  0999 V2000
  -27.9780  -20.5170   20.5860 C   0  0  0  0  0  0  0  0  0  0  0  0
  -28.1180  -21.8280   21.3580 C   0  0  0  0  0  2  0  0  0  0  0  0
  -29.3980  -20.6910   20.0300 C   0  0  0  0  0  3  0  0  0  0  0  0
  -29.3980  -22.0580   20.6520 N   0  0  1  0  0  4  0  0  0  0  0  0
  -27.0900  -19.6630   20.4780 O   0  0  0  0  0  0  0  0  0  0  0  0
  -30.1600  -22.1560   21.3050 H   0  0  0  0  0  0  0  0  0  0  0  0
  -30.2940  -19.5950   20.6540 C   0  0  0  0  0  3  0  0  0  0  0  0
  -30.4920  -18.3570   20.1310 C   0  0  0  0  0  3  0  0  0  0  0  0
  -31.3520  -17.2350   20.7400 C   0  0  0  0  0  2  0  0  0  0  0  0
  -31.3380  -14.8050   20.0110 C   0  0  0  0  0  0  0  0  0  0  0  0
  -30.9180  -12.6070   18.9540 C   0  0  0  0  0  2  0  0  0  0  0  0
  -29.9360  -12.7600   17.7720 C   0  0  0  0  0  2  0  0  0  0  0  0
  -28.4810  -12.6550   18.2650 C   0  0  0  0  0  2  0  0  0  0  0  0
  -28.2010  -13.5690   19.4900 C   0  0  0  0  0  3  0  0  0  0  0  0
  -29.2960  -13.4070   20.5700 C   0  0  0  0  0  2  0  0  0  0  0  0
  -30.6050  -13.6540   19.9450 N   0  0  0  0  0  0  0  0  0  0  0  0
  -32.4260  -14.9220   19.4430 O   0  0  0  0  0  0  0  0  0  0  0  0
  -30.7730  -15.8690   20.6320 N   0  0  0  0  0  0  0  0  0  0  0  0
  -29.8830  -15.7070   21.0830 H   0  0  0  0  0  0  0  0  0  0  0  0
  -25.8860  -14.2650   20.3800 C   0  0  0  0  0  0  0  0  0  0  0  0
  -24.7950  -13.5330   20.7680 C   0  0  0  0  0  0  0  0  0  0  0  0
  -25.1720  -12.1610   20.6310 C   0  0  0  0  0  0  0  0  0  0  0  0
  -26.8620  -13.3410   20.0330 N   0  0  0  0  0  0  0  0  0  0  0  0
  -26.4400  -12.0690   20.2460 N   0  0  0  0  0  0  0  0  0  0  0  0
  -24.3840  -10.9330   20.7900 C   0  0  0  0  0  0  0  0  0  0  0  0
  -24.7570   -9.9250   21.7070 C   0  0  0  0  0  3  0  0  0  0  0  0
  -23.9680   -8.7630   21.8550 C   0  0  0  0  0  3  0  0  0  0  0  0
  -22.7920   -8.5990   21.0840 C   0  0  0  0  0  0  0  0  0  0  0  0
  -22.4370   -9.5960   20.1580 C   0  0  0  0  0  3  0  0  0  0  0  0
  -23.2270  -10.7490   20.0080 C   0  0  0  0  0  3  0  0  0  0  0  0
  -21.9850   -7.4900   21.1410 O   0  0  0  0  0  0  0  0  0  0  0  0
  -21.8190   -6.7760   22.3010 C   0  0  0  0  0  0  0  0  0  0  0  0
  -21.2830   -7.3680   23.4670 C   0  0  0  0  0  3  0  0  0  0  0  0
  -21.0690   -6.5830   24.6190 C   0  0  0  0  0  3  0  0  0  0  0  0
  -21.3800   -5.2100   24.6030 C   0  0  0  0  0  0  0  0  0  0  0  0
  -21.9100   -4.6200   23.4430 C   0  0  0  0  0  3  0  0  0  0  0  0
  -22.1270   -5.4020   22.2950 C   0  0  0  0  0  0  0  0  0  0  0  0
  -22.6170   -4.8240   21.1700 F   0  0  0  0  0  0  0  0  0  0  0  0
  -21.1680   -4.4540   25.7050 F   0  0  0  0  0  0  0  0  0  0  0  0
  -23.4480  -14.0740   21.1530 C   0  0  0  0  0  0  0  0  0  0  0  0
  -22.7310  -13.3770   22.0290 N   0  0  0  0  0  0  0  0  0  0  0  0
  -23.0420  -15.1480   20.7160 O   0  0  0  0  0  0  0  0  0  0  0  0
  -23.0690  -12.5030   22.4070 H   0  0  0  0  0  0  0  0  0  0  0  0
  -21.8330  -13.7300   22.3310 H   0  0  0  0  0  0  0  0  0  0  0  0
  -26.1230  -15.6300   20.2720 N   0  0  0  0  0  0  0  0  0  0  0  0
  -25.4070  -16.3280   20.4440 H   0  0  0  0  0  0  0  0  0  0  0  0
  -26.9870  -16.0260   19.9240 H   0  0  0  0  0  0  0  0  0  0  0  0
  -29.3690  -23.2280   19.7050 C   0  0  0  0  0  3  0  0  0  0  0  0
  -29.0710  -24.6120   20.3710 C   0  0  0  0  0  3  0  0  0  0  0  0
  -29.1320  -25.8370   19.4140 C   0  0  0  0  0  2  0  0  0  0  0  0
  -28.8570  -27.0730   20.1010 O   0  0  0  0  0  0  0  0  0  0  0  0
  -24.6500  -31.8680   23.2660 C   0  0  0  0  0  0  0  0  0  0  0  0
  -27.6050  -27.6680   20.0970 C   0  0  0  0  0  0  0  0  0  0  0  0
  -23.5530  -30.4630   21.5460 C   0  0  0  0  0  3  0  0  0  0  0  0
  -25.1150  -29.0410   20.1110 C   0  0  0  0  0  0  0  0  0  0  0  0
  -26.0570  -30.9530   21.4200 C   0  0  0  0  0  2  0  0  0  0  0  0
  -26.2260  -29.6020   20.7500 C   0  0  0  0  0  0  0  0  0  0  0  0
  -27.4660  -28.9210   20.7440 C   0  0  0  0  0  3  0  0  0  0  0  0
  -26.4660  -27.1120   19.4670 C   0  0  0  0  0  3  0  0  0  0  0  0
  -25.2310  -27.7930   19.4690 C   0  0  0  0  0  3  0  0  0  0  0  0
  -23.8260  -29.8350   20.1490 C   0  0  0  0  0  2  0  0  0  0  0  0
  -24.7700  -31.1110   22.1370 N   0  0  0  0  0  0  0  0  0  0  0  0
  -23.5440  -32.0690   23.7870 O   0  0  0  0  0  0  0  0  0  0  0  0
  -22.9310  -29.3850   22.4620 C   0  0  0  0  0  0  0  0  0  0  0  0
  -21.6200  -29.1460   22.2900 N   0  0  0  0  0  0  0  0  0  0  0  0
  -23.6250  -28.7670   23.2760 O   0  0  0  0  0  0  0  0  0  0  0  0
  -21.1260  -29.6990   21.6050 H   0  0  0  0  0  0  0  0  0  0  0  0
  -18.3010  -27.7680   22.6440 C   0  0  0  0  0  0  0  0  0  0  0  0
  -20.8300  -28.1390   22.9970 C   0  0  0  0  0  3  0  0  0  0  0  0
  -21.0200  -26.7400   22.3680 C   0  0  0  0  0  2  0  0  0  0  0  0
  -19.9670  -26.4050   21.3060 C   0  0  0  0  0  2  0  0  0  0  0  0
  -18.5590  -26.4640   21.9060 C   0  0  0  0  0  2  0  0  0  0  0  0
  -19.3670  -28.5660   23.1330 C   0  0  0  0  0  0  0  0  0  0  0  0
  -19.0690  -29.7870   23.7760 C   0  0  0  0  0  3  0  0  0  0  0  0
  -17.7380  -30.2190   23.9160 C   0  0  0  0  0  3  0  0  0  0  0  0
  -16.6840  -29.4190   23.4390 C   0  0  0  0  0  3  0  0  0  0  0  0
  -16.9690  -28.1920   22.8150 C   0  0  0  0  0  3  0  0  0  0  0  0
  -25.8880  -32.5340   23.9400 C   0  0  0  0  0  3  0  0  0  0  0  0
  -25.5340  -33.9280   24.2340 N   0  0  0  0  0  0  0  0  0  0  0  0
  -25.8620  -34.9770   23.4650 C   0  0  0  0  0  0  0  0  0  0  0  0
  -26.5720  -34.8750   22.4610 O   0  0  0  0  0  0  0  0  0  0  0  0
  -24.9140  -34.0810   25.0160 H   0  0  0  0  0  0  0  0  0  0  0  0
  -24.0950  -36.7090   23.0110 C   0  0  0  0  0  1  0  0  0  0  0  0
  -25.3170  -36.3590   23.8760 C   0  0  0  0  0  3  0  0  0  0  0  0
  -27.3890  -37.3340   24.7640 C   0  0  0  0  0  1  0  0  0  0  0  0
  -26.3220  -37.4380   23.7710 N   0  0  0  0  0  0  0  0  0  0  0  0
  -25.8840  -38.3500   23.8660 H   0  0  0  0  0  0  0  0  0  0  0  0
  -26.3590  -31.7900   25.2500 C   0  0  1  0  0  0  0  0  0  0  0  0
  -25.2230  -31.5330   26.2660 C   0  0  0  0  0  1  0  0  0  0  0  0
  -27.0050  -30.4270   24.8980 C   0  0  0  0  0  1  0  0  0  0  0  0
  -27.4510  -32.6240   25.9630 C   0  0  0  0  0  1  0  0  0  0  0  0
  1  2  1  0
  3  1  1  0
  3  4  1  0
  3  7  1  0
  4  6  1  1
  4  2  1  0
  5  1  2  0
  8  7  2  0
  8  9  1  0
 10 18  1  0
 11 16  1  0
 12 13  1  0
 12 11  1  0
 14 13  1  0
 14 23  1  0
 14 15  1  0
 16 10  1  0
 16 15  1  0
 17 10  2  0
 18  9  1  0
 18 19  1  0
 20 21  2  0
 21 40  1  0
 22 21  1  0
 22 25  1  0
 23 24  1  0
 23 20  1  0
 24 22  2  0
 25 26  1  0
 26 27  2  0
 28 31  1  0
 28 27  1  0
 29 28  2  0
 30 29  1  0
 30 25  2  0
 31 32  1  0
 32 33  1  0
 33 34  2  0
 35 34  1  0
 35 39  1  0
 36 35  2  0
 37 32  2  0
 37 36  1  0
 38 37  1  0
 40 41  1  0
 41 44  1  0
 41 43  1  0
 42 40  2  0
 45 20  1  0
 45 46  1  0
 47 45  1  0
 48 49  2  0
 48  4  1  0
 50 51  1  0
 50 49  1  0
 52 63  2  0
 53 51  1  0
 53 58  1  0
 54 62  1  0
 54 64  1  0
 55 61  1  0
 55 57  1  0
 56 62  1  0
 57 56  1  0
 58 57  2  0
 59 60  1  0
 59 53  2  0
 60 55  2  0
 61 54  1  0
 62 52  1  0
 64 66  2  0
 65 64  1  0
 67 65  1  0
 68 77  2  0
 68 73  1  0
 69 65  1  0
 69 73  1  0
 70 69  1  0
 71 72  1  0
 71 70  1  0
 72 68  1  0
 73 74  2  0
 74 75  1  0
 76 75  2  0
 77 76  1  0
 78 52  1  0
 78 79  1  0
 78 88  1  0
 79 82  1  0
 80 84  1  0
 80 79  1  0
 81 80  2  0
 84 83  1  0
 86 87  1  0
 86 84  1  0
 86 85  1  0
 88 91  1  1
 88 89  1  0
 90 88  1  0
M  ISO  4  10 100  18 100  50 101  51 101
M  END
>  <TORSDO>  (20) 
F 21

>  <SCORE>  (20) 
-12.067

>  <name>  (20) 
19

>  <ligand_id>  (20) 
19

>  <original_smiles>  (20) 
[H]C(=C([H])C1([H])C(=O)C([H])([H])[N+]1([H])C([H])([H])C([H])([H])C([H])([H])Oc1c([H])c([H])c2c(c1[H])C([H])([H])N(C(=O)C([H])(N([H])C(=O)C([H])(N([H])C([H])([H])[H])C([H])([H])[H])C(C([H])([H])[H])(C([H])([H])[H])C([H])([H])[H])C([H])(C(=O)N([H])C1([H])c3c([H])c([H])c([H])c([H])c3C([H])([H])C([H])([H])C1([H])[H])C2([H])[H])C([H])([H])N([H])C(=O)N1C([H])([H])C([H])([H])C([H])([H])C([H])(n2nc(-c3c([H])c([H])c(Oc4c([H])c([H])c(F)c([H])c4F)c([H])c3[H])c(C(=O)N([H])[H])c2N([H])[H])C1([H])[H]

>  <smiles>  (20) 
[H]C(=C([H])C1([H])C(=O)C([H])([H])[N+]1([H])C([H])([H])C([H])([H])C([H])([H])Oc1c([H])c([H])c2c(c1[H])C([H])([H])N(C(=O)C([H])(N([H])C(=O)C([H])(N([H])C([H])([H])[H])C([H])([H])[H])C(C([H])([H])[H])(C([H])([H])[H])C([H])([H])[H])C([H])(C(=O)N([H])C1([H])c3c([H])c([H])c([H])c([H])c3C([H])([H])C([H])([H])C1([H])[H])C2([H])[H])C([H])([H])N([H])C(=O)N1C([H])([H])C([H])([H])C([H])([H])C([H])(n2nc(-c3c([H])c([H])c(Oc4c([H])c([H])c(F)c([H])c4F)c([H])c3[H])c(C(=O)N([H])[H])c2N([H])[H])C1([H])[H]

$$$$
20:0:0
     RDKit          3D

 94103  0  0  1  0  0  0  0  0999 V2000
  -31.1640  -17.9920   21.0440 C   0  0  0  0  0  2  0  0  0  0  0  0
  -30.0210  -17.2330   20.3610 C   0  0  0  0  0  3  0  0  0  0  0  0
  -28.8720  -18.2680   20.6320 C   0  0  0  0  0  3  0  0  0  0  0  0
  -29.5270  -19.6870   20.3380 C   0  0  0  0  0  3  0  0  0  0  0  0
  -30.9390  -19.4400   20.7450 N   0  0  0  0  0  4  0  0  0  0  0  0
  -31.5600  -19.7360   20.0100 H   0  0  0  0  0  0  0  0  0  0  0  0
  -31.1550  -19.9660   21.5740 H   0  0  0  0  0  0  0  0  0  0  0  0
  -30.5810  -14.6960   20.4270 C   0  0  0  0  0  0  0  0  0  0  0  0
  -30.3750  -12.4530   19.3690 C   0  0  0  0  0  2  0  0  0  0  0  0
  -29.4470  -12.5760   18.1400 C   0  0  0  0  0  2  0  0  0  0  0  0
  -27.9700  -12.4230   18.5580 C   0  0  0  0  0  2  0  0  0  0  0  0
  -27.5990  -13.2960   19.7870 C   0  0  0  0  0  3  0  0  0  0  0  0
  -28.6440  -13.1440   20.9170 C   0  0  0  0  0  2  0  0  0  0  0  0
  -29.9560  -13.4770   20.3510 N   0  0  0  0  0  0  0  0  0  0  0  0
  -31.7430  -14.8400   20.0360 O   0  0  0  0  0  0  0  0  0  0  0  0
  -29.8020  -15.7840   20.7350 N   0  0  0  0  0  0  0  0  0  0  0  0
  -28.8630  -15.5710   21.0330 H   0  0  0  0  0  0  0  0  0  0  0  0
  -25.1990  -13.9070   20.4710 C   0  0  0  0  0  0  0  0  0  0  0  0
  -24.1250  -13.1370   20.8340 C   0  0  0  0  0  0  0  0  0  0  0  0
  -24.5840  -11.7860   20.8250 C   0  0  0  0  0  0  0  0  0  0  0  0
  -26.2440  -13.0220   20.2590 N   0  0  0  0  0  0  0  0  0  0  0  0
  -25.8780  -11.7410   20.5330 N   0  0  0  0  0  0  0  0  0  0  0  0
  -23.8530  -10.5250   21.0200 C   0  0  0  0  0  0  0  0  0  0  0  0
  -24.2800   -9.5610   21.9580 C   0  0  0  0  0  3  0  0  0  0  0  0
  -23.5500   -8.3670   22.1420 C   0  0  0  0  0  3  0  0  0  0  0  0
  -22.3760   -8.1300   21.3860 C   0  0  0  0  0  0  0  0  0  0  0  0
  -21.9680   -9.0830   20.4380 C   0  0  0  0  0  3  0  0  0  0  0  0
  -22.7000  -10.2690   20.2530 C   0  0  0  0  0  3  0  0  0  0  0  0
  -21.6180   -6.9880   21.4790 O   0  0  0  0  0  0  0  0  0  0  0  0
  -21.5760   -6.2420   22.6300 C   0  0  0  0  0  0  0  0  0  0  0  0
  -21.1790   -6.8000   23.8640 C   0  0  0  0  0  3  0  0  0  0  0  0
  -21.0820   -5.9820   25.0070 C   0  0  0  0  0  3  0  0  0  0  0  0
  -21.3720   -4.6080   24.9180 C   0  0  0  0  0  0  0  0  0  0  0  0
  -21.7630   -4.0490   23.6880 C   0  0  0  0  0  3  0  0  0  0  0  0
  -21.8600   -4.8640   22.5460 C   0  0  0  0  0  0  0  0  0  0  0  0
  -22.2160   -4.3160   21.3590 F   0  0  0  0  0  0  0  0  0  0  0  0
  -21.2720   -3.8200   26.0140 F   0  0  0  0  0  0  0  0  0  0  0  0
  -22.7250  -13.6200   21.0820 C   0  0  0  0  0  0  0  0  0  0  0  0
  -21.9850  -12.9340   21.9470 N   0  0  0  0  0  0  0  0  0  0  0  0
  -22.2950  -14.6400   20.5460 O   0  0  0  0  0  0  0  0  0  0  0  0
  -22.3430  -12.1070   22.4010 H   0  0  0  0  0  0  0  0  0  0  0  0
  -21.0440  -13.2390   22.1570 H   0  0  0  0  0  0  0  0  0  0  0  0
  -25.3650  -15.2760   20.2810 N   0  0  0  0  0  0  0  0  0  0  0  0
  -24.5940  -15.9260   20.3810 H   0  0  0  0  0  0  0  0  0  0  0  0
  -26.2200  -15.7340   19.9770 H   0  0  0  0  0  0  0  0  0  0  0  0
  -27.7580  -17.9300   19.7610 N   0  0  0  0  0  0  0  0  0  0  0  0
  -28.0360  -18.0520   18.7930 H   0  0  0  0  0  0  0  0  0  0  0  0
  -27.0280  -18.6230   19.8910 H   0  0  0  0  0  0  0  0  0  0  0  0
  -28.9180  -21.0420   20.9760 C   0  0  0  0  0  2  0  0  0  0  0  0
  -27.2670  -22.8530   20.0080 C   0  0  0  0  0  2  0  0  0  0  0  0
  -28.6890  -22.3390   20.0780 C   0  0  0  0  0  3  0  0  0  0  0  0
  -28.2960  -23.8290   20.5230 C   0  0  0  0  0  3  0  0  0  0  0  0
  -28.5000  -25.1680   19.6910 C   0  0  0  0  0  2  0  0  0  0  0  0
  -28.3940  -26.5260   20.2880 O   0  0  0  0  0  0  0  0  0  0  0  0
  -24.6180  -31.9010   23.2440 C   0  0  0  0  0  0  0  0  0  0  0  0
  -27.2480  -27.3350   20.2090 C   0  0  0  0  0  0  0  0  0  0  0  0
  -23.4160  -30.4920   21.6100 C   0  0  0  0  0  3  0  0  0  0  0  0
  -24.8720  -28.9360   20.1900 C   0  0  0  0  0  0  0  0  0  0  0  0
  -25.9520  -30.8230   21.4180 C   0  0  0  0  0  2  0  0  0  0  0  0
  -26.0370  -29.4380   20.7830 C   0  0  0  0  0  0  0  0  0  0  0  0
  -27.2220  -28.6440   20.7890 C   0  0  0  0  0  3  0  0  0  0  0  0
  -26.0560  -26.8840   19.5990 C   0  0  0  0  0  3  0  0  0  0  0  0
  -24.8810  -27.6650   19.5960 C   0  0  0  0  0  3  0  0  0  0  0  0
  -23.6290  -29.8060   20.2340 C   0  0  0  0  0  2  0  0  0  0  0  0
  -24.6820  -31.0900   22.1480 N   0  0  0  0  0  0  0  0  0  0  0  0
  -23.5350  -32.1760   23.7800 O   0  0  0  0  0  0  0  0  0  0  0  0
  -22.7560  -29.4780   22.5770 C   0  0  0  0  0  0  0  0  0  0  0  0
  -21.4290  -29.2970   22.4550 N   0  0  0  0  0  0  0  0  0  0  0  0
  -23.4370  -28.8540   23.3940 O   0  0  0  0  0  0  0  0  0  0  0  0
  -20.9360  -29.8500   21.7690 H   0  0  0  0  0  0  0  0  0  0  0  0
  -18.0550  -28.1020   22.9610 C   0  0  0  0  0  0  0  0  0  0  0  0
  -20.6130  -28.3590   23.2290 C   0  0  0  0  0  3  0  0  0  0  0  0
  -20.7170  -26.9290   22.6520 C   0  0  0  0  0  2  0  0  0  0  0  0
  -19.6130  -26.6080   21.6400 C   0  0  0  0  0  2  0  0  0  0  0  0
  -18.2300  -26.7530   22.2850 C   0  0  0  0  0  2  0  0  0  0  0  0
  -19.1760  -28.8640   23.3890 C   0  0  0  0  0  0  0  0  0  0  0  0
  -18.9600  -30.1300   23.9760 C   0  0  0  0  0  3  0  0  0  0  0  0
  -17.6540  -30.6310   24.1440 C   0  0  0  0  0  3  0  0  0  0  0  0
  -16.5490  -29.8650   23.7370 C   0  0  0  0  0  3  0  0  0  0  0  0
  -16.7500  -28.6040   23.1480 C   0  0  0  0  0  3  0  0  0  0  0  0
  -25.8980  -32.5410   23.8650 C   0  0  0  0  0  3  0  0  0  0  0  0
  -26.4190  -31.7740   25.1420 C   0  0  1  0  0  0  0  0  0  0  0  0
  -25.3250  -31.5340   26.2080 C   0  0  0  0  0  1  0  0  0  0  0  0
  -27.0040  -30.3980   24.7450 C   0  0  0  0  0  1  0  0  0  0  0  0
  -27.5710  -32.5680   25.8010 C   0  0  0  0  0  1  0  0  0  0  0  0
  -25.5870  -33.9390   24.1960 N   0  0  0  0  0  0  0  0  0  0  0  0
  -25.9130  -34.9920   23.4340 C   0  0  0  0  0  0  0  0  0  0  0  0
  -26.5770  -34.8880   22.3980 O   0  0  0  0  0  0  0  0  0  0  0  0
  -25.0030  -34.0930   25.0060 H   0  0  0  0  0  0  0  0  0  0  0  0
  -24.1770  -36.7760   23.0810 C   0  0  0  0  0  1  0  0  0  0  0  0
  -25.4220  -36.3790   23.8900 C   0  0  0  0  0  3  0  0  0  0  0  0
  -27.5560  -37.2750   24.7070 C   0  0  0  0  0  1  0  0  0  0  0  0
  -26.4500  -37.4350   23.7690 N   0  0  0  0  0  0  0  0  0  0  0  0
  -26.0410  -38.3540   23.9150 H   0  0  0  0  0  0  0  0  0  0  0  0
  2  3  1  0
  2 16  1  0
  2  1  1  0
  3 46  1  0
  4  3  1  0
  4  5  1  0
  4 49  1  0
  5  1  1  0
  5  7  1  0
  6  5  1  0
  8 16  1  0
  9 14  1  0
 10 11  1  0
 10  9  1  0
 12 11  1  0
 12 21  1  0
 12 13  1  0
 14  8  1  0
 14 13  1  0
 15  8  2  0
 16 17  1  0
 18 19  2  0
 19 38  1  0
 20 19  1  0
 20 23  1  0
 21 18  1  0
 21 22  1  0
 22 20  2  0
 23 24  1  0
 24 25  2  0
 26 29  1  0
 26 25  1  0
 27 26  2  0
 28 27  1  0
 28 23  2  0
 29 30  1  0
 30 31  1  0
 31 32  2  0
 33 32  1  0
 33 37  1  0
 34 33  2  0
 35 30  2  0
 35 34  1  0
 36 35  1  0
 38 39  1  0
 39 42  1  0
 39 41  1  0
 40 38  2  0
 43 44  1  0
 43 18  1  0
 45 43  1  0
 46 48  1  0
 47 46  1  0
 50 51  1  0
 50 52  1  0
 51 52  1  0
 51 49  1  0
 52 53  1  0
 53 54  1  0
 55 66  2  0
 56 54  1  0
 56 61  1  0
 57 65  1  0
 57 67  1  0
 58 64  1  0
 58 60  1  0
 59 65  1  0
 60 61  2  0
 60 59  1  0
 62 56  2  0
 63 62  1  0
 63 58  2  0
 64 57  1  0
 65 55  1  0
 67 69  2  0
 68 67  1  0
 70 68  1  0
 71 80  2  0
 71 76  1  0
 72 68  1  0
 72 76  1  0
 73 72  1  0
 74 75  1  0
 74 73  1  0
 75 71  1  0
 76 77  2  0
 77 78  1  0
 79 78  2  0
 80 79  1  0
 81 55  1  0
 81 86  1  0
 81 82  1  0
 82 85  1  1
 82 83  1  0
 84 82  1  0
 86 89  1  0
 87 91  1  0
 87 86  1  0
 88 87  2  0
 91 90  1  0
 93 91  1  0
 93 94  1  0
 93 92  1  0
M  ISO  4   8 100  16 100  53 101  54 101
M  END
>  <TORSDO>  (21) 
F 20

>  <SCORE>  (21) 
-14.194

>  <name>  (21) 
20

>  <ligand_id>  (21) 
20

>  <original_smiles>  (21) 
[H]c1c([H])c([H])c2c(c1[H])C([H])([H])C([H])([H])C([H])([H])C2([H])N([H])C(=O)C1([H])N(C(=O)C([H])(N([H])C(=O)C([H])(N([H])C([H])([H])[H])C([H])([H])[H])C(C([H])([H])[H])(C([H])([H])[H])C([H])([H])[H])C([H])([H])c2c([H])c(OC([H])([H])C3([H])C([H])([H])C3([H])C([H])([H])C3([H])C([H])(N([H])[H])C([H])(N([H])C(=O)N4C([H])([H])C([H])([H])C([H])([H])C([H])(n5nc(-c6c([H])c([H])c(Oc7c([H])c([H])c(F)c([H])c7F)c([H])c6[H])c(C(=O)N([H])[H])c5N([H])[H])C4([H])[H])C([H])([H])[N+]3([H])[H])c([H])c([H])c2C1([H])[H]

>  <smiles>  (21) 
[H]c1c([H])c([H])c2c(c1[H])C([H])([H])C([H])([H])C([H])([H])C2([H])N([H])C(=O)C1([H])N(C(=O)C([H])(N([H])C(=O)C([H])(N([H])C([H])([H])[H])C([H])([H])[H])C(C([H])([H])[H])(C([H])([H])[H])C([H])([H])[H])C([H])([H])c2c([H])c(OC([H])([H])C3([H])C([H])([H])C3([H])C([H])([H])C3([H])C([H])(N([H])[H])C([H])(N([H])C(=O)N4C([H])([H])C([H])([H])C([H])([H])C([H])(n5nc(-c6c([H])c([H])c(Oc7c([H])c([H])c(F)c([H])c7F)c([H])c6[H])c(C(=O)N([H])[H])c5N([H])[H])C4([H])[H])C([H])([H])[N+]3([H])[H])c([H])c([H])c2C1([H])[H]

$$$$
21:0:0
     RDKit          3D

 91 99  0  0  1  0  0  0  0  0999 V2000
  -30.4180  -18.6080   21.8770 C   0  0  0  0  0  2  0  0  0  0  0  0
  -29.3510  -19.1840   19.8370 C   0  0  0  0  0  2  0  0  0  0  0  0
  -29.8650  -20.1010   21.8880 C   0  0  0  0  0  3  0  0  0  0  0  0
  -30.2950  -17.9810   20.4580 C   0  0  0  0  0  3  0  0  0  0  0  0
  -29.6430  -20.5770   20.4870 N   0  0  2  0  0  4  0  0  0  0  0  0
  -30.5390  -20.8530   20.1210 H   0  0  0  0  0  0  0  0  0  0  0  0
  -30.7940  -15.2220   20.2560 C   0  0  0  0  0  0  0  0  0  0  0  0
  -30.7100  -12.8280   19.3890 C   0  0  0  0  0  2  0  0  0  0  0  0
  -29.7930  -12.7070   18.1460 C   0  0  0  0  0  2  0  0  0  0  0  0
  -28.3180  -12.5050   18.5600 C   0  0  0  0  0  2  0  0  0  0  0  0
  -27.8900  -13.4830   19.6870 C   0  0  0  0  0  3  0  0  0  0  0  0
  -28.9270  -13.5480   20.8260 C   0  0  0  0  0  2  0  0  0  0  0  0
  -30.2030  -13.9540   20.2250 N   0  0  0  0  0  0  0  0  0  0  0  0
  -31.9960  -15.2810   19.9780 O   0  0  0  0  0  0  0  0  0  0  0  0
  -30.0060  -16.4080   20.4030 N   0  0  0  0  0  0  0  0  0  0  0  0
  -29.0340  -16.1860   20.5580 H   0  0  0  0  0  0  0  0  0  0  0  0
  -25.5190  -14.1010   20.4290 C   0  0  0  0  0  0  0  0  0  0  0  0
  -24.4420  -13.3460   20.8040 C   0  0  0  0  0  0  0  0  0  0  0  0
  -24.8850  -11.9870   20.7750 C   0  0  0  0  0  0  0  0  0  0  0  0
  -26.5460  -13.2050   20.1850 N   0  0  0  0  0  0  0  0  0  0  0  0
  -26.1730  -11.9260   20.4590 N   0  0  0  0  0  0  0  0  0  0  0  0
  -24.1350  -10.7390   20.9610 C   0  0  0  0  0  0  0  0  0  0  0  0
  -24.5220   -9.7860   21.9290 C   0  0  0  0  0  3  0  0  0  0  0  0
  -23.7790   -8.6000   22.1060 C   0  0  0  0  0  3  0  0  0  0  0  0
  -22.6300   -8.3590   21.3180 C   0  0  0  0  0  0  0  0  0  0  0  0
  -22.2620   -9.2990   20.3390 C   0  0  0  0  0  3  0  0  0  0  0  0
  -23.0070  -10.4760   20.1600 C   0  0  0  0  0  3  0  0  0  0  0  0
  -21.8520   -7.2300   21.4070 O   0  0  0  0  0  0  0  0  0  0  0  0
  -21.7370   -6.5240   22.5780 C   0  0  0  0  0  0  0  0  0  0  0  0
  -21.1760   -7.0980   23.7380 C   0  0  0  0  0  3  0  0  0  0  0  0
  -21.0080   -6.3170   24.8980 C   0  0  0  0  0  3  0  0  0  0  0  0
  -21.3890   -4.9620   24.8990 C   0  0  0  0  0  0  0  0  0  0  0  0
  -21.9430   -4.3870   23.7420 C   0  0  0  0  0  3  0  0  0  0  0  0
  -22.1110   -5.1660   22.5850 C   0  0  0  0  0  0  0  0  0  0  0  0
  -22.6250   -4.5990   21.4650 F   0  0  0  0  0  0  0  0  0  0  0  0
  -21.2220   -4.2100   26.0130 F   0  0  0  0  0  0  0  0  0  0  0  0
  -23.0530  -13.8450   21.0710 C   0  0  0  0  0  0  0  0  0  0  0  0
  -22.3040  -13.1660   21.9330 N   0  0  0  0  0  0  0  0  0  0  0  0
  -22.6380  -14.8780   20.5470 O   0  0  0  0  0  0  0  0  0  0  0  0
  -22.6460  -12.3340   22.3900 H   0  0  0  0  0  0  0  0  0  0  0  0
  -21.3660  -13.4850   22.1400 H   0  0  0  0  0  0  0  0  0  0  0  0
  -25.7050  -15.4670   20.2430 N   0  0  0  0  0  0  0  0  0  0  0  0
  -24.9390  -16.1290   20.3190 H   0  0  0  0  0  0  0  0  0  0  0  0
  -26.5240  -15.8690   19.8080 H   0  0  0  0  0  0  0  0  0  0  0  0
  -30.7250  -21.0460   22.7190 C   0  0  0  0  0  3  0  0  0  0  0  0
  -30.5010  -21.3250   23.9360 N   0  0  0  0  0  0  0  0  0  0  0  0
  -29.6870  -20.8490   24.3140 H   0  0  0  0  0  0  0  0  0  0  0  0
  -28.6790  -21.8510   20.2990 C   0  0  0  0  0  2  0  0  0  0  0  0
  -29.1090  -23.4890   20.4890 C   0  0  0  0  0  3  0  0  0  0  0  0
  -28.0750  -24.8210   20.2770 C   0  0  0  0  0  3  0  0  0  0  0  0
  -28.3660  -26.3550   20.4080 O   0  0  0  0  0  0  0  0  0  0  0  0
  -24.5970  -31.9440   23.3700 C   0  0  0  0  0  0  0  0  0  0  0  0
  -27.3150  -27.3430   20.3060 C   0  0  0  0  0  0  0  0  0  0  0  0
  -23.4640  -30.5730   21.6630 C   0  0  0  0  0  3  0  0  0  0  0  0
  -24.9740  -29.0690   20.2290 C   0  0  0  0  0  0  0  0  0  0  0  0
  -26.0130  -30.8900   21.5650 C   0  0  0  0  0  2  0  0  0  0  0  0
  -26.1290  -29.5150   20.8840 C   0  0  0  0  0  0  0  0  0  0  0  0
  -27.3020  -28.6690   20.9030 C   0  0  0  0  0  3  0  0  0  0  0  0
  -26.1390  -27.0100   19.5990 C   0  0  0  0  0  3  0  0  0  0  0  0
  -24.9940  -27.8340   19.5640 C   0  0  0  0  0  3  0  0  0  0  0  0
  -23.7270  -29.9360   20.2740 C   0  0  0  0  0  2  0  0  0  0  0  0
  -24.7120  -31.1570   22.2550 N   0  0  0  0  0  0  0  0  0  0  0  0
  -23.4940  -32.1960   23.8750 O   0  0  0  0  0  0  0  0  0  0  0  0
  -22.7780  -29.5300   22.5820 C   0  0  0  0  0  0  0  0  0  0  0  0
  -21.4560  -29.3390   22.4150 N   0  0  0  0  0  0  0  0  0  0  0  0
  -23.4390  -28.8930   23.4040 O   0  0  0  0  0  0  0  0  0  0  0  0
  -20.9810  -29.9040   21.7250 H   0  0  0  0  0  0  0  0  0  0  0  0
  -18.0750  -28.1130   22.8310 C   0  0  0  0  0  0  0  0  0  0  0  0
  -20.6300  -28.3680   23.1350 C   0  0  0  0  0  3  0  0  0  0  0  0
  -20.7410  -26.9640   22.4980 C   0  0  0  0  0  2  0  0  0  0  0  0
  -19.6490  -26.6830   21.4610 C   0  0  0  0  0  2  0  0  0  0  0  0
  -18.2600  -26.7960   22.0960 C   0  0  0  0  0  2  0  0  0  0  0  0
  -19.1870  -28.8610   23.3050 C   0  0  0  0  0  0  0  0  0  0  0  0
  -18.9540  -30.0950   23.9490 C   0  0  0  0  0  3  0  0  0  0  0  0
  -17.6450  -30.5840   24.1210 C   0  0  0  0  0  3  0  0  0  0  0  0
  -16.5470  -29.8310   23.6660 C   0  0  0  0  0  3  0  0  0  0  0  0
  -16.7650  -28.5960   23.0280 C   0  0  0  0  0  3  0  0  0  0  0  0
  -25.8500  -32.5790   24.0480 C   0  0  0  0  0  3  0  0  0  0  0  0
  -26.2800  -31.8360   25.3730 C   0  0  1  0  0  0  0  0  0  0  0  0
  -25.1200  -31.6240   26.3740 C   0  0  0  0  0  1  0  0  0  0  0  0
  -26.8780  -30.4480   25.0530 C   0  0  0  0  0  1  0  0  0  0  0  0
  -27.3950  -32.6400   26.0820 C   0  0  0  0  0  1  0  0  0  0  0  0
  -25.5430  -33.9910   24.3260 N   0  0  0  0  0  0  0  0  0  0  0  0
  -25.8930  -35.0170   23.5400 C   0  0  0  0  0  0  0  0  0  0  0  0
  -26.5690  -34.8730   22.5180 O   0  0  0  0  0  0  0  0  0  0  0  0
  -24.9480  -34.1770   25.1210 H   0  0  0  0  0  0  0  0  0  0  0  0
  -24.1630  -36.7940   23.1280 C   0  0  0  0  0  1  0  0  0  0  0  0
  -25.4130  -36.4260   23.9440 C   0  0  0  0  0  3  0  0  0  0  0  0
  -27.5470  -37.3560   24.7260 C   0  0  0  0  0  1  0  0  0  0  0  0
  -26.4470  -37.4710   23.7730 N   0  0  0  0  0  0  0  0  0  0  0  0
  -26.0430  -38.3990   23.8630 H   0  0  0  0  0  0  0  0  0  0  0  0
  1  3  1  0
  2  4  1  0
  2  5  1  0
  3 45  1  0
  4 15  1  0
  4  1  1  0
  5  3  1  0
  5  6  1  6
  7 15  1  0
  8 13  1  0
  9 10  1  0
  9  8  1  0
 11 10  1  0
 11 20  1  0
 11 12  1  0
 13  7  1  0
 13 12  1  0
 14  7  2  0
 15 16  1  0
 17 18  2  0
 18 37  1  0
 19 18  1  0
 19 22  1  0
 20 17  1  0
 20 21  1  0
 21 19  2  0
 22 23  1  0
 23 24  2  0
 25 28  1  0
 25 24  1  0
 26 25  2  0
 27 26  1  0
 27 22  2  0
 28 29  1  0
 29 34  2  0
 29 30  1  0
 30 31  2  0
 31 32  1  0
 32 36  1  0
 33 32  2  0
 34 33  1  0
 35 34  1  0
 37 38  1  0
 38 41  1  0
 38 40  1  0
 39 37  2  0
 42 43  1  0
 42 17  1  0
 44 42  1  0
 45 46  2  0
 46 47  1  0
 48  5  1  0
 48 49  1  0
 50 51  1  0
 50 49  2  0
 52 63  2  0
 53 51  1  0
 53 58  1  0
 54 62  1  0
 54 64  1  0
 55 61  1  0
 55 57  1  0
 56 62  1  0
 57 58  2  0
 57 56  1  0
 59 53  2  0
 60 59  1  0
 60 55  2  0
 61 54  1  0
 62 52  1  0
 64 66  2  0
 65 64  1  0
 67 65  1  0
 68 77  2  0
 68 73  1  0
 69 65  1  0
 69 73  1  0
 70 69  1  0
 71 72  1  0
 71 70  1  0
 72 68  1  0
 73 74  2  0
 74 75  1  0
 76 75  2  0
 77 76  1  0
 78 52  1  0
 78 83  1  0
 78 79  1  0
 79 82  1  1
 79 80  1  0
 81 79  1  0
 83 86  1  0
 84 88  1  0
 84 83  1  0
 85 84  2  0
 88 87  1  0
 90 91  1  0
 90 88  1  0
 90 89  1  0
M  ISO  4   7 100  15 100  50 101  51 101
M  END
>  <TORSDO>  (22) 
F 20

>  <SCORE>  (22) 
-14.566

>  <name>  (22) 
21

>  <ligand_id>  (22) 
21

>  <original_smiles>  (22) 
[H]N=C([H])C1([H])C([H])([H])C([H])(N([H])C(=O)N2C([H])([H])C([H])([H])C([H])([H])C([H])(n3nc(-c4c([H])c([H])c(Oc5c([H])c([H])c(F)c([H])c5F)c([H])c4[H])c(C(=O)N([H])[H])c3N([H])[H])C2([H])[H])C([H])([H])[N+]1([H])C([H])([H])C([H])([H])C([H])([H])Oc1c([H])c([H])c2c(c1[H])C([H])([H])N(C(=O)C([H])(N([H])C(=O)C([H])(N([H])C([H])([H])[H])C([H])([H])[H])C(C([H])([H])[H])(C([H])([H])[H])C([H])([H])[H])C([H])(C(=O)N([H])C1([H])c3c([H])c([H])c([H])c([H])c3C([H])([H])C([H])([H])C1([H])[H])C2([H])[H]

>  <smiles>  (22) 
[H]N=C([H])C1([H])C([H])([H])C([H])(N([H])C(=O)N2C([H])([H])C([H])([H])C([H])([H])C([H])(n3nc(-c4c([H])c([H])c(Oc5c([H])c([H])c(F)c([H])c5F)c([H])c4[H])c(C(=O)N([H])[H])c3N([H])[H])C2([H])[H])C([H])([H])[N+]1([H])C([H])([H])C([H])([H])C([H])([H])Oc1c([H])c([H])c2c(c1[H])C([H])([H])N(C(=O)C([H])(N([H])C(=O)C([H])(N([H])C([H])([H])[H])C([H])([H])[H])C(C([H])([H])[H])(C([H])([H])[H])C([H])([H])[H])C([H])(C(=O)N([H])C1([H])c3c([H])c([H])c([H])c([H])c3C([H])([H])C([H])([H])C1([H])[H])C2([H])[H]

$$$$
22:0:0
     RDKit          3D

 95104  0  0  1  0  0  0  0  0999 V2000
  -29.8450  -21.0780   21.8910 C   0  0  0  0  0  2  0  0  0  0  0  0
  -28.4950  -21.7850   21.6060 C   0  0  0  0  0  3  0  0  0  0  0  0
  -29.0350  -22.1050   20.2040 C   0  0  0  0  0  3  0  0  0  0  0  0
  -29.9900  -20.8590   20.4500 N   0  0  0  0  0  0  0  0  0  0  0  0
  -27.2920  -20.9220   21.6230 N   0  0  0  0  0  4  0  0  0  0  0  0
  -27.3950  -20.1400   21.0040 H   0  0  0  0  0  0  0  0  0  0  0  0
  -26.4840  -21.4430   21.3310 H   0  0  0  0  0  0  0  0  0  0  0  0
  -27.1110  -20.5800   22.5490 H   0  0  0  0  0  0  0  0  0  0  0  0
  -29.6990  -19.3360   20.1750 C   0  0  0  0  0  2  0  0  0  0  0  0
  -31.2010  -15.3850   20.6860 C   0  0  0  0  0  0  0  0  0  0  0  0
  -31.2170  -12.9200   20.1050 C   0  0  0  0  0  2  0  0  0  0  0  0
  -30.4250  -12.6280   18.8100 C   0  0  0  0  0  2  0  0  0  0  0  0
  -28.9190  -12.4680   19.1050 C   0  0  0  0  0  2  0  0  0  0  0  0
  -28.3640  -13.5300   20.0940 C   0  0  0  0  0  3  0  0  0  0  0  0
  -29.3000  -13.7640   21.2950 C   0  0  0  0  0  2  0  0  0  0  0  0
  -30.6150  -14.1200   20.7500 N   0  0  0  0  0  0  0  0  0  0  0  0
  -32.4360  -15.4270   20.7130 O   0  0  0  0  0  0  0  0  0  0  0  0
  -31.6580  -18.1820   19.0340 C   0  0  0  0  0  0  0  0  0  0  0  0
  -31.0800  -17.2150   18.0480 C   0  0  0  0  0  2  0  0  0  0  0  0
  -30.0310  -16.4460   18.8680 C   0  0  0  0  0  2  0  0  0  0  0  0
  -30.8300  -18.0820   20.2920 C   0  0  0  0  0  3  0  0  0  0  0  0
  -32.6630  -18.9240   18.8420 N   0  0  0  0  0  0  0  0  0  0  0  0
  -30.4450  -16.5400   20.2810 N   0  0  0  0  0  0  0  0  0  0  0  0
  -33.0440  -18.8120   17.9080 H   0  0  0  0  0  0  0  0  0  0  0  0
  -25.9450  -14.1520   20.6350 C   0  0  0  0  0  0  0  0  0  0  0  0
  -24.8430  -13.3960   20.9230 C   0  0  0  0  0  0  0  0  0  0  0  0
  -25.2910  -12.0400   20.9530 C   0  0  0  0  0  0  0  0  0  0  0  0
  -26.9920  -13.2560   20.4950 N   0  0  0  0  0  0  0  0  0  0  0  0
  -26.6040  -11.9830   20.7560 N   0  0  0  0  0  0  0  0  0  0  0  0
  -24.5350  -10.7910   21.1010 C   0  0  0  0  0  0  0  0  0  0  0  0
  -24.8630   -9.8430   22.0940 C   0  0  0  0  0  3  0  0  0  0  0  0
  -24.1100   -8.6570   22.2280 C   0  0  0  0  0  3  0  0  0  0  0  0
  -23.0140   -8.4120   21.3660 C   0  0  0  0  0  0  0  0  0  0  0  0
  -22.7070   -9.3480   20.3630 C   0  0  0  0  0  3  0  0  0  0  0  0
  -23.4610  -10.5250   20.2290 C   0  0  0  0  0  3  0  0  0  0  0  0
  -22.2390   -7.2780   21.4060 O   0  0  0  0  0  0  0  0  0  0  0  0
  -22.0320   -6.5900   22.5760 C   0  0  0  0  0  0  0  0  0  0  0  0
  -21.4450   -7.1990   23.7060 C   0  0  0  0  0  3  0  0  0  0  0  0
  -21.1870   -6.4350   24.8620 C   0  0  0  0  0  3  0  0  0  0  0  0
  -21.5050   -5.0650   24.8860 C   0  0  0  0  0  0  0  0  0  0  0  0
  -22.0850   -4.4550   23.7590 C   0  0  0  0  0  3  0  0  0  0  0  0
  -22.3440   -5.2160   22.6060 C   0  0  0  0  0  0  0  0  0  0  0  0
  -22.8840   -4.6190   21.5160 F   0  0  0  0  0  0  0  0  0  0  0  0
  -21.2510   -4.3290   25.9940 F   0  0  0  0  0  0  0  0  0  0  0  0
  -23.4340  -13.8960   21.0620 C   0  0  0  0  0  0  0  0  0  0  0  0
  -22.6270  -13.2340   21.8830 N   0  0  0  0  0  0  0  0  0  0  0  0
  -23.0550  -14.9100   20.4780 O   0  0  0  0  0  0  0  0  0  0  0  0
  -22.9440  -12.4150   22.3810 H   0  0  0  0  0  0  0  0  0  0  0  0
  -21.6780  -13.5500   22.0130 H   0  0  0  0  0  0  0  0  0  0  0  0
  -26.1410  -15.5190   20.4540 N   0  0  0  0  0  0  0  0  0  0  0  0
  -25.3730  -16.1800   20.4990 H   0  0  0  0  0  0  0  0  0  0  0  0
  -27.0240  -15.9510   20.2160 H   0  0  0  0  0  0  0  0  0  0  0  0
  -29.5190  -23.7060   20.0290 C   0  0  0  0  0  3  0  0  0  0  0  0
  -28.4440  -24.9920   19.9260 C   0  0  0  0  0  3  0  0  0  0  0  0
  -28.7310  -26.5200   20.0100 O   0  0  0  0  0  0  0  0  0  0  0  0
  -24.8850  -31.8330   23.3710 C   0  0  0  0  0  0  0  0  0  0  0  0
  -27.6590  -27.4830   20.0070 C   0  0  0  0  0  0  0  0  0  0  0  0
  -23.7750  -30.5910   21.5550 C   0  0  0  0  0  3  0  0  0  0  0  0
  -25.3050  -29.1860   20.0470 C   0  0  0  0  0  0  0  0  0  0  0  0
  -26.3290  -30.9070   21.5250 C   0  0  0  0  0  2  0  0  0  0  0  0
  -26.4530  -29.5880   20.7440 C   0  0  0  0  0  0  0  0  0  0  0  0
  -27.6320  -28.7550   20.7070 C   0  0  0  0  0  3  0  0  0  0  0  0
  -26.4840  -27.1880   19.2780 C   0  0  0  0  0  3  0  0  0  0  0  0
  -25.3330  -28.0020   19.3010 C   0  0  0  0  0  3  0  0  0  0  0  0
  -24.0640  -30.0570   20.1270 C   0  0  0  0  0  2  0  0  0  0  0  0
  -25.0140  -31.1260   22.2080 N   0  0  0  0  0  0  0  0  0  0  0  0
  -23.7740  -32.0520   23.8760 O   0  0  0  0  0  0  0  0  0  0  0  0
  -23.0760  -29.4850   22.3830 C   0  0  0  0  0  0  0  0  0  0  0  0
  -21.7480  -29.3400   22.2140 N   0  0  0  0  0  0  0  0  0  0  0  0
  -23.7290  -28.7640   23.1420 O   0  0  0  0  0  0  0  0  0  0  0  0
  -21.2800  -29.9740   21.5810 H   0  0  0  0  0  0  0  0  0  0  0  0
  -18.3360  -28.1880   22.6070 C   0  0  0  0  0  0  0  0  0  0  0  0
  -20.9060  -28.3300   22.8600 C   0  0  0  0  0  3  0  0  0  0  0  0
  -20.9520  -26.9910   22.0890 C   0  0  0  0  0  2  0  0  0  0  0  0
  -19.8260  -26.8490   21.0590 C   0  0  0  0  0  2  0  0  0  0  0  0
  -18.4580  -26.9440   21.7420 C   0  0  0  0  0  2  0  0  0  0  0  0
  -19.4860  -28.8470   23.1180 C   0  0  0  0  0  0  0  0  0  0  0  0
  -19.3160  -30.0170   23.8890 C   0  0  0  0  0  3  0  0  0  0  0  0
  -18.0320  -30.5280   24.1510 C   0  0  0  0  0  3  0  0  0  0  0  0
  -16.8970  -29.8650   23.6540 C   0  0  0  0  0  3  0  0  0  0  0  0
  -17.0510  -28.6940   22.8890 C   0  0  0  0  0  3  0  0  0  0  0  0
  -26.1260  -32.4200   24.1100 C   0  0  0  0  0  3  0  0  0  0  0  0
  -26.5600  -31.5660   25.3650 C   0  0  1  0  0  0  0  0  0  0  0  0
  -25.4040  -31.2720   26.3490 C   0  0  0  0  0  1  0  0  0  0  0  0
  -27.1580  -30.2080   24.9280 C   0  0  0  0  0  1  0  0  0  0  0  0
  -27.6750  -32.3060   26.1410 C   0  0  0  0  0  1  0  0  0  0  0  0
  -25.7990  -33.7960   24.5140 N   0  0  0  0  0  0  0  0  0  0  0  0
  -26.1480  -34.8950   23.8330 C   0  0  0  0  0  0  0  0  0  0  0  0
  -26.8470  -34.8570   22.8180 O   0  0  0  0  0  0  0  0  0  0  0  0
  -25.1830  -33.8980   25.3070 H   0  0  0  0  0  0  0  0  0  0  0  0
  -24.4110  -36.6960   23.5570 C   0  0  0  0  0  1  0  0  0  0  0  0
  -25.6440  -36.2530   24.3630 C   0  0  0  0  0  3  0  0  0  0  0  0
  -27.7530  -37.1080   25.2840 C   0  0  0  0  0  1  0  0  0  0  0  0
  -26.6700  -37.3190   24.3280 N   0  0  0  0  0  0  0  0  0  0  0  0
  -26.2520  -38.2250   24.5170 H   0  0  0  0  0  0  0  0  0  0  0  0
  2  5  1  0
  2  1  1  0
  3 53  1  0
  3  4  1  0
  3  2  1  0
  4  1  1  0
  5  8  1  0
  6  5  1  0
  7  5  1  0
  9  4  1  0
 10 17  2  0
 10 16  1  0
 11 16  1  0
 12 13  1  0
 12 11  1  0
 14 13  1  0
 14 28  1  0
 14 15  1  0
 16 15  1  0
 18 21  1  0
 19 20  1  0
 19 18  1  0
 20 23  1  0
 21  9  1  0
 22 18  2  0
 23 21  1  0
 23 10  1  0
 24 22  1  0
 25 26  2  0
 26 27  1  0
 26 45  1  0
 27 30  1  0
 28 25  1  0
 28 29  1  0
 29 27  2  0
 30 31  1  0
 31 32  2  0
 33 36  1  0
 33 32  1  0
 34 33  2  0
 35 34  1  0
 35 30  2  0
 36 37  1  0
 37 42  2  0
 37 38  1  0
 38 39  2  0
 39 40  1  0
 40 44  1  0
 41 40  2  0
 42 41  1  0
 43 42  1  0
 45 46  1  0
 46 49  1  0
 46 48  1  0
 47 45  2  0
 50 51  1  0
 50 25  1  0
 52 50  1  0
 54 55  1  0
 54 53  2  0
 56 67  2  0
 57 55  1  0
 57 62  1  0
 58 66  1  0
 58 68  1  0
 59 65  1  0
 59 61  1  0
 60 66  1  0
 61 60  1  0
 62 61  2  0
 63 64  1  0
 63 57  2  0
 64 59  2  0
 65 58  1  0
 66 56  1  0
 68 70  2  0
 69 68  1  0
 71 69  1  0
 72 81  2  0
 72 77  1  0
 73 69  1  0
 73 77  1  0
 74 73  1  0
 75 76  1  0
 75 74  1  0
 76 72  1  0
 77 78  2  0
 78 79  1  0
 80 79  2  0
 81 80  1  0
 82 56  1  0
 82 87  1  0
 82 83  1  0
 83 86  1  1
 83 84  1  0
 85 83  1  0
 87 90  1  0
 88 92  1  0
 88 87  1  0
 89 88  2  0
 92 91  1  0
 94 92  1  0
 94 95  1  0
 94 93  1  0
M  ISO  4  10 100  23 100  54 101  55 101
M  END
>  <TORSDO>  (23) 
F 20

>  <SCORE>  (23) 
-11.608

>  <name>  (23) 
22

>  <ligand_id>  (23) 
22

>  <original_smiles>  (23) 
[H]N=C1C([H])([H])C([H])([H])N(C(=O)N2C([H])([H])C([H])([H])C([H])([H])C([H])(n3nc(-c4c([H])c([H])c(Oc5c([H])c([H])c(F)c([H])c5F)c([H])c4[H])c(C(=O)N([H])[H])c3N([H])[H])C2([H])[H])C1([H])C([H])([H])N1C([H])([H])C([H])([N+]([H])([H])[H])C1([H])C([H])([H])C([H])([H])Oc1c([H])c([H])c2c(c1[H])C([H])([H])N(C(=O)C([H])(N([H])C(=O)C([H])(N([H])C([H])([H])[H])C([H])([H])[H])C(C([H])([H])[H])(C([H])([H])[H])C([H])([H])[H])C([H])(C(=O)N([H])C1([H])c3c([H])c([H])c([H])c([H])c3C([H])([H])C([H])([H])C1([H])[H])C2([H])[H]

>  <smiles>  (23) 
[H]N=C1C([H])([H])C([H])([H])N(C(=O)N2C([H])([H])C([H])([H])C([H])([H])C([H])(n3nc(-c4c([H])c([H])c(Oc5c([H])c([H])c(F)c([H])c5F)c([H])c4[H])c(C(=O)N([H])[H])c3N([H])[H])C2([H])[H])C1([H])C([H])([H])N1C([H])([H])C([H])([N+]([H])([H])[H])C1([H])C([H])([H])C([H])([H])Oc1c([H])c([H])c2c(c1[H])C([H])([H])N(C(=O)C([H])(N([H])C(=O)C([H])(N([H])C([H])([H])[H])C([H])([H])[H])C(C([H])([H])[H])(C([H])([H])[H])C([H])([H])[H])C([H])(C(=O)N([H])C1([H])c3c([H])c([H])c([H])c([H])c3C([H])([H])C([H])([H])C1([H])[H])C2([H])[H]

$$$$
23:0:0
     RDKit          3D

 98106  0  0  1  0  0  0  0  0999 V2000
  -29.7350  -19.1380   21.4990 C   0  0  0  0  0  0  0  0  0  0  0  0
  -29.6930  -20.6870   21.5540 C   0  0  0  0  0  2  0  0  0  0  0  0
  -29.4860  -19.1250   19.9680 C   0  0  0  0  0  3  0  0  0  0  0  0
  -29.8830  -20.6720   20.1030 N   0  0  0  0  0  0  0  0  0  0  0  0
  -29.9190  -18.2610   22.3510 O   0  0  0  0  0  0  0  0  0  0  0  0
  -29.7170  -22.0800   19.4260 C   0  0  0  0  0  2  0  0  0  0  0  0
  -28.5350  -23.2930   19.5710 C   0  0  0  0  0  3  0  0  0  0  0  0
  -27.9240  -23.5010   18.2420 N   0  0  0  0  0  4  0  0  0  0  0  0
  -28.5350  -24.0270   17.6390 H   0  0  0  0  0  0  0  0  0  0  0  0
  -27.0630  -24.0100   18.3270 H   0  0  0  0  0  0  0  0  0  0  0  0
  -27.7180  -22.6240   17.7940 H   0  0  0  0  0  0  0  0  0  0  0  0
  -28.6160  -24.8080   20.3430 C   0  0  0  0  0  2  0  0  0  0  0  0
  -28.5960  -26.2810   19.8260 O   0  0  0  0  0  0  0  0  0  0  0  0
  -24.7340  -31.6560   23.1710 C   0  0  0  0  0  0  0  0  0  0  0  0
  -27.4770  -27.1840   19.9240 C   0  0  0  0  0  0  0  0  0  0  0  0
  -23.5830  -30.2940   21.4680 C   0  0  0  0  0  3  0  0  0  0  0  0
  -25.0860  -28.8370   19.9790 C   0  0  0  0  0  0  0  0  0  0  0  0
  -26.1250  -30.6630   21.3100 C   0  0  0  0  0  2  0  0  0  0  0  0
  -26.2510  -29.3020   20.6010 C   0  0  0  0  0  0  0  0  0  0  0  0
  -27.4510  -28.4960   20.5470 C   0  0  0  0  0  3  0  0  0  0  0  0
  -26.2750  -26.8050   19.2900 C   0  0  0  0  0  3  0  0  0  0  0  0
  -25.1100  -27.6020   19.3090 C   0  0  0  0  0  3  0  0  0  0  0  0
  -23.8310  -29.6920   20.0580 C   0  0  0  0  0  2  0  0  0  0  0  0
  -24.8330  -30.8930   22.0390 N   0  0  0  0  0  0  0  0  0  0  0  0
  -23.6400  -31.8730   23.7120 O   0  0  0  0  0  0  0  0  0  0  0  0
  -22.9410  -29.2160   22.3780 C   0  0  0  0  0  0  0  0  0  0  0  0
  -21.6240  -28.9870   22.2260 N   0  0  0  0  0  0  0  0  0  0  0  0
  -23.6320  -28.5950   23.1900 O   0  0  0  0  0  0  0  0  0  0  0  0
  -21.1170  -29.5440   21.5530 H   0  0  0  0  0  0  0  0  0  0  0  0
  -18.3030  -27.5940   22.6240 C   0  0  0  0  0  0  0  0  0  0  0  0
  -20.8390  -27.9820   22.9490 C   0  0  0  0  0  3  0  0  0  0  0  0
  -21.0270  -26.5760   22.3280 C   0  0  0  0  0  2  0  0  0  0  0  0
  -19.9600  -26.2320   21.2820 C   0  0  0  0  0  2  0  0  0  0  0  0
  -18.5630  -26.2810   21.9040 C   0  0  0  0  0  2  0  0  0  0  0  0
  -19.3710  -28.4010   23.1000 C   0  0  0  0  0  0  0  0  0  0  0  0
  -19.0720  -29.6260   23.7330 C   0  0  0  0  0  3  0  0  0  0  0  0
  -17.7380  -30.0480   23.8910 C   0  0  0  0  0  3  0  0  0  0  0  0
  -16.6850  -29.2400   23.4270 C   0  0  0  0  0  3  0  0  0  0  0  0
  -16.9680  -28.0130   22.8030 C   0  0  0  0  0  3  0  0  0  0  0  0
  -25.9910  -32.3070   23.8310 C   0  0  0  0  0  3  0  0  0  0  0  0
  -26.4900  -31.5370   25.1150 C   0  0  1  0  0  0  0  0  0  0  0  0
  -25.3730  -31.2760   26.1530 C   0  0  0  0  0  1  0  0  0  0  0  0
  -27.1100  -30.1740   24.7300 C   0  0  0  0  0  1  0  0  0  0  0  0
  -27.6120  -32.3450   25.8150 C   0  0  0  0  0  1  0  0  0  0  0  0
  -25.6520  -33.6990   24.1690 N   0  0  0  0  0  0  0  0  0  0  0  0
  -25.9750  -34.7650   23.4260 C   0  0  0  0  0  0  0  0  0  0  0  0
  -26.6560  -34.6830   22.3990 O   0  0  0  0  0  0  0  0  0  0  0  0
  -25.0740  -33.8400   24.9840 H   0  0  0  0  0  0  0  0  0  0  0  0
  -24.2160  -36.5270   23.0680 C   0  0  0  0  0  1  0  0  0  0  0  0
  -25.4580  -36.1410   23.8910 C   0  0  0  0  0  3  0  0  0  0  0  0
  -27.5580  -37.0620   24.7670 C   0  0  0  0  0  1  0  0  0  0  0  0
  -26.4730  -37.2150   23.8010 N   0  0  0  0  0  0  0  0  0  0  0  0
  -26.0450  -38.1250   23.9490 H   0  0  0  0  0  0  0  0  0  0  0  0
  -30.3250  -17.8160   19.2990 C   0  0  0  0  0  0  0  0  0  0  0  0
  -30.8430  -15.0670   19.5780 C   0  0  0  0  0  0  0  0  0  0  0  0
  -30.5970  -12.6970   18.7190 C   0  0  0  0  0  2  0  0  0  0  0  0
  -29.5500  -12.6580   17.5820 C   0  0  0  0  0  2  0  0  0  0  0  0
  -28.1370  -12.4560   18.1570 C   0  0  0  0  0  2  0  0  0  0  0  0
  -27.8550  -13.3880   19.3640 C   0  0  0  0  0  3  0  0  0  0  0  0
  -29.0180  -13.4170   20.3770 C   0  0  0  0  0  2  0  0  0  0  0  0
  -30.2230  -13.8150   19.6340 N   0  0  0  0  0  0  0  0  0  0  0  0
  -32.0130  -15.0830   19.1860 O   0  0  0  0  0  0  0  0  0  0  0  0
  -30.1120  -16.2850   19.7300 N   0  0  0  0  0  4  0  0  0  0  0  0
  -29.1790  -16.1110   20.0760 H   0  0  0  0  0  0  0  0  0  0  0  0
  -25.5910  -13.9670   20.4130 C   0  0  0  0  0  0  0  0  0  0  0  0
  -24.5560  -13.1920   20.8600 C   0  0  0  0  0  0  0  0  0  0  0  0
  -24.9740  -11.8350   20.6910 C   0  0  0  0  0  0  0  0  0  0  0  0
  -26.5740  -13.0840   19.9970 N   0  0  0  0  0  0  0  0  0  0  0  0
  -26.2200  -11.7920   20.2280 N   0  0  0  0  0  0  0  0  0  0  0  0
  -24.2340  -10.5800   20.8860 C   0  0  0  0  0  0  0  0  0  0  0  0
  -24.6650   -9.6060   21.8120 C   0  0  0  0  0  3  0  0  0  0  0  0
  -23.9270   -8.4170   21.9950 C   0  0  0  0  0  3  0  0  0  0  0  0
  -22.7420   -8.1950   21.2540 C   0  0  0  0  0  0  0  0  0  0  0  0
  -22.3310   -9.1560   20.3130 C   0  0  0  0  0  3  0  0  0  0  0  0
  -23.0690  -10.3390   20.1280 C   0  0  0  0  0  3  0  0  0  0  0  0
  -21.9740   -7.0580   21.3510 O   0  0  0  0  0  0  0  0  0  0  0  0
  -21.8370   -6.3810   22.5370 C   0  0  0  0  0  0  0  0  0  0  0  0
  -21.2520   -6.9780   23.6750 C   0  0  0  0  0  3  0  0  0  0  0  0
  -21.0660   -6.2220   24.8520 C   0  0  0  0  0  3  0  0  0  0  0  0
  -21.4550   -4.8700   24.8890 C   0  0  0  0  0  0  0  0  0  0  0  0
  -22.0340   -4.2720   23.7550 C   0  0  0  0  0  3  0  0  0  0  0  0
  -22.2190   -5.0230   22.5830 C   0  0  0  0  0  0  0  0  0  0  0  0
  -22.7560   -4.4360   21.4860 F   0  0  0  0  0  0  0  0  0  0  0  0
  -21.2710   -4.1430   26.0140 F   0  0  0  0  0  0  0  0  0  0  0  0
  -23.2120  -13.6790   21.3180 C   0  0  0  0  0  0  0  0  0  0  0  0
  -22.5740  -12.9520   22.2270 N   0  0  0  0  0  0  0  0  0  0  0  0
  -22.7440  -14.7380   20.9010 O   0  0  0  0  0  0  0  0  0  0  0  0
  -22.9710  -12.0950   22.5800 H   0  0  0  0  0  0  0  0  0  0  0  0
  -21.6800  -13.2610   22.5820 H   0  0  0  0  0  0  0  0  0  0  0  0
  -25.7710  -15.3430   20.2990 N   0  0  0  0  0  0  0  0  0  0  0  0
  -25.0520  -16.0010   20.5740 H   0  0  0  0  0  0  0  0  0  0  0  0
  -26.5520  -15.7910   19.8390 H   0  0  0  0  0  0  0  0  0  0  0  0
  -31.8150  -18.1890   19.0540 C   0  0  0  0  0  2  0  0  0  0  0  0
  -32.2740  -18.0140   17.5840 C   0  0  0  0  0  2  0  0  0  0  0  0
  -33.6860  -18.3840   17.3740 N   0  0  0  0  0  4  0  0  0  0  0  0
  -33.8530  -19.3380   17.6400 H   0  0  0  0  0  0  0  0  0  0  0  0
  -33.9240  -18.2860   16.4030 H   0  0  0  0  0  0  0  0  0  0  0  0
  -34.2990  -17.7870   17.9010 H   0  0  0  0  0  0  0  0  0  0  0  0
  1  2  1  0
  1  5  2  0
  3 54  1  0
  3  4  1  0
  3  1  1  0
  4  2  1  0
  6  4  1  0
  7  6  1  0
  7 12  1  0
  8 10  1  0
  8  7  1  0
  9  8  1  0
 11  8  1  0
 13 15  1  0
 13 12  1  0
 14 25  2  0
 15 20  1  0
 16 24  1  0
 16 26  1  0
 17 23  1  0
 17 19  1  0
 18 24  1  0
 19 18  1  0
 20 19  2  0
 21 22  1  0
 21 15  2  0
 22 17  2  0
 23 16  1  0
 24 14  1  0
 26 28  2  0
 27 26  1  0
 29 27  1  0
 30 39  2  0
 30 35  1  0
 31 27  1  0
 31 35  1  0
 32 31  1  0
 33 34  1  0
 33 32  1  0
 34 30  1  0
 35 36  2  0
 36 37  1  0
 38 37  2  0
 39 38  1  0
 40 14  1  0
 40 45  1  0
 40 41  1  0
 41 44  1  1
 41 42  1  0
 43 41  1  0
 45 48  1  0
 46 50  1  0
 46 45  1  0
 47 46  2  0
 50 49  1  0
 52 50  1  0
 52 53  1  0
 52 51  1  0
 54 63  2  0
 55 61  1  0
 55 63  1  0
 56 61  1  0
 57 58  1  0
 57 56  1  0
 59 58  1  0
 59 68  1  0
 59 60  1  0
 61 60  1  0
 62 55  2  0
 63 64  1  0
 65 66  2  0
 66 85  1  0
 67 66  1  0
 67 70  1  0
 68 69  1  0
 68 65  1  0
 69 67  2  0
 70 71  1  0
 71 72  2  0
 73 76  1  0
 73 72  1  0
 74 73  2  0
 75 74  1  0
 75 70  2  0
 76 77  1  0
 77 82  2  0
 77 78  1  0
 78 79  2  0
 79 80  1  0
 80 84  1  0
 81 80  2  0
 82 81  1  0
 83 82  1  0
 85 86  1  0
 86 88  1  0
 86 89  1  0
 87 85  2  0
 90 65  1  0
 90 91  1  0
 92 90  1  0
 93 54  1  0
 94 93  1  0
 95 94  1  0
 95 96  1  0
 95 98  1  0
 97 95  1  0
M  ISO  4  12 101  13 101  55 100  63 100
M  END
>  <TORSDO>  (24) 
F 24

>  <SCORE>  (24) 
-12.194

>  <name>  (24) 
23

>  <ligand_id>  (24) 
23

>  <original_smiles>  (24) 
[H]c1c([H])c([H])c2c(c1[H])C([H])([H])C([H])([H])C([H])([H])C2([H])N([H])C(=O)C1([H])N(C(=O)C([H])(N([H])C(=O)C([H])(N([H])C([H])([H])[H])C([H])([H])[H])C(C([H])([H])[H])(C([H])([H])[H])C([H])([H])[H])C([H])([H])c2c([H])c(OC([H])([H])C([H])(C([H])([H])N3C([H])([H])C(=O)C3([H])C([H])(N([H])C(=O)N3C([H])([H])C([H])([H])C([H])([H])C([H])(n4nc(-c5c([H])c([H])c(Oc6c([H])c([H])c(F)c([H])c6F)c([H])c5[H])c(C(=O)N([H])[H])c4N([H])[H])C3([H])[H])C([H])([H])C([H])([H])[N+]([H])([H])[H])[N+]([H])([H])[H])c([H])c([H])c2C1([H])[H]

>  <smiles>  (24) 
[H]c1c([H])c([H])c2c(c1[H])C([H])([H])C([H])([H])C([H])([H])C2([H])N([H])C(=O)C1([H])N(C(=O)C([H])(N([H])C(=O)C([H])(N([H])C([H])([H])[H])C([H])([H])[H])C(C([H])([H])[H])(C([H])([H])[H])C([H])([H])[H])C([H])([H])c2c([H])c(OC([H])([H])C([H])(C([H])([H])N3C([H])([H])C(=O)C3([H])C([H])(N([H])C(=O)N3C([H])([H])C([H])([H])C([H])([H])C([H])(n4nc(-c5c([H])c([H])c(Oc6c([H])c([H])c(F)c([H])c6F)c([H])c5[H])c(C(=O)N([H])[H])c4N([H])[H])C3([H])[H])C([H])([H])C([H])([H])[N+]([H])([H])[H])[N+]([H])([H])[H])c([H])c([H])c2C1([H])[H]

$$$$
24:0:0
     RDKit          3D

 93101  0  0  1  0  0  0  0  0999 V2000
  -29.3110  -21.7780   20.8270 C   0  0  0  0  0  0  0  0  0  0  0  0
  -28.7130  -20.4040   21.1310 C   0  0  0  0  0  2  0  0  0  0  0  0
  -30.9650  -20.0480   20.9310 C   0  0  0  0  0  2  0  0  0  0  0  0
  -30.7570  -21.5130   20.4780 C   0  0  0  0  0  3  0  0  0  0  0  0
  -28.6510  -22.8800   20.8690 N   0  0  0  0  0  0  0  0  0  0  0  0
  -29.6780  -19.4120   20.6310 N   0  0  0  0  0  0  0  0  0  0  0  0
  -30.9360  -21.6150   19.0210 N   0  0  0  0  0  4  0  0  0  0  0  0
  -30.3910  -20.8900   18.5890 H   0  0  0  0  0  0  0  0  0  0  0  0
  -31.8990  -21.4930   18.7700 H   0  0  0  0  0  0  0  0  0  0  0  0
  -30.6170  -22.5040   18.6810 H   0  0  0  0  0  0  0  0  0  0  0  0
  -29.2310  -24.2170   20.6450 C   0  0  0  0  0  2  0  0  0  0  0  0
  -28.1150  -25.1890   20.1680 C   0  0  0  0  0  2  0  0  0  0  0  0
  -28.3720  -26.6200   20.2170 O   0  0  0  0  0  0  0  0  0  0  0  0
  -24.6120  -31.8950   23.2490 C   0  0  0  0  0  0  0  0  0  0  0  0
  -27.2370  -27.4220   20.1600 C   0  0  0  0  0  0  0  0  0  0  0  0
  -23.4070  -30.5040   21.6010 C   0  0  0  0  0  3  0  0  0  0  0  0
  -24.8580  -28.9740   20.1680 C   0  0  0  0  0  0  0  0  0  0  0  0
  -25.9410  -30.8510   21.4090 C   0  0  0  0  0  2  0  0  0  0  0  0
  -26.0240  -29.4810   20.7580 C   0  0  0  0  0  0  0  0  0  0  0  0
  -27.2190  -28.7150   20.7460 C   0  0  0  0  0  3  0  0  0  0  0  0
  -26.0480  -26.9550   19.5460 C   0  0  0  0  0  3  0  0  0  0  0  0
  -24.8660  -27.7130   19.5610 C   0  0  0  0  0  3  0  0  0  0  0  0
  -23.6190  -29.8410   20.2170 C   0  0  0  0  0  2  0  0  0  0  0  0
  -24.6730  -31.0980   22.1450 N   0  0  0  0  0  0  0  0  0  0  0  0
  -23.5300  -32.1670   23.7870 O   0  0  0  0  0  0  0  0  0  0  0  0
  -22.7510  -29.4780   22.5530 C   0  0  0  0  0  0  0  0  0  0  0  0
  -21.4250  -29.3020   22.4270 N   0  0  0  0  0  0  0  0  0  0  0  0
  -23.4320  -28.8450   23.3650 O   0  0  0  0  0  0  0  0  0  0  0  0
  -20.9340  -29.8670   21.7490 H   0  0  0  0  0  0  0  0  0  0  0  0
  -18.0450  -28.1230   22.9290 C   0  0  0  0  0  0  0  0  0  0  0  0
  -20.6050  -28.3620   23.1940 C   0  0  0  0  0  3  0  0  0  0  0  0
  -20.6950  -26.9340   22.6080 C   0  0  0  0  0  2  0  0  0  0  0  0
  -19.5890  -26.6260   21.5930 C   0  0  0  0  0  2  0  0  0  0  0  0
  -18.2100  -26.7780   22.2420 C   0  0  0  0  0  2  0  0  0  0  0  0
  -19.1700  -28.8740   23.3620 C   0  0  0  0  0  0  0  0  0  0  0  0
  -18.9610  -30.1340   23.9630 C   0  0  0  0  0  3  0  0  0  0  0  0
  -17.6600  -30.6440   24.1340 C   0  0  0  0  0  3  0  0  0  0  0  0
  -16.5490  -29.8890   23.7170 C   0  0  0  0  0  3  0  0  0  0  0  0
  -16.7440  -28.6300   23.1210 C   0  0  0  0  0  3  0  0  0  0  0  0
  -25.8980  -32.5220   23.8740 C   0  0  0  0  0  3  0  0  0  0  0  0
  -25.5910  -33.9210   24.2010 N   0  0  0  0  0  0  0  0  0  0  0  0
  -25.9250  -34.9710   23.4400 C   0  0  0  0  0  0  0  0  0  0  0  0
  -26.5950  -34.8650   22.4090 O   0  0  0  0  0  0  0  0  0  0  0  0
  -24.9960  -34.0790   25.0010 H   0  0  0  0  0  0  0  0  0  0  0  0
  -24.2020  -36.7700   23.0800 C   0  0  0  0  0  1  0  0  0  0  0  0
  -25.4390  -36.3600   23.8950 C   0  0  0  0  0  3  0  0  0  0  0  0
  -27.5730  -37.2420   24.7330 C   0  0  0  0  0  1  0  0  0  0  0  0
  -26.4740  -37.4100   23.7860 N   0  0  0  0  0  0  0  0  0  0  0  0
  -26.0690  -38.3310   23.9300 H   0  0  0  0  0  0  0  0  0  0  0  0
  -26.4110  -31.7490   25.1510 C   0  0  1  0  0  0  0  0  0  0  0  0
  -25.3170  -31.5170   26.2180 C   0  0  0  0  0  1  0  0  0  0  0  0
  -26.9890  -30.3700   24.7570 C   0  0  0  0  0  1  0  0  0  0  0  0
  -27.5600  -32.5420   25.8160 C   0  0  0  0  0  1  0  0  0  0  0  0
  -29.4920  -18.0480   21.1690 C   0  0  0  0  0  2  0  0  0  0  0  0
  -30.3270  -16.9970   20.3790 C   0  0  0  0  0  2  0  0  0  0  0  0
  -30.6790  -14.5410   20.1170 C   0  0  0  0  0  0  0  0  0  0  0  0
  -30.3320  -12.4050   18.9360 C   0  0  0  0  0  2  0  0  0  0  0  0
  -29.3340  -12.6360   17.7820 C   0  0  0  0  0  2  0  0  0  0  0  0
  -27.8820  -12.4920   18.2740 C   0  0  0  0  0  2  0  0  0  0  0  0
  -27.6090  -13.2910   19.5740 C   0  0  0  0  0  3  0  0  0  0  0  0
  -28.7120  -13.0420   20.6280 C   0  0  0  0  0  2  0  0  0  0  0  0
  -30.0080  -13.3630   20.0080 N   0  0  0  0  0  0  0  0  0  0  0  0
  -31.7820  -14.7230   19.5940 O   0  0  0  0  0  0  0  0  0  0  0  0
  -29.9940  -15.5790   20.6470 N   0  0  0  0  0  0  0  0  0  0  0  0
  -29.0990  -15.3720   21.0670 H   0  0  0  0  0  0  0  0  0  0  0  0
  -25.2390  -13.8870   20.3840 C   0  0  0  0  0  0  0  0  0  0  0  0
  -24.1870  -13.1090   20.7890 C   0  0  0  0  0  0  0  0  0  0  0  0
  -24.6480  -11.7600   20.7240 C   0  0  0  0  0  0  0  0  0  0  0  0
  -26.2750  -13.0100   20.1030 N   0  0  0  0  0  0  0  0  0  0  0  0
  -25.9250  -11.7250   20.3660 N   0  0  0  0  0  0  0  0  0  0  0  0
  -23.9320  -10.4920   20.9300 C   0  0  0  0  0  0  0  0  0  0  0  0
  -24.3870   -9.5320   21.8600 C   0  0  0  0  0  3  0  0  0  0  0  0
  -23.6720   -8.3300   22.0550 C   0  0  0  0  0  3  0  0  0  0  0  0
  -22.4900   -8.0800   21.3200 C   0  0  0  0  0  0  0  0  0  0  0  0
  -22.0540   -9.0300   20.3790 C   0  0  0  0  0  3  0  0  0  0  0  0
  -22.7690  -10.2220   20.1820 C   0  0  0  0  0  3  0  0  0  0  0  0
  -21.7450   -6.9300   21.4250 O   0  0  0  0  0  0  0  0  0  0  0  0
  -21.6960   -6.2080   22.5890 C   0  0  0  0  0  0  0  0  0  0  0  0
  -21.2510   -6.7770   23.8010 C   0  0  0  0  0  3  0  0  0  0  0  0
  -21.1490   -5.9810   24.9590 C   0  0  0  0  0  3  0  0  0  0  0  0
  -21.4850   -4.6150   24.9050 C   0  0  0  0  0  0  0  0  0  0  0  0
  -21.9240   -4.0440   23.6980 C   0  0  0  0  0  3  0  0  0  0  0  0
  -22.0280   -4.8390   22.5430 C   0  0  0  0  0  0  0  0  0  0  0  0
  -22.4310   -4.2810   21.3770 F   0  0  0  0  0  0  0  0  0  0  0  0
  -21.3800   -3.8470   26.0140 F   0  0  0  0  0  0  0  0  0  0  0  0
  -22.8010  -13.5800   21.1220 C   0  0  0  0  0  0  0  0  0  0  0  0
  -22.1100  -12.8730   22.0090 N   0  0  0  0  0  0  0  0  0  0  0  0
  -22.3400  -14.6110   20.6330 O   0  0  0  0  0  0  0  0  0  0  0  0
  -22.4970  -12.0410   22.4290 H   0  0  0  0  0  0  0  0  0  0  0  0
  -21.1820  -13.1700   22.2740 H   0  0  0  0  0  0  0  0  0  0  0  0
  -25.3930  -15.2570   20.2050 N   0  0  0  0  0  0  0  0  0  0  0  0
  -24.6290  -15.9100   20.3360 H   0  0  0  0  0  0  0  0  0  0  0  0
  -26.2030  -15.6810   19.7690 H   0  0  0  0  0  0  0  0  0  0  0  0
  1  5  2  0
  1  2  1  0
  4  7  1  0
  4  1  1  0
  4  3  1  0
  6  3  1  0
  6  2  1  0
  6 54  1  0
  8  7  1  0
  9  7  1  0
 10  7  1  0
 11  5  1  0
 12 13  1  0
 12 11  1  0
 14 25  2  0
 15 13  1  0
 15 20  1  0
 16 24  1  0
 16 26  1  0
 17 23  1  0
 17 19  1  0
 18 24  1  0
 19 18  1  0
 20 19  2  0
 21 22  1  0
 21 15  2  0
 22 17  2  0
 23 16  1  0
 24 14  1  0
 26 28  2  0
 27 26  1  0
 29 27  1  0
 30 39  2  0
 30 35  1  0
 31 27  1  0
 31 35  1  0
 32 31  1  0
 33 34  1  0
 33 32  1  0
 34 30  1  0
 35 36  2  0
 36 37  1  0
 38 37  2  0
 39 38  1  0
 40 14  1  0
 40 41  1  0
 40 50  1  0
 41 44  1  0
 42 46  1  0
 42 41  1  0
 43 42  2  0
 46 45  1  0
 48 46  1  0
 48 49  1  0
 48 47  1  0
 50 53  1  1
 50 51  1  0
 52 50  1  0
 55 64  1  0
 55 54  1  0
 56 64  1  0
 57 62  1  0
 58 59  1  0
 58 57  1  0
 60 59  1  0
 60 69  1  0
 60 61  1  0
 62 56  1  0
 62 61  1  0
 63 56  2  0
 64 65  1  0
 66 67  2  0
 67 86  1  0
 68 67  1  0
 68 71  1  0
 69 70  1  0
 69 66  1  0
 70 68  2  0
 71 72  1  0
 72 73  2  0
 74 77  1  0
 74 73  1  0
 75 74  2  0
 76 75  1  0
 76 71  2  0
 77 78  1  0
 78 79  1  0
 79 80  2  0
 81 80  1  0
 81 85  1  0
 82 81  2  0
 83 78  2  0
 83 82  1  0
 84 83  1  0
 86 87  1  0
 87 90  1  0
 87 89  1  0
 88 86  2  0
 91 92  1  0
 91 66  1  0
 93 91  1  0
M  ISO  4  12 101  13 101  56 100  64 100
M  END
>  <TORSDO>  (25) 
F 21

>  <SCORE>  (25) 
-13.359

>  <name>  (25) 
24

>  <ligand_id>  (25) 
24

>  <original_smiles>  (25) 
[H]c1c([H])c([H])c2c(c1[H])C([H])([H])C([H])([H])C([H])([H])C2([H])N([H])C(=O)C1([H])N(C(=O)C([H])(N([H])C(=O)C([H])(N([H])C([H])([H])[H])C([H])([H])[H])C(C([H])([H])[H])(C([H])([H])[H])C([H])([H])[H])C([H])([H])c2c([H])c(OC([H])([H])C([H])([H])N=C3C([H])([H])N(C([H])([H])C([H])([H])N([H])C(=O)N4C([H])([H])C([H])([H])C([H])([H])C([H])(n5nc(-c6c([H])c([H])c(Oc7c([H])c([H])c(F)c([H])c7F)c([H])c6[H])c(C(=O)N([H])[H])c5N([H])[H])C4([H])[H])C([H])([H])C3([H])[N+]([H])([H])[H])c([H])c([H])c2C1([H])[H]

>  <smiles>  (25) 
[H]c1c([H])c([H])c2c(c1[H])C([H])([H])C([H])([H])C([H])([H])C2([H])N([H])C(=O)C1([H])N(C(=O)C([H])(N([H])C(=O)C([H])(N([H])C([H])([H])[H])C([H])([H])[H])C(C([H])([H])[H])(C([H])([H])[H])C([H])([H])[H])C([H])([H])c2c([H])c(OC([H])([H])C([H])([H])N=C3C([H])([H])N(C([H])([H])C([H])([H])N([H])C(=O)N4C([H])([H])C([H])([H])C([H])([H])C([H])(n5nc(-c6c([H])c([H])c(Oc7c([H])c([H])c(F)c([H])c7F)c([H])c6[H])c(C(=O)N([H])[H])c5N([H])[H])C4([H])[H])C([H])([H])C3([H])[N+]([H])([H])[H])c([H])c([H])c2C1([H])[H]

$$$$
25:0:0
     RDKit          3D

 95103  0  0  1  0  0  0  0  0999 V2000
  -30.0700  -22.5220   20.0930 C   0  0  0  0  0  0  0  0  0  0  0  0
  -28.3740  -22.1030   18.9700 C   0  0  0  0  0  2  0  0  0  0  0  0
  -29.3230  -21.2180   19.7910 C   0  0  0  0  0  3  0  0  0  0  0  0
  -29.1340  -23.2740   19.4310 N   0  0  0  0  0  0  0  0  0  0  0  0
  -31.0880  -22.8520   20.6660 O   0  0  0  0  0  0  0  0  0  0  0  0
  -30.4460  -18.9880   19.2520 C   0  0  0  0  0  0  0  0  0  0  0  0
  -31.1480  -18.3070   18.3260 N   0  0  0  0  0  4  0  0  0  0  0  0
  -30.0800  -20.2600   18.9670 N   0  0  0  0  0  0  0  0  0  0  0  0
  -31.4530  -17.3600   18.5120 H   0  0  0  0  0  0  0  0  0  0  0  0
  -31.4100  -18.6920   17.4290 H   0  0  0  0  0  0  0  0  0  0  0  0
  -30.4580  -20.6940   18.1370 H   0  0  0  0  0  0  0  0  0  0  0  0
  -30.0830  -18.2870   20.5520 C   0  0  0  0  0  2  0  0  0  0  0  0
  -31.2850  -17.4690   21.0930 C   0  0  0  0  0  2  0  0  0  0  0  0
  -30.9470  -16.3070   22.0580 C   0  0  0  0  0  2  0  0  0  0  0  0
  -30.7030  -14.3660   20.4700 C   0  0  0  0  0  0  0  0  0  0  0  0
  -30.2910  -12.3260   19.1420 C   0  0  0  0  0  2  0  0  0  0  0  0
  -29.3260  -12.6270   17.9800 C   0  0  0  0  0  2  0  0  0  0  0  0
  -27.8670  -12.4580   18.4340 C   0  0  0  0  0  2  0  0  0  0  0  0
  -27.5660  -13.2470   19.7320 C   0  0  0  0  0  3  0  0  0  0  0  0
  -28.6370  -12.9520   20.8080 C   0  0  0  0  0  2  0  0  0  0  0  0
  -29.9640  -13.2500   20.2400 N   0  0  0  0  0  0  0  0  0  0  0  0
  -31.7270  -14.6390   19.8380 O   0  0  0  0  0  0  0  0  0  0  0  0
  -30.2570  -15.1580   21.4570 N   0  0  0  0  0  0  0  0  0  0  0  0
  -29.4320  -14.8320   21.9390 H   0  0  0  0  0  0  0  0  0  0  0  0
  -25.1790  -13.8660   20.4650 C   0  0  0  0  0  0  0  0  0  0  0  0
  -24.1140  -13.0950   20.8450 C   0  0  0  0  0  0  0  0  0  0  0  0
  -24.5710  -11.7430   20.8150 C   0  0  0  0  0  0  0  0  0  0  0  0
  -26.2180  -12.9820   20.2220 N   0  0  0  0  0  0  0  0  0  0  0  0
  -25.8550  -11.7000   20.4870 N   0  0  0  0  0  0  0  0  0  0  0  0
  -23.8480  -10.4830   21.0240 C   0  0  0  0  0  0  0  0  0  0  0  0
  -24.3020   -9.5140   21.9460 C   0  0  0  0  0  3  0  0  0  0  0  0
  -23.5810   -8.3140   22.1360 C   0  0  0  0  0  3  0  0  0  0  0  0
  -22.3940   -8.0790   21.4040 C   0  0  0  0  0  0  0  0  0  0  0  0
  -21.9600   -9.0380   20.4710 C   0  0  0  0  0  3  0  0  0  0  0  0
  -22.6800  -10.2270   20.2790 C   0  0  0  0  0  3  0  0  0  0  0  0
  -21.6430   -6.9340   21.5070 O   0  0  0  0  0  0  0  0  0  0  0  0
  -21.6270   -6.1800   22.6510 C   0  0  0  0  0  0  0  0  0  0  0  0
  -21.2520   -6.7250   23.9000 C   0  0  0  0  0  3  0  0  0  0  0  0
  -21.1910   -5.9000   25.0390 C   0  0  0  0  0  3  0  0  0  0  0  0
  -21.4870   -4.5270   24.9320 C   0  0  0  0  0  0  0  0  0  0  0  0
  -21.8510   -3.9800   23.6880 C   0  0  0  0  0  3  0  0  0  0  0  0
  -21.9180   -4.8040   22.5520 C   0  0  0  0  0  0  0  0  0  0  0  0
  -22.2540   -4.2690   21.3520 F   0  0  0  0  0  0  0  0  0  0  0  0
  -21.4180   -3.7300   26.0240 F   0  0  0  0  0  0  0  0  0  0  0  0
  -22.7200  -13.5740   21.1380 C   0  0  0  0  0  0  0  0  0  0  0  0
  -22.0020  -12.8850   22.0160 N   0  0  0  0  0  0  0  0  0  0  0  0
  -22.2750  -14.5990   20.6210 O   0  0  0  0  0  0  0  0  0  0  0  0
  -22.3660  -12.0550   22.4570 H   0  0  0  0  0  0  0  0  0  0  0  0
  -21.0690  -13.1990   22.2480 H   0  0  0  0  0  0  0  0  0  0  0  0
  -25.3460  -15.2370   20.2880 N   0  0  0  0  0  0  0  0  0  0  0  0
  -24.5880  -15.9030   20.4000 H   0  0  0  0  0  0  0  0  0  0  0  0
  -26.2070  -15.6680   19.9710 H   0  0  0  0  0  0  0  0  0  0  0  0
  -29.0170  -24.7060   19.2040 C   0  0  0  0  0  2  0  0  0  0  0  0
  -28.3950  -25.4120   20.4140 C   0  0  0  0  0  2  0  0  0  0  0  0
  -28.4270  -26.8180   20.1950 O   0  0  0  0  0  0  0  0  0  0  0  0
  -24.5760  -31.8970   23.2630 C   0  0  0  0  0  0  0  0  0  0  0  0
  -27.2300  -27.4880   20.1850 C   0  0  0  0  0  0  0  0  0  0  0  0
  -23.3700  -30.4960   21.6190 C   0  0  0  0  0  3  0  0  0  0  0  0
  -24.8250  -28.9620   20.1980 C   0  0  0  0  0  0  0  0  0  0  0  0
  -25.8910  -30.8690   21.4220 C   0  0  0  0  0  2  0  0  0  0  0  0
  -25.9790  -29.5010   20.7780 C   0  0  0  0  0  0  0  0  0  0  0  0
  -27.1810  -28.7700   20.7690 C   0  0  0  0  0  3  0  0  0  0  0  0
  -26.0610  -26.9510   19.5980 C   0  0  0  0  0  3  0  0  0  0  0  0
  -24.8580  -27.6850   19.6090 C   0  0  0  0  0  3  0  0  0  0  0  0
  -23.5800  -29.8160   20.2370 C   0  0  0  0  0  2  0  0  0  0  0  0
  -24.6300  -31.1020   22.1600 N   0  0  0  0  0  0  0  0  0  0  0  0
  -23.4940  -32.1650   23.8050 O   0  0  0  0  0  0  0  0  0  0  0  0
  -22.7250  -29.4700   22.5760 C   0  0  0  0  0  0  0  0  0  0  0  0
  -21.4030  -29.2810   22.4420 N   0  0  0  0  0  0  0  0  0  0  0  0
  -23.4090  -28.8500   23.3950 O   0  0  0  0  0  0  0  0  0  0  0  0
  -20.9130  -29.8330   21.7520 H   0  0  0  0  0  0  0  0  0  0  0  0
  -18.0340  -28.0670   22.9110 C   0  0  0  0  0  0  0  0  0  0  0  0
  -20.5860  -28.3390   23.2090 C   0  0  0  0  0  3  0  0  0  0  0  0
  -20.7030  -26.9060   22.6390 C   0  0  0  0  0  2  0  0  0  0  0  0
  -19.6130  -26.5740   21.6150 C   0  0  0  0  0  2  0  0  0  0  0  0
  -18.2240  -26.7140   22.2460 C   0  0  0  0  0  2  0  0  0  0  0  0
  -19.1440  -28.8350   23.3500 C   0  0  0  0  0  0  0  0  0  0  0  0
  -18.9120  -30.1030   23.9280 C   0  0  0  0  0  3  0  0  0  0  0  0
  -17.6030  -30.5990   24.0750 C   0  0  0  0  0  3  0  0  0  0  0  0
  -16.5070  -29.8250   23.6560 C   0  0  0  0  0  3  0  0  0  0  0  0
  -16.7230  -28.5610   23.0780 C   0  0  0  0  0  3  0  0  0  0  0  0
  -25.8620  -32.5250   23.8860 C   0  0  0  0  0  3  0  0  0  0  0  0
  -25.5550  -33.9230   24.2120 N   0  0  0  0  0  0  0  0  0  0  0  0
  -25.8930  -34.9750   23.4530 C   0  0  0  0  0  0  0  0  0  0  0  0
  -26.5710  -34.8700   22.4270 O   0  0  0  0  0  0  0  0  0  0  0  0
  -24.9550  -34.0770   25.0090 H   0  0  0  0  0  0  0  0  0  0  0  0
  -24.1690  -36.7670   23.0820 C   0  0  0  0  0  1  0  0  0  0  0  0
  -25.4010  -36.3630   23.9060 C   0  0  0  0  0  3  0  0  0  0  0  0
  -27.5300  -37.2460   24.7540 C   0  0  0  0  0  1  0  0  0  0  0  0
  -26.4340  -37.4160   23.8030 N   0  0  0  0  0  0  0  0  0  0  0  0
  -26.0280  -38.3350   23.9500 H   0  0  0  0  0  0  0  0  0  0  0  0
  -26.3800  -31.7530   25.1610 C   0  0  1  0  0  0  0  0  0  0  0  0
  -25.2910  -31.5120   26.2320 C   0  0  0  0  0  1  0  0  0  0  0  0
  -26.9620  -30.3760   24.7630 C   0  0  0  0  0  1  0  0  0  0  0  0
  -27.5300  -32.5460   25.8250 C   0  0  0  0  0  1  0  0  0  0  0  0
  1  5  2  0
  2  4  1  0
  2  3  1  0
  3  8  1  0
  3  1  1  0
  4  1  1  0
  6 12  1  0
  7  9  1  0
  7  6  2  0
  8  6  1  0
 10  7  1  0
 11  8  1  0
 12 13  1  0
 13 14  1  0
 15 23  1  0
 16 21  1  0
 17 18  1  0
 17 16  1  0
 19 18  1  0
 19 28  1  0
 19 20  1  0
 21 15  1  0
 21 20  1  0
 22 15  2  0
 23 24  1  0
 23 14  1  0
 25 26  2  0
 26 45  1  0
 27 26  1  0
 27 30  1  0
 28 25  1  0
 28 29  1  0
 29 27  2  0
 30 31  1  0
 31 32  2  0
 33 36  1  0
 33 32  1  0
 34 33  2  0
 35 34  1  0
 35 30  2  0
 36 37  1  0
 37 38  1  0
 38 39  2  0
 40 39  1  0
 40 44  1  0
 41 40  2  0
 42 37  2  0
 42 41  1  0
 43 42  1  0
 45 46  1  0
 46 49  1  0
 46 48  1  0
 47 45  2  0
 50 51  1  0
 50 25  1  0
 52 50  1  0
 53  4  1  0
 53 54  1  0
 55 54  1  0
 56 67  2  0
 57 55  1  0
 57 62  1  0
 58 66  1  0
 58 68  1  0
 59 65  1  0
 59 61  1  0
 60 66  1  0
 61 60  1  0
 62 61  2  0
 63 64  1  0
 63 57  2  0
 64 59  2  0
 65 58  1  0
 66 56  1  0
 68 70  2  0
 69 68  1  0
 71 69  1  0
 72 81  2  0
 72 77  1  0
 73 69  1  0
 73 77  1  0
 74 73  1  0
 75 76  1  0
 75 74  1  0
 76 72  1  0
 77 78  2  0
 78 79  1  0
 80 79  2  0
 81 80  1  0
 82 56  1  0
 82 83  1  0
 82 92  1  0
 83 86  1  0
 84 88  1  0
 84 83  1  0
 85 84  2  0
 88 87  1  0
 90 88  1  0
 90 91  1  0
 90 89  1  0
 92 95  1  1
 92 93  1  0
 94 92  1  0
M  ISO  4  15 100  23 100  54 101  55 101
M  END
>  <TORSDO>  (26) 
F 22

>  <SCORE>  (26) 
-13.238

>  <name>  (26) 
25

>  <ligand_id>  (26) 
25

>  <original_smiles>  (26) 
[H]c1c([H])c([H])c2c(c1[H])C([H])([H])C([H])([H])C([H])([H])C2([H])N([H])C(=O)C1([H])N(C(=O)C([H])(N([H])C(=O)C([H])(N([H])C([H])([H])[H])C([H])([H])[H])C(C([H])([H])[H])(C([H])([H])[H])C([H])([H])[H])C([H])([H])c2c([H])c(OC([H])([H])C([H])([H])N3C(=O)C([H])([N+]([H])=C(N([H])[H])C([H])([H])C([H])([H])C([H])([H])N([H])C(=O)N4C([H])([H])C([H])([H])C([H])([H])C([H])(n5nc(-c6c([H])c([H])c(Oc7c([H])c([H])c(F)c([H])c7F)c([H])c6[H])c(C(=O)N([H])[H])c5N([H])[H])C4([H])[H])C3([H])[H])c([H])c([H])c2C1([H])[H]

>  <smiles>  (26) 
[H]c1c([H])c([H])c2c(c1[H])C([H])([H])C([H])([H])C([H])([H])C2([H])N([H])C(=O)C1([H])N(C(=O)C([H])(N([H])C(=O)C([H])(N([H])C([H])([H])[H])C([H])([H])[H])C(C([H])([H])[H])(C([H])([H])[H])C([H])([H])[H])C([H])([H])c2c([H])c(OC([H])([H])C([H])([H])N3C(=O)C([H])([N+]([H])=C(N([H])[H])C([H])([H])C([H])([H])C([H])([H])N([H])C(=O)N4C([H])([H])C([H])([H])C([H])([H])C([H])(n5nc(-c6c([H])c([H])c(Oc7c([H])c([H])c(F)c([H])c7F)c([H])c6[H])c(C(=O)N([H])[H])c5N([H])[H])C4([H])[H])C3([H])[H])c([H])c([H])c2C1([H])[H]

$$$$
26:0:0
     RDKit          3D

 93101  0  0  1  0  0  0  0  0999 V2000
  -29.3480  -21.7460   19.0790 C   0  0  0  0  0  3  0  0  0  0  0  0
  -28.1620  -21.8790   20.7430 C   0  0  0  0  0  2  0  0  0  0  0  0
  -28.7400  -20.6660   19.9490 C   0  0  0  0  0  3  0  0  0  0  0  0
  -28.7630  -22.7760   19.7210 N   0  0  0  0  0  0  0  0  0  0  0  0
  -30.1090  -21.6830   17.9760 N   0  0  0  0  0  0  0  0  0  0  0  0
  -30.4230  -20.7980   17.6100 H   0  0  0  0  0  0  0  0  0  0  0  0
  -30.3980  -22.5210   17.4900 H   0  0  0  0  0  0  0  0  0  0  0  0
  -29.5960  -19.6130   20.7110 C   0  0  0  0  0  0  0  0  0  0  0  0
  -30.5330  -19.9530   21.4940 N   0  0  0  0  0  0  0  0  0  0  0  0
  -30.6640  -20.9560   21.5630 H   0  0  0  0  0  0  0  0  0  0  0  0
  -29.2450  -18.1080   20.4810 C   0  0  0  0  0  3  0  0  0  0  0  0
  -30.3120  -17.0440   20.9430 C   0  0  0  0  0  3  0  0  0  0  0  0
  -30.6360  -14.5570   20.4550 C   0  0  0  0  0  0  0  0  0  0  0  0
  -30.3750  -12.3650   19.3410 C   0  0  0  0  0  2  0  0  0  0  0  0
  -29.4290  -12.5370   18.1330 C   0  0  0  0  0  2  0  0  0  0  0  0
  -27.9570  -12.3860   18.5660 C   0  0  0  0  0  2  0  0  0  0  0  0
  -27.6120  -13.2310   19.8210 C   0  0  0  0  0  3  0  0  0  0  0  0
  -28.6710  -13.0430   20.9300 C   0  0  0  0  0  2  0  0  0  0  0  0
  -29.9850  -13.3630   20.3510 N   0  0  0  0  0  0  0  0  0  0  0  0
  -31.7900  -14.7130   20.0490 O   0  0  0  0  0  0  0  0  0  0  0  0
  -29.8880  -15.6160   20.8570 N   0  0  0  0  0  0  0  0  0  0  0  0
  -28.9440  -15.4010   21.1440 H   0  0  0  0  0  0  0  0  0  0  0  0
  -25.2150  -13.8280   20.5350 C   0  0  0  0  0  0  0  0  0  0  0  0
  -24.1500  -13.0530   20.9060 C   0  0  0  0  0  0  0  0  0  0  0  0
  -24.6150  -11.7020   20.8770 C   0  0  0  0  0  0  0  0  0  0  0  0
  -26.2620  -12.9510   20.3040 N   0  0  0  0  0  0  0  0  0  0  0  0
  -25.9060  -11.6670   20.5690 N   0  0  0  0  0  0  0  0  0  0  0  0
  -23.8930  -10.4390   21.0680 C   0  0  0  0  0  0  0  0  0  0  0  0
  -24.3380   -9.4670   21.9910 C   0  0  0  0  0  3  0  0  0  0  0  0
  -23.6170   -8.2670   22.1710 C   0  0  0  0  0  3  0  0  0  0  0  0
  -22.4360   -8.0300   21.4270 C   0  0  0  0  0  0  0  0  0  0  0  0
  -22.0100   -8.9920   20.4940 C   0  0  0  0  0  3  0  0  0  0  0  0
  -22.7320  -10.1830   20.3110 C   0  0  0  0  0  3  0  0  0  0  0  0
  -21.6850   -6.8830   21.5170 O   0  0  0  0  0  0  0  0  0  0  0  0
  -21.6600   -6.1270   22.6610 C   0  0  0  0  0  0  0  0  0  0  0  0
  -21.2650   -6.6680   23.9040 C   0  0  0  0  0  3  0  0  0  0  0  0
  -21.1880   -5.8380   25.0390 C   0  0  0  0  0  3  0  0  0  0  0  0
  -21.4950   -4.4670   24.9350 C   0  0  0  0  0  0  0  0  0  0  0  0
  -21.8830   -3.9260   23.6960 C   0  0  0  0  0  3  0  0  0  0  0  0
  -21.9620   -4.7540   22.5620 C   0  0  0  0  0  0  0  0  0  0  0  0
  -22.3160   -4.2220   21.3670 F   0  0  0  0  0  0  0  0  0  0  0  0
  -21.4130   -3.6680   26.0230 F   0  0  0  0  0  0  0  0  0  0  0  0
  -22.7510  -13.5260   21.1770 C   0  0  0  0  0  0  0  0  0  0  0  0
  -22.0250  -12.8280   22.0440 N   0  0  0  0  0  0  0  0  0  0  0  0
  -22.3090  -14.5490   20.6560 O   0  0  0  0  0  0  0  0  0  0  0  0
  -22.3950  -12.0010   22.4880 H   0  0  0  0  0  0  0  0  0  0  0  0
  -21.0860  -13.1260   22.2690 H   0  0  0  0  0  0  0  0  0  0  0  0
  -25.3750  -15.1990   20.3530 N   0  0  0  0  0  0  0  0  0  0  0  0
  -24.6030  -15.8500   20.4530 H   0  0  0  0  0  0  0  0  0  0  0  0
  -26.2160  -15.6350   19.9980 H   0  0  0  0  0  0  0  0  0  0  0  0
  -28.5300  -24.2140   19.3610 C   0  0  0  0  0  3  0  0  0  0  0  0
  -28.3150  -25.2250   20.5300 C   0  0  0  0  0  3  0  0  0  0  0  0
  -28.4010  -26.6330   20.1550 O   0  0  0  0  0  0  0  0  0  0  0  0
  -24.6140  -31.8810   23.2240 C   0  0  0  0  0  0  0  0  0  0  0  0
  -27.2370  -27.3900   20.1540 C   0  0  0  0  0  0  0  0  0  0  0  0
  -23.4030  -30.4770   21.5890 C   0  0  0  0  0  3  0  0  0  0  0  0
  -24.8490  -28.9300   20.1620 C   0  0  0  0  0  0  0  0  0  0  0  0
  -25.9320  -30.8250   21.3820 C   0  0  0  0  0  2  0  0  0  0  0  0
  -26.0140  -29.4490   20.7410 C   0  0  0  0  0  0  0  0  0  0  0  0
  -27.2130  -28.6910   20.7240 C   0  0  0  0  0  3  0  0  0  0  0  0
  -26.0530  -26.8950   19.5670 C   0  0  0  0  0  3  0  0  0  0  0  0
  -24.8670  -27.6550   19.5680 C   0  0  0  0  0  3  0  0  0  0  0  0
  -23.6080  -29.7940   20.2100 C   0  0  0  0  0  2  0  0  0  0  0  0
  -24.6690  -31.0760   22.1230 N   0  0  0  0  0  0  0  0  0  0  0  0
  -23.5350  -32.1550   23.7660 O   0  0  0  0  0  0  0  0  0  0  0  0
  -22.7510  -29.4600   22.5550 C   0  0  0  0  0  0  0  0  0  0  0  0
  -21.4260  -29.2800   22.4350 N   0  0  0  0  0  0  0  0  0  0  0  0
  -23.4380  -28.8340   23.3670 O   0  0  0  0  0  0  0  0  0  0  0  0
  -20.9330  -29.8370   21.7500 H   0  0  0  0  0  0  0  0  0  0  0  0
  -18.0510  -28.0900   22.9490 C   0  0  0  0  0  0  0  0  0  0  0  0
  -20.6110  -28.3440   23.2100 C   0  0  0  0  0  3  0  0  0  0  0  0
  -20.7100  -26.9140   22.6320 C   0  0  0  0  0  2  0  0  0  0  0  0
  -19.6030  -26.5920   21.6240 C   0  0  0  0  0  2  0  0  0  0  0  0
  -18.2230  -26.7390   22.2730 C   0  0  0  0  0  2  0  0  0  0  0  0
  -19.1740  -28.8500   23.3740 C   0  0  0  0  0  0  0  0  0  0  0  0
  -18.9590  -30.1150   23.9650 C   0  0  0  0  0  3  0  0  0  0  0  0
  -17.6560  -30.6190   24.1350 C   0  0  0  0  0  3  0  0  0  0  0  0
  -16.5490  -29.8550   23.7270 C   0  0  0  0  0  3  0  0  0  0  0  0
  -16.7470  -28.5920   23.1400 C   0  0  0  0  0  3  0  0  0  0  0  0
  -25.9020  -32.5130   23.8380 C   0  0  0  0  0  3  0  0  0  0  0  0
  -25.5920  -33.9090   24.1770 N   0  0  0  0  0  0  0  0  0  0  0  0
  -25.9190  -34.9650   23.4210 C   0  0  0  0  0  0  0  0  0  0  0  0
  -26.5840  -34.8670   22.3860 O   0  0  0  0  0  0  0  0  0  0  0  0
  -25.0010  -34.0580   24.9820 H   0  0  0  0  0  0  0  0  0  0  0  0
  -24.1870  -36.7570   23.0810 C   0  0  0  0  0  1  0  0  0  0  0  0
  -25.4310  -36.3510   23.8870 C   0  0  0  0  0  3  0  0  0  0  0  0
  -27.5690  -37.2340   24.7120 C   0  0  0  0  0  1  0  0  0  0  0  0
  -26.4620  -37.4050   23.7750 N   0  0  0  0  0  0  0  0  0  0  0  0
  -26.0550  -38.3240   23.9290 H   0  0  0  0  0  0  0  0  0  0  0  0
  -26.4320  -31.7370   25.1060 C   0  0  1  0  0  0  0  0  0  0  0  0
  -25.3480  -31.4910   26.1830 C   0  0  0  0  0  1  0  0  0  0  0  0
  -27.0140  -30.3630   24.7010 C   0  0  0  0  0  1  0  0  0  0  0  0
  -27.5870  -32.5300   25.7610 C   0  0  0  0  0  1  0  0  0  0  0  0
  1  5  1  0
  1  4  1  0
  1  3  1  0
  3  8  1  0
  3  2  1  0
  4  2  1  0
  6  5  1  0
  7  5  1  0
  8  9  2  0
  9 10  1  0
 11  8  1  0
 11 12  2  0
 13 21  1  0
 14 19  1  0
 15 16  1  0
 15 14  1  0
 17 16  1  0
 17 26  1  0
 17 18  1  0
 19 13  1  0
 19 18  1  0
 20 13  2  0
 21 12  1  0
 21 22  1  0
 23 24  2  0
 24 43  1  0
 25 24  1  0
 25 28  1  0
 26 23  1  0
 26 27  1  0
 27 25  2  0
 28 29  1  0
 29 30  2  0
 31 34  1  0
 31 30  1  0
 32 31  2  0
 33 32  1  0
 33 28  2  0
 34 35  1  0
 35 36  1  0
 36 37  2  0
 38 37  1  0
 38 42  1  0
 39 38  2  0
 40 35  2  0
 40 39  1  0
 41 40  1  0
 43 44  1  0
 44 47  1  0
 44 46  1  0
 45 43  2  0
 48 49  1  0
 48 23  1  0
 50 48  1  0
 51  4  1  0
 51 52  2  0
 53 52  1  0
 54 65  2  0
 55 53  1  0
 55 60  1  0
 56 64  1  0
 56 66  1  0
 57 63  1  0
 57 59  1  0
 58 64  1  0
 59 58  1  0
 60 59  2  0
 61 62  1  0
 61 55  2  0
 62 57  2  0
 63 56  1  0
 64 54  1  0
 66 68  2  0
 67 66  1  0
 69 67  1  0
 70 79  2  0
 70 75  1  0
 71 67  1  0
 71 75  1  0
 72 71  1  0
 73 74  1  0
 73 72  1  0
 74 70  1  0
 75 76  2  0
 76 77  1  0
 78 77  2  0
 79 78  1  0
 80 54  1  0
 80 81  1  0
 80 90  1  0
 81 84  1  0
 82 86  1  0
 82 81  1  0
 83 82  2  0
 86 85  1  0
 88 86  1  0
 88 89  1  0
 88 87  1  0
 90 93  1  1
 90 91  1  0
 92 90  1  0
M  ISO  4  13 100  21 100  52 101  53 101
M  END
>  <TORSDO>  (27) 
F 21

>  <SCORE>  (27) 
-13.588

>  <name>  (27) 
26

>  <ligand_id>  (27) 
26

>  <original_smiles>  (27) 
[H]N=C(C([H])([H])C([H])([H])N([H])C(=O)N1C([H])([H])C([H])([H])C([H])([H])C([H])(n2nc(-c3c([H])c([H])c(Oc4c([H])c([H])c(F)c([H])c4F)c([H])c3[H])c(C(=O)N([H])[H])c2N([H])[H])C1([H])[H])C1([H])C(=[N+]([H])[H])N(C([H])([H])C([H])([H])Oc2c([H])c([H])c3c(c2[H])C([H])([H])N(C(=O)C([H])(N([H])C(=O)C([H])(N([H])C([H])([H])[H])C([H])([H])[H])C(C([H])([H])[H])(C([H])([H])[H])C([H])([H])[H])C([H])(C(=O)N([H])C2([H])c4c([H])c([H])c([H])c([H])c4C([H])([H])C([H])([H])C2([H])[H])C3([H])[H])C1([H])[H]

>  <smiles>  (27) 
[H]N=C(C([H])([H])C([H])([H])N([H])C(=O)N1C([H])([H])C([H])([H])C([H])([H])C([H])(n2nc(-c3c([H])c([H])c(Oc4c([H])c([H])c(F)c([H])c4F)c([H])c3[H])c(C(=O)N([H])[H])c2N([H])[H])C1([H])[H])C1([H])C(=[N+]([H])[H])N(C([H])([H])C([H])([H])Oc2c([H])c([H])c3c(c2[H])C([H])([H])N(C(=O)C([H])(N([H])C(=O)C([H])(N([H])C([H])([H])[H])C([H])([H])[H])C(C([H])([H])[H])(C([H])([H])[H])C([H])([H])[H])C([H])(C(=O)N([H])C2([H])c4c([H])c([H])c([H])c([H])c4C([H])([H])C([H])([H])C2([H])[H])C3([H])[H])C1([H])[H]

$$$$
27:0:0
     RDKit          3D

 96104  0  0  1  0  0  0  0  0999 V2000
  -27.5360  -23.0970   20.1310 C   0  0  0  0  0  3  0  0  0  0  0  0
  -26.1180  -23.1600   19.7140 N   0  0  0  0  0  4  0  0  0  0  0  0
  -25.8470  -22.2730   19.3230 H   0  0  0  0  0  0  0  0  0  0  0  0
  -25.9350  -23.8700   19.0310 H   0  0  0  0  0  0  0  0  0  0  0  0
  -25.5380  -23.3060   20.5240 H   0  0  0  0  0  0  0  0  0  0  0  0
  -27.5800  -21.8920   21.0910 C   0  0  0  0  0  0  0  0  0  0  0  0
  -26.8550  -21.8550   22.0900 O   0  0  0  0  0  0  0  0  0  0  0  0
  -29.4940  -20.6910   19.7720 C   0  0  0  0  0  3  0  0  0  0  0  0
  -28.2900  -19.4610   21.1790 C   0  0  0  0  0  3  0  0  0  0  0  0
  -28.4170  -20.7330   20.7030 C   0  0  0  0  0  0  0  0  0  0  0  0
  -29.9540  -19.4530   19.6340 N   0  0  0  0  0  0  0  0  0  0  0  0
  -29.1870  -18.6970   20.4590 N   0  0  0  0  0  0  0  0  0  0  0  0
  -29.3050  -17.2500   20.4330 C   0  0  0  0  0  2  0  0  0  0  0  0
  -30.2530  -16.6770   21.4990 C   0  0  0  0  0  2  0  0  0  0  0  0
  -30.7220  -14.3750   20.6600 C   0  0  0  0  0  0  0  0  0  0  0  0
  -30.4240  -12.2710   19.4100 C   0  0  0  0  0  2  0  0  0  0  0  0
  -29.4980  -12.5160   18.2020 C   0  0  0  0  0  2  0  0  0  0  0  0
  -28.0160  -12.3780   18.6050 C   0  0  0  0  0  2  0  0  0  0  0  0
  -27.6710  -13.1880   19.8840 C   0  0  0  0  0  3  0  0  0  0  0  0
  -28.7010  -12.9080   21.0000 C   0  0  0  0  0  2  0  0  0  0  0  0
  -30.0490  -13.2110   20.4740 N   0  0  0  0  0  0  0  0  0  0  0  0
  -31.7560  -14.6760   20.0530 O   0  0  0  0  0  0  0  0  0  0  0  0
  -30.1260  -15.2210   21.5080 N   0  0  0  0  0  0  0  0  0  0  0  0
  -29.3440  -14.8430   22.0210 H   0  0  0  0  0  0  0  0  0  0  0  0
  -25.2640  -13.8110   20.5640 C   0  0  0  0  0  0  0  0  0  0  0  0
  -24.1850  -13.0430   20.9130 C   0  0  0  0  0  0  0  0  0  0  0  0
  -24.6390  -11.6880   20.8700 C   0  0  0  0  0  0  0  0  0  0  0  0
  -26.3060  -12.9250   20.3360 N   0  0  0  0  0  0  0  0  0  0  0  0
  -25.9300  -11.6430   20.5720 N   0  0  0  0  0  0  0  0  0  0  0  0
  -23.9050  -10.4270   21.0370 C   0  0  0  0  0  0  0  0  0  0  0  0
  -24.3600   -9.4210   21.9150 C   0  0  0  0  0  3  0  0  0  0  0  0
  -23.6270   -8.2250   22.0760 C   0  0  0  0  0  3  0  0  0  0  0  0
  -22.4260   -8.0270   21.3550 C   0  0  0  0  0  0  0  0  0  0  0  0
  -21.9880   -9.0240   20.4650 C   0  0  0  0  0  3  0  0  0  0  0  0
  -22.7220  -10.2110   20.3030 C   0  0  0  0  0  3  0  0  0  0  0  0
  -21.6640   -6.8850   21.4220 O   0  0  0  0  0  0  0  0  0  0  0  0
  -21.6880   -6.0730   22.5270 C   0  0  0  0  0  0  0  0  0  0  0  0
  -21.4040   -6.5630   23.8200 C   0  0  0  0  0  3  0  0  0  0  0  0
  -21.3670   -5.6780   24.9170 C   0  0  0  0  0  3  0  0  0  0  0  0
  -21.6040   -4.3040   24.7220 C   0  0  0  0  0  0  0  0  0  0  0  0
  -21.8820   -3.8130   23.4340 C   0  0  0  0  0  3  0  0  0  0  0  0
  -21.9200   -4.6950   22.3410 C   0  0  0  0  0  0  0  0  0  0  0  0
  -22.1670   -4.2130   21.1000 F   0  0  0  0  0  0  0  0  0  0  0  0
  -21.5620   -3.4540   25.7750 F   0  0  0  0  0  0  0  0  0  0  0  0
  -22.7870  -13.5250   21.1800 C   0  0  0  0  0  0  0  0  0  0  0  0
  -22.0490  -12.8230   22.0350 N   0  0  0  0  0  0  0  0  0  0  0  0
  -22.3560  -14.5560   20.6670 O   0  0  0  0  0  0  0  0  0  0  0  0
  -22.4110  -11.9900   22.4740 H   0  0  0  0  0  0  0  0  0  0  0  0
  -21.1140  -13.1320   22.2590 H   0  0  0  0  0  0  0  0  0  0  0  0
  -25.4400  -15.1830   20.4040 N   0  0  0  0  0  0  0  0  0  0  0  0
  -24.6690  -15.8350   20.4900 H   0  0  0  0  0  0  0  0  0  0  0  0
  -26.2830  -15.6100   20.0420 H   0  0  0  0  0  0  0  0  0  0  0  0
  -29.1560  -24.3370   21.8080 C   0  0  0  0  0  1  0  0  0  0  0  0
  -28.0290  -24.4490   20.7500 C   0  0  0  0  0  3  0  0  0  0  0  0
  -28.4880  -25.4260   19.6400 C   0  0  0  0  0  2  0  0  0  0  0  0
  -28.4380  -26.7840   20.0790 O   0  0  0  0  0  0  0  0  0  0  0  0
  -24.6120  -31.8720   23.2140 C   0  0  0  0  0  0  0  0  0  0  0  0
  -27.2350  -27.4630   20.0810 C   0  0  0  0  0  0  0  0  0  0  0  0
  -23.3960  -30.5000   21.5540 C   0  0  0  0  0  3  0  0  0  0  0  0
  -24.8390  -28.9700   20.1160 C   0  0  0  0  0  0  0  0  0  0  0  0
  -25.9230  -30.8450   21.3620 C   0  0  0  0  0  2  0  0  0  0  0  0
  -25.9980  -29.4830   20.7100 C   0  0  0  0  0  0  0  0  0  0  0  0
  -27.1970  -28.7360   20.6910 C   0  0  0  0  0  3  0  0  0  0  0  0
  -26.0500  -26.9590   19.4920 C   0  0  0  0  0  3  0  0  0  0  0  0
  -24.8590  -27.7060   19.5070 C   0  0  0  0  0  3  0  0  0  0  0  0
  -23.6000  -29.8340   20.1680 C   0  0  0  0  0  2  0  0  0  0  0  0
  -24.6620  -31.0860   22.1030 N   0  0  0  0  0  0  0  0  0  0  0  0
  -23.5320  -32.1470   23.7570 O   0  0  0  0  0  0  0  0  0  0  0  0
  -22.7370  -29.4730   22.5020 C   0  0  0  0  0  0  0  0  0  0  0  0
  -21.4100  -29.3110   22.3740 N   0  0  0  0  0  0  0  0  0  0  0  0
  -23.4150  -28.8250   23.3030 O   0  0  0  0  0  0  0  0  0  0  0  0
  -20.9260  -29.8840   21.6970 H   0  0  0  0  0  0  0  0  0  0  0  0
  -18.0250  -28.1380   22.8500 C   0  0  0  0  0  0  0  0  0  0  0  0
  -20.5840  -28.3700   23.1290 C   0  0  0  0  0  3  0  0  0  0  0  0
  -20.6800  -26.9460   22.5380 C   0  0  0  0  0  2  0  0  0  0  0  0
  -19.5760  -26.6390   21.5210 C   0  0  0  0  0  2  0  0  0  0  0  0
  -18.1940  -26.7930   22.1620 C   0  0  0  0  0  2  0  0  0  0  0  0
  -19.1500  -28.8840   23.2900 C   0  0  0  0  0  0  0  0  0  0  0  0
  -18.9440  -30.1430   23.8940 C   0  0  0  0  0  3  0  0  0  0  0  0
  -17.6450  -30.6590   24.0580 C   0  0  0  0  0  3  0  0  0  0  0  0
  -16.5340  -29.9110   23.6330 C   0  0  0  0  0  3  0  0  0  0  0  0
  -16.7250  -28.6510   23.0360 C   0  0  0  0  0  3  0  0  0  0  0  0
  -25.9030  -32.4850   23.8400 C   0  0  0  0  0  3  0  0  0  0  0  0
  -26.4470  -31.6600   25.0710 C   0  0  1  0  0  0  0  0  0  0  0  0
  -25.3730  -31.3690   26.1460 C   0  0  0  0  0  1  0  0  0  0  0  0
  -27.0290  -30.3050   24.6050 C   0  0  0  0  0  1  0  0  0  0  0  0
  -27.6060  -32.4300   25.7460 C   0  0  0  0  0  1  0  0  0  0  0  0
  -25.5900  -33.8630   24.2360 N   0  0  0  0  0  0  0  0  0  0  0  0
  -25.9040  -34.9500   23.5150 C   0  0  0  0  0  0  0  0  0  0  0  0
  -26.5580  -34.8950   22.4710 O   0  0  0  0  0  0  0  0  0  0  0  0
  -25.0090  -33.9770   25.0540 H   0  0  0  0  0  0  0  0  0  0  0  0
  -24.1490  -36.7320   23.2630 C   0  0  0  0  0  1  0  0  0  0  0  0
  -25.4120  -36.3140   24.0340 C   0  0  0  0  0  3  0  0  0  0  0  0
  -27.5590  -37.1820   24.8470 C   0  0  0  0  0  1  0  0  0  0  0  0
  -26.4320  -37.3820   23.9410 N   0  0  0  0  0  0  0  0  0  0  0  0
  -26.0210  -38.2910   24.1400 H   0  0  0  0  0  0  0  0  0  0  0  0
  1 54  1  0
  1  6  1  0
  2  1  1  0
  2  5  1  0
  3  2  1  0
  4  2  1  0
  6  7  2  0
  8 10  1  0
 10  6  1  0
 10  9  2  0
 11  8  2  0
 11 12  1  0
 12  9  1  0
 13 12  1  0
 13 14  1  0
 14 23  1  0
 15 23  1  0
 16 21  1  0
 17 18  1  0
 17 16  1  0
 19 18  1  0
 19 28  1  0
 19 20  1  0
 21 15  1  0
 21 20  1  0
 22 15  2  0
 23 24  1  0
 25 26  2  0
 26 45  1  0
 27 26  1  0
 27 30  1  0
 28 25  1  0
 28 29  1  0
 29 27  2  0
 30 31  1  0
 31 32  2  0
 33 36  1  0
 33 32  1  0
 34 33  2  0
 35 34  1  0
 35 30  2  0
 36 37  1  0
 37 38  1  0
 38 39  2  0
 40 39  1  0
 40 44  1  0
 41 40  2  0
 42 37  2  0
 42 41  1  0
 43 42  1  0
 45 46  1  0
 46 49  1  0
 46 48  1  0
 47 45  2  0
 50 51  1  0
 50 25  1  0
 52 50  1  0
 54 53  1  0
 55 56  1  0
 55 54  1  0
 56 58  1  0
 57 68  2  0
 58 63  1  0
 59 67  1  0
 59 69  1  0
 60 66  1  0
 60 62  1  0
 61 67  1  0
 62 61  1  0
 63 62  2  0
 64 65  1  0
 64 58  2  0
 65 60  2  0
 66 59  1  0
 67 57  1  0
 69 71  2  0
 70 69  1  0
 72 70  1  0
 73 82  2  0
 73 78  1  0
 74 70  1  0
 74 78  1  0
 75 74  1  0
 76 77  1  0
 76 75  1  0
 77 73  1  0
 78 79  2  0
 79 80  1  0
 81 80  2  0
 82 81  1  0
 83 57  1  0
 83 88  1  0
 83 84  1  0
 84 87  1  1
 84 85  1  0
 86 84  1  0
 88 91  1  0
 89 93  1  0
 89 88  1  0
 90 89  2  0
 93 92  1  0
 95 93  1  0
 95 96  1  0
 95 94  1  0
M  ISO  4  15 100  23 100  55 101  56 101
M  END
>  <TORSDO>  (28) 
F 23

>  <SCORE>  (28) 
-11.585

>  <name>  (28) 
27

>  <ligand_id>  (28) 
27

>  <original_smiles>  (28) 
[H]c1nn(C([H])([H])C([H])([H])N([H])C(=O)N2C([H])([H])C([H])([H])C([H])([H])C([H])(n3nc(-c4c([H])c([H])c(Oc5c([H])c([H])c(F)c([H])c5F)c([H])c4[H])c(C(=O)N([H])[H])c3N([H])[H])C2([H])[H])c([H])c1C(=O)C([H])(C([H])(C([H])([H])[H])C([H])([H])Oc1c([H])c([H])c2c(c1[H])C([H])([H])N(C(=O)C([H])(N([H])C(=O)C([H])(N([H])C([H])([H])[H])C([H])([H])[H])C(C([H])([H])[H])(C([H])([H])[H])C([H])([H])[H])C([H])(C(=O)N([H])C1([H])c3c([H])c([H])c([H])c([H])c3C([H])([H])C([H])([H])C1([H])[H])C2([H])[H])[N+]([H])([H])[H]

>  <smiles>  (28) 
[H]c1nn(C([H])([H])C([H])([H])N([H])C(=O)N2C([H])([H])C([H])([H])C([H])([H])C([H])(n3nc(-c4c([H])c([H])c(Oc5c([H])c([H])c(F)c([H])c5F)c([H])c4[H])c(C(=O)N([H])[H])c3N([H])[H])C2([H])[H])c([H])c1C(=O)C([H])(C([H])(C([H])([H])[H])C([H])([H])Oc1c([H])c([H])c2c(c1[H])C([H])([H])N(C(=O)C([H])(N([H])C(=O)C([H])(N([H])C([H])([H])[H])C([H])([H])[H])C(C([H])([H])[H])(C([H])([H])[H])C([H])([H])[H])C([H])(C(=O)N([H])C1([H])c3c([H])c([H])c([H])c([H])c3C([H])([H])C([H])([H])C1([H])[H])C2([H])[H])[N+]([H])([H])[H]

$$$$
28:0:0
     RDKit          3D

 93101  0  0  1  0  0  0  0  0999 V2000
  -29.0460  -24.1830   22.7670 C   0  0  0  0  0  3  0  0  0  0  0  0
  -29.3020  -22.9850   22.0650 C   0  0  0  0  0  3  0  0  0  0  0  0
  -28.7420  -25.3810   22.0900 C   0  0  0  0  0  3  0  0  0  0  0  0
  -28.9340  -24.1840   19.9830 C   0  0  0  0  0  3  0  0  0  0  0  0
  -29.2330  -22.9320   20.6540 C   0  0  0  0  0  0  0  0  0  0  0  0
  -28.6930  -25.4290   20.6830 C   0  0  0  0  0  0  0  0  0  0  0  0
  -28.5670  -26.6970   20.0720 O   0  0  0  0  0  0  0  0  0  0  0  0
  -24.6720  -31.9470   23.2310 C   0  0  0  0  0  0  0  0  0  0  0  0
  -27.4100  -27.4820   20.1550 C   0  0  0  0  0  0  0  0  0  0  0  0
  -23.5100  -30.5360   21.5700 C   0  0  0  0  0  3  0  0  0  0  0  0
  -25.0040  -29.0250   20.1450 C   0  0  0  0  0  0  0  0  0  0  0  0
  -26.0390  -30.9150   21.4030 C   0  0  0  0  0  2  0  0  0  0  0  0
  -26.1560  -29.5410   20.7550 C   0  0  0  0  0  0  0  0  0  0  0  0
  -27.3630  -28.7800   20.7520 C   0  0  0  0  0  3  0  0  0  0  0  0
  -26.2390  -27.0090   19.5310 C   0  0  0  0  0  3  0  0  0  0  0  0
  -25.0460  -27.7620   19.5270 C   0  0  0  0  0  3  0  0  0  0  0  0
  -23.7470  -29.8720   20.1870 C   0  0  0  0  0  2  0  0  0  0  0  0
  -24.7580  -31.1500   22.1250 N   0  0  0  0  0  0  0  0  0  0  0  0
  -23.5800  -32.1950   23.7620 O   0  0  0  0  0  0  0  0  0  0  0  0
  -22.8630  -29.4980   22.5180 C   0  0  0  0  0  0  0  0  0  0  0  0
  -21.5400  -29.3050   22.3930 N   0  0  0  0  0  0  0  0  0  0  0  0
  -23.5530  -28.8680   23.3240 O   0  0  0  0  0  0  0  0  0  0  0  0
  -21.0430  -29.8650   21.7140 H   0  0  0  0  0  0  0  0  0  0  0  0
  -18.1770  -28.0730   22.8990 C   0  0  0  0  0  0  0  0  0  0  0  0
  -20.7350  -28.3450   23.1520 C   0  0  0  0  0  3  0  0  0  0  0  0
  -20.8420  -26.9280   22.5440 C   0  0  0  0  0  2  0  0  0  0  0  0
  -19.7330  -26.6180   21.5340 C   0  0  0  0  0  2  0  0  0  0  0  0
  -18.3560  -26.7390   22.1940 C   0  0  0  0  0  2  0  0  0  0  0  0
  -19.2940  -28.8330   23.3350 C   0  0  0  0  0  0  0  0  0  0  0  0
  -19.0710  -30.0830   23.9560 C   0  0  0  0  0  3  0  0  0  0  0  0
  -17.7650  -30.5710   24.1430 C   0  0  0  0  0  3  0  0  0  0  0  0
  -16.6620  -29.8070   23.7230 C   0  0  0  0  0  3  0  0  0  0  0  0
  -16.8690  -28.5590   23.1080 C   0  0  0  0  0  3  0  0  0  0  0  0
  -25.9370  -32.6000   23.8680 C   0  0  0  0  0  3  0  0  0  0  0  0
  -25.6030  -33.9960   24.1900 N   0  0  0  0  0  0  0  0  0  0  0  0
  -25.9350  -35.0510   23.4350 C   0  0  0  0  0  0  0  0  0  0  0  0
  -26.6230  -34.9540   22.4140 O   0  0  0  0  0  0  0  0  0  0  0  0
  -24.9920  -34.1430   24.9800 H   0  0  0  0  0  0  0  0  0  0  0  0
  -24.1870  -36.8180   23.0490 C   0  0  0  0  0  1  0  0  0  0  0  0
  -25.4230  -36.4350   23.8800 C   0  0  0  0  0  3  0  0  0  0  0  0
  -27.5340  -37.3500   24.7370 C   0  0  0  0  0  1  0  0  0  0  0  0
  -26.4430  -37.5010   23.7780 N   0  0  0  0  0  0  0  0  0  0  0  0
  -26.0250  -38.4170   23.9160 H   0  0  0  0  0  0  0  0  0  0  0  0
  -26.4480  -31.8390   25.1530 C   0  0  1  0  0  0  0  0  0  0  0  0
  -25.3450  -31.5850   26.2070 C   0  0  0  0  0  1  0  0  0  0  0  0
  -27.0570  -30.4710   24.7710 C   0  0  0  0  0  1  0  0  0  0  0  0
  -27.5770  -32.6530   25.8290 C   0  0  0  0  0  1  0  0  0  0  0  0
  -29.5220  -21.5730   19.8800 C   0  0  0  0  0  2  0  0  0  0  0  0
  -29.6780  -20.1550   20.6410 C   0  0  0  0  0  3  0  0  0  0  0  0
  -28.4790  -19.9100   21.4710 N   0  0  0  0  0  4  0  0  0  0  0  0
  -28.2610  -20.7290   22.0090 H   0  0  0  0  0  0  0  0  0  0  0  0
  -28.6260  -19.1490   22.1110 H   0  0  0  0  0  0  0  0  0  0  0  0
  -27.6800  -19.6980   20.8990 H   0  0  0  0  0  0  0  0  0  0  0  0
  -29.9750  -18.8500   19.7340 C   0  0  0  0  0  2  0  0  0  0  0  0
  -30.6750  -17.5080   20.3340 C   0  0  0  0  0  2  0  0  0  0  0  0
  -31.0160  -14.9040   20.0060 C   0  0  0  0  0  0  0  0  0  0  0  0
  -30.7270  -12.6530   18.9830 C   0  0  0  0  0  2  0  0  0  0  0  0
  -29.7570  -12.7650   17.7880 C   0  0  0  0  0  2  0  0  0  0  0  0
  -28.2940  -12.6420   18.2560 C   0  0  0  0  0  2  0  0  0  0  0  0
  -27.9800  -13.5370   19.4870 C   0  0  0  0  0  3  0  0  0  0  0  0
  -29.0620  -13.3980   20.5780 C   0  0  0  0  0  2  0  0  0  0  0  0
  -30.3550  -13.7040   19.9520 N   0  0  0  0  0  0  0  0  0  0  0  0
  -32.1910  -14.9960   19.6420 O   0  0  0  0  0  0  0  0  0  0  0  0
  -30.2670  -16.0360   20.2660 N   0  0  0  0  0  0  0  0  0  0  0  0
  -29.3010  -15.8400   20.4900 H   0  0  0  0  0  0  0  0  0  0  0  0
  -25.6260  -14.1970   20.2740 C   0  0  0  0  0  0  0  0  0  0  0  0
  -24.5500  -13.4510   20.6740 C   0  0  0  0  0  0  0  0  0  0  0  0
  -24.9750  -12.0880   20.6290 C   0  0  0  0  0  0  0  0  0  0  0  0
  -26.6390  -13.2880   20.0120 N   0  0  0  0  0  0  0  0  0  0  0  0
  -26.2560  -12.0150   20.2870 N   0  0  0  0  0  0  0  0  0  0  0  0
  -24.2210  -10.8450   20.8380 C   0  0  0  0  0  0  0  0  0  0  0  0
  -24.6360   -9.8800   21.7810 C   0  0  0  0  0  3  0  0  0  0  0  0
  -23.8850   -8.7010   21.9780 C   0  0  0  0  0  3  0  0  0  0  0  0
  -22.7030   -8.4800   21.2310 C   0  0  0  0  0  0  0  0  0  0  0  0
  -22.3070   -9.4340   20.2760 C   0  0  0  0  0  3  0  0  0  0  0  0
  -23.0590  -10.6040   20.0770 C   0  0  0  0  0  3  0  0  0  0  0  0
  -21.9240   -7.3540   21.3350 O   0  0  0  0  0  0  0  0  0  0  0  0
  -21.8360   -6.6460   22.5070 C   0  0  0  0  0  0  0  0  0  0  0  0
  -21.4130   -7.2470   23.7120 C   0  0  0  0  0  3  0  0  0  0  0  0
  -21.2720   -6.4660   24.8760 C   0  0  0  0  0  3  0  0  0  0  0  0
  -21.5430   -5.0840   24.8370 C   0  0  0  0  0  0  0  0  0  0  0  0
  -21.9590   -4.4840   23.6350 C   0  0  0  0  0  3  0  0  0  0  0  0
  -22.1030   -5.2620   22.4730 C   0  0  0  0  0  0  0  0  0  0  0  0
  -22.4830   -4.6730   21.3140 F   0  0  0  0  0  0  0  0  0  0  0  0
  -21.4000   -4.3340   25.9530 F   0  0  0  0  0  0  0  0  0  0  0  0
  -23.1730  -13.9650   20.9790 C   0  0  0  0  0  0  0  0  0  0  0  0
  -22.4530  -13.2930   21.8720 N   0  0  0  0  0  0  0  0  0  0  0  0
  -22.7460  -14.9970   20.4650 O   0  0  0  0  0  0  0  0  0  0  0  0
  -22.8120  -12.4580   22.3120 H   0  0  0  0  0  0  0  0  0  0  0  0
  -21.5300  -13.6200   22.1200 H   0  0  0  0  0  0  0  0  0  0  0  0
  -25.8170  -15.5610   20.0910 N   0  0  0  0  0  0  0  0  0  0  0  0
  -25.0600  -16.2250   20.2100 H   0  0  0  0  0  0  0  0  0  0  0  0
  -26.6460  -15.9790   19.6860 H   0  0  0  0  0  0  0  0  0  0  0  0
  2  1  2  0
  3  1  1  0
  4  5  2  0
  4  6  1  0
  5  2  1  0
  6  3  2  0
  7  9  1  0
  7  6  1  0
  8 19  2  0
  9 14  1  0
 10 18  1  0
 10 20  1  0
 11 17  1  0
 11 13  1  0
 12 18  1  0
 13 12  1  0
 14 13  2  0
 15  9  2  0
 16 15  1  0
 16 11  2  0
 17 10  1  0
 18  8  1  0
 20 22  2  0
 21 20  1  0
 23 21  1  0
 24 33  2  0
 24 29  1  0
 25 21  1  0
 25 29  1  0
 26 25  1  0
 27 28  1  0
 27 26  1  0
 28 24  1  0
 29 30  2  0
 30 31  1  0
 32 31  2  0
 33 32  1  0
 34  8  1  0
 34 35  1  0
 34 44  1  0
 35 38  1  0
 36 40  1  0
 36 35  1  0
 37 36  2  0
 40 39  1  0
 42 40  1  0
 42 43  1  0
 42 41  1  0
 44 47  1  1
 44 45  1  0
 46 44  1  0
 48 49  1  0
 48  5  1  0
 49 54  1  0
 49 50  1  0
 50 51  1  0
 50 52  1  0
 53 50  1  0
 54 55  1  0
 56 64  1  0
 57 62  1  0
 58 59  1  0
 58 57  1  0
 60 59  1  0
 60 69  1  0
 60 61  1  0
 62 56  1  0
 62 61  1  0
 63 56  2  0
 64 55  1  0
 64 65  1  0
 66 67  2  0
 67 86  1  0
 68 67  1  0
 68 71  1  0
 69 66  1  0
 69 70  1  0
 70 68  2  0
 71 72  1  0
 72 73  2  0
 74 77  1  0
 74 73  1  0
 75 74  2  0
 76 75  1  0
 76 71  2  0
 77 78  1  0
 78 79  1  0
 79 80  2  0
 81 80  1  0
 81 85  1  0
 82 81  2  0
 83 78  2  0
 83 82  1  0
 84 83  1  0
 86 87  1  0
 87 90  1  0
 87 89  1  0
 88 86  2  0
 91 92  1  0
 91 66  1  0
 93 91  1  0
M  ISO  4   6 101   7 101  56 100  64 100
M  END
>  <TORSDO>  (29) 
F 21

>  <SCORE>  (29) 
-12.840

>  <name>  (29) 
28

>  <ligand_id>  (29) 
28

>  <original_smiles>  (29) 
[H]c1c([H])c([H])c2c(c1[H])C([H])([H])C([H])([H])C([H])([H])C2([H])N([H])C(=O)C1([H])N(C(=O)C([H])(N([H])C(=O)C([H])(N([H])C([H])([H])[H])C([H])([H])[H])C(C([H])([H])[H])(C([H])([H])[H])C([H])([H])[H])C([H])([H])c2c([H])c(Oc3c([H])c([H])c([H])c(C([H])([H])C([H])(C([H])([H])C([H])([H])N([H])C(=O)N4C([H])([H])C([H])([H])C([H])([H])C([H])(n5nc(-c6c([H])c([H])c(Oc7c([H])c([H])c(F)c([H])c7F)c([H])c6[H])c(C(=O)N([H])[H])c5N([H])[H])C4([H])[H])[N+]([H])([H])[H])c3[H])c([H])c([H])c2C1([H])[H]

>  <smiles>  (29) 
[H]c1c([H])c([H])c2c(c1[H])C([H])([H])C([H])([H])C([H])([H])C2([H])N([H])C(=O)C1([H])N(C(=O)C([H])(N([H])C(=O)C([H])(N([H])C([H])([H])[H])C([H])([H])[H])C(C([H])([H])[H])(C([H])([H])[H])C([H])([H])[H])C([H])([H])c2c([H])c(Oc3c([H])c([H])c([H])c(C([H])([H])C([H])(C([H])([H])C([H])([H])N([H])C(=O)N4C([H])([H])C([H])([H])C([H])([H])C([H])(n5nc(-c6c([H])c([H])c(Oc7c([H])c([H])c(F)c([H])c7F)c([H])c6[H])c(C(=O)N([H])[H])c5N([H])[H])C4([H])[H])[N+]([H])([H])[H])c3[H])c([H])c([H])c2C1([H])[H]

$$$$
29:0:0
     RDKit          3D

104112  0  0  1  0  0  0  0  0999 V2000
  -30.5070  -15.0090   20.1390 C   0  0  0  0  0  0  0  0  0  0  0  0
  -30.4300  -12.6170   19.2980 C   0  0  0  0  0  2  0  0  0  0  0  0
  -29.4700  -12.5260   18.0900 C   0  0  0  0  0  2  0  0  0  0  0  0
  -28.0160  -12.3080   18.5580 C   0  0  0  0  0  2  0  0  0  0  0  0
  -27.6230  -13.2550   19.7240 C   0  0  0  0  0  3  0  0  0  0  0  0
  -28.7070  -13.3130   20.8230 C   0  0  0  0  0  2  0  0  0  0  0  0
  -29.9590  -13.7270   20.1740 N   0  0  0  0  0  0  0  0  0  0  0  0
  -31.6840  -15.1110   19.7790 O   0  0  0  0  0  0  0  0  0  0  0  0
  -30.4220  -19.8730   19.6700 C   0  0  0  0  0  0  0  0  0  0  0  0
  -29.1800  -20.3310   20.1310 C   0  0  0  0  0  0  0  0  0  0  0  0
  -29.6860  -17.6510   20.1920 C   0  0  0  0  0  0  0  0  0  0  0  0
  -30.6760  -18.4430   19.7110 N   0  0  0  0  0  0  0  0  0  0  0  0
  -29.6590  -16.1260   20.3480 N   0  0  0  0  0  0  0  0  0  0  0  0
  -28.3220  -18.7980   20.6060 S   0  0  0  0  0  0  0  0  0  0  0  0
  -28.7540  -15.8090   20.6510 H   0  0  0  0  0  0  0  0  0  0  0  0
  -25.2740  -13.8230   20.5670 C   0  0  0  0  0  0  0  0  0  0  0  0
  -24.2210  -13.0420   20.9590 C   0  0  0  0  0  0  0  0  0  0  0  0
  -24.6770  -11.6900   20.8710 C   0  0  0  0  0  0  0  0  0  0  0  0
  -26.3030  -12.9480   20.2620 N   0  0  0  0  0  0  0  0  0  0  0  0
  -25.9550  -11.6590   20.5090 N   0  0  0  0  0  0  0  0  0  0  0  0
  -23.9490  -10.4270   21.0510 C   0  0  0  0  0  0  0  0  0  0  0  0
  -24.3600   -9.4680   22.0030 C   0  0  0  0  0  3  0  0  0  0  0  0
  -23.6320   -8.2710   22.1740 C   0  0  0  0  0  3  0  0  0  0  0  0
  -22.4780   -8.0240   21.3930 C   0  0  0  0  0  0  0  0  0  0  0  0
  -22.0860   -8.9710   20.4320 C   0  0  0  0  0  3  0  0  0  0  0  0
  -22.8140  -10.1610   20.2600 C   0  0  0  0  0  3  0  0  0  0  0  0
  -21.7230   -6.8790   21.4720 O   0  0  0  0  0  0  0  0  0  0  0  0
  -21.5780   -6.1920   22.6510 C   0  0  0  0  0  0  0  0  0  0  0  0
  -21.0300   -6.7960   23.8030 C   0  0  0  0  0  3  0  0  0  0  0  0
  -20.8360   -6.0350   24.9730 C   0  0  0  0  0  3  0  0  0  0  0  0
  -21.1770   -4.6690   24.9900 C   0  0  0  0  0  0  0  0  0  0  0  0
  -21.7180   -4.0650   23.8420 C   0  0  0  0  0  3  0  0  0  0  0  0
  -21.9140   -4.8230   22.6750 C   0  0  0  0  0  0  0  0  0  0  0  0
  -22.4160   -4.2310   21.5650 F   0  0  0  0  0  0  0  0  0  0  0  0
  -20.9840   -3.9360   26.1110 F   0  0  0  0  0  0  0  0  0  0  0  0
  -22.8400  -13.5190   21.2960 C   0  0  0  0  0  0  0  0  0  0  0  0
  -22.1500  -12.8190   22.1890 N   0  0  0  0  0  0  0  0  0  0  0  0
  -22.3820  -14.5490   20.8020 O   0  0  0  0  0  0  0  0  0  0  0  0
  -22.5340  -11.9860   22.6100 H   0  0  0  0  0  0  0  0  0  0  0  0
  -21.2230  -13.1200   22.4550 H   0  0  0  0  0  0  0  0  0  0  0  0
  -25.4320  -15.1980   20.4200 N   0  0  0  0  0  0  0  0  0  0  0  0
  -24.6550  -15.8350   20.5620 H   0  0  0  0  0  0  0  0  0  0  0  0
  -26.2370  -15.6470   20.0040 H   0  0  0  0  0  0  0  0  0  0  0  0
  -31.5080  -20.7530   19.1040 C   0  0  0  0  0  2  0  0  0  0  0  0
  -32.8590  -20.7540   19.8780 C   0  0  0  0  0  3  0  0  0  0  0  0
  -33.9380  -21.6400   19.1760 C   0  0  0  0  0  2  0  0  0  0  0  0
  -33.5960  -23.0670   18.9820 N   0  0  0  0  0  4  0  0  0  0  0  0
  -32.7590  -23.1900   18.4400 H   0  0  0  0  0  0  0  0  0  0  0  0
  -34.3390  -23.4970   18.4560 H   0  0  0  0  0  0  0  0  0  0  0  0
  -33.5290  -23.5850   19.8380 H   0  0  0  0  0  0  0  0  0  0  0  0
  -32.7730  -20.8060   21.4460 C   0  0  0  0  0  3  0  0  0  0  0  0
  -31.5980  -21.5440   21.9650 N   0  0  0  0  0  4  0  0  0  0  0  0
  -31.6190  -22.5280   21.7670 H   0  0  0  0  0  0  0  0  0  0  0  0
  -31.5780  -21.4520   22.9680 H   0  0  0  0  0  0  0  0  0  0  0  0
  -30.7370  -21.1520   21.6300 H   0  0  0  0  0  0  0  0  0  0  0  0
  -34.0620  -21.3110   22.1620 C   0  0  0  0  0  2  0  0  0  0  0  0
  -36.5750  -21.4050   22.4380 C   0  0  0  0  0  1  0  0  0  0  0  0
  -35.5130  -19.2320   21.7510 C   0  0  0  0  0  1  0  0  0  0  0  0
  -35.4180  -20.7630   21.6530 C   0  0  0  0  0  3  0  0  0  0  0  0
  -28.5260  -21.8190   20.4070 C   0  0  0  0  0  3  0  0  0  0  0  0
  -28.6310  -23.2960   19.5920 C   0  0  0  0  0  3  0  0  0  0  0  0
  -26.5820  -24.4310   20.7520 C   0  0  0  0  0  1  0  0  0  0  0  0
  -27.9890  -24.7390   20.2010 C   0  0  0  0  0  3  0  0  0  0  0  0
  -28.1030  -26.1820   19.5960 O   0  0  0  0  0  0  0  0  0  0  0  0
  -24.8340  -31.7320   23.2110 C   0  0  0  0  0  0  0  0  0  0  0  0
  -27.0880  -27.2050   19.7000 C   0  0  0  0  0  0  0  0  0  0  0  0
  -23.5120  -30.5240   21.5170 C   0  0  0  0  0  3  0  0  0  0  0  0
  -24.8380  -29.0310   19.9010 C   0  0  0  0  0  0  0  0  0  0  0  0
  -26.0660  -30.7130   21.2610 C   0  0  0  0  0  2  0  0  0  0  0  0
  -26.0570  -29.3790   20.4980 C   0  0  0  0  0  0  0  0  0  0  0  0
  -27.1840  -28.4820   20.3840 C   0  0  0  0  0  3  0  0  0  0  0  0
  -25.8610  -26.9820   19.0430 C   0  0  0  0  0  3  0  0  0  0  0  0
  -24.7520  -27.8460   19.1560 C   0  0  0  0  0  3  0  0  0  0  0  0
  -23.6490  -29.9620   20.0760 C   0  0  0  0  0  2  0  0  0  0  0  0
  -24.8280  -31.0040   22.0530 N   0  0  0  0  0  0  0  0  0  0  0  0
  -23.7830  -32.0070   23.8080 O   0  0  0  0  0  0  0  0  0  0  0  0
  -22.8360  -29.4610   22.4190 C   0  0  0  0  0  0  0  0  0  0  0  0
  -21.5020  -29.3310   22.3180 N   0  0  0  0  0  0  0  0  0  0  0  0
  -23.5140  -28.7610   23.1760 O   0  0  0  0  0  0  0  0  0  0  0  0
  -21.0120  -29.9440   21.6820 H   0  0  0  0  0  0  0  0  0  0  0  0
  -18.1120  -28.1530   22.8070 C   0  0  0  0  0  0  0  0  0  0  0  0
  -20.6790  -28.3600   23.0450 C   0  0  0  0  0  3  0  0  0  0  0  0
  -20.7490  -26.9650   22.3810 C   0  0  0  0  0  2  0  0  0  0  0  0
  -19.6250  -26.7240   21.3690 C   0  0  0  0  0  2  0  0  0  0  0  0
  -18.2550  -26.8480   22.0440 C   0  0  0  0  0  2  0  0  0  0  0  0
  -19.2490  -28.8700   23.2640 C   0  0  0  0  0  0  0  0  0  0  0  0
  -19.0580  -30.0950   23.9420 C   0  0  0  0  0  3  0  0  0  0  0  0
  -17.7640  -30.6010   24.1650 C   0  0  0  0  0  3  0  0  0  0  0  0
  -16.6420  -29.8780   23.7240 C   0  0  0  0  0  3  0  0  0  0  0  0
  -16.8160  -28.6560   23.0520 C   0  0  0  0  0  3  0  0  0  0  0  0
  -26.1620  -32.2670   23.8280 C   0  0  0  0  0  3  0  0  0  0  0  0
  -26.7190  -31.3560   24.9890 C   0  0  1  0  0  0  0  0  0  0  0  0
  -25.6770  -31.0400   26.0880 C   0  0  0  0  0  1  0  0  0  0  0  0
  -27.2320  -30.0070   24.4330 C   0  0  0  0  0  1  0  0  0  0  0  0
  -27.9310  -32.0440   25.6590 C   0  0  0  0  0  1  0  0  0  0  0  0
  -25.9080  -33.6300   24.3230 N   0  0  0  0  0  0  0  0  0  0  0  0
  -26.2490  -34.7540   23.6790 C   0  0  0  0  0  0  0  0  0  0  0  0
  -26.8810  -34.7510   22.6180 O   0  0  0  0  0  0  0  0  0  0  0  0
  -25.3480  -33.7090   25.1590 H   0  0  0  0  0  0  0  0  0  0  0  0
  -24.5810  -36.6340   23.5900 C   0  0  0  0  0  1  0  0  0  0  0  0
  -25.8270  -36.0960   24.3110 C   0  0  0  0  0  3  0  0  0  0  0  0
  -28.0110  -36.8040   25.1800 C   0  0  0  0  0  1  0  0  0  0  0  0
  -26.8940  -37.1190   24.2920 N   0  0  0  0  0  0  0  0  0  0  0  0
  -26.5250  -38.0280   24.5610 H   0  0  0  0  0  0  0  0  0  0  0  0
  1  7  1  0
  1 13  1  0
  2  7  1  0
  3  4  1  0
  3  2  1  0
  5  4  1  0
  5 19  1  0
  5  6  1  0
  7  6  1  0
  8  1  2  0
  9 12  1  0
  9 10  2  0
 10 60  1  0
 10 14  1  0
 11 13  1  0
 11 14  1  0
 12 11  2  0
 13 15  1  0
 16 17  2  0
 17 36  1  0
 18 17  1  0
 18 21  1  0
 19 20  1  0
 19 16  1  0
 20 18  2  0
 21 22  1  0
 22 23  2  0
 24 27  1  0
 24 23  1  0
 25 24  2  0
 26 25  1  0
 26 21  2  0
 27 28  1  0
 28 33  2  0
 28 29  1  0
 29 30  2  0
 30 31  1  0
 31 35  1  0
 32 31  2  0
 33 32  1  0
 34 33  1  0
 36 37  1  0
 37 40  1  0
 37 39  1  0
 38 36  2  0
 41 42  1  0
 41 16  1  0
 43 41  1  0
 44  9  1  0
 45 44  1  0
 45 51  1  0
 46 45  1  0
 47 46  1  0
 47 50  1  0
 48 47  1  0
 49 47  1  0
 51 52  1  0
 51 56  1  0
 52 54  1  0
 53 52  1  0
 55 52  1  0
 59 58  1  0
 59 56  1  0
 59 57  1  0
 61 63  1  0
 61 60  2  0
 63 62  1  0
 64 66  1  0
 64 63  1  0
 65 76  2  0
 66 71  1  0
 67 75  1  0
 67 77  1  0
 68 74  1  0
 68 70  1  0
 69 75  1  0
 70 69  1  0
 71 70  2  0
 72 73  1  0
 72 66  2  0
 73 68  2  0
 74 67  1  0
 75 65  1  0
 77 79  2  0
 78 77  1  0
 80 78  1  0
 81 90  2  0
 81 86  1  0
 82 78  1  0
 82 86  1  0
 83 82  1  0
 84 85  1  0
 84 83  1  0
 85 81  1  0
 86 87  2  0
 87 88  1  0
 89 88  2  0
 90 89  1  0
 91 65  1  0
 91 96  1  0
 91 92  1  0
 92 95  1  1
 92 93  1  0
 94 92  1  0
 96 99  1  0
 97101  1  0
 97 96  1  0
 98 97  2  0
101100  1  0
103101  1  0
103104  1  0
103102  1  0
M  ISO  4   1 100  13 100  63 101  64 101
M  END
>  <TORSDO>  (30) 
F 26

>  <SCORE>  (30) 
-11.718

>  <name>  (30) 
29

>  <ligand_id>  (30) 
29

>  <original_smiles>  (30) 
[H]c1c([H])c([H])c2c(c1[H])C([H])([H])C([H])([H])C([H])([H])C2([H])N([H])C(=O)C1([H])N(C(=O)C([H])(N([H])C(=O)C([H])(N([H])C([H])([H])[H])C([H])([H])[H])C(C([H])([H])[H])(C([H])([H])[H])C([H])([H])[H])C([H])([H])c2c([H])c(OC([H])(C([H])([H])[H])C([H])([H])C([H])([H])c3sc(N([H])C(=O)N4C([H])([H])C([H])([H])C([H])([H])C([H])(n5nc(-c6c([H])c([H])c(Oc7c([H])c([H])c(F)c([H])c7F)c([H])c6[H])c(C(=O)N([H])[H])c5N([H])[H])C4([H])[H])nc3C([H])([H])C([H])(C([H])([H])[N+]([H])([H])[H])C([H])(C([H])([H])C([H])(C([H])([H])[H])C([H])([H])[H])[N+]([H])([H])[H])c([H])c([H])c2C1([H])[H]

>  <smiles>  (30) 
[H]c1c([H])c([H])c2c(c1[H])C([H])([H])C([H])([H])C([H])([H])C2([H])N([H])C(=O)C1([H])N(C(=O)C([H])(N([H])C(=O)C([H])(N([H])C([H])([H])[H])C([H])([H])[H])C(C([H])([H])[H])(C([H])([H])[H])C([H])([H])[H])C([H])([H])c2c([H])c(OC([H])(C([H])([H])[H])C([H])([H])C([H])([H])c3sc(N([H])C(=O)N4C([H])([H])C([H])([H])C([H])([H])C([H])(n5nc(-c6c([H])c([H])c(Oc7c([H])c([H])c(F)c([H])c7F)c([H])c6[H])c(C(=O)N([H])[H])c5N([H])[H])C4([H])[H])nc3C([H])([H])C([H])(C([H])([H])[N+]([H])([H])[H])C([H])(C([H])([H])C([H])(C([H])([H])[H])C([H])([H])[H])[N+]([H])([H])[H])c([H])c([H])c2C1([H])[H]

$$$$
30:0:0
     RDKit          3D

 92100  0  0  1  0  0  0  0  0999 V2000
  -27.2610  -20.0190   20.3560 C   0  0  0  0  0  0  0  0  0  0  0  0
  -27.1210  -21.3860   19.6940 C   0  0  0  0  0  2  0  0  0  0  0  0
  -28.7080  -20.3570   20.7510 C   0  0  0  0  0  3  0  0  0  0  0  0
  -28.5580  -21.6030   19.9440 N   0  0  2  0  0  4  0  0  0  0  0  0
  -26.5100  -19.0510   20.5110 O   0  0  0  0  0  0  0  0  0  0  0  0
  -29.0740  -21.5110   19.0800 H   0  0  0  0  0  0  0  0  0  0  0  0
  -29.7500  -19.3320   20.2140 C   0  0  0  0  0  2  0  0  0  0  0  0
  -30.3600  -18.0940   22.3920 C   0  0  0  0  0  1  0  0  0  0  0  0
  -29.8240  -17.9550   20.9550 C   0  0  0  0  0  3  0  0  0  0  0  0
  -30.6530  -16.9080   20.1590 C   0  0  0  0  0  2  0  0  0  0  0  0
  -31.0140  -14.4480   20.0350 C   0  0  0  0  0  0  0  0  0  0  0  0
  -30.6780  -12.2280   19.0220 C   0  0  0  0  0  2  0  0  0  0  0  0
  -29.7110  -12.3770   17.8290 C   0  0  0  0  0  2  0  0  0  0  0  0
  -28.2480  -12.2710   18.3040 C   0  0  0  0  0  2  0  0  0  0  0  0
  -27.9450  -13.1820   19.5240 C   0  0  0  0  0  3  0  0  0  0  0  0
  -29.0240  -13.0120   20.6190 C   0  0  0  0  0  2  0  0  0  0  0  0
  -30.3360  -13.2670   20.0050 N   0  0  0  0  0  0  0  0  0  0  0  0
  -32.1250  -14.5940   19.5200 O   0  0  0  0  0  0  0  0  0  0  0  0
  -30.3150  -15.5110   20.4790 N   0  0  0  0  0  0  0  0  0  0  0  0
  -29.4080  -15.3270   20.8820 H   0  0  0  0  0  0  0  0  0  0  0  0
  -25.6030  -13.8660   20.3500 C   0  0  0  0  0  0  0  0  0  0  0  0
  -24.5180  -13.1250   20.7400 C   0  0  0  0  0  0  0  0  0  0  0  0
  -24.9220  -11.7580   20.6490 C   0  0  0  0  0  0  0  0  0  0  0  0
  -26.6000  -12.9500   20.0490 N   0  0  0  0  0  0  0  0  0  0  0  0
  -26.1970  -11.6760   20.2860 N   0  0  0  0  0  0  0  0  0  0  0  0
  -24.1510  -10.5200   20.8310 C   0  0  0  0  0  0  0  0  0  0  0  0
  -24.5320   -9.5470   21.7810 C   0  0  0  0  0  3  0  0  0  0  0  0
  -23.7650   -8.3760   21.9540 C   0  0  0  0  0  3  0  0  0  0  0  0
  -22.6020   -8.1680   21.1750 C   0  0  0  0  0  0  0  0  0  0  0  0
  -22.2390   -9.1270   20.2140 C   0  0  0  0  0  3  0  0  0  0  0  0
  -23.0070  -10.2930   20.0400 C   0  0  0  0  0  3  0  0  0  0  0  0
  -21.8120   -7.0460   21.2540 O   0  0  0  0  0  0  0  0  0  0  0  0
  -21.6450   -6.3640   22.4320 C   0  0  0  0  0  0  0  0  0  0  0  0
  -21.1340   -6.9900   23.5900 C   0  0  0  0  0  3  0  0  0  0  0  0
  -20.9120   -6.2360   24.7590 C   0  0  0  0  0  3  0  0  0  0  0  0
  -21.1930   -4.8570   24.7710 C   0  0  0  0  0  0  0  0  0  0  0  0
  -21.6960   -4.2300   23.6180 C   0  0  0  0  0  3  0  0  0  0  0  0
  -21.9200   -4.9820   22.4510 C   0  0  0  0  0  0  0  0  0  0  0  0
  -22.3860   -4.3680   21.3370 F   0  0  0  0  0  0  0  0  0  0  0  0
  -20.9710   -4.1310   25.8920 F   0  0  0  0  0  0  0  0  0  0  0  0
  -23.1530  -13.6510   21.0830 C   0  0  0  0  0  0  0  0  0  0  0  0
  -22.4380  -12.9700   21.9720 N   0  0  0  0  0  0  0  0  0  0  0  0
  -22.7310  -14.6990   20.5970 O   0  0  0  0  0  0  0  0  0  0  0  0
  -22.7900  -12.1200   22.3880 H   0  0  0  0  0  0  0  0  0  0  0  0
  -21.5270  -13.3080   22.2430 H   0  0  0  0  0  0  0  0  0  0  0  0
  -25.8170  -15.2330   20.2080 N   0  0  0  0  0  0  0  0  0  0  0  0
  -25.0880  -15.9140   20.3870 H   0  0  0  0  0  0  0  0  0  0  0  0
  -26.6710  -15.6550   19.8650 H   0  0  0  0  0  0  0  0  0  0  0  0
  -28.8730  -22.8960   20.6210 C   0  0  0  0  0  2  0  0  0  0  0  0
  -28.5600  -24.1570   19.7580 C   0  0  0  0  0  2  0  0  0  0  0  0
  -28.6490  -25.4900   20.5410 C   0  0  0  0  0  2  0  0  0  0  0  0
  -28.5500  -26.6580   19.7120 O   0  0  0  0  0  0  0  0  0  0  0  0
  -24.6030  -31.5990   23.0160 C   0  0  0  0  0  0  0  0  0  0  0  0
  -27.3580  -27.3430   19.7790 C   0  0  0  0  0  0  0  0  0  0  0  0
  -23.4260  -30.2080   21.3420 C   0  0  0  0  0  3  0  0  0  0  0  0
  -24.9140  -28.7610   19.8560 C   0  0  0  0  0  0  0  0  0  0  0  0
  -25.9350  -30.6570   21.1290 C   0  0  0  0  0  2  0  0  0  0  0  0
  -26.0590  -29.3080   20.4510 C   0  0  0  0  0  0  0  0  0  0  0  0
  -27.2840  -28.6050   20.4100 C   0  0  0  0  0  3  0  0  0  0  0  0
  -26.1980  -26.8070   19.1800 C   0  0  0  0  0  3  0  0  0  0  0  0
  -24.9790  -27.5100   19.2150 C   0  0  0  0  0  3  0  0  0  0  0  0
  -23.6430  -29.5750   19.9400 C   0  0  0  0  0  2  0  0  0  0  0  0
  -24.6740  -30.8350   21.8880 N   0  0  0  0  0  0  0  0  0  0  0  0
  -23.5210  -31.8160   23.5750 O   0  0  0  0  0  0  0  0  0  0  0  0
  -22.8180  -29.1370   22.2760 C   0  0  0  0  0  0  0  0  0  0  0  0
  -21.4980  -28.9250   22.1630 N   0  0  0  0  0  0  0  0  0  0  0  0
  -23.5330  -28.5020   23.0560 O   0  0  0  0  0  0  0  0  0  0  0  0
  -20.9830  -29.4940   21.5060 H   0  0  0  0  0  0  0  0  0  0  0  0
  -18.1650  -27.6230   22.6530 C   0  0  0  0  0  0  0  0  0  0  0  0
  -20.7180  -27.9390   22.9090 C   0  0  0  0  0  3  0  0  0  0  0  0
  -20.8530  -26.5330   22.2820 C   0  0  0  0  0  2  0  0  0  0  0  0
  -19.7500  -26.2160   21.2680 C   0  0  0  0  0  2  0  0  0  0  0  0
  -18.3720  -26.3020   21.9300 C   0  0  0  0  0  2  0  0  0  0  0  0
  -19.2670  -28.3990   23.0980 C   0  0  0  0  0  0  0  0  0  0  0  0
  -19.0210  -29.6370   23.7330 C   0  0  0  0  0  3  0  0  0  0  0  0
  -17.7060  -30.0940   23.9320 C   0  0  0  0  0  3  0  0  0  0  0  0
  -16.6170  -29.3130   23.5030 C   0  0  0  0  0  3  0  0  0  0  0  0
  -16.8490  -28.0790   22.8690 C   0  0  0  0  0  3  0  0  0  0  0  0
  -25.8750  -32.2490   23.6440 C   0  0  0  0  0  3  0  0  0  0  0  0
  -25.5260  -33.6220   24.0330 N   0  0  0  0  0  0  0  0  0  0  0  0
  -25.8140  -34.7130   23.3130 C   0  0  0  0  0  0  0  0  0  0  0  0
  -26.4780  -34.6730   22.2730 O   0  0  0  0  0  0  0  0  0  0  0  0
  -24.9350  -33.7260   24.8460 H   0  0  0  0  0  0  0  0  0  0  0  0
  -24.0240  -36.4600   23.0430 C   0  0  0  0  0  1  0  0  0  0  0  0
  -25.2850  -36.0660   23.8290 C   0  0  0  0  0  3  0  0  0  0  0  0
  -27.3970  -36.9890   24.6800 C   0  0  0  0  0  1  0  0  0  0  0  0
  -26.2810  -37.1570   23.7520 N   0  0  0  0  0  0  0  0  0  0  0  0
  -25.8450  -38.0560   23.9390 H   0  0  0  0  0  0  0  0  0  0  0  0
  -26.4420  -31.4450   24.8790 C   0  0  1  0  0  0  0  0  0  0  0  0
  -25.3780  -31.1320   25.9560 C   0  0  0  0  0  1  0  0  0  0  0  0
  -27.0570  -30.1020   24.4190 C   0  0  0  0  0  1  0  0  0  0  0  0
  -27.5810  -32.2490   25.5510 C   0  0  0  0  0  1  0  0  0  0  0  0
  1  5  2  0
  1  3  1  0
  2  4  1  0
  2  1  1  0
  3  7  1  0
  4 49  1  0
  4  3  1  0
  4  6  1  6
  7  9  1  0
  9  8  1  0
 10 19  1  0
 10  9  1  0
 11 19  1  0
 12 17  1  0
 13 14  1  0
 13 12  1  0
 15 14  1  0
 15 24  1  0
 15 16  1  0
 17 11  1  0
 17 16  1  0
 18 11  2  0
 19 20  1  0
 21 22  2  0
 22 41  1  0
 23 22  1  0
 23 26  1  0
 24 25  1  0
 24 21  1  0
 25 23  2  0
 26 27  1  0
 27 28  2  0
 29 32  1  0
 29 28  1  0
 30 29  2  0
 31 30  1  0
 31 26  2  0
 32 33  1  0
 33 38  2  0
 33 34  1  0
 34 35  2  0
 35 36  1  0
 36 40  1  0
 37 36  2  0
 38 37  1  0
 39 38  1  0
 41 42  1  0
 42 45  1  0
 42 44  1  0
 43 41  2  0
 46 21  1  0
 46 47  1  0
 48 46  1  0
 50 51  1  0
 50 49  1  0
 52 54  1  0
 52 51  1  0
 53 64  2  0
 54 59  1  0
 55 63  1  0
 55 65  1  0
 56 62  1  0
 56 58  1  0
 57 63  1  0
 58 57  1  0
 59 58  2  0
 60 61  1  0
 60 54  2  0
 61 56  2  0
 62 55  1  0
 63 53  1  0
 65 67  2  0
 66 65  1  0
 68 66  1  0
 69 78  2  0
 69 74  1  0
 70 66  1  0
 70 74  1  0
 71 70  1  0
 72 73  1  0
 72 71  1  0
 73 69  1  0
 74 75  2  0
 75 76  1  0
 77 76  2  0
 78 77  1  0
 79 53  1  0
 79 80  1  0
 79 89  1  0
 80 83  1  0
 81 85  1  0
 81 80  1  0
 82 81  2  0
 85 84  1  0
 87 85  1  0
 87 88  1  0
 87 86  1  0
 89 92  1  1
 89 90  1  0
 91 89  1  0
M  ISO  4  11 100  19 100  51 101  52 101
M  END
>  <TORSDO>  (31) 
F 22

>  <SCORE>  (31) 
-10.736

>  <name>  (31) 
30

>  <ligand_id>  (31) 
30

>  <original_smiles>  (31) 
[H]c1c([H])c([H])c2c(c1[H])C([H])([H])C([H])([H])C([H])([H])C2([H])N([H])C(=O)C1([H])N(C(=O)C([H])(N([H])C(=O)C([H])(N([H])C([H])([H])[H])C([H])([H])[H])C(C([H])([H])[H])(C([H])([H])[H])C([H])([H])[H])C([H])([H])c2c([H])c(OC([H])([H])C([H])([H])C([H])([H])[N+]3([H])C([H])([H])C(=O)C3([H])C([H])([H])C([H])(C([H])([H])[H])C([H])([H])N([H])C(=O)N3C([H])([H])C([H])([H])C([H])([H])C([H])(n4nc(-c5c([H])c([H])c(Oc6c([H])c([H])c(F)c([H])c6F)c([H])c5[H])c(C(=O)N([H])[H])c4N([H])[H])C3([H])[H])c([H])c([H])c2C1([H])[H]

>  <smiles>  (31) 
[H]c1c([H])c([H])c2c(c1[H])C([H])([H])C([H])([H])C([H])([H])C2([H])N([H])C(=O)C1([H])N(C(=O)C([H])(N([H])C(=O)C([H])(N([H])C([H])([H])[H])C([H])([H])[H])C(C([H])([H])[H])(C([H])([H])[H])C([H])([H])[H])C([H])([H])c2c([H])c(OC([H])([H])C([H])([H])C([H])([H])[N+]3([H])C([H])([H])C(=O)C3([H])C([H])([H])C([H])(C([H])([H])[H])C([H])([H])N([H])C(=O)N3C([H])([H])C([H])([H])C([H])([H])C([H])(n4nc(-c5c([H])c([H])c(Oc6c([H])c([H])c(F)c([H])c6F)c([H])c5[H])c(C(=O)N([H])[H])c4N([H])[H])C3([H])[H])c([H])c([H])c2C1([H])[H]

$$$$
31:0:0
     RDKit          3D

 94103  0  0  1  0  0  0  0  0999 V2000
  -30.5210  -21.3310   23.0040 C   0  0  0  0  0  3  0  0  0  0  0  0
  -30.2750  -19.9420   22.8900 C   0  0  0  0  0  3  0  0  0  0  0  0
  -29.8170  -20.1900   20.4960 C   0  0  0  0  0  3  0  0  0  0  0  0
  -30.4040  -22.1280   21.8530 C   0  0  0  0  0  0  0  0  0  0  0  0
  -30.0540  -21.5730   20.6280 C   0  0  0  0  0  0  0  0  0  0  0  0
  -29.9240  -19.3620   21.6430 C   0  0  0  0  0  0  0  0  0  0  0  0
  -30.6590  -23.6110   21.7320 C   0  0  0  0  0  2  0  0  0  0  0  0
  -30.0150  -22.6270   19.5460 C   0  0  0  0  0  2  0  0  0  0  0  0
  -30.7410  -23.8410   20.1970 C   0  0  0  0  0  3  0  0  0  0  0  0
  -30.8380  -25.3860   18.2070 C   0  0  0  0  0  1  0  0  0  0  0  0
  -31.2490  -26.2850   20.4890 C   0  0  0  0  0  1  0  0  0  0  0  0
  -30.3940  -25.2750   19.6830 C   0  0  2  0  0  0  0  0  0  0  0  0
  -28.8730  -25.6240   19.7850 C   0  0  0  0  0  2  0  0  0  0  0  0
  -28.7190  -27.0200   20.0540 O   0  0  0  0  0  0  0  0  0  0  0  0
  -24.6170  -31.8500   23.2780 C   0  0  0  0  0  0  0  0  0  0  0  0
  -27.4740  -27.6080   20.0980 C   0  0  0  0  0  0  0  0  0  0  0  0
  -23.4840  -30.4520   21.5810 C   0  0  0  0  0  3  0  0  0  0  0  0
  -25.0080  -28.9990   20.1450 C   0  0  0  0  0  0  0  0  0  0  0  0
  -25.9950  -30.9080   21.4280 C   0  0  0  0  0  2  0  0  0  0  0  0
  -26.1380  -29.5590   20.7530 C   0  0  0  0  0  0  0  0  0  0  0  0
  -27.3690  -28.8720   20.7220 C   0  0  0  0  0  3  0  0  0  0  0  0
  -26.3180  -27.0450   19.5090 C   0  0  0  0  0  3  0  0  0  0  0  0
  -25.0910  -27.7380   19.5260 C   0  0  0  0  0  3  0  0  0  0  0  0
  -23.7350  -29.8110   20.1900 C   0  0  0  0  0  2  0  0  0  0  0  0
  -24.7160  -31.0830   22.1550 N   0  0  0  0  0  0  0  0  0  0  0  0
  -23.5200  -32.0700   23.8080 O   0  0  0  0  0  0  0  0  0  0  0  0
  -22.8570  -29.3820   22.5050 C   0  0  0  0  0  0  0  0  0  0  0  0
  -21.5480  -29.1390   22.3330 N   0  0  0  0  0  0  0  0  0  0  0  0
  -23.5460  -28.7760   23.3300 O   0  0  0  0  0  0  0  0  0  0  0  0
  -21.0520  -29.6840   21.6410 H   0  0  0  0  0  0  0  0  0  0  0  0
  -18.2220  -27.7780   22.6990 C   0  0  0  0  0  0  0  0  0  0  0  0
  -20.7540  -28.1490   23.0610 C   0  0  0  0  0  3  0  0  0  0  0  0
  -20.9430  -26.7370   22.4620 C   0  0  0  0  0  2  0  0  0  0  0  0
  -19.8900  -26.3820   21.4070 C   0  0  0  0  0  2  0  0  0  0  0  0
  -18.4840  -26.4500   22.0070 C   0  0  0  0  0  2  0  0  0  0  0  0
  -19.2890  -28.5830   23.1780 C   0  0  0  0  0  0  0  0  0  0  0  0
  -18.9920  -29.8250   23.7820 C   0  0  0  0  0  3  0  0  0  0  0  0
  -17.6600  -30.2630   23.9110 C   0  0  0  0  0  3  0  0  0  0  0  0
  -16.6080  -29.4540   23.4490 C   0  0  0  0  0  3  0  0  0  0  0  0
  -16.8880  -28.2130   22.8490 C   0  0  0  0  0  3  0  0  0  0  0  0
  -25.8720  -32.5070   23.9330 C   0  0  0  0  0  3  0  0  0  0  0  0
  -26.3620  -31.7550   25.2320 C   0  0  1  0  0  0  0  0  0  0  0  0
  -25.2380  -31.4990   26.2630 C   0  0  0  0  0  1  0  0  0  0  0  0
  -26.9890  -30.3890   24.8670 C   0  0  0  0  0  1  0  0  0  0  0  0
  -27.4700  -32.5800   25.9300 C   0  0  0  0  0  1  0  0  0  0  0  0
  -25.5320  -33.9020   24.2380 N   0  0  0  0  0  0  0  0  0  0  0  0
  -25.8630  -34.9520   23.4710 C   0  0  0  0  0  0  0  0  0  0  0  0
  -26.5590  -34.8470   22.4570 O   0  0  0  0  0  0  0  0  0  0  0  0
  -24.9140  -34.0570   25.0200 H   0  0  0  0  0  0  0  0  0  0  0  0
  -24.1070  -36.7030   23.0580 C   0  0  0  0  0  1  0  0  0  0  0  0
  -25.3390  -36.3350   23.8990 C   0  0  0  0  0  3  0  0  0  0  0  0
  -27.4360  -37.2780   24.7610 C   0  0  0  0  0  1  0  0  0  0  0  0
  -26.3530  -37.4070   23.7900 N   0  0  0  0  0  0  0  0  0  0  0  0
  -25.9250  -38.3210   23.9120 H   0  0  0  0  0  0  0  0  0  0  0  0
  -29.5900  -17.8700   21.5460 C   0  0  0  0  0  2  0  0  0  0  0  0
  -30.7530  -16.9680   21.0740 C   0  0  0  0  0  2  0  0  0  0  0  0
  -30.9220  -14.6330   20.1700 C   0  0  0  0  0  0  0  0  0  0  0  0
  -30.5720  -12.5070   18.9600 C   0  0  0  0  0  2  0  0  0  0  0  0
  -29.5810  -12.7350   17.8030 C   0  0  0  0  0  2  0  0  0  0  0  0
  -28.1260  -12.5720   18.2910 C   0  0  0  0  0  2  0  0  0  0  0  0
  -27.8390  -13.3770   19.5860 C   0  0  0  0  0  3  0  0  0  0  0  0
  -28.9400  -13.1390   20.6440 C   0  0  0  0  0  2  0  0  0  0  0  0
  -30.2440  -13.4600   20.0330 N   0  0  0  0  0  0  0  0  0  0  0  0
  -31.9610  -14.8840   19.5520 O   0  0  0  0  0  0  0  0  0  0  0  0
  -30.3470  -15.5560   20.9640 N   0  0  0  0  0  0  0  0  0  0  0  0
  -29.5240  -15.2720   21.4730 H   0  0  0  0  0  0  0  0  0  0  0  0
  -25.4800  -13.9510   20.4350 C   0  0  0  0  0  0  0  0  0  0  0  0
  -24.4330  -13.1650   20.8320 C   0  0  0  0  0  0  0  0  0  0  0  0
  -24.8910  -11.8170   20.7270 C   0  0  0  0  0  0  0  0  0  0  0  0
  -26.5110  -13.0820   20.1170 N   0  0  0  0  0  0  0  0  0  0  0  0
  -26.1630  -11.7900   20.3480 N   0  0  0  0  0  0  0  0  0  0  0  0
  -24.1760  -10.5480   20.9140 C   0  0  0  0  0  0  0  0  0  0  0  0
  -24.5930   -9.6020   21.8770 C   0  0  0  0  0  3  0  0  0  0  0  0
  -23.8830   -8.3950   22.0520 C   0  0  0  0  0  3  0  0  0  0  0  0
  -22.7390   -8.1260   21.2620 C   0  0  0  0  0  0  0  0  0  0  0  0
  -22.3420   -9.0590   20.2880 C   0  0  0  0  0  3  0  0  0  0  0  0
  -23.0520  -10.2580   20.1110 C   0  0  0  0  0  3  0  0  0  0  0  0
  -22.0020   -6.9680   21.3420 O   0  0  0  0  0  0  0  0  0  0  0  0
  -21.8150   -6.3140   22.5330 C   0  0  0  0  0  0  0  0  0  0  0  0
  -21.2030   -6.9420   23.6400 C   0  0  0  0  0  3  0  0  0  0  0  0
  -20.9670   -6.2120   24.8230 C   0  0  0  0  0  3  0  0  0  0  0  0
  -21.3340   -4.8550   24.8960 C   0  0  0  0  0  0  0  0  0  0  0  0
  -21.9390   -4.2260   23.7930 C   0  0  0  0  0  3  0  0  0  0  0  0
  -22.1760   -4.9540   22.6140 C   0  0  0  0  0  0  0  0  0  0  0  0
  -22.7390   -4.3390   21.5450 F   0  0  0  0  0  0  0  0  0  0  0  0
  -21.1030   -4.1500   26.0270 F   0  0  0  0  0  0  0  0  0  0  0  0
  -23.0530  -13.6300   21.1990 C   0  0  0  0  0  0  0  0  0  0  0  0
  -22.3780  -12.9010   22.0820 N   0  0  0  0  0  0  0  0  0  0  0  0
  -22.5820  -14.6710   20.7420 O   0  0  0  0  0  0  0  0  0  0  0  0
  -22.7700  -12.0580   22.4730 H   0  0  0  0  0  0  0  0  0  0  0  0
  -21.4540  -13.1940   22.3680 H   0  0  0  0  0  0  0  0  0  0  0  0
  -25.6350  -15.3270   20.3070 N   0  0  0  0  0  0  0  0  0  0  0  0
  -24.8820  -15.9760   20.5090 H   0  0  0  0  0  0  0  0  0  0  0  0
  -26.4860  -15.7830   19.9990 H   0  0  0  0  0  0  0  0  0  0  0  0
  2  1  1  0
  3  5  2  0
  3  6  1  0
  4  1  2  0
  5  4  1  0
  6  2  2  0
  7  4  1  0
  8  9  1  0
  8  5  1  0
  9 12  1  0
  9  7  1  0
 12 10  1  6
 12 13  1  0
 12 11  1  0
 13 14  1  0
 14 16  1  0
 15 26  2  0
 16 21  1  0
 17 25  1  0
 17 27  1  0
 18 24  1  0
 18 20  1  0
 19 25  1  0
 20 19  1  0
 21 20  2  0
 22 23  1  0
 22 16  2  0
 23 18  2  0
 24 17  1  0
 25 15  1  0
 27 29  2  0
 28 27  1  0
 30 28  1  0
 31 40  2  0
 31 36  1  0
 32 28  1  0
 32 36  1  0
 33 32  1  0
 34 35  1  0
 34 33  1  0
 35 31  1  0
 36 37  2  0
 37 38  1  0
 39 38  2  0
 40 39  1  0
 41 15  1  0
 41 46  1  0
 41 42  1  0
 42 45  1  1
 42 43  1  0
 44 42  1  0
 46 49  1  0
 47 51  1  0
 47 46  1  0
 48 47  2  0
 51 50  1  0
 53 51  1  0
 53 54  1  0
 53 52  1  0
 55  6  1  0
 56 55  1  0
 57 65  1  0
 58 63  1  0
 59 60  1  0
 59 58  1  0
 61 60  1  0
 61 70  1  0
 61 62  1  0
 63 57  1  0
 63 62  1  0
 64 57  2  0
 65 56  1  0
 65 66  1  0
 67 68  2  0
 68 87  1  0
 69 68  1  0
 69 72  1  0
 70 71  1  0
 70 67  1  0
 71 69  2  0
 72 73  1  0
 73 74  2  0
 75 78  1  0
 75 74  1  0
 76 75  2  0
 77 76  1  0
 77 72  2  0
 78 79  1  0
 79 84  2  0
 79 80  1  0
 80 81  2  0
 81 82  1  0
 82 86  1  0
 83 82  2  0
 84 83  1  0
 85 84  1  0
 87 88  1  0
 88 91  1  0
 88 90  1  0
 89 87  2  0
 92 67  1  0
 92 93  1  0
 94 92  1  0
M  ISO  4  13 101  14 101  57 100  65 100
M  END
>  <TORSDO>  (32) 
F 20

>  <SCORE>  (32) 
-12.604

>  <name>  (32) 
31

>  <ligand_id>  (32) 
31

>  <original_smiles>  (32) 
[H]c1c([H])c([H])c2c(c1[H])C([H])([H])C([H])([H])C([H])([H])C2([H])N([H])C(=O)C1([H])N(C(=O)C([H])(N([H])C(=O)C([H])(N([H])C([H])([H])[H])C([H])([H])[H])C(C([H])([H])[H])(C([H])([H])[H])C([H])([H])[H])C([H])([H])c2c([H])c(OC([H])([H])C(C([H])([H])[H])(C([H])([H])[H])C3([H])C([H])([H])c4c([H])c([H])c(C([H])([H])C([H])([H])N([H])C(=O)N5C([H])([H])C([H])([H])C([H])([H])C([H])(n6nc(-c7c([H])c([H])c(Oc8c([H])c([H])c(F)c([H])c8F)c([H])c7[H])c(C(=O)N([H])[H])c6N([H])[H])C5([H])[H])c([H])c4C3([H])[H])c([H])c([H])c2C1([H])[H]

>  <smiles>  (32) 
[H]c1c([H])c([H])c2c(c1[H])C([H])([H])C([H])([H])C([H])([H])C2([H])N([H])C(=O)C1([H])N(C(=O)C([H])(N([H])C(=O)C([H])(N([H])C([H])([H])[H])C([H])([H])[H])C(C([H])([H])[H])(C([H])([H])[H])C([H])([H])[H])C([H])([H])c2c([H])c(OC([H])([H])C(C([H])([H])[H])(C([H])([H])[H])C3([H])C([H])([H])c4c([H])c([H])c(C([H])([H])C([H])([H])N([H])C(=O)N5C([H])([H])C([H])([H])C([H])([H])C([H])(n6nc(-c7c([H])c([H])c(Oc8c([H])c([H])c(F)c([H])c8F)c([H])c7[H])c(C(=O)N([H])[H])c6N([H])[H])C5([H])[H])c([H])c4C3([H])[H])c([H])c([H])c2C1([H])[H]

$$$$
32:0:0
     RDKit          3D

 95104  0  0  1  0  0  0  0  0999 V2000
  -29.8690  -21.2710   20.1470 C   0  0  0  0  0  2  0  0  0  0  0  0
  -30.5700  -22.0780   22.2750 C   0  0  0  0  0  2  0  0  0  0  0  0
  -30.5320  -20.0980   20.9230 C   0  0  0  0  0  3  0  0  0  0  0  0
  -30.4920  -20.5530   22.3890 C   0  0  0  0  0  3  0  0  0  0  0  0
  -31.5860  -19.9380   23.2760 C   0  0  0  0  0  1  0  0  0  0  0  0
  -29.7710  -22.4260   21.0820 N   0  0  1  0  0  4  0  0  0  0  0  0
  -28.8070  -22.4330   21.3830 H   0  0  0  0  0  0  0  0  0  0  0  0
  -27.8960  -17.3770   20.2960 C   0  0  0  0  0  3  0  0  0  0  0  0
  -28.5280  -18.6260   20.3920 C   0  0  0  0  0  3  0  0  0  0  0  0
  -28.6240  -16.2040   20.5400 C   0  0  0  0  0  3  0  0  0  0  0  0
  -30.6440  -17.5210   20.9250 C   0  0  0  0  0  3  0  0  0  0  0  0
  -29.9020  -18.7150   20.7110 C   0  0  0  0  0  0  0  0  0  0  0  0
  -30.0010  -16.2580   20.8430 C   0  0  0  0  0  0  0  0  0  0  0  0
  -31.1170  -14.1540   20.2660 C   0  0  0  0  0  0  0  0  0  0  0  0
  -30.8520  -11.8600   19.3690 C   0  0  0  0  0  2  0  0  0  0  0  0
  -29.9230  -11.8680   18.1370 C   0  0  0  0  0  2  0  0  0  0  0  0
  -28.4390  -11.8030   18.5500 C   0  0  0  0  0  2  0  0  0  0  0  0
  -28.0850  -12.8310   19.6560 C   0  0  0  0  0  3  0  0  0  0  0  0
  -29.1070  -12.7330   20.8110 C   0  0  0  0  0  2  0  0  0  0  0  0
  -30.4600  -12.9610   20.2600 N   0  0  0  0  0  0  0  0  0  0  0  0
  -32.1220  -14.3860   19.5860 O   0  0  0  0  0  0  0  0  0  0  0  0
  -30.6350  -15.0290   21.1630 N   0  0  0  0  0  0  0  0  0  0  0  0
  -30.1160  -14.5160   21.8590 H   0  0  0  0  0  0  0  0  0  0  0  0
  -25.7200  -13.6070   20.3330 C   0  0  0  0  0  0  0  0  0  0  0  0
  -24.6080  -12.9130   20.7260 C   0  0  0  0  0  0  0  0  0  0  0  0
  -24.9840  -11.5340   20.7270 C   0  0  0  0  0  0  0  0  0  0  0  0
  -26.7130  -12.6590   20.1320 N   0  0  0  0  0  0  0  0  0  0  0  0
  -26.2690  -11.4080   20.4190 N   0  0  0  0  0  0  0  0  0  0  0  0
  -24.1820  -10.3250   20.9470 C   0  0  0  0  0  0  0  0  0  0  0  0
  -24.5410   -9.3690   21.9230 C   0  0  0  0  0  3  0  0  0  0  0  0
  -23.7440   -8.2230   22.1300 C   0  0  0  0  0  3  0  0  0  0  0  0
  -22.5760   -8.0220   21.3590 C   0  0  0  0  0  0  0  0  0  0  0  0
  -22.2340   -8.9650   20.3720 C   0  0  0  0  0  3  0  0  0  0  0  0
  -23.0320  -10.1040   20.1640 C   0  0  0  0  0  3  0  0  0  0  0  0
  -21.7570   -6.9240   21.4700 O   0  0  0  0  0  0  0  0  0  0  0  0
  -21.6280   -6.2380   22.6510 C   0  0  0  0  0  0  0  0  0  0  0  0
  -21.1910   -6.8710   23.8350 C   0  0  0  0  0  3  0  0  0  0  0  0
  -21.0060   -6.1160   25.0100 C   0  0  0  0  0  3  0  0  0  0  0  0
  -21.2470   -4.7300   25.0030 C   0  0  0  0  0  0  0  0  0  0  0  0
  -21.6790   -4.0960   23.8240 C   0  0  0  0  0  3  0  0  0  0  0  0
  -21.8660   -4.8490   22.6500 C   0  0  0  0  0  0  0  0  0  0  0  0
  -22.2630   -4.2310   21.5120 F   0  0  0  0  0  0  0  0  0  0  0  0
  -21.0600   -4.0020   26.1280 F   0  0  0  0  0  0  0  0  0  0  0  0
  -23.2440  -13.4820   20.9930 C   0  0  0  0  0  0  0  0  0  0  0  0
  -22.4830  -12.8590   21.8870 N   0  0  0  0  0  0  0  0  0  0  0  0
  -22.8640  -14.5160   20.4450 O   0  0  0  0  0  0  0  0  0  0  0  0
  -22.8000  -12.0220   22.3530 H   0  0  0  0  0  0  0  0  0  0  0  0
  -21.5670  -13.2250   22.1050 H   0  0  0  0  0  0  0  0  0  0  0  0
  -25.9590  -14.9600   20.1130 N   0  0  0  0  0  0  0  0  0  0  0  0
  -25.2240  -15.6550   20.1800 H   0  0  0  0  0  0  0  0  0  0  0  0
  -26.8300  -15.3390   19.7620 H   0  0  0  0  0  0  0  0  0  0  0  0
  -30.0590  -23.7590   20.4780 C   0  0  0  0  0  2  0  0  0  0  0  0
  -29.7550  -24.9660   21.4090 C   0  0  0  0  0  2  0  0  0  0  0  0
  -28.3410  -25.5780   21.2880 C   0  0  0  0  0  2  0  0  0  0  0  0
  -28.3330  -26.6370   20.3310 O   0  0  0  0  0  0  0  0  0  0  0  0
  -24.5790  -31.9360   23.2590 C   0  0  0  0  0  0  0  0  0  0  0  0
  -27.1770  -27.3780   20.3350 C   0  0  0  0  0  0  0  0  0  0  0  0
  -23.3600  -30.5070   21.6450 C   0  0  0  0  0  3  0  0  0  0  0  0
  -24.8020  -28.8990   20.2850 C   0  0  0  0  0  0  0  0  0  0  0  0
  -25.8910  -30.8220   21.4580 C   0  0  0  0  0  2  0  0  0  0  0  0
  -25.9610  -29.4300   20.8650 C   0  0  0  0  0  0  0  0  0  0  0  0
  -27.1550  -28.6750   20.8890 C   0  0  0  0  0  3  0  0  0  0  0  0
  -26.0060  -26.8510   19.7550 C   0  0  0  0  0  3  0  0  0  0  0  0
  -24.8170  -27.6070   19.7290 C   0  0  0  0  0  3  0  0  0  0  0  0
  -23.5710  -29.7790   20.2910 C   0  0  0  0  0  2  0  0  0  0  0  0
  -24.6280  -31.1040   22.1800 N   0  0  0  0  0  0  0  0  0  0  0  0
  -23.4980  -32.2430   23.7820 O   0  0  0  0  0  0  0  0  0  0  0  0
  -22.6820  -29.5280   22.6300 C   0  0  0  0  0  0  0  0  0  0  0  0
  -21.3570  -29.3630   22.4910 N   0  0  0  0  0  0  0  0  0  0  0  0
  -23.3460  -28.9190   23.4740 O   0  0  0  0  0  0  0  0  0  0  0  0
  -20.8850  -29.9060   21.7830 H   0  0  0  0  0  0  0  0  0  0  0  0
  -17.9580  -28.2410   22.9800 C   0  0  0  0  0  0  0  0  0  0  0  0
  -20.5160  -28.4630   23.2790 C   0  0  0  0  0  3  0  0  0  0  0  0
  -20.6020  -27.0140   22.7470 C   0  0  0  0  0  2  0  0  0  0  0  0
  -19.5080  -26.6790   21.7280 C   0  0  0  0  0  2  0  0  0  0  0  0
  -18.1210  -26.8680   22.3490 C   0  0  0  0  0  2  0  0  0  0  0  0
  -19.0840  -28.9950   23.4030 C   0  0  0  0  0  0  0  0  0  0  0  0
  -18.8810  -30.2800   23.9510 C   0  0  0  0  0  3  0  0  0  0  0  0
  -17.5830  -30.8090   24.0820 C   0  0  0  0  0  3  0  0  0  0  0  0
  -16.4710  -30.0510   23.6770 C   0  0  0  0  0  3  0  0  0  0  0  0
  -16.6590  -28.7680   23.1310 C   0  0  0  0  0  3  0  0  0  0  0  0
  -25.8710  -32.5600   23.8730 C   0  0  0  0  0  3  0  0  0  0  0  0
  -26.3910  -31.7880   25.1480 C   0  0  1  0  0  0  0  0  0  0  0  0
  -25.2990  -31.5450   26.2150 C   0  0  0  0  0  1  0  0  0  0  0  0
  -26.9780  -30.4130   24.7510 C   0  0  0  0  0  1  0  0  0  0  0  0
  -27.5390  -32.5850   25.8110 C   0  0  0  0  0  1  0  0  0  0  0  0
  -25.5770  -33.9610   24.1970 N   0  0  0  0  0  0  0  0  0  0  0  0
  -25.9130  -35.0060   23.4290 C   0  0  0  0  0  0  0  0  0  0  0  0
  -26.5760  -34.8910   22.3950 O   0  0  0  0  0  0  0  0  0  0  0  0
  -24.9870  -34.1250   25.0000 H   0  0  0  0  0  0  0  0  0  0  0  0
  -24.1940  -36.8060   23.0730 C   0  0  0  0  0  1  0  0  0  0  0  0
  -25.4370  -36.4000   23.8790 C   0  0  0  0  0  3  0  0  0  0  0  0
  -27.5840  -37.2750   24.6890 C   0  0  0  0  0  1  0  0  0  0  0  0
  -26.4760  -37.4460   23.7530 N   0  0  0  0  0  0  0  0  0  0  0  0
  -26.0780  -38.3690   23.8980 H   0  0  0  0  0  0  0  0  0  0  0  0
  1  3  1  0
  1  6  1  0
  2  4  1  0
  3 12  1  0
  3  4  1  0
  4  5  1  0
  6  7  1  1
  6  2  1  0
  8  9  2  0
  8 10  1  0
  9 12  1  0
 10 13  2  0
 12 11  2  0
 13 11  1  0
 13 22  1  0
 14 22  1  0
 15 20  1  0
 16 17  1  0
 16 15  1  0
 18 17  1  0
 18 27  1  0
 18 19  1  0
 20 14  1  0
 20 19  1  0
 21 14  2  0
 22 23  1  0
 24 25  2  0
 25 26  1  0
 25 44  1  0
 26 29  1  0
 27 24  1  0
 27 28  1  0
 28 26  2  0
 29 30  1  0
 30 31  2  0
 32 35  1  0
 32 31  1  0
 33 32  2  0
 34 33  1  0
 34 29  2  0
 35 36  1  0
 36 37  1  0
 37 38  2  0
 39 38  1  0
 39 43  1  0
 40 39  2  0
 41 36  2  0
 41 40  1  0
 42 41  1  0
 44 45  1  0
 45 48  1  0
 45 47  1  0
 46 44  2  0
 49 50  1  0
 49 24  1  0
 51 49  1  0
 52  6  1  0
 52 53  1  0
 54 53  1  0
 55 57  1  0
 55 54  1  0
 56 67  2  0
 57 62  1  0
 58 66  1  0
 58 68  1  0
 59 65  1  0
 59 61  1  0
 60 66  1  0
 61 62  2  0
 61 60  1  0
 63 57  2  0
 64 63  1  0
 64 59  2  0
 65 58  1  0
 66 56  1  0
 68 70  2  0
 69 68  1  0
 71 69  1  0
 72 81  2  0
 72 77  1  0
 73 69  1  0
 73 77  1  0
 74 73  1  0
 75 76  1  0
 75 74  1  0
 76 72  1  0
 77 78  2  0
 78 79  1  0
 80 79  2  0
 81 80  1  0
 82 56  1  0
 82 87  1  0
 82 83  1  0
 83 86  1  1
 83 84  1  0
 85 83  1  0
 87 90  1  0
 88 92  1  0
 88 87  1  0
 89 88  2  0
 92 91  1  0
 94 92  1  0
 94 95  1  0
 94 93  1  0
M  ISO  4  14 100  22 100  54 101  55 101
M  END
>  <TORSDO>  (33) 
F 20

>  <SCORE>  (33) 
-14.077

>  <name>  (33) 
32

>  <ligand_id>  (33) 
32

>  <original_smiles>  (33) 
[H]c1c([H])c([H])c2c(c1[H])C([H])([H])C([H])([H])C([H])([H])C2([H])N([H])C(=O)C1([H])N(C(=O)C([H])(N([H])C(=O)C([H])(N([H])C([H])([H])[H])C([H])([H])[H])C(C([H])([H])[H])(C([H])([H])[H])C([H])([H])[H])C([H])([H])c2c([H])c(OC([H])([H])C([H])([H])C([H])([H])[N+]3([H])C([H])([H])C([H])(c4c([H])c([H])c([H])c(N([H])C(=O)N5C([H])([H])C([H])([H])C([H])([H])C([H])(n6nc(-c7c([H])c([H])c(Oc8c([H])c([H])c(F)c([H])c8F)c([H])c7[H])c(C(=O)N([H])[H])c6N([H])[H])C5([H])[H])c4[H])C([H])(C([H])([H])[H])C3([H])[H])c([H])c([H])c2C1([H])[H]

>  <smiles>  (33) 
[H]c1c([H])c([H])c2c(c1[H])C([H])([H])C([H])([H])C([H])([H])C2([H])N([H])C(=O)C1([H])N(C(=O)C([H])(N([H])C(=O)C([H])(N([H])C([H])([H])[H])C([H])([H])[H])C(C([H])([H])[H])(C([H])([H])[H])C([H])([H])[H])C([H])([H])c2c([H])c(OC([H])([H])C([H])([H])C([H])([H])[N+]3([H])C([H])([H])C([H])(c4c([H])c([H])c([H])c(N([H])C(=O)N5C([H])([H])C([H])([H])C([H])([H])C([H])(n6nc(-c7c([H])c([H])c(Oc8c([H])c([H])c(F)c([H])c8F)c([H])c7[H])c(C(=O)N([H])[H])c6N([H])[H])C5([H])[H])c4[H])C([H])(C([H])([H])[H])C3([H])[H])c([H])c([H])c2C1([H])[H]

$$$$
33:0:0
     RDKit          3D

 90 98  0  0  1  0  0  0  0  0999 V2000
  -29.8420  -21.9830   20.9250 C   0  0  0  0  0  2  0  0  0  0  0  0
  -27.9470  -22.3070   20.2030 C   0  0  0  0  0  2  0  0  0  0  0  0
  -28.6400  -21.0500   20.7410 C   0  0  0  0  0  3  0  0  0  0  0  0
  -28.8830  -23.0860   21.0200 N   0  0  2  0  0  4  0  0  0  0  0  0
  -28.5430  -23.1560   21.9710 H   0  0  0  0  0  0  0  0  0  0  0  0
  -28.7500  -19.8030   19.8690 C   0  0  0  0  0  2  0  0  0  0  0  0
  -29.6700  -18.6950   20.4370 C   0  0  0  0  0  2  0  0  0  0  0  0
  -28.8810  -17.4380   20.8600 C   0  0  0  0  0  2  0  0  0  0  0  0
  -29.7400  -16.2260   21.2780 C   0  0  0  0  0  2  0  0  0  0  0  0
  -31.0440  -14.4610   20.0430 C   0  0  0  0  0  0  0  0  0  0  0  0
  -30.6870  -12.2810   18.9640 C   0  0  0  0  0  2  0  0  0  0  0  0
  -29.7180  -12.4640   17.7760 C   0  0  0  0  0  2  0  0  0  0  0  0
  -28.2500  -12.3700   18.2420 C   0  0  0  0  0  2  0  0  0  0  0  0
  -27.9600  -13.2520   19.4870 C   0  0  0  0  0  3  0  0  0  0  0  0
  -29.0320  -13.0150   20.5720 C   0  0  0  0  0  2  0  0  0  0  0  0
  -30.3430  -13.2990   19.9680 N   0  0  0  0  0  0  0  0  0  0  0  0
  -32.1950  -14.5770   19.6130 O   0  0  0  0  0  0  0  0  0  0  0  0
  -30.3020  -15.5780   20.0930 N   0  0  0  0  0  0  0  0  0  0  0  0
  -30.7030  -16.2700   19.4790 H   0  0  0  0  0  0  0  0  0  0  0  0
  -25.6060  -13.9530   20.2490 C   0  0  0  0  0  0  0  0  0  0  0  0
  -24.5200  -13.2190   20.6500 C   0  0  0  0  0  0  0  0  0  0  0  0
  -24.9340  -11.8540   20.6110 C   0  0  0  0  0  0  0  0  0  0  0  0
  -26.6120  -13.0330   19.9990 N   0  0  0  0  0  0  0  0  0  0  0  0
  -26.2140  -11.7660   20.2770 N   0  0  0  0  0  0  0  0  0  0  0  0
  -24.1710  -10.6190   20.8250 C   0  0  0  0  0  0  0  0  0  0  0  0
  -24.5690   -9.6690   21.7910 C   0  0  0  0  0  3  0  0  0  0  0  0
  -23.8110   -8.4960   21.9940 C   0  0  0  0  0  3  0  0  0  0  0  0
  -22.6420   -8.2660   21.2310 C   0  0  0  0  0  0  0  0  0  0  0  0
  -22.2650   -9.2020   20.2530 C   0  0  0  0  0  3  0  0  0  0  0  0
  -23.0210  -10.3670   20.0480 C   0  0  0  0  0  3  0  0  0  0  0  0
  -21.8600   -7.1410   21.3410 O   0  0  0  0  0  0  0  0  0  0  0  0
  -21.7360   -6.4640   22.5280 C   0  0  0  0  0  0  0  0  0  0  0  0
  -21.2640   -7.0960   23.6990 C   0  0  0  0  0  3  0  0  0  0  0  0
  -21.0860   -6.3470   24.8800 C   0  0  0  0  0  3  0  0  0  0  0  0
  -21.3660   -4.9670   24.8890 C   0  0  0  0  0  0  0  0  0  0  0  0
  -21.8270   -4.3350   23.7200 C   0  0  0  0  0  3  0  0  0  0  0  0
  -22.0090   -5.0820   22.5430 C   0  0  0  0  0  0  0  0  0  0  0  0
  -22.4360   -4.4650   21.4150 F   0  0  0  0  0  0  0  0  0  0  0  0
  -21.1870   -4.2460   26.0200 F   0  0  0  0  0  0  0  0  0  0  0  0
  -23.1470  -13.7450   20.9560 C   0  0  0  0  0  0  0  0  0  0  0  0
  -22.4270  -13.0780   21.8520 N   0  0  0  0  0  0  0  0  0  0  0  0
  -22.7270  -14.7810   20.4400 O   0  0  0  0  0  0  0  0  0  0  0  0
  -22.7890  -12.2460   22.2910 H   0  0  0  0  0  0  0  0  0  0  0  0
  -21.5060  -13.4050   22.1100 H   0  0  0  0  0  0  0  0  0  0  0  0
  -25.8180  -15.3130   20.0590 N   0  0  0  0  0  0  0  0  0  0  0  0
  -25.0810  -16.0040   20.1640 H   0  0  0  0  0  0  0  0  0  0  0  0
  -26.6860  -15.7020   19.7130 H   0  0  0  0  0  0  0  0  0  0  0  0
  -29.3010  -24.4060   20.4790 C   0  0  0  0  0  2  0  0  0  0  0  0
  -28.3050  -25.4920   20.9150 C   0  0  0  0  0  2  0  0  0  0  0  0
  -28.4690  -26.7330   20.2160 O   0  0  0  0  0  0  0  0  0  0  0  0
  -24.6300  -31.8950   23.2550 C   0  0  0  0  0  0  0  0  0  0  0  0
  -27.3160  -27.4830   20.1890 C   0  0  0  0  0  0  0  0  0  0  0  0
  -23.4440  -30.4950   21.5970 C   0  0  0  0  0  3  0  0  0  0  0  0
  -24.9160  -28.9630   20.1850 C   0  0  0  0  0  0  0  0  0  0  0  0
  -25.9690  -30.8610   21.4270 C   0  0  0  0  0  2  0  0  0  0  0  0
  -26.0660  -29.4950   20.7820 C   0  0  0  0  0  0  0  0  0  0  0  0
  -27.2710  -28.7590   20.7870 C   0  0  0  0  0  3  0  0  0  0  0  0
  -26.1540  -26.9640   19.5750 C   0  0  0  0  0  3  0  0  0  0  0  0
  -24.9520  -27.6920   19.5840 C   0  0  0  0  0  3  0  0  0  0  0  0
  -23.6700  -29.8140   20.2200 C   0  0  0  0  0  2  0  0  0  0  0  0
  -24.6990  -31.0970   22.1520 N   0  0  0  0  0  0  0  0  0  0  0  0
  -23.5430  -32.1640   23.7840 O   0  0  0  0  0  0  0  0  0  0  0  0
  -22.7820  -29.4740   22.5490 C   0  0  0  0  0  0  0  0  0  0  0  0
  -21.4600  -29.2940   22.4080 N   0  0  0  0  0  0  0  0  0  0  0  0
  -23.4560  -28.8450   23.3680 O   0  0  0  0  0  0  0  0  0  0  0  0
  -20.9770  -29.8550   21.7210 H   0  0  0  0  0  0  0  0  0  0  0  0
  -18.0820  -28.0990   22.8670 C   0  0  0  0  0  0  0  0  0  0  0  0
  -20.6370  -28.3550   23.1680 C   0  0  0  0  0  3  0  0  0  0  0  0
  -20.7460  -26.9230   22.5900 C   0  0  0  0  0  2  0  0  0  0  0  0
  -19.6540  -26.6020   21.5650 C   0  0  0  0  0  2  0  0  0  0  0  0
  -18.2630  -26.7510   22.1900 C   0  0  0  0  0  2  0  0  0  0  0  0
  -19.1950  -28.8590   23.3110 C   0  0  0  0  0  0  0  0  0  0  0  0
  -18.9750  -30.1230   23.8990 C   0  0  0  0  0  3  0  0  0  0  0  0
  -17.6690  -30.6280   24.0480 C   0  0  0  0  0  3  0  0  0  0  0  0
  -16.5670  -29.8640   23.6250 C   0  0  0  0  0  3  0  0  0  0  0  0
  -16.7740  -28.6030   23.0380 C   0  0  0  0  0  3  0  0  0  0  0  0
  -25.9100  -32.5240   23.8880 C   0  0  0  0  0  3  0  0  0  0  0  0
  -25.6040  -33.9260   24.2050 N   0  0  0  0  0  0  0  0  0  0  0  0
  -25.9610  -34.9690   23.4440 C   0  0  0  0  0  0  0  0  0  0  0  0
  -26.6510  -34.8530   22.4280 O   0  0  0  0  0  0  0  0  0  0  0  0
  -24.9910  -34.0900   24.9900 H   0  0  0  0  0  0  0  0  0  0  0  0
  -24.2530  -36.7690   23.0360 C   0  0  0  0  0  1  0  0  0  0  0  0
  -25.4720  -36.3640   23.8800 C   0  0  0  0  0  3  0  0  0  0  0  0
  -27.5930  -37.2380   24.7550 C   0  0  0  0  0  1  0  0  0  0  0  0
  -26.5150  -37.4080   23.7830 N   0  0  0  0  0  0  0  0  0  0  0  0
  -26.1130  -38.3330   23.9170 H   0  0  0  0  0  0  0  0  0  0  0  0
  -26.4070  -31.7590   25.1760 C   0  0  1  0  0  0  0  0  0  0  0  0
  -25.2990  -31.5290   26.2310 C   0  0  0  0  0  1  0  0  0  0  0  0
  -26.9940  -30.3780   24.7970 C   0  0  0  0  0  1  0  0  0  0  0  0
  -27.5510  -32.5530   25.8480 C   0  0  0  0  0  1  0  0  0  0  0  0
  1  4  1  0
  2  3  1  0
  2  4  1  0
  3  6  1  0
  3  1  1  0
  4  5  1  1
  6  7  1  0
  7  8  1  0
  8  9  1  0
 10 18  1  0
 11 16  1  0
 12 13  1  0
 12 11  1  0
 14 13  1  0
 14 23  1  0
 14 15  1  0
 16 10  1  0
 16 15  1  0
 17 10  2  0
 18  9  1  0
 19 18  1  0
 20 21  2  0
 21 40  1  0
 22 21  1  0
 22 25  1  0
 23 20  1  0
 23 24  1  0
 24 22  2  0
 25 26  1  0
 26 27  2  0
 28 31  1  0
 28 27  1  0
 29 28  2  0
 30 29  1  0
 30 25  2  0
 31 32  1  0
 32 37  2  0
 32 33  1  0
 33 34  2  0
 34 35  1  0
 35 39  1  0
 36 35  2  0
 37 36  1  0
 38 37  1  0
 40 41  1  0
 41 44  1  0
 41 43  1  0
 42 40  2  0
 45 46  1  0
 45 20  1  0
 47 45  1  0
 48 49  1  0
 48  4  1  0
 50 49  1  0
 51 62  2  0
 52 50  1  0
 52 57  1  0
 53 61  1  0
 53 63  1  0
 54 60  1  0
 54 56  1  0
 55 61  1  0
 56 57  2  0
 56 55  1  0
 58 59  1  0
 58 52  2  0
 59 54  2  0
 60 53  1  0
 61 51  1  0
 63 65  2  0
 64 63  1  0
 66 64  1  0
 67 76  2  0
 67 72  1  0
 68 64  1  0
 68 72  1  0
 69 68  1  0
 70 71  1  0
 70 69  1  0
 71 67  1  0
 72 73  2  0
 73 74  1  0
 75 74  2  0
 76 75  1  0
 77 51  1  0
 77 78  1  0
 77 87  1  0
 78 81  1  0
 79 83  1  0
 79 78  1  0
 80 79  2  0
 83 82  1  0
 85 83  1  0
 85 86  1  0
 85 84  1  0
 87 90  1  1
 87 88  1  0
 89 87  1  0
M  ISO  4  10 100  18 100  49 101  50 101
M  END
>  <TORSDO>  (34) 
F 22

>  <SCORE>  (34) 
-12.969

>  <name>  (34) 
33

>  <ligand_id>  (34) 
33

>  <original_smiles>  (34) 
[H]c1c([H])c([H])c2c(c1[H])C([H])([H])C([H])([H])C([H])([H])C2([H])N([H])C(=O)C1([H])N(C(=O)C([H])(N([H])C(=O)C([H])(N([H])C([H])([H])[H])C([H])([H])[H])C(C([H])([H])[H])(C([H])([H])[H])C([H])([H])[H])C([H])([H])c2c([H])c(OC([H])([H])C([H])([H])[N+]3([H])C([H])([H])C([H])(C([H])([H])C([H])([H])C([H])([H])C([H])([H])N([H])C(=O)N4C([H])([H])C([H])([H])C([H])([H])C([H])(n5nc(-c6c([H])c([H])c(Oc7c([H])c([H])c(F)c([H])c7F)c([H])c6[H])c(C(=O)N([H])[H])c5N([H])[H])C4([H])[H])C3([H])[H])c([H])c([H])c2C1([H])[H]

>  <smiles>  (34) 
[H]c1c([H])c([H])c2c(c1[H])C([H])([H])C([H])([H])C([H])([H])C2([H])N([H])C(=O)C1([H])N(C(=O)C([H])(N([H])C(=O)C([H])(N([H])C([H])([H])[H])C([H])([H])[H])C(C([H])([H])[H])(C([H])([H])[H])C([H])([H])[H])C([H])([H])c2c([H])c(OC([H])([H])C([H])([H])[N+]3([H])C([H])([H])C([H])(C([H])([H])C([H])([H])C([H])([H])C([H])([H])N([H])C(=O)N4C([H])([H])C([H])([H])C([H])([H])C([H])(n5nc(-c6c([H])c([H])c(Oc7c([H])c([H])c(F)c([H])c7F)c([H])c6[H])c(C(=O)N([H])[H])c5N([H])[H])C4([H])[H])C3([H])[H])c([H])c([H])c2C1([H])[H]

$$$$
34:0:0
     RDKit          3D

 95104  0  0  1  0  0  0  0  0999 V2000
  -29.2350  -22.6310   17.3690 C   0  0  0  0  0  2  0  0  0  0  0  0
  -29.6590  -22.9970   19.6700 C   0  0  0  0  0  2  0  0  0  0  0  0
  -29.7950  -21.1980   17.4600 C   0  0  0  0  0  2  0  0  0  0  0  0
  -30.2310  -21.5710   19.8310 C   0  0  0  0  0  2  0  0  0  0  0  0
  -29.9300  -23.5130   18.3150 N   0  0  0  0  0  0  0  0  0  0  0  0
  -29.6400  -20.6500   18.8310 N   0  0  2  0  0  4  0  0  0  0  0  0
  -28.6460  -20.6280   19.0020 H   0  0  0  0  0  0  0  0  0  0  0  0
  -30.1340  -19.2520   18.9440 C   0  0  0  0  0  2  0  0  0  0  0  0
  -29.8210  -16.5850   20.8610 C   0  0  0  0  0  0  0  0  0  0  0  0
  -29.3880  -16.9350   19.6490 C   0  0  0  0  0  0  0  0  0  0  0  0
  -29.9230  -18.0190   21.3490 C   0  0  0  0  0  2  0  0  0  0  0  0
  -29.3220  -18.4240   19.9510 C   0  0  0  0  0  3  0  0  0  0  0  0
  -29.0840  -16.2770   18.6260 N   0  0  0  0  0  2  0  0  0  0  0  0
  -30.0230  -15.4830   21.4370 N   0  0  0  0  0  2  0  0  0  0  0  0
  -28.0900  -16.2960   18.4310 H   0  0  0  0  0  0  0  0  0  0  0  0
  -30.7590  -14.5100   20.7800 C   0  0  0  0  0  0  0  0  0  0  0  0
  -30.5130  -12.3640   19.5890 C   0  0  0  0  0  2  0  0  0  0  0  0
  -29.6250  -12.5840   18.3480 C   0  0  0  0  0  2  0  0  0  0  0  0
  -28.1320  -12.4510   18.7090 C   0  0  0  0  0  2  0  0  0  0  0  0
  -27.7410  -13.2880   19.9570 C   0  0  0  0  0  3  0  0  0  0  0  0
  -28.7390  -13.0370   21.1090 C   0  0  0  0  0  2  0  0  0  0  0  0
  -30.0980  -13.3310   20.6150 N   0  0  0  0  0  0  0  0  0  0  0  0
  -31.8750  -14.7140   20.2950 O   0  0  0  0  0  0  0  0  0  0  0  0
  -25.3130  -13.9250   20.5310 C   0  0  0  0  0  0  0  0  0  0  0  0
  -24.2220  -13.1640   20.8600 C   0  0  0  0  0  0  0  0  0  0  0  0
  -24.6800  -11.8100   20.8810 C   0  0  0  0  0  0  0  0  0  0  0  0
  -26.3630  -13.0340   20.3700 N   0  0  0  0  0  0  0  0  0  0  0  0
  -25.9820  -11.7600   20.6380 N   0  0  0  0  0  0  0  0  0  0  0  0
  -23.9430  -10.5550   21.0630 C   0  0  0  0  0  0  0  0  0  0  0  0
  -24.3430   -9.5970   22.0210 C   0  0  0  0  0  3  0  0  0  0  0  0
  -23.6080   -8.4030   22.1870 C   0  0  0  0  0  3  0  0  0  0  0  0
  -22.4620   -8.1580   21.3950 C   0  0  0  0  0  0  0  0  0  0  0  0
  -22.0820   -9.1040   20.4280 C   0  0  0  0  0  3  0  0  0  0  0  0
  -22.8160  -10.2890   20.2590 C   0  0  0  0  0  3  0  0  0  0  0  0
  -21.7040   -7.0140   21.4700 O   0  0  0  0  0  0  0  0  0  0  0  0
  -21.6240   -6.2770   22.6240 C   0  0  0  0  0  0  0  0  0  0  0  0
  -21.1820   -6.8430   23.8410 C   0  0  0  0  0  3  0  0  0  0  0  0
  -21.0490   -6.0320   24.9860 C   0  0  0  0  0  3  0  0  0  0  0  0
  -21.3470   -4.6590   24.9160 C   0  0  0  0  0  0  0  0  0  0  0  0
  -21.7830   -4.0930   23.7040 C   0  0  0  0  0  3  0  0  0  0  0  0
  -21.9180   -4.9000   22.5620 C   0  0  0  0  0  0  0  0  0  0  0  0
  -22.3170   -4.3470   21.3910 F   0  0  0  0  0  0  0  0  0  0  0  0
  -21.2120   -3.8770   26.0120 F   0  0  0  0  0  0  0  0  0  0  0  0
  -22.8150  -13.6510   21.0560 C   0  0  0  0  0  0  0  0  0  0  0  0
  -22.0420  -12.9750   21.9000 N   0  0  0  0  0  0  0  0  0  0  0  0
  -22.4040  -14.6660   20.4940 O   0  0  0  0  0  0  0  0  0  0  0  0
  -22.3850  -12.1560   22.3790 H   0  0  0  0  0  0  0  0  0  0  0  0
  -21.0960  -13.2840   22.0750 H   0  0  0  0  0  0  0  0  0  0  0  0
  -25.4920  -15.2910   20.3370 N   0  0  0  0  0  0  0  0  0  0  0  0
  -24.7340  -15.9600   20.4170 H   0  0  0  0  0  0  0  0  0  0  0  0
  -26.3860  -15.7180   20.1270 H   0  0  0  0  0  0  0  0  0  0  0  0
  -29.3920  -24.8680   18.1520 C   0  0  0  0  0  2  0  0  0  0  0  0
  -30.2150  -25.9480   18.8900 C   0  0  0  0  0  2  0  0  0  0  0  0
  -29.3640  -27.1840   19.2120 C   0  0  0  0  0  2  0  0  0  0  0  0
  -28.3480  -26.7420   20.1000 O   0  0  0  0  0  0  0  0  0  0  0  0
  -24.5520  -31.8720   23.2180 C   0  0  0  0  0  0  0  0  0  0  0  0
  -27.2040  -27.4900   20.1050 C   0  0  0  0  0  0  0  0  0  0  0  0
  -23.3410  -30.4700   21.5760 C   0  0  0  0  0  3  0  0  0  0  0  0
  -24.7950  -28.9450   20.1390 C   0  0  0  0  0  0  0  0  0  0  0  0
  -25.8590  -30.8530   21.3610 C   0  0  0  0  0  2  0  0  0  0  0  0
  -25.9510  -29.4860   20.7180 C   0  0  0  0  0  0  0  0  0  0  0  0
  -27.1620  -28.7650   20.7020 C   0  0  0  0  0  3  0  0  0  0  0  0
  -26.0360  -26.9420   19.5390 C   0  0  0  0  0  3  0  0  0  0  0  0
  -24.8300  -27.6690   19.5470 C   0  0  0  0  0  3  0  0  0  0  0  0
  -23.5440  -29.7920   20.1930 C   0  0  0  0  0  2  0  0  0  0  0  0
  -24.6020  -31.0780   22.1110 N   0  0  0  0  0  0  0  0  0  0  0  0
  -23.4740  -32.1370   23.7660 O   0  0  0  0  0  0  0  0  0  0  0  0
  -22.7000  -29.4440   22.5370 C   0  0  0  0  0  0  0  0  0  0  0  0
  -21.3730  -29.2650   22.4220 N   0  0  0  0  0  0  0  0  0  0  0  0
  -23.3910  -28.8120   23.3400 O   0  0  0  0  0  0  0  0  0  0  0  0
  -20.8780  -29.8300   21.7460 H   0  0  0  0  0  0  0  0  0  0  0  0
  -18.0020  -28.0830   22.9480 C   0  0  0  0  0  0  0  0  0  0  0  0
  -20.5620  -28.3260   23.1960 C   0  0  0  0  0  3  0  0  0  0  0  0
  -20.6520  -26.8990   22.6080 C   0  0  0  0  0  2  0  0  0  0  0  0
  -19.5390  -26.5890   21.6030 C   0  0  0  0  0  2  0  0  0  0  0  0
  -18.1650  -26.7370   22.2610 C   0  0  0  0  0  2  0  0  0  0  0  0
  -19.1280  -28.8360   23.3720 C   0  0  0  0  0  0  0  0  0  0  0  0
  -18.9230  -30.0970   23.9730 C   0  0  0  0  0  3  0  0  0  0  0  0
  -17.6220  -30.6050   24.1540 C   0  0  0  0  0  3  0  0  0  0  0  0
  -16.5110  -29.8490   23.7460 C   0  0  0  0  0  3  0  0  0  0  0  0
  -16.7000  -28.5900   23.1490 C   0  0  0  0  0  3  0  0  0  0  0  0
  -25.8410  -32.5020   23.8320 C   0  0  0  0  0  3  0  0  0  0  0  0
  -25.5340  -33.8990   24.1660 N   0  0  0  0  0  0  0  0  0  0  0  0
  -25.8720  -34.9520   23.4110 C   0  0  0  0  0  0  0  0  0  0  0  0
  -26.5460  -34.8510   22.3810 O   0  0  0  0  0  0  0  0  0  0  0  0
  -24.9340  -34.0510   24.9640 H   0  0  0  0  0  0  0  0  0  0  0  0
  -24.1510  -36.7490   23.0450 C   0  0  0  0  0  1  0  0  0  0  0  0
  -25.3820  -36.3390   23.8680 C   0  0  0  0  0  3  0  0  0  0  0  0
  -27.5120  -37.2090   24.7250 C   0  0  0  0  0  1  0  0  0  0  0  0
  -26.4200  -37.3880   23.7740 N   0  0  0  0  0  0  0  0  0  0  0  0
  -26.0150  -38.3090   23.9260 H   0  0  0  0  0  0  0  0  0  0  0  0
  -26.3720  -31.7250   25.1000 C   0  0  1  0  0  0  0  0  0  0  0  0
  -25.2900  -31.4840   26.1770 C   0  0  0  0  0  1  0  0  0  0  0  0
  -26.9510  -30.3500   24.6930 C   0  0  0  0  0  1  0  0  0  0  0  0
  -27.5310  -32.5170   25.7520 C   0  0  0  0  0  1  0  0  0  0  0  0
  1  3  1  0
  1  5  1  0
  2  4  1  0
  3  6  1  0
  5  2  1  0
  6  8  1  0
  6  7  1  1
  6  4  1  0
  9 11  1  0
  9 14  1  0
 10 12  1  0
 10  9  2  0
 12  8  1  0
 12 11  1  0
 13 10  1  0
 15 13  1  0
 16 14  1  0
 17 22  1  0
 18 19  1  0
 18 17  1  0
 20 19  1  0
 20 27  1  0
 20 21  1  0
 22 16  1  0
 22 21  1  0
 23 16  2  0
 24 25  2  0
 25 26  1  0
 25 44  1  0
 26 29  1  0
 27 24  1  0
 27 28  1  0
 28 26  2  0
 29 30  1  0
 30 31  2  0
 32 35  1  0
 32 31  1  0
 33 32  2  0
 34 33  1  0
 34 29  2  0
 35 36  1  0
 36 37  1  0
 37 38  2  0
 39 38  1  0
 39 43  1  0
 40 39  2  0
 41 36  2  0
 41 40  1  0
 42 41  1  0
 44 45  1  0
 45 48  1  0
 45 47  1  0
 46 44  2  0
 49 50  1  0
 49 24  1  0
 51 49  1  0
 52  5  1  0
 52 53  1  0
 53 54  1  0
 54 55  1  0
 55 57  1  0
 56 67  2  0
 57 62  1  0
 58 66  1  0
 58 68  1  0
 59 65  1  0
 59 61  1  0
 60 66  1  0
 61 60  1  0
 62 61  2  0
 63 64  1  0
 63 57  2  0
 64 59  2  0
 65 58  1  0
 66 56  1  0
 68 70  2  0
 69 68  1  0
 71 69  1  0
 72 81  2  0
 72 77  1  0
 73 69  1  0
 73 77  1  0
 74 73  1  0
 75 76  1  0
 75 74  1  0
 76 72  1  0
 77 78  2  0
 78 79  1  0
 80 79  2  0
 81 80  1  0
 82 56  1  0
 82 83  1  0
 82 92  1  0
 83 86  1  0
 84 88  1  0
 84 83  1  0
 85 84  2  0
 88 87  1  0
 90 88  1  0
 90 91  1  0
 90 89  1  0
 92 95  1  1
 92 93  1  0
 94 92  1  0
M  ISO  4  14 100  16 100  54 101  55 101
M  END
>  <TORSDO>  (35) 
F 21

>  <SCORE>  (35) 
-13.604

>  <name>  (35) 
34

>  <ligand_id>  (35) 
34

>  <original_smiles>  (35) 
[H]N=C1C(=NC(=O)N2C([H])([H])C([H])([H])C([H])([H])C([H])(n3nc(-c4c([H])c([H])c(Oc5c([H])c([H])c(F)c([H])c5F)c([H])c4[H])c(C(=O)N([H])[H])c3N([H])[H])C2([H])[H])C([H])([H])C1([H])C([H])([H])[N+]1([H])C([H])([H])C([H])([H])N(C([H])([H])C([H])([H])C([H])([H])Oc2c([H])c([H])c3c(c2[H])C([H])([H])N(C(=O)C([H])(N([H])C(=O)C([H])(N([H])C([H])([H])[H])C([H])([H])[H])C(C([H])([H])[H])(C([H])([H])[H])C([H])([H])[H])C([H])(C(=O)N([H])C2([H])c4c([H])c([H])c([H])c([H])c4C([H])([H])C([H])([H])C2([H])[H])C3([H])[H])C([H])([H])C1([H])[H]

>  <smiles>  (35) 
[H]N=C1C(=NC(=O)N2C([H])([H])C([H])([H])C([H])([H])C([H])(n3nc(-c4c([H])c([H])c(Oc5c([H])c([H])c(F)c([H])c5F)c([H])c4[H])c(C(=O)N([H])[H])c3N([H])[H])C2([H])[H])C([H])([H])C1([H])C([H])([H])[N+]1([H])C([H])([H])C([H])([H])N(C([H])([H])C([H])([H])C([H])([H])Oc2c([H])c([H])c3c(c2[H])C([H])([H])N(C(=O)C([H])(N([H])C(=O)C([H])(N([H])C([H])([H])[H])C([H])([H])[H])C(C([H])([H])[H])(C([H])([H])[H])C([H])([H])[H])C([H])(C(=O)N([H])C2([H])c4c([H])c([H])c([H])c([H])c4C([H])([H])C([H])([H])C2([H])[H])C3([H])[H])C([H])([H])C1([H])[H]

$$$$
35:0:0
     RDKit          3D

 93101  0  0  1  0  0  0  0  0999 V2000
  -29.7510  -19.2460   20.7670 C   0  0  0  0  0  0  0  0  0  0  0  0
  -28.8300  -18.2070   18.8650 C   0  0  0  0  0  2  0  0  0  0  0  0
  -29.8380  -17.8190   19.9620 C   0  0  0  0  0  3  0  0  0  0  0  0
  -28.6560  -19.7860   18.8340 C   0  0  0  0  0  3  0  0  0  0  0  0
  -29.2010  -20.3630   20.0850 N   0  0  0  0  0  0  0  0  0  0  0  0
  -30.2550  -19.3410   21.8870 O   0  0  0  0  0  0  0  0  0  0  0  0
  -30.5070  -15.0930   20.2110 C   0  0  0  0  0  0  0  0  0  0  0  0
  -30.3930  -12.7290   19.2710 C   0  0  0  0  0  2  0  0  0  0  0  0
  -29.4340  -12.6780   18.0560 C   0  0  0  0  0  2  0  0  0  0  0  0
  -27.9830  -12.4490   18.5180 C   0  0  0  0  0  2  0  0  0  0  0  0
  -27.5980  -13.3550   19.7160 C   0  0  0  0  0  3  0  0  0  0  0  0
  -28.6790  -13.3710   20.8190 C   0  0  0  0  0  2  0  0  0  0  0  0
  -29.9290  -13.8170   20.1880 N   0  0  0  0  0  0  0  0  0  0  0  0
  -31.6850  -15.1620   19.8390 O   0  0  0  0  0  0  0  0  0  0  0  0
  -29.7350  -16.2830   20.4390 N   0  0  0  0  0  0  0  0  0  0  0  0
  -28.8350  -16.0690   20.8410 H   0  0  0  0  0  0  0  0  0  0  0  0
  -25.2330  -13.9100   20.5150 C   0  0  0  0  0  0  0  0  0  0  0  0
  -24.1810  -13.1260   20.9010 C   0  0  0  0  0  0  0  0  0  0  0  0
  -24.6510  -11.7780   20.8450 C   0  0  0  0  0  0  0  0  0  0  0  0
  -26.2750  -13.0400   20.2410 N   0  0  0  0  0  0  0  0  0  0  0  0
  -25.9360  -11.7510   20.5040 N   0  0  0  0  0  0  0  0  0  0  0  0
  -23.9330  -10.5100   21.0370 C   0  0  0  0  0  0  0  0  0  0  0  0
  -24.3830   -9.5390   21.9590 C   0  0  0  0  0  3  0  0  0  0  0  0
  -23.6630   -8.3380   22.1400 C   0  0  0  0  0  3  0  0  0  0  0  0
  -22.4790   -8.1010   21.4010 C   0  0  0  0  0  0  0  0  0  0  0  0
  -22.0490   -9.0610   20.4690 C   0  0  0  0  0  3  0  0  0  0  0  0
  -22.7690  -10.2540   20.2850 C   0  0  0  0  0  3  0  0  0  0  0  0
  -21.7290   -6.9540   21.4940 O   0  0  0  0  0  0  0  0  0  0  0  0
  -21.6920   -6.2070   22.6450 C   0  0  0  0  0  0  0  0  0  0  0  0
  -21.2610   -6.7530   23.8730 C   0  0  0  0  0  3  0  0  0  0  0  0
  -21.1730   -5.9330   25.0150 C   0  0  0  0  0  3  0  0  0  0  0  0
  -21.5070   -4.5670   24.9300 C   0  0  0  0  0  0  0  0  0  0  0  0
  -21.9320   -4.0220   23.7060 C   0  0  0  0  0  3  0  0  0  0  0  0
  -22.0200   -4.8390   22.5660 C   0  0  0  0  0  0  0  0  0  0  0  0
  -22.4100   -4.3030   21.3830 F   0  0  0  0  0  0  0  0  0  0  0  0
  -21.4170   -3.7770   26.0240 F   0  0  0  0  0  0  0  0  0  0  0  0
  -22.7890  -13.5950   21.2070 C   0  0  0  0  0  0  0  0  0  0  0  0
  -22.0810  -12.8850   22.0760 N   0  0  0  0  0  0  0  0  0  0  0  0
  -22.3400  -14.6280   20.7090 O   0  0  0  0  0  0  0  0  0  0  0  0
  -22.4580  -12.0500   22.4990 H   0  0  0  0  0  0  0  0  0  0  0  0
  -21.1470  -13.1800   22.3230 H   0  0  0  0  0  0  0  0  0  0  0  0
  -25.3850  -15.2830   20.3460 N   0  0  0  0  0  0  0  0  0  0  0  0
  -24.6090  -15.9240   20.4700 H   0  0  0  0  0  0  0  0  0  0  0  0
  -26.2080  -15.7260   19.9620 H   0  0  0  0  0  0  0  0  0  0  0  0
  -29.1450  -20.3370   17.5530 N   0  0  0  0  0  4  0  0  0  0  0  0
  -30.1420  -20.2530   17.4670 H   0  0  0  0  0  0  0  0  0  0  0  0
  -28.8930  -21.3040   17.4580 H   0  0  0  0  0  0  0  0  0  0  0  0
  -28.7230  -19.8470   16.7840 H   0  0  0  0  0  0  0  0  0  0  0  0
  -29.4610  -21.9570   20.2060 C   0  0  0  0  0  2  0  0  0  0  0  0
  -28.4020  -23.2310   20.4890 C   0  0  0  0  0  0  0  0  0  0  0  0
  -27.5360  -23.0380   21.3470 O   0  0  0  0  0  0  0  0  0  0  0  0
  -28.3920  -24.7300   19.7130 C   0  0  0  0  0  2  0  0  0  0  0  0
  -28.2590  -26.1580   20.3780 O   0  0  0  0  0  0  0  0  0  0  0  0
  -24.6190  -31.9250   23.2160 C   0  0  0  0  0  0  0  0  0  0  0  0
  -27.2060  -27.1510   20.2290 C   0  0  0  0  0  0  0  0  0  0  0  0
  -23.4240  -30.5120   21.5890 C   0  0  0  0  0  3  0  0  0  0  0  0
  -24.8770  -28.9200   20.1720 C   0  0  0  0  0  0  0  0  0  0  0  0
  -25.9780  -30.7670   21.4280 C   0  0  0  0  0  2  0  0  0  0  0  0
  -26.0520  -29.3650   20.7860 C   0  0  0  0  0  0  0  0  0  0  0  0
  -27.2110  -28.4940   20.8020 C   0  0  0  0  0  3  0  0  0  0  0  0
  -26.0060  -26.8180   19.5650 C   0  0  0  0  0  3  0  0  0  0  0  0
  -24.8690  -27.6610   19.5460 C   0  0  0  0  0  3  0  0  0  0  0  0
  -23.6480  -29.8190   20.2150 C   0  0  0  0  0  2  0  0  0  0  0  0
  -24.6940  -31.0920   22.1320 N   0  0  0  0  0  0  0  0  0  0  0  0
  -23.5320  -32.2130   23.7400 O   0  0  0  0  0  0  0  0  0  0  0  0
  -22.7430  -29.5160   22.5620 C   0  0  0  0  0  0  0  0  0  0  0  0
  -21.4130  -29.3510   22.4420 N   0  0  0  0  0  0  0  0  0  0  0  0
  -23.4140  -28.8950   23.3890 O   0  0  0  0  0  0  0  0  0  0  0  0
  -20.9260  -29.9050   21.7520 H   0  0  0  0  0  0  0  0  0  0  0  0
  -18.0280  -28.1700   22.9770 C   0  0  0  0  0  0  0  0  0  0  0  0
  -20.5910  -28.4220   23.2230 C   0  0  0  0  0  3  0  0  0  0  0  0
  -20.6790  -26.9860   22.6540 C   0  0  0  0  0  2  0  0  0  0  0  0
  -19.5690  -26.6660   21.6490 C   0  0  0  0  0  2  0  0  0  0  0  0
  -18.1930  -26.8190   22.3010 C   0  0  0  0  0  2  0  0  0  0  0  0
  -19.1540  -28.9300   23.3940 C   0  0  0  0  0  0  0  0  0  0  0  0
  -18.9440  -30.1930   23.9860 C   0  0  0  0  0  3  0  0  0  0  0  0
  -17.6420  -30.6990   24.1650 C   0  0  0  0  0  3  0  0  0  0  0  0
  -16.5310  -29.9380   23.7610 C   0  0  0  0  0  3  0  0  0  0  0  0
  -16.7240  -28.6750   23.1730 C   0  0  0  0  0  3  0  0  0  0  0  0
  -25.8940  -32.5700   23.8410 C   0  0  0  0  0  3  0  0  0  0  0  0
  -26.4030  -31.8180   25.1330 C   0  0  1  0  0  0  0  0  0  0  0  0
  -25.3040  -31.5940   26.1970 C   0  0  0  0  0  1  0  0  0  0  0  0
  -26.9920  -30.4370   24.7690 C   0  0  0  0  0  1  0  0  0  0  0  0
  -27.5470  -32.6230   25.7910 C   0  0  0  0  0  1  0  0  0  0  0  0
  -25.5800  -33.9720   24.1600 N   0  0  0  0  0  0  0  0  0  0  0  0
  -25.9100  -35.0240   23.3990 C   0  0  0  0  0  0  0  0  0  0  0  0
  -26.5790  -34.9170   22.3670 O   0  0  0  0  0  0  0  0  0  0  0  0
  -24.9900  -34.1320   24.9630 H   0  0  0  0  0  0  0  0  0  0  0  0
  -24.1830  -36.8180   23.0410 C   0  0  0  0  0  1  0  0  0  0  0  0
  -25.4240  -36.4150   23.8530 C   0  0  0  0  0  3  0  0  0  0  0  0
  -27.5560  -37.3060   24.6840 C   0  0  0  0  0  1  0  0  0  0  0  0
  -26.4570  -37.4680   23.7360 N   0  0  0  0  0  0  0  0  0  0  0  0
  -26.0490  -38.3880   23.8780 H   0  0  0  0  0  0  0  0  0  0  0  0
  1  6  2  0
  2  3  1  0
  3 15  1  0
  3  1  1  0
  4 45  1  0
  4  2  1  0
  4  5  1  0
  5 49  1  0
  5  1  1  0
  7 15  1  0
  8 13  1  0
  9 10  1  0
  9  8  1  0
 11 10  1  0
 11 20  1  0
 11 12  1  0
 13  7  1  0
 13 12  1  0
 14  7  2  0
 15 16  1  0
 17 18  2  0
 18 37  1  0
 19 18  1  0
 19 22  1  0
 20 21  1  0
 20 17  1  0
 21 19  2  0
 22 23  1  0
 23 24  2  0
 25 28  1  0
 25 24  1  0
 26 25  2  0
 27 26  1  0
 27 22  2  0
 28 29  1  0
 29 30  1  0
 30 31  2  0
 32 31  1  0
 32 36  1  0
 33 32  2  0
 34 29  2  0
 34 33  1  0
 35 34  1  0
 37 38  1  0
 38 41  1  0
 38 40  1  0
 39 37  2  0
 42 43  1  0
 42 17  1  0
 44 42  1  0
 46 45  1  0
 47 45  1  0
 48 45  1  0
 49 50  1  0
 50 51  2  0
 52 53  1  0
 52 50  1  0
 54 65  2  0
 55 53  1  0
 55 60  1  0
 56 64  1  0
 56 66  1  0
 57 63  1  0
 57 59  1  0
 58 64  1  0
 59 60  2  0
 59 58  1  0
 61 55  2  0
 62 61  1  0
 62 57  2  0
 63 56  1  0
 64 54  1  0
 66 68  2  0
 67 66  1  0
 69 67  1  0
 70 79  2  0
 70 75  1  0
 71 67  1  0
 71 75  1  0
 72 71  1  0
 73 74  1  0
 73 72  1  0
 74 70  1  0
 75 76  2  0
 76 77  1  0
 78 77  2  0
 79 78  1  0
 80 54  1  0
 80 85  1  0
 80 81  1  0
 81 84  1  1
 81 82  1  0
 83 81  1  0
 85 88  1  0
 86 90  1  0
 86 85  1  0
 87 86  2  0
 90 89  1  0
 92 90  1  0
 92 93  1  0
 92 91  1  0
M  ISO  4   7 100  15 100  52 101  53 101
M  END
>  <TORSDO>  (36) 
F 20

>  <SCORE>  (36) 
-14.011

>  <name>  (36) 
35

>  <ligand_id>  (36) 
35

>  <original_smiles>  (36) 
[H]c1c([H])c([H])c2c(c1[H])C([H])([H])C([H])([H])C([H])([H])C2([H])N([H])C(=O)C1([H])N(C(=O)C([H])(N([H])C(=O)C([H])(N([H])C([H])([H])[H])C([H])([H])[H])C(C([H])([H])[H])(C([H])([H])[H])C([H])([H])[H])C([H])([H])c2c([H])c(OC([H])([H])C(=O)C([H])([H])N3C(=O)C([H])(N([H])C(=O)N4C([H])([H])C([H])([H])C([H])([H])C([H])(n5nc(-c6c([H])c([H])c(Oc7c([H])c([H])c(F)c([H])c7F)c([H])c6[H])c(C(=O)N([H])[H])c5N([H])[H])C4([H])[H])C([H])([H])C3([H])[N+]([H])([H])[H])c([H])c([H])c2C1([H])[H]

>  <smiles>  (36) 
[H]c1c([H])c([H])c2c(c1[H])C([H])([H])C([H])([H])C([H])([H])C2([H])N([H])C(=O)C1([H])N(C(=O)C([H])(N([H])C(=O)C([H])(N([H])C([H])([H])[H])C([H])([H])[H])C(C([H])([H])[H])(C([H])([H])[H])C([H])([H])[H])C([H])([H])c2c([H])c(OC([H])([H])C(=O)C([H])([H])N3C(=O)C([H])(N([H])C(=O)N4C([H])([H])C([H])([H])C([H])([H])C([H])(n5nc(-c6c([H])c([H])c(Oc7c([H])c([H])c(F)c([H])c7F)c([H])c6[H])c(C(=O)N([H])[H])c5N([H])[H])C4([H])[H])C([H])([H])C3([H])[N+]([H])([H])[H])c([H])c([H])c2C1([H])[H]

$$$$
36:0:0
     RDKit          3D

 91 99  0  0  1  0  0  0  0  0999 V2000
  -28.6900  -21.0200   20.5520 C   0  0  0  0  0  2  0  0  0  0  0  0
  -30.3360  -17.9270   19.0410 C   0  0  0  0  0  0  0  0  0  0  0  0
  -29.9980  -19.4400   18.9800 C   0  0  0  0  0  2  0  0  0  0  0  0
  -29.2520  -18.4790   21.0160 C   0  0  0  0  0  2  0  0  0  0  0  0
  -30.2360  -17.3640   20.4630 C   0  0  0  0  0  3  0  0  0  0  0  0
  -29.6300  -19.8080   20.3760 N   0  0  2  0  0  4  0  0  0  0  0  0
  -30.6330  -17.2740   18.0360 O   0  0  0  0  0  0  0  0  0  0  0  0
  -30.4960  -20.0640   20.8280 H   0  0  0  0  0  0  0  0  0  0  0  0
  -30.6170  -14.7670   20.3400 C   0  0  0  0  0  0  0  0  0  0  0  0
  -30.4160  -12.5050   19.3060 C   0  0  0  0  0  2  0  0  0  0  0  0
  -29.4750  -12.6030   18.0860 C   0  0  0  0  0  2  0  0  0  0  0  0
  -28.0040  -12.4280   18.5140 C   0  0  0  0  0  2  0  0  0  0  0  0
  -27.6330  -13.2980   19.7440 C   0  0  0  0  0  3  0  0  0  0  0  0
  -28.6990  -13.1870   20.8600 C   0  0  0  0  0  2  0  0  0  0  0  0
  -29.9940  -13.5430   20.2690 N   0  0  0  0  0  0  0  0  0  0  0  0
  -31.8020  -14.8800   20.0110 O   0  0  0  0  0  0  0  0  0  0  0  0
  -29.8380  -15.8860   20.5750 N   0  0  0  0  0  0  0  0  0  0  0  0
  -28.8720  -15.7040   20.7930 H   0  0  0  0  0  0  0  0  0  0  0  0
  -25.2410  -13.8790   20.4820 C   0  0  0  0  0  0  0  0  0  0  0  0
  -24.1840  -13.0990   20.8610 C   0  0  0  0  0  0  0  0  0  0  0  0
  -24.6550  -11.7510   20.8290 C   0  0  0  0  0  0  0  0  0  0  0  0
  -26.2920  -13.0060   20.2400 N   0  0  0  0  0  0  0  0  0  0  0  0
  -25.9440  -11.7200   20.5140 N   0  0  0  0  0  0  0  0  0  0  0  0
  -23.9360  -10.4870   21.0250 C   0  0  0  0  0  0  0  0  0  0  0  0
  -24.3730   -9.5230   21.9620 C   0  0  0  0  0  3  0  0  0  0  0  0
  -23.6550   -8.3220   22.1400 C   0  0  0  0  0  3  0  0  0  0  0  0
  -22.4850   -8.0730   21.3830 C   0  0  0  0  0  0  0  0  0  0  0  0
  -22.0700   -9.0240   20.4330 C   0  0  0  0  0  3  0  0  0  0  0  0
  -22.7880  -10.2160   20.2510 C   0  0  0  0  0  3  0  0  0  0  0  0
  -21.7360   -6.9250   21.4750 O   0  0  0  0  0  0  0  0  0  0  0  0
  -21.6850   -6.1870   22.6330 C   0  0  0  0  0  0  0  0  0  0  0  0
  -21.2420   -6.7430   23.8520 C   0  0  0  0  0  3  0  0  0  0  0  0
  -21.1380   -5.9320   24.9990 C   0  0  0  0  0  3  0  0  0  0  0  0
  -21.4690   -4.5660   24.9310 C   0  0  0  0  0  0  0  0  0  0  0  0
  -21.9060   -4.0090   23.7170 C   0  0  0  0  0  3  0  0  0  0  0  0
  -22.0120   -4.8180   22.5710 C   0  0  0  0  0  0  0  0  0  0  0  0
  -22.4130   -4.2690   21.3980 F   0  0  0  0  0  0  0  0  0  0  0  0
  -21.3620   -3.7870   26.0320 F   0  0  0  0  0  0  0  0  0  0  0  0
  -22.7840  -13.5660   21.1370 C   0  0  0  0  0  0  0  0  0  0  0  0
  -22.0600  -12.8690   22.0050 N   0  0  0  0  0  0  0  0  0  0  0  0
  -22.3420  -14.5910   20.6190 O   0  0  0  0  0  0  0  0  0  0  0  0
  -22.4300  -12.0510   22.4670 H   0  0  0  0  0  0  0  0  0  0  0  0
  -21.1150  -13.1610   22.2140 H   0  0  0  0  0  0  0  0  0  0  0  0
  -25.3880  -15.2540   20.3000 N   0  0  0  0  0  0  0  0  0  0  0  0
  -24.6060  -15.8900   20.4070 H   0  0  0  0  0  0  0  0  0  0  0  0
  -26.2040  -15.7030   19.9090 H   0  0  0  0  0  0  0  0  0  0  0  0
  -30.6140  -22.7850   20.6760 C   0  0  0  0  0  1  0  0  0  0  0  0
  -29.1910  -22.5080   20.1360 C   0  0  0  0  0  3  0  0  0  0  0  0
  -28.2660  -23.7880   20.5120 C   0  0  0  0  0  2  0  0  0  0  0  0
  -28.4560  -25.1490   19.6740 C   0  0  0  0  0  2  0  0  0  0  0  0
  -28.3550  -26.5040   20.2760 O   0  0  0  0  0  0  0  0  0  0  0  0
  -24.6100  -31.9130   23.2320 C   0  0  0  0  0  0  0  0  0  0  0  0
  -27.2200  -27.3280   20.1930 C   0  0  0  0  0  0  0  0  0  0  0  0
  -23.4100  -30.5130   21.5930 C   0  0  0  0  0  3  0  0  0  0  0  0
  -24.8610  -28.9490   20.1750 C   0  0  0  0  0  0  0  0  0  0  0  0
  -25.9510  -30.8170   21.4240 C   0  0  0  0  0  2  0  0  0  0  0  0
  -26.0270  -29.4370   20.7750 C   0  0  0  0  0  0  0  0  0  0  0  0
  -27.2070  -28.6340   20.7760 C   0  0  0  0  0  3  0  0  0  0  0  0
  -26.0270  -26.8890   19.5780 C   0  0  0  0  0  3  0  0  0  0  0  0
  -24.8610  -27.6800   19.5730 C   0  0  0  0  0  3  0  0  0  0  0  0
  -23.6290  -29.8320   20.2170 C   0  0  0  0  0  2  0  0  0  0  0  0
  -24.6740  -31.1000   22.1380 N   0  0  0  0  0  0  0  0  0  0  0  0
  -23.5260  -32.1920   23.7660 O   0  0  0  0  0  0  0  0  0  0  0  0
  -22.7440  -29.4980   22.5520 C   0  0  0  0  0  0  0  0  0  0  0  0
  -21.4180  -29.3250   22.4230 N   0  0  0  0  0  0  0  0  0  0  0  0
  -23.4200  -28.8720   23.3750 O   0  0  0  0  0  0  0  0  0  0  0  0
  -20.9340  -29.8810   21.7340 H   0  0  0  0  0  0  0  0  0  0  0  0
  -18.0400  -28.1390   22.9260 C   0  0  0  0  0  0  0  0  0  0  0  0
  -20.5970  -28.3900   23.1950 C   0  0  0  0  0  3  0  0  0  0  0  0
  -20.6960  -26.9580   22.6200 C   0  0  0  0  0  2  0  0  0  0  0  0
  -19.5920  -26.6380   21.6080 C   0  0  0  0  0  2  0  0  0  0  0  0
  -18.2100  -26.7890   22.2520 C   0  0  0  0  0  2  0  0  0  0  0  0
  -19.1600  -28.8960   23.3560 C   0  0  0  0  0  0  0  0  0  0  0  0
  -18.9470  -30.1580   23.9500 C   0  0  0  0  0  3  0  0  0  0  0  0
  -17.6460  -30.6660   24.1170 C   0  0  0  0  0  3  0  0  0  0  0  0
  -16.5370  -29.9060   23.7050 C   0  0  0  0  0  3  0  0  0  0  0  0
  -16.7350  -28.6450   23.1140 C   0  0  0  0  0  3  0  0  0  0  0  0
  -25.8920  -32.5490   23.8500 C   0  0  0  0  0  3  0  0  0  0  0  0
  -26.3980  -31.7870   25.1360 C   0  0  1  0  0  0  0  0  0  0  0  0
  -25.2900  -31.5530   26.1920 C   0  0  0  0  0  1  0  0  0  0  0  0
  -26.9900  -30.4070   24.7690 C   0  0  0  0  0  1  0  0  0  0  0  0
  -27.5350  -32.5930   25.8060 C   0  0  0  0  0  1  0  0  0  0  0  0
  -25.5790  -33.9480   24.1730 N   0  0  0  0  0  0  0  0  0  0  0  0
  -25.9080  -35.0000   23.4110 C   0  0  0  0  0  0  0  0  0  0  0  0
  -26.5770  -34.8960   22.3800 O   0  0  0  0  0  0  0  0  0  0  0  0
  -24.9880  -34.1030   24.9780 H   0  0  0  0  0  0  0  0  0  0  0  0
  -24.1790  -36.7920   23.0540 C   0  0  0  0  0  1  0  0  0  0  0  0
  -25.4190  -36.3880   23.8670 C   0  0  0  0  0  3  0  0  0  0  0  0
  -27.5510  -37.2790   24.7040 C   0  0  0  0  0  1  0  0  0  0  0  0
  -26.4530  -37.4420   23.7550 N   0  0  0  0  0  0  0  0  0  0  0  0
  -26.0440  -38.3610   23.8980 H   0  0  0  0  0  0  0  0  0  0  0  0
  2  5  1  0
  3  2  1  0
  3  6  1  0
  5 17  1  0
  5  4  1  0
  6  1  1  0
  6  8  1  1
  6  4  1  0
  7  2  2  0
  9 17  1  0
 10 15  1  0
 11 12  1  0
 11 10  1  0
 13 12  1  0
 13 22  1  0
 13 14  1  0
 15  9  1  0
 15 14  1  0
 16  9  2  0
 17 18  1  0
 19 20  2  0
 20 39  1  0
 21 20  1  0
 21 24  1  0
 22 19  1  0
 22 23  1  0
 23 21  2  0
 24 25  1  0
 25 26  2  0
 27 30  1  0
 27 26  1  0
 28 27  2  0
 29 28  1  0
 29 24  2  0
 30 31  1  0
 31 32  1  0
 32 33  2  0
 34 33  1  0
 34 38  1  0
 35 34  2  0
 36 31  2  0
 36 35  1  0
 37 36  1  0
 39 40  1  0
 40 43  1  0
 40 42  1  0
 41 39  2  0
 44 45  1  0
 44 19  1  0
 46 44  1  0
 48 49  1  0
 48  1  1  0
 48 47  1  0
 50 51  1  0
 50 49  1  0
 52 63  2  0
 53 51  1  0
 53 58  1  0
 54 62  1  0
 54 64  1  0
 55 61  1  0
 55 57  1  0
 56 62  1  0
 57 58  2  0
 57 56  1  0
 59 53  2  0
 60 59  1  0
 60 55  2  0
 61 54  1  0
 62 52  1  0
 64 66  2  0
 65 64  1  0
 67 65  1  0
 68 77  2  0
 68 73  1  0
 69 65  1  0
 69 73  1  0
 70 69  1  0
 71 72  1  0
 71 70  1  0
 72 68  1  0
 73 74  2  0
 74 75  1  0
 76 75  2  0
 77 76  1  0
 78 52  1  0
 78 83  1  0
 78 79  1  0
 79 82  1  1
 79 80  1  0
 81 79  1  0
 83 86  1  0
 84 88  1  0
 84 83  1  0
 85 84  2  0
 88 87  1  0
 90 88  1  0
 90 91  1  0
 90 89  1  0
M  ISO  4   9 100  17 100  50 101  51 101
M  END
>  <TORSDO>  (37) 
F 20

>  <SCORE>  (37) 
-13.735

>  <name>  (37) 
36

>  <ligand_id>  (37) 
36

>  <original_smiles>  (37) 
[H]c1c([H])c([H])c2c(c1[H])C([H])([H])C([H])([H])C([H])([H])C2([H])N([H])C(=O)C1([H])N(C(=O)C([H])(N([H])C(=O)C([H])(N([H])C([H])([H])[H])C([H])([H])[H])C(C([H])([H])[H])(C([H])([H])[H])C([H])([H])[H])C([H])([H])c2c([H])c(OC([H])([H])C([H])([H])C([H])(C([H])([H])[H])C([H])([H])[N+]3([H])C([H])([H])C(=O)C([H])(N([H])C(=O)N4C([H])([H])C([H])([H])C([H])([H])C([H])(n5nc(-c6c([H])c([H])c(Oc7c([H])c([H])c(F)c([H])c7F)c([H])c6[H])c(C(=O)N([H])[H])c5N([H])[H])C4([H])[H])C3([H])[H])c([H])c([H])c2C1([H])[H]

>  <smiles>  (37) 
[H]c1c([H])c([H])c2c(c1[H])C([H])([H])C([H])([H])C([H])([H])C2([H])N([H])C(=O)C1([H])N(C(=O)C([H])(N([H])C(=O)C([H])(N([H])C([H])([H])[H])C([H])([H])[H])C(C([H])([H])[H])(C([H])([H])[H])C([H])([H])[H])C([H])([H])c2c([H])c(OC([H])([H])C([H])([H])C([H])(C([H])([H])[H])C([H])([H])[N+]3([H])C([H])([H])C(=O)C([H])(N([H])C(=O)N4C([H])([H])C([H])([H])C([H])([H])C([H])(n5nc(-c6c([H])c([H])c(Oc7c([H])c([H])c(F)c([H])c7F)c([H])c6[H])c(C(=O)N([H])[H])c5N([H])[H])C4([H])[H])C3([H])[H])c([H])c([H])c2C1([H])[H]

$$$$
37:0:0
     RDKit          3D

 93102  0  0  1  0  0  0  0  0999 V2000
  -29.8510  -21.9530   22.2220 C   0  0  0  0  0  2  0  0  0  0  0  0
  -29.1440  -21.2990   21.0710 C   0  0  0  0  0  3  0  0  0  0  0  0
  -29.4350  -22.8480   21.0650 C   0  0  0  0  0  3  0  0  0  0  0  0
  -29.0330  -24.7740   22.6720 C   0  0  0  0  0  1  0  0  0  0  0  0
  -27.0830  -23.4170   21.8090 C   0  0  0  0  0  1  0  0  0  0  0  0
  -28.4650  -24.0360   21.4230 C   0  0  2  0  0  0  0  0  0  0  0  0
  -28.2800  -25.1270   20.2560 C   0  0  0  0  0  2  0  0  0  0  0  0
  -28.3950  -26.6040   20.2480 O   0  0  0  0  0  0  0  0  0  0  0  0
  -24.6310  -31.8800   23.2370 C   0  0  0  0  0  0  0  0  0  0  0  0
  -27.2600  -27.4180   20.1380 C   0  0  0  0  0  0  0  0  0  0  0  0
  -23.4230  -30.4830   21.5920 C   0  0  0  0  0  3  0  0  0  0  0  0
  -24.8740  -28.9560   20.1460 C   0  0  0  0  0  0  0  0  0  0  0  0
  -25.9510  -30.8370   21.3910 C   0  0  0  0  0  2  0  0  0  0  0  0
  -26.0370  -29.4690   20.7360 C   0  0  0  0  0  0  0  0  0  0  0  0
  -27.2340  -28.7100   20.7230 C   0  0  0  0  0  3  0  0  0  0  0  0
  -26.0820  -26.9360   19.5250 C   0  0  0  0  0  3  0  0  0  0  0  0
  -24.8950  -27.6910   19.5320 C   0  0  0  0  0  3  0  0  0  0  0  0
  -23.6280  -29.8150   20.2080 C   0  0  0  0  0  2  0  0  0  0  0  0
  -24.6870  -31.0820   22.1320 N   0  0  0  0  0  0  0  0  0  0  0  0
  -23.5510  -32.1500   23.7790 O   0  0  0  0  0  0  0  0  0  0  0  0
  -22.7730  -29.4580   22.5500 C   0  0  0  0  0  0  0  0  0  0  0  0
  -21.4470  -29.2800   22.4300 N   0  0  0  0  0  0  0  0  0  0  0  0
  -23.4580  -28.8260   23.3590 O   0  0  0  0  0  0  0  0  0  0  0  0
  -20.9540  -29.8440   21.7500 H   0  0  0  0  0  0  0  0  0  0  0  0
  -18.0720  -28.0890   22.9370 C   0  0  0  0  0  0  0  0  0  0  0  0
  -20.6310  -28.3390   23.1990 C   0  0  0  0  0  3  0  0  0  0  0  0
  -20.7280  -26.9120   22.6130 C   0  0  0  0  0  2  0  0  0  0  0  0
  -19.6200  -26.5970   21.6000 C   0  0  0  0  0  2  0  0  0  0  0  0
  -18.2420  -26.7430   22.2520 C   0  0  0  0  0  2  0  0  0  0  0  0
  -19.1940  -28.8450   23.3670 C   0  0  0  0  0  0  0  0  0  0  0  0
  -18.9820  -30.1060   23.9660 C   0  0  0  0  0  3  0  0  0  0  0  0
  -17.6810  -30.6100   24.1410 C   0  0  0  0  0  3  0  0  0  0  0  0
  -16.5710  -29.8500   23.7300 C   0  0  0  0  0  3  0  0  0  0  0  0
  -16.7690  -28.5920   23.1320 C   0  0  0  0  0  3  0  0  0  0  0  0
  -25.9190  -32.5080   23.8570 C   0  0  0  0  0  3  0  0  0  0  0  0
  -26.4390  -31.7350   25.1300 C   0  0  1  0  0  0  0  0  0  0  0  0
  -25.3480  -31.4980   26.2020 C   0  0  0  0  0  1  0  0  0  0  0  0
  -27.0190  -30.3580   24.7310 C   0  0  0  0  0  1  0  0  0  0  0  0
  -27.5920  -32.5270   25.7900 C   0  0  0  0  0  1  0  0  0  0  0  0
  -25.6120  -33.9060   24.1880 N   0  0  0  0  0  0  0  0  0  0  0  0
  -25.9490  -34.9590   23.4300 C   0  0  0  0  0  0  0  0  0  0  0  0
  -26.6190  -34.8550   22.4000 O   0  0  0  0  0  0  0  0  0  0  0  0
  -25.0170  -34.0610   24.9880 H   0  0  0  0  0  0  0  0  0  0  0  0
  -24.2270  -36.7560   23.0720 C   0  0  0  0  0  1  0  0  0  0  0  0
  -25.4630  -36.3470   23.8880 C   0  0  0  0  0  3  0  0  0  0  0  0
  -27.5960  -37.2250   24.7300 C   0  0  0  0  0  1  0  0  0  0  0  0
  -26.4990  -37.3970   23.7810 N   0  0  0  0  0  0  0  0  0  0  0  0
  -26.0940  -38.3180   23.9300 H   0  0  0  0  0  0  0  0  0  0  0  0
  -29.9570  -20.2190   20.3140 C   0  0  0  0  0  2  0  0  0  0  0  0
  -29.2840  -18.8950   20.0860 N   0  0  0  0  0  4  0  0  0  0  0  0
  -28.2950  -19.0600   19.9920 H   0  0  0  0  0  0  0  0  0  0  0  0
  -29.6080  -18.5820   19.1860 H   0  0  0  0  0  0  0  0  0  0  0  0
  -30.7750  -14.5890   20.3360 C   0  0  0  0  0  0  0  0  0  0  0  0
  -30.4020  -12.3950   19.2540 C   0  0  0  0  0  2  0  0  0  0  0  0
  -29.4680  -12.5560   18.0390 C   0  0  0  0  0  2  0  0  0  0  0  0
  -28.0000  -12.4110   18.4770 C   0  0  0  0  0  2  0  0  0  0  0  0
  -27.6600  -13.2800   19.7170 C   0  0  0  0  0  3  0  0  0  0  0  0
  -28.7270  -13.1450   20.8300 C   0  0  0  0  0  2  0  0  0  0  0  0
  -30.0380  -13.4370   20.2380 N   0  0  0  0  0  0  0  0  0  0  0  0
  -31.9360  -14.6030   19.9240 O   0  0  0  0  0  0  0  0  0  0  0  0
  -30.7750  -16.9740   20.8660 C   0  0  0  0  0  0  0  0  0  0  0  0
  -28.8790  -16.3990   20.6160 C   0  0  0  0  0  2  0  0  0  0  0  0
  -29.5160  -17.7550   21.0420 C   0  0  0  0  0  3  0  0  0  0  0  0
  -30.2030  -15.7470   20.8050 N   0  0  0  0  0  0  0  0  0  0  0  0
  -31.9370  -17.3870   20.8000 O   0  0  0  0  0  0  0  0  0  0  0  0
  -25.2730  -13.9000   20.4350 C   0  0  0  0  0  0  0  0  0  0  0  0
  -24.2040  -13.1340   20.8150 C   0  0  0  0  0  0  0  0  0  0  0  0
  -24.6620  -11.7810   20.7970 C   0  0  0  0  0  0  0  0  0  0  0  0
  -26.3130  -13.0120   20.2100 N   0  0  0  0  0  0  0  0  0  0  0  0
  -25.9510  -11.7340   20.4900 N   0  0  0  0  0  0  0  0  0  0  0  0
  -23.9320  -10.5230   20.9970 C   0  0  0  0  0  0  0  0  0  0  0  0
  -24.3640   -9.5590   21.9320 C   0  0  0  0  0  3  0  0  0  0  0  0
  -23.6340   -8.3660   22.1210 C   0  0  0  0  0  3  0  0  0  0  0  0
  -22.4560   -8.1310   21.3740 C   0  0  0  0  0  0  0  0  0  0  0  0
  -22.0420   -9.0840   20.4260 C   0  0  0  0  0  3  0  0  0  0  0  0
  -22.7730  -10.2680   20.2360 C   0  0  0  0  0  3  0  0  0  0  0  0
  -21.6970   -6.9890   21.4710 O   0  0  0  0  0  0  0  0  0  0  0  0
  -21.6570   -6.2480   22.6250 C   0  0  0  0  0  0  0  0  0  0  0  0
  -21.2500   -6.8070   23.8560 C   0  0  0  0  0  3  0  0  0  0  0  0
  -21.1580   -5.9920   25.0030 C   0  0  0  0  0  3  0  0  0  0  0  0
  -21.4620   -4.6190   24.9180 C   0  0  0  0  0  0  0  0  0  0  0  0
  -21.8630   -4.0610   23.6920 C   0  0  0  0  0  3  0  0  0  0  0  0
  -21.9570   -4.8730   22.5470 C   0  0  0  0  0  0  0  0  0  0  0  0
  -22.3230   -4.3260   21.3630 F   0  0  0  0  0  0  0  0  0  0  0  0
  -21.3660   -3.8350   26.0170 F   0  0  0  0  0  0  0  0  0  0  0  0
  -22.8090  -13.6200   21.0800 C   0  0  0  0  0  0  0  0  0  0  0  0
  -22.0790  -12.9360   21.9540 N   0  0  0  0  0  0  0  0  0  0  0  0
  -22.3760  -14.6410   20.5480 O   0  0  0  0  0  0  0  0  0  0  0  0
  -22.4420  -12.1090   22.4050 H   0  0  0  0  0  0  0  0  0  0  0  0
  -21.1440  -13.2450   22.1770 H   0  0  0  0  0  0  0  0  0  0  0  0
  -25.4380  -15.2660   20.2380 N   0  0  0  0  0  0  0  0  0  0  0  0
  -24.6620  -15.9140   20.3240 H   0  0  0  0  0  0  0  0  0  0  0  0
  -26.2580  -15.6850   19.8210 H   0  0  0  0  0  0  0  0  0  0  0  0
  2 49  1  0
  2  1  1  0
  3  2  1  0
  3  6  1  0
  3  1  1  0
  6  5  1  1
  6  4  1  0
  7  6  1  0
  8  7  1  0
  9 20  2  0
 10  8  1  0
 10 15  1  0
 11 19  1  0
 11 21  1  0
 12 18  1  0
 12 14  1  0
 13 19  1  0
 14 13  1  0
 15 14  2  0
 16 17  1  0
 16 10  2  0
 17 12  2  0
 18 11  1  0
 19  9  1  0
 21 23  2  0
 22 21  1  0
 24 22  1  0
 25 34  2  0
 25 30  1  0
 26 22  1  0
 26 30  1  0
 27 26  1  0
 28 29  1  0
 28 27  1  0
 29 25  1  0
 30 31  2  0
 31 32  1  0
 33 32  2  0
 34 33  1  0
 35  9  1  0
 35 40  1  0
 35 36  1  0
 36 39  1  1
 36 37  1  0
 38 36  1  0
 40 43  1  0
 41 45  1  0
 41 40  1  0
 42 41  2  0
 45 44  1  0
 47 45  1  0
 47 48  1  0
 47 46  1  0
 50 49  1  0
 51 50  1  0
 52 50  1  0
 53 64  1  0
 54 59  1  0
 55 56  1  0
 55 54  1  0
 57 56  1  0
 57 69  1  0
 57 58  1  0
 59 53  1  0
 59 58  1  0
 60 53  2  0
 61 63  1  0
 62 64  1  0
 62 63  1  0
 63 50  1  0
 64 61  1  0
 65 61  2  0
 66 67  2  0
 67 86  1  0
 68 67  1  0
 68 71  1  0
 69 66  1  0
 69 70  1  0
 70 68  2  0
 71 72  1  0
 72 73  2  0
 74 77  1  0
 74 73  1  0
 75 74  2  0
 76 75  1  0
 76 71  2  0
 77 78  1  0
 78 79  1  0
 79 80  2  0
 81 80  1  0
 81 85  1  0
 82 81  2  0
 83 78  2  0
 83 82  1  0
 84 83  1  0
 86 87  1  0
 87 90  1  0
 87 89  1  0
 88 86  2  0
 91 92  1  0
 91 66  1  0
 93 91  1  0
M  ISO  4   7 101   8 101  53 100  64 100
M  END
>  <TORSDO>  (38) 
F 20

>  <SCORE>  (38) 
-14.123

>  <name>  (38) 
37

>  <ligand_id>  (38) 
37

>  <original_smiles>  (38) 
[H]c1c([H])c([H])c2c(c1[H])C([H])([H])C([H])([H])C([H])([H])C2([H])N([H])C(=O)C1([H])N(C(=O)C([H])(N([H])C(=O)C([H])(N([H])C([H])([H])[H])C([H])([H])[H])C(C([H])([H])[H])(C([H])([H])[H])C([H])([H])[H])C([H])([H])c2c([H])c(OC([H])([H])C(C([H])([H])[H])(C([H])([H])[H])C3([H])C([H])([H])C3([H])C([H])([H])[N+]([H])([H])C3([H])C(=O)N(C(=O)N4C([H])([H])C([H])([H])C([H])([H])C([H])(n5nc(-c6c([H])c([H])c(Oc7c([H])c([H])c(F)c([H])c7F)c([H])c6[H])c(C(=O)N([H])[H])c5N([H])[H])C4([H])[H])C3([H])[H])c([H])c([H])c2C1([H])[H]

>  <smiles>  (38) 
[H]c1c([H])c([H])c2c(c1[H])C([H])([H])C([H])([H])C([H])([H])C2([H])N([H])C(=O)C1([H])N(C(=O)C([H])(N([H])C(=O)C([H])(N([H])C([H])([H])[H])C([H])([H])[H])C(C([H])([H])[H])(C([H])([H])[H])C([H])([H])[H])C([H])([H])c2c([H])c(OC([H])([H])C(C([H])([H])[H])(C([H])([H])[H])C3([H])C([H])([H])C3([H])C([H])([H])[N+]([H])([H])C3([H])C(=O)N(C(=O)N4C([H])([H])C([H])([H])C([H])([H])C([H])(n5nc(-c6c([H])c([H])c(Oc7c([H])c([H])c(F)c([H])c7F)c([H])c6[H])c(C(=O)N([H])[H])c5N([H])[H])C4([H])[H])C3([H])[H])c([H])c([H])c2C1([H])[H]

$$$$
38:0:0
     RDKit          3D

 89 97  0  0  1  0  0  0  0  0999 V2000
  -29.6500  -19.5360   20.9010 C   0  0  0  0  0  0  0  0  0  0  0  0
  -29.8810  -20.3250   19.7200 C   0  0  0  0  0  0  0  0  0  0  0  0
  -29.8610  -18.2300   21.2360 C   0  0  0  0  0  3  0  0  0  0  0  0
  -29.0620  -20.7420   21.5870 C   0  0  0  0  0  2  0  0  0  0  0  0
  -29.3070  -21.4590   20.3020 N   0  0  0  0  0  0  0  0  0  0  0  0
  -30.3290  -20.0230   18.6330 O   0  0  0  0  0  0  0  0  0  0  0  0
  -30.5420  -17.1250   20.4030 C   0  0  0  0  0  2  0  0  0  0  0  0
  -30.7740  -14.6310   20.2340 C   0  0  0  0  0  0  0  0  0  0  0  0
  -30.4310  -12.4610   19.1100 C   0  0  0  0  0  2  0  0  0  0  0  0
  -29.4600  -12.6610   17.9260 C   0  0  0  0  0  2  0  0  0  0  0  0
  -28.0010  -12.5200   18.3950 C   0  0  0  0  0  2  0  0  0  0  0  0
  -27.6940  -13.3560   19.6680 C   0  0  0  0  0  3  0  0  0  0  0  0
  -28.7820  -13.1580   20.7490 C   0  0  0  0  0  2  0  0  0  0  0  0
  -30.0850  -13.4580   20.1400 N   0  0  0  0  0  0  0  0  0  0  0  0
  -31.9100  -14.7590   19.7710 O   0  0  0  0  0  0  0  0  0  0  0  0
  -30.0920  -15.7270   20.6550 N   0  0  0  0  0  0  0  0  0  0  0  0
  -29.1550  -15.5810   21.0010 H   0  0  0  0  0  0  0  0  0  0  0  0
  -25.3180  -13.9560   20.4430 C   0  0  0  0  0  0  0  0  0  0  0  0
  -24.2580  -13.1820   20.8340 C   0  0  0  0  0  0  0  0  0  0  0  0
  -24.7170  -11.8300   20.7830 C   0  0  0  0  0  0  0  0  0  0  0  0
  -26.3560  -13.0760   20.1820 N   0  0  0  0  0  0  0  0  0  0  0  0
  -26.0000  -11.7920   20.4460 N   0  0  0  0  0  0  0  0  0  0  0  0
  -23.9930  -10.5680   20.9840 C   0  0  0  0  0  0  0  0  0  0  0  0
  -24.4350   -9.6030   21.9150 C   0  0  0  0  0  3  0  0  0  0  0  0
  -23.7120   -8.4060   22.1030 C   0  0  0  0  0  3  0  0  0  0  0  0
  -22.5310   -8.1650   21.3600 C   0  0  0  0  0  0  0  0  0  0  0  0
  -22.1090   -9.1190   20.4160 C   0  0  0  0  0  3  0  0  0  0  0  0
  -22.8330  -10.3080   20.2270 C   0  0  0  0  0  3  0  0  0  0  0  0
  -21.7790   -7.0190   21.4570 O   0  0  0  0  0  0  0  0  0  0  0  0
  -21.7290   -6.2870   22.6150 C   0  0  0  0  0  0  0  0  0  0  0  0
  -21.2730   -6.8430   23.8300 C   0  0  0  0  0  3  0  0  0  0  0  0
  -21.1730   -6.0350   24.9800 C   0  0  0  0  0  3  0  0  0  0  0  0
  -21.5190   -4.6720   24.9170 C   0  0  0  0  0  0  0  0  0  0  0  0
  -21.9690   -4.1150   23.7070 C   0  0  0  0  0  3  0  0  0  0  0  0
  -22.0700   -4.9200   22.5590 C   0  0  0  0  0  0  0  0  0  0  0  0
  -22.4840   -4.3730   21.3900 F   0  0  0  0  0  0  0  0  0  0  0  0
  -21.4160   -3.8940   26.0200 F   0  0  0  0  0  0  0  0  0  0  0  0
  -22.8680  -13.6600   21.1410 C   0  0  0  0  0  0  0  0  0  0  0  0
  -22.1580  -12.9560   22.0150 N   0  0  0  0  0  0  0  0  0  0  0  0
  -22.4210  -14.6920   20.6420 O   0  0  0  0  0  0  0  0  0  0  0  0
  -22.5340  -12.1210   22.4410 H   0  0  0  0  0  0  0  0  0  0  0  0
  -21.2260  -13.2550   22.2620 H   0  0  0  0  0  0  0  0  0  0  0  0
  -25.4780  -15.3270   20.2690 N   0  0  0  0  0  0  0  0  0  0  0  0
  -24.7130  -15.9790   20.4010 H   0  0  0  0  0  0  0  0  0  0  0  0
  -26.3170  -15.7700   19.9120 H   0  0  0  0  0  0  0  0  0  0  0  0
  -28.7630  -22.7060   19.7060 C   0  0  0  0  0  2  0  0  0  0  0  0
  -29.1600  -24.0970   20.3220 C   0  0  0  0  0  2  0  0  0  0  0  0
  -28.1760  -25.2160   19.8390 C   0  0  0  0  0  2  0  0  0  0  0  0
  -28.3730  -26.6220   20.1980 O   0  0  0  0  0  0  0  0  0  0  0  0
  -24.6210  -31.9170   23.2610 C   0  0  0  0  0  0  0  0  0  0  0  0
  -27.2410  -27.4400   20.1430 C   0  0  0  0  0  0  0  0  0  0  0  0
  -23.4120  -30.5250   21.6210 C   0  0  0  0  0  3  0  0  0  0  0  0
  -24.8590  -29.0070   20.1690 C   0  0  0  0  0  0  0  0  0  0  0  0
  -25.9450  -30.8700   21.4190 C   0  0  0  0  0  2  0  0  0  0  0  0
  -26.0260  -29.5030   20.7620 C   0  0  0  0  0  0  0  0  0  0  0  0
  -27.2190  -28.7270   20.7490 C   0  0  0  0  0  3  0  0  0  0  0  0
  -26.0510  -27.0020   19.5080 C   0  0  0  0  0  3  0  0  0  0  0  0
  -24.8700  -27.7590   19.5360 C   0  0  0  0  0  3  0  0  0  0  0  0
  -23.6150  -29.8670   20.2330 C   0  0  0  0  0  2  0  0  0  0  0  0
  -24.6780  -31.1190   22.1560 N   0  0  0  0  0  0  0  0  0  0  0  0
  -23.5410  -32.1850   23.8060 O   0  0  0  0  0  0  0  0  0  0  0  0
  -22.7680  -29.4910   22.5750 C   0  0  0  0  0  0  0  0  0  0  0  0
  -21.4420  -29.3040   22.4530 N   0  0  0  0  0  0  0  0  0  0  0  0
  -23.4570  -28.8640   23.3840 O   0  0  0  0  0  0  0  0  0  0  0  0
  -20.9460  -29.8620   21.7730 H   0  0  0  0  0  0  0  0  0  0  0  0
  -18.0740  -28.0980   22.9720 C   0  0  0  0  0  0  0  0  0  0  0  0
  -20.6340  -28.3590   23.2240 C   0  0  0  0  0  3  0  0  0  0  0  0
  -20.7350  -26.9320   22.6360 C   0  0  0  0  0  2  0  0  0  0  0  0
  -19.6240  -26.6160   21.6300 C   0  0  0  0  0  2  0  0  0  0  0  0
  -18.2480  -26.7530   22.2850 C   0  0  0  0  0  2  0  0  0  0  0  0
  -19.1950  -28.8590   23.3980 C   0  0  0  0  0  0  0  0  0  0  0  0
  -18.9780  -30.1170   24.0010 C   0  0  0  0  0  3  0  0  0  0  0  0
  -17.6740  -30.6150   24.1800 C   0  0  0  0  0  3  0  0  0  0  0  0
  -16.5680  -29.8510   23.7690 C   0  0  0  0  0  3  0  0  0  0  0  0
  -16.7680  -28.5950   23.1710 C   0  0  0  0  0  3  0  0  0  0  0  0
  -25.9080  -32.5490   23.8760 C   0  0  0  0  0  3  0  0  0  0  0  0
  -26.4250  -31.7840   25.1550 C   0  0  1  0  0  0  0  0  0  0  0  0
  -25.3320  -31.5520   26.2240 C   0  0  0  0  0  1  0  0  0  0  0  0
  -27.0100  -30.4050   24.7710 C   0  0  0  0  0  1  0  0  0  0  0  0
  -27.5740  -32.5830   25.8140 C   0  0  0  0  0  1  0  0  0  0  0  0
  -25.6020  -33.9500   24.1970 N   0  0  0  0  0  0  0  0  0  0  0  0
  -25.9260  -34.9950   23.4240 C   0  0  0  0  0  0  0  0  0  0  0  0
  -26.5850  -34.8820   22.3870 O   0  0  0  0  0  0  0  0  0  0  0  0
  -25.0160  -34.1120   25.0030 H   0  0  0  0  0  0  0  0  0  0  0  0
  -24.1980  -36.7870   23.0630 C   0  0  0  0  0  1  0  0  0  0  0  0
  -25.4410  -36.3870   23.8720 C   0  0  0  0  0  3  0  0  0  0  0  0
  -27.5750  -37.2820   24.6960 C   0  0  0  0  0  1  0  0  0  0  0  0
  -26.4750  -37.4380   23.7480 N   0  0  0  0  0  0  0  0  0  0  0  0
  -26.0690  -38.3600   23.8800 H   0  0  0  0  0  0  0  0  0  0  0  0
  1  3  2  0
  1  4  1  0
  2  5  1  0
  2  1  1  0
  5  4  1  0
  6  2  2  0
  7 16  1  0
  7  3  1  0
  8 16  1  0
  9 14  1  0
 10 11  1  0
 10  9  1  0
 12 11  1  0
 12 21  1  0
 12 13  1  0
 14  8  1  0
 14 13  1  0
 15  8  2  0
 16 17  1  0
 18 19  2  0
 19 38  1  0
 20 19  1  0
 20 23  1  0
 21 18  1  0
 21 22  1  0
 22 20  2  0
 23 24  1  0
 24 25  2  0
 26 29  1  0
 26 25  1  0
 27 26  2  0
 28 27  1  0
 28 23  2  0
 29 30  1  0
 30 31  1  0
 31 32  2  0
 33 32  1  0
 33 37  1  0
 34 33  2  0
 35 30  2  0
 35 34  1  0
 36 35  1  0
 38 39  1  0
 39 42  1  0
 39 41  1  0
 40 38  2  0
 43 44  1  0
 43 18  1  0
 45 43  1  0
 46  5  1  0
 46 47  1  0
 48 49  1  0
 48 47  1  0
 50 61  2  0
 51 49  1  0
 51 56  1  0
 52 60  1  0
 52 62  1  0
 53 59  1  0
 53 55  1  0
 54 60  1  0
 55 54  1  0
 56 55  2  0
 57 58  1  0
 57 51  2  0
 58 53  2  0
 59 52  1  0
 60 50  1  0
 62 64  2  0
 63 62  1  0
 65 63  1  0
 66 75  2  0
 66 71  1  0
 67 63  1  0
 67 71  1  0
 68 67  1  0
 69 70  1  0
 69 68  1  0
 70 66  1  0
 71 72  2  0
 72 73  1  0
 74 73  2  0
 75 74  1  0
 76 50  1  0
 76 81  1  0
 76 77  1  0
 77 80  1  1
 77 78  1  0
 79 77  1  0
 81 84  1  0
 82 86  1  0
 82 81  1  0
 83 82  2  0
 86 85  1  0
 88 86  1  0
 88 89  1  0
 88 87  1  0
M  ISO  4   8 100  16 100  48 101  49 101
M  END
>  <TORSDO>  (39) 
F 20

>  <SCORE>  (39) 
-13.430

>  <name>  (39) 
38

>  <ligand_id>  (39) 
38

>  <original_smiles>  (39) 
[H]C(=C1C(=O)N(C([H])([H])C([H])([H])C([H])([H])Oc2c([H])c([H])c3c(c2[H])C([H])([H])N(C(=O)C([H])(N([H])C(=O)C([H])(N([H])C([H])([H])[H])C([H])([H])[H])C(C([H])([H])[H])(C([H])([H])[H])C([H])([H])[H])C([H])(C(=O)N([H])C2([H])c4c([H])c([H])c([H])c([H])c4C([H])([H])C([H])([H])C2([H])[H])C3([H])[H])C1([H])[H])C([H])([H])N([H])C(=O)N1C([H])([H])C([H])([H])C([H])([H])C([H])(n2nc(-c3c([H])c([H])c(Oc4c([H])c([H])c(F)c([H])c4F)c([H])c3[H])c(C(=O)N([H])[H])c2N([H])[H])C1([H])[H]

>  <smiles>  (39) 
[H]C(=C1C(=O)N(C([H])([H])C([H])([H])C([H])([H])Oc2c([H])c([H])c3c(c2[H])C([H])([H])N(C(=O)C([H])(N([H])C(=O)C([H])(N([H])C([H])([H])[H])C([H])([H])[H])C(C([H])([H])[H])(C([H])([H])[H])C([H])([H])[H])C([H])(C(=O)N([H])C2([H])c4c([H])c([H])c([H])c([H])c4C([H])([H])C([H])([H])C2([H])[H])C3([H])[H])C1([H])[H])C([H])([H])N([H])C(=O)N1C([H])([H])C([H])([H])C([H])([H])C([H])(n2nc(-c3c([H])c([H])c(Oc4c([H])c([H])c(F)c([H])c4F)c([H])c3[H])c(C(=O)N([H])[H])c2N([H])[H])C1([H])[H]

$$$$
39:0:0
     RDKit          3D

 93102  0  0  1  0  0  0  0  0999 V2000
  -29.8450  -21.1500   21.3380 C   0  0  0  0  0  3  0  0  0  0  0  0
  -27.6840  -20.3470   20.5150 C   0  0  0  0  0  3  0  0  0  0  0  0
  -30.2280  -19.8220   21.6090 C   0  0  0  0  0  3  0  0  0  0  0  0
  -28.0840  -19.0190   20.7530 C   0  0  0  0  0  3  0  0  0  0  0  0
  -28.5730  -21.4120   20.7710 C   0  0  0  0  0  0  0  0  0  0  0  0
  -29.3720  -18.7500   21.2720 C   0  0  0  0  0  0  0  0  0  0  0  0
  -28.4430  -23.2650   18.9380 C   0  0  0  0  0  2  0  0  0  0  0  0
  -28.8220  -24.0770   20.8630 C   0  0  0  0  0  2  0  0  0  0  0  0
  -28.1320  -22.8050   20.3630 C   0  0  0  0  0  3  0  0  0  0  0  0
  -28.6070  -24.6890   19.4700 C   0  0  0  0  0  3  0  0  0  0  0  0
  -29.7090  -25.5580   18.8580 C   0  0  0  0  0  2  0  0  0  0  0  0
  -29.5630  -26.9150   19.2450 O   0  0  0  0  0  0  0  0  0  0  0  0
  -25.0110  -30.9470   22.8310 C   0  0  0  0  0  0  0  0  0  0  0  0
  -28.2980  -27.4550   19.2400 C   0  0  0  0  0  0  0  0  0  0  0  0
  -24.0480  -29.7360   20.8950 C   0  0  0  0  0  3  0  0  0  0  0  0
  -25.7330  -28.6250   19.3470 C   0  0  0  0  0  0  0  0  0  0  0  0
  -26.5190  -30.3880   20.9370 C   0  0  0  0  0  2  0  0  0  0  0  0
  -26.7860  -29.1700   20.0870 C   0  0  0  0  0  0  0  0  0  0  0  0
  -28.0660  -28.5820   20.0480 C   0  0  0  0  0  3  0  0  0  0  0  0
  -27.2250  -26.9210   18.4820 C   0  0  0  0  0  3  0  0  0  0  0  0
  -25.9380  -27.4810   18.5610 C   0  0  0  0  0  3  0  0  0  0  0  0
  -24.3990  -29.3260   19.4400 C   0  0  0  0  0  2  0  0  0  0  0  0
  -25.2030  -30.3640   21.6150 N   0  0  0  0  0  0  0  0  0  0  0  0
  -23.8810  -31.0070   23.3380 O   0  0  0  0  0  0  0  0  0  0  0  0
  -23.4810  -28.4980   21.6230 C   0  0  0  0  0  0  0  0  0  0  0  0
  -22.1820  -28.2320   21.4130 N   0  0  0  0  0  0  0  0  0  0  0  0
  -24.2020  -27.7900   22.3330 O   0  0  0  0  0  0  0  0  0  0  0  0
  -21.6690  -28.8580   20.8090 H   0  0  0  0  0  0  0  0  0  0  0  0
  -18.8960  -26.7650   21.6590 C   0  0  0  0  0  0  0  0  0  0  0  0
  -21.4360  -27.1080   21.9700 C   0  0  0  0  0  3  0  0  0  0  0  0
  -21.6110  -25.8430   21.1020 C   0  0  0  0  0  2  0  0  0  0  0  0
  -20.5140  -25.6780   20.0470 C   0  0  0  0  0  2  0  0  0  0  0  0
  -19.1370  -25.6050   20.7120 C   0  0  0  0  0  2  0  0  0  0  0  0
  -19.9760  -27.4820   22.2380 C   0  0  0  0  0  0  0  0  0  0  0  0
  -19.6990  -28.5770   23.0860 C   0  0  0  0  0  3  0  0  0  0  0  0
  -18.3710  -28.9520   23.3590 C   0  0  0  0  0  3  0  0  0  0  0  0
  -17.3050  -28.2280   22.7970 C   0  0  0  0  0  3  0  0  0  0  0  0
  -17.5670  -27.1370   21.9510 C   0  0  0  0  0  3  0  0  0  0  0  0
  -26.1890  -31.5790   23.6300 C   0  0  0  0  0  3  0  0  0  0  0  0
  -26.6970  -30.6730   24.8200 C   0  0  1  0  0  0  0  0  0  0  0  0
  -25.5660  -30.1890   25.7560 C   0  0  0  0  0  1  0  0  0  0  0  0
  -27.4300  -29.4220   24.2800 C   0  0  0  0  0  1  0  0  0  0  0  0
  -27.7250  -31.4530   25.6730 C   0  0  0  0  0  1  0  0  0  0  0  0
  -25.7310  -32.8830   24.1260 N   0  0  0  0  0  0  0  0  0  0  0  0
  -26.0130  -34.0580   23.5490 C   0  0  0  0  0  0  0  0  0  0  0  0
  -26.7590  -34.1620   22.5710 O   0  0  0  0  0  0  0  0  0  0  0  0
  -25.0640  -32.8700   24.8830 H   0  0  0  0  0  0  0  0  0  0  0  0
  -24.1430  -35.7230   23.2990 C   0  0  0  0  0  1  0  0  0  0  0  0
  -25.3590  -35.3160   24.1470 C   0  0  0  0  0  3  0  0  0  0  0  0
  -27.3310  -36.2580   25.2650 C   0  0  0  0  0  1  0  0  0  0  0  0
  -26.2880  -36.4610   24.2630 N   0  0  0  0  0  0  0  0  0  0  0  0
  -25.7840  -37.3130   24.4950 H   0  0  0  0  0  0  0  0  0  0  0  0
  -29.8270  -17.3110   21.4790 C   0  0  0  0  0  2  0  0  0  0  0  0
  -30.5340  -17.1590   18.9650 C   0  0  0  0  0  1  0  0  0  0  0  0
  -30.8470  -16.7700   20.4370 C   0  0  0  0  0  3  0  0  0  0  0  0
  -31.5380  -14.4270   19.8800 C   0  0  0  0  0  0  0  0  0  0  0  0
  -31.1680  -12.3030   18.7060 C   0  0  0  0  0  2  0  0  0  0  0  0
  -30.1370  -12.5070   17.5690 C   0  0  0  0  0  2  0  0  0  0  0  0
  -28.6820  -12.4210   18.0940 C   0  0  0  0  0  2  0  0  0  0  0  0
  -28.4500  -13.2910   19.3620 C   0  0  0  0  0  3  0  0  0  0  0  0
  -29.5510  -12.9810   20.3990 C   0  0  0  0  0  2  0  0  0  0  0  0
  -30.8660  -13.2560   19.7780 N   0  0  0  0  0  0  0  0  0  0  0  0
  -32.5800  -14.6930   19.2660 O   0  0  0  0  0  0  0  0  0  0  0  0
  -30.8670  -15.3250   20.5930 N   0  0  0  0  0  0  0  0  0  0  0  0
  -30.1180  -14.9360   21.1530 H   0  0  0  0  0  0  0  0  0  0  0  0
  -26.1560  -14.0160   20.3080 C   0  0  0  0  0  0  0  0  0  0  0  0
  -25.0740  -13.2920   20.7340 C   0  0  0  0  0  0  0  0  0  0  0  0
  -25.4350  -11.9220   20.5890 C   0  0  0  0  0  0  0  0  0  0  0  0
  -27.1160  -13.0870   19.9330 N   0  0  0  0  0  0  0  0  0  0  0  0
  -26.6880  -11.8170   20.1590 N   0  0  0  0  0  0  0  0  0  0  0  0
  -24.6480  -10.6960   20.7890 C   0  0  0  0  0  0  0  0  0  0  0  0
  -25.0230   -9.7390   21.7530 C   0  0  0  0  0  3  0  0  0  0  0  0
  -24.2590   -8.5680   21.9420 C   0  0  0  0  0  3  0  0  0  0  0  0
  -23.0960   -8.3480   21.1660 C   0  0  0  0  0  0  0  0  0  0  0  0
  -22.7330   -9.2950   20.1930 C   0  0  0  0  0  3  0  0  0  0  0  0
  -23.4990  -10.4610   20.0070 C   0  0  0  0  0  3  0  0  0  0  0  0
  -22.3070   -7.2280   21.2550 O   0  0  0  0  0  0  0  0  0  0  0  0
  -22.0620   -6.6190   22.4590 C   0  0  0  0  0  0  0  0  0  0  0  0
  -21.5030   -7.3170   23.5510 C   0  0  0  0  0  3  0  0  0  0  0  0
  -21.2100   -6.6350   24.7480 C   0  0  0  0  0  3  0  0  0  0  0  0
  -21.4560   -5.2520   24.8470 C   0  0  0  0  0  0  0  0  0  0  0  0
  -22.0020   -4.5530   23.7570 C   0  0  0  0  0  3  0  0  0  0  0  0
  -22.3060   -5.2350   22.5660 C   0  0  0  0  0  0  0  0  0  0  0  0
  -22.8140   -4.5560   21.5100 F   0  0  0  0  0  0  0  0  0  0  0  0
  -21.1620   -4.5900   25.9910 F   0  0  0  0  0  0  0  0  0  0  0  0
  -23.7330  -13.8380   21.1530 C   0  0  0  0  0  0  0  0  0  0  0  0
  -23.0660  -13.1600   22.0810 N   0  0  0  0  0  0  0  0  0  0  0  0
  -23.2960  -14.8870   20.6890 O   0  0  0  0  0  0  0  0  0  0  0  0
  -23.4340  -12.3060   22.4690 H   0  0  0  0  0  0  0  0  0  0  0  0
  -22.1660  -13.4850   22.4110 H   0  0  0  0  0  0  0  0  0  0  0  0
  -26.4070  -15.3810   20.1890 N   0  0  0  0  0  0  0  0  0  0  0  0
  -25.7180  -16.0940   20.4080 H   0  0  0  0  0  0  0  0  0  0  0  0
  -27.2830  -15.7510   19.8490 H   0  0  0  0  0  0  0  0  0  0  0  0
  1  3  1  0
  2  4  2  0
  2  5  1  0
  4  6  1  0
  5  1  2  0
  6 53  1  0
  6  3  2  0
  7 10  1  0
  7  9  1  0
  9  5  1  0
  9  8  1  0
 10 11  1  0
 10  8  1  0
 11 12  1  0
 13 24  2  0
 14 12  1  0
 14 19  1  0
 15 23  1  0
 15 25  1  0
 16 22  1  0
 16 18  1  0
 17 23  1  0
 18 17  1  0
 19 18  2  0
 20 21  1  0
 20 14  2  0
 21 16  2  0
 22 15  1  0
 23 13  1  0
 25 27  2  0
 26 25  1  0
 28 26  1  0
 29 38  2  0
 29 34  1  0
 30 26  1  0
 30 34  1  0
 31 30  1  0
 32 33  1  0
 32 31  1  0
 33 29  1  0
 34 35  2  0
 35 36  1  0
 37 36  2  0
 38 37  1  0
 39 13  1  0
 39 44  1  0
 39 40  1  0
 40 43  1  1
 40 41  1  0
 42 40  1  0
 44 47  1  0
 45 44  1  0
 45 49  1  0
 46 45  2  0
 49 48  1  0
 49 51  1  0
 51 52  1  0
 51 50  1  0
 55 54  1  0
 55 64  1  0
 55 53  1  0
 56 64  1  0
 57 62  1  0
 58 59  1  0
 58 57  1  0
 60 59  1  0
 60 69  1  0
 60 61  1  0
 62 56  1  0
 62 61  1  0
 63 56  2  0
 64 65  1  0
 66 67  2  0
 67 86  1  0
 68 67  1  0
 68 71  1  0
 69 70  1  0
 69 66  1  0
 70 68  2  0
 71 72  1  0
 72 73  2  0
 74 77  1  0
 74 73  1  0
 75 74  2  0
 76 75  1  0
 76 71  2  0
 77 78  1  0
 78 83  2  0
 78 79  1  0
 79 80  2  0
 80 81  1  0
 81 85  1  0
 82 81  2  0
 83 82  1  0
 84 83  1  0
 86 87  1  0
 87 90  1  0
 87 89  1  0
 88 86  2  0
 91 66  1  0
 91 92  1  0
 93 91  1  0
M  ISO  4  11 101  12 101  56 100  64 100
M  END
>  <TORSDO>  (40) 
F 20

>  <SCORE>  (40) 
-8.733

>  <name>  (40) 
39

>  <ligand_id>  (40) 
39

>  <original_smiles>  (40) 
[H]c1c([H])c([H])c2c(c1[H])C([H])([H])C([H])([H])C([H])([H])C2([H])N([H])C(=O)C1([H])N(C(=O)C([H])(N([H])C(=O)C([H])(N([H])C([H])([H])[H])C([H])([H])[H])C(C([H])([H])[H])(C([H])([H])[H])C([H])([H])[H])C([H])([H])c2c([H])c(OC([H])([H])C3([H])C([H])([H])C([H])(c4c([H])c([H])c(C([H])([H])C([H])(N([H])C(=O)N5C([H])([H])C([H])([H])C([H])([H])C([H])(n6nc(-c7c([H])c([H])c(Oc8c([H])c([H])c(F)c([H])c8F)c([H])c7[H])c(C(=O)N([H])[H])c6N([H])[H])C5([H])[H])C([H])([H])[H])c([H])c4[H])C3([H])[H])c([H])c([H])c2C1([H])[H]

>  <smiles>  (40) 
[H]c1c([H])c([H])c2c(c1[H])C([H])([H])C([H])([H])C([H])([H])C2([H])N([H])C(=O)C1([H])N(C(=O)C([H])(N([H])C(=O)C([H])(N([H])C([H])([H])[H])C([H])([H])[H])C(C([H])([H])[H])(C([H])([H])[H])C([H])([H])[H])C([H])([H])c2c([H])c(OC([H])([H])C3([H])C([H])([H])C([H])(c4c([H])c([H])c(C([H])([H])C([H])(N([H])C(=O)N5C([H])([H])C([H])([H])C([H])([H])C([H])(n6nc(-c7c([H])c([H])c(Oc8c([H])c([H])c(F)c([H])c8F)c([H])c7[H])c(C(=O)N([H])[H])c6N([H])[H])C5([H])[H])C([H])([H])[H])c([H])c4[H])C3([H])[H])c([H])c([H])c2C1([H])[H]

$$$$
40:0:0
     RDKit          3D

 98107  0  0  1  0  0  0  0  0999 V2000
  -29.2000  -21.9830   21.4330 C   0  0  0  0  0  2  0  0  0  0  0  0
  -28.0230  -22.3460   19.4510 C   0  0  0  0  0  2  0  0  0  0  0  0
  -28.8540  -20.5660   20.8940 C   0  0  0  0  0  3  0  0  0  0  0  0
  -28.4040  -20.8520   19.4450 C   0  0  0  0  0  3  0  0  0  0  0  0
  -28.9870  -22.9670   20.3570 N   0  0  0  0  0  0  0  0  0  0  0  0
  -27.2910  -19.9930   18.9980 N   0  0  0  0  0  4  0  0  0  0  0  0
  -26.4610  -20.1600   19.5380 H   0  0  0  0  0  0  0  0  0  0  0  0
  -27.5270  -19.0200   19.0600 H   0  0  0  0  0  0  0  0  0  0  0  0
  -27.0760  -20.1890   18.0360 H   0  0  0  0  0  0  0  0  0  0  0  0
  -30.0300  -19.5460   21.0570 C   0  0  0  0  0  2  0  0  0  0  0  0
  -29.6980  -18.0150   21.1560 C   0  0  0  0  0  2  0  0  0  0  0  0
  -30.9650  -14.6330   20.3510 C   0  0  0  0  0  0  0  0  0  0  0  0
  -30.6640  -12.3890   19.3920 C   0  0  0  0  0  2  0  0  0  0  0  0
  -29.7560  -12.5040   18.1520 C   0  0  0  0  0  2  0  0  0  0  0  0
  -28.2680  -12.4370   18.5510 C   0  0  0  0  0  2  0  0  0  0  0  0
  -27.9110  -13.3300   19.7730 C   0  0  0  0  0  3  0  0  0  0  0  0
  -28.9550  -13.2210   20.9060 C   0  0  0  0  0  2  0  0  0  0  0  0
  -30.2740  -13.4640   20.3180 N   0  0  0  0  0  0  0  0  0  0  0  0
  -32.1870  -14.6890   20.2020 O   0  0  0  0  0  0  0  0  0  0  0  0
  -30.2730  -16.0110   18.5680 C   0  0  0  0  0  2  0  0  0  0  0  0
  -30.6670  -17.4410   18.8440 C   0  0  0  0  0  3  0  0  0  0  0  0
  -30.6860  -17.1500   20.3310 C   0  0  0  0  0  3  0  0  0  0  0  0
  -30.2360  -15.7460   20.0310 N   0  0  0  0  0  0  0  0  0  0  0  0
  -25.5240  -13.9630   20.4770 C   0  0  0  0  0  0  0  0  0  0  0  0
  -24.4420  -13.2060   20.8290 C   0  0  0  0  0  0  0  0  0  0  0  0
  -24.8840  -11.8480   20.8090 C   0  0  0  0  0  0  0  0  0  0  0  0
  -26.5570  -13.0680   20.2520 N   0  0  0  0  0  0  0  0  0  0  0  0
  -26.1780  -11.7900   20.5170 N   0  0  0  0  0  0  0  0  0  0  0  0
  -24.1380  -10.5960   20.9910 C   0  0  0  0  0  0  0  0  0  0  0  0
  -24.5330   -9.6350   21.9480 C   0  0  0  0  0  3  0  0  0  0  0  0
  -23.7900   -8.4460   22.1190 C   0  0  0  0  0  3  0  0  0  0  0  0
  -22.6370   -8.2120   21.3320 C   0  0  0  0  0  0  0  0  0  0  0  0
  -22.2610   -9.1620   20.3650 C   0  0  0  0  0  3  0  0  0  0  0  0
  -23.0060  -10.3410   20.1930 C   0  0  0  0  0  3  0  0  0  0  0  0
  -21.8690   -7.0750   21.4090 O   0  0  0  0  0  0  0  0  0  0  0  0
  -21.7600   -6.3590   22.5750 C   0  0  0  0  0  0  0  0  0  0  0  0
  -21.2610   -6.9400   23.7610 C   0  0  0  0  0  3  0  0  0  0  0  0
  -21.0970   -6.1500   24.9160 C   0  0  0  0  0  3  0  0  0  0  0  0
  -21.4210   -4.7800   24.8870 C   0  0  0  0  0  0  0  0  0  0  0  0
  -21.9130   -4.1990   23.7050 C   0  0  0  0  0  3  0  0  0  0  0  0
  -22.0790   -4.9850   22.5520 C   0  0  0  0  0  0  0  0  0  0  0  0
  -22.5320   -4.4160   21.4080 F   0  0  0  0  0  0  0  0  0  0  0  0
  -21.2550   -4.0190   25.9950 F   0  0  0  0  0  0  0  0  0  0  0  0
  -23.0480  -13.7000   21.0820 C   0  0  0  0  0  0  0  0  0  0  0  0
  -22.3040  -13.0210   21.9460 N   0  0  0  0  0  0  0  0  0  0  0  0
  -22.6240  -14.7260   20.5480 O   0  0  0  0  0  0  0  0  0  0  0  0
  -22.6600  -12.1920   22.3990 H   0  0  0  0  0  0  0  0  0  0  0  0
  -21.3690  -13.3360   22.1590 H   0  0  0  0  0  0  0  0  0  0  0  0
  -25.7120  -15.3320   20.3020 N   0  0  0  0  0  0  0  0  0  0  0  0
  -24.9610  -16.0040   20.4070 H   0  0  0  0  0  0  0  0  0  0  0  0
  -26.5880  -15.7450   20.0120 H   0  0  0  0  0  0  0  0  0  0  0  0
  -31.9360  -17.9290   18.2520 N   0  0  0  0  0  4  0  0  0  0  0  0
  -32.7080  -17.3350   18.4870 H   0  0  0  0  0  0  0  0  0  0  0  0
  -32.1530  -18.8520   18.5830 H   0  0  0  0  0  0  0  0  0  0  0  0
  -31.8670  -17.9770   17.2500 H   0  0  0  0  0  0  0  0  0  0  0  0
  -28.5860  -24.3140   20.8330 C   0  0  0  0  0  2  0  0  0  0  0  0
  -28.7130  -25.4340   19.7510 C   0  0  0  0  0  2  0  0  0  0  0  0
  -28.5890  -26.7880   20.2620 O   0  0  0  0  0  0  0  0  0  0  0  0
  -24.6340  -31.9220   23.2620 C   0  0  0  0  0  0  0  0  0  0  0  0
  -27.3880  -27.4890   20.2250 C   0  0  0  0  0  0  0  0  0  0  0  0
  -23.4810  -30.5120   21.5920 C   0  0  0  0  0  3  0  0  0  0  0  0
  -24.9780  -29.0000   20.1890 C   0  0  0  0  0  0  0  0  0  0  0  0
  -26.0080  -30.8960   21.4470 C   0  0  0  0  0  2  0  0  0  0  0  0
  -26.1210  -29.5250   20.8040 C   0  0  0  0  0  0  0  0  0  0  0  0
  -27.3240  -28.7770   20.8190 C   0  0  0  0  0  3  0  0  0  0  0  0
  -26.2170  -26.9860   19.6110 C   0  0  0  0  0  3  0  0  0  0  0  0
  -25.0250  -27.7310   19.5920 C   0  0  0  0  0  3  0  0  0  0  0  0
  -23.7250  -29.8460   20.2120 C   0  0  0  0  0  2  0  0  0  0  0  0
  -24.7250  -31.1270   22.1570 N   0  0  0  0  0  0  0  0  0  0  0  0
  -23.5400  -32.1780   23.7820 O   0  0  0  0  0  0  0  0  0  0  0  0
  -22.8280  -29.4770   22.5360 C   0  0  0  0  0  0  0  0  0  0  0  0
  -21.5050  -29.2920   22.3980 N   0  0  0  0  0  0  0  0  0  0  0  0
  -23.5080  -28.8450   23.3470 O   0  0  0  0  0  0  0  0  0  0  0  0
  -21.0130  -29.8550   21.7170 H   0  0  0  0  0  0  0  0  0  0  0  0
  -18.1280  -28.1050   22.9020 C   0  0  0  0  0  0  0  0  0  0  0  0
  -20.6890  -28.3420   23.1550 C   0  0  0  0  0  3  0  0  0  0  0  0
  -20.7770  -26.9240   22.5470 C   0  0  0  0  0  2  0  0  0  0  0  0
  -19.6670  -26.6310   21.5340 C   0  0  0  0  0  2  0  0  0  0  0  0
  -18.2900  -26.7690   22.1920 C   0  0  0  0  0  2  0  0  0  0  0  0
  -19.2530  -28.8500   23.3400 C   0  0  0  0  0  0  0  0  0  0  0  0
  -19.0470  -30.0990   23.9620 C   0  0  0  0  0  3  0  0  0  0  0  0
  -17.7490  -30.6070   24.1470 C   0  0  0  0  0  3  0  0  0  0  0  0
  -16.6370  -29.8600   23.7230 C   0  0  0  0  0  3  0  0  0  0  0  0
  -16.8270  -28.6090   23.1080 C   0  0  0  0  0  3  0  0  0  0  0  0
  -25.9000  -32.5710   23.9070 C   0  0  0  0  0  3  0  0  0  0  0  0
  -25.5710  -33.9720   24.2050 N   0  0  0  0  0  0  0  0  0  0  0  0
  -25.9180  -35.0160   23.4410 C   0  0  0  0  0  0  0  0  0  0  0  0
  -26.6180  -34.9030   22.4310 O   0  0  0  0  0  0  0  0  0  0  0  0
  -24.9480  -34.1340   24.9820 H   0  0  0  0  0  0  0  0  0  0  0  0
  -24.1860  -36.7920   23.0120 C   0  0  0  0  0  1  0  0  0  0  0  0
  -25.4050  -36.4050   23.8660 C   0  0  0  0  0  3  0  0  0  0  0  0
  -27.5020  -37.3190   24.7570 C   0  0  0  0  0  1  0  0  0  0  0  0
  -26.4310  -37.4670   23.7750 N   0  0  0  0  0  0  0  0  0  0  0  0
  -26.0110  -38.3840   23.9010 H   0  0  0  0  0  0  0  0  0  0  0  0
  -26.3930  -31.8250   25.2080 C   0  0  1  0  0  0  0  0  0  0  0  0
  -25.2750  -31.5870   26.2480 C   0  0  0  0  0  1  0  0  0  0  0  0
  -27.0020  -30.4500   24.8520 C   0  0  0  0  0  1  0  0  0  0  0  0
  -27.5150  -32.6440   25.8880 C   0  0  0  0  0  1  0  0  0  0  0  0
  2  5  1  0
  3 10  1  0
  3  1  1  0
  4  6  1  0
  4  2  1  0
  4  3  1  0
  5 56  1  0
  5  1  1  0
  6  8  1  0
  6  7  1  0
  9  6  1  0
 10 11  1  0
 13 18  1  0
 14 15  1  0
 14 13  1  0
 16 15  1  0
 16 27  1  0
 16 17  1  0
 18 12  1  0
 18 17  1  0
 19 12  2  0
 20 21  1  0
 20 23  1  0
 21 52  1  0
 21 22  1  0
 22 11  1  0
 23 22  1  0
 23 12  1  0
 24 25  2  0
 25 44  1  0
 26 25  1  0
 26 29  1  0
 27 24  1  0
 27 28  1  0
 28 26  2  0
 29 30  1  0
 30 31  2  0
 32 35  1  0
 32 31  1  0
 33 32  2  0
 34 33  1  0
 34 29  2  0
 35 36  1  0
 36 37  1  0
 37 38  2  0
 39 38  1  0
 39 43  1  0
 40 39  2  0
 41 36  2  0
 41 40  1  0
 42 41  1  0
 44 45  1  0
 45 48  1  0
 45 47  1  0
 46 44  2  0
 49 50  1  0
 49 24  1  0
 51 49  1  0
 52 53  1  0
 52 54  1  0
 55 52  1  0
 57 58  1  0
 57 56  1  0
 59 70  2  0
 60 58  1  0
 60 65  1  0
 61 69  1  0
 61 71  1  0
 62 68  1  0
 62 64  1  0
 63 69  1  0
 64 65  2  0
 64 63  1  0
 66 60  2  0
 67 66  1  0
 67 62  2  0
 68 61  1  0
 69 59  1  0
 71 73  2  0
 72 71  1  0
 74 72  1  0
 75 84  2  0
 75 80  1  0
 76 72  1  0
 76 80  1  0
 77 76  1  0
 78 79  1  0
 78 77  1  0
 79 75  1  0
 80 81  2  0
 81 82  1  0
 83 82  2  0
 84 83  1  0
 85 59  1  0
 85 86  1  0
 85 95  1  0
 86 89  1  0
 87 91  1  0
 87 86  1  0
 88 87  2  0
 91 90  1  0
 93 91  1  0
 93 94  1  0
 93 92  1  0
 95 98  1  1
 95 96  1  0
 97 95  1  0
M  ISO  4  12 100  23 100  57 101  58 101
M  END
>  <TORSDO>  (41) 
F 22

>  <SCORE>  (41) 
-13.430

>  <name>  (41) 
40

>  <ligand_id>  (41) 
40

>  <original_smiles>  (41) 
[H]c1c([H])c([H])c2c(c1[H])C([H])([H])C([H])([H])C([H])([H])C2([H])N([H])C(=O)C1([H])N(C(=O)C([H])(N([H])C(=O)C([H])(N([H])C([H])([H])[H])C([H])([H])[H])C(C([H])([H])[H])(C([H])([H])[H])C([H])([H])[H])C([H])([H])c2c([H])c(OC([H])([H])C([H])([H])N3C([H])([H])C([H])(C([H])([H])C([H])([H])C4([H])N(C(=O)N5C([H])([H])C([H])([H])C([H])([H])C([H])(n6nc(-c7c([H])c([H])c(Oc8c([H])c([H])c(F)c([H])c8F)c([H])c7[H])c(C(=O)N([H])[H])c6N([H])[H])C5([H])[H])C([H])([H])C4([H])[N+]([H])([H])[H])C([H])([N+]([H])([H])[H])C3([H])[H])c([H])c([H])c2C1([H])[H]

>  <smiles>  (41) 
[H]c1c([H])c([H])c2c(c1[H])C([H])([H])C([H])([H])C([H])([H])C2([H])N([H])C(=O)C1([H])N(C(=O)C([H])(N([H])C(=O)C([H])(N([H])C([H])([H])[H])C([H])([H])[H])C(C([H])([H])[H])(C([H])([H])[H])C([H])([H])[H])C([H])([H])c2c([H])c(OC([H])([H])C([H])([H])N3C([H])([H])C([H])(C([H])([H])C([H])([H])C4([H])N(C(=O)N5C([H])([H])C([H])([H])C([H])([H])C([H])(n6nc(-c7c([H])c([H])c(Oc8c([H])c([H])c(F)c([H])c8F)c([H])c7[H])c(C(=O)N([H])[H])c6N([H])[H])C5([H])[H])C([H])([H])C4([H])[N+]([H])([H])[H])C([H])([N+]([H])([H])[H])C3([H])[H])c([H])c([H])c2C1([H])[H]

$$$$
41:0:0
     RDKit          3D

 95104  0  0  1  0  0  0  0  0999 V2000
  -30.1740  -20.9630   20.8130 C   0  0  0  0  0  3  0  0  0  0  0  0
  -29.4520  -21.8290   18.6790 C   0  0  0  0  0  3  0  0  0  0  0  0
  -30.2410  -22.3020   21.3010 C   0  0  0  0  0  3  0  0  0  0  0  0
  -29.5230  -23.1580   19.1610 C   0  0  0  0  0  3  0  0  0  0  0  0
  -29.7910  -20.6980   19.4760 C   0  0  0  0  0  0  0  0  0  0  0  0
  -29.9260  -23.4250   20.4830 C   0  0  0  0  0  0  0  0  0  0  0  0
  -29.7580  -19.3260   18.8050 C   0  0  0  0  0  0  0  0  0  0  0  0
  -29.4020  -19.2680   17.6210 O   0  0  0  0  0  0  0  0  0  0  0  0
  -28.8780  -17.1340   19.3340 C   0  0  0  0  0  2  0  0  0  0  0  0
  -30.1540  -17.9500   19.4090 C   0  0  0  0  0  3  0  0  0  0  0  0
  -29.6170  -17.1190   20.6280 C   0  0  0  0  0  3  0  0  0  0  0  0
  -30.6950  -14.7520   20.5570 C   0  0  0  0  0  0  0  0  0  0  0  0
  -30.5560  -12.5320   19.4630 C   0  0  0  0  0  2  0  0  0  0  0  0
  -29.6140  -12.6760   18.2440 C   0  0  0  0  0  2  0  0  0  0  0  0
  -28.1380  -12.4980   18.6520 C   0  0  0  0  0  2  0  0  0  0  0  0
  -27.7610  -13.3260   19.9090 C   0  0  0  0  0  3  0  0  0  0  0  0
  -28.8110  -13.1380   21.0290 C   0  0  0  0  0  2  0  0  0  0  0  0
  -30.1300  -13.5100   20.4810 N   0  0  0  0  0  0  0  0  0  0  0  0
  -31.8010  -15.0080   20.0690 O   0  0  0  0  0  0  0  0  0  0  0  0
  -29.8550  -15.7170   21.0170 N   0  0  0  0  0  0  0  0  0  0  0  0
  -29.0660  -15.3130   21.5020 H   0  0  0  0  0  0  0  0  0  0  0  0
  -25.3420  -13.8850   20.5830 C   0  0  0  0  0  0  0  0  0  0  0  0
  -24.2860  -13.0920   20.9420 C   0  0  0  0  0  0  0  0  0  0  0  0
  -24.7760  -11.7490   20.9200 C   0  0  0  0  0  0  0  0  0  0  0  0
  -26.4080  -13.0250   20.3670 N   0  0  0  0  0  0  0  0  0  0  0  0
  -26.0700  -11.7350   20.6270 N   0  0  0  0  0  0  0  0  0  0  0  0
  -24.0740  -10.4730   21.1050 C   0  0  0  0  0  0  0  0  0  0  0  0
  -24.4930   -9.5330   22.0730 C   0  0  0  0  0  3  0  0  0  0  0  0
  -23.7920   -8.3200   22.2430 C   0  0  0  0  0  3  0  0  0  0  0  0
  -22.6560   -8.0380   21.4480 C   0  0  0  0  0  0  0  0  0  0  0  0
  -22.2560   -8.9680   20.4700 C   0  0  0  0  0  3  0  0  0  0  0  0
  -22.9600  -10.1720   20.2970 C   0  0  0  0  0  3  0  0  0  0  0  0
  -21.9290   -6.8750   21.5260 O   0  0  0  0  0  0  0  0  0  0  0  0
  -21.8330   -6.1640   22.6950 C   0  0  0  0  0  0  0  0  0  0  0  0
  -21.2780   -6.7270   23.8660 C   0  0  0  0  0  3  0  0  0  0  0  0
  -21.1320   -5.9380   25.0250 C   0  0  0  0  0  3  0  0  0  0  0  0
  -21.5340   -4.5890   25.0140 C   0  0  0  0  0  0  0  0  0  0  0  0
  -22.0840   -4.0270   23.8480 C   0  0  0  0  0  3  0  0  0  0  0  0
  -22.2290   -4.8130   22.6920 C   0  0  0  0  0  0  0  0  0  0  0  0
  -22.7390   -4.2600   21.5650 F   0  0  0  0  0  0  0  0  0  0  0  0
  -21.3900   -3.8280   26.1260 F   0  0  0  0  0  0  0  0  0  0  0  0
  -22.8760  -13.5410   21.1980 C   0  0  0  0  0  0  0  0  0  0  0  0
  -22.1480  -12.8270   22.0490 N   0  0  0  0  0  0  0  0  0  0  0  0
  -22.4250  -14.5600   20.6770 O   0  0  0  0  0  0  0  0  0  0  0  0
  -22.5250  -12.0050   22.4990 H   0  0  0  0  0  0  0  0  0  0  0  0
  -21.2020  -13.1120   22.2590 H   0  0  0  0  0  0  0  0  0  0  0  0
  -25.4810  -15.2590   20.4030 N   0  0  0  0  0  0  0  0  0  0  0  0
  -24.7000  -15.9000   20.4980 H   0  0  0  0  0  0  0  0  0  0  0  0
  -26.3230  -15.7090   20.0670 H   0  0  0  0  0  0  0  0  0  0  0  0
  -30.1260  -24.8870   20.9760 C   0  0  0  0  0  2  0  0  0  0  0  0
  -28.9240  -25.8950   21.2010 C   0  0  0  0  0  3  0  0  0  0  0  0
  -27.0300  -24.0860   21.4180 C   0  0  0  0  0  1  0  0  0  0  0  0
  -28.0990  -25.0650   23.4870 C   0  0  0  0  0  1  0  0  0  0  0  0
  -27.7180  -25.3250   22.0200 C   0  0  0  0  0  3  0  0  0  0  0  0
  -28.5850  -26.6660   20.0080 O   0  0  0  0  0  0  0  0  0  0  0  0
  -24.7370  -31.8300   23.2340 C   0  0  0  0  0  0  0  0  0  0  0  0
  -27.4560  -27.4750   20.0520 C   0  0  0  0  0  0  0  0  0  0  0  0
  -23.5560  -30.4440   21.5610 C   0  0  0  0  0  3  0  0  0  0  0  0
  -25.0400  -28.9710   20.0940 C   0  0  0  0  0  0  0  0  0  0  0  0
  -26.0770  -30.8470   21.3710 C   0  0  0  0  0  2  0  0  0  0  0  0
  -26.1930  -29.4880   20.7030 C   0  0  0  0  0  0  0  0  0  0  0  0
  -27.4070  -28.7470   20.6840 C   0  0  0  0  0  3  0  0  0  0  0  0
  -26.2910  -27.0000   19.4140 C   0  0  0  0  0  3  0  0  0  0  0  0
  -25.0870  -27.7270   19.4440 C   0  0  0  0  0  3  0  0  0  0  0  0
  -23.7800  -29.8060   20.1650 C   0  0  0  0  0  2  0  0  0  0  0  0
  -24.8080  -31.0540   22.1150 N   0  0  0  0  0  0  0  0  0  0  0  0
  -23.6510  -32.0700   23.7810 O   0  0  0  0  0  0  0  0  0  0  0  0
  -22.9250  -29.3880   22.4990 C   0  0  0  0  0  0  0  0  0  0  0  0
  -21.6020  -29.1860   22.3750 N   0  0  0  0  0  0  0  0  0  0  0  0
  -23.6230  -28.7540   23.2950 O   0  0  0  0  0  0  0  0  0  0  0  0
  -21.0980  -29.7520   21.7070 H   0  0  0  0  0  0  0  0  0  0  0  0
  -18.2500  -27.9280   22.8770 C   0  0  0  0  0  0  0  0  0  0  0  0
  -20.8080  -28.2140   23.1260 C   0  0  0  0  0  3  0  0  0  0  0  0
  -20.9230  -26.8030   22.5030 C   0  0  0  0  0  2  0  0  0  0  0  0
  -19.8140  -26.4970   21.4930 C   0  0  0  0  0  2  0  0  0  0  0  0
  -18.4380  -26.6020   22.1570 C   0  0  0  0  0  2  0  0  0  0  0  0
  -19.3640  -28.6910   23.3170 C   0  0  0  0  0  0  0  0  0  0  0  0
  -19.1350  -29.9330   23.9510 C   0  0  0  0  0  3  0  0  0  0  0  0
  -17.8250  -30.4100   24.1460 C   0  0  0  0  0  3  0  0  0  0  0  0
  -16.7280  -29.6440   23.7210 C   0  0  0  0  0  3  0  0  0  0  0  0
  -16.9400  -28.4030   23.0920 C   0  0  0  0  0  3  0  0  0  0  0  0
  -26.0100  -32.4750   23.8640 C   0  0  0  0  0  3  0  0  0  0  0  0
  -25.6730  -33.8590   24.2240 N   0  0  0  0  0  0  0  0  0  0  0  0
  -25.9810  -34.9340   23.4850 C   0  0  0  0  0  0  0  0  0  0  0  0
  -26.6490  -34.8650   22.4490 O   0  0  0  0  0  0  0  0  0  0  0  0
  -25.0810  -33.9850   25.0330 H   0  0  0  0  0  0  0  0  0  0  0  0
  -24.2280  -36.7070   23.1580 C   0  0  0  0  0  1  0  0  0  0  0  0
  -25.4680  -36.3010   23.9720 C   0  0  0  0  0  3  0  0  0  0  0  0
  -27.5740  -37.2050   24.8540 C   0  0  0  0  0  1  0  0  0  0  0  0
  -26.4840  -37.3730   23.8960 N   0  0  0  0  0  0  0  0  0  0  0  0
  -26.0610  -38.2830   24.0540 H   0  0  0  0  0  0  0  0  0  0  0  0
  -26.5470  -31.6850   25.1210 C   0  0  1  0  0  0  0  0  0  0  0  0
  -25.4630  -31.4020   26.1870 C   0  0  0  0  0  1  0  0  0  0  0  0
  -27.1550  -30.3290   24.6970 C   0  0  0  0  0  1  0  0  0  0  0  0
  -27.6810  -32.4890   25.8000 C   0  0  0  0  0  1  0  0  0  0  0  0
  1  3  1  0
  2  4  2  0
  2  5  1  0
  4  6  1  0
  5  1  2  0
  6 50  1  0
  6  3  2  0
  7  5  1  0
  8  7  2  0
  9 10  1  0
  9 11  1  0
 10  7  1  0
 10 11  1  0
 11 20  1  0
 12 20  1  0
 13 18  1  0
 14 15  1  0
 14 13  1  0
 16 15  1  0
 16 25  1  0
 16 17  1  0
 18 12  1  0
 18 17  1  0
 19 12  2  0
 20 21  1  0
 22 23  2  0
 23 42  1  0
 24 23  1  0
 24 27  1  0
 25 22  1  0
 25 26  1  0
 26 24  2  0
 27 28  1  0
 28 29  2  0
 30 33  1  0
 30 29  1  0
 31 30  2  0
 32 31  1  0
 32 27  2  0
 33 34  1  0
 34 35  1  0
 35 36  2  0
 37 36  1  0
 37 41  1  0
 38 37  2  0
 39 34  2  0
 39 38  1  0
 40 39  1  0
 42 43  1  0
 43 46  1  0
 43 45  1  0
 44 42  2  0
 47 48  1  0
 47 22  1  0
 49 47  1  0
 51 50  1  0
 51 54  1  0
 52 54  1  0
 54 53  1  0
 55 57  1  0
 55 51  1  0
 56 67  2  0
 57 62  1  0
 58 66  1  0
 58 68  1  0
 59 65  1  0
 59 61  1  0
 60 66  1  0
 61 60  1  0
 62 61  2  0
 63 64  1  0
 63 57  2  0
 64 59  2  0
 65 58  1  0
 66 56  1  0
 68 70  2  0
 69 68  1  0
 71 69  1  0
 72 81  2  0
 72 77  1  0
 73 69  1  0
 73 77  1  0
 74 73  1  0
 75 76  1  0
 75 74  1  0
 76 72  1  0
 77 78  2  0
 78 79  1  0
 80 79  2  0
 81 80  1  0
 82 56  1  0
 82 83  1  0
 82 92  1  0
 83 86  1  0
 84 88  1  0
 84 83  1  0
 85 84  2  0
 88 87  1  0
 90 88  1  0
 90 91  1  0
 90 89  1  0
 92 95  1  1
 92 93  1  0
 94 92  1  0
M  ISO  4  12 100  20 100  51 101  55 101
M  END
>  <TORSDO>  (42) 
F 21

>  <SCORE>  (42) 
-13.318

>  <name>  (42) 
41

>  <ligand_id>  (42) 
41

>  <original_smiles>  (42) 
[H]c1c([H])c([H])c2c(c1[H])C([H])([H])C([H])([H])C([H])([H])C2([H])N([H])C(=O)C1([H])N(C(=O)C([H])(N([H])C(=O)C([H])(N([H])C([H])([H])[H])C([H])([H])[H])C(C([H])([H])[H])(C([H])([H])[H])C([H])([H])[H])C([H])([H])c2c([H])c(OC([H])(C([H])([H])c3c([H])c([H])c(C(=O)C4([H])C([H])([H])C4([H])N([H])C(=O)N4C([H])([H])C([H])([H])C([H])([H])C([H])(n5nc(-c6c([H])c([H])c(Oc7c([H])c([H])c(F)c([H])c7F)c([H])c6[H])c(C(=O)N([H])[H])c5N([H])[H])C4([H])[H])c([H])c3[H])C([H])(C([H])([H])[H])C([H])([H])[H])c([H])c([H])c2C1([H])[H]

>  <smiles>  (42) 
[H]c1c([H])c([H])c2c(c1[H])C([H])([H])C([H])([H])C([H])([H])C2([H])N([H])C(=O)C1([H])N(C(=O)C([H])(N([H])C(=O)C([H])(N([H])C([H])([H])[H])C([H])([H])[H])C(C([H])([H])[H])(C([H])([H])[H])C([H])([H])[H])C([H])([H])c2c([H])c(OC([H])(C([H])([H])c3c([H])c([H])c(C(=O)C4([H])C([H])([H])C4([H])N([H])C(=O)N4C([H])([H])C([H])([H])C([H])([H])C([H])(n5nc(-c6c([H])c([H])c(Oc7c([H])c([H])c(F)c([H])c7F)c([H])c6[H])c(C(=O)N([H])[H])c5N([H])[H])C4([H])[H])c([H])c3[H])C([H])(C([H])([H])[H])C([H])([H])[H])c([H])c([H])c2C1([H])[H]

$$$$
42:0:0
     RDKit          3D

 90 98  0  0  1  0  0  0  0  0999 V2000
  -28.6930  -23.2310   19.9900 C   0  0  0  0  0  2  0  0  0  0  0  0
  -29.0760  -20.6930   19.5490 C   0  0  0  0  0  3  0  0  0  0  0  0
  -29.3410  -19.6460   20.4050 C   0  0  0  0  0  0  0  0  0  0  0  0
  -29.5960  -20.2120   21.6560 N   0  0  0  0  0  0  0  0  0  0  0  0
  -29.4550  -21.5090   21.6030 N   0  0  0  0  0  0  0  0  0  0  0  0
  -29.1300  -21.8490   20.3300 N   0  0  0  0  0  0  0  0  0  0  0  0
  -29.1700  -18.1290   20.2140 C   0  0  0  0  0  2  0  0  0  0  0  0
  -30.3920  -17.1860   20.4880 C   0  0  0  0  0  2  0  0  0  0  0  0
  -30.7960  -14.6800   20.1290 C   0  0  0  0  0  0  0  0  0  0  0  0
  -30.5020  -12.4740   19.0580 C   0  0  0  0  0  2  0  0  0  0  0  0
  -29.5090  -12.6360   17.8860 C   0  0  0  0  0  2  0  0  0  0  0  0
  -28.0530  -12.4960   18.3770 C   0  0  0  0  0  2  0  0  0  0  0  0
  -27.7580  -13.3490   19.6400 C   0  0  0  0  0  3  0  0  0  0  0  0
  -28.8600  -13.1640   20.7070 C   0  0  0  0  0  2  0  0  0  0  0  0
  -30.1510  -13.4800   20.0750 N   0  0  0  0  0  0  0  0  0  0  0  0
  -31.9300  -14.8440   19.6730 O   0  0  0  0  0  0  0  0  0  0  0  0
  -30.0410  -15.7360   20.5240 N   0  0  0  0  0  0  0  0  0  0  0  0
  -29.1140  -15.5060   20.8480 H   0  0  0  0  0  0  0  0  0  0  0  0
  -25.4120  -13.9660   20.4930 C   0  0  0  0  0  0  0  0  0  0  0  0
  -24.3520  -13.1970   20.8910 C   0  0  0  0  0  0  0  0  0  0  0  0
  -24.7920  -11.8400   20.7990 C   0  0  0  0  0  0  0  0  0  0  0  0
  -26.4300  -13.0780   20.1800 N   0  0  0  0  0  0  0  0  0  0  0  0
  -26.0640  -11.7930   20.4240 N   0  0  0  0  0  0  0  0  0  0  0  0
  -24.0600  -10.5810   20.9910 C   0  0  0  0  0  0  0  0  0  0  0  0
  -24.4970   -9.6050   21.9130 C   0  0  0  0  0  3  0  0  0  0  0  0
  -23.7650   -8.4110   22.0920 C   0  0  0  0  0  3  0  0  0  0  0  0
  -22.5830   -8.1870   21.3470 C   0  0  0  0  0  0  0  0  0  0  0  0
  -22.1640   -9.1530   20.4150 C   0  0  0  0  0  3  0  0  0  0  0  0
  -22.8960  -10.3370   20.2340 C   0  0  0  0  0  3  0  0  0  0  0  0
  -21.8220   -7.0450   21.4350 O   0  0  0  0  0  0  0  0  0  0  0  0
  -21.7680   -6.3050   22.5890 C   0  0  0  0  0  0  0  0  0  0  0  0
  -21.2790   -6.8440   23.7990 C   0  0  0  0  0  3  0  0  0  0  0  0
  -21.1720   -6.0270   24.9430 C   0  0  0  0  0  3  0  0  0  0  0  0
  -21.5460   -4.6710   24.8760 C   0  0  0  0  0  0  0  0  0  0  0  0
  -22.0300   -4.1320   23.6720 C   0  0  0  0  0  3  0  0  0  0  0  0
  -22.1370   -4.9460   22.5300 C   0  0  0  0  0  0  0  0  0  0  0  0
  -22.5820   -4.4160   21.3650 F   0  0  0  0  0  0  0  0  0  0  0  0
  -21.4390   -3.8820   25.9710 F   0  0  0  0  0  0  0  0  0  0  0  0
  -22.9770  -13.6840   21.2460 C   0  0  0  0  0  0  0  0  0  0  0  0
  -22.2830  -12.9720   22.1270 N   0  0  0  0  0  0  0  0  0  0  0  0
  -22.5280  -14.7290   20.7790 O   0  0  0  0  0  0  0  0  0  0  0  0
  -22.6630  -12.1300   22.5300 H   0  0  0  0  0  0  0  0  0  0  0  0
  -21.3620  -13.2790   22.4070 H   0  0  0  0  0  0  0  0  0  0  0  0
  -25.5890  -15.3380   20.3460 N   0  0  0  0  0  0  0  0  0  0  0  0
  -24.8340  -15.9960   20.5090 H   0  0  0  0  0  0  0  0  0  0  0  0
  -26.4140  -15.7710   19.9510 H   0  0  0  0  0  0  0  0  0  0  0  0
  -29.3750  -24.4260   20.7520 C   0  0  0  0  0  2  0  0  0  0  0  0
  -27.2060  -25.3180   21.8090 C   0  0  0  0  0  1  0  0  0  0  0  0
  -28.5260  -25.7080   21.1040 C   0  0  0  0  0  3  0  0  0  0  0  0
  -28.4180  -26.7080   20.0480 O   0  0  0  0  0  0  0  0  0  0  0  0
  -24.5780  -31.8930   23.2110 C   0  0  0  0  0  0  0  0  0  0  0  0
  -27.2940  -27.5220   20.0550 C   0  0  0  0  0  0  0  0  0  0  0  0
  -23.4120  -30.5250   21.5160 C   0  0  0  0  0  3  0  0  0  0  0  0
  -24.9010  -29.0400   20.0650 C   0  0  0  0  0  0  0  0  0  0  0  0
  -25.9410  -30.8990   21.3710 C   0  0  0  0  0  2  0  0  0  0  0  0
  -26.0490  -29.5440   20.6930 C   0  0  0  0  0  0  0  0  0  0  0  0
  -27.2520  -28.7900   20.6900 C   0  0  0  0  0  3  0  0  0  0  0  0
  -26.1390  -27.0520   19.4010 C   0  0  0  0  0  3  0  0  0  0  0  0
  -24.9430  -27.7950   19.4160 C   0  0  0  0  0  3  0  0  0  0  0  0
  -23.6490  -29.8890   20.1210 C   0  0  0  0  0  2  0  0  0  0  0  0
  -24.6610  -31.1200   22.0910 N   0  0  0  0  0  0  0  0  0  0  0  0
  -23.4870  -32.1420   23.7410 O   0  0  0  0  0  0  0  0  0  0  0  0
  -22.7540  -29.4720   22.4370 C   0  0  0  0  0  0  0  0  0  0  0  0
  -21.4270  -29.3050   22.3080 N   0  0  0  0  0  0  0  0  0  0  0  0
  -23.4330  -28.8110   23.2270 O   0  0  0  0  0  0  0  0  0  0  0  0
  -20.9390  -29.8890   21.6430 H   0  0  0  0  0  0  0  0  0  0  0  0
  -18.0380  -28.1540   22.8170 C   0  0  0  0  0  0  0  0  0  0  0  0
  -20.6060  -28.3450   23.0460 C   0  0  0  0  0  3  0  0  0  0  0  0
  -20.6660  -26.9440   22.3930 C   0  0  0  0  0  2  0  0  0  0  0  0
  -19.5370  -26.7000   21.3860 C   0  0  0  0  0  2  0  0  0  0  0  0
  -18.1720  -26.8380   22.0670 C   0  0  0  0  0  2  0  0  0  0  0  0
  -19.1810  -28.8690   23.2620 C   0  0  0  0  0  0  0  0  0  0  0  0
  -19.0010  -30.1030   23.9230 C   0  0  0  0  0  3  0  0  0  0  0  0
  -17.7110  -30.6220   24.1430 C   0  0  0  0  0  3  0  0  0  0  0  0
  -16.5830  -29.9020   23.7110 C   0  0  0  0  0  3  0  0  0  0  0  0
  -16.7470  -28.6700   23.0550 C   0  0  0  0  0  3  0  0  0  0  0  0
  -25.8490  -32.5190   23.8660 C   0  0  0  0  0  3  0  0  0  0  0  0
  -25.5340  -33.9150   24.2000 N   0  0  0  0  0  0  0  0  0  0  0  0
  -25.8800  -34.9720   23.4520 C   0  0  0  0  0  0  0  0  0  0  0  0
  -26.5680  -34.8740   22.4320 O   0  0  0  0  0  0  0  0  0  0  0  0
  -24.9220  -34.0650   24.9880 H   0  0  0  0  0  0  0  0  0  0  0  0
  -24.1690  -36.7730   23.0610 C   0  0  0  0  0  1  0  0  0  0  0  0
  -25.3830  -36.3580   23.9070 C   0  0  0  0  0  3  0  0  0  0  0  0
  -27.4860  -37.2330   24.8240 C   0  0  0  0  0  1  0  0  0  0  0  0
  -26.4230  -37.4070   23.8380 N   0  0  0  0  0  0  0  0  0  0  0  0
  -26.0150  -38.3290   23.9710 H   0  0  0  0  0  0  0  0  0  0  0  0
  -26.3390  -31.7370   25.1470 C   0  0  1  0  0  0  0  0  0  0  0  0
  -25.2220  -31.4840   26.1870 C   0  0  0  0  0  1  0  0  0  0  0  0
  -26.9370  -30.3660   24.7560 C   0  0  0  0  0  1  0  0  0  0  0  0
  -27.4710  -32.5300   25.8430 C   0  0  0  0  0  1  0  0  0  0  0  0
  1  6  1  0
  1 47  1  0
  2  6  1  0
  2  3  2  0
  3  4  1  0
  5  4  2  0
  6  5  1  0
  7  3  1  0
  7  8  1  0
  8 17  1  0
  9 17  1  0
 10 15  1  0
 11 12  1  0
 11 10  1  0
 13 12  1  0
 13 22  1  0
 13 14  1  0
 15  9  1  0
 15 14  1  0
 16  9  2  0
 17 18  1  0
 19 20  2  0
 20 39  1  0
 21 20  1  0
 21 24  1  0
 22 23  1  0
 22 19  1  0
 23 21  2  0
 24 25  1  0
 25 26  2  0
 27 30  1  0
 27 26  1  0
 28 27  2  0
 29 28  1  0
 29 24  2  0
 30 31  1  0
 31 32  1  0
 32 33  2  0
 34 33  1  0
 34 38  1  0
 35 34  2  0
 36 31  2  0
 36 35  1  0
 37 36  1  0
 39 40  1  0
 40 43  1  0
 40 42  1  0
 41 39  2  0
 44 19  1  0
 44 45  1  0
 46 44  1  0
 47 49  1  0
 49 48  1  0
 50 52  1  0
 50 49  1  0
 51 62  2  0
 52 57  1  0
 53 61  1  0
 53 63  1  0
 54 60  1  0
 54 56  1  0
 55 61  1  0
 56 55  1  0
 57 56  2  0
 58 59  1  0
 58 52  2  0
 59 54  2  0
 60 53  1  0
 61 51  1  0
 63 65  2  0
 64 63  1  0
 66 64  1  0
 67 76  2  0
 67 72  1  0
 68 64  1  0
 68 72  1  0
 69 68  1  0
 70 71  1  0
 70 69  1  0
 71 67  1  0
 72 73  2  0
 73 74  1  0
 75 74  2  0
 76 75  1  0
 77 51  1  0
 77 78  1  0
 77 87  1  0
 78 81  1  0
 79 83  1  0
 79 78  1  0
 80 79  2  0
 83 82  1  0
 85 83  1  0
 85 86  1  0
 85 84  1  0
 87 90  1  1
 87 88  1  0
 89 87  1  0
M  ISO  4   9 100  17 100  49 101  50 101
M  END
>  <TORSDO>  (43) 
F 21

>  <SCORE>  (43) 
-13.324

>  <name>  (43) 
42

>  <ligand_id>  (43) 
42

>  <original_smiles>  (43) 
[H]c1c([H])c([H])c2c(c1[H])C([H])([H])C([H])([H])C([H])([H])C2([H])N([H])C(=O)C1([H])N(C(=O)C([H])(N([H])C(=O)C([H])(N([H])C([H])([H])[H])C([H])([H])[H])C(C([H])([H])[H])(C([H])([H])[H])C([H])([H])[H])C([H])([H])c2c([H])c(OC([H])(C([H])([H])[H])C([H])([H])C([H])([H])n3nnc(C([H])([H])C([H])([H])N([H])C(=O)N4C([H])([H])C([H])([H])C([H])([H])C([H])(n5nc(-c6c([H])c([H])c(Oc7c([H])c([H])c(F)c([H])c7F)c([H])c6[H])c(C(=O)N([H])[H])c5N([H])[H])C4([H])[H])c3[H])c([H])c([H])c2C1([H])[H]

>  <smiles>  (43) 
[H]c1c([H])c([H])c2c(c1[H])C([H])([H])C([H])([H])C([H])([H])C2([H])N([H])C(=O)C1([H])N(C(=O)C([H])(N([H])C(=O)C([H])(N([H])C([H])([H])[H])C([H])([H])[H])C(C([H])([H])[H])(C([H])([H])[H])C([H])([H])[H])C([H])([H])c2c([H])c(OC([H])(C([H])([H])[H])C([H])([H])C([H])([H])n3nnc(C([H])([H])C([H])([H])N([H])C(=O)N4C([H])([H])C([H])([H])C([H])([H])C([H])(n5nc(-c6c([H])c([H])c(Oc7c([H])c([H])c(F)c([H])c7F)c([H])c6[H])c(C(=O)N([H])[H])c5N([H])[H])C4([H])[H])c3[H])c([H])c([H])c2C1([H])[H]

$$$$
43:0:0
     RDKit          3D

100100  0  0  1  0  0  0  0  0999 V2000
  -23.9060  -24.6770   19.8460 C   0  0  0  0  0 15  0  0  0  0  0  0
  -21.2860  -26.4080   19.6680 C   0  0  0  0  0  2  0  0  0  0  0  0
  -20.6200  -27.9710   19.8040 C   0  0  0  0  0  2  0  0  0  0  0  0
  -22.5510  -27.9730   19.2590 C   0  0  0  0  0  2  0  0  0  0  0  0
  -22.7840  -26.1890   19.2260 C   0  0  0  0  0  2  0  0  0  0  0  0
  -21.6440  -28.9900   20.3660 N   0  0  0  0  0  0  0  0  0  0  0  0
  -21.7130  -28.2900   21.1080 H   0  0  0  0  0  0  0  0  0  0  0  0
  -22.0490  -29.8950   22.1260 C   0  0  0  0  0 15  0  0  0  0  0  0
  -23.7480  -29.2320   23.5230 C   0  0  0  0  0 15  0  0  0  0  0  0
  -25.5510  -28.5180   22.9180 O   0  0  0  0  0  1  0  0  0  0  0  0
  -24.6040  -31.7330   22.9100 C   0  0  0  0  0  0  0  0  0  0  0  0
  -26.3920  -27.7960   21.8500 C   0  0  0  0  0  3  0  0  0  0  0  0
  -24.1080  -29.4770   21.0720 C   0  0  0  0  0  2  0  0  0  0  0  0
  -25.7430  -28.9610   19.7040 C   0  0  0  0  0  3  0  0  0  0  0  0
  -26.2350  -30.8810   21.3050 C   0  0  0  0  0  2  0  0  0  0  0  0
  -26.6110  -29.5610   20.6540 C   0  0  0  0  0  3  0  0  0  0  0  0
  -27.3600  -28.6900   21.4290 C   0  0  0  0  0  2  0  0  0  0  0  0
  -26.0650  -26.9180   20.7460 C   0  0  0  0  0  2  0  0  0  0  0  0
  -25.7590  -27.5590   19.5430 C   0  0  0  0  0  2  0  0  0  0  0  0
  -24.5020  -29.6960   19.6160 C   0  0  0  0  0  2  0  0  0  0  0  0
  -24.8650  -30.7990   21.8260 N   0  0  0  0  0  0  0  0  0  0  0  0
  -23.4520  -32.0230   23.2910 O   0  0  0  0  0  0  0  0  0  0  0  0
  -23.3530  -27.6890   21.8290 C   0  0  0  0  0  2  0  0  0  0  0  0
  -22.0820  -27.4490   22.5800 N   0  0  0  0  0  0  0  0  0  0  0  0
  -23.9160  -26.8730   22.5000 O   0  0  0  0  0  1  0  0  0  0  0  0
  -22.2990  -26.5280   22.9510 H   0  0  0  0  0  0  0  0  0  0  0  0
  -18.0250  -28.2300   22.8550 C   0  0  0  0  0  0  0  0  0  0  0  0
  -20.6310  -27.7480   23.2480 C   0  0  0  0  0  0  0  0  0  0  0  0
  -20.1470  -26.3390   23.2160 C   0  0  0  0  0  3  0  0  0  0  0  0
  -19.0280  -25.9890   22.2200 C   0  0  0  0  0  3  0  0  0  0  0  0
  -17.8740  -26.9320   22.1000 C   0  0  0  0  0  3  0  0  0  0  0  0
  -19.3000  -28.7250   23.3360 C   0  0  0  0  0  0  0  0  0  0  0  0
  -19.1710  -29.9820   24.0230 C   0  0  0  0  0  3  0  0  0  0  0  0
  -17.9360  -30.6770   24.1640 C   0  0  0  0  0  3  0  0  0  0  0  0
  -16.7350  -30.1330   23.6890 C   0  0  0  0  0  3  0  0  0  0  0  0
  -16.7940  -28.9000   23.0360 C   0  0  0  0  0  3  0  0  0  0  0  0
  -25.7120  -32.3350   23.9030 C   0  0  0  0  0  3  0  0  0  0  0  0
  -26.0060  -31.6010   25.3040 C   0  0  1  0  0  0  0  0  0  0  0  0
  -24.7710  -31.4140   26.2330 C   0  0  0  0  0  1  0  0  0  0  0  0
  -26.7140  -30.2400   25.1190 C   0  0  0  0  0  1  0  0  0  0  0  0
  -27.0240  -32.4440   26.1250 C   0  0  0  0  0  1  0  0  0  0  0  0
  -25.3270  -33.7180   24.2270 N   0  0  0  0  0  0  0  0  0  0  0  0
  -25.7540  -34.7910   23.5540 C   0  0  0  0  0  0  0  0  0  0  0  0
  -26.5220  -34.6980   22.5940 O   0  0  0  0  0  0  0  0  0  0  0  0
  -24.6360  -33.8340   24.9540 H   0  0  0  0  0  0  0  0  0  0  0  0
  -24.0570  -36.6040   23.1190 C   0  0  0  0  0  1  0  0  0  0  0  0
  -25.2430  -36.1750   23.9980 C   0  0  0  0  0  3  0  0  0  0  0  0
  -27.3220  -37.0760   24.9540 C   0  0  0  0  0  1  0  0  0  0  0  0
  -26.2800  -37.2260   23.9440 N   0  0  0  0  0  0  0  0  0  0  0  0
  -25.8590  -38.1450   24.0560 H   0  0  0  0  0  0  0  0  0  0  0  0
  -24.6460  -22.7640   17.9900 C   0  0  0  0  0  1  0  0  0  0  0  0
  -25.2180  -23.3110   19.2990 C   0  0  0  0  0  1  0  0  0  0  0  0
  -26.3410  -21.8550   20.0320 C   0  0  0  0  0  1  0  0  0  0  0  0
  -27.2530  -22.5300   20.9730 N   0  0  0  0  0  4  0  0  0  0  0  0
  -27.9830  -23.0190   20.4880 H   0  0  0  0  0  0  0  0  0  0  0  0
  -27.6700  -21.8570   21.5910 H   0  0  0  0  0  0  0  0  0  0  0  0
  -26.7420  -23.1880   21.5340 H   0  0  0  0  0  0  0  0  0  0  0  0
  -27.2290  -20.1460   19.5580 C   0  0  0  0  0 15  0  0  0  0  0  0
  -30.2390  -15.9660   20.1830 C   0  0  0  0  0  0  0  0  0  0  0  0
  -30.7910  -13.4310   19.5250 C   0  0  0  0  0  2  0  0  0  0  0  0
  -29.9780  -12.9490   18.2910 C   0  0  0  0  0  2  0  0  0  0  0  0
  -28.5330  -12.5980   18.6940 C   0  0  0  0  0  2  0  0  0  0  0  0
  -27.9710  -13.6190   19.7120 C   0  0  0  0  0  3  0  0  0  0  0  0
  -28.9110  -13.8700   20.8830 C   0  0  0  0  0  2  0  0  0  0  0  0
  -30.0160  -14.5420   20.2340 N   0  0  0  0  0  0  0  0  0  0  0  0
  -31.4900  -16.0950   20.1040 O   0  0  0  0  0  0  0  0  0  0  0  0
  -29.5950  -18.9030   19.0390 C   0  0  0  0  0  3  0  0  0  0  0  0
  -29.2250  -17.5330   18.5430 C   0  0  0  0  0  2  0  0  0  0  0  0
  -28.6200  -18.8550   20.1590 C   0  0  0  0  0  2  0  0  0  0  0  0
  -30.5080  -19.7000   18.7280 N   0  0  0  0  0  2  0  0  0  0  0  0
  -29.1430  -17.1080   19.9570 N   0  0  0  0  0  0  0  0  0  0  0  0
  -30.4240  -20.0080   17.7640 H   0  0  0  0  0  0  0  0  0  0  0  0
  -25.6620  -14.2380   20.4900 C   0  0  0  0  0  0  0  0  0  0  0  0
  -24.5780  -13.4810   20.8210 C   0  0  0  0  0  0  0  0  0  0  0  0
  -25.0040  -12.1190   20.7410 C   0  0  0  0  0  0  0  0  0  0  0  0
  -26.6550  -13.3250   20.1950 N   0  0  0  0  0  0  0  0  0  0  0  0
  -26.2890  -12.0460   20.4280 N   0  0  0  0  0  0  0  0  0  0  0  0
  -24.2450  -10.8750   20.8710 C   0  0  0  0  0  0  0  0  0  0  0  0
  -24.6010   -9.8870   21.8130 C   0  0  0  0  0  3  0  0  0  0  0  0
  -23.8400   -8.7050   21.9290 C   0  0  0  0  0  3  0  0  0  0  0  0
  -22.7110   -8.5090   21.0990 C   0  0  0  0  0  0  0  0  0  0  0  0
  -22.3780   -9.4830   20.1410 C   0  0  0  0  0  3  0  0  0  0  0  0
  -23.1410  -10.6560   20.0230 C   0  0  0  0  0  3  0  0  0  0  0  0
  -21.9250   -7.3830   21.1230 O   0  0  0  0  0  0  0  0  0  0  0  0
  -21.7160   -6.6780   22.2810 C   0  0  0  0  0  0  0  0  0  0  0  0
  -21.1480   -7.2760   23.4270 C   0  0  0  0  0  3  0  0  0  0  0  0
  -20.8910   -6.4980   24.5730 C   0  0  0  0  0  3  0  0  0  0  0  0
  -21.1900   -5.1220   24.5710 C   0  0  0  0  0  0  0  0  0  0  0  0
  -21.7550   -4.5250   23.4310 C   0  0  0  0  0  3  0  0  0  0  0  0
  -22.0140   -5.3010   22.2870 C   0  0  0  0  0  0  0  0  0  0  0  0
  -22.5370   -4.7160   21.1830 F   0  0  0  0  0  0  0  0  0  0  0  0
  -20.9360   -4.3730   25.6690 F   0  0  0  0  0  0  0  0  0  0  0  0
  -23.1960  -13.9940   21.0950 C   0  0  0  0  0  0  0  0  0  0  0  0
  -22.4400  -13.2900   21.9260 N   0  0  0  0  0  0  0  0  0  0  0  0
  -22.8030  -15.0510   20.6020 O   0  0  0  0  0  0  0  0  0  0  0  0
  -22.7790  -12.4340   22.3410 H   0  0  0  0  0  0  0  0  0  0  0  0
  -21.5070  -13.6060   22.1510 H   0  0  0  0  0  0  0  0  0  0  0  0
  -25.8860  -15.6100   20.3850 N   0  0  0  0  0  0  0  0  0  0  0  0
  -25.1580  -16.2930   20.5580 H   0  0  0  0  0  0  0  0  0  0  0  0
  -26.7740  -16.0290   20.1370 H   0  0  0  0  0  0  0  0  0  0  0  0
  2  3  1  0
  3  6  1  0
  4  6  1  0
  5  4  1  0
  5  2  1  0
  6  7  1  0
 11 22  2  0
 12 10  1  0
 13 21  1  0
 14 19  1  0
 14 16  1  0
 15 21  1  0
 16 15  1  0
 16 17  1  0
 17 12  1  0
 18 12  1  0
 19 18  1  0
 20 14  1  0
 20 13  1  0
 21 11  1  0
 23 25  1  0
 23 24  1  0
 24 26  1  0
 24 28  1  0
 27 36  2  0
 27 32  1  0
 28 32  1  0
 29 28  2  0
 30 29  1  0
 31 30  2  0
 31 27  1  0
 32 33  2  0
 33 34  1  0
 35 34  2  0
 36 35  1  0
 37 11  1  0
 37 42  1  0
 37 38  1  0
 38 41  1  1
 38 39  1  0
 40 38  1  0
 42 45  1  0
 43 47  1  0
 43 42  1  0
 44 43  2  0
 47 46  1  0
 49 47  1  0
 49 50  1  0
 49 48  1  0
 51 52  1  0
 53 54  1  0
 54 57  1  0
 54 56  1  0
 55 54  1  0
 59 65  1  0
 60 65  1  0
 61 62  1  0
 61 60  1  0
 63 62  1  0
 63 76  1  0
 63 64  1  0
 65 64  1  0
 66 59  2  0
 67 70  1  0
 67 69  1  0
 68 67  1  0
 68 71  1  0
 71 69  1  0
 71 59  1  0
 72 70  1  0
 73 74  2  0
 74 93  1  0
 75 74  1  0
 75 78  1  0
 76 77  1  0
 76 73  1  0
 77 75  2  0
 78 79  1  0
 79 80  2  0
 81 84  1  0
 81 80  1  0
 82 81  2  0
 83 82  1  0
 83 78  2  0
 84 85  1  0
 85 90  2  0
 85 86  1  0
 86 87  2  0
 88 87  1  0
 88 92  1  0
 89 88  2  0
 90 89  1  0
 91 90  1  0
 93 94  1  0
 94 97  1  0
 94 96  1  0
 95 93  2  0
 98 73  1  0
 98 99  1  0
100 98  1  0
M  ISO  4   9 101  10 101  59 100  71 100
M  END
>  <TORSDO>  (44) 
F 23

>  <SCORE>  (44) 
-15.274

>  <name>  (44) 
43

>  <ligand_id>  (44) 
43

>  <original_smiles>  (44) 
[H]N=C1C([H])([H])N(C(=O)N2C([H])([H])C([H])([H])C([H])([H])C([H])(n3nc(-c4c([H])c([H])c(Oc5c([H])c([H])c(F)c([H])c5F)c([H])c4[H])c(C(=O)N([H])[H])c3N([H])[H])C2([H])[H])C1([H])C([H])([H])C([H])(C([H])(C([H])([H])[H])C([H])([H])C1([H])C([H])([H])C([H])([H])[N+]([H])(C([H])([H])C([H])([H])Oc2c([H])c([H])c3c(c2[H])C([H])([H])N(C(=O)C([H])(N([H])C(=O)C([H])(N([H])C([H])([H])[H])C([H])([H])[H])C(C([H])([H])[H])(C([H])([H])[H])C([H])([H])[H])C([H])(C(=O)N([H])C2([H])c4c([H])c([H])c([H])c([H])c4C([H])([H])C([H])([H])C2([H])[H])C3([H])[H])C1([H])[H])[N+]([H])([H])[H]

>  <smiles>  (44) 
[H]N=C1C([H])([H])N(C(=O)N2C([H])([H])C([H])([H])C([H])([H])C([H])(n3nc(-c4c([H])c([H])c(Oc5c([H])c([H])c(F)c([H])c5F)c([H])c4[H])c(C(=O)N([H])[H])c3N([H])[H])C2([H])[H])C1([H])C([H])([H])C([H])(C([H])(C([H])([H])[H])C([H])([H])C1([H])C([H])([H])C([H])([H])[N+]([H])(C([H])([H])C([H])([H])Oc2c([H])c([H])c3c(c2[H])C([H])([H])N(C(=O)C([H])(N([H])C(=O)C([H])(N([H])C([H])([H])[H])C([H])([H])[H])C(C([H])([H])[H])(C([H])([H])[H])C([H])([H])[H])C([H])(C(=O)N([H])C2([H])c4c([H])c([H])c([H])c([H])c4C([H])([H])C([H])([H])C2([H])[H])C3([H])[H])C1([H])[H])[N+]([H])([H])[H]

$$$$
44:0:0
     RDKit          3D

 91 99  0  0  1  0  0  0  0  0999 V2000
  -28.9530  -20.3750   21.3020 C   0  0  0  0  0  2  0  0  0  0  0  0
  -29.3310  -19.0110   20.6760 C   0  0  0  0  0  0  0  0  0  0  0  0
  -29.1480  -18.7790   19.4400 N   0  0  0  0  0  0  0  0  0  0  0  0
  -29.4080  -17.8320   19.1810 H   0  0  0  0  0  0  0  0  0  0  0  0
  -30.5500  -16.6830   21.0700 C   0  0  0  0  0  3  0  0  0  0  0  0
  -31.3130  -18.3020   22.1540 C   0  0  0  0  0  0  0  0  0  0  0  0
  -31.9740  -17.1450   21.3600 C   0  0  0  0  0  2  0  0  0  0  0  0
  -29.8740  -17.9460   21.6600 C   0  0  0  0  0  3  0  0  0  0  0  0
  -30.0850  -15.5140   20.9550 N   0  0  0  0  0  2  0  0  0  0  0  0
  -31.7730  -19.1690   22.9050 O   0  0  0  0  0  0  0  0  0  0  0  0
  -30.7200  -14.5730   20.1390 C   0  0  0  0  0  0  0  0  0  0  0  0
  -30.3700  -12.4580   18.9000 C   0  0  0  0  0  2  0  0  0  0  0  0
  -29.3480  -12.6930   17.7690 C   0  0  0  0  0  2  0  0  0  0  0  0
  -27.9050  -12.5250   18.2810 C   0  0  0  0  0  2  0  0  0  0  0  0
  -27.6430  -13.3180   19.5910 C   0  0  0  0  0  3  0  0  0  0  0  0
  -28.7620  -13.0500   20.6190 C   0  0  0  0  0  2  0  0  0  0  0  0
  -30.0490  -13.3950   19.9920 N   0  0  0  0  0  0  0  0  0  0  0  0
  -31.7710  -14.7830   19.5290 O   0  0  0  0  0  0  0  0  0  0  0  0
  -25.2860  -13.8920   20.4510 C   0  0  0  0  0  0  0  0  0  0  0  0
  -24.2440  -13.1030   20.8610 C   0  0  0  0  0  0  0  0  0  0  0  0
  -24.7090  -11.7550   20.7690 C   0  0  0  0  0  0  0  0  0  0  0  0
  -26.3200  -13.0250   20.1390 N   0  0  0  0  0  0  0  0  0  0  0  0
  -25.9790  -11.7330   20.3850 N   0  0  0  0  0  0  0  0  0  0  0  0
  -24.0020  -10.4850   20.9730 C   0  0  0  0  0  0  0  0  0  0  0  0
  -24.4610   -9.5240   21.9010 C   0  0  0  0  0  3  0  0  0  0  0  0
  -23.7540   -8.3160   22.0900 C   0  0  0  0  0  3  0  0  0  0  0  0
  -22.5740   -8.0630   21.3510 C   0  0  0  0  0  0  0  0  0  0  0  0
  -22.1350   -9.0120   20.4110 C   0  0  0  0  0  3  0  0  0  0  0  0
  -22.8420  -10.2110   20.2220 C   0  0  0  0  0  3  0  0  0  0  0  0
  -21.8380   -6.9050   21.4490 O   0  0  0  0  0  0  0  0  0  0  0  0
  -21.7760   -6.1890   22.6170 C   0  0  0  0  0  0  0  0  0  0  0  0
  -21.3050   -6.7610   23.8200 C   0  0  0  0  0  3  0  0  0  0  0  0
  -21.1930   -5.9700   24.9790 C   0  0  0  0  0  3  0  0  0  0  0  0
  -21.5410   -4.6060   24.9380 C   0  0  0  0  0  0  0  0  0  0  0  0
  -22.0060   -4.0330   23.7410 C   0  0  0  0  0  3  0  0  0  0  0  0
  -22.1190   -4.8220   22.5830 C   0  0  0  0  0  0  0  0  0  0  0  0
  -22.5470   -4.2600   21.4270 F   0  0  0  0  0  0  0  0  0  0  0  0
  -21.4260   -3.8430   26.0510 F   0  0  0  0  0  0  0  0  0  0  0  0
  -22.8630  -13.5650   21.2290 C   0  0  0  0  0  0  0  0  0  0  0  0
  -22.1920  -12.8360   22.1160 N   0  0  0  0  0  0  0  0  0  0  0  0
  -22.3900  -14.6020   20.7680 O   0  0  0  0  0  0  0  0  0  0  0  0
  -22.5870  -11.9960   22.5080 H   0  0  0  0  0  0  0  0  0  0  0  0
  -21.2700  -13.1270   22.4110 H   0  0  0  0  0  0  0  0  0  0  0  0
  -25.4340  -15.2680   20.3010 N   0  0  0  0  0  0  0  0  0  0  0  0
  -24.6760  -15.9190   20.4800 H   0  0  0  0  0  0  0  0  0  0  0  0
  -26.2730  -15.7200   19.9610 H   0  0  0  0  0  0  0  0  0  0  0  0
  -28.8230  -21.5860   20.3250 C   0  0  0  0  0  2  0  0  0  0  0  0
  -28.5630  -22.9500   21.0350 C   0  0  0  0  0  2  0  0  0  0  0  0
  -28.4710  -24.2020   20.1120 C   0  0  0  0  0  2  0  0  0  0  0  0
  -28.3940  -25.5430   20.9020 C   0  0  0  0  0  2  0  0  0  0  0  0
  -28.4140  -26.7440   20.1010 O   0  0  0  0  0  0  0  0  0  0  0  0
  -24.6320  -31.9460   23.2220 C   0  0  0  0  0  0  0  0  0  0  0  0
  -27.2570  -27.4940   20.1290 C   0  0  0  0  0  0  0  0  0  0  0  0
  -23.4120  -30.5270   21.6060 C   0  0  0  0  0  3  0  0  0  0  0  0
  -24.8560  -28.9900   20.1690 C   0  0  0  0  0  0  0  0  0  0  0  0
  -25.9340  -30.9000   21.3700 C   0  0  0  0  0  2  0  0  0  0  0  0
  -26.0220  -29.5260   20.7320 C   0  0  0  0  0  0  0  0  0  0  0  0
  -27.2300  -28.7870   20.7050 C   0  0  0  0  0  3  0  0  0  0  0  0
  -26.0770  -26.9730   19.5620 C   0  0  0  0  0  3  0  0  0  0  0  0
  -24.8770  -27.7110   19.5840 C   0  0  0  0  0  3  0  0  0  0  0  0
  -23.6060  -29.8410   20.2280 C   0  0  0  0  0  2  0  0  0  0  0  0
  -24.6790  -31.1400   22.1240 N   0  0  0  0  0  0  0  0  0  0  0  0
  -23.5570  -32.2140   23.7760 O   0  0  0  0  0  0  0  0  0  0  0  0
  -22.7790  -29.5080   22.5800 C   0  0  0  0  0  0  0  0  0  0  0  0
  -21.4580  -29.3010   22.4580 N   0  0  0  0  0  0  0  0  0  0  0  0
  -23.4750  -28.9050   23.4010 O   0  0  0  0  0  0  0  0  0  0  0  0
  -20.9540  -29.8410   21.7680 H   0  0  0  0  0  0  0  0  0  0  0  0
  -18.1120  -28.0380   22.9580 C   0  0  0  0  0  0  0  0  0  0  0  0
  -20.6600  -28.3590   23.2430 C   0  0  0  0  0  3  0  0  0  0  0  0
  -20.7990  -26.9190   22.6940 C   0  0  0  0  0  2  0  0  0  0  0  0
  -19.7130  -26.5550   21.6770 C   0  0  0  0  0  2  0  0  0  0  0  0
  -18.3230  -26.6800   22.3080 C   0  0  0  0  0  2  0  0  0  0  0  0
  -19.2090  -28.8320   23.3820 C   0  0  0  0  0  0  0  0  0  0  0  0
  -18.9570  -30.1020   23.9490 C   0  0  0  0  0  3  0  0  0  0  0  0
  -17.6400  -30.5760   24.0960 C   0  0  0  0  0  3  0  0  0  0  0  0
  -16.5560  -29.7790   23.6890 C   0  0  0  0  0  3  0  0  0  0  0  0
  -16.7940  -28.5120   23.1250 C   0  0  0  0  0  3  0  0  0  0  0  0
  -25.9240  -32.5860   23.8210 C   0  0  0  0  0  3  0  0  0  0  0  0
  -25.6140  -33.9820   24.1580 N   0  0  0  0  0  0  0  0  0  0  0  0
  -25.9330  -35.0350   23.3950 C   0  0  0  0  0  0  0  0  0  0  0  0
  -26.5900  -34.9350   22.3560 O   0  0  0  0  0  0  0  0  0  0  0  0
  -25.0270  -34.1330   24.9640 H   0  0  0  0  0  0  0  0  0  0  0  0
  -24.1950  -36.8200   23.0560 C   0  0  0  0  0  1  0  0  0  0  0  0
  -25.4440  -36.4210   23.8590 C   0  0  0  0  0  3  0  0  0  0  0  0
  -27.5820  -37.3140   24.6700 C   0  0  0  0  0  1  0  0  0  0  0  0
  -26.4700  -37.4790   23.7380 N   0  0  0  0  0  0  0  0  0  0  0  0
  -26.0610  -38.3970   23.8910 H   0  0  0  0  0  0  0  0  0  0  0  0
  -26.4690  -31.8150   25.0850 C   0  0  1  0  0  0  0  0  0  0  0  0
  -25.3930  -31.5640   26.1660 C   0  0  0  0  0  1  0  0  0  0  0  0
  -27.0590  -30.4440   24.6770 C   0  0  0  0  0  1  0  0  0  0  0  0
  -27.6210  -32.6180   25.7340 C   0  0  0  0  0  1  0  0  0  0  0  0
  2  1  1  0
  3  2  2  0
  4  3  1  0
  5  9  1  0
  5  7  1  0
  5  8  1  0
  6 10  2  0
  7  6  1  0
  8  2  1  0
  8  6  1  0
 11  9  1  0
 12 17  1  0
 13 14  1  0
 13 12  1  0
 15 14  1  0
 15 22  1  0
 15 16  1  0
 17 11  1  0
 17 16  1  0
 18 11  2  0
 19 20  2  0
 20 39  1  0
 21 20  1  0
 21 24  1  0
 22 23  1  0
 22 19  1  0
 23 21  2  0
 24 25  1  0
 25 26  2  0
 27 30  1  0
 27 26  1  0
 28 27  2  0
 29 28  1  0
 29 24  2  0
 30 31  1  0
 31 32  1  0
 32 33  2  0
 34 33  1  0
 34 38  1  0
 35 34  2  0
 36 31  2  0
 36 35  1  0
 37 36  1  0
 39 40  1  0
 40 43  1  0
 40 42  1  0
 41 39  2  0
 44 19  1  0
 44 45  1  0
 46 44  1  0
 47 48  1  0
 47  1  1  0
 49 50  1  0
 49 48  1  0
 51 53  1  0
 51 50  1  0
 52 63  2  0
 53 58  1  0
 54 62  1  0
 54 64  1  0
 55 61  1  0
 55 57  1  0
 56 62  1  0
 57 56  1  0
 58 57  2  0
 59 60  1  0
 59 53  2  0
 60 55  2  0
 61 54  1  0
 62 52  1  0
 64 66  2  0
 65 64  1  0
 67 65  1  0
 68 77  2  0
 68 73  1  0
 69 65  1  0
 69 73  1  0
 70 69  1  0
 71 72  1  0
 71 70  1  0
 72 68  1  0
 73 74  2  0
 74 75  1  0
 76 75  2  0
 77 76  1  0
 78 52  1  0
 78 79  1  0
 78 88  1  0
 79 82  1  0
 80 84  1  0
 80 79  1  0
 81 80  2  0
 84 83  1  0
 86 84  1  0
 86 87  1  0
 86 85  1  0
 88 91  1  1
 88 89  1  0
 90 88  1  0
M  ISO  4   9 100  11 100  50 101  51 101
M  END
>  <TORSDO>  (45) 
F 22

>  <SCORE>  (45) 
-12.271

>  <name>  (45) 
44

>  <ligand_id>  (45) 
44

>  <original_smiles>  (45) 
[H]N=C(C1([H])C(=O)C([H])([H])C1=NC(=O)N1C([H])([H])C([H])([H])C([H])([H])C([H])(n2nc(-c3c([H])c([H])c(Oc4c([H])c([H])c(F)c([H])c4F)c([H])c3[H])c(C(=O)N([H])[H])c2N([H])[H])C1([H])[H])C([H])([H])C([H])([H])C([H])([H])C([H])([H])C([H])([H])Oc1c([H])c([H])c2c(c1[H])C([H])([H])N(C(=O)C([H])(N([H])C(=O)C([H])(N([H])C([H])([H])[H])C([H])([H])[H])C(C([H])([H])[H])(C([H])([H])[H])C([H])([H])[H])C([H])(C(=O)N([H])C1([H])c3c([H])c([H])c([H])c([H])c3C([H])([H])C([H])([H])C1([H])[H])C2([H])[H]

>  <smiles>  (45) 
[H]N=C(C1([H])C(=O)C([H])([H])C1=NC(=O)N1C([H])([H])C([H])([H])C([H])([H])C([H])(n2nc(-c3c([H])c([H])c(Oc4c([H])c([H])c(F)c([H])c4F)c([H])c3[H])c(C(=O)N([H])[H])c2N([H])[H])C1([H])[H])C([H])([H])C([H])([H])C([H])([H])C([H])([H])C([H])([H])Oc1c([H])c([H])c2c(c1[H])C([H])([H])N(C(=O)C([H])(N([H])C(=O)C([H])(N([H])C([H])([H])[H])C([H])([H])[H])C(C([H])([H])[H])(C([H])([H])[H])C([H])([H])[H])C([H])(C(=O)N([H])C1([H])c3c([H])c([H])c([H])c([H])c3C([H])([H])C([H])([H])C1([H])[H])C2([H])[H]

$$$$
45:0:0
     RDKit          3D

 95103  0  0  1  0  0  0  0  0999 V2000
  -27.8110  -20.2390   18.1910 C   0  0  0  0  0  3  0  0  0  0  0  0
  -27.9690  -21.5460   18.6970 C   0  0  0  0  0  3  0  0  0  0  0  0
  -28.4860  -19.1350   18.7570 C   0  0  0  0  0  3  0  0  0  0  0  0
  -28.8140  -21.8020   19.7900 C   0  0  0  0  0  0  0  0  0  0  0  0
  -29.3690  -19.3030   19.8380 C   0  0  0  0  0  0  0  0  0  0  0  0
  -29.5000  -20.6540   20.3200 N   0  0  0  0  0  0  0  0  0  0  0  0
  -29.0130  -23.3950   20.2510 C   0  0  0  0  0  3  0  0  0  0  0  0
  -28.0070  -24.7230   19.8600 C   0  0  0  0  0  3  0  0  0  0  0  0
  -28.2270  -26.2660   20.1080 O   0  0  0  0  0  0  0  0  0  0  0  0
  -24.5790  -31.9380   23.2080 C   0  0  0  0  0  0  0  0  0  0  0  0
  -27.1630  -27.2550   20.0680 C   0  0  0  0  0  0  0  0  0  0  0  0
  -23.3680  -30.5410   21.5710 C   0  0  0  0  0  3  0  0  0  0  0  0
  -24.8120  -28.9890   20.1070 C   0  0  0  0  0  0  0  0  0  0  0  0
  -25.9210  -30.8270   21.3760 C   0  0  0  0  0  2  0  0  0  0  0  0
  -25.9980  -29.4370   20.7070 C   0  0  0  0  0  0  0  0  0  0  0  0
  -27.1670  -28.5820   20.6750 C   0  0  0  0  0  3  0  0  0  0  0  0
  -25.9530  -26.9280   19.4180 C   0  0  0  0  0  3  0  0  0  0  0  0
  -24.8050  -27.7500   19.4470 C   0  0  0  0  0  3  0  0  0  0  0  0
  -23.5770  -29.8720   20.1860 C   0  0  0  0  0  2  0  0  0  0  0  0
  -24.6430  -31.1300   22.1030 N   0  0  0  0  0  0  0  0  0  0  0  0
  -23.4990  -32.2010   23.7580 O   0  0  0  0  0  0  0  0  0  0  0  0
  -22.7140  -29.5250   22.5420 C   0  0  0  0  0  0  0  0  0  0  0  0
  -21.3860  -29.3350   22.4280 N   0  0  0  0  0  0  0  0  0  0  0  0
  -23.4000  -28.9120   23.3610 O   0  0  0  0  0  0  0  0  0  0  0  0
  -20.8910  -29.8830   21.7380 H   0  0  0  0  0  0  0  0  0  0  0  0
  -18.0280  -28.0600   22.9490 C   0  0  0  0  0  0  0  0  0  0  0  0
  -20.5830  -28.3810   23.2040 C   0  0  0  0  0  3  0  0  0  0  0  0
  -20.7150  -26.9520   22.6280 C   0  0  0  0  0  2  0  0  0  0  0  0
  -19.6150  -26.6050   21.6200 C   0  0  0  0  0  2  0  0  0  0  0  0
  -18.2330  -26.7160   22.2710 C   0  0  0  0  0  2  0  0  0  0  0  0
  -19.1320  -28.8490   23.3720 C   0  0  0  0  0  0  0  0  0  0  0  0
  -18.8840  -30.1030   23.9710 C   0  0  0  0  0  3  0  0  0  0  0  0
  -17.5680  -30.5710   24.1480 C   0  0  0  0  0  3  0  0  0  0  0  0
  -16.4810  -29.7820   23.7390 C   0  0  0  0  0  3  0  0  0  0  0  0
  -16.7110  -28.5270   23.1460 C   0  0  0  0  0  3  0  0  0  0  0  0
  -25.8580  -32.5830   23.8260 C   0  0  0  0  0  3  0  0  0  0  0  0
  -26.3810  -31.8220   25.1070 C   0  0  1  0  0  0  0  0  0  0  0  0
  -25.2950  -31.5870   26.1810 C   0  0  0  0  0  1  0  0  0  0  0  0
  -26.9660  -30.4440   24.7310 C   0  0  0  0  0  1  0  0  0  0  0  0
  -27.5380  -32.6210   25.7510 C   0  0  0  0  0  1  0  0  0  0  0  0
  -25.5440  -33.9830   24.1550 N   0  0  0  0  0  0  0  0  0  0  0  0
  -25.8830  -35.0410   23.4070 C   0  0  0  0  0  0  0  0  0  0  0  0
  -26.5550  -34.9400   22.3790 O   0  0  0  0  0  0  0  0  0  0  0  0
  -24.9510  -34.1340   24.9590 H   0  0  0  0  0  0  0  0  0  0  0  0
  -24.1810  -36.8570   23.0320 C   0  0  0  0  0  1  0  0  0  0  0  0
  -25.4000  -36.4340   23.8680 C   0  0  0  0  0  3  0  0  0  0  0  0
  -27.5230  -37.2900   24.7540 C   0  0  0  0  0  1  0  0  0  0  0  0
  -26.4460  -37.4760   23.7870 N   0  0  0  0  0  0  0  0  0  0  0  0
  -26.0500  -38.4020   23.9250 H   0  0  0  0  0  0  0  0  0  0  0  0
  -30.3050  -17.9730   20.2490 C   0  0  0  0  0  0  0  0  0  0  0  0
  -30.6150  -15.2150   20.2920 C   0  0  0  0  0  0  0  0  0  0  0  0
  -30.5280  -12.8190   19.4440 C   0  0  0  0  0  2  0  0  0  0  0  0
  -29.6070  -12.7060   18.2050 C   0  0  0  0  0  2  0  0  0  0  0  0
  -28.1480  -12.4770   18.6360 C   0  0  0  0  0  2  0  0  0  0  0  0
  -27.7140  -13.4200   19.7900 C   0  0  0  0  0  3  0  0  0  0  0  0
  -28.7680  -13.5160   20.9130 C   0  0  0  0  0  2  0  0  0  0  0  0
  -30.0230  -13.9470   20.2840 N   0  0  0  0  0  0  0  0  0  0  0  0
  -31.8270  -15.2460   20.0570 O   0  0  0  0  0  0  0  0  0  0  0  0
  -29.8660  -16.4380   20.3560 N   0  0  0  0  0  4  0  0  0  0  0  0
  -28.8740  -16.3100   20.4840 H   0  0  0  0  0  0  0  0  0  0  0  0
  -25.3380  -13.9600   20.5570 C   0  0  0  0  0  0  0  0  0  0  0  0
  -24.2810  -13.1730   20.9200 C   0  0  0  0  0  0  0  0  0  0  0  0
  -24.7560  -11.8270   20.8650 C   0  0  0  0  0  0  0  0  0  0  0  0
  -26.3860  -13.0960   20.2980 N   0  0  0  0  0  0  0  0  0  0  0  0
  -26.0480  -11.8050   20.5530 N   0  0  0  0  0  0  0  0  0  0  0  0
  -24.0390  -10.5550   21.0380 C   0  0  0  0  0  0  0  0  0  0  0  0
  -24.4570   -9.5920   21.9830 C   0  0  0  0  0  3  0  0  0  0  0  0
  -23.7380   -8.3870   22.1440 C   0  0  0  0  0  3  0  0  0  0  0  0
  -22.5860   -8.1370   21.3610 C   0  0  0  0  0  0  0  0  0  0  0  0
  -22.1900   -9.0880   20.4030 C   0  0  0  0  0  3  0  0  0  0  0  0
  -22.9100  -10.2840   20.2410 C   0  0  0  0  0  3  0  0  0  0  0  0
  -21.8410   -6.9840   21.4290 O   0  0  0  0  0  0  0  0  0  0  0  0
  -21.7290   -6.2700   22.5950 C   0  0  0  0  0  0  0  0  0  0  0  0
  -21.1680   -6.8310   23.7620 C   0  0  0  0  0  3  0  0  0  0  0  0
  -21.0090   -6.0400   24.9160 C   0  0  0  0  0  3  0  0  0  0  0  0
  -21.3980   -4.6870   24.9030 C   0  0  0  0  0  0  0  0  0  0  0  0
  -21.9500   -4.1240   23.7390 C   0  0  0  0  0  3  0  0  0  0  0  0
  -22.1100   -4.9140   22.5870 C   0  0  0  0  0  0  0  0  0  0  0  0
  -22.6240   -4.3600   21.4610 F   0  0  0  0  0  0  0  0  0  0  0  0
  -21.2380   -3.9230   26.0090 F   0  0  0  0  0  0  0  0  0  0  0  0
  -22.8790  -13.6330   21.1960 C   0  0  0  0  0  0  0  0  0  0  0  0
  -22.1580  -12.9190   22.0530 N   0  0  0  0  0  0  0  0  0  0  0  0
  -22.4350  -14.6640   20.6910 O   0  0  0  0  0  0  0  0  0  0  0  0
  -22.5300  -12.0860   22.4840 H   0  0  0  0  0  0  0  0  0  0  0  0
  -21.2170  -13.2070   22.2810 H   0  0  0  0  0  0  0  0  0  0  0  0
  -25.4850  -15.3360   20.3970 N   0  0  0  0  0  0  0  0  0  0  0  0
  -24.7080  -15.9760   20.5150 H   0  0  0  0  0  0  0  0  0  0  0  0
  -26.3190  -15.7870   20.0440 H   0  0  0  0  0  0  0  0  0  0  0  0
  -31.2900  -18.3170   21.3910 C   0  0  0  0  0  2  0  0  0  0  0  0
  -32.3330  -19.3800   20.9870 C   0  0  0  0  0  2  0  0  0  0  0  0
  -33.2470  -19.7780   22.1530 C   0  0  0  0  0  2  0  0  0  0  0  0
  -34.1800  -20.8560   21.7800 N   0  0  0  0  0  4  0  0  0  0  0  0
  -34.7400  -20.5960   20.9890 H   0  0  0  0  0  0  0  0  0  0  0  0
  -34.7950  -21.0560   22.5490 H   0  0  0  0  0  0  0  0  0  0  0  0
  -33.6830  -21.6990   21.5600 H   0  0  0  0  0  0  0  0  0  0  0  0
  1  2  2  0
  1  3  1  0
  2  4  1  0
  3  5  2  0
  4  7  1  0
  4  6  2  0
  5 50  1  0
  5  6  1  0
  8  9  1  0
  8  7  2  0
 10 21  2  0
 11  9  1  0
 11 16  1  0
 12 20  1  0
 12 22  1  0
 13 19  1  0
 13 15  1  0
 14 20  1  0
 15 14  1  0
 16 15  2  0
 17 18  1  0
 17 11  2  0
 18 13  2  0
 19 12  1  0
 20 10  1  0
 22 24  2  0
 23 22  1  0
 25 23  1  0
 26 35  2  0
 26 31  1  0
 27 23  1  0
 27 31  1  0
 28 27  1  0
 29 30  1  0
 29 28  1  0
 30 26  1  0
 31 32  2  0
 32 33  1  0
 34 33  2  0
 35 34  1  0
 36 10  1  0
 36 41  1  0
 36 37  1  0
 37 40  1  1
 37 38  1  0
 39 37  1  0
 41 44  1  0
 42 46  1  0
 42 41  1  0
 43 42  2  0
 46 45  1  0
 48 46  1  0
 48 49  1  0
 48 47  1  0
 50 59  2  0
 50 89  1  0
 51 59  1  0
 52 57  1  0
 53 54  1  0
 53 52  1  0
 55 54  1  0
 55 64  1  0
 55 56  1  0
 57 51  1  0
 57 56  1  0
 58 51  2  0
 59 60  1  0
 61 62  2  0
 62 81  1  0
 63 62  1  0
 63 66  1  0
 64 65  1  0
 64 61  1  0
 65 63  2  0
 66 67  1  0
 67 68  2  0
 69 72  1  0
 69 68  1  0
 70 69  2  0
 71 70  1  0
 71 66  2  0
 72 73  1  0
 73 74  1  0
 74 75  2  0
 76 75  1  0
 76 80  1  0
 77 76  2  0
 78 73  2  0
 78 77  1  0
 79 78  1  0
 81 82  1  0
 82 85  1  0
 82 84  1  0
 83 81  2  0
 86 87  1  0
 86 61  1  0
 88 86  1  0
 90 89  1  0
 90 91  1  0
 92 91  1  0
 92 94  1  0
 93 92  1  0
 95 92  1  0
M  ISO  4   8 101   9 101  51 100  59 100
M  END
>  <TORSDO>  (46) 
F 23

>  <SCORE>  (46) 
-13.975

>  <name>  (46) 
45

>  <ligand_id>  (46) 
45

>  <original_smiles>  (46) 
[H]c1c(C([H])([H])C([H])([H])Oc2c([H])c([H])c3c(c2[H])C([H])([H])N(C(=O)C([H])(N([H])C(=O)C([H])(N([H])C([H])([H])[H])C([H])([H])[H])C(C([H])([H])[H])(C([H])([H])[H])C([H])([H])[H])C([H])(C(=O)N([H])C2([H])c4c([H])c([H])c([H])c([H])c4C([H])([H])C([H])([H])C2([H])[H])C3([H])[H])nc(C([H])(N([H])C(=O)N2C([H])([H])C([H])([H])C([H])([H])C([H])(n3nc(-c4c([H])c([H])c(Oc5c([H])c([H])c(F)c([H])c5F)c([H])c4[H])c(C(=O)N([H])[H])c3N([H])[H])C2([H])[H])C([H])([H])C([H])([H])C([H])([H])[N+]([H])([H])[H])c([H])c1[H]

>  <smiles>  (46) 
[H]c1c(C([H])([H])C([H])([H])Oc2c([H])c([H])c3c(c2[H])C([H])([H])N(C(=O)C([H])(N([H])C(=O)C([H])(N([H])C([H])([H])[H])C([H])([H])[H])C(C([H])([H])[H])(C([H])([H])[H])C([H])([H])[H])C([H])(C(=O)N([H])C2([H])c4c([H])c([H])c([H])c([H])c4C([H])([H])C([H])([H])C2([H])[H])C3([H])[H])nc(C([H])(N([H])C(=O)N2C([H])([H])C([H])([H])C([H])([H])C([H])(n3nc(-c4c([H])c([H])c(Oc5c([H])c([H])c(F)c([H])c5F)c([H])c4[H])c(C(=O)N([H])[H])c3N([H])[H])C2([H])[H])C([H])([H])C([H])([H])C([H])([H])[N+]([H])([H])[H])c([H])c1[H]

$$$$
46:0:0
     RDKit          3D

 95103  0  0  1  0  0  0  0  0999 V2000
  -29.0460  -22.5480   21.8620 C   0  0  0  0  0  2  0  0  0  0  0  0
  -28.8010  -21.6300   20.6660 C   0  0  0  0  0  0  0  0  0  0  0  0
  -27.6420  -21.2880   20.4040 O   0  0  0  0  0  0  0  0  0  0  0  0
  -29.9950  -21.1030   19.8500 C   0  0  0  0  0  2  0  0  0  0  0  0
  -31.3540  -19.0380   20.5350 C   0  0  0  0  0  3  0  0  0  0  0  0
  -29.0570  -18.7430   19.7690 C   0  0  0  0  0  3  0  0  0  0  0  0
  -31.4120  -17.6620   20.8530 C   0  0  0  0  0  3  0  0  0  0  0  0
  -29.1030  -17.3890   20.1240 C   0  0  0  0  0  3  0  0  0  0  0  0
  -30.1530  -19.5960   20.0320 C   0  0  0  0  0  0  0  0  0  0  0  0
  -30.2670  -16.8440   20.6880 C   0  0  0  0  0  0  0  0  0  0  0  0
  -30.8490  -14.4890   20.5320 C   0  0  0  0  0  0  0  0  0  0  0  0
  -30.4950  -12.3620   19.3620 C   0  0  0  0  0  2  0  0  0  0  0  0
  -29.5780  -12.6220   18.1480 C   0  0  0  0  0  2  0  0  0  0  0  0
  -28.0930  -12.5040   18.5460 C   0  0  0  0  0  2  0  0  0  0  0  0
  -27.7490  -13.3030   19.8280 C   0  0  0  0  0  3  0  0  0  0  0  0
  -28.7960  -13.0700   20.9500 C   0  0  0  0  0  2  0  0  0  0  0  0
  -30.1380  -13.3380   20.4010 N   0  0  0  0  0  0  0  0  0  0  0  0
  -31.9770  -14.6490   20.0640 O   0  0  0  0  0  0  0  0  0  0  0  0
  -30.1860  -15.4940   21.1040 N   0  0  0  0  0  0  0  0  0  0  0  0
  -29.2750  -15.2000   21.4230 H   0  0  0  0  0  0  0  0  0  0  0  0
  -25.3190  -13.9120   20.4470 C   0  0  0  0  0  0  0  0  0  0  0  0
  -24.2450  -13.1410   20.8040 C   0  0  0  0  0  0  0  0  0  0  0  0
  -24.7100  -11.7940   20.8090 C   0  0  0  0  0  0  0  0  0  0  0  0
  -26.3780  -13.0310   20.2690 N   0  0  0  0  0  0  0  0  0  0  0  0
  -26.0090  -11.7530   20.5380 N   0  0  0  0  0  0  0  0  0  0  0  0
  -23.9780  -10.5350   21.0010 C   0  0  0  0  0  0  0  0  0  0  0  0
  -24.4010   -9.5840   21.9540 C   0  0  0  0  0  3  0  0  0  0  0  0
  -23.6760   -8.3870   22.1420 C   0  0  0  0  0  3  0  0  0  0  0  0
  -22.5140   -8.1330   21.3750 C   0  0  0  0  0  0  0  0  0  0  0  0
  -22.1110   -9.0730   20.4110 C   0  0  0  0  0  3  0  0  0  0  0  0
  -22.8350  -10.2620   20.2210 C   0  0  0  0  0  3  0  0  0  0  0  0
  -21.7590   -6.9870   21.4700 O   0  0  0  0  0  0  0  0  0  0  0  0
  -21.7070   -6.2510   22.6260 C   0  0  0  0  0  0  0  0  0  0  0  0
  -21.2850   -6.8120   23.8530 C   0  0  0  0  0  3  0  0  0  0  0  0
  -21.1760   -6.0030   24.9990 C   0  0  0  0  0  3  0  0  0  0  0  0
  -21.4810   -4.6300   24.9250 C   0  0  0  0  0  0  0  0  0  0  0  0
  -21.8970   -4.0670   23.7060 C   0  0  0  0  0  3  0  0  0  0  0  0
  -22.0080   -4.8740   22.5620 C   0  0  0  0  0  0  0  0  0  0  0  0
  -22.3850   -4.3200   21.3820 F   0  0  0  0  0  0  0  0  0  0  0  0
  -21.3740   -3.8530   26.0260 F   0  0  0  0  0  0  0  0  0  0  0  0
  -22.8400  -13.6170   21.0370 C   0  0  0  0  0  0  0  0  0  0  0  0
  -22.0950  -12.9310   21.9020 N   0  0  0  0  0  0  0  0  0  0  0  0
  -22.4080  -14.6340   20.4900 O   0  0  0  0  0  0  0  0  0  0  0  0
  -22.4550  -12.1130   22.3680 H   0  0  0  0  0  0  0  0  0  0  0  0
  -21.1480  -13.2290   22.0980 H   0  0  0  0  0  0  0  0  0  0  0  0
  -25.4800  -15.2810   20.2410 N   0  0  0  0  0  0  0  0  0  0  0  0
  -24.7090  -15.9350   20.3200 H   0  0  0  0  0  0  0  0  0  0  0  0
  -26.3230  -15.7180   19.8890 H   0  0  0  0  0  0  0  0  0  0  0  0
  -27.5930  -24.3040   22.9970 C   0  0  0  0  0  1  0  0  0  0  0  0
  -28.2830  -23.8870   21.6900 C   0  0  0  0  0  3  0  0  0  0  0  0
  -29.1810  -24.9910   21.1600 C   0  0  0  0  0  0  0  0  0  0  0  0
  -30.1410  -25.4490   21.8470 N   0  0  0  0  0  0  0  0  0  0  0  0
  -30.5860  -26.2250   21.3680 H   0  0  0  0  0  0  0  0  0  0  0  0
  -28.8560  -25.5650   19.7920 C   0  0  0  0  0  2  0  0  0  0  0  0
  -28.6580  -26.9660   19.9170 O   0  0  0  0  0  0  0  0  0  0  0  0
  -24.6970  -31.8590   23.2010 C   0  0  0  0  0  0  0  0  0  0  0  0
  -27.4040  -27.5170   20.0310 C   0  0  0  0  0  0  0  0  0  0  0  0
  -23.5000  -30.4480   21.5580 C   0  0  0  0  0  3  0  0  0  0  0  0
  -24.9650  -28.9310   20.1240 C   0  0  0  0  0  0  0  0  0  0  0  0
  -26.0150  -30.8560   21.3370 C   0  0  0  0  0  2  0  0  0  0  0  0
  -26.1130  -29.4900   20.6880 C   0  0  0  0  0  0  0  0  0  0  0  0
  -27.3300  -28.7860   20.6380 C   0  0  0  0  0  3  0  0  0  0  0  0
  -26.2270  -26.9490   19.4890 C   0  0  0  0  0  3  0  0  0  0  0  0
  -25.0080  -27.6570   19.5350 C   0  0  0  0  0  3  0  0  0  0  0  0
  -23.7050  -29.7600   20.1800 C   0  0  0  0  0  2  0  0  0  0  0  0
  -24.7570  -31.0720   22.0870 N   0  0  0  0  0  0  0  0  0  0  0  0
  -23.6140  -32.1040   23.7520 O   0  0  0  0  0  0  0  0  0  0  0  0
  -22.8680  -29.4140   22.5160 C   0  0  0  0  0  0  0  0  0  0  0  0
  -21.5480  -29.2110   22.3910 N   0  0  0  0  0  0  0  0  0  0  0  0
  -23.5680  -28.7940   23.3230 O   0  0  0  0  0  0  0  0  0  0  0  0
  -21.0470  -29.7710   21.7160 H   0  0  0  0  0  0  0  0  0  0  0  0
  -18.1970  -27.9610   22.8610 C   0  0  0  0  0  0  0  0  0  0  0  0
  -20.7480  -28.2480   23.1440 C   0  0  0  0  0  3  0  0  0  0  0  0
  -20.8720  -26.8250   22.5440 C   0  0  0  0  0  2  0  0  0  0  0  0
  -19.7760  -26.5100   21.5240 C   0  0  0  0  0  2  0  0  0  0  0  0
  -18.3930  -26.6250   22.1680 C   0  0  0  0  0  2  0  0  0  0  0  0
  -19.3000  -28.7330   23.3050 C   0  0  0  0  0  0  0  0  0  0  0  0
  -19.0680  -29.9910   23.9080 C   0  0  0  0  0  3  0  0  0  0  0  0
  -17.7560  -30.4700   24.0720 C   0  0  0  0  0  3  0  0  0  0  0  0
  -16.6630  -29.6960   23.6460 C   0  0  0  0  0  3  0  0  0  0  0  0
  -16.8820  -28.4440   23.0470 C   0  0  0  0  0  3  0  0  0  0  0  0
  -25.9780  -32.5040   23.8140 C   0  0  0  0  0  3  0  0  0  0  0  0
  -25.6510  -33.8950   24.1610 N   0  0  0  0  0  0  0  0  0  0  0  0
  -25.9720  -34.9570   23.4120 C   0  0  0  0  0  0  0  0  0  0  0  0
  -26.6390  -34.8730   22.3790 O   0  0  0  0  0  0  0  0  0  0  0  0
  -25.0650  -34.0420   24.9670 H   0  0  0  0  0  0  0  0  0  0  0  0
  -24.2170  -36.7290   23.0820 C   0  0  0  0  0  1  0  0  0  0  0  0
  -25.4700  -36.3360   23.8830 C   0  0  0  0  0  3  0  0  0  0  0  0
  -27.5980  -37.2360   24.7150 C   0  0  0  0  0  1  0  0  0  0  0  0
  -26.4920  -37.4040   23.7750 N   0  0  0  0  0  0  0  0  0  0  0  0
  -26.0740  -38.3170   23.9370 H   0  0  0  0  0  0  0  0  0  0  0  0
  -26.5130  -31.7300   25.0770 C   0  0  1  0  0  0  0  0  0  0  0  0
  -25.4340  -31.4660   26.1540 C   0  0  0  0  0  1  0  0  0  0  0  0
  -27.1090  -30.3650   24.6660 C   0  0  0  0  0  1  0  0  0  0  0  0
  -27.6580  -32.5340   25.7370 C   0  0  0  0  0  1  0  0  0  0  0  0
  2  1  1  0
  3  2  2  0
  4  9  1  0
  4  2  1  0
  5  7  1  0
  6  9  1  0
  6  8  2  0
  8 10  1  0
  9  5  2  0
 10  7  2  0
 10 19  1  0
 11 19  1  0
 12 17  1  0
 13 14  1  0
 13 12  1  0
 15 14  1  0
 15 24  1  0
 15 16  1  0
 17 11  1  0
 17 16  1  0
 18 11  2  0
 19 20  1  0
 21 22  2  0
 22 23  1  0
 22 41  1  0
 23 26  1  0
 24 21  1  0
 24 25  1  0
 25 23  2  0
 26 27  1  0
 27 28  2  0
 29 32  1  0
 29 28  1  0
 30 29  2  0
 31 30  1  0
 31 26  2  0
 32 33  1  0
 33 34  1  0
 34 35  2  0
 36 35  1  0
 36 40  1  0
 37 36  2  0
 38 33  2  0
 38 37  1  0
 39 38  1  0
 41 42  1  0
 42 45  1  0
 42 44  1  0
 43 41  2  0
 46 47  1  0
 46 21  1  0
 48 46  1  0
 50  1  1  0
 50 49  1  0
 51 50  1  0
 51 52  2  0
 53 52  1  0
 54 55  1  0
 54 51  1  0
 55 57  1  0
 56 67  2  0
 57 62  1  0
 58 66  1  0
 58 68  1  0
 59 65  1  0
 59 61  1  0
 60 66  1  0
 61 60  1  0
 62 61  2  0
 63 64  1  0
 63 57  2  0
 64 59  2  0
 65 58  1  0
 66 56  1  0
 68 70  2  0
 69 68  1  0
 71 69  1  0
 72 81  2  0
 72 77  1  0
 73 69  1  0
 73 77  1  0
 74 73  1  0
 75 76  1  0
 75 74  1  0
 76 72  1  0
 77 78  2  0
 78 79  1  0
 80 79  2  0
 81 80  1  0
 82 56  1  0
 82 83  1  0
 82 92  1  0
 83 86  1  0
 84 88  1  0
 84 83  1  0
 85 84  2  0
 88 87  1  0
 90 88  1  0
 90 91  1  0
 90 89  1  0
 92 95  1  1
 92 93  1  0
 94 92  1  0
M  ISO  4  11 100  19 100  54 101  55 101
M  END
>  <TORSDO>  (47) 
F 22

>  <SCORE>  (47) 
-12.744

>  <name>  (47) 
46

>  <ligand_id>  (47) 
46

>  <original_smiles>  (47) 
[H]N=C(C([H])([H])Oc1c([H])c([H])c2c(c1[H])C([H])([H])N(C(=O)C([H])(N([H])C(=O)C([H])(N([H])C([H])([H])[H])C([H])([H])[H])C(C([H])([H])[H])(C([H])([H])[H])C([H])([H])[H])C([H])(C(=O)N([H])C1([H])c3c([H])c([H])c([H])c([H])c3C([H])([H])C([H])([H])C1([H])[H])C2([H])[H])C([H])(C([H])([H])[H])C([H])([H])C(=O)C([H])([H])c1c([H])c([H])c(N([H])C(=O)N2C([H])([H])C([H])([H])C([H])([H])C([H])(n3nc(-c4c([H])c([H])c(Oc5c([H])c([H])c(F)c([H])c5F)c([H])c4[H])c(C(=O)N([H])[H])c3N([H])[H])C2([H])[H])c([H])c1[H]

>  <smiles>  (47) 
[H]N=C(C([H])([H])Oc1c([H])c([H])c2c(c1[H])C([H])([H])N(C(=O)C([H])(N([H])C(=O)C([H])(N([H])C([H])([H])[H])C([H])([H])[H])C(C([H])([H])[H])(C([H])([H])[H])C([H])([H])[H])C([H])(C(=O)N([H])C1([H])c3c([H])c([H])c([H])c([H])c3C([H])([H])C([H])([H])C1([H])[H])C2([H])[H])C([H])(C([H])([H])[H])C([H])([H])C(=O)C([H])([H])c1c([H])c([H])c(N([H])C(=O)N2C([H])([H])C([H])([H])C([H])([H])C([H])(n3nc(-c4c([H])c([H])c(Oc5c([H])c([H])c(F)c([H])c5F)c([H])c4[H])c(C(=O)N([H])[H])c3N([H])[H])C2([H])[H])c([H])c1[H]

$$$$
47:0:0
     RDKit          3D

 94102  0  0  1  0  0  0  0  0999 V2000
  -29.9690  -23.3870   19.5500 C   0  0  0  0  0  0  0  0  0  0  0  0
  -30.4340  -22.8800   18.4840 N   0  0  0  0  0  0  0  0  0  0  0  0
  -30.4210  -21.8660   18.5340 H   0  0  0  0  0  0  0  0  0  0  0  0
  -29.4820  -22.5270   20.7260 C   0  0  0  0  0  2  0  0  0  0  0  0
  -28.1700  -20.2820   20.4130 C   0  0  0  0  0  3  0  0  0  0  0  0
  -28.4820  -18.9590   20.2760 C   0  0  0  0  0  3  0  0  0  0  0  0
  -30.4030  -20.1100   20.4140 C   0  0  0  0  0  3  0  0  0  0  0  0
  -29.3830  -21.0260   20.5030 C   0  0  0  0  0  0  0  0  0  0  0  0
  -29.8590  -18.8420   20.2760 N   0  0  0  0  0  0  0  0  0  0  0  0
  -30.5850  -17.5880   20.1360 C   0  0  0  0  0  2  0  0  0  0  0  0
  -30.6680  -16.7750   21.4540 C   0  0  0  0  0  2  0  0  0  0  0  0
  -30.8400  -14.4550   20.5380 C   0  0  0  0  0  0  0  0  0  0  0  0
  -30.5030  -12.3560   19.2880 C   0  0  0  0  0  2  0  0  0  0  0  0
  -29.5760  -12.6110   18.0820 C   0  0  0  0  0  2  0  0  0  0  0  0
  -28.0960  -12.4780   18.4940 C   0  0  0  0  0  2  0  0  0  0  0  0
  -27.7590  -13.2840   19.7770 C   0  0  0  0  0  3  0  0  0  0  0  0
  -28.7990  -13.0090   20.8880 C   0  0  0  0  0  2  0  0  0  0  0  0
  -30.1400  -13.3070   20.3490 N   0  0  0  0  0  0  0  0  0  0  0  0
  -31.9170  -14.6930   19.9840 O   0  0  0  0  0  0  0  0  0  0  0  0
  -30.2400  -15.3800   21.3000 N   0  0  0  0  0  0  0  0  0  0  0  0
  -29.3750  -15.1080   21.7460 H   0  0  0  0  0  0  0  0  0  0  0  0
  -25.3410  -13.8910   20.4270 C   0  0  0  0  0  0  0  0  0  0  0  0
  -24.2680  -13.1180   20.7850 C   0  0  0  0  0  0  0  0  0  0  0  0
  -24.7340  -11.7690   20.7790 C   0  0  0  0  0  0  0  0  0  0  0  0
  -26.3940  -13.0110   20.2300 N   0  0  0  0  0  0  0  0  0  0  0  0
  -26.0300  -11.7310   20.4960 N   0  0  0  0  0  0  0  0  0  0  0  0
  -24.0090  -10.5060   20.9720 C   0  0  0  0  0  0  0  0  0  0  0  0
  -24.4280   -9.5530   21.9260 C   0  0  0  0  0  3  0  0  0  0  0  0
  -23.7030   -8.3550   22.1070 C   0  0  0  0  0  3  0  0  0  0  0  0
  -22.5470   -8.1020   21.3320 C   0  0  0  0  0  0  0  0  0  0  0  0
  -22.1480   -9.0420   20.3680 C   0  0  0  0  0  3  0  0  0  0  0  0
  -22.8720  -10.2330   20.1850 C   0  0  0  0  0  3  0  0  0  0  0  0
  -21.7970   -6.9530   21.4210 O   0  0  0  0  0  0  0  0  0  0  0  0
  -21.7280   -6.2260   22.5810 C   0  0  0  0  0  0  0  0  0  0  0  0
  -21.2690   -6.7920   23.7890 C   0  0  0  0  0  3  0  0  0  0  0  0
  -21.1460   -5.9910   24.9420 C   0  0  0  0  0  3  0  0  0  0  0  0
  -21.4760   -4.6230   24.8870 C   0  0  0  0  0  0  0  0  0  0  0  0
  -21.9290   -4.0560   23.6840 C   0  0  0  0  0  3  0  0  0  0  0  0
  -22.0510   -4.8550   22.5330 C   0  0  0  0  0  0  0  0  0  0  0  0
  -22.4680   -4.2980   21.3700 F   0  0  0  0  0  0  0  0  0  0  0  0
  -21.3520   -3.8510   25.9910 F   0  0  0  0  0  0  0  0  0  0  0  0
  -22.8640  -13.5940   21.0280 C   0  0  0  0  0  0  0  0  0  0  0  0
  -22.1250  -12.9050   21.8910 N   0  0  0  0  0  0  0  0  0  0  0  0
  -22.4300  -14.6090   20.4870 O   0  0  0  0  0  0  0  0  0  0  0  0
  -22.4910  -12.0840   22.3510 H   0  0  0  0  0  0  0  0  0  0  0  0
  -21.1830  -13.2040   22.0960 H   0  0  0  0  0  0  0  0  0  0  0  0
  -25.5040  -15.2590   20.2350 N   0  0  0  0  0  0  0  0  0  0  0  0
  -24.7350  -15.9140   20.3150 H   0  0  0  0  0  0  0  0  0  0  0  0
  -26.3650  -15.6920   19.9230 H   0  0  0  0  0  0  0  0  0  0  0  0
  -29.8890  -24.9150   19.7320 C   0  0  0  0  0  3  0  0  0  0  0  0
  -32.2610  -25.3160   20.7110 C   0  0  0  0  0  1  0  0  0  0  0  0
  -30.7410  -25.4220   20.9270 C   0  0  0  0  0  2  0  0  0  0  0  0
  -28.4220  -25.4180   19.7730 C   0  0  0  0  0  2  0  0  0  0  0  0
  -28.3840  -26.8130   20.0730 O   0  0  0  0  0  0  0  0  0  0  0  0
  -24.5210  -31.8990   23.2000 C   0  0  0  0  0  0  0  0  0  0  0  0
  -27.1690  -27.4640   20.1050 C   0  0  0  0  0  0  0  0  0  0  0  0
  -23.3040  -30.4730   21.5870 C   0  0  0  0  0  3  0  0  0  0  0  0
  -24.7500  -28.9290   20.1630 C   0  0  0  0  0  0  0  0  0  0  0  0
  -25.8260  -30.8490   21.3560 C   0  0  0  0  0  2  0  0  0  0  0  0
  -25.9120  -29.4760   20.7190 C   0  0  0  0  0  0  0  0  0  0  0  0
  -27.1230  -28.7520   20.6810 C   0  0  0  0  0  3  0  0  0  0  0  0
  -25.9800  -26.9150   19.5690 C   0  0  0  0  0  3  0  0  0  0  0  0
  -24.7760  -27.6450   19.5900 C   0  0  0  0  0  3  0  0  0  0  0  0
  -23.4980  -29.7730   20.2160 C   0  0  0  0  0  2  0  0  0  0  0  0
  -24.5700  -31.0880   22.1050 N   0  0  0  0  0  0  0  0  0  0  0  0
  -23.4460  -32.1710   23.7520 O   0  0  0  0  0  0  0  0  0  0  0  0
  -22.6690  -29.4600   22.5670 C   0  0  0  0  0  0  0  0  0  0  0  0
  -21.3450  -29.2670   22.4510 N   0  0  0  0  0  0  0  0  0  0  0  0
  -23.3630  -28.8480   23.3830 O   0  0  0  0  0  0  0  0  0  0  0  0
  -20.8480  -29.8150   21.7630 H   0  0  0  0  0  0  0  0  0  0  0  0
  -17.9850  -28.0460   22.9730 C   0  0  0  0  0  0  0  0  0  0  0  0
  -20.5400  -28.3340   23.2380 C   0  0  0  0  0  3  0  0  0  0  0  0
  -20.6570  -26.8970   22.6830 C   0  0  0  0  0  2  0  0  0  0  0  0
  -19.5570  -26.5450   21.6750 C   0  0  0  0  0  2  0  0  0  0  0  0
  -18.1730  -26.6860   22.3200 C   0  0  0  0  0  2  0  0  0  0  0  0
  -19.0960  -28.8270   23.3880 C   0  0  0  0  0  0  0  0  0  0  0  0
  -18.8690  -30.0960   23.9600 C   0  0  0  0  0  3  0  0  0  0  0  0
  -17.5590  -30.5890   24.1200 C   0  0  0  0  0  3  0  0  0  0  0  0
  -16.4620  -29.8070   23.7220 C   0  0  0  0  0  3  0  0  0  0  0  0
  -16.6740  -28.5360   23.1580 C   0  0  0  0  0  3  0  0  0  0  0  0
  -25.8120  -32.5420   23.7980 C   0  0  0  0  0  3  0  0  0  0  0  0
  -25.5030  -33.9430   24.1170 N   0  0  0  0  0  0  0  0  0  0  0  0
  -25.8410  -34.9890   23.3500 C   0  0  0  0  0  0  0  0  0  0  0  0
  -26.5160  -34.8770   22.3220 O   0  0  0  0  0  0  0  0  0  0  0  0
  -24.9090  -34.1060   24.9160 H   0  0  0  0  0  0  0  0  0  0  0  0
  -24.1260  -36.7820   22.9550 C   0  0  0  0  0  1  0  0  0  0  0  0
  -25.3500  -36.3800   23.7920 C   0  0  0  0  0  3  0  0  0  0  0  0
  -27.4740  -37.2540   24.6590 C   0  0  0  0  0  1  0  0  0  0  0  0
  -26.3890  -37.4290   23.6950 N   0  0  0  0  0  0  0  0  0  0  0  0
  -25.9850  -38.3500   23.8370 H   0  0  0  0  0  0  0  0  0  0  0  0
  -26.3490  -31.7860   25.0750 C   0  0  1  0  0  0  0  0  0  0  0  0
  -25.2690  -31.5530   26.1580 C   0  0  0  0  0  1  0  0  0  0  0  0
  -26.9350  -30.4090   24.6880 C   0  0  0  0  0  1  0  0  0  0  0  0
  -27.5060  -32.5910   25.7130 C   0  0  0  0  0  1  0  0  0  0  0  0
  1 50  1  0
  1  4  1  0
  2  3  1  0
  2  1  2  0
  5  8  1  0
  6  9  1  0
  6  5  2  0
  7  8  2  0
  8  4  1  0
  9  7  1  0
 10  9  1  0
 10 11  1  0
 12 20  1  0
 13 18  1  0
 14 15  1  0
 14 13  1  0
 16 15  1  0
 16 25  1  0
 16 17  1  0
 18 12  1  0
 18 17  1  0
 19 12  2  0
 20 11  1  0
 20 21  1  0
 22 23  2  0
 23 42  1  0
 24 23  1  0
 24 27  1  0
 25 22  1  0
 25 26  1  0
 26 24  2  0
 27 28  1  0
 28 29  2  0
 30 33  1  0
 30 29  1  0
 31 30  2  0
 32 31  1  0
 32 27  2  0
 33 34  1  0
 34 35  1  0
 35 36  2  0
 37 36  1  0
 37 41  1  0
 38 37  2  0
 39 34  2  0
 39 38  1  0
 40 39  1  0
 42 43  1  0
 43 46  1  0
 43 45  1  0
 44 42  2  0
 47 48  1  0
 47 22  1  0
 49 47  1  0
 50 53  1  0
 50 52  1  0
 51 52  1  0
 53 54  1  0
 54 56  1  0
 55 66  2  0
 56 61  1  0
 57 65  1  0
 57 67  1  0
 58 64  1  0
 58 60  1  0
 59 65  1  0
 60 59  1  0
 61 60  2  0
 62 63  1  0
 62 56  2  0
 63 58  2  0
 64 57  1  0
 65 55  1  0
 67 69  2  0
 68 67  1  0
 70 68  1  0
 71 80  2  0
 71 76  1  0
 72 68  1  0
 72 76  1  0
 73 72  1  0
 74 75  1  0
 74 73  1  0
 75 71  1  0
 76 77  2  0
 77 78  1  0
 79 78  2  0
 80 79  1  0
 81 55  1  0
 81 82  1  0
 81 91  1  0
 82 85  1  0
 83 87  1  0
 83 82  1  0
 84 83  2  0
 87 86  1  0
 89 87  1  0
 89 90  1  0
 89 88  1  0
 91 94  1  1
 91 92  1  0
 93 91  1  0
M  ISO  4  12 100  20 100  53 101  54 101
M  END
>  <TORSDO>  (48) 
F 23

>  <SCORE>  (48) 
-12.892

>  <name>  (48) 
47

>  <ligand_id>  (48) 
47

>  <original_smiles>  (48) 
[H]N=C(C([H])([H])c1c([H])c([H])n(C([H])([H])C([H])([H])N([H])C(=O)N2C([H])([H])C([H])([H])C([H])([H])C([H])(n3nc(-c4c([H])c([H])c(Oc5c([H])c([H])c(F)c([H])c5F)c([H])c4[H])c(C(=O)N([H])[H])c3N([H])[H])C2([H])[H])c1[H])C([H])(C([H])([H])Oc1c([H])c([H])c2c(c1[H])C([H])([H])N(C(=O)C([H])(N([H])C(=O)C([H])(N([H])C([H])([H])[H])C([H])([H])[H])C(C([H])([H])[H])(C([H])([H])[H])C([H])([H])[H])C([H])(C(=O)N([H])C1([H])c3c([H])c([H])c([H])c([H])c3C([H])([H])C([H])([H])C1([H])[H])C2([H])[H])C([H])([H])C([H])([H])[H]

>  <smiles>  (48) 
[H]N=C(C([H])([H])c1c([H])c([H])n(C([H])([H])C([H])([H])N([H])C(=O)N2C([H])([H])C([H])([H])C([H])([H])C([H])(n3nc(-c4c([H])c([H])c(Oc5c([H])c([H])c(F)c([H])c5F)c([H])c4[H])c(C(=O)N([H])[H])c3N([H])[H])C2([H])[H])c1[H])C([H])(C([H])([H])Oc1c([H])c([H])c2c(c1[H])C([H])([H])N(C(=O)C([H])(N([H])C(=O)C([H])(N([H])C([H])([H])[H])C([H])([H])[H])C(C([H])([H])[H])(C([H])([H])[H])C([H])([H])[H])C([H])(C(=O)N([H])C1([H])c3c([H])c([H])c([H])c([H])c3C([H])([H])C([H])([H])C1([H])[H])C2([H])[H])C([H])([H])C([H])([H])[H]

$$$$
48:0:0
     RDKit          3D

 92100  0  0  1  0  0  0  0  0999 V2000
  -29.4300  -20.1720   20.5920 N   0  0  0  0  0  4  0  0  0  0  0  0
  -30.4160  -20.3840   20.5400 H   0  0  0  0  0  0  0  0  0  0  0  0
  -29.2240  -20.1740   21.5780 H   0  0  0  0  0  0  0  0  0  0  0  0
  -30.5580  -15.1150   20.2350 C   0  0  0  0  0  0  0  0  0  0  0  0
  -30.3810  -12.7440   19.3040 C   0  0  0  0  0  2  0  0  0  0  0  0
  -29.4370  -12.6360   18.0860 C   0  0  0  0  0  2  0  0  0  0  0  0
  -27.9940  -12.3890   18.5560 C   0  0  0  0  0  2  0  0  0  0  0  0
  -27.5860  -13.3390   19.7110 C   0  0  0  0  0  3  0  0  0  0  0  0
  -28.6590  -13.4470   20.8170 C   0  0  0  0  0  2  0  0  0  0  0  0
  -29.8990  -13.8780   20.1580 N   0  0  0  0  0  0  0  0  0  0  0  0
  -31.7680  -15.0480   19.9940 O   0  0  0  0  0  0  0  0  0  0  0  0
  -29.2190  -17.3510   21.1390 C   0  0  0  0  0  2  0  0  0  0  0  0
  -30.4680  -17.7200   19.5490 C   0  0  0  0  0  3  0  0  0  0  0  0
  -29.2750  -18.6160   20.1340 C   0  0  0  0  0  3  0  0  0  0  0  0
  -29.9000  -16.4110   20.1380 N   0  0  0  0  0  0  0  0  0  0  0  0
  -25.2280  -13.8840   20.5110 C   0  0  0  0  0  0  0  0  0  0  0  0
  -24.1750  -13.0990   20.8870 C   0  0  0  0  0  0  0  0  0  0  0  0
  -24.6490  -11.7520   20.8420 C   0  0  0  0  0  0  0  0  0  0  0  0
  -26.2700  -13.0170   20.2450 N   0  0  0  0  0  0  0  0  0  0  0  0
  -25.9350  -11.7290   20.5130 N   0  0  0  0  0  0  0  0  0  0  0  0
  -23.9340  -10.4830   21.0300 C   0  0  0  0  0  0  0  0  0  0  0  0
  -24.3780   -9.5140   21.9570 C   0  0  0  0  0  3  0  0  0  0  0  0
  -23.6580   -8.3120   22.1370 C   0  0  0  0  0  3  0  0  0  0  0  0
  -22.4800   -8.0710   21.3880 C   0  0  0  0  0  0  0  0  0  0  0  0
  -22.0560   -9.0300   20.4520 C   0  0  0  0  0  3  0  0  0  0  0  0
  -22.7770  -10.2220   20.2700 C   0  0  0  0  0  3  0  0  0  0  0  0
  -21.7300   -6.9230   21.4790 O   0  0  0  0  0  0  0  0  0  0  0  0
  -21.6820   -6.1840   22.6340 C   0  0  0  0  0  0  0  0  0  0  0  0
  -21.2290   -6.7340   23.8540 C   0  0  0  0  0  3  0  0  0  0  0  0
  -21.1300   -5.9180   24.9990 C   0  0  0  0  0  3  0  0  0  0  0  0
  -21.4740   -4.5560   24.9260 C   0  0  0  0  0  0  0  0  0  0  0  0
  -21.9220   -4.0060   23.7110 C   0  0  0  0  0  3  0  0  0  0  0  0
  -22.0230   -4.8170   22.5690 C   0  0  0  0  0  0  0  0  0  0  0  0
  -22.4350   -4.2780   21.3940 F   0  0  0  0  0  0  0  0  0  0  0  0
  -21.3730   -3.7700   26.0250 F   0  0  0  0  0  0  0  0  0  0  0  0
  -22.7800  -13.5660   21.1800 C   0  0  0  0  0  0  0  0  0  0  0  0
  -22.0710  -12.8600   22.0530 N   0  0  0  0  0  0  0  0  0  0  0  0
  -22.3310  -14.5910   20.6700 O   0  0  0  0  0  0  0  0  0  0  0  0
  -22.4520  -12.0280   22.4810 H   0  0  0  0  0  0  0  0  0  0  0  0
  -21.1360  -13.1550   22.3000 H   0  0  0  0  0  0  0  0  0  0  0  0
  -25.3830  -15.2560   20.3450 N   0  0  0  0  0  0  0  0  0  0  0  0
  -24.6150  -15.9110   20.4560 H   0  0  0  0  0  0  0  0  0  0  0  0
  -26.2440  -15.7000   20.0440 H   0  0  0  0  0  0  0  0  0  0  0  0
  -31.8820  -18.1010   20.0460 C   0  0  0  0  0  0  0  0  0  0  0  0
  -32.9200  -17.8000   19.2740 N   0  0  0  0  0  0  0  0  0  0  0  0
  -32.0370  -18.6910   21.1130 O   0  0  0  0  0  0  0  0  0  0  0  0
  -32.7900  -17.3150   18.3960 H   0  0  0  0  0  0  0  0  0  0  0  0
  -33.8610  -17.9970   19.5890 H   0  0  0  0  0  0  0  0  0  0  0  0
  -28.6590  -21.4720   20.0120 C   0  0  0  0  0  2  0  0  0  0  0  0
  -28.8770  -23.1190   20.5220 C   0  0  0  0  0  3  0  0  0  0  0  0
  -27.9710  -24.5330   20.0900 C   0  0  0  0  0  3  0  0  0  0  0  0
  -28.2120  -26.0800   20.3760 O   0  0  0  0  0  0  0  0  0  0  0  0
  -24.6280  -31.9200   23.2510 C   0  0  0  0  0  0  0  0  0  0  0  0
  -27.1840  -27.1130   20.2720 C   0  0  0  0  0  0  0  0  0  0  0  0
  -23.4350  -30.5210   21.6120 C   0  0  0  0  0  3  0  0  0  0  0  0
  -24.8800  -28.9230   20.2030 C   0  0  0  0  0  0  0  0  0  0  0  0
  -25.9920  -30.7510   21.4680 C   0  0  0  0  0  2  0  0  0  0  0  0
  -26.0610  -29.3500   20.8220 C   0  0  0  0  0  0  0  0  0  0  0  0
  -27.2110  -28.4630   20.8350 C   0  0  0  0  0  3  0  0  0  0  0  0
  -25.9780  -26.8060   19.6030 C   0  0  0  0  0  3  0  0  0  0  0  0
  -24.8550  -27.6670   19.5750 C   0  0  0  0  0  3  0  0  0  0  0  0
  -23.6660  -29.8360   20.2390 C   0  0  0  0  0  2  0  0  0  0  0  0
  -24.7050  -31.0870   22.1640 N   0  0  0  0  0  0  0  0  0  0  0  0
  -23.5390  -32.2140   23.7680 O   0  0  0  0  0  0  0  0  0  0  0  0
  -22.7390  -29.5280   22.5770 C   0  0  0  0  0  0  0  0  0  0  0  0
  -21.4100  -29.3720   22.4450 N   0  0  0  0  0  0  0  0  0  0  0  0
  -23.3990  -28.9010   23.4090 O   0  0  0  0  0  0  0  0  0  0  0  0
  -20.9320  -29.9300   21.7520 H   0  0  0  0  0  0  0  0  0  0  0  0
  -18.0120  -28.2050   22.9550 C   0  0  0  0  0  0  0  0  0  0  0  0
  -20.5760  -28.4450   23.2180 C   0  0  0  0  0  3  0  0  0  0  0  0
  -20.6620  -27.0110   22.6460 C   0  0  0  0  0  2  0  0  0  0  0  0
  -19.5550  -26.6960   21.6340 C   0  0  0  0  0  2  0  0  0  0  0  0
  -18.1750  -26.8560   22.2770 C   0  0  0  0  0  2  0  0  0  0  0  0
  -19.1390  -28.9590   23.3810 C   0  0  0  0  0  0  0  0  0  0  0  0
  -18.9340  -30.2230   23.9740 C   0  0  0  0  0  3  0  0  0  0  0  0
  -17.6320  -30.7330   24.1480 C   0  0  0  0  0  3  0  0  0  0  0  0
  -16.5220  -29.9790   23.7300 C   0  0  0  0  0  3  0  0  0  0  0  0
  -16.7120  -28.7170   23.1400 C   0  0  0  0  0  3  0  0  0  0  0  0
  -25.9060  -32.5540   23.8830 C   0  0  0  0  0  3  0  0  0  0  0  0
  -26.4070  -31.7890   25.1710 C   0  0  1  0  0  0  0  0  0  0  0  0
  -25.3000  -31.5590   26.2290 C   0  0  0  0  0  1  0  0  0  0  0  0
  -26.9910  -30.4060   24.7980 C   0  0  0  0  0  1  0  0  0  0  0  0
  -27.5530  -32.5850   25.8400 C   0  0  0  0  0  1  0  0  0  0  0  0
  -25.5920  -33.9540   24.2120 N   0  0  0  0  0  0  0  0  0  0  0  0
  -25.9160  -35.0090   23.4510 C   0  0  0  0  0  0  0  0  0  0  0  0
  -26.5730  -34.9080   22.4110 O   0  0  0  0  0  0  0  0  0  0  0  0
  -24.9990  -34.1070   25.0160 H   0  0  0  0  0  0  0  0  0  0  0  0
  -24.1740  -36.8000   23.1420 C   0  0  0  0  0  1  0  0  0  0  0  0
  -25.4370  -36.3970   23.9180 C   0  0  0  0  0  3  0  0  0  0  0  0
  -27.5870  -37.2940   24.7000 C   0  0  0  0  0  1  0  0  0  0  0  0
  -26.4640  -37.4540   23.7790 N   0  0  0  0  0  0  0  0  0  0  0  0
  -26.0570  -38.3720   23.9340 H   0  0  0  0  0  0  0  0  0  0  0  0
  1  3  1  0
  2  1  1  0
  5 10  1  0
  6  7  1  0
  6  5  1  0
  8  7  1  0
  8 19  1  0
  8  9  1  0
 10  4  1  0
 10  9  1  0
 11  4  2  0
 13 44  1  0
 13 14  1  0
 13 15  1  0
 14  1  1  0
 14 12  1  0
 15  4  1  0
 15 12  1  0
 16 17  2  0
 17 36  1  0
 18 17  1  0
 18 21  1  0
 19 16  1  0
 19 20  1  0
 20 18  2  0
 21 22  1  0
 22 23  2  0
 24 27  1  0
 24 23  1  0
 25 24  2  0
 26 25  1  0
 26 21  2  0
 27 28  1  0
 28 29  1  0
 29 30  2  0
 31 30  1  0
 31 35  1  0
 32 31  2  0
 33 28  2  0
 33 32  1  0
 34 33  1  0
 36 37  1  0
 37 40  1  0
 37 39  1  0
 38 36  2  0
 41 42  1  0
 41 16  1  0
 43 41  1  0
 44 46  2  0
 45 48  1  0
 45 44  1  0
 47 45  1  0
 49 50  1  0
 49  1  1  0
 51 52  1  0
 51 50  2  0
 53 64  2  0
 54 52  1  0
 54 59  1  0
 55 63  1  0
 55 65  1  0
 56 62  1  0
 56 58  1  0
 57 63  1  0
 58 59  2  0
 58 57  1  0
 60 54  2  0
 61 60  1  0
 61 56  2  0
 62 55  1  0
 63 53  1  0
 65 67  2  0
 66 65  1  0
 68 66  1  0
 69 78  2  0
 69 74  1  0
 70 66  1  0
 70 74  1  0
 71 70  1  0
 72 73  1  0
 72 71  1  0
 73 69  1  0
 74 75  2  0
 75 76  1  0
 77 76  2  0
 78 77  1  0
 79 53  1  0
 79 84  1  0
 79 80  1  0
 80 83  1  1
 80 81  1  0
 82 80  1  0
 84 87  1  0
 85 89  1  0
 85 84  1  0
 86 85  2  0
 89 88  1  0
 91 89  1  0
 91 92  1  0
 91 90  1  0
M  ISO  4   4 100  15 100  51 101  52 101
M  END
>  <TORSDO>  (49) 
F 20

>  <SCORE>  (49) 
-15.079

>  <name>  (49) 
48

>  <ligand_id>  (49) 
48

>  <original_smiles>  (49) 
[H]c1c([H])c([H])c2c(c1[H])C([H])([H])C([H])([H])C([H])([H])C2([H])N([H])C(=O)C1([H])N(C(=O)C([H])(N([H])C(=O)C([H])(N([H])C([H])([H])[H])C([H])([H])[H])C(C([H])([H])[H])(C([H])([H])[H])C([H])([H])[H])C([H])([H])c2c([H])c(OC([H])([H])C([H])([H])C([H])([H])[N+]([H])([H])C3([H])C([H])([H])N(C(=O)N4C([H])([H])C([H])([H])C([H])([H])C([H])(n5nc(-c6c([H])c([H])c(Oc7c([H])c([H])c(F)c([H])c7F)c([H])c6[H])c(C(=O)N([H])[H])c5N([H])[H])C4([H])[H])C3([H])C(=O)N([H])[H])c([H])c([H])c2C1([H])[H]

>  <smiles>  (49) 
[H]c1c([H])c([H])c2c(c1[H])C([H])([H])C([H])([H])C([H])([H])C2([H])N([H])C(=O)C1([H])N(C(=O)C([H])(N([H])C(=O)C([H])(N([H])C([H])([H])[H])C([H])([H])[H])C(C([H])([H])[H])(C([H])([H])[H])C([H])([H])[H])C([H])([H])c2c([H])c(OC([H])([H])C([H])([H])C([H])([H])[N+]([H])([H])C3([H])C([H])([H])N(C(=O)N4C([H])([H])C([H])([H])C([H])([H])C([H])(n5nc(-c6c([H])c([H])c(Oc7c([H])c([H])c(F)c([H])c7F)c([H])c6[H])c(C(=O)N([H])[H])c5N([H])[H])C4([H])[H])C3([H])C(=O)N([H])[H])c([H])c([H])c2C1([H])[H]

$$$$
49:0:0
     RDKit          3D

 90 98  0  0  1  0  0  0  0  0999 V2000
  -28.9820  -20.6190   20.4220 C   0  0  0  0  0  0  0  0  0  0  0  0
  -28.9670  -19.2540   20.3710 C   0  0  0  0  0  3  0  0  0  0  0  0
  -29.7660  -21.6800   21.1580 C   0  0  0  0  0  2  0  0  0  0  0  0
  -28.1040  -21.6940   19.8190 C   0  0  0  0  0  2  0  0  0  0  0  0
  -28.6670  -22.6300   20.8210 N   0  0  2  0  0  4  0  0  0  0  0  0
  -28.0210  -22.6580   21.5960 H   0  0  0  0  0  0  0  0  0  0  0  0
  -31.1820  -18.8650   21.5830 C   0  0  0  0  0  1  0  0  0  0  0  0
  -29.8900  -18.2150   21.0610 C   0  0  0  0  0  3  0  0  0  0  0  0
  -30.2410  -16.9850   20.1460 C   0  0  0  0  0  2  0  0  0  0  0  0
  -30.6840  -14.5210   20.3780 C   0  0  0  0  0  0  0  0  0  0  0  0
  -30.3430  -12.3290   19.3100 C   0  0  0  0  0  2  0  0  0  0  0  0
  -29.4120  -12.5410   18.0970 C   0  0  0  0  0  2  0  0  0  0  0  0
  -27.9420  -12.3940   18.5310 C   0  0  0  0  0  2  0  0  0  0  0  0
  -27.6060  -13.2520   19.7820 C   0  0  0  0  0  3  0  0  0  0  0  0
  -28.6680  -13.0780   20.8980 C   0  0  0  0  0  2  0  0  0  0  0  0
  -29.9940  -13.3480   20.3190 N   0  0  0  0  0  0  0  0  0  0  0  0
  -31.8240  -14.6330   19.9270 O   0  0  0  0  0  0  0  0  0  0  0  0
  -29.9790  -15.6330   20.7130 N   0  0  0  0  0  0  0  0  0  0  0  0
  -29.0750  -15.4780   21.1360 H   0  0  0  0  0  0  0  0  0  0  0  0
  -25.2110  -13.8600   20.4990 C   0  0  0  0  0  0  0  0  0  0  0  0
  -24.1430  -13.0930   20.8730 C   0  0  0  0  0  0  0  0  0  0  0  0
  -24.6010  -11.7390   20.8500 C   0  0  0  0  0  0  0  0  0  0  0  0
  -26.2550  -12.9790   20.2710 N   0  0  0  0  0  0  0  0  0  0  0  0
  -25.8910  -11.6970   20.5400 N   0  0  0  0  0  0  0  0  0  0  0  0
  -23.8720  -10.4800   21.0460 C   0  0  0  0  0  0  0  0  0  0  0  0
  -24.3150   -9.5070   21.9700 C   0  0  0  0  0  3  0  0  0  0  0  0
  -23.5850   -8.3130   22.1560 C   0  0  0  0  0  3  0  0  0  0  0  0
  -22.3990   -8.0810   21.4180 C   0  0  0  0  0  0  0  0  0  0  0  0
  -21.9760   -9.0430   20.4830 C   0  0  0  0  0  3  0  0  0  0  0  0
  -22.7070  -10.2280   20.2950 C   0  0  0  0  0  3  0  0  0  0  0  0
  -21.6410   -6.9400   21.5130 O   0  0  0  0  0  0  0  0  0  0  0  0
  -21.6170   -6.1850   22.6590 C   0  0  0  0  0  0  0  0  0  0  0  0
  -21.2410   -6.7340   23.9040 C   0  0  0  0  0  3  0  0  0  0  0  0
  -21.1630   -5.9050   25.0430 C   0  0  0  0  0  3  0  0  0  0  0  0
  -21.4510   -4.5320   24.9370 C   0  0  0  0  0  0  0  0  0  0  0  0
  -21.8240   -3.9840   23.6970 C   0  0  0  0  0  3  0  0  0  0  0  0
  -21.9020   -4.8080   22.5600 C   0  0  0  0  0  0  0  0  0  0  0  0
  -22.2390   -4.2710   21.3630 F   0  0  0  0  0  0  0  0  0  0  0  0
  -21.3690   -3.7350   26.0280 F   0  0  0  0  0  0  0  0  0  0  0  0
  -22.7470  -13.5730   21.1470 C   0  0  0  0  0  0  0  0  0  0  0  0
  -22.0240  -12.8840   22.0200 N   0  0  0  0  0  0  0  0  0  0  0  0
  -22.3100  -14.5970   20.6210 O   0  0  0  0  0  0  0  0  0  0  0  0
  -22.3900  -12.0550   22.4660 H   0  0  0  0  0  0  0  0  0  0  0  0
  -21.0890  -13.1890   22.2520 H   0  0  0  0  0  0  0  0  0  0  0  0
  -25.3790  -15.2300   20.3140 N   0  0  0  0  0  0  0  0  0  0  0  0
  -24.6040  -15.8800   20.3950 H   0  0  0  0  0  0  0  0  0  0  0  0
  -26.2300  -15.6660   19.9840 H   0  0  0  0  0  0  0  0  0  0  0  0
  -29.0480  -24.0200   20.3510 C   0  0  0  0  0  2  0  0  0  0  0  0
  -28.0050  -25.1170   20.7210 C   0  0  0  0  0  2  0  0  0  0  0  0
  -28.2990  -26.4940   20.2840 O   0  0  0  0  0  0  0  0  0  0  0  0
  -24.5940  -31.8860   23.2330 C   0  0  0  0  0  0  0  0  0  0  0  0
  -27.1970  -27.3410   20.2060 C   0  0  0  0  0  0  0  0  0  0  0  0
  -23.3900  -30.4800   21.6000 C   0  0  0  0  0  3  0  0  0  0  0  0
  -24.8390  -28.9370   20.1670 C   0  0  0  0  0  0  0  0  0  0  0  0
  -25.9310  -30.8040   21.4170 C   0  0  0  0  0  2  0  0  0  0  0  0
  -26.0060  -29.4290   20.7700 C   0  0  0  0  0  0  0  0  0  0  0  0
  -27.1890  -28.6430   20.7780 C   0  0  0  0  0  3  0  0  0  0  0  0
  -26.0200  -26.9080   19.5550 C   0  0  0  0  0  3  0  0  0  0  0  0
  -24.8480  -27.6830   19.5410 C   0  0  0  0  0  3  0  0  0  0  0  0
  -23.5980  -29.8030   20.2190 C   0  0  0  0  0  2  0  0  0  0  0  0
  -24.6560  -31.0810   22.1330 N   0  0  0  0  0  0  0  0  0  0  0  0
  -23.5120  -32.1580   23.7730 O   0  0  0  0  0  0  0  0  0  0  0  0
  -22.7390  -29.4580   22.5620 C   0  0  0  0  0  0  0  0  0  0  0  0
  -21.4150  -29.2740   22.4310 N   0  0  0  0  0  0  0  0  0  0  0  0
  -23.4240  -28.8310   23.3740 O   0  0  0  0  0  0  0  0  0  0  0  0
  -20.9280  -29.8250   21.7390 H   0  0  0  0  0  0  0  0  0  0  0  0
  -18.0390  -28.0670   22.9260 C   0  0  0  0  0  0  0  0  0  0  0  0
  -20.5960  -28.3390   23.2050 C   0  0  0  0  0  3  0  0  0  0  0  0
  -20.7060  -26.9040   22.6420 C   0  0  0  0  0  2  0  0  0  0  0  0
  -19.6100  -26.5680   21.6250 C   0  0  0  0  0  2  0  0  0  0  0  0
  -18.2240  -26.7130   22.2610 C   0  0  0  0  0  2  0  0  0  0  0  0
  -19.1530  -28.8380   23.3550 C   0  0  0  0  0  0  0  0  0  0  0  0
  -18.9240  -30.1050   23.9340 C   0  0  0  0  0  3  0  0  0  0  0  0
  -17.6160  -30.6010   24.0870 C   0  0  0  0  0  3  0  0  0  0  0  0
  -16.5160  -29.8280   23.6760 C   0  0  0  0  0  3  0  0  0  0  0  0
  -16.7300  -28.5640   23.1000 C   0  0  0  0  0  3  0  0  0  0  0  0
  -25.8780  -32.5180   23.8530 C   0  0  0  0  0  3  0  0  0  0  0  0
  -26.3990  -31.7470   25.1290 C   0  0  1  0  0  0  0  0  0  0  0  0
  -25.3110  -31.5060   26.2010 C   0  0  0  0  0  1  0  0  0  0  0  0
  -26.9880  -30.3730   24.7380 C   0  0  0  0  0  1  0  0  0  0  0  0
  -27.5550  -32.5440   25.7850 C   0  0  0  0  0  1  0  0  0  0  0  0
  -25.5640  -33.9150   24.1830 N   0  0  0  0  0  0  0  0  0  0  0  0
  -25.8920  -34.9670   23.4250 C   0  0  0  0  0  0  0  0  0  0  0  0
  -26.5640  -34.8660   22.3930 O   0  0  0  0  0  0  0  0  0  0  0  0
  -24.9750  -34.0660   24.9880 H   0  0  0  0  0  0  0  0  0  0  0  0
  -24.1560  -36.7520   23.0740 C   0  0  0  0  0  1  0  0  0  0  0  0
  -25.3990  -36.3530   23.8840 C   0  0  0  0  0  3  0  0  0  0  0  0
  -27.5320  -37.2450   24.7120 C   0  0  0  0  0  1  0  0  0  0  0  0
  -26.4290  -37.4090   23.7710 N   0  0  0  0  0  0  0  0  0  0  0  0
  -26.0210  -38.3290   23.9180 H   0  0  0  0  0  0  0  0  0  0  0  0
  1  3  1  0
  2  1  2  0
  2  8  1  0
  4  1  1  0
  4  5  1  0
  5  3  1  0
  5  6  1  1
  8  7  1  0
  9 18  1  0
  9  8  1  0
 10 18  1  0
 11 16  1  0
 12 13  1  0
 12 11  1  0
 14 13  1  0
 14 23  1  0
 14 15  1  0
 16 10  1  0
 16 15  1  0
 17 10  2  0
 18 19  1  0
 20 21  2  0
 21 40  1  0
 22 21  1  0
 22 25  1  0
 23 20  1  0
 23 24  1  0
 24 22  2  0
 25 26  1  0
 26 27  2  0
 28 31  1  0
 28 27  1  0
 29 28  2  0
 30 29  1  0
 30 25  2  0
 31 32  1  0
 32 33  1  0
 33 34  2  0
 35 34  1  0
 35 39  1  0
 36 35  2  0
 37 32  2  0
 37 36  1  0
 38 37  1  0
 40 41  1  0
 41 44  1  0
 41 43  1  0
 42 40  2  0
 45 46  1  0
 45 20  1  0
 47 45  1  0
 48 49  1  0
 48  5  1  0
 50 49  1  0
 51 62  2  0
 52 50  1  0
 52 57  1  0
 53 61  1  0
 53 63  1  0
 54 60  1  0
 54 56  1  0
 55 61  1  0
 56 57  2  0
 56 55  1  0
 58 52  2  0
 59 58  1  0
 59 54  2  0
 60 53  1  0
 61 51  1  0
 63 65  2  0
 64 63  1  0
 66 64  1  0
 67 76  2  0
 67 72  1  0
 68 64  1  0
 68 72  1  0
 69 68  1  0
 70 71  1  0
 70 69  1  0
 71 67  1  0
 72 73  2  0
 73 74  1  0
 75 74  2  0
 76 75  1  0
 77 51  1  0
 77 82  1  0
 77 78  1  0
 78 81  1  1
 78 79  1  0
 80 78  1  0
 82 85  1  0
 83 87  1  0
 83 82  1  0
 84 83  2  0
 87 86  1  0
 89 87  1  0
 89 90  1  0
 89 88  1  0
M  ISO  4  10 100  18 100  49 101  50 101
M  END
>  <TORSDO>  (50) 
F 20

>  <SCORE>  (50) 
-13.869

>  <name>  (50) 
49

>  <ligand_id>  (50) 
49

>  <original_smiles>  (50) 
[H]C(=C1C([H])([H])[N+]([H])(C([H])([H])C([H])([H])Oc2c([H])c([H])c3c(c2[H])C([H])([H])N(C(=O)C([H])(N([H])C(=O)C([H])(N([H])C([H])([H])[H])C([H])([H])[H])C(C([H])([H])[H])(C([H])([H])[H])C([H])([H])[H])C([H])(C(=O)N([H])C2([H])c4c([H])c([H])c([H])c([H])c4C([H])([H])C([H])([H])C2([H])[H])C3([H])[H])C1([H])[H])C([H])(C([H])([H])[H])C([H])([H])N([H])C(=O)N1C([H])([H])C([H])([H])C([H])([H])C([H])(n2nc(-c3c([H])c([H])c(Oc4c([H])c([H])c(F)c([H])c4F)c([H])c3[H])c(C(=O)N([H])[H])c2N([H])[H])C1([H])[H]

>  <smiles>  (50) 
[H]C(=C1C([H])([H])[N+]([H])(C([H])([H])C([H])([H])Oc2c([H])c([H])c3c(c2[H])C([H])([H])N(C(=O)C([H])(N([H])C(=O)C([H])(N([H])C([H])([H])[H])C([H])([H])[H])C(C([H])([H])[H])(C([H])([H])[H])C([H])([H])[H])C([H])(C(=O)N([H])C2([H])c4c([H])c([H])c([H])c([H])c4C([H])([H])C([H])([H])C2([H])[H])C3([H])[H])C1([H])[H])C([H])(C([H])([H])[H])C([H])([H])N([H])C(=O)N1C([H])([H])C([H])([H])C([H])([H])C([H])(n2nc(-c3c([H])c([H])c(Oc4c([H])c([H])c(F)c([H])c4F)c([H])c3[H])c(C(=O)N([H])[H])c2N([H])[H])C1([H])[H]

$$$$
50:0:0
     RDKit          3D

 91 99  0  0  1  0  0  0  0  0999 V2000
  -29.9110  -22.4060   19.1290 C   0  0  0  0  0  0  0  0  0  0  0  0
  -28.4130  -21.6280   20.3500 C   0  0  0  0  0  2  0  0  0  0  0  0
  -29.4370  -20.9530   19.4280 C   0  0  0  0  0  3  0  0  0  0  0  0
  -28.9620  -22.9490   19.9750 N   0  0  0  0  0  0  0  0  0  0  0  0
  -30.7660  -22.9360   18.4570 O   0  0  0  0  0  0  0  0  0  0  0  0
  -30.4530  -20.0120   20.1310 C   0  0  0  0  0  0  0  0  0  0  0  0
  -31.6040  -20.6840   20.8970 C   0  0  0  0  0  1  0  0  0  0  0  0
  -30.3000  -18.7320   20.0230 N   0  0  0  0  0  0  0  0  0  0  0  0
  -31.3080  -17.7600   20.4730 C   0  0  0  0  0  2  0  0  0  0  0  0
  -30.7760  -16.7600   21.5370 C   0  0  0  0  0  2  0  0  0  0  0  0
  -30.7160  -14.5020   20.4640 C   0  0  0  0  0  0  0  0  0  0  0  0
  -30.3460  -12.3670   19.2920 C   0  0  0  0  0  2  0  0  0  0  0  0
  -29.3940  -12.5520   18.0950 C   0  0  0  0  0  2  0  0  0  0  0  0
  -27.9240  -12.4260   18.5430 C   0  0  0  0  0  2  0  0  0  0  0  0
  -27.5980  -13.2770   19.8020 C   0  0  0  0  0  3  0  0  0  0  0  0
  -28.6660  -13.0840   20.9010 C   0  0  0  0  0  2  0  0  0  0  0  0
  -29.9840  -13.3660   20.3080 N   0  0  0  0  0  0  0  0  0  0  0  0
  -31.8640  -14.6170   20.0350 O   0  0  0  0  0  0  0  0  0  0  0  0
  -30.0960  -15.5600   21.0170 N   0  0  0  0  0  0  0  0  0  0  0  0
  -29.1090  -15.4720   21.2010 H   0  0  0  0  0  0  0  0  0  0  0  0
  -25.2100  -13.8850   20.5480 C   0  0  0  0  0  0  0  0  0  0  0  0
  -24.1430  -13.1160   20.9190 C   0  0  0  0  0  0  0  0  0  0  0  0
  -24.6010  -11.7620   20.8820 C   0  0  0  0  0  0  0  0  0  0  0  0
  -26.2510  -13.0030   20.3010 N   0  0  0  0  0  0  0  0  0  0  0  0
  -25.8880  -11.7220   20.5640 N   0  0  0  0  0  0  0  0  0  0  0  0
  -23.8730  -10.5010   21.0730 C   0  0  0  0  0  0  0  0  0  0  0  0
  -24.3180   -9.5260   21.9920 C   0  0  0  0  0  3  0  0  0  0  0  0
  -23.5930   -8.3280   22.1720 C   0  0  0  0  0  3  0  0  0  0  0  0
  -22.4090   -8.0990   21.4330 C   0  0  0  0  0  0  0  0  0  0  0  0
  -21.9820   -9.0630   20.5040 C   0  0  0  0  0  3  0  0  0  0  0  0
  -22.7080  -10.2520   20.3220 C   0  0  0  0  0  3  0  0  0  0  0  0
  -21.6530   -6.9550   21.5230 O   0  0  0  0  0  0  0  0  0  0  0  0
  -21.6280   -6.1940   22.6640 C   0  0  0  0  0  0  0  0  0  0  0  0
  -21.2460   -6.7330   23.9120 C   0  0  0  0  0  3  0  0  0  0  0  0
  -21.1680   -5.9010   25.0460 C   0  0  0  0  0  3  0  0  0  0  0  0
  -21.4650   -4.5290   24.9340 C   0  0  0  0  0  0  0  0  0  0  0  0
  -21.8420   -3.9890   23.6910 C   0  0  0  0  0  3  0  0  0  0  0  0
  -21.9210   -4.8190   22.5590 C   0  0  0  0  0  0  0  0  0  0  0  0
  -22.2640   -4.2890   21.3600 F   0  0  0  0  0  0  0  0  0  0  0  0
  -21.3850   -3.7260   26.0210 F   0  0  0  0  0  0  0  0  0  0  0  0
  -22.7480  -13.5940   21.1990 C   0  0  0  0  0  0  0  0  0  0  0  0
  -22.0230  -12.8980   22.0680 N   0  0  0  0  0  0  0  0  0  0  0  0
  -22.3090  -14.6210   20.6820 O   0  0  0  0  0  0  0  0  0  0  0  0
  -22.3910  -12.0690   22.5100 H   0  0  0  0  0  0  0  0  0  0  0  0
  -21.0850  -13.1990   22.2940 H   0  0  0  0  0  0  0  0  0  0  0  0
  -25.3820  -15.2580   20.3790 N   0  0  0  0  0  0  0  0  0  0  0  0
  -24.6300  -15.9220   20.5330 H   0  0  0  0  0  0  0  0  0  0  0  0
  -26.2400  -15.6970   20.0700 H   0  0  0  0  0  0  0  0  0  0  0  0
  -28.6970  -24.3000   20.5090 C   0  0  0  0  0  2  0  0  0  0  0  0
  -28.6180  -25.4500   19.4700 C   0  0  0  0  0  2  0  0  0  0  0  0
  -28.4450  -26.7360   20.1050 O   0  0  0  0  0  0  0  0  0  0  0  0
  -24.5900  -31.8730   23.2160 C   0  0  0  0  0  0  0  0  0  0  0  0
  -27.2300  -27.4100   20.1160 C   0  0  0  0  0  0  0  0  0  0  0  0
  -23.3750  -30.4700   21.5830 C   0  0  0  0  0  3  0  0  0  0  0  0
  -24.8220  -28.9190   20.1590 C   0  0  0  0  0  0  0  0  0  0  0  0
  -25.9020  -30.8260   21.3650 C   0  0  0  0  0  2  0  0  0  0  0  0
  -25.9840  -29.4450   20.7380 C   0  0  0  0  0  0  0  0  0  0  0  0
  -27.1840  -28.6950   20.7150 C   0  0  0  0  0  3  0  0  0  0  0  0
  -26.0390  -26.8950   19.5550 C   0  0  0  0  0  3  0  0  0  0  0  0
  -24.8460  -27.6440   19.5680 C   0  0  0  0  0  3  0  0  0  0  0  0
  -23.5790  -29.7790   20.2060 C   0  0  0  0  0  2  0  0  0  0  0  0
  -24.6430  -31.0730   22.1120 N   0  0  0  0  0  0  0  0  0  0  0  0
  -23.5120  -32.1430   23.7620 O   0  0  0  0  0  0  0  0  0  0  0  0
  -22.7290  -29.4500   22.5470 C   0  0  0  0  0  0  0  0  0  0  0  0
  -21.4020  -29.2750   22.4290 N   0  0  0  0  0  0  0  0  0  0  0  0
  -23.4170  -28.8230   23.3580 O   0  0  0  0  0  0  0  0  0  0  0  0
  -20.9100  -29.8410   21.7540 H   0  0  0  0  0  0  0  0  0  0  0  0
  -18.0280  -28.0920   22.9450 C   0  0  0  0  0  0  0  0  0  0  0  0
  -20.5880  -28.3370   23.2020 C   0  0  0  0  0  3  0  0  0  0  0  0
  -20.6790  -26.9090   22.6160 C   0  0  0  0  0  2  0  0  0  0  0  0
  -19.5680  -26.5920   21.6110 C   0  0  0  0  0  2  0  0  0  0  0  0
  -18.1940  -26.7400   22.2670 C   0  0  0  0  0  2  0  0  0  0  0  0
  -19.1530  -28.8470   23.3700 C   0  0  0  0  0  0  0  0  0  0  0  0
  -18.9440  -30.1100   23.9660 C   0  0  0  0  0  3  0  0  0  0  0  0
  -17.6420  -30.6170   24.1440 C   0  0  0  0  0  3  0  0  0  0  0  0
  -16.5320  -29.8600   23.7340 C   0  0  0  0  0  3  0  0  0  0  0  0
  -16.7260  -28.6000   23.1390 C   0  0  0  0  0  3  0  0  0  0  0  0
  -25.8780  -32.5040   23.8330 C   0  0  0  0  0  3  0  0  0  0  0  0
  -25.5670  -33.9020   24.1680 N   0  0  0  0  0  0  0  0  0  0  0  0
  -25.9080  -34.9550   23.4120 C   0  0  0  0  0  0  0  0  0  0  0  0
  -26.5840  -34.8480   22.3850 O   0  0  0  0  0  0  0  0  0  0  0  0
  -24.9580  -34.0560   24.9590 H   0  0  0  0  0  0  0  0  0  0  0  0
  -24.1890  -36.7540   23.0480 C   0  0  0  0  0  1  0  0  0  0  0  0
  -25.4230  -36.3440   23.8660 C   0  0  0  0  0  3  0  0  0  0  0  0
  -27.5580  -37.2200   24.7070 C   0  0  0  0  0  1  0  0  0  0  0  0
  -26.4600  -37.3930   23.7590 N   0  0  0  0  0  0  0  0  0  0  0  0
  -26.0560  -38.3150   23.9020 H   0  0  0  0  0  0  0  0  0  0  0  0
  -26.3960  -31.7300   25.1070 C   0  0  1  0  0  0  0  0  0  0  0  0
  -25.3050  -31.4920   26.1780 C   0  0  0  0  0  1  0  0  0  0  0  0
  -26.9700  -30.3510   24.7050 C   0  0  0  0  0  1  0  0  0  0  0  0
  -27.5520  -32.5180   25.7650 C   0  0  0  0  0  1  0  0  0  0  0  0
  1  3  1  0
  1  4  1  0
  3  6  1  0
  3  2  1  0
  4  2  1  0
  4 49  1  0
  5  1  2  0
  6  7  1  0
  8  6  2  0
  8  9  1  0
  9 10  1  0
 11 19  1  0
 12 17  1  0
 13 14  1  0
 13 12  1  0
 15 14  1  0
 15 24  1  0
 15 16  1  0
 17 11  1  0
 17 16  1  0
 18 11  2  0
 19 20  1  0
 19 10  1  0
 21 22  2  0
 22 41  1  0
 23 22  1  0
 23 26  1  0
 24 21  1  0
 24 25  1  0
 25 23  2  0
 26 27  1  0
 27 28  2  0
 29 32  1  0
 29 28  1  0
 30 29  2  0
 31 30  1  0
 31 26  2  0
 32 33  1  0
 33 34  1  0
 34 35  2  0
 36 35  1  0
 36 40  1  0
 37 36  2  0
 38 33  2  0
 38 37  1  0
 39 38  1  0
 41 42  1  0
 42 45  1  0
 42 44  1  0
 43 41  2  0
 46 47  1  0
 46 21  1  0
 48 46  1  0
 50 51  1  0
 50 49  1  0
 51 53  1  0
 52 63  2  0
 53 58  1  0
 54 62  1  0
 54 64  1  0
 55 61  1  0
 55 57  1  0
 56 62  1  0
 57 56  1  0
 58 57  2  0
 59 60  1  0
 59 53  2  0
 60 55  2  0
 61 54  1  0
 62 52  1  0
 64 66  2  0
 65 64  1  0
 67 65  1  0
 68 77  2  0
 68 73  1  0
 69 65  1  0
 69 73  1  0
 70 69  1  0
 71 72  1  0
 71 70  1  0
 72 68  1  0
 73 74  2  0
 74 75  1  0
 76 75  2  0
 77 76  1  0
 78 52  1  0
 78 79  1  0
 78 88  1  0
 79 82  1  0
 80 84  1  0
 80 79  1  0
 81 80  2  0
 84 83  1  0
 86 84  1  0
 86 87  1  0
 86 85  1  0
 88 91  1  1
 88 89  1  0
 90 88  1  0
M  ISO  4  11 100  19 100  50 101  51 101
M  END
>  <TORSDO>  (51) 
F 21

>  <SCORE>  (51) 
-13.543

>  <name>  (51) 
50

>  <ligand_id>  (51) 
50

>  <original_smiles>  (51) 
[H]c1c([H])c([H])c2c(c1[H])C([H])([H])C([H])([H])C([H])([H])C2([H])N([H])C(=O)C1([H])N(C(=O)C([H])(N([H])C(=O)C([H])(N([H])C([H])([H])[H])C([H])([H])[H])C(C([H])([H])[H])(C([H])([H])[H])C([H])([H])[H])C([H])([H])c2c([H])c(OC([H])([H])C([H])([H])N3C(=O)C([H])(C(=NC([H])([H])C([H])([H])N([H])C(=O)N4C([H])([H])C([H])([H])C([H])([H])C([H])(n5nc(-c6c([H])c([H])c(Oc7c([H])c([H])c(F)c([H])c7F)c([H])c6[H])c(C(=O)N([H])[H])c5N([H])[H])C4([H])[H])C([H])([H])[H])C3([H])[H])c([H])c([H])c2C1([H])[H]

>  <smiles>  (51) 
[H]c1c([H])c([H])c2c(c1[H])C([H])([H])C([H])([H])C([H])([H])C2([H])N([H])C(=O)C1([H])N(C(=O)C([H])(N([H])C(=O)C([H])(N([H])C([H])([H])[H])C([H])([H])[H])C(C([H])([H])[H])(C([H])([H])[H])C([H])([H])[H])C([H])([H])c2c([H])c(OC([H])([H])C([H])([H])N3C(=O)C([H])(C(=NC([H])([H])C([H])([H])N([H])C(=O)N4C([H])([H])C([H])([H])C([H])([H])C([H])(n5nc(-c6c([H])c([H])c(Oc7c([H])c([H])c(F)c([H])c7F)c([H])c6[H])c(C(=O)N([H])[H])c5N([H])[H])C4([H])[H])C([H])([H])[H])C3([H])[H])c([H])c([H])c2C1([H])[H]

$$$$
51:0:0
     RDKit          3D

 90 98  0  0  1  0  0  0  0  0999 V2000
  -28.3560  -21.1080   20.7590 C   0  0  0  0  0  3  0  0  0  0  0  0
  -29.2240  -20.0720   20.4010 C   0  0  0  0  0  0  0  0  0  0  0  0
  -30.2870  -20.8540   19.8310 C   0  0  0  0  0  0  0  0  0  0  0  0
  -30.0600  -22.1830   19.8440 N   0  0  0  0  0  0  0  0  0  0  0  0
  -28.8490  -22.3890   20.4140 N   0  0  0  0  0  0  0  0  0  0  0  0
  -31.5520  -20.3190   17.7160 C   0  0  0  0  0  1  0  0  0  0  0  0
  -31.5920  -20.3810   19.2470 C   0  0  0  0  0  2  0  0  0  0  0  0
  -29.0160  -18.4940   20.6080 C   0  0  0  0  0  3  0  0  0  0  0  0
  -30.1490  -17.3690   20.3320 C   0  0  0  0  0  3  0  0  0  0  0  0
  -30.5840  -14.7680   20.3650 C   0  0  0  0  0  0  0  0  0  0  0  0
  -30.3940  -12.4970   19.3530 C   0  0  0  0  0  2  0  0  0  0  0  0
  -29.4560  -12.5790   18.1290 C   0  0  0  0  0  2  0  0  0  0  0  0
  -27.9850  -12.4040   18.5560 C   0  0  0  0  0  2  0  0  0  0  0  0
  -27.6100  -13.2830   19.7780 C   0  0  0  0  0  3  0  0  0  0  0  0
  -28.6670  -13.1850   20.9000 C   0  0  0  0  0  2  0  0  0  0  0  0
  -29.9640  -13.5410   20.3100 N   0  0  0  0  0  0  0  0  0  0  0  0
  -31.7680  -14.8780   20.0340 O   0  0  0  0  0  0  0  0  0  0  0  0
  -29.8030  -15.8950   20.5660 N   0  0  0  0  0  0  0  0  0  0  0  0
  -28.8420  -15.7030   20.8070 H   0  0  0  0  0  0  0  0  0  0  0  0
  -25.2200  -13.8740   20.4970 C   0  0  0  0  0  0  0  0  0  0  0  0
  -24.1530  -13.1000   20.8640 C   0  0  0  0  0  0  0  0  0  0  0  0
  -24.6160  -11.7490   20.8330 C   0  0  0  0  0  0  0  0  0  0  0  0
  -26.2640  -12.9950   20.2640 N   0  0  0  0  0  0  0  0  0  0  0  0
  -25.9070  -11.7120   20.5290 N   0  0  0  0  0  0  0  0  0  0  0  0
  -23.8880  -10.4880   21.0210 C   0  0  0  0  0  0  0  0  0  0  0  0
  -24.3140   -9.5240   21.9610 C   0  0  0  0  0  3  0  0  0  0  0  0
  -23.5890   -8.3260   22.1360 C   0  0  0  0  0  3  0  0  0  0  0  0
  -22.4240   -8.0840   21.3710 C   0  0  0  0  0  0  0  0  0  0  0  0
  -22.0170   -9.0350   20.4190 C   0  0  0  0  0  3  0  0  0  0  0  0
  -22.7420  -10.2260   20.2430 C   0  0  0  0  0  3  0  0  0  0  0  0
  -21.6690   -6.9380   21.4550 O   0  0  0  0  0  0  0  0  0  0  0  0
  -21.6070   -6.2010   22.6100 C   0  0  0  0  0  0  0  0  0  0  0  0
  -21.1460   -6.7550   23.8240 C   0  0  0  0  0  3  0  0  0  0  0  0
  -21.0330   -5.9420   24.9700 C   0  0  0  0  0  3  0  0  0  0  0  0
  -21.3700   -4.5770   24.9010 C   0  0  0  0  0  0  0  0  0  0  0  0
  -21.8220   -4.0230   23.6920 C   0  0  0  0  0  3  0  0  0  0  0  0
  -21.9380   -4.8320   22.5480 C   0  0  0  0  0  0  0  0  0  0  0  0
  -22.3550   -4.2870   21.3790 F   0  0  0  0  0  0  0  0  0  0  0  0
  -21.2540   -3.7940   26.0010 F   0  0  0  0  0  0  0  0  0  0  0  0
  -22.7550  -13.5780   21.1300 C   0  0  0  0  0  0  0  0  0  0  0  0
  -22.0210  -12.8800   21.9910 N   0  0  0  0  0  0  0  0  0  0  0  0
  -22.3200  -14.6040   20.6100 O   0  0  0  0  0  0  0  0  0  0  0  0
  -22.3820  -12.0500   22.4360 H   0  0  0  0  0  0  0  0  0  0  0  0
  -21.0820  -13.1830   22.2070 H   0  0  0  0  0  0  0  0  0  0  0  0
  -25.3860  -15.2450   20.3160 N   0  0  0  0  0  0  0  0  0  0  0  0
  -24.6190  -15.9000   20.4120 H   0  0  0  0  0  0  0  0  0  0  0  0
  -26.2270  -15.6730   19.9490 H   0  0  0  0  0  0  0  0  0  0  0  0
  -28.3390  -23.7910   20.7790 C   0  0  0  0  0  3  0  0  0  0  0  0
  -28.4780  -25.0610   19.7870 C   0  0  0  0  0  3  0  0  0  0  0  0
  -28.3790  -26.4780   20.2860 O   0  0  0  0  0  0  0  0  0  0  0  0
  -24.6000  -31.8910   23.2440 C   0  0  0  0  0  0  0  0  0  0  0  0
  -27.2350  -27.3030   20.2090 C   0  0  0  0  0  0  0  0  0  0  0  0
  -23.4060  -30.4840   21.6030 C   0  0  0  0  0  3  0  0  0  0  0  0
  -24.8640  -28.9280   20.1840 C   0  0  0  0  0  0  0  0  0  0  0  0
  -25.9450  -30.8020   21.4280 C   0  0  0  0  0  2  0  0  0  0  0  0
  -26.0290  -29.4200   20.7830 C   0  0  0  0  0  0  0  0  0  0  0  0
  -27.2140  -28.6190   20.7820 C   0  0  0  0  0  3  0  0  0  0  0  0
  -26.0420  -26.8670   19.5910 C   0  0  0  0  0  3  0  0  0  0  0  0
  -24.8750  -27.6610   19.5790 C   0  0  0  0  0  3  0  0  0  0  0  0
  -23.6250  -29.8020   20.2250 C   0  0  0  0  0  2  0  0  0  0  0  0
  -24.6690  -31.0800   22.1470 N   0  0  0  0  0  0  0  0  0  0  0  0
  -23.5140  -32.1690   23.7730 O   0  0  0  0  0  0  0  0  0  0  0  0
  -22.7430  -29.4710   22.5670 C   0  0  0  0  0  0  0  0  0  0  0  0
  -21.4170  -29.2900   22.4340 N   0  0  0  0  0  0  0  0  0  0  0  0
  -23.4190  -28.8520   23.3910 O   0  0  0  0  0  0  0  0  0  0  0  0
  -20.9320  -29.8440   21.7420 H   0  0  0  0  0  0  0  0  0  0  0  0
  -18.0400  -28.0880   22.9300 C   0  0  0  0  0  0  0  0  0  0  0  0
  -20.5970  -28.3520   23.2030 C   0  0  0  0  0  3  0  0  0  0  0  0
  -20.7010  -26.9200   22.6300 C   0  0  0  0  0  2  0  0  0  0  0  0
  -19.6020  -26.5950   21.6130 C   0  0  0  0  0  2  0  0  0  0  0  0
  -18.2190  -26.7380   22.2550 C   0  0  0  0  0  2  0  0  0  0  0  0
  -19.1570  -28.8520   23.3600 C   0  0  0  0  0  0  0  0  0  0  0  0
  -18.9360  -30.1150   23.9520 C   0  0  0  0  0  3  0  0  0  0  0  0
  -17.6290  -30.6140   24.1170 C   0  0  0  0  0  3  0  0  0  0  0  0
  -16.5260  -29.8470   23.7010 C   0  0  0  0  0  3  0  0  0  0  0  0
  -16.7320  -28.5860   23.1140 C   0  0  0  0  0  3  0  0  0  0  0  0
  -25.8780  -32.5280   23.8700 C   0  0  0  0  0  3  0  0  0  0  0  0
  -25.5660  -33.9300   24.1910 N   0  0  0  0  0  0  0  0  0  0  0  0
  -25.9020  -34.9790   23.4300 C   0  0  0  0  0  0  0  0  0  0  0  0
  -26.5780  -34.8710   22.4040 O   0  0  0  0  0  0  0  0  0  0  0  0
  -24.9640  -34.0870   24.9860 H   0  0  0  0  0  0  0  0  0  0  0  0
  -24.1830  -36.7770   23.0530 C   0  0  0  0  0  1  0  0  0  0  0  0
  -25.4140  -36.3700   23.8790 C   0  0  0  0  0  3  0  0  0  0  0  0
  -27.5380  -37.2560   24.7330 C   0  0  0  0  0  1  0  0  0  0  0  0
  -26.4500  -37.4210   23.7730 N   0  0  0  0  0  0  0  0  0  0  0  0
  -26.0440  -38.3430   23.9090 H   0  0  0  0  0  0  0  0  0  0  0  0
  -26.3870  -31.7670   25.1570 C   0  0  1  0  0  0  0  0  0  0  0  0
  -25.2860  -31.5380   26.2190 C   0  0  0  0  0  1  0  0  0  0  0  0
  -26.9740  -30.3870   24.7820 C   0  0  0  0  0  1  0  0  0  0  0  0
  -27.5310  -32.5680   25.8220 C   0  0  0  0  0  1  0  0  0  0  0  0
  2  8  1  0
  2  1  2  0
  3  4  2  0
  3  2  1  0
  4  5  1  0
  5  1  1  0
  5 48  1  0
  6  7  1  0
  7  3  1  0
  9 18  1  0
  9  8  2  0
 10 18  1  0
 11 16  1  0
 12 13  1  0
 12 11  1  0
 14 13  1  0
 14 23  1  0
 14 15  1  0
 16 10  1  0
 16 15  1  0
 17 10  2  0
 18 19  1  0
 20 21  2  0
 21 40  1  0
 22 21  1  0
 22 25  1  0
 23 20  1  0
 23 24  1  0
 24 22  2  0
 25 26  1  0
 26 27  2  0
 28 31  1  0
 28 27  1  0
 29 28  2  0
 30 29  1  0
 30 25  2  0
 31 32  1  0
 32 33  1  0
 33 34  2  0
 35 34  1  0
 35 39  1  0
 36 35  2  0
 37 32  2  0
 37 36  1  0
 38 37  1  0
 40 41  1  0
 41 44  1  0
 41 43  1  0
 42 40  2  0
 45 46  1  0
 45 20  1  0
 47 45  1  0
 49 50  1  0
 49 48  2  0
 51 62  2  0
 52 50  1  0
 52 57  1  0
 53 61  1  0
 53 63  1  0
 54 60  1  0
 54 56  1  0
 55 61  1  0
 56 55  1  0
 57 56  2  0
 58 52  2  0
 59 58  1  0
 59 54  2  0
 60 53  1  0
 61 51  1  0
 63 65  2  0
 64 63  1  0
 66 64  1  0
 67 76  2  0
 67 72  1  0
 68 64  1  0
 68 72  1  0
 69 68  1  0
 70 71  1  0
 70 69  1  0
 71 67  1  0
 72 73  2  0
 73 74  1  0
 75 74  2  0
 76 75  1  0
 77 51  1  0
 77 78  1  0
 77 87  1  0
 78 81  1  0
 79 83  1  0
 79 78  1  0
 80 79  2  0
 83 82  1  0
 85 83  1  0
 85 86  1  0
 85 84  1  0
 87 90  1  1
 87 88  1  0
 89 87  1  0
M  ISO  4  10 100  18 100  49 101  50 101
M  END
>  <TORSDO>  (52) 
F 21

>  <SCORE>  (52) 
-13.479

>  <name>  (52) 
51

>  <ligand_id>  (52) 
51

>  <original_smiles>  (52) 
[H]c1c([H])c([H])c2c(c1[H])C([H])([H])C([H])([H])C([H])([H])C2([H])N([H])C(=O)C1([H])N(C(=O)C([H])(N([H])C(=O)C([H])(N([H])C([H])([H])[H])C([H])([H])[H])C(C([H])([H])[H])(C([H])([H])[H])C([H])([H])[H])C([H])([H])c2c([H])c(OC([H])([H])C([H])([H])n3nc(C([H])([H])C([H])([H])[H])c(C([H])([H])C([H])([H])N([H])C(=O)N4C([H])([H])C([H])([H])C([H])([H])C([H])(n5nc(-c6c([H])c([H])c(Oc7c([H])c([H])c(F)c([H])c7F)c([H])c6[H])c(C(=O)N([H])[H])c5N([H])[H])C4([H])[H])c3[H])c([H])c([H])c2C1([H])[H]

>  <smiles>  (52) 
[H]c1c([H])c([H])c2c(c1[H])C([H])([H])C([H])([H])C([H])([H])C2([H])N([H])C(=O)C1([H])N(C(=O)C([H])(N([H])C(=O)C([H])(N([H])C([H])([H])[H])C([H])([H])[H])C(C([H])([H])[H])(C([H])([H])[H])C([H])([H])[H])C([H])([H])c2c([H])c(OC([H])([H])C([H])([H])n3nc(C([H])([H])C([H])([H])[H])c(C([H])([H])C([H])([H])N([H])C(=O)N4C([H])([H])C([H])([H])C([H])([H])C([H])(n5nc(-c6c([H])c([H])c(Oc7c([H])c([H])c(F)c([H])c7F)c([H])c6[H])c(C(=O)N([H])[H])c5N([H])[H])C4([H])[H])c3[H])c([H])c([H])c2C1([H])[H]

$$$$
52:0:0
     RDKit          3D

 97106  0  0  1  0  0  0  0  0999 V2000
  -28.6960  -20.9970   19.9310 C   0  0  0  0  0  2  0  0  0  0  0  0
  -29.6910  -22.1520   21.6970 C   0  0  0  0  0  2  0  0  0  0  0  0
  -29.6830  -19.9090   20.6050 C   0  0  0  0  0  3  0  0  0  0  0  0
  -29.8860  -20.6230   21.9630 C   0  0  0  0  0  3  0  0  0  0  0  0
  -28.6390  -22.3110   20.6920 N   0  0  0  0  0  0  0  0  0  0  0  0
  -30.5550  -14.9360   20.3590 C   0  0  0  0  0  0  0  0  0  0  0  0
  -30.3790  -12.6400   19.3460 C   0  0  0  0  0  2  0  0  0  0  0  0
  -29.4380  -12.6770   18.1230 C   0  0  0  0  0  2  0  0  0  0  0  0
  -27.9760  -12.4790   18.5630 C   0  0  0  0  0  2  0  0  0  0  0  0
  -27.5930  -13.3630   19.7810 C   0  0  0  0  0  3  0  0  0  0  0  0
  -28.6580  -13.3200   20.8960 C   0  0  0  0  0  2  0  0  0  0  0  0
  -29.9330  -13.7020   20.2840 N   0  0  0  0  0  0  0  0  0  0  0  0
  -31.7450  -15.0180   20.0410 O   0  0  0  0  0  0  0  0  0  0  0  0
  -30.1440  -17.2110   21.4980 C   0  0  0  0  0  2  0  0  0  0  0  0
  -29.3630  -18.2790   20.6490 C   0  0  0  0  0  3  0  0  0  0  0  0
  -29.7320  -17.2410   19.5260 C   0  0  0  0  0  3  0  0  0  0  0  0
  -29.7900  -16.1080   20.5340 N   0  0  0  0  0  0  0  0  0  0  0  0
  -25.2100  -13.9260   20.5330 C   0  0  0  0  0  0  0  0  0  0  0  0
  -24.1490  -13.1390   20.8850 C   0  0  0  0  0  0  0  0  0  0  0  0
  -24.6240  -11.7920   20.8500 C   0  0  0  0  0  0  0  0  0  0  0  0
  -26.2590  -13.0560   20.2810 N   0  0  0  0  0  0  0  0  0  0  0  0
  -25.9140  -11.7670   20.5370 N   0  0  0  0  0  0  0  0  0  0  0  0
  -23.9110  -10.5220   21.0420 C   0  0  0  0  0  0  0  0  0  0  0  0
  -24.3530   -9.5580   21.9740 C   0  0  0  0  0  3  0  0  0  0  0  0
  -23.6360   -8.3560   22.1550 C   0  0  0  0  0  3  0  0  0  0  0  0
  -22.4640   -8.1090   21.4030 C   0  0  0  0  0  0  0  0  0  0  0  0
  -22.0370   -9.0640   20.4630 C   0  0  0  0  0  3  0  0  0  0  0  0
  -22.7560  -10.2570   20.2800 C   0  0  0  0  0  3  0  0  0  0  0  0
  -21.7180   -6.9580   21.4920 O   0  0  0  0  0  0  0  0  0  0  0  0
  -21.6800   -6.2110   22.6430 C   0  0  0  0  0  0  0  0  0  0  0  0
  -21.2460   -6.7560   23.8720 C   0  0  0  0  0  3  0  0  0  0  0  0
  -21.1520   -5.9330   25.0120 C   0  0  0  0  0  3  0  0  0  0  0  0
  -21.4860   -4.5690   24.9270 C   0  0  0  0  0  0  0  0  0  0  0  0
  -21.9160   -4.0250   23.7050 C   0  0  0  0  0  3  0  0  0  0  0  0
  -22.0100   -4.8430   22.5650 C   0  0  0  0  0  0  0  0  0  0  0  0
  -22.4010   -4.3080   21.3830 F   0  0  0  0  0  0  0  0  0  0  0  0
  -21.3890   -3.7760   26.0210 F   0  0  0  0  0  0  0  0  0  0  0  0
  -22.7490  -13.6030   21.1610 C   0  0  0  0  0  0  0  0  0  0  0  0
  -22.0270  -12.8990   22.0260 N   0  0  0  0  0  0  0  0  0  0  0  0
  -22.3040  -14.6290   20.6480 O   0  0  0  0  0  0  0  0  0  0  0  0
  -22.3980  -12.0760   22.4720 H   0  0  0  0  0  0  0  0  0  0  0  0
  -21.0880  -13.1990   22.2520 H   0  0  0  0  0  0  0  0  0  0  0  0
  -25.3700  -15.3010   20.3970 N   0  0  0  0  0  0  0  0  0  0  0  0
  -24.6130  -15.9210   20.6670 H   0  0  0  0  0  0  0  0  0  0  0  0
  -26.2800  -15.7430   20.4580 H   0  0  0  0  0  0  0  0  0  0  0  0
  -28.7270  -16.9270   18.4080 C   0  0  0  0  0  2  0  0  0  0  0  0
  -28.7040  -17.9750   17.3690 N   0  0  0  0  0  4  0  0  0  0  0  0
  -28.3530  -18.8420   17.7310 H   0  0  0  0  0  0  0  0  0  0  0  0
  -28.1070  -17.6960   16.6110 H   0  0  0  0  0  0  0  0  0  0  0  0
  -29.6230  -18.1200   16.9900 H   0  0  0  0  0  0  0  0  0  0  0  0
  -31.2190  -20.3640   22.5450 N   0  0  0  0  0  4  0  0  0  0  0  0
  -31.9510  -20.6960   21.9440 H   0  0  0  0  0  0  0  0  0  0  0  0
  -31.3640  -19.3870   22.7130 H   0  0  0  0  0  0  0  0  0  0  0  0
  -31.3180  -20.8360   23.4270 H   0  0  0  0  0  0  0  0  0  0  0  0
  -28.5940  -23.6870   20.0120 C   0  0  0  0  0  3  0  0  0  0  0  0
  -28.0910  -25.0280   20.8040 C   0  0  0  0  0  3  0  0  0  0  0  0
  -28.2870  -26.4440   20.3000 O   0  0  0  0  0  0  0  0  0  0  0  0
  -24.5970  -31.9770   23.2680 C   0  0  0  0  0  0  0  0  0  0  0  0
  -27.1970  -27.3420   20.2800 C   0  0  0  0  0  0  0  0  0  0  0  0
  -23.3980  -30.5670   21.6350 C   0  0  0  0  0  3  0  0  0  0  0  0
  -24.8500  -28.9960   20.2260 C   0  0  0  0  0  0  0  0  0  0  0  0
  -25.9380  -30.8780   21.4480 C   0  0  0  0  0  2  0  0  0  0  0  0
  -26.0230  -29.4840   20.8200 C   0  0  0  0  0  0  0  0  0  0  0  0
  -27.2020  -28.6740   20.8280 C   0  0  0  0  0  3  0  0  0  0  0  0
  -26.0020  -26.9180   19.6650 C   0  0  0  0  0  3  0  0  0  0  0  0
  -24.8450  -27.7230   19.6390 C   0  0  0  0  0  3  0  0  0  0  0  0
  -23.6130  -29.8750   20.2640 C   0  0  0  0  0  2  0  0  0  0  0  0
  -24.6650  -31.1570   22.1750 N   0  0  0  0  0  0  0  0  0  0  0  0
  -23.5140  -32.2600   23.7950 O   0  0  0  0  0  0  0  0  0  0  0  0
  -22.7280  -29.5600   22.6010 C   0  0  0  0  0  0  0  0  0  0  0  0
  -21.4030  -29.3850   22.4730 N   0  0  0  0  0  0  0  0  0  0  0  0
  -23.4040  -28.9370   23.4240 O   0  0  0  0  0  0  0  0  0  0  0  0
  -20.9160  -29.9370   21.7800 H   0  0  0  0  0  0  0  0  0  0  0  0
  -18.0230  -28.1960   22.9730 C   0  0  0  0  0  0  0  0  0  0  0  0
  -20.5820  -28.4510   23.2460 C   0  0  0  0  0  3  0  0  0  0  0  0
  -20.6820  -27.0170   22.6760 C   0  0  0  0  0  2  0  0  0  0  0  0
  -19.5810  -26.6920   21.6620 C   0  0  0  0  0  2  0  0  0  0  0  0
  -18.1990  -26.8430   22.3030 C   0  0  0  0  0  2  0  0  0  0  0  0
  -19.1430  -28.9570   23.4020 C   0  0  0  0  0  0  0  0  0  0  0  0
  -18.9250  -30.2230   23.9880 C   0  0  0  0  0  3  0  0  0  0  0  0
  -17.6220  -30.7290   24.1460 C   0  0  0  0  0  3  0  0  0  0  0  0
  -16.5170  -29.9660   23.7340 C   0  0  0  0  0  3  0  0  0  0  0  0
  -16.7180  -28.6990   23.1550 C   0  0  0  0  0  3  0  0  0  0  0  0
  -25.8780  -32.6120   23.8930 C   0  0  0  0  0  3  0  0  0  0  0  0
  -25.5710  -34.0170   24.2010 N   0  0  0  0  0  0  0  0  0  0  0  0
  -25.9130  -35.0570   23.4320 C   0  0  0  0  0  0  0  0  0  0  0  0
  -26.5890  -34.9360   22.4050 O   0  0  0  0  0  0  0  0  0  0  0  0
  -24.9680  -34.1810   24.9930 H   0  0  0  0  0  0  0  0  0  0  0  0
  -24.1990  -36.8570   23.0400 C   0  0  0  0  0  1  0  0  0  0  0  0
  -25.4310  -36.4550   23.8670 C   0  0  0  0  0  3  0  0  0  0  0  0
  -27.5640  -37.3390   24.7030 C   0  0  0  0  0  1  0  0  0  0  0  0
  -26.4710  -37.5000   23.7480 N   0  0  0  0  0  0  0  0  0  0  0  0
  -26.0690  -38.4260   23.8800 H   0  0  0  0  0  0  0  0  0  0  0  0
  -26.3760  -31.8580   25.1860 C   0  0  1  0  0  0  0  0  0  0  0  0
  -25.2690  -31.6430   26.2440 C   0  0  0  0  0  1  0  0  0  0  0  0
  -26.9550  -30.4720   24.8150 C   0  0  0  0  0  1  0  0  0  0  0  0
  -27.5250  -32.6550   25.8480 C   0  0  0  0  0  1  0  0  0  0  0  0
  1  5  1  0
  2  4  1  0
  3  1  1  0
  3 15  1  0
  3  4  1  0
  4 51  1  0
  5  2  1  0
  6 17  1  0
  7 12  1  0
  8  9  1  0
  8  7  1  0
 10  9  1  0
 10 21  1  0
 10 11  1  0
 12  6  1  0
 12 11  1  0
 13  6  2  0
 15 14  1  0
 16 46  1  0
 16 17  1  0
 16 15  1  0
 17 14  1  0
 18 19  2  0
 19 38  1  0
 20 19  1  0
 20 23  1  0
 21 18  1  0
 21 22  1  0
 22 20  2  0
 23 24  1  0
 24 25  2  0
 26 29  1  0
 26 25  1  0
 27 26  2  0
 28 27  1  0
 28 23  2  0
 29 30  1  0
 30 31  1  0
 31 32  2  0
 33 32  1  0
 33 37  1  0
 34 33  2  0
 35 30  2  0
 35 34  1  0
 36 35  1  0
 38 39  1  0
 39 42  1  0
 39 41  1  0
 40 38  2  0
 43 45  1  0
 43 18  1  0
 43 44  1  0
 47 48  1  0
 47 46  1  0
 49 47  1  0
 50 47  1  0
 51 53  1  0
 51 54  1  0
 52 51  1  0
 55  5  1  0
 55 56  2  0
 57 56  1  0
 58 69  2  0
 59 57  1  0
 59 64  1  0
 60 68  1  0
 60 70  1  0
 61 67  1  0
 61 63  1  0
 62 68  1  0
 63 64  2  0
 63 62  1  0
 65 59  2  0
 66 65  1  0
 66 61  2  0
 67 60  1  0
 68 58  1  0
 70 72  2  0
 71 70  1  0
 73 71  1  0
 74 83  2  0
 74 79  1  0
 75 71  1  0
 75 79  1  0
 76 75  1  0
 77 78  1  0
 77 76  1  0
 78 74  1  0
 79 80  2  0
 80 81  1  0
 82 81  2  0
 83 82  1  0
 84 58  1  0
 84 85  1  0
 84 94  1  0
 85 88  1  0
 86 90  1  0
 86 85  1  0
 87 86  2  0
 90 89  1  0
 92 90  1  0
 92 93  1  0
 92 91  1  0
 94 97  1  1
 94 95  1  0
 96 94  1  0
M  ISO  4   6 100  17 100  56 101  57 101
M  END
>  <TORSDO>  (53) 
F 21

>  <SCORE>  (53) 
-13.971

>  <name>  (53) 
52

>  <ligand_id>  (53) 
52

>  <original_smiles>  (53) 
[H]c1c([H])c([H])c2c(c1[H])C([H])([H])C([H])([H])C([H])([H])C2([H])N([H])C(=O)C1([H])N(C(=O)C([H])(N([H])C(=O)C([H])(N([H])C([H])([H])[H])C([H])([H])[H])C(C([H])([H])[H])(C([H])([H])[H])C([H])([H])[H])C([H])([H])c2c([H])c(OC([H])([H])C([H])([H])N3C([H])([H])C([H])(C4([H])C([H])([H])N(C(=O)N5C([H])([H])C([H])([H])C([H])([H])C([H])(n6nc(-c7c([H])c([H])c(Oc8c([H])c([H])c(F)c([H])c8F)c([H])c7[H])c(C(=O)N([H])[H])c6N([H])[H])C5([H])[H])C4([H])C([H])([H])[N+]([H])([H])[H])C([H])([N+]([H])([H])[H])C3([H])[H])c([H])c([H])c2C1([H])[H]

>  <smiles>  (53) 
[H]c1c([H])c([H])c2c(c1[H])C([H])([H])C([H])([H])C([H])([H])C2([H])N([H])C(=O)C1([H])N(C(=O)C([H])(N([H])C(=O)C([H])(N([H])C([H])([H])[H])C([H])([H])[H])C(C([H])([H])[H])(C([H])([H])[H])C([H])([H])[H])C([H])([H])c2c([H])c(OC([H])([H])C([H])([H])N3C([H])([H])C([H])(C4([H])C([H])([H])N(C(=O)N5C([H])([H])C([H])([H])C([H])([H])C([H])(n6nc(-c7c([H])c([H])c(Oc8c([H])c([H])c(F)c([H])c8F)c([H])c7[H])c(C(=O)N([H])[H])c6N([H])[H])C5([H])[H])C4([H])C([H])([H])[N+]([H])([H])[H])C([H])([N+]([H])([H])[H])C3([H])[H])c([H])c([H])c2C1([H])[H]

$$$$
53:0:0
     RDKit          3D

 91 99  0  0  1  0  0  0  0  0999 V2000
  -28.9240  -21.4820   19.6090 C   0  0  0  0  0  0  0  0  0  0  0  0
  -28.8190  -20.6180   20.8840 C   0  0  0  0  0  3  0  0  0  0  0  0
  -28.4070  -22.6730   20.4520 C   0  0  0  0  0  3  0  0  0  0  0  0
  -29.0470  -21.9260   21.5600 N   0  0  0  0  0  4  0  0  0  0  0  0
  -29.3000  -21.3070   18.4460 O   0  0  0  0  0  0  0  0  0  0  0  0
  -30.0260  -22.1470   21.6280 H   0  0  0  0  0  0  0  0  0  0  0  0
  -28.5780  -22.0250   22.4460 H   0  0  0  0  0  0  0  0  0  0  0  0
  -29.8970  -19.5090   21.1100 C   0  0  0  0  0  3  0  0  0  0  0  0
  -29.4650  -18.0570   20.7000 C   0  0  0  0  0  3  0  0  0  0  0  0
  -30.4880  -16.9330   21.0680 C   0  0  0  0  0  2  0  0  0  0  0  0
  -30.6940  -14.5160   20.3150 C   0  0  0  0  0  0  0  0  0  0  0  0
  -30.3720  -12.3560   19.1520 C   0  0  0  0  0  2  0  0  0  0  0  0
  -29.4070  -12.5530   17.9660 C   0  0  0  0  0  2  0  0  0  0  0  0
  -27.9390  -12.4230   18.4210 C   0  0  0  0  0  2  0  0  0  0  0  0
  -27.6280  -13.2500   19.6980 C   0  0  0  0  0  3  0  0  0  0  0  0
  -28.7050  -13.0280   20.7810 C   0  0  0  0  0  2  0  0  0  0  0  0
  -30.0140  -13.3420   20.1860 N   0  0  0  0  0  0  0  0  0  0  0  0
  -31.8230  -14.6830   19.8490 O   0  0  0  0  0  0  0  0  0  0  0  0
  -30.0010  -15.5470   20.8510 N   0  0  0  0  0  0  0  0  0  0  0  0
  -29.0670  -15.3320   21.1640 H   0  0  0  0  0  0  0  0  0  0  0  0
  -25.2430  -13.8550   20.4470 C   0  0  0  0  0  0  0  0  0  0  0  0
  -24.1820  -13.0830   20.8340 C   0  0  0  0  0  0  0  0  0  0  0  0
  -24.6430  -11.7310   20.7960 C   0  0  0  0  0  0  0  0  0  0  0  0
  -26.2840  -12.9740   20.2010 N   0  0  0  0  0  0  0  0  0  0  0  0
  -25.9270  -11.6920   20.4690 N   0  0  0  0  0  0  0  0  0  0  0  0
  -23.9190  -10.4690   20.9990 C   0  0  0  0  0  0  0  0  0  0  0  0
  -24.3650   -9.5030   21.9280 C   0  0  0  0  0  3  0  0  0  0  0  0
  -23.6430   -8.3050   22.1170 C   0  0  0  0  0  3  0  0  0  0  0  0
  -22.4590   -8.0640   21.3790 C   0  0  0  0  0  0  0  0  0  0  0  0
  -22.0320   -9.0200   20.4390 C   0  0  0  0  0  3  0  0  0  0  0  0
  -22.7560  -10.2090   20.2490 C   0  0  0  0  0  3  0  0  0  0  0  0
  -21.7070   -6.9200   21.4800 O   0  0  0  0  0  0  0  0  0  0  0  0
  -21.6740   -6.1790   22.6330 C   0  0  0  0  0  0  0  0  0  0  0  0
  -21.2580   -6.7320   23.8630 C   0  0  0  0  0  3  0  0  0  0  0  0
  -21.1740   -5.9170   25.0100 C   0  0  0  0  0  3  0  0  0  0  0  0
  -21.4950   -4.5490   24.9260 C   0  0  0  0  0  0  0  0  0  0  0  0
  -21.9040   -3.9950   23.7010 C   0  0  0  0  0  3  0  0  0  0  0  0
  -21.9910   -4.8070   22.5570 C   0  0  0  0  0  0  0  0  0  0  0  0
  -22.3630   -4.2640   21.3740 F   0  0  0  0  0  0  0  0  0  0  0  0
  -21.4070   -3.7620   26.0250 F   0  0  0  0  0  0  0  0  0  0  0  0
  -22.7890  -13.5600   21.1290 C   0  0  0  0  0  0  0  0  0  0  0  0
  -22.0740  -12.8630   22.0070 N   0  0  0  0  0  0  0  0  0  0  0  0
  -22.3430  -14.5850   20.6170 O   0  0  0  0  0  0  0  0  0  0  0  0
  -22.4480  -12.0340   22.4440 H   0  0  0  0  0  0  0  0  0  0  0  0
  -21.1400  -13.1660   22.2460 H   0  0  0  0  0  0  0  0  0  0  0  0
  -25.4050  -15.2260   20.2610 N   0  0  0  0  0  0  0  0  0  0  0  0
  -24.6350  -15.8780   20.3660 H   0  0  0  0  0  0  0  0  0  0  0  0
  -26.2440  -15.6610   19.8980 H   0  0  0  0  0  0  0  0  0  0  0  0
  -28.9510  -24.0980   20.0970 C   0  0  0  0  0  2  0  0  0  0  0  0
  -28.1940  -25.2720   20.7970 C   0  0  0  0  0  2  0  0  0  0  0  0
  -28.3940  -26.6020   20.2340 O   0  0  0  0  0  0  0  0  0  0  0  0
  -24.6040  -31.8810   23.2390 C   0  0  0  0  0  0  0  0  0  0  0  0
  -27.2610  -27.4010   20.1920 C   0  0  0  0  0  0  0  0  0  0  0  0
  -23.4120  -30.4760   21.5910 C   0  0  0  0  0  3  0  0  0  0  0  0
  -24.8770  -28.9400   20.1720 C   0  0  0  0  0  0  0  0  0  0  0  0
  -25.9420  -30.8290   21.4130 C   0  0  0  0  0  2  0  0  0  0  0  0
  -26.0350  -29.4560   20.7700 C   0  0  0  0  0  0  0  0  0  0  0  0
  -27.2330  -28.6960   20.7730 C   0  0  0  0  0  3  0  0  0  0  0  0
  -26.0920  -26.9220   19.5630 C   0  0  0  0  0  3  0  0  0  0  0  0
  -24.9030  -27.6740   19.5620 C   0  0  0  0  0  3  0  0  0  0  0  0
  -23.6330  -29.7980   20.2120 C   0  0  0  0  0  2  0  0  0  0  0  0
  -24.6700  -31.0770   22.1380 N   0  0  0  0  0  0  0  0  0  0  0  0
  -23.5180  -32.1500   23.7720 O   0  0  0  0  0  0  0  0  0  0  0  0
  -22.7530  -29.4560   22.5470 C   0  0  0  0  0  0  0  0  0  0  0  0
  -21.4280  -29.2750   22.4160 N   0  0  0  0  0  0  0  0  0  0  0  0
  -23.4310  -28.8280   23.3650 O   0  0  0  0  0  0  0  0  0  0  0  0
  -20.9410  -29.8320   21.7270 H   0  0  0  0  0  0  0  0  0  0  0  0
  -18.0500  -28.0840   22.9030 C   0  0  0  0  0  0  0  0  0  0  0  0
  -20.6070  -28.3370   23.1820 C   0  0  0  0  0  3  0  0  0  0  0  0
  -20.7080  -26.9070   22.6030 C   0  0  0  0  0  2  0  0  0  0  0  0
  -19.6080  -26.5890   21.5850 C   0  0  0  0  0  2  0  0  0  0  0  0
  -18.2250  -26.7360   22.2240 C   0  0  0  0  0  2  0  0  0  0  0  0
  -19.1690  -28.8440   23.3390 C   0  0  0  0  0  0  0  0  0  0  0  0
  -18.9500  -30.1060   23.9310 C   0  0  0  0  0  3  0  0  0  0  0  0
  -17.6460  -30.6100   24.0940 C   0  0  0  0  0  3  0  0  0  0  0  0
  -16.5410  -29.8480   23.6750 C   0  0  0  0  0  3  0  0  0  0  0  0
  -16.7450  -28.5880   23.0860 C   0  0  0  0  0  3  0  0  0  0  0  0
  -25.8830  -32.5140   23.8670 C   0  0  0  0  0  3  0  0  0  0  0  0
  -25.5730  -33.9120   24.1920 N   0  0  0  0  0  0  0  0  0  0  0  0
  -25.9100  -34.9620   23.4320 C   0  0  0  0  0  0  0  0  0  0  0  0
  -26.5860  -34.8570   22.4060 O   0  0  0  0  0  0  0  0  0  0  0  0
  -24.9740  -34.0690   24.9890 H   0  0  0  0  0  0  0  0  0  0  0  0
  -24.1840  -36.7530   23.0590 C   0  0  0  0  0  1  0  0  0  0  0  0
  -25.4190  -36.3520   23.8820 C   0  0  0  0  0  3  0  0  0  0  0  0
  -27.5450  -37.2380   24.7310 C   0  0  0  0  0  1  0  0  0  0  0  0
  -26.4530  -37.4040   23.7760 N   0  0  0  0  0  0  0  0  0  0  0  0
  -26.0460  -38.3260   23.9180 H   0  0  0  0  0  0  0  0  0  0  0  0
  -26.3950  -31.7440   25.1470 C   0  0  1  0  0  0  0  0  0  0  0  0
  -25.2970  -31.5060   26.2090 C   0  0  0  0  0  1  0  0  0  0  0  0
  -26.9820  -30.3680   24.7570 C   0  0  0  0  0  1  0  0  0  0  0  0
  -27.5420  -32.5410   25.8120 C   0  0  0  0  0  1  0  0  0  0  0  0
  1  3  1  0
  1  2  1  0
  2  8  1  0
  2  4  1  0
  3 49  1  0
  3  4  1  0
  4  6  1  0
  4  7  1  0
  5  1  2  0
  9 10  1  0
  9  8  2  0
 11 19  1  0
 12 17  1  0
 13 14  1  0
 13 12  1  0
 15 14  1  0
 15 24  1  0
 15 16  1  0
 17 11  1  0
 17 16  1  0
 18 11  2  0
 19 10  1  0
 19 20  1  0
 21 22  2  0
 22 41  1  0
 23 22  1  0
 23 26  1  0
 24 21  1  0
 24 25  1  0
 25 23  2  0
 26 27  1  0
 27 28  2  0
 29 32  1  0
 29 28  1  0
 30 29  2  0
 31 30  1  0
 31 26  2  0
 32 33  1  0
 33 34  1  0
 34 35  2  0
 36 35  1  0
 36 40  1  0
 37 36  2  0
 38 33  2  0
 38 37  1  0
 39 38  1  0
 41 42  1  0
 42 45  1  0
 42 44  1  0
 43 41  2  0
 46 47  1  0
 46 21  1  0
 48 46  1  0
 49 50  1  0
 51 50  1  0
 52 63  2  0
 53 51  1  0
 53 58  1  0
 54 62  1  0
 54 64  1  0
 55 61  1  0
 55 57  1  0
 56 62  1  0
 57 58  2  0
 57 56  1  0
 59 53  2  0
 60 59  1  0
 60 55  2  0
 61 54  1  0
 62 52  1  0
 64 66  2  0
 65 64  1  0
 67 65  1  0
 68 77  2  0
 68 73  1  0
 69 65  1  0
 69 73  1  0
 70 69  1  0
 71 72  1  0
 71 70  1  0
 72 68  1  0
 73 74  2  0
 74 75  1  0
 76 75  2  0
 77 76  1  0
 78 52  1  0
 78 79  1  0
 78 88  1  0
 79 82  1  0
 80 84  1  0
 80 79  1  0
 81 80  2  0
 84 83  1  0
 86 84  1  0
 86 87  1  0
 86 85  1  0
 88 91  1  1
 88 89  1  0
 90 88  1  0
M  ISO  4  11 100  19 100  50 101  51 101
M  END
>  <TORSDO>  (54) 
F 21

>  <SCORE>  (54) 
-13.459

>  <name>  (54) 
53

>  <ligand_id>  (54) 
53

>  <original_smiles>  (54) 
[H]c1c([H])c([H])c2c(c1[H])C([H])([H])C([H])([H])C([H])([H])C2([H])N([H])C(=O)C1([H])N(C(=O)C([H])(N([H])C(=O)C([H])(N([H])C([H])([H])[H])C([H])([H])[H])C(C([H])([H])[H])(C([H])([H])[H])C([H])([H])[H])C([H])([H])c2c([H])c(OC([H])([H])C([H])([H])C3([H])C(=O)C([H])(C([H])([H])C([H])([H])C([H])([H])N([H])C(=O)N4C([H])([H])C([H])([H])C([H])([H])C([H])(n5nc(-c6c([H])c([H])c(Oc7c([H])c([H])c(F)c([H])c7F)c([H])c6[H])c(C(=O)N([H])[H])c5N([H])[H])C4([H])[H])[N+]3([H])[H])c([H])c([H])c2C1([H])[H]

>  <smiles>  (54) 
[H]c1c([H])c([H])c2c(c1[H])C([H])([H])C([H])([H])C([H])([H])C2([H])N([H])C(=O)C1([H])N(C(=O)C([H])(N([H])C(=O)C([H])(N([H])C([H])([H])[H])C([H])([H])[H])C(C([H])([H])[H])(C([H])([H])[H])C([H])([H])[H])C([H])([H])c2c([H])c(OC([H])([H])C([H])([H])C3([H])C(=O)C([H])(C([H])([H])C([H])([H])C([H])([H])N([H])C(=O)N4C([H])([H])C([H])([H])C([H])([H])C([H])(n5nc(-c6c([H])c([H])c(Oc7c([H])c([H])c(F)c([H])c7F)c([H])c6[H])c(C(=O)N([H])[H])c5N([H])[H])C4([H])[H])[N+]3([H])[H])c([H])c([H])c2C1([H])[H]

$$$$
54:0:0
     RDKit          3D

 93101  0  0  1  0  0  0  0  0999 V2000
  -28.7580  -21.6220   20.1110 C   0  0  0  0  0  3  0  0  0  0  0  0
  -27.7580  -22.2040   19.2060 C   0  0  0  0  0  3  0  0  0  0  0  0
  -29.6570  -20.6440   19.6520 C   0  0  0  0  0  0  0  0  0  0  0  0
  -28.8320  -22.9630   19.6800 N   0  0  0  0  0  0  0  0  0  0  0  0
  -30.3640  -20.5580   18.6180 O   0  0  0  0  0  0  0  0  0  0  0  0
  -27.5730  -22.2940   17.9890 O   0  0  0  0  0  1  0  0  0  0  0  0
  -30.0180  -19.4570   20.5930 C   0  0  0  0  0  2  0  0  0  0  0  0
  -28.1270  -17.7730   20.1840 C   0  0  0  0  0  1  0  0  0  0  0  0
  -29.6490  -18.0050   20.1050 C   0  0  0  0  0  3  0  0  0  0  0  0
  -30.4730  -16.8590   20.8100 C   0  0  0  0  0  3  0  0  0  0  0  0
  -30.6540  -14.4930   19.8480 C   0  0  0  0  0  0  0  0  0  0  0  0
  -30.2360  -12.3500   18.6810 C   0  0  0  0  0  2  0  0  0  0  0  0
  -29.1880  -12.5760   17.5710 C   0  0  0  0  0  2  0  0  0  0  0  0
  -27.7560  -12.4550   18.1300 C   0  0  0  0  0  2  0  0  0  0  0  0
  -27.5490  -13.2800   19.4290 C   0  0  0  0  0  3  0  0  0  0  0  0
  -28.6940  -13.0160   20.4320 C   0  0  0  0  0  2  0  0  0  0  0  0
  -29.9630  -13.3220   19.7500 N   0  0  0  0  0  0  0  0  0  0  0  0
  -31.7470  -14.6660   19.3020 O   0  0  0  0  0  0  0  0  0  0  0  0
  -30.0010  -15.4940   20.4770 N   0  0  0  0  0  0  0  0  0  0  0  0
  -29.0890  -15.2510   20.8310 H   0  0  0  0  0  0  0  0  0  0  0  0
  -25.2460  -13.9300   20.3730 C   0  0  0  0  0  0  0  0  0  0  0  0
  -24.1930  -13.1770   20.8180 C   0  0  0  0  0  0  0  0  0  0  0  0
  -24.6090  -11.8150   20.7070 C   0  0  0  0  0  0  0  0  0  0  0  0
  -26.2380  -13.0280   20.0220 N   0  0  0  0  0  0  0  0  0  0  0  0
  -25.8630  -11.7490   20.2800 N   0  0  0  0  0  0  0  0  0  0  0  0
  -23.8640  -10.5680   20.9280 C   0  0  0  0  0  0  0  0  0  0  0  0
  -24.3400   -9.5700   21.8060 C   0  0  0  0  0  3  0  0  0  0  0  0
  -23.5970   -8.3890   22.0150 C   0  0  0  0  0  3  0  0  0  0  0  0
  -22.3650   -8.1970   21.3460 C   0  0  0  0  0  0  0  0  0  0  0  0
  -21.9070   -9.1840   20.4550 C   0  0  0  0  0  3  0  0  0  0  0  0
  -22.6500  -10.3570   20.2440 C   0  0  0  0  0  3  0  0  0  0  0  0
  -21.5890   -7.0710   21.4680 O   0  0  0  0  0  0  0  0  0  0  0  0
  -21.5860   -6.3180   22.6150 C   0  0  0  0  0  0  0  0  0  0  0  0
  -21.2460   -6.8720   23.8680 C   0  0  0  0  0  3  0  0  0  0  0  0
  -21.1890   -6.0480   25.0110 C   0  0  0  0  0  3  0  0  0  0  0  0
  -21.4620   -4.6720   24.9010 C   0  0  0  0  0  0  0  0  0  0  0  0
  -21.7960   -4.1180   23.6520 C   0  0  0  0  0  3  0  0  0  0  0  0
  -21.8550   -4.9380   22.5120 C   0  0  0  0  0  0  0  0  0  0  0  0
  -22.1560   -4.3960   21.3080 F   0  0  0  0  0  0  0  0  0  0  0  0
  -21.4000   -3.8780   25.9950 F   0  0  0  0  0  0  0  0  0  0  0  0
  -22.8410  -13.6860   21.2310 C   0  0  0  0  0  0  0  0  0  0  0  0
  -22.1800  -12.9910   22.1490 N   0  0  0  0  0  0  0  0  0  0  0  0
  -22.3850  -14.7330   20.7740 O   0  0  0  0  0  0  0  0  0  0  0  0
  -22.5650  -12.1430   22.5390 H   0  0  0  0  0  0  0  0  0  0  0  0
  -21.2770  -13.3120   22.4680 H   0  0  0  0  0  0  0  0  0  0  0  0
  -25.4330  -15.3000   20.2180 N   0  0  0  0  0  0  0  0  0  0  0  0
  -24.6960  -15.9690   20.4140 H   0  0  0  0  0  0  0  0  0  0  0  0
  -26.2570  -15.7250   19.8140 H   0  0  0  0  0  0  0  0  0  0  0  0
  -31.3170  -15.9260   23.0790 C   0  0  0  0  0  1  0  0  0  0  0  0
  -30.4990  -17.0060   22.3520 C   0  0  0  0  0  2  0  0  0  0  0  0
  -28.5720  -24.1990   20.4400 C   0  0  0  0  0  2  0  0  0  0  0  0
  -28.6180  -25.4760   19.5480 C   0  0  0  0  0  2  0  0  0  0  0  0
  -28.4310  -26.7240   20.2550 O   0  0  0  0  0  0  0  0  0  0  0  0
  -24.6090  -31.9510   23.2420 C   0  0  0  0  0  0  0  0  0  0  0  0
  -27.2340  -27.4260   20.2220 C   0  0  0  0  0  0  0  0  0  0  0  0
  -23.3970  -30.5340   21.6190 C   0  0  0  0  0  3  0  0  0  0  0  0
  -24.8420  -28.9630   20.2170 C   0  0  0  0  0  0  0  0  0  0  0  0
  -25.9260  -30.8680   21.4180 C   0  0  0  0  0  2  0  0  0  0  0  0
  -26.0020  -29.4840   20.7990 C   0  0  0  0  0  0  0  0  0  0  0  0
  -27.1960  -28.7210   20.7990 C   0  0  0  0  0  3  0  0  0  0  0  0
  -26.0450  -26.9190   19.6470 C   0  0  0  0  0  3  0  0  0  0  0  0
  -24.8590  -27.6810   19.6410 C   0  0  0  0  0  3  0  0  0  0  0  0
  -23.6040  -29.8330   20.2500 C   0  0  0  0  0  2  0  0  0  0  0  0
  -24.6630  -31.1340   22.1510 N   0  0  0  0  0  0  0  0  0  0  0  0
  -23.5290  -32.2370   23.7770 O   0  0  0  0  0  0  0  0  0  0  0  0
  -22.7390  -29.5290   22.5940 C   0  0  0  0  0  0  0  0  0  0  0  0
  -21.4150  -29.3410   22.4600 N   0  0  0  0  0  0  0  0  0  0  0  0
  -23.4160  -28.9210   23.4260 O   0  0  0  0  0  0  0  0  0  0  0  0
  -20.9300  -29.8850   21.7600 H   0  0  0  0  0  0  0  0  0  0  0  0
  -18.0440  -28.1310   22.9350 C   0  0  0  0  0  0  0  0  0  0  0  0
  -20.5950  -28.4150   23.2400 C   0  0  0  0  0  3  0  0  0  0  0  0
  -20.7180  -26.9720   22.7000 C   0  0  0  0  0  2  0  0  0  0  0  0
  -19.6340  -26.6160   21.6770 C   0  0  0  0  0  2  0  0  0  0  0  0
  -18.2410  -26.7670   22.2960 C   0  0  0  0  0  2  0  0  0  0  0  0
  -19.1500  -28.9110   23.3650 C   0  0  0  0  0  0  0  0  0  0  0  0
  -18.9120  -30.1880   23.9200 C   0  0  0  0  0  3  0  0  0  0  0  0
  -17.6020  -30.6840   24.0510 C   0  0  0  0  0  3  0  0  0  0  0  0
  -16.5100  -29.9010   23.6380 C   0  0  0  0  0  3  0  0  0  0  0  0
  -16.7320  -28.6260   23.0860 C   0  0  0  0  0  3  0  0  0  0  0  0
  -25.8970  -32.5840   23.8550 C   0  0  0  0  0  3  0  0  0  0  0  0
  -25.5890  -33.9830   24.1840 N   0  0  0  0  0  0  0  0  0  0  0  0
  -25.9080  -35.0330   23.4150 C   0  0  0  0  0  0  0  0  0  0  0  0
  -26.5620  -34.9270   22.3750 O   0  0  0  0  0  0  0  0  0  0  0  0
  -25.0070  -34.1400   24.9940 H   0  0  0  0  0  0  0  0  0  0  0  0
  -24.1660  -36.8150   23.0820 C   0  0  0  0  0  1  0  0  0  0  0  0
  -25.4210  -36.4200   23.8740 C   0  0  0  0  0  3  0  0  0  0  0  0
  -27.5670  -37.3190   24.6610 C   0  0  0  0  0  1  0  0  0  0  0  0
  -26.4480  -37.4770   23.7370 N   0  0  0  0  0  0  0  0  0  0  0  0
  -26.0410  -38.3970   23.8880 H   0  0  0  0  0  0  0  0  0  0  0  0
  -26.4240  -31.8150   25.1290 C   0  0  1  0  0  0  0  0  0  0  0  0
  -25.3370  -31.5710   26.2020 C   0  0  0  0  0  1  0  0  0  0  0  0
  -27.0100  -30.4410   24.7290 C   0  0  0  0  0  1  0  0  0  0  0  0
  -27.5740  -32.6140   25.7850 C   0  0  0  0  0  1  0  0  0  0  0  0
  1  3  1  0
  2  6  1  0
  2  4  1  0
  2  1  1  0
  3  7  1  0
  4  1  1  0
  4 51  1  0
  5  3  2  0
  9  8  1  0
  9  7  1  0
  9 10  1  0
 10 50  1  0
 11 19  1  0
 12 17  1  0
 13 14  1  0
 13 12  1  0
 15 14  1  0
 15 24  1  0
 15 16  1  0
 17 11  1  0
 17 16  1  0
 18 11  2  0
 19 10  1  0
 19 20  1  0
 21 22  2  0
 22 41  1  0
 23 22  1  0
 23 26  1  0
 24 25  1  0
 24 21  1  0
 25 23  2  0
 26 27  1  0
 27 28  2  0
 29 32  1  0
 29 28  1  0
 30 29  2  0
 31 30  1  0
 31 26  2  0
 32 33  1  0
 33 34  1  0
 34 35  2  0
 36 35  1  0
 36 40  1  0
 37 36  2  0
 38 33  2  0
 38 37  1  0
 39 38  1  0
 41 42  1  0
 42 45  1  0
 42 44  1  0
 43 41  2  0
 46 21  1  0
 46 47  1  0
 48 46  1  0
 50 49  1  0
 52 53  1  0
 52 51  1  0
 54 65  2  0
 55 53  1  0
 55 60  1  0
 56 64  1  0
 56 66  1  0
 57 63  1  0
 57 59  1  0
 58 64  1  0
 59 58  1  0
 60 59  2  0
 61 55  2  0
 62 61  1  0
 62 57  2  0
 63 56  1  0
 64 54  1  0
 66 68  2  0
 67 66  1  0
 69 67  1  0
 70 79  2  0
 70 75  1  0
 71 67  1  0
 71 75  1  0
 72 71  1  0
 73 74  1  0
 73 72  1  0
 74 70  1  0
 75 76  2  0
 76 77  1  0
 78 77  2  0
 79 78  1  0
 80 54  1  0
 80 81  1  0
 80 90  1  0
 81 84  1  0
 82 86  1  0
 82 81  1  0
 83 82  2  0
 86 85  1  0
 88 86  1  0
 88 89  1  0
 88 87  1  0
 90 93  1  1
 90 91  1  0
 92 90  1  0
M  ISO  4  11 100  19 100  52 101  53 101
M  END
>  <TORSDO>  (55) 
F 22

>  <SCORE>  (55) 
-11.680

>  <name>  (55) 
54

>  <ligand_id>  (55) 
54

>  <original_smiles>  (55) 
[H]c1c([H])c([H])c2c(c1[H])C([H])([H])C([H])([H])C([H])([H])C2([H])N([H])C(=O)C1([H])N(C(=O)C([H])(N([H])C(=O)C([H])(N([H])C([H])([H])[H])C([H])([H])[H])C(C([H])([H])[H])(C([H])([H])[H])C([H])([H])[H])C([H])([H])c2c([H])c(OC([H])([H])C([H])([H])N3C(=O)C3=C([O-])C([H])([H])C([H])(C([H])([H])[H])C([H])(N([H])C(=O)N3C([H])([H])C([H])([H])C([H])([H])C([H])(n4nc(-c5c([H])c([H])c(Oc6c([H])c([H])c(F)c([H])c6F)c([H])c5[H])c(C(=O)N([H])[H])c4N([H])[H])C3([H])[H])C([H])([H])C([H])([H])[H])c([H])c([H])c2C1([H])[H]

>  <smiles>  (55) 
[H]c1c([H])c([H])c2c(c1[H])C([H])([H])C([H])([H])C([H])([H])C2([H])N([H])C(=O)C1([H])N(C(=O)C([H])(N([H])C(=O)C([H])(N([H])C([H])([H])[H])C([H])([H])[H])C(C([H])([H])[H])(C([H])([H])[H])C([H])([H])[H])C([H])([H])c2c([H])c(OC([H])([H])C([H])([H])N3C(=O)C3=C([O-])C([H])([H])C([H])(C([H])([H])[H])C([H])(N([H])C(=O)N3C([H])([H])C([H])([H])C([H])([H])C([H])(n4nc(-c5c([H])c([H])c(Oc6c([H])c([H])c(F)c([H])c6F)c([H])c5[H])c(C(=O)N([H])[H])c4N([H])[H])C3([H])[H])C([H])([H])C([H])([H])[H])c([H])c([H])c2C1([H])[H]

$$$$
55:0:0
     RDKit          3D

 90 98  0  0  1  0  0  0  0  0999 V2000
  -27.0750  -21.1650   20.3430 C   0  0  0  0  0  1  0  0  0  0  0  0
  -28.5190  -21.5700   20.7090 C   0  0  0  0  0  3  0  0  0  0  0  0
  -29.5050  -20.3740   20.5950 C   0  0  0  0  0  3  0  0  0  0  0  0
  -29.1780  -19.1420   20.4220 N   0  0  0  0  0  0  0  0  0  0  0  0
  -30.8880  -14.5640   19.9950 C   0  0  0  0  0  0  0  0  0  0  0  0
  -30.5450  -12.3940   18.8600 C   0  0  0  0  0  2  0  0  0  0  0  0
  -29.5140  -12.5870   17.7270 C   0  0  0  0  0  2  0  0  0  0  0  0
  -28.0770  -12.4340   18.2630 C   0  0  0  0  0  2  0  0  0  0  0  0
  -27.8260  -13.2590   19.5540 C   0  0  0  0  0  3  0  0  0  0  0  0
  -28.9610  -13.0400   20.5780 C   0  0  0  0  0  2  0  0  0  0  0  0
  -30.2320  -13.3720   19.9160 N   0  0  0  0  0  0  0  0  0  0  0  0
  -31.9740  -14.7580   19.4370 O   0  0  0  0  0  0  0  0  0  0  0  0
  -30.3070  -17.5160   21.9160 C   0  0  0  0  0  0  0  0  0  0  0  0
  -30.3270  -15.9970   21.8880 C   0  0  0  0  0  2  0  0  0  0  0  0
  -29.8940  -16.8270   19.6750 C   0  0  0  0  0  2  0  0  0  0  0  0
  -30.2090  -18.0940   20.5110 C   0  0  0  0  0  3  0  0  0  0  0  0
  -30.1670  -15.6090   20.4830 N   0  0  0  0  0  0  0  0  0  0  0  0
  -30.3560  -18.1600   22.9670 O   0  0  0  0  0  0  0  0  0  0  0  0
  -25.5030  -13.8520   20.4880 C   0  0  0  0  0  0  0  0  0  0  0  0
  -24.4600  -13.0710   20.9070 C   0  0  0  0  0  0  0  0  0  0  0  0
  -24.9000  -11.7190   20.7750 C   0  0  0  0  0  0  0  0  0  0  0  0
  -26.5140  -12.9740   20.1300 N   0  0  0  0  0  0  0  0  0  0  0  0
  -26.1590  -11.6830   20.3590 N   0  0  0  0  0  0  0  0  0  0  0  0
  -24.1770  -10.4550   20.9650 C   0  0  0  0  0  0  0  0  0  0  0  0
  -24.6120   -9.4890   21.8990 C   0  0  0  0  0  3  0  0  0  0  0  0
  -23.8900   -8.2890   22.0790 C   0  0  0  0  0  3  0  0  0  0  0  0
  -22.7190   -8.0470   21.3230 C   0  0  0  0  0  0  0  0  0  0  0  0
  -22.3020   -9.0010   20.3780 C   0  0  0  0  0  3  0  0  0  0  0  0
  -23.0240  -10.1920   20.1970 C   0  0  0  0  0  3  0  0  0  0  0  0
  -21.9690   -6.8990   21.4090 O   0  0  0  0  0  0  0  0  0  0  0  0
  -21.8460   -6.2060   22.5870 C   0  0  0  0  0  0  0  0  0  0  0  0
  -21.3320   -6.8090   23.7560 C   0  0  0  0  0  3  0  0  0  0  0  0
  -21.1590   -6.0420   24.9250 C   0  0  0  0  0  3  0  0  0  0  0  0
  -21.4890   -4.6740   24.9270 C   0  0  0  0  0  0  0  0  0  0  0  0
  -21.9970   -4.0710   23.7630 C   0  0  0  0  0  3  0  0  0  0  0  0
  -22.1720   -4.8350   22.5950 C   0  0  0  0  0  0  0  0  0  0  0  0
  -22.6410   -4.2440   21.4700 F   0  0  0  0  0  0  0  0  0  0  0  0
  -21.3160   -3.9340   26.0480 F   0  0  0  0  0  0  0  0  0  0  0  0
  -23.0950  -13.5470   21.3150 C   0  0  0  0  0  0  0  0  0  0  0  0
  -22.4450  -12.8350   22.2300 N   0  0  0  0  0  0  0  0  0  0  0  0
  -22.6140  -14.5830   20.8570 O   0  0  0  0  0  0  0  0  0  0  0  0
  -22.8480  -11.9970   22.6230 H   0  0  0  0  0  0  0  0  0  0  0  0
  -21.5340  -13.1360   22.5460 H   0  0  0  0  0  0  0  0  0  0  0  0
  -25.6710  -15.2280   20.3640 N   0  0  0  0  0  0  0  0  0  0  0  0
  -24.9260  -15.8850   20.5690 H   0  0  0  0  0  0  0  0  0  0  0  0
  -26.5070  -15.6750   20.0090 H   0  0  0  0  0  0  0  0  0  0  0  0
  -28.9590  -22.8570   19.9280 C   0  0  0  0  0  2  0  0  0  0  0  0
  -28.3130  -24.2080   20.3960 C   0  0  0  0  0  2  0  0  0  0  0  0
  -28.6530  -25.4380   19.4990 C   0  0  0  0  0  2  0  0  0  0  0  0
  -28.4970  -26.7340   20.1190 O   0  0  0  0  0  0  0  0  0  0  0  0
  -24.6260  -31.8680   23.1930 C   0  0  0  0  0  0  0  0  0  0  0  0
  -27.3000  -27.4330   20.0900 C   0  0  0  0  0  0  0  0  0  0  0  0
  -23.4310  -30.4700   21.5390 C   0  0  0  0  0  3  0  0  0  0  0  0
  -24.8950  -28.9440   20.1070 C   0  0  0  0  0  0  0  0  0  0  0  0
  -25.9560  -30.8360   21.3500 C   0  0  0  0  0  2  0  0  0  0  0  0
  -26.0490  -29.4670   20.7010 C   0  0  0  0  0  0  0  0  0  0  0  0
  -27.2490  -28.7180   20.6890 C   0  0  0  0  0  3  0  0  0  0  0  0
  -26.1200  -26.9250   19.4980 C   0  0  0  0  0  3  0  0  0  0  0  0
  -24.9270  -27.6740   19.5030 C   0  0  0  0  0  3  0  0  0  0  0  0
  -23.6470  -29.7980   20.1560 C   0  0  0  0  0  2  0  0  0  0  0  0
  -24.6890  -31.0730   22.0860 N   0  0  0  0  0  0  0  0  0  0  0  0
  -23.5420  -32.1320   23.7320 O   0  0  0  0  0  0  0  0  0  0  0  0
  -22.7830  -29.4400   22.4920 C   0  0  0  0  0  0  0  0  0  0  0  0
  -21.4560  -29.2650   22.3730 N   0  0  0  0  0  0  0  0  0  0  0  0
  -23.4690  -28.8020   23.2950 O   0  0  0  0  0  0  0  0  0  0  0  0
  -20.9620  -29.8330   21.6990 H   0  0  0  0  0  0  0  0  0  0  0  0
  -18.0790  -28.0850   22.8870 C   0  0  0  0  0  0  0  0  0  0  0  0
  -20.6420  -28.3210   23.1370 C   0  0  0  0  0  3  0  0  0  0  0  0
  -20.7280  -26.8980   22.5370 C   0  0  0  0  0  2  0  0  0  0  0  0
  -19.6130  -26.6010   21.5280 C   0  0  0  0  0  2  0  0  0  0  0  0
  -18.2400  -26.7460   22.1900 C   0  0  0  0  0  2  0  0  0  0  0  0
  -19.2070  -28.8320   23.3180 C   0  0  0  0  0  0  0  0  0  0  0  0
  -19.0040  -30.0880   23.9310 C   0  0  0  0  0  3  0  0  0  0  0  0
  -17.7050  -30.5960   24.1160 C   0  0  0  0  0  3  0  0  0  0  0  0
  -16.5910  -29.8460   23.7030 C   0  0  0  0  0  3  0  0  0  0  0  0
  -16.7790  -28.5920   23.0940 C   0  0  0  0  0  3  0  0  0  0  0  0
  -25.9070  -32.5030   23.8190 C   0  0  0  0  0  3  0  0  0  0  0  0
  -26.4280  -31.7250   25.0910 C   0  0  1  0  0  0  0  0  0  0  0  0
  -25.3360  -31.4750   26.1570 C   0  0  0  0  0  1  0  0  0  0  0  0
  -27.0190  -30.3540   24.6880 C   0  0  0  0  0  1  0  0  0  0  0  0
  -27.5750  -32.5210   25.7600 C   0  0  0  0  0  1  0  0  0  0  0  0
  -25.5900  -33.8970   24.1590 N   0  0  0  0  0  0  0  0  0  0  0  0
  -25.9110  -34.9550   23.4030 C   0  0  0  0  0  0  0  0  0  0  0  0
  -26.5750  -34.8610   22.3670 O   0  0  0  0  0  0  0  0  0  0  0  0
  -25.0030  -34.0440   24.9650 H   0  0  0  0  0  0  0  0  0  0  0  0
  -24.1640  -36.7330   23.0680 C   0  0  0  0  0  1  0  0  0  0  0  0
  -25.4150  -36.3370   23.8680 C   0  0  0  0  0  3  0  0  0  0  0  0
  -27.5470  -37.2380   24.6900 C   0  0  0  0  0  1  0  0  0  0  0  0
  -26.4380  -37.3990   23.7530 N   0  0  0  0  0  0  0  0  0  0  0  0
  -26.0250  -38.3160   23.9050 H   0  0  0  0  0  0  0  0  0  0  0  0
  2  1  1  0
  3  2  1  0
  4  3  2  0
  5 17  1  0
  6 11  1  0
  7  8  1  0
  7  6  1  0
  9  8  1  0
  9 22  1  0
  9 10  1  0
 11  5  1  0
 11 10  1  0
 12  5  2  0
 13 18  2  0
 14 13  1  0
 15 17  1  0
 15 16  1  0
 16  4  1  0
 16 13  1  0
 17 14  1  0
 19 20  2  0
 20 39  1  0
 21 20  1  0
 21 24  1  0
 22 23  1  0
 22 19  1  0
 23 21  2  0
 24 25  1  0
 25 26  2  0
 27 30  1  0
 27 26  1  0
 28 27  2  0
 29 28  1  0
 29 24  2  0
 30 31  1  0
 31 36  2  0
 31 32  1  0
 32 33  2  0
 33 34  1  0
 34 38  1  0
 35 34  2  0
 36 35  1  0
 37 36  1  0
 39 40  1  0
 40 43  1  0
 40 42  1  0
 41 39  2  0
 44 19  1  0
 44 45  1  0
 46 44  1  0
 47 48  1  0
 47  2  1  0
 49 50  1  0
 49 48  1  0
 51 62  2  0
 52 50  1  0
 52 57  1  0
 53 61  1  0
 53 63  1  0
 54 60  1  0
 54 56  1  0
 55 61  1  0
 56 55  1  0
 57 56  2  0
 58 59  1  0
 58 52  2  0
 59 54  2  0
 60 53  1  0
 61 51  1  0
 63 65  2  0
 64 63  1  0
 66 64  1  0
 67 76  2  0
 67 72  1  0
 68 64  1  0
 68 72  1  0
 69 68  1  0
 70 71  1  0
 70 69  1  0
 71 67  1  0
 72 73  2  0
 73 74  1  0
 75 74  2  0
 76 75  1  0
 77 51  1  0
 77 82  1  0
 77 78  1  0
 78 81  1  1
 78 79  1  0
 80 78  1  0
 82 85  1  0
 83 87  1  0
 83 82  1  0
 84 83  2  0
 87 86  1  0
 89 87  1  0
 89 90  1  0
 89 88  1  0
M  ISO  4   5 100  17 100  49 101  50 101
M  END
>  <TORSDO>  (56) 
F 20

>  <SCORE>  (56) 
-12.634

>  <name>  (56) 
55

>  <ligand_id>  (56) 
55

>  <original_smiles>  (56) 
[H]C(=NC1([H])C(=O)C([H])([H])N(C(=O)N2C([H])([H])C([H])([H])C([H])([H])C([H])(n3nc(-c4c([H])c([H])c(Oc5c([H])c([H])c(F)c([H])c5F)c([H])c4[H])c(C(=O)N([H])[H])c3N([H])[H])C2([H])[H])C1([H])[H])C([H])(C([H])([H])[H])C([H])([H])C([H])([H])C([H])([H])Oc1c([H])c([H])c2c(c1[H])C([H])([H])N(C(=O)C([H])(N([H])C(=O)C([H])(N([H])C([H])([H])[H])C([H])([H])[H])C(C([H])([H])[H])(C([H])([H])[H])C([H])([H])[H])C([H])(C(=O)N([H])C1([H])c3c([H])c([H])c([H])c([H])c3C([H])([H])C([H])([H])C1([H])[H])C2([H])[H]

>  <smiles>  (56) 
[H]C(=NC1([H])C(=O)C([H])([H])N(C(=O)N2C([H])([H])C([H])([H])C([H])([H])C([H])(n3nc(-c4c([H])c([H])c(Oc5c([H])c([H])c(F)c([H])c5F)c([H])c4[H])c(C(=O)N([H])[H])c3N([H])[H])C2([H])[H])C1([H])[H])C([H])(C([H])([H])[H])C([H])([H])C([H])([H])C([H])([H])Oc1c([H])c([H])c2c(c1[H])C([H])([H])N(C(=O)C([H])(N([H])C(=O)C([H])(N([H])C([H])([H])[H])C([H])([H])[H])C(C([H])([H])[H])(C([H])([H])[H])C([H])([H])[H])C([H])(C(=O)N([H])C1([H])c3c([H])c([H])c([H])c([H])c3C([H])([H])C([H])([H])C1([H])[H])C2([H])[H]

$$$$
56:0:0
     RDKit          3D

 96105  0  0  1  0  0  0  0  0999 V2000
  -30.0420  -24.0210   21.7520 C   0  0  0  0  0  0  0  0  0  0  0  0
  -30.1380  -22.6930   21.9390 C   0  0  0  0  0  3  0  0  0  0  0  0
  -30.5330  -25.1940   22.5440 C   0  0  0  0  0  2  0  0  0  0  0  0
  -29.7430  -24.9110   20.5750 C   0  0  0  0  0  3  0  0  0  0  0  0
  -30.6800  -25.8370   21.2290 N   0  0  0  0  0  4  0  0  0  0  0  0
  -31.6090  -25.7250   20.8620 H   0  0  0  0  0  0  0  0  0  0  0  0
  -30.3750  -26.7970   21.1860 H   0  0  0  0  0  0  0  0  0  0  0  0
  -29.8180  -21.6390   20.8990 C   0  0  0  0  0  2  0  0  0  0  0  0
  -29.1590  -20.3700   21.4800 C   0  0  0  0  0  2  0  0  0  0  0  0
  -29.2090  -19.2830   19.1800 C   0  0  0  0  0  3  0  0  0  0  0  0
  -29.7200  -16.9170   18.8980 C   0  0  0  0  0  3  0  0  0  0  0  0
  -29.6130  -17.8830   21.1370 C   0  0  0  0  0  3  0  0  0  0  0  0
  -29.4130  -18.1740   18.3380 C   0  0  0  0  0  0  0  0  0  0  0  0
  -29.3290  -19.1510   20.5800 C   0  0  0  0  0  0  0  0  0  0  0  0
  -29.8190  -16.7620   20.3020 C   0  0  0  0  0  0  0  0  0  0  0  0
  -29.2920  -18.3450   16.8380 C   0  0  0  0  0  1  0  0  0  0  0  0
  -30.7210  -14.4890   20.3040 C   0  0  0  0  0  0  0  0  0  0  0  0
  -30.3750  -12.3550   19.1430 C   0  0  0  0  0  2  0  0  0  0  0  0
  -29.4270  -12.6250   17.9560 C   0  0  0  0  0  2  0  0  0  0  0  0
  -27.9530  -12.5180   18.3980 C   0  0  0  0  0  2  0  0  0  0  0  0
  -27.6510  -13.3230   19.6890 C   0  0  0  0  0  3  0  0  0  0  0  0
  -28.7140  -13.0420   20.7780 C   0  0  0  0  0  2  0  0  0  0  0  0
  -30.0450  -13.3170   20.2030 N   0  0  0  0  0  0  0  0  0  0  0  0
  -31.8260  -14.6890   19.7870 O   0  0  0  0  0  0  0  0  0  0  0  0
  -30.0430  -15.4870   20.8920 N   0  0  0  0  0  0  0  0  0  0  0  0
  -29.3380  -15.1930   21.5520 H   0  0  0  0  0  0  0  0  0  0  0  0
  -25.2620  -13.9530   20.4190 C   0  0  0  0  0  0  0  0  0  0  0  0
  -24.1920  -13.1910   20.8040 C   0  0  0  0  0  0  0  0  0  0  0  0
  -24.6410  -11.8340   20.7720 C   0  0  0  0  0  0  0  0  0  0  0  0
  -26.2980  -13.0630   20.1790 N   0  0  0  0  0  0  0  0  0  0  0  0
  -25.9270  -11.7840   20.4450 N   0  0  0  0  0  0  0  0  0  0  0  0
  -23.9090  -10.5780   20.9790 C   0  0  0  0  0  0  0  0  0  0  0  0
  -24.3470   -9.6150   21.9140 C   0  0  0  0  0  3  0  0  0  0  0  0
  -23.6170   -8.4220   22.1090 C   0  0  0  0  0  3  0  0  0  0  0  0
  -22.4340   -8.1850   21.3670 C   0  0  0  0  0  0  0  0  0  0  0  0
  -22.0150   -9.1380   20.4220 C   0  0  0  0  0  3  0  0  0  0  0  0
  -22.7460  -10.3210   20.2260 C   0  0  0  0  0  3  0  0  0  0  0  0
  -21.6770   -7.0440   21.4670 O   0  0  0  0  0  0  0  0  0  0  0  0
  -21.6340   -6.3090   22.6250 C   0  0  0  0  0  0  0  0  0  0  0  0
  -21.2350   -6.8770   23.8540 C   0  0  0  0  0  3  0  0  0  0  0  0
  -21.1370   -6.0700   25.0050 C   0  0  0  0  0  3  0  0  0  0  0  0
  -21.4270   -4.6940   24.9280 C   0  0  0  0  0  0  0  0  0  0  0  0
  -21.8200   -4.1260   23.7040 C   0  0  0  0  0  3  0  0  0  0  0  0
  -21.9200   -4.9310   22.5550 C   0  0  0  0  0  0  0  0  0  0  0  0
  -22.2770   -4.3730   21.3740 F   0  0  0  0  0  0  0  0  0  0  0  0
  -21.3270   -3.9170   26.0310 F   0  0  0  0  0  0  0  0  0  0  0  0
  -22.8010  -13.6790   21.0920 C   0  0  0  0  0  0  0  0  0  0  0  0
  -22.0790  -12.9930   21.9730 N   0  0  0  0  0  0  0  0  0  0  0  0
  -22.3630  -14.7060   20.5770 O   0  0  0  0  0  0  0  0  0  0  0  0
  -22.4450  -12.1650   22.4160 H   0  0  0  0  0  0  0  0  0  0  0  0
  -21.1480  -13.3070   22.2090 H   0  0  0  0  0  0  0  0  0  0  0  0
  -25.4360  -15.3210   20.2350 N   0  0  0  0  0  0  0  0  0  0  0  0
  -24.6850  -15.9900   20.3680 H   0  0  0  0  0  0  0  0  0  0  0  0
  -26.2910  -15.7460   19.8980 H   0  0  0  0  0  0  0  0  0  0  0  0
  -28.3180  -25.4780   20.5510 C   0  0  0  0  0  2  0  0  0  0  0  0
  -28.3690  -26.8050   20.0240 O   0  0  0  0  0  0  0  0  0  0  0  0
  -24.5390  -31.8940   23.1770 C   0  0  0  0  0  0  0  0  0  0  0  0
  -27.1820  -27.4960   20.0570 C   0  0  0  0  0  0  0  0  0  0  0  0
  -23.3270  -30.4930   21.5380 C   0  0  0  0  0  3  0  0  0  0  0  0
  -24.7760  -28.9660   20.1000 C   0  0  0  0  0  0  0  0  0  0  0  0
  -25.8460  -30.8710   21.3190 C   0  0  0  0  0  2  0  0  0  0  0  0
  -25.9340  -29.5040   20.6760 C   0  0  0  0  0  0  0  0  0  0  0  0
  -27.1430  -28.7770   20.6480 C   0  0  0  0  0  3  0  0  0  0  0  0
  -26.0080  -26.9620   19.4850 C   0  0  0  0  0  3  0  0  0  0  0  0
  -24.8060  -27.6930   19.5040 C   0  0  0  0  0  3  0  0  0  0  0  0
  -23.5280  -29.8160   20.1550 C   0  0  0  0  0  2  0  0  0  0  0  0
  -24.5890  -31.1000   22.0700 N   0  0  0  0  0  0  0  0  0  0  0  0
  -23.4610  -32.1590   23.7270 O   0  0  0  0  0  0  0  0  0  0  0  0
  -22.6880  -29.4650   22.4980 C   0  0  0  0  0  0  0  0  0  0  0  0
  -21.3640  -29.2810   22.3820 N   0  0  0  0  0  0  0  0  0  0  0  0
  -23.3800  -28.8350   23.3020 O   0  0  0  0  0  0  0  0  0  0  0  0
  -20.8660  -29.8400   21.7040 H   0  0  0  0  0  0  0  0  0  0  0  0
  -17.9950  -28.0770   22.8950 C   0  0  0  0  0  0  0  0  0  0  0  0
  -20.5540  -28.3390   23.1530 C   0  0  0  0  0  3  0  0  0  0  0  0
  -20.6560  -26.9090   22.5700 C   0  0  0  0  0  2  0  0  0  0  0  0
  -19.5480  -26.5890   21.5610 C   0  0  0  0  0  2  0  0  0  0  0  0
  -18.1700  -26.7310   22.2140 C   0  0  0  0  0  2  0  0  0  0  0  0
  -19.1150  -28.8390   23.3210 C   0  0  0  0  0  0  0  0  0  0  0  0
  -18.9000  -30.1010   23.9180 C   0  0  0  0  0  3  0  0  0  0  0  0
  -17.5950  -30.6020   24.0910 C   0  0  0  0  0  3  0  0  0  0  0  0
  -16.4890  -29.8360   23.6820 C   0  0  0  0  0  3  0  0  0  0  0  0
  -16.6910  -28.5760   23.0900 C   0  0  0  0  0  3  0  0  0  0  0  0
  -25.8290  -32.5270   23.7890 C   0  0  0  0  0  3  0  0  0  0  0  0
  -26.3680  -31.7440   25.0490 C   0  0  1  0  0  0  0  0  0  0  0  0
  -25.2910  -31.4860   26.1290 C   0  0  0  0  0  1  0  0  0  0  0  0
  -26.9540  -30.3750   24.6300 C   0  0  0  0  0  1  0  0  0  0  0  0
  -27.5220  -32.5370   25.7050 C   0  0  0  0  0  1  0  0  0  0  0  0
  -25.5140  -33.9180   24.1360 N   0  0  0  0  0  0  0  0  0  0  0  0
  -25.8440  -34.9810   23.3890 C   0  0  0  0  0  0  0  0  0  0  0  0
  -26.5150  -34.8920   22.3580 O   0  0  0  0  0  0  0  0  0  0  0  0
  -24.9190  -34.0610   24.9390 H   0  0  0  0  0  0  0  0  0  0  0  0
  -24.1130  -36.7730   23.0460 C   0  0  0  0  0  1  0  0  0  0  0  0
  -25.3490  -36.3620   23.8620 C   0  0  0  0  0  3  0  0  0  0  0  0
  -27.4760  -37.2360   24.7200 C   0  0  0  0  0  1  0  0  0  0  0  0
  -26.3800  -37.4180   23.7720 N   0  0  0  0  0  0  0  0  0  0  0  0
  -25.9710  -38.3350   23.9320 H   0  0  0  0  0  0  0  0  0  0  0  0
  1  2  2  0
  1  3  1  0
  4 55  1  0
  4  5  1  0
  4  1  1  0
  5  3  1  0
  6  5  1  0
  7  5  1  0
  8  9  1  0
  8  2  1  0
 10 14  1  0
 11 15  2  0
 13 11  1  0
 13 10  2  0
 14 12  2  0
 14  9  1  0
 15 25  1  0
 15 12  1  0
 16 13  1  0
 17 25  1  0
 18 23  1  0
 19 20  1  0
 19 18  1  0
 21 20  1  0
 21 30  1  0
 21 22  1  0
 23 17  1  0
 23 22  1  0
 24 17  2  0
 25 26  1  0
 27 28  2  0
 28 47  1  0
 29 28  1  0
 29 32  1  0
 30 27  1  0
 30 31  1  0
 31 29  2  0
 32 33  1  0
 33 34  2  0
 35 38  1  0
 35 34  1  0
 36 35  2  0
 37 36  1  0
 37 32  2  0
 38 39  1  0
 39 40  1  0
 40 41  2  0
 42 41  1  0
 42 46  1  0
 43 42  2  0
 44 39  2  0
 44 43  1  0
 45 44  1  0
 47 48  1  0
 48 51  1  0
 48 50  1  0
 49 47  2  0
 52 53  1  0
 52 27  1  0
 54 52  1  0
 56 58  1  0
 56 55  1  0
 57 68  2  0
 58 63  1  0
 59 67  1  0
 59 69  1  0
 60 66  1  0
 60 62  1  0
 61 67  1  0
 62 61  1  0
 63 62  2  0
 64 65  1  0
 64 58  2  0
 65 60  2  0
 66 59  1  0
 67 57  1  0
 69 71  2  0
 70 69  1  0
 72 70  1  0
 73 82  2  0
 73 78  1  0
 74 70  1  0
 74 78  1  0
 75 74  1  0
 76 77  1  0
 76 75  1  0
 77 73  1  0
 78 79  2  0
 79 80  1  0
 81 80  2  0
 82 81  1  0
 83 57  1  0
 83 88  1  0
 83 84  1  0
 84 87  1  1
 84 85  1  0
 86 84  1  0
 88 91  1  0
 89 93  1  0
 89 88  1  0
 90 89  2  0
 93 92  1  0
 95 93  1  0
 95 96  1  0
 95 94  1  0
M  ISO  4  17 100  25 100  55 101  56 101
M  END
>  <TORSDO>  (57) 
F 20

>  <SCORE>  (57) 
-13.311

>  <name>  (57) 
56

>  <ligand_id>  (57) 
56

>  <original_smiles>  (57) 
[H]C(=C1C([H])([H])[N+]([H])([H])C1([H])C([H])([H])Oc1c([H])c([H])c2c(c1[H])C([H])([H])N(C(=O)C([H])(N([H])C(=O)C([H])(N([H])C([H])([H])[H])C([H])([H])[H])C(C([H])([H])[H])(C([H])([H])[H])C([H])([H])[H])C([H])(C(=O)N([H])C1([H])c3c([H])c([H])c([H])c([H])c3C([H])([H])C([H])([H])C1([H])[H])C2([H])[H])C([H])([H])C([H])([H])c1c([H])c(N([H])C(=O)N2C([H])([H])C([H])([H])C([H])([H])C([H])(n3nc(-c4c([H])c([H])c(Oc5c([H])c([H])c(F)c([H])c5F)c([H])c4[H])c(C(=O)N([H])[H])c3N([H])[H])C2([H])[H])c([H])c(C([H])([H])[H])c1[H]

>  <smiles>  (57) 
[H]C(=C1C([H])([H])[N+]([H])([H])C1([H])C([H])([H])Oc1c([H])c([H])c2c(c1[H])C([H])([H])N(C(=O)C([H])(N([H])C(=O)C([H])(N([H])C([H])([H])[H])C([H])([H])[H])C(C([H])([H])[H])(C([H])([H])[H])C([H])([H])[H])C([H])(C(=O)N([H])C1([H])c3c([H])c([H])c([H])c([H])c3C([H])([H])C([H])([H])C1([H])[H])C2([H])[H])C([H])([H])C([H])([H])c1c([H])c(N([H])C(=O)N2C([H])([H])C([H])([H])C([H])([H])C([H])(n3nc(-c4c([H])c([H])c(Oc5c([H])c([H])c(F)c([H])c5F)c([H])c4[H])c(C(=O)N([H])[H])c3N([H])[H])C2([H])[H])c([H])c(C([H])([H])[H])c1[H]

$$$$
57:0:0
     RDKit          3D

103111  0  0  1  0  0  0  0  0999 V2000
  -30.8940  -21.2730   22.2540 C   0  0  0  0  0  3  0  0  0  0  0  0
  -32.2400  -20.7800   22.6380 N   0  0  0  0  0  4  0  0  0  0  0  0
  -32.7200  -20.3450   21.8730 H   0  0  0  0  0  0  0  0  0  0  0  0
  -32.2320  -20.1730   23.4410 H   0  0  0  0  0  0  0  0  0  0  0  0
  -32.7680  -21.6120   22.8500 H   0  0  0  0  0  0  0  0  0  0  0  0
  -31.1840  -22.7210   21.7040 C   0  0  0  0  0  0  0  0  0  0  0  0
  -32.3680  -23.0620   21.5490 O   0  0  0  0  0  0  0  0  0  0  0  0
  -28.7060  -23.4080   21.3740 C   0  0  0  0  0  3  0  0  0  0  0  0
  -30.4870  -24.9700   20.8450 C   0  0  0  0  0  3  0  0  0  0  0  0
  -27.7680  -24.2990   20.7980 C   0  0  0  0  0  3  0  0  0  0  0  0
  -29.5520  -25.8590   20.2810 C   0  0  0  0  0  3  0  0  0  0  0  0
  -30.0940  -23.7010   21.3390 C   0  0  0  0  0  0  0  0  0  0  0  0
  -28.2010  -25.5020   20.1920 C   0  0  0  0  0  0  0  0  0  0  0  0
  -27.4380  -26.2160   19.3030 O   0  0  0  0  0  0  0  0  0  0  0  0
  -24.7500  -31.4250   23.3990 C   0  0  0  0  0  0  0  0  0  0  0  0
  -26.3960  -27.0260   19.6700 C   0  0  0  0  0  0  0  0  0  0  0  0
  -23.2070  -30.4140   21.7530 C   0  0  0  0  0  3  0  0  0  0  0  0
  -24.2760  -28.8370   20.0600 C   0  0  0  0  0  0  0  0  0  0  0  0
  -25.7310  -30.4140   21.3490 C   0  0  0  0  0  2  0  0  0  0  0  0
  -25.5450  -29.1240   20.5810 C   0  0  0  0  0  0  0  0  0  0  0  0
  -26.6170  -28.2280   20.3730 C   0  0  0  0  0  3  0  0  0  0  0  0
  -25.1180  -26.7480   19.1530 C   0  0  0  0  0  3  0  0  0  0  0  0
  -24.0530  -27.6520   19.3410 C   0  0  0  0  0  3  0  0  0  0  0  0
  -23.1910  -29.8610   20.3040 C   0  0  0  0  0  2  0  0  0  0  0  0
  -24.5870  -30.7570   22.2240 N   0  0  0  0  0  0  0  0  0  0  0  0
  -23.7730  -31.7950   24.0680 O   0  0  0  0  0  0  0  0  0  0  0  0
  -22.4770  -29.4070   22.6700 C   0  0  0  0  0  0  0  0  0  0  0  0
  -21.1390  -29.3480   22.5490 N   0  0  0  0  0  0  0  0  0  0  0  0
  -23.1090  -28.6780   23.4400 O   0  0  0  0  0  0  0  0  0  0  0  0
  -20.6920  -29.9680   21.8870 H   0  0  0  0  0  0  0  0  0  0  0  0
  -17.6920  -28.3410   22.9320 C   0  0  0  0  0  0  0  0  0  0  0  0
  -20.2520  -28.4510   23.2840 C   0  0  0  0  0  3  0  0  0  0  0  0
  -20.2930  -27.0250   22.6870 C   0  0  0  0  0  2  0  0  0  0  0  0
  -19.2060  -26.7780   21.6350 C   0  0  0  0  0  2  0  0  0  0  0  0
  -17.8150  -26.9930   22.2400 C   0  0  0  0  0  2  0  0  0  0  0  0
  -18.8390  -29.0310   23.4060 C   0  0  0  0  0  0  0  0  0  0  0  0
  -18.6740  -30.2980   24.0080 C   0  0  0  0  0  3  0  0  0  0  0  0
  -17.3940  -30.8690   24.1460 C   0  0  0  0  0  3  0  0  0  0  0  0
  -16.2610  -30.1720   23.6930 C   0  0  0  0  0  3  0  0  0  0  0  0
  -16.4110  -28.9120   23.0880 C   0  0  0  0  0  3  0  0  0  0  0  0
  -26.1680  -31.7790   23.9510 C   0  0  0  0  0  3  0  0  0  0  0  0
  -26.6930  -30.7480   25.0230 C   0  0  1  0  0  0  0  0  0  0  0  0
  -25.6730  -30.4480   26.1450 C   0  0  0  0  0  1  0  0  0  0  0  0
  -27.0620  -29.4000   24.3610 C   0  0  0  0  0  1  0  0  0  0  0  0
  -27.9890  -31.2850   25.6750 C   0  0  0  0  0  1  0  0  0  0  0  0
  -26.0930  -33.1320   24.5130 N   0  0  0  0  0  0  0  0  0  0  0  0
  -26.5590  -34.2360   23.9090 C   0  0  0  0  0  0  0  0  0  0  0  0
  -27.1690  -34.2060   22.8350 O   0  0  0  0  0  0  0  0  0  0  0  0
  -25.5430  -33.2410   25.3530 H   0  0  0  0  0  0  0  0  0  0  0  0
  -25.1420  -36.3140   23.9200 C   0  0  0  0  0  1  0  0  0  0  0  0
  -26.3110  -35.5880   24.6060 C   0  0  0  0  0  3  0  0  0  0  0  0
  -28.5670  -35.9730   25.4930 C   0  0  0  0  0  1  0  0  0  0  0  0
  -27.5020  -36.4670   24.6250 N   0  0  0  0  0  0  0  0  0  0  0  0
  -27.2510  -37.4050   24.9300 H   0  0  0  0  0  0  0  0  0  0  0  0
  -29.8620  -20.7080   19.8970 C   0  0  0  0  0  1  0  0  0  0  0  0
  -30.0920  -20.2080   21.3590 C   0  0  0  0  0  3  0  0  0  0  0  0
  -30.7800  -18.4420   23.0770 C   0  0  0  0  0  1  0  0  0  0  0  0
  -30.6570  -18.7110   21.5430 C   0  0  0  0  0  3  0  0  0  0  0  0
  -29.9530  -17.4300   20.9120 C   0  0  0  0  0  3  0  0  0  0  0  0
  -30.6620  -16.0790   21.3420 C   0  0  0  0  0  2  0  0  0  0  0  0
  -30.6550  -13.8110   20.2250 C   0  0  0  0  0  0  0  0  0  0  0  0
  -30.3630  -11.5550   19.2610 C   0  0  0  0  0  2  0  0  0  0  0  0
  -29.4130  -11.6010   18.0500 C   0  0  0  0  0  2  0  0  0  0  0  0
  -27.9460  -11.4610   18.5140 C   0  0  0  0  0  2  0  0  0  0  0  0
  -27.5930  -12.4400   19.6670 C   0  0  0  0  0  3  0  0  0  0  0  0
  -28.6560  -12.3750   20.7810 C   0  0  0  0  0  2  0  0  0  0  0  0
  -29.9720  -12.6400   20.1710 N   0  0  0  0  0  0  0  0  0  0  0  0
  -31.7540  -13.9740   19.6810 O   0  0  0  0  0  0  0  0  0  0  0  0
  -30.0450  -14.8190   20.8700 N   0  0  0  0  0  0  0  0  0  0  0  0
  -29.1200  -14.6090   21.2160 H   0  0  0  0  0  0  0  0  0  0  0  0
  -25.2240  -13.1030   20.4310 C   0  0  0  0  0  0  0  0  0  0  0  0
  -24.1580  -12.3560   20.8520 C   0  0  0  0  0  0  0  0  0  0  0  0
  -24.5960  -10.9960   20.8370 C   0  0  0  0  0  0  0  0  0  0  0  0
  -26.2500  -12.2010   20.1920 N   0  0  0  0  0  0  0  0  0  0  0  0
  -25.8780  -10.9290   20.4970 N   0  0  0  0  0  0  0  0  0  0  0  0
  -23.8540   -9.7510   21.0820 C   0  0  0  0  0  0  0  0  0  0  0  0
  -24.2910   -8.8170   22.0460 C   0  0  0  0  0  3  0  0  0  0  0  0
  -23.5610   -7.6320   22.2750 C   0  0  0  0  0  3  0  0  0  0  0  0
  -22.3750   -7.3800   21.5460 C   0  0  0  0  0  0  0  0  0  0  0  0
  -21.9570   -8.3010   20.5690 C   0  0  0  0  0  3  0  0  0  0  0  0
  -22.6890   -9.4770   20.3360 C   0  0  0  0  0  3  0  0  0  0  0  0
  -21.6120   -6.2440   21.6840 O   0  0  0  0  0  0  0  0  0  0  0  0
  -21.5490   -5.5590   22.8700 C   0  0  0  0  0  0  0  0  0  0  0  0
  -21.0520   -6.1530   24.0510 C   0  0  0  0  0  3  0  0  0  0  0  0
  -20.9480   -5.3910   25.2320 C   0  0  0  0  0  3  0  0  0  0  0  0
  -21.3190   -4.0320   25.2290 C   0  0  0  0  0  0  0  0  0  0  0  0
  -21.8050   -3.4380   24.0500 C   0  0  0  0  0  3  0  0  0  0  0  0
  -21.9170   -4.1980   22.8730 C   0  0  0  0  0  0  0  0  0  0  0  0
  -22.3660   -3.6170   21.7330 F   0  0  0  0  0  0  0  0  0  0  0  0
  -21.2100   -3.2930   26.3580 F   0  0  0  0  0  0  0  0  0  0  0  0
  -22.7750  -12.8600   21.1540 C   0  0  0  0  0  0  0  0  0  0  0  0
  -22.0700  -12.2020   22.0690 N   0  0  0  0  0  0  0  0  0  0  0  0
  -22.3260  -13.8690   20.6080 O   0  0  0  0  0  0  0  0  0  0  0  0
  -22.4460  -11.3910   22.5380 H   0  0  0  0  0  0  0  0  0  0  0  0
  -21.1390  -12.5110   22.3040 H   0  0  0  0  0  0  0  0  0  0  0  0
  -25.3950  -14.4670   20.2140 N   0  0  0  0  0  0  0  0  0  0  0  0
  -24.6170  -15.1160   20.2980 H   0  0  0  0  0  0  0  0  0  0  0  0
  -26.2350  -14.9040   19.8600 H   0  0  0  0  0  0  0  0  0  0  0  0
  -29.8110  -17.4270   19.3610 C   0  0  0  0  0  2  0  0  0  0  0  0
  -28.3980  -17.5730   18.9560 N   0  0  0  0  0  4  0  0  0  0  0  0
  -27.8590  -16.8410   19.3770 H   0  0  0  0  0  0  0  0  0  0  0  0
  -28.2850  -17.5170   17.9570 H   0  0  0  0  0  0  0  0  0  0  0  0
  -28.0220  -18.4460   19.2700 H   0  0  0  0  0  0  0  0  0  0  0  0
  1  6  1  0
  1  2  1  0
  2  5  1  0
  2  4  1  0
  3  2  1  0
  7  6  2  0
  9 12  2  0
 10  8  2  0
 11  9  1  0
 12  8  1  0
 12  6  1  0
 13 11  2  0
 13 10  1  0
 14 16  1  0
 14 13  1  0
 15 26  2  0
 16 21  1  0
 17 25  1  0
 17 27  1  0
 18 24  1  0
 18 20  1  0
 19 25  1  0
 20 19  1  0
 21 20  2  0
 22 23  1  0
 22 16  2  0
 23 18  2  0
 24 17  1  0
 25 15  1  0
 27 29  2  0
 28 27  1  0
 30 28  1  0
 31 40  2  0
 31 36  1  0
 32 28  1  0
 32 36  1  0
 33 32  1  0
 34 35  1  0
 34 33  1  0
 35 31  1  0
 36 37  2  0
 37 38  1  0
 39 38  2  0
 40 39  1  0
 41 15  1  0
 41 46  1  0
 41 42  1  0
 42 45  1  1
 42 43  1  0
 44 42  1  0
 46 49  1  0
 47 46  1  0
 47 51  1  0
 48 47  2  0
 51 50  1  0
 51 53  1  0
 53 54  1  0
 53 52  1  0
 56 55  1  0
 56 58  1  0
 56  1  1  0
 58 57  1  0
 59 99  1  0
 59 60  1  0
 59 58  1  0
 61 69  1  0
 62 67  1  0
 63 64  1  0
 63 62  1  0
 65 64  1  0
 65 74  1  0
 65 66  1  0
 67 61  1  0
 67 66  1  0
 68 61  2  0
 69 70  1  0
 69 60  1  0
 71 72  2  0
 72 91  1  0
 73 72  1  0
 73 76  1  0
 74 71  1  0
 74 75  1  0
 75 73  2  0
 76 77  1  0
 77 78  2  0
 79 82  1  0
 79 78  1  0
 80 79  2  0
 81 80  1  0
 81 76  2  0
 82 83  1  0
 83 88  2  0
 83 84  1  0
 84 85  2  0
 86 85  1  0
 86 90  1  0
 87 86  2  0
 88 87  1  0
 89 88  1  0
 91 92  1  0
 92 95  1  0
 92 94  1  0
 93 91  2  0
 96 97  1  0
 96 71  1  0
 98 96  1  0
100103  1  0
100 99  1  0
100101  1  0
102100  1  0
M  ISO  4  13 101  14 101  61 100  69 100
M  END
>  <TORSDO>  (58) 
F 25

>  <SCORE>  (58) 
-9.804

>  <name>  (58) 
57

>  <ligand_id>  (58) 
57

>  <original_smiles>  (58) 
[H]c1c([H])c([H])c2c(c1[H])C([H])([H])C([H])([H])C([H])([H])C2([H])N([H])C(=O)C1([H])N(C(=O)C([H])(N([H])C(=O)C([H])(N([H])C([H])([H])[H])C([H])([H])[H])C(C([H])([H])[H])(C([H])([H])[H])C([H])([H])[H])C([H])([H])c2c([H])c(Oc3c([H])c([H])c(C(=O)C([H])(C([H])(C([H])([H])[H])C([H])(C([H])([H])[H])C([H])(C([H])([H])N([H])C(=O)N4C([H])([H])C([H])([H])C([H])([H])C([H])(n5nc(-c6c([H])c([H])c(Oc7c([H])c([H])c(F)c([H])c7F)c([H])c6[H])c(C(=O)N([H])[H])c5N([H])[H])C4([H])[H])C([H])([H])[N+]([H])([H])[H])[N+]([H])([H])[H])c([H])c3[H])c([H])c([H])c2C1([H])[H]

>  <smiles>  (58) 
[H]c1c([H])c([H])c2c(c1[H])C([H])([H])C([H])([H])C([H])([H])C2([H])N([H])C(=O)C1([H])N(C(=O)C([H])(N([H])C(=O)C([H])(N([H])C([H])([H])[H])C([H])([H])[H])C(C([H])([H])[H])(C([H])([H])[H])C([H])([H])[H])C([H])([H])c2c([H])c(Oc3c([H])c([H])c(C(=O)C([H])(C([H])(C([H])([H])[H])C([H])(C([H])([H])[H])C([H])(C([H])([H])N([H])C(=O)N4C([H])([H])C([H])([H])C([H])([H])C([H])(n5nc(-c6c([H])c([H])c(Oc7c([H])c([H])c(F)c([H])c7F)c([H])c6[H])c(C(=O)N([H])[H])c5N([H])[H])C4([H])[H])C([H])([H])[N+]([H])([H])[H])[N+]([H])([H])[H])c([H])c3[H])c([H])c([H])c2C1([H])[H]

$$$$
58:0:0
     RDKit          3D

 94102  0  0  1  0  0  0  0  0999 V2000
  -28.7800  -21.2790   20.2480 C   0  0  0  0  0  3  0  0  0  0  0  0
  -29.1860  -22.5710   20.9720 N   0  0  0  0  0  4  0  0  0  0  0  0
  -28.7040  -22.5990   21.8580 H   0  0  0  0  0  0  0  0  0  0  0  0
  -30.1380  -22.3340   21.2190 H   0  0  0  0  0  0  0  0  0  0  0  0
  -29.2710  -23.9920   20.3740 C   0  0  0  0  0  3  0  0  0  0  0  0
  -28.0860  -25.0460   20.6160 C   0  0  0  0  0  3  0  0  0  0  0  0
  -28.3110  -26.4900   20.2960 O   0  0  0  0  0  0  0  0  0  0  0  0
  -24.5490  -31.9080   23.2610 C   0  0  0  0  0  0  0  0  0  0  0  0
  -27.1940  -27.3460   20.2430 C   0  0  0  0  0  0  0  0  0  0  0  0
  -23.3580  -30.5040   21.6170 C   0  0  0  0  0  3  0  0  0  0  0  0
  -24.8230  -28.9560   20.2050 C   0  0  0  0  0  0  0  0  0  0  0  0
  -25.8990  -30.8320   21.4470 C   0  0  0  0  0  2  0  0  0  0  0  0
  -25.9890  -29.4520   20.8030 C   0  0  0  0  0  0  0  0  0  0  0  0
  -27.1790  -28.6620   20.8050 C   0  0  0  0  0  3  0  0  0  0  0  0
  -26.0080  -26.9150   19.6040 C   0  0  0  0  0  3  0  0  0  0  0  0
  -24.8370  -27.6940   19.5920 C   0  0  0  0  0  3  0  0  0  0  0  0
  -23.5810  -29.8230   20.2400 C   0  0  0  0  0  2  0  0  0  0  0  0
  -24.6210  -31.0970   22.1650 N   0  0  0  0  0  0  0  0  0  0  0  0
  -23.4620  -32.1820   23.7910 O   0  0  0  0  0  0  0  0  0  0  0  0
  -22.6930  -29.4870   22.5760 C   0  0  0  0  0  0  0  0  0  0  0  0
  -21.3710  -29.2940   22.4300 N   0  0  0  0  0  0  0  0  0  0  0  0
  -23.3670  -28.8730   23.4090 O   0  0  0  0  0  0  0  0  0  0  0  0
  -20.8860  -29.8410   21.7330 H   0  0  0  0  0  0  0  0  0  0  0  0
  -17.9990  -28.0760   22.9020 C   0  0  0  0  0  0  0  0  0  0  0  0
  -20.5530  -28.3530   23.1970 C   0  0  0  0  0  3  0  0  0  0  0  0
  -20.6690  -26.9210   22.6260 C   0  0  0  0  0  2  0  0  0  0  0  0
  -19.5800  -26.5870   21.6010 C   0  0  0  0  0  2  0  0  0  0  0  0
  -18.1910  -26.7250   22.2320 C   0  0  0  0  0  2  0  0  0  0  0  0
  -19.1080  -28.8470   23.3410 C   0  0  0  0  0  0  0  0  0  0  0  0
  -18.8750  -30.1110   23.9260 C   0  0  0  0  0  3  0  0  0  0  0  0
  -17.5660  -30.6040   24.0770 C   0  0  0  0  0  3  0  0  0  0  0  0
  -16.4710  -29.8300   23.6540 C   0  0  0  0  0  3  0  0  0  0  0  0
  -16.6890  -28.5690   23.0740 C   0  0  0  0  0  3  0  0  0  0  0  0
  -25.8260  -32.5440   23.8910 C   0  0  0  0  0  3  0  0  0  0  0  0
  -26.3170  -31.7970   25.1920 C   0  0  1  0  0  0  0  0  0  0  0  0
  -25.2030  -31.5880   26.2440 C   0  0  0  0  0  1  0  0  0  0  0  0
  -26.9010  -30.4090   24.8410 C   0  0  0  0  0  1  0  0  0  0  0  0
  -27.4570  -32.6030   25.8600 C   0  0  0  0  0  1  0  0  0  0  0  0
  -25.5180  -33.9500   24.1890 N   0  0  0  0  0  0  0  0  0  0  0  0
  -25.8780  -34.9880   23.4220 C   0  0  0  0  0  0  0  0  0  0  0  0
  -26.5720  -34.8630   22.4090 O   0  0  0  0  0  0  0  0  0  0  0  0
  -24.9050  -34.1220   24.9720 H   0  0  0  0  0  0  0  0  0  0  0  0
  -24.1900  -36.7990   22.9760 C   0  0  0  0  0  1  0  0  0  0  0  0
  -25.3900  -36.3870   23.8440 C   0  0  0  0  0  3  0  0  0  0  0  0
  -27.4930  -37.2560   24.7660 C   0  0  0  0  0  1  0  0  0  0  0  0
  -26.4400  -37.4260   23.7670 N   0  0  0  0  0  0  0  0  0  0  0  0
  -26.0390  -38.3520   23.8820 H   0  0  0  0  0  0  0  0  0  0  0  0
  -29.7440  -20.0800   20.7620 C   0  0  0  0  0  0  0  0  0  0  0  0
  -30.8880  -20.3540   21.1350 O   0  0  0  0  0  0  0  0  0  0  0  0
  -29.3070  -18.5420   20.8320 C   0  0  0  0  0  2  0  0  0  0  0  0
  -30.6800  -14.7750   20.4050 C   0  0  0  0  0  0  0  0  0  0  0  0
  -30.4270  -12.5320   19.3750 C   0  0  0  0  0  2  0  0  0  0  0  0
  -29.4930  -12.6200   18.1490 C   0  0  0  0  0  2  0  0  0  0  0  0
  -28.0210  -12.4610   18.5720 C   0  0  0  0  0  2  0  0  0  0  0  0
  -27.6470  -13.3440   19.7960 C   0  0  0  0  0  3  0  0  0  0  0  0
  -28.7030  -13.2630   20.9160 C   0  0  0  0  0  2  0  0  0  0  0  0
  -30.0020  -13.5870   20.3170 N   0  0  0  0  0  0  0  0  0  0  0  0
  -31.9050  -14.7910   20.2810 O   0  0  0  0  0  0  0  0  0  0  0  0
  -30.9700  -17.3990   19.0870 C   0  0  0  0  0  2  0  0  0  0  0  0
  -29.8580  -16.3920   18.8090 C   0  0  0  0  0  2  0  0  0  0  0  0
  -30.4110  -17.4140   20.5010 C   0  0  0  0  0  3  0  0  0  0  0  0
  -29.9590  -15.9610   20.2250 N   0  0  0  0  0  0  0  0  0  0  0  0
  -25.2540  -13.9220   20.5220 C   0  0  0  0  0  0  0  0  0  0  0  0
  -24.1890  -13.1410   20.8820 C   0  0  0  0  0  0  0  0  0  0  0  0
  -24.6610  -11.7930   20.8540 C   0  0  0  0  0  0  0  0  0  0  0  0
  -26.3040  -13.0470   20.2880 N   0  0  0  0  0  0  0  0  0  0  0  0
  -25.9540  -11.7630   20.5560 N   0  0  0  0  0  0  0  0  0  0  0  0
  -23.9410  -10.5260   21.0360 C   0  0  0  0  0  0  0  0  0  0  0  0
  -24.3560   -9.5660   21.9870 C   0  0  0  0  0  3  0  0  0  0  0  0
  -23.6350   -8.3640   22.1550 C   0  0  0  0  0  3  0  0  0  0  0  0
  -22.4840   -8.1130   21.3730 C   0  0  0  0  0  0  0  0  0  0  0  0
  -22.0890   -9.0580   20.4080 C   0  0  0  0  0  3  0  0  0  0  0  0
  -22.8120  -10.2500   20.2380 C   0  0  0  0  0  3  0  0  0  0  0  0
  -21.7350   -6.9630   21.4510 O   0  0  0  0  0  0  0  0  0  0  0  0
  -21.6380   -6.2430   22.6130 C   0  0  0  0  0  0  0  0  0  0  0  0
  -21.1080   -6.8060   23.7950 C   0  0  0  0  0  3  0  0  0  0  0  0
  -20.9640   -6.0110   24.9510 C   0  0  0  0  0  3  0  0  0  0  0  0
  -21.3350   -4.6550   24.9230 C   0  0  0  0  0  0  0  0  0  0  0  0
  -21.8580   -4.0910   23.7460 C   0  0  0  0  0  3  0  0  0  0  0  0
  -22.0050   -4.8820   22.5940 C   0  0  0  0  0  0  0  0  0  0  0  0
  -22.4870   -4.3300   21.4550 F   0  0  0  0  0  0  0  0  0  0  0  0
  -21.1920   -3.8880   26.0290 F   0  0  0  0  0  0  0  0  0  0  0  0
  -22.7850  -13.6090   21.1390 C   0  0  0  0  0  0  0  0  0  0  0  0
  -22.0460  -12.9040   21.9880 N   0  0  0  0  0  0  0  0  0  0  0  0
  -22.3490  -14.6360   20.6210 O   0  0  0  0  0  0  0  0  0  0  0  0
  -22.4090  -12.0780   22.4410 H   0  0  0  0  0  0  0  0  0  0  0  0
  -21.1030  -13.2000   22.1970 H   0  0  0  0  0  0  0  0  0  0  0  0
  -25.4150  -15.2930   20.3510 N   0  0  0  0  0  0  0  0  0  0  0  0
  -24.6530  -15.9540   20.4660 H   0  0  0  0  0  0  0  0  0  0  0  0
  -26.2820  -15.7350   20.0730 H   0  0  0  0  0  0  0  0  0  0  0  0
  -27.4690  -22.2540   18.2270 C   0  0  0  0  0  1  0  0  0  0  0  0
  -28.7030  -21.4310   18.6790 C   0  0  0  0  0  3  0  0  0  0  0  0
  -29.2550  -20.2570   16.4510 C   0  0  0  0  0  1  0  0  0  0  0  0
  -28.6710  -20.1130   17.8650 C   0  0  0  0  0  2  0  0  0  0  0  0
  1 48  1  0
  1  2  1  0
  2  4  1  0
  2  3  1  0
  5  6  2  0
  5  2  1  0
  7  6  1  0
  8 19  2  0
  9  7  1  0
  9 14  1  0
 10 18  1  0
 10 20  1  0
 11 17  1  0
 11 13  1  0
 12 18  1  0
 13 14  2  0
 13 12  1  0
 15  9  2  0
 16 15  1  0
 16 11  2  0
 17 10  1  0
 18  8  1  0
 20 22  2  0
 21 20  1  0
 23 21  1  0
 24 33  2  0
 24 29  1  0
 25 21  1  0
 25 29  1  0
 26 25  1  0
 27 28  1  0
 27 26  1  0
 28 24  1  0
 29 30  2  0
 30 31  1  0
 32 31  2  0
 33 32  1  0
 34  8  1  0
 34 39  1  0
 34 35  1  0
 35 38  1  1
 35 36  1  0
 37 35  1  0
 39 42  1  0
 40 44  1  0
 40 39  1  0
 41 40  2  0
 44 43  1  0
 46 44  1  0
 46 47  1  0
 46 45  1  0
 48 50  1  0
 48 49  2  0
 52 57  1  0
 53 54  1  0
 53 52  1  0
 55 54  1  0
 55 66  1  0
 55 56  1  0
 57 51  1  0
 57 56  1  0
 58 51  2  0
 59 61  1  0
 60 59  1  0
 60 62  1  0
 61 50  1  0
 62 51  1  0
 62 61  1  0
 63 64  2  0
 64 83  1  0
 65 64  1  0
 65 68  1  0
 66 63  1  0
 66 67  1  0
 67 65  2  0
 68 69  1  0
 69 70  2  0
 71 74  1  0
 71 70  1  0
 72 71  2  0
 73 72  1  0
 73 68  2  0
 74 75  1  0
 75 76  1  0
 76 77  2  0
 78 77  1  0
 78 82  1  0
 79 78  2  0
 80 75  2  0
 80 79  1  0
 81 80  1  0
 83 84  1  0
 84 87  1  0
 84 86  1  0
 85 83  2  0
 88 89  1  0
 88 63  1  0
 90 88  1  0
 92 91  1  0
 92  1  1  0
 93 94  1  0
 94 92  1  0
M  ISO  4   6 101   7 101  51 100  62 100
M  END
>  <TORSDO>  (59) 
F 23

>  <SCORE>  (59) 
-12.861

>  <name>  (59) 
58

>  <ligand_id>  (59) 
58

>  <original_smiles>  (59) 
[H]c1c([H])c([H])c2c(c1[H])C([H])([H])C([H])([H])C([H])([H])C2([H])N([H])C(=O)C1([H])N(C(=O)C([H])(N([H])C(=O)C([H])(N([H])C([H])([H])[H])C([H])([H])[H])C(C([H])([H])[H])(C([H])([H])[H])C([H])([H])[H])C([H])([H])c2c([H])c(OC([H])([H])C([H])([H])[N+]([H])([H])C([H])(C(=O)C([H])([H])C3([H])N(C(=O)N4C([H])([H])C([H])([H])C([H])([H])C([H])(n5nc(-c6c([H])c([H])c(Oc7c([H])c([H])c(F)c([H])c7F)c([H])c6[H])c(C(=O)N([H])[H])c5N([H])[H])C4([H])[H])C([H])([H])C3([H])[H])C([H])(C([H])([H])[H])C([H])([H])C([H])([H])[H])c([H])c([H])c2C1([H])[H]

>  <smiles>  (59) 
[H]c1c([H])c([H])c2c(c1[H])C([H])([H])C([H])([H])C([H])([H])C2([H])N([H])C(=O)C1([H])N(C(=O)C([H])(N([H])C(=O)C([H])(N([H])C([H])([H])[H])C([H])([H])[H])C(C([H])([H])[H])(C([H])([H])[H])C([H])([H])[H])C([H])([H])c2c([H])c(OC([H])([H])C([H])([H])[N+]([H])([H])C([H])(C(=O)C([H])([H])C3([H])N(C(=O)N4C([H])([H])C([H])([H])C([H])([H])C([H])(n5nc(-c6c([H])c([H])c(Oc7c([H])c([H])c(F)c([H])c7F)c([H])c6[H])c(C(=O)N([H])[H])c5N([H])[H])C4([H])[H])C([H])([H])C3([H])[H])C([H])(C([H])([H])[H])C([H])([H])C([H])([H])[H])c([H])c([H])c2C1([H])[H]

$$$$
59:0:0
     RDKit          3D

 93102  0  0  1  0  0  0  0  0999 V2000
  -29.3120  -19.0850   20.7780 C   0  0  0  0  0  2  0  0  0  0  0  0
  -29.4840  -21.2910   19.1980 C   0  0  0  0  0  2  0  0  0  0  0  0
  -29.7210  -20.6690   20.5560 C   0  0  0  0  0  3  0  0  0  0  0  0
  -28.8240  -22.0450   20.3340 C   0  0  0  0  0  3  0  0  0  0  0  0
  -29.1610  -23.6540   20.5070 C   0  0  0  0  0  3  0  0  0  0  0  0
  -28.1240  -24.8780   20.0560 C   0  0  0  0  0  3  0  0  0  0  0  0
  -28.3570  -26.3930   20.2260 O   0  0  0  0  0  0  0  0  0  0  0  0
  -24.6360  -31.9560   23.2330 C   0  0  0  0  0  0  0  0  0  0  0  0
  -27.2700  -27.3290   20.1630 C   0  0  0  0  0  0  0  0  0  0  0  0
  -23.4430  -30.5450   21.6000 C   0  0  0  0  0  3  0  0  0  0  0  0
  -24.9050  -29.0050   20.1570 C   0  0  0  0  0  0  0  0  0  0  0  0
  -25.9870  -30.8640   21.4100 C   0  0  0  0  0  2  0  0  0  0  0  0
  -26.0790  -29.4790   20.7540 C   0  0  0  0  0  0  0  0  0  0  0  0
  -27.2620  -28.6560   20.7420 C   0  0  0  0  0  3  0  0  0  0  0  0
  -26.0680  -26.9460   19.5260 C   0  0  0  0  0  3  0  0  0  0  0  0
  -24.9090  -27.7500   19.5290 C   0  0  0  0  0  3  0  0  0  0  0  0
  -23.6610  -29.8760   20.2170 C   0  0  0  0  0  2  0  0  0  0  0  0
  -24.7090  -31.1420   22.1370 N   0  0  0  0  0  0  0  0  0  0  0  0
  -23.5510  -32.2200   23.7720 O   0  0  0  0  0  0  0  0  0  0  0  0
  -22.7920  -29.5220   22.5650 C   0  0  0  0  0  0  0  0  0  0  0  0
  -21.4720  -29.3070   22.4300 N   0  0  0  0  0  0  0  0  0  0  0  0
  -23.4780  -28.9250   23.3990 O   0  0  0  0  0  0  0  0  0  0  0  0
  -20.9740  -29.8440   21.7340 H   0  0  0  0  0  0  0  0  0  0  0  0
  -18.1290  -27.9960   22.9060 C   0  0  0  0  0  0  0  0  0  0  0  0
  -20.6730  -28.3530   23.2040 C   0  0  0  0  0  3  0  0  0  0  0  0
  -20.8340  -26.9170   22.6510 C   0  0  0  0  0  2  0  0  0  0  0  0
  -19.7570  -26.5410   21.6280 C   0  0  0  0  0  2  0  0  0  0  0  0
  -18.3640  -26.6450   22.2510 C   0  0  0  0  0  2  0  0  0  0  0  0
  -19.2140  -28.8040   23.3390 C   0  0  0  0  0  0  0  0  0  0  0  0
  -18.9420  -30.0660   23.9130 C   0  0  0  0  0  3  0  0  0  0  0  0
  -17.6170  -30.5200   24.0570 C   0  0  0  0  0  3  0  0  0  0  0  0
  -16.5460  -29.7100   23.6380 C   0  0  0  0  0  3  0  0  0  0  0  0
  -16.8040  -28.4500   23.0690 C   0  0  0  0  0  3  0  0  0  0  0  0
  -25.9100  -32.6100   23.8490 C   0  0  0  0  0  3  0  0  0  0  0  0
  -25.5850  -34.0090   24.1690 N   0  0  0  0  0  0  0  0  0  0  0  0
  -25.9160  -35.0630   23.4100 C   0  0  0  0  0  0  0  0  0  0  0  0
  -26.5930  -34.9600   22.3840 O   0  0  0  0  0  0  0  0  0  0  0  0
  -24.9850  -34.1620   24.9660 H   0  0  0  0  0  0  0  0  0  0  0  0
  -24.1860  -36.8510   23.0310 C   0  0  0  0  0  1  0  0  0  0  0  0
  -25.4170  -36.4500   23.8600 C   0  0  0  0  0  3  0  0  0  0  0  0
  -27.5350  -37.3470   24.7220 C   0  0  0  0  0  1  0  0  0  0  0  0
  -26.4470  -37.5070   23.7610 N   0  0  0  0  0  0  0  0  0  0  0  0
  -26.0350  -38.4260   23.8970 H   0  0  0  0  0  0  0  0  0  0  0  0
  -26.4320  -31.8590   25.1360 C   0  0  1  0  0  0  0  0  0  0  0  0
  -25.3410  -31.6220   26.2050 C   0  0  0  0  0  1  0  0  0  0  0  0
  -27.0310  -30.4820   24.7640 C   0  0  0  0  0  1  0  0  0  0  0  0
  -27.5730  -32.6720   25.7900 C   0  0  0  0  0  1  0  0  0  0  0  0
  -30.4120  -17.8250   20.7600 C   0  0  0  0  0  2  0  0  0  0  0  0
  -30.7790  -15.1420   20.9010 C   0  0  0  0  0  0  0  0  0  0  0  0
  -30.7650  -12.7390   20.1400 C   0  0  0  0  0  2  0  0  0  0  0  0
  -29.9700  -12.5510   18.8280 C   0  0  0  0  0  2  0  0  0  0  0  0
  -28.4600  -12.3920   19.1100 C   0  0  0  0  0  2  0  0  0  0  0  0
  -27.9120  -13.3760   20.1820 C   0  0  0  0  0  3  0  0  0  0  0  0
  -28.8560  -13.5110   21.3920 C   0  0  0  0  0  2  0  0  0  0  0  0
  -30.1720  -13.8920   20.8620 N   0  0  0  0  0  0  0  0  0  0  0  0
  -32.0080  -15.1750   21.0070 O   0  0  0  0  0  0  0  0  0  0  0  0
  -30.0940  -16.3110   20.4440 N   0  0  0  0  0  0  0  0  0  0  0  0
  -29.5020  -17.3690   18.1400 C   0  0  0  0  0  3  0  0  0  0  0  0
  -31.2160  -16.2700   18.1580 C   0  0  0  0  0  2  0  0  0  0  0  0
  -29.9010  -16.1880   18.9690 C   0  0  0  0  0  3  0  0  0  0  0  0
  -30.6870  -17.4990   17.5300 N   0  0  0  0  0  0  0  0  0  0  0  0
  -28.3090  -17.9290   17.9140 N   0  0  0  0  0  0  0  0  0  0  0  0
  -30.8600  -17.8210   16.5890 H   0  0  0  0  0  0  0  0  0  0  0  0
  -27.4890  -17.6130   18.4050 H   0  0  0  0  0  0  0  0  0  0  0  0
  -28.1960  -18.6560   17.2250 H   0  0  0  0  0  0  0  0  0  0  0  0
  -25.4670  -13.9490   20.6540 C   0  0  0  0  0  0  0  0  0  0  0  0
  -24.3770  -13.1700   20.9230 C   0  0  0  0  0  0  0  0  0  0  0  0
  -24.8580  -11.8270   20.9900 C   0  0  0  0  0  0  0  0  0  0  0  0
  -26.5390  -13.0770   20.5610 N   0  0  0  0  0  0  0  0  0  0  0  0
  -26.1760  -11.7980   20.8310 N   0  0  0  0  0  0  0  0  0  0  0  0
  -24.1340  -10.5600   21.1390 C   0  0  0  0  0  0  0  0  0  0  0  0
  -24.4980   -9.6120   22.1210 C   0  0  0  0  0  3  0  0  0  0  0  0
  -23.7720   -8.4100   22.2580 C   0  0  0  0  0  3  0  0  0  0  0  0
  -22.6690   -8.1490   21.4120 C   0  0  0  0  0  0  0  0  0  0  0  0
  -22.3240   -9.0850   20.4210 C   0  0  0  0  0  3  0  0  0  0  0  0
  -23.0510  -10.2780   20.2820 C   0  0  0  0  0  3  0  0  0  0  0  0
  -21.9200   -6.9970   21.4570 O   0  0  0  0  0  0  0  0  0  0  0  0
  -21.7970   -6.2640   22.6100 C   0  0  0  0  0  0  0  0  0  0  0  0
  -21.2700   -6.8220   23.7960 C   0  0  0  0  0  3  0  0  0  0  0  0
  -21.0960   -6.0140   24.9370 C   0  0  0  0  0  3  0  0  0  0  0  0
  -21.4380   -4.6480   24.8930 C   0  0  0  0  0  0  0  0  0  0  0  0
  -21.9590   -4.0900   23.7120 C   0  0  0  0  0  3  0  0  0  0  0  0
  -22.1340   -4.8960   22.5740 C   0  0  0  0  0  0  0  0  0  0  0  0
  -22.6160   -4.3480   21.4310 F   0  0  0  0  0  0  0  0  0  0  0  0
  -21.2650   -3.8700   25.9860 F   0  0  0  0  0  0  0  0  0  0  0  0
  -22.9530  -13.6350   21.0200 C   0  0  0  0  0  0  0  0  0  0  0  0
  -22.1480  -12.9740   21.8430 N   0  0  0  0  0  0  0  0  0  0  0  0
  -22.5600  -14.6220   20.3990 O   0  0  0  0  0  0  0  0  0  0  0  0
  -22.4780  -12.1780   22.3690 H   0  0  0  0  0  0  0  0  0  0  0  0
  -21.1870  -13.2690   21.9510 H   0  0  0  0  0  0  0  0  0  0  0  0
  -25.6350  -15.3180   20.4580 N   0  0  0  0  0  0  0  0  0  0  0  0
  -24.8590  -15.9690   20.5080 H   0  0  0  0  0  0  0  0  0  0  0  0
  -26.5310  -15.7730   20.3630 H   0  0  0  0  0  0  0  0  0  0  0  0
  2  4  1  0
  2  3  1  0
  3  1  1  0
  4  5  1  0
  4  3  1  0
  6  7  1  0
  6  5  2  0
  8 19  2  0
  9  7  1  0
  9 14  1  0
 10 18  1  0
 10 20  1  0
 11 17  1  0
 11 13  1  0
 12 18  1  0
 13 12  1  0
 14 13  2  0
 15 16  1  0
 15  9  2  0
 16 11  2  0
 17 10  1  0
 18  8  1  0
 20 22  2  0
 21 20  1  0
 23 21  1  0
 24 33  2  0
 24 29  1  0
 25 21  1  0
 25 29  1  0
 26 25  1  0
 27 28  1  0
 27 26  1  0
 28 24  1  0
 29 30  2  0
 30 31  1  0
 32 31  2  0
 33 32  1  0
 34  8  1  0
 34 35  1  0
 34 44  1  0
 35 38  1  0
 36 40  1  0
 36 35  1  0
 37 36  2  0
 40 39  1  0
 42 40  1  0
 42 43  1  0
 42 41  1  0
 44 47  1  1
 44 45  1  0
 46 44  1  0
 48  1  1  0
 49 56  2  0
 50 55  1  0
 51 52  1  0
 51 50  1  0
 53 52  1  0
 53 69  1  0
 53 54  1  0
 55 49  1  0
 55 54  1  0
 57 48  1  0
 57 49  1  0
 58 62  1  0
 58 60  1  0
 59 60  1  0
 60 57  1  0
 61 58  1  0
 61 59  1  0
 62 64  1  0
 63 61  1  0
 65 62  1  0
 66 67  2  0
 67 68  1  0
 67 86  1  0
 68 71  1  0
 69 66  1  0
 69 70  1  0
 70 68  2  0
 71 72  1  0
 72 73  2  0
 74 77  1  0
 74 73  1  0
 75 74  2  0
 76 75  1  0
 76 71  2  0
 77 78  1  0
 78 79  1  0
 79 80  2  0
 81 80  1  0
 81 85  1  0
 82 81  2  0
 83 78  2  0
 83 82  1  0
 84 83  1  0
 86 87  1  0
 87 90  1  0
 87 89  1  0
 88 86  2  0
 91 92  1  0
 91 66  1  0
 93 91  1  0
M  ISO  4   6 101   7 101  49 100  57 100
M  END
>  <TORSDO>  (60) 
F 21

>  <SCORE>  (60) 
-12.987

>  <name>  (60) 
59

>  <ligand_id>  (60) 
59

>  <original_smiles>  (60) 
[H]c1c([H])c([H])c2c(c1[H])C([H])([H])C([H])([H])C([H])([H])C2([H])N([H])C(=O)C1([H])N(C(=O)C([H])(N([H])C(=O)C([H])(N([H])C([H])([H])[H])C([H])([H])[H])C(C([H])([H])[H])(C([H])([H])[H])C([H])([H])[H])C([H])([H])c2c([H])c(OC([H])([H])C([H])([H])C3([H])C([H])([H])C3([H])C([H])([H])C([H])([H])N(C(=O)N3C([H])([H])C([H])([H])C([H])([H])C([H])(n4nc(-c5c([H])c([H])c(Oc6c([H])c([H])c(F)c([H])c6F)c([H])c5[H])c(C(=O)N([H])[H])c4N([H])[H])C3([H])[H])C3([H])C(N([H])[H])=[N+]([H])C3([H])[H])c([H])c([H])c2C1([H])[H]

>  <smiles>  (60) 
[H]c1c([H])c([H])c2c(c1[H])C([H])([H])C([H])([H])C([H])([H])C2([H])N([H])C(=O)C1([H])N(C(=O)C([H])(N([H])C(=O)C([H])(N([H])C([H])([H])[H])C([H])([H])[H])C(C([H])([H])[H])(C([H])([H])[H])C([H])([H])[H])C([H])([H])c2c([H])c(OC([H])([H])C([H])([H])C3([H])C([H])([H])C3([H])C([H])([H])C([H])([H])N(C(=O)N3C([H])([H])C([H])([H])C([H])([H])C([H])(n4nc(-c5c([H])c([H])c(Oc6c([H])c([H])c(F)c([H])c6F)c([H])c5[H])c(C(=O)N([H])[H])c4N([H])[H])C3([H])[H])C3([H])C(N([H])[H])=[N+]([H])C3([H])[H])c([H])c([H])c2C1([H])[H]

$$$$
60:0:0
     RDKit          3D

 91100  0  0  1  0  0  0  0  0999 V2000
  -31.3780  -18.0640   23.1720 C   0  0  0  0  0  2  0  0  0  0  0  0
  -31.0130  -19.3480   23.2920 C   0  0  0  0  0  2  0  0  0  0  0  0
  -30.1090  -18.8230   20.1520 C   0  0  0  0  0  0  0  0  0  0  0  0
  -30.2070  -17.7120   22.2560 C   0  0  0  0  0  3  0  0  0  0  0  0
  -29.7810  -19.1860   22.4140 C   0  0  0  0  0  3  0  0  0  0  0  0
  -30.5760  -17.4410   20.7980 C   0  0  0  0  0  3  0  0  0  0  0  0
  -29.8710  -19.8190   21.0840 N   0  0  0  0  0  0  0  0  0  0  0  0
  -30.0480  -18.9820   18.9310 O   0  0  0  0  0  0  0  0  0  0  0  0
  -30.9110  -14.9300   20.0750 C   0  0  0  0  0  0  0  0  0  0  0  0
  -30.6830  -12.7120   18.9460 C   0  0  0  0  0  2  0  0  0  0  0  0
  -29.6960  -12.8250   17.7640 C   0  0  0  0  0  2  0  0  0  0  0  0
  -28.2410  -12.6400   18.2390 C   0  0  0  0  0  2  0  0  0  0  0  0
  -27.9120  -13.4990   19.4890 C   0  0  0  0  0  3  0  0  0  0  0  0
  -28.9980  -13.3510   20.5720 C   0  0  0  0  0  2  0  0  0  0  0  0
  -30.2790  -13.7160   19.9560 N   0  0  0  0  0  0  0  0  0  0  0  0
  -32.1000  -15.0430   19.7550 O   0  0  0  0  0  0  0  0  0  0  0  0
  -30.1400  -16.0360   20.3860 N   0  0  0  0  0  0  0  0  0  0  0  0
  -29.1580  -15.8420   20.5090 H   0  0  0  0  0  0  0  0  0  0  0  0
  -25.5530  -14.0950   20.2990 C   0  0  0  0  0  0  0  0  0  0  0  0
  -24.4900  -13.3210   20.6770 C   0  0  0  0  0  0  0  0  0  0  0  0
  -24.9430  -11.9690   20.6020 C   0  0  0  0  0  0  0  0  0  0  0  0
  -26.5820  -13.2130   20.0110 N   0  0  0  0  0  0  0  0  0  0  0  0
  -26.2230  -11.9270   20.2600 N   0  0  0  0  0  0  0  0  0  0  0  0
  -24.2150  -10.7070   20.7820 C   0  0  0  0  0  0  0  0  0  0  0  0
  -24.6300   -9.7420   21.7270 C   0  0  0  0  0  3  0  0  0  0  0  0
  -23.9030   -8.5440   21.8910 C   0  0  0  0  0  3  0  0  0  0  0  0
  -22.7470   -8.3040   21.1140 C   0  0  0  0  0  0  0  0  0  0  0  0
  -22.3510   -9.2580   20.1580 C   0  0  0  0  0  3  0  0  0  0  0  0
  -23.0790  -10.4460   19.9920 C   0  0  0  0  0  3  0  0  0  0  0  0
  -21.9900   -7.1590   21.1900 O   0  0  0  0  0  0  0  0  0  0  0  0
  -21.8640   -6.4550   22.3580 C   0  0  0  0  0  0  0  0  0  0  0  0
  -21.3500   -7.0450   23.5330 C   0  0  0  0  0  3  0  0  0  0  0  0
  -21.1730   -6.2660   24.6940 C   0  0  0  0  0  3  0  0  0  0  0  0
  -21.5010   -4.8970   24.6790 C   0  0  0  0  0  0  0  0  0  0  0  0
  -22.0090   -4.3060   23.5080 C   0  0  0  0  0  3  0  0  0  0  0  0
  -22.1830   -5.0830   22.3500 C   0  0  0  0  0  0  0  0  0  0  0  0
  -22.6540   -4.5030   21.2200 F   0  0  0  0  0  0  0  0  0  0  0  0
  -21.3220   -4.1470   25.7910 F   0  0  0  0  0  0  0  0  0  0  0  0
  -23.1030  -13.8000   20.9870 C   0  0  0  0  0  0  0  0  0  0  0  0
  -22.3950  -13.1050   21.8710 N   0  0  0  0  0  0  0  0  0  0  0  0
  -22.6530  -14.8280   20.4780 O   0  0  0  0  0  0  0  0  0  0  0  0
  -22.7670  -12.2760   22.3100 H   0  0  0  0  0  0  0  0  0  0  0  0
  -21.4640  -13.4130   22.1150 H   0  0  0  0  0  0  0  0  0  0  0  0
  -25.7230  -15.4690   20.1490 N   0  0  0  0  0  0  0  0  0  0  0  0
  -24.9700  -16.1260   20.3230 H   0  0  0  0  0  0  0  0  0  0  0  0
  -26.5360  -15.9090   19.7400 H   0  0  0  0  0  0  0  0  0  0  0  0
  -29.6550  -21.3430   21.2010 C   0  0  0  0  0  3  0  0  0  0  0  0
  -29.4670  -22.4660   20.0570 C   0  0  0  0  0  3  0  0  0  0  0  0
  -29.0770  -23.9600   20.5800 C   0  0  0  0  0  3  0  0  0  0  0  0
  -28.8490  -25.1910   19.5650 C   0  0  0  0  0  3  0  0  0  0  0  0
  -28.6890  -26.6020   20.0550 O   0  0  0  0  0  0  0  0  0  0  0  0
  -24.5270  -31.7300   22.9940 C   0  0  0  0  0  0  0  0  0  0  0  0
  -27.5090  -27.3700   19.9520 C   0  0  0  0  0  0  0  0  0  0  0  0
  -23.4660  -30.2940   21.2970 C   0  0  0  0  0  3  0  0  0  0  0  0
  -25.0500  -28.8620   19.8850 C   0  0  0  0  0  0  0  0  0  0  0  0
  -25.9870  -30.7710   21.1870 C   0  0  0  0  0  2  0  0  0  0  0  0
  -26.1710  -29.4080   20.5210 C   0  0  0  0  0  0  0  0  0  0  0  0
  -27.3990  -28.6770   20.5330 C   0  0  0  0  0  3  0  0  0  0  0  0
  -26.3510  -26.8770   19.3090 C   0  0  0  0  0  3  0  0  0  0  0  0
  -25.1460  -27.6050   19.2670 C   0  0  0  0  0  3  0  0  0  0  0  0
  -23.7570  -29.6560   19.9130 C   0  0  0  0  0  2  0  0  0  0  0  0
  -24.6790  -30.9500   21.8820 N   0  0  0  0  0  0  0  0  0  0  0  0
  -23.4130  -31.9260   23.5020 O   0  0  0  0  0  0  0  0  0  0  0  0
  -22.8400  -29.2210   22.2210 C   0  0  0  0  0  0  0  0  0  0  0  0
  -21.5160  -29.0140   22.0990 N   0  0  0  0  0  0  0  0  0  0  0  0
  -23.5430  -28.5750   23.0010 O   0  0  0  0  0  0  0  0  0  0  0  0
  -21.0100  -29.5910   21.4420 H   0  0  0  0  0  0  0  0  0  0  0  0
  -18.1620  -27.7680   22.6340 C   0  0  0  0  0  0  0  0  0  0  0  0
  -20.7270  -28.0240   22.8350 C   0  0  0  0  0  3  0  0  0  0  0  0
  -20.8150  -26.6330   22.1640 C   0  0  0  0  0  2  0  0  0  0  0  0
  -19.6780  -26.3720   21.1710 C   0  0  0  0  0  2  0  0  0  0  0  0
  -18.3180  -26.4660   21.8680 C   0  0  0  0  0  2  0  0  0  0  0  0
  -19.2900  -28.5080   23.0740 C   0  0  0  0  0  0  0  0  0  0  0  0
  -19.0840  -29.7300   23.7510 C   0  0  0  0  0  3  0  0  0  0  0  0
  -17.7820  -30.2060   23.9950 C   0  0  0  0  0  3  0  0  0  0  0  0
  -16.6690  -29.4610   23.5710 C   0  0  0  0  0  3  0  0  0  0  0  0
  -16.8610  -28.2450   22.8930 C   0  0  0  0  0  3  0  0  0  0  0  0
  -25.7440  -32.4300   23.6700 C   0  0  0  0  0  3  0  0  0  0  0  0
  -26.2500  -31.6800   24.9620 C   0  0  1  0  0  0  0  0  0  0  0  0
  -25.1330  -31.3760   25.9880 C   0  0  0  0  0  1  0  0  0  0  0  0
  -26.9180  -30.3400   24.5820 C   0  0  0  0  0  1  0  0  0  0  0  0
  -27.3340  -32.5290   25.6670 C   0  0  0  0  0  1  0  0  0  0  0  0
  -25.3430  -33.8070   23.9970 N   0  0  0  0  0  0  0  0  0  0  0  0
  -25.6570  -34.8880   23.2700 C   0  0  0  0  0  0  0  0  0  0  0  0
  -26.3820  -34.8330   22.2720 O   0  0  0  0  0  0  0  0  0  0  0  0
  -24.7020  -33.9140   24.7700 H   0  0  0  0  0  0  0  0  0  0  0  0
  -23.8530  -36.5870   22.8440 C   0  0  0  0  0  1  0  0  0  0  0  0
  -25.0720  -36.2450   23.7150 C   0  0  0  0  0  3  0  0  0  0  0  0
  -27.1120  -37.2270   24.6650 C   0  0  0  0  0  1  0  0  0  0  0  0
  -26.0530  -37.3510   23.6650 N   0  0  0  0  0  0  0  0  0  0  0  0
  -25.5970  -38.2490   23.7970 H   0  0  0  0  0  0  0  0  0  0  0  0
  1  2  1  0
  3  6  1  0
  3  7  1  0
  4  5  1  0
  4  1  1  0
  5  2  1  0
  6 17  1  0
  6  4  1  0
  7 47  1  0
  7  5  1  0
  8  3  2  0
  9 17  1  0
 10 15  1  0
 11 12  1  0
 11 10  1  0
 13 12  1  0
 13 22  1  0
 13 14  1  0
 15  9  1  0
 15 14  1  0
 16  9  2  0
 17 18  1  0
 19 20  2  0
 20 39  1  0
 21 20  1  0
 21 24  1  0
 22 23  1  0
 22 19  1  0
 23 21  2  0
 24 25  1  0
 25 26  2  0
 27 30  1  0
 27 26  1  0
 28 27  2  0
 29 28  1  0
 29 24  2  0
 30 31  1  0
 31 32  1  0
 32 33  2  0
 34 33  1  0
 34 38  1  0
 35 34  2  0
 36 31  2  0
 36 35  1  0
 37 36  1  0
 39 40  1  0
 40 43  1  0
 40 42  1  0
 41 39  2  0
 44 19  1  0
 44 45  1  0
 46 44  1  0
 48 49  1  0
 48 47  2  0
 50 51  1  0
 50 49  2  0
 52 63  2  0
 53 51  1  0
 53 58  1  0
 54 62  1  0
 54 64  1  0
 55 61  1  0
 55 57  1  0
 56 62  1  0
 57 58  2  0
 57 56  1  0
 59 53  2  0
 60 59  1  0
 60 55  2  0
 61 54  1  0
 62 52  1  0
 64 66  2  0
 65 64  1  0
 67 65  1  0
 68 77  2  0
 68 73  1  0
 69 65  1  0
 69 73  1  0
 70 69  1  0
 71 72  1  0
 71 70  1  0
 72 68  1  0
 73 74  2  0
 74 75  1  0
 76 75  2  0
 77 76  1  0
 78 52  1  0
 78 83  1  0
 78 79  1  0
 79 82  1  1
 79 80  1  0
 81 79  1  0
 83 86  1  0
 84 88  1  0
 84 83  1  0
 85 84  2  0
 88 87  1  0
 90 88  1  0
 90 91  1  0
 90 89  1  0
M  ISO  4   9 100  17 100  50 101  51 101
M  END
>  <TORSDO>  (61) 
F 20

>  <SCORE>  (61) 
-11.239

>  <name>  (61) 
60

>  <ligand_id>  (61) 
60

>  <original_smiles>  (61) 
[H]C1=C([H])C2([H])C([H])(N([H])C(=O)N3C([H])([H])C([H])([H])C([H])([H])C([H])(n4nc(-c5c([H])c([H])c(Oc6c([H])c([H])c(F)c([H])c6F)c([H])c5[H])c(C(=O)N([H])[H])c4N([H])[H])C3([H])[H])C(=O)N(C([H])([H])C([H])([H])C([H])([H])C([H])([H])Oc3c([H])c([H])c4c(c3[H])C([H])([H])N(C(=O)C([H])(N([H])C(=O)C([H])(N([H])C([H])([H])[H])C([H])([H])[H])C(C([H])([H])[H])(C([H])([H])[H])C([H])([H])[H])C([H])(C(=O)N([H])C3([H])c5c([H])c([H])c([H])c([H])c5C([H])([H])C([H])([H])C3([H])[H])C4([H])[H])C12[H]

>  <smiles>  (61) 
[H]C1=C([H])C2([H])C([H])(N([H])C(=O)N3C([H])([H])C([H])([H])C([H])([H])C([H])(n4nc(-c5c([H])c([H])c(Oc6c([H])c([H])c(F)c([H])c6F)c([H])c5[H])c(C(=O)N([H])[H])c4N([H])[H])C3([H])[H])C(=O)N(C([H])([H])C([H])([H])C([H])([H])C([H])([H])Oc3c([H])c([H])c4c(c3[H])C([H])([H])N(C(=O)C([H])(N([H])C(=O)C([H])(N([H])C([H])([H])[H])C([H])([H])[H])C(C([H])([H])[H])(C([H])([H])[H])C([H])([H])[H])C([H])(C(=O)N([H])C3([H])c5c([H])c([H])c([H])c([H])c5C([H])([H])C([H])([H])C3([H])[H])C4([H])[H])C12[H]

$$$$
61:0:0
     RDKit          3D

 96104  0  0  1  0  0  0  0  0999 V2000
  -30.7250  -23.4280   18.5160 C   0  0  0  0  0  0  0  0  0  0  0  0
  -31.7830  -23.4930   17.8220 N   0  0  0  0  0  0  0  0  0  0  0  0
  -32.3070  -22.6260   17.8670 H   0  0  0  0  0  0  0  0  0  0  0  0
  -30.3550  -22.1810   19.3320 C   0  0  0  0  0  2  0  0  0  0  0  0
  -30.3970  -20.6640   17.2210 C   0  0  0  0  0  3  0  0  0  0  0  0
  -29.8840  -18.2900   17.4130 C   0  0  0  0  0  3  0  0  0  0  0  0
  -29.8300  -19.7120   19.3910 C   0  0  0  0  0  3  0  0  0  0  0  0
  -30.2450  -19.3980   16.6230 C   0  0  0  0  0  0  0  0  0  0  0  0
  -30.2000  -20.8340   18.6130 C   0  0  0  0  0  0  0  0  0  0  0  0
  -29.6660  -18.4430   18.7980 C   0  0  0  0  0  0  0  0  0  0  0  0
  -30.4580  -19.2340   15.1320 C   0  0  0  0  0  1  0  0  0  0  0  0
  -29.2240  -17.2400   19.6180 C   0  0  0  0  0  2  0  0  0  0  0  0
  -30.2090  -16.8280   20.7330 C   0  0  0  0  0  2  0  0  0  0  0  0
  -30.6710  -14.4190   20.4930 C   0  0  0  0  0  0  0  0  0  0  0  0
  -30.3190  -12.2990   19.3040 C   0  0  0  0  0  2  0  0  0  0  0  0
  -29.3680  -12.5570   18.1180 C   0  0  0  0  0  2  0  0  0  0  0  0
  -27.8970  -12.4340   18.5610 C   0  0  0  0  0  2  0  0  0  0  0  0
  -27.5870  -13.2390   19.8510 C   0  0  0  0  0  3  0  0  0  0  0  0
  -28.6540  -12.9730   20.9410 C   0  0  0  0  0  2  0  0  0  0  0  0
  -29.9820  -13.2570   20.3680 N   0  0  0  0  0  0  0  0  0  0  0  0
  -31.7630  -14.6220   19.9540 O   0  0  0  0  0  0  0  0  0  0  0  0
  -30.0010  -15.4190   21.0770 N   0  0  0  0  0  0  0  0  0  0  0  0
  -29.1390  -15.1720   21.5430 H   0  0  0  0  0  0  0  0  0  0  0  0
  -25.1880  -13.8430   20.5670 C   0  0  0  0  0  0  0  0  0  0  0  0
  -24.1230  -13.0690   20.9420 C   0  0  0  0  0  0  0  0  0  0  0  0
  -24.5860  -11.7190   20.9070 C   0  0  0  0  0  0  0  0  0  0  0  0
  -26.2350  -12.9650   20.3340 N   0  0  0  0  0  0  0  0  0  0  0  0
  -25.8750  -11.6810   20.5920 N   0  0  0  0  0  0  0  0  0  0  0  0
  -23.8650  -10.4550   21.1000 C   0  0  0  0  0  0  0  0  0  0  0  0
  -24.3190   -9.4760   22.0110 C   0  0  0  0  0  3  0  0  0  0  0  0
  -23.5970   -8.2760   22.1920 C   0  0  0  0  0  3  0  0  0  0  0  0
  -22.4070   -8.0470   21.4610 C   0  0  0  0  0  0  0  0  0  0  0  0
  -21.9740   -9.0140   20.5380 C   0  0  0  0  0  3  0  0  0  0  0  0
  -22.6970  -10.2050   20.3540 C   0  0  0  0  0  3  0  0  0  0  0  0
  -21.6550   -6.9000   21.5530 O   0  0  0  0  0  0  0  0  0  0  0  0
  -21.6490   -6.1320   22.6890 C   0  0  0  0  0  0  0  0  0  0  0  0
  -21.2820   -6.6630   23.9460 C   0  0  0  0  0  3  0  0  0  0  0  0
  -21.2270   -5.8220   25.0750 C   0  0  0  0  0  3  0  0  0  0  0  0
  -21.5210   -4.4510   24.9490 C   0  0  0  0  0  0  0  0  0  0  0  0
  -21.8770   -3.9200   23.6980 C   0  0  0  0  0  3  0  0  0  0  0  0
  -21.9390   -4.7580   22.5710 C   0  0  0  0  0  0  0  0  0  0  0  0
  -22.2630   -4.2370   21.3630 F   0  0  0  0  0  0  0  0  0  0  0  0
  -21.4580   -3.6410   26.0320 F   0  0  0  0  0  0  0  0  0  0  0  0
  -22.7270  -13.5430   21.2240 C   0  0  0  0  0  0  0  0  0  0  0  0
  -22.0090  -12.8420   22.0960 N   0  0  0  0  0  0  0  0  0  0  0  0
  -22.2820  -14.5670   20.7100 O   0  0  0  0  0  0  0  0  0  0  0  0
  -22.3790  -12.0110   22.5320 H   0  0  0  0  0  0  0  0  0  0  0  0
  -21.0730  -13.1420   22.3280 H   0  0  0  0  0  0  0  0  0  0  0  0
  -25.3480  -15.2140   20.3860 N   0  0  0  0  0  0  0  0  0  0  0  0
  -24.5790  -15.8670   20.5000 H   0  0  0  0  0  0  0  0  0  0  0  0
  -26.1920  -15.6600   20.0510 H   0  0  0  0  0  0  0  0  0  0  0  0
  -29.7740  -24.6190   18.6220 C   0  0  0  0  0  2  0  0  0  0  0  0
  -31.0850  -25.7120   20.5660 C   0  0  0  0  0  1  0  0  0  0  0  0
  -30.4250  -25.9130   19.1830 C   0  0  0  0  0  3  0  0  0  0  0  0
  -29.4030  -27.0670   19.2340 C   0  0  0  0  0  2  0  0  0  0  0  0
  -28.3940  -26.7100   20.1650 O   0  0  0  0  0  0  0  0  0  0  0  0
  -24.6060  -31.8830   23.2350 C   0  0  0  0  0  0  0  0  0  0  0  0
  -27.2610  -27.4760   20.1450 C   0  0  0  0  0  0  0  0  0  0  0  0
  -23.3970  -30.4720   21.5990 C   0  0  0  0  0  3  0  0  0  0  0  0
  -24.8540  -28.9410   20.1720 C   0  0  0  0  0  0  0  0  0  0  0  0
  -25.9180  -30.8510   21.3870 C   0  0  0  0  0  2  0  0  0  0  0  0
  -26.0100  -29.4820   20.7500 C   0  0  0  0  0  0  0  0  0  0  0  0
  -27.2210  -28.7560   20.7360 C   0  0  0  0  0  3  0  0  0  0  0  0
  -26.0910  -26.9320   19.5810 C   0  0  0  0  0  3  0  0  0  0  0  0
  -24.8870  -27.6630   19.5850 C   0  0  0  0  0  3  0  0  0  0  0  0
  -23.6040  -29.7900   20.2200 C   0  0  0  0  0  2  0  0  0  0  0  0
  -24.6580  -31.0830   22.1330 N   0  0  0  0  0  0  0  0  0  0  0  0
  -23.5260  -32.1530   23.7780 O   0  0  0  0  0  0  0  0  0  0  0  0
  -22.7550  -29.4510   22.5650 C   0  0  0  0  0  0  0  0  0  0  0  0
  -21.4300  -29.2680   22.4460 N   0  0  0  0  0  0  0  0  0  0  0  0
  -23.4440  -28.8260   23.3760 O   0  0  0  0  0  0  0  0  0  0  0  0
  -20.9350  -29.8250   21.7640 H   0  0  0  0  0  0  0  0  0  0  0  0
  -18.0600  -28.0730   22.9590 C   0  0  0  0  0  0  0  0  0  0  0  0
  -20.6170  -28.3310   23.2220 C   0  0  0  0  0  3  0  0  0  0  0  0
  -20.7190  -26.8980   22.6480 C   0  0  0  0  0  2  0  0  0  0  0  0
  -19.6130  -26.5740   21.6380 C   0  0  0  0  0  2  0  0  0  0  0  0
  -18.2340  -26.7210   22.2870 C   0  0  0  0  0  2  0  0  0  0  0  0
  -19.1800  -28.8350   23.3840 C   0  0  0  0  0  0  0  0  0  0  0  0
  -18.9640  -30.1010   23.9720 C   0  0  0  0  0  3  0  0  0  0  0  0
  -17.6600  -30.6030   24.1410 C   0  0  0  0  0  3  0  0  0  0  0  0
  -16.5540  -29.8380   23.7320 C   0  0  0  0  0  3  0  0  0  0  0  0
  -16.7550  -28.5740   23.1470 C   0  0  0  0  0  3  0  0  0  0  0  0
  -25.8930  -32.5200   23.8470 C   0  0  0  0  0  3  0  0  0  0  0  0
  -25.5800  -33.9150   24.1800 N   0  0  0  0  0  0  0  0  0  0  0  0
  -25.9030  -34.9700   23.4210 C   0  0  0  0  0  0  0  0  0  0  0  0
  -26.5710  -34.8720   22.3880 O   0  0  0  0  0  0  0  0  0  0  0  0
  -24.9860  -34.0650   24.9830 H   0  0  0  0  0  0  0  0  0  0  0  0
  -24.1650  -36.7530   23.0750 C   0  0  0  0  0  1  0  0  0  0  0  0
  -25.4100  -36.3540   23.8830 C   0  0  0  0  0  3  0  0  0  0  0  0
  -27.5440  -37.2450   24.7080 C   0  0  0  0  0  1  0  0  0  0  0  0
  -26.4360  -37.4130   23.7710 N   0  0  0  0  0  0  0  0  0  0  0  0
  -26.0260  -38.3290   23.9250 H   0  0  0  0  0  0  0  0  0  0  0  0
  -26.4260  -31.7460   25.1140 C   0  0  1  0  0  0  0  0  0  0  0  0
  -25.3450  -31.4990   26.1910 C   0  0  0  0  0  1  0  0  0  0  0  0
  -27.0120  -30.3730   24.7080 C   0  0  0  0  0  1  0  0  0  0  0  0
  -27.5780  -32.5440   25.7690 C   0  0  0  0  0  1  0  0  0  0  0  0
  1 52  1  0
  1  4  1  0
  2  3  1  0
  2  1  2  0
  5  9  1  0
  6 10  2  0
  8  5  2  0
  8  6  1  0
  9  4  1  0
  9  7  2  0
 10  7  1  0
 10 12  1  0
 11  8  1  0
 12 13  1  0
 13 22  1  0
 14 22  1  0
 15 20  1  0
 16 17  1  0
 16 15  1  0
 18 17  1  0
 18 27  1  0
 18 19  1  0
 20 14  1  0
 20 19  1  0
 21 14  2  0
 22 23  1  0
 24 25  2  0
 25 44  1  0
 26 25  1  0
 26 29  1  0
 27 24  1  0
 27 28  1  0
 28 26  2  0
 29 30  1  0
 30 31  2  0
 32 35  1  0
 32 31  1  0
 33 32  2  0
 34 33  1  0
 34 29  2  0
 35 36  1  0
 36 37  1  0
 37 38  2  0
 39 38  1  0
 39 43  1  0
 40 39  2  0
 41 36  2  0
 41 40  1  0
 42 41  1  0
 44 45  1  0
 45 48  1  0
 45 47  1  0
 46 44  2  0
 49 50  1  0
 49 24  1  0
 51 49  1  0
 52 54  1  0
 54 55  1  0
 54 53  1  0
 55 56  1  0
 57 68  2  0
 58 56  1  0
 58 63  1  0
 59 67  1  0
 59 69  1  0
 60 66  1  0
 60 62  1  0
 61 67  1  0
 62 61  1  0
 63 62  2  0
 64 65  1  0
 64 58  2  0
 65 60  2  0
 66 59  1  0
 67 57  1  0
 69 71  2  0
 70 69  1  0
 72 70  1  0
 73 82  2  0
 73 78  1  0
 74 70  1  0
 74 78  1  0
 75 74  1  0
 76 77  1  0
 76 75  1  0
 77 73  1  0
 78 79  2  0
 79 80  1  0
 81 80  2  0
 82 81  1  0
 83 57  1  0
 83 84  1  0
 83 93  1  0
 84 87  1  0
 85 89  1  0
 85 84  1  0
 86 85  2  0
 89 88  1  0
 91 89  1  0
 91 92  1  0
 91 90  1  0
 93 96  1  1
 93 94  1  0
 95 93  1  0
M  ISO  4  14 100  22 100  55 101  56 101
M  END
>  <TORSDO>  (62) 
F 23

>  <SCORE>  (62) 
-12.772

>  <name>  (62) 
61

>  <ligand_id>  (62) 
61

>  <original_smiles>  (62) 
[H]N=C(C([H])([H])c1c([H])c(C([H])([H])[H])c([H])c(C([H])([H])C([H])([H])N([H])C(=O)N2C([H])([H])C([H])([H])C([H])([H])C([H])(n3nc(-c4c([H])c([H])c(Oc5c([H])c([H])c(F)c([H])c5F)c([H])c4[H])c(C(=O)N([H])[H])c3N([H])[H])C2([H])[H])c1[H])C([H])([H])C([H])(C([H])([H])[H])C([H])([H])Oc1c([H])c([H])c2c(c1[H])C([H])([H])N(C(=O)C([H])(N([H])C(=O)C([H])(N([H])C([H])([H])[H])C([H])([H])[H])C(C([H])([H])[H])(C([H])([H])[H])C([H])([H])[H])C([H])(C(=O)N([H])C1([H])c3c([H])c([H])c([H])c([H])c3C([H])([H])C([H])([H])C1([H])[H])C2([H])[H]

>  <smiles>  (62) 
[H]N=C(C([H])([H])c1c([H])c(C([H])([H])[H])c([H])c(C([H])([H])C([H])([H])N([H])C(=O)N2C([H])([H])C([H])([H])C([H])([H])C([H])(n3nc(-c4c([H])c([H])c(Oc5c([H])c([H])c(F)c([H])c5F)c([H])c4[H])c(C(=O)N([H])[H])c3N([H])[H])C2([H])[H])c1[H])C([H])([H])C([H])(C([H])([H])[H])C([H])([H])Oc1c([H])c([H])c2c(c1[H])C([H])([H])N(C(=O)C([H])(N([H])C(=O)C([H])(N([H])C([H])([H])[H])C([H])([H])[H])C(C([H])([H])[H])(C([H])([H])[H])C([H])([H])[H])C([H])(C(=O)N([H])C1([H])c3c([H])c([H])c([H])c([H])c3C([H])([H])C([H])([H])C1([H])[H])C2([H])[H]

$$$$
62:0:0
     RDKit          3D

 92100  0  0  1  0  0  0  0  0999 V2000
  -29.3190  -21.1700   19.7520 C   0  0  0  0  0  0  0  0  0  0  0  0
  -29.4830  -19.9630   18.9110 C   0  0  0  0  0  0  0  0  0  0  0  0
  -29.0870  -22.4980   19.3750 C   0  0  0  0  0  3  0  0  0  0  0  0
  -29.5880  -20.3100   21.0360 C   0  0  0  0  0  3  0  0  0  0  0  0
  -29.4520  -18.9650   20.1440 C   0  0  0  0  0  3  0  0  0  0  0  0
  -29.6120  -19.8550   17.6890 O   0  0  0  0  0  0  0  0  0  0  0  0
  -28.5180  -20.4720   22.0500 N   0  0  0  0  0  4  0  0  0  0  0  0
  -27.5990  -20.3670   21.6610 H   0  0  0  0  0  0  0  0  0  0  0  0
  -28.5670  -21.3800   22.4740 H   0  0  0  0  0  0  0  0  0  0  0  0
  -28.6220  -19.8030   22.7910 H   0  0  0  0  0  0  0  0  0  0  0  0
  -28.9410  -23.8990   20.1390 C   0  0  0  0  0  3  0  0  0  0  0  0
  -28.5220  -25.2230   19.2740 C   0  0  0  0  0  3  0  0  0  0  0  0
  -28.4670  -26.6420   19.8120 O   0  0  0  0  0  0  0  0  0  0  0  0
  -24.5900  -31.8280   23.1360 C   0  0  0  0  0  0  0  0  0  0  0  0
  -27.3190  -27.4810   19.7930 C   0  0  0  0  0  0  0  0  0  0  0  0
  -23.4150  -30.4590   21.4560 C   0  0  0  0  0  3  0  0  0  0  0  0
  -24.8970  -29.0500   19.9170 C   0  0  0  0  0  0  0  0  0  0  0  0
  -25.9410  -30.8780   21.2440 C   0  0  0  0  0  2  0  0  0  0  0  0
  -26.0630  -29.5360   20.5200 C   0  0  0  0  0  0  0  0  0  0  0  0
  -27.2690  -28.7620   20.4530 C   0  0  0  0  0  3  0  0  0  0  0  0
  -26.1190  -27.0770   19.1620 C   0  0  0  0  0  3  0  0  0  0  0  0
  -24.9330  -27.8320   19.2280 C   0  0  0  0  0  3  0  0  0  0  0  0
  -23.6280  -29.8690   20.0380 C   0  0  0  0  0  2  0  0  0  0  0  0
  -24.6680  -31.0730   22.0010 N   0  0  0  0  0  0  0  0  0  0  0  0
  -23.5080  -32.0310   23.7060 O   0  0  0  0  0  0  0  0  0  0  0  0
  -22.8210  -29.3640   22.3780 C   0  0  0  0  0  0  0  0  0  0  0  0
  -21.5110  -29.1010   22.2430 N   0  0  0  0  0  0  0  0  0  0  0  0
  -23.5410  -28.7590   23.1760 O   0  0  0  0  0  0  0  0  0  0  0  0
  -20.9860  -29.6480   21.5740 H   0  0  0  0  0  0  0  0  0  0  0  0
  -18.2310  -27.6320   22.6730 C   0  0  0  0  0  0  0  0  0  0  0  0
  -20.7590  -28.0820   22.9790 C   0  0  0  0  0  3  0  0  0  0  0  0
  -20.9770  -26.6780   22.3670 C   0  0  0  0  0  2  0  0  0  0  0  0
  -19.9120  -26.3000   21.3320 C   0  0  0  0  0  2  0  0  0  0  0  0
  -18.5170  -26.3200   21.9630 C   0  0  0  0  0  2  0  0  0  0  0  0
  -19.2840  -28.4670   23.1360 C   0  0  0  0  0  0  0  0  0  0  0  0
  -18.9620  -29.6910   23.7610 C   0  0  0  0  0  3  0  0  0  0  0  0
  -17.6200  -30.0860   23.9260 C   0  0  0  0  0  3  0  0  0  0  0  0
  -16.5840  -29.2490   23.4790 C   0  0  0  0  0  3  0  0  0  0  0  0
  -16.8890  -28.0250   22.8580 C   0  0  0  0  0  3  0  0  0  0  0  0
  -25.8570  -32.4900   23.7620 C   0  0  0  0  0  3  0  0  0  0  0  0
  -26.4080  -31.7110   25.0200 C   0  0  1  0  0  0  0  0  0  0  0  0
  -25.3300  -31.4130   26.0900 C   0  0  0  0  0  1  0  0  0  0  0  0
  -27.0370  -30.3610   24.5990 C   0  0  0  0  0  1  0  0  0  0  0  0
  -27.5340  -32.5330   25.6900 C   0  0  0  0  0  1  0  0  0  0  0  0
  -25.5010  -33.8700   24.1270 N   0  0  0  0  0  0  0  0  0  0  0  0
  -25.7950  -34.9530   23.3950 C   0  0  0  0  0  0  0  0  0  0  0  0
  -26.4610  -34.8970   22.3590 O   0  0  0  0  0  0  0  0  0  0  0  0
  -24.9010  -33.9830   24.9300 H   0  0  0  0  0  0  0  0  0  0  0  0
  -24.0110  -36.7040   23.0920 C   0  0  0  0  0  1  0  0  0  0  0  0
  -25.2650  -36.3130   23.8900 C   0  0  0  0  0  3  0  0  0  0  0  0
  -27.3650  -37.2490   24.7530 C   0  0  0  0  0  1  0  0  0  0  0  0
  -26.2640  -37.4000   23.8050 N   0  0  0  0  0  0  0  0  0  0  0  0
  -25.8280  -38.3040   23.9700 H   0  0  0  0  0  0  0  0  0  0  0  0
  -30.5150  -17.7200   20.1370 C   0  0  0  0  0  2  0  0  0  0  0  0
  -30.8310  -15.0960   19.8880 C   0  0  0  0  0  0  0  0  0  0  0  0
  -30.5900  -12.8050   18.9030 C   0  0  0  0  0  2  0  0  0  0  0  0
  -29.5770  -12.8470   17.7360 C   0  0  0  0  0  2  0  0  0  0  0  0
  -28.1380  -12.6730   18.2580 C   0  0  0  0  0  2  0  0  0  0  0  0
  -27.8310  -13.5750   19.4830 C   0  0  0  0  0  3  0  0  0  0  0  0
  -28.9550  -13.5030   20.5390 C   0  0  0  0  0  2  0  0  0  0  0  0
  -30.2050  -13.8670   19.8620 N   0  0  0  0  0  0  0  0  0  0  0  0
  -32.0000  -15.1890   19.5040 O   0  0  0  0  0  0  0  0  0  0  0  0
  -30.0770  -16.2400   20.1470 N   0  0  0  0  0  0  0  0  0  0  0  0
  -29.1130  -16.0670   20.3880 H   0  0  0  0  0  0  0  0  0  0  0  0
  -25.5100  -14.1730   20.3890 C   0  0  0  0  0  0  0  0  0  0  0  0
  -24.4600  -13.4030   20.8090 C   0  0  0  0  0  0  0  0  0  0  0  0
  -24.9000  -12.0480   20.7110 C   0  0  0  0  0  0  0  0  0  0  0  0
  -26.5210  -13.2870   20.0570 N   0  0  0  0  0  0  0  0  0  0  0  0
  -26.1670  -12.0030   20.3150 N   0  0  0  0  0  0  0  0  0  0  0  0
  -24.1710  -10.7900   20.9150 C   0  0  0  0  0  0  0  0  0  0  0  0
  -24.6060   -9.8260   21.8510 C   0  0  0  0  0  3  0  0  0  0  0  0
  -23.8760   -8.6340   22.0430 C   0  0  0  0  0  3  0  0  0  0  0  0
  -22.6960   -8.3950   21.2970 C   0  0  0  0  0  0  0  0  0  0  0  0
  -22.2800   -9.3480   20.3500 C   0  0  0  0  0  3  0  0  0  0  0  0
  -23.0110  -10.5330   20.1570 C   0  0  0  0  0  3  0  0  0  0  0  0
  -21.9370   -7.2550   21.3960 O   0  0  0  0  0  0  0  0  0  0  0  0
  -21.8440   -6.5540   22.5720 C   0  0  0  0  0  0  0  0  0  0  0  0
  -21.3190   -7.1360   23.7470 C   0  0  0  0  0  3  0  0  0  0  0  0
  -21.1750   -6.3600   24.9140 C   0  0  0  0  0  3  0  0  0  0  0  0
  -21.5480   -5.0020   24.9080 C   0  0  0  0  0  0  0  0  0  0  0  0
  -22.0650   -4.4200   23.7370 C   0  0  0  0  0  3  0  0  0  0  0  0
  -22.2100   -5.1930   22.5720 C   0  0  0  0  0  0  0  0  0  0  0  0
  -22.6900   -4.6210   21.4410 F   0  0  0  0  0  0  0  0  0  0  0  0
  -21.4030   -4.2540   26.0250 F   0  0  0  0  0  0  0  0  0  0  0  0
  -23.0910  -13.8910   21.1840 C   0  0  0  0  0  0  0  0  0  0  0  0
  -22.4140  -13.1860   22.0830 N   0  0  0  0  0  0  0  0  0  0  0  0
  -22.6340  -14.9330   20.7150 O   0  0  0  0  0  0  0  0  0  0  0  0
  -22.7980  -12.3420   22.4820 H   0  0  0  0  0  0  0  0  0  0  0  0
  -21.4990  -13.4950   22.3780 H   0  0  0  0  0  0  0  0  0  0  0  0
  -25.6790  -15.5470   20.2370 N   0  0  0  0  0  0  0  0  0  0  0  0
  -24.9190  -16.1970   20.3960 H   0  0  0  0  0  0  0  0  0  0  0  0
  -26.4850  -15.9780   19.8050 H   0  0  0  0  0  0  0  0  0  0  0  0
  1  4  1  0
  2  1  1  0
  2  5  1  0
  3  1  2  0
  3 11  1  0
  4  7  1  0
  5 54  1  0
  5  4  1  0
  6  2  2  0
  7  9  1  0
  7 10  1  0
  8  7  1  0
 12 13  1  0
 12 11  2  0
 14 25  2  0
 15 13  1  0
 15 20  1  0
 16 24  1  0
 16 26  1  0
 17 23  1  0
 17 19  1  0
 18 24  1  0
 19 18  1  0
 20 19  2  0
 21 22  1  0
 21 15  2  0
 22 17  2  0
 23 16  1  0
 24 14  1  0
 26 28  2  0
 27 26  1  0
 29 27  1  0
 30 39  2  0
 30 35  1  0
 31 27  1  0
 31 35  1  0
 32 31  1  0
 33 34  1  0
 33 32  1  0
 34 30  1  0
 35 36  2  0
 36 37  1  0
 38 37  2  0
 39 38  1  0
 40 14  1  0
 40 45  1  0
 40 41  1  0
 41 44  1  1
 41 42  1  0
 43 41  1  0
 45 48  1  0
 46 50  1  0
 46 45  1  0
 47 46  2  0
 50 49  1  0
 52 50  1  0
 52 53  1  0
 52 51  1  0
 54 63  1  0
 55 63  1  0
 56 61  1  0
 57 58  1  0
 57 56  1  0
 59 58  1  0
 59 68  1  0
 59 60  1  0
 61 55  1  0
 61 60  1  0
 62 55  2  0
 63 64  1  0
 65 66  2  0
 66 85  1  0
 67 66  1  0
 67 70  1  0
 68 69  1  0
 68 65  1  0
 69 67  2  0
 70 71  1  0
 71 72  2  0
 73 76  1  0
 73 72  1  0
 74 73  2  0
 75 74  1  0
 75 70  2  0
 76 77  1  0
 77 82  2  0
 77 78  1  0
 78 79  2  0
 80 79  1  0
 80 84  1  0
 81 80  2  0
 82 81  1  0
 83 82  1  0
 85 86  1  0
 86 89  1  0
 86 88  1  0
 87 85  2  0
 90 65  1  0
 90 91  1  0
 92 90  1  0
M  ISO  4  12 101  13 101  55 100  63 100
M  END
>  <TORSDO>  (63) 
F 20

>  <SCORE>  (63) 
-12.494

>  <name>  (63) 
62

>  <ligand_id>  (63) 
62

>  <original_smiles>  (63) 
[H]C(=C1C(=O)C([H])(C([H])([H])N([H])C(=O)N2C([H])([H])C([H])([H])C([H])([H])C([H])(n3nc(-c4c([H])c([H])c(Oc5c([H])c([H])c(F)c([H])c5F)c([H])c4[H])c(C(=O)N([H])[H])c3N([H])[H])C2([H])[H])C1([H])[N+]([H])([H])[H])C([H])([H])C([H])([H])Oc1c([H])c([H])c2c(c1[H])C([H])([H])N(C(=O)C([H])(N([H])C(=O)C([H])(N([H])C([H])([H])[H])C([H])([H])[H])C(C([H])([H])[H])(C([H])([H])[H])C([H])([H])[H])C([H])(C(=O)N([H])C1([H])c3c([H])c([H])c([H])c([H])c3C([H])([H])C([H])([H])C1([H])[H])C2([H])[H]

>  <smiles>  (63) 
[H]C(=C1C(=O)C([H])(C([H])([H])N([H])C(=O)N2C([H])([H])C([H])([H])C([H])([H])C([H])(n3nc(-c4c([H])c([H])c(Oc5c([H])c([H])c(F)c([H])c5F)c([H])c4[H])c(C(=O)N([H])[H])c3N([H])[H])C2([H])[H])C1([H])[N+]([H])([H])[H])C([H])([H])C([H])([H])Oc1c([H])c([H])c2c(c1[H])C([H])([H])N(C(=O)C([H])(N([H])C(=O)C([H])(N([H])C([H])([H])[H])C([H])([H])[H])C(C([H])([H])[H])(C([H])([H])[H])C([H])([H])[H])C([H])(C(=O)N([H])C1([H])c3c([H])c([H])c([H])c([H])c3C([H])([H])C([H])([H])C1([H])[H])C2([H])[H]

$$$$
63:0:0
     RDKit          3D

 92101  0  0  1  0  0  0  0  0999 V2000
  -29.5540  -20.2880   20.5660 C   0  0  0  0  0  0  0  0  0  0  0  0
  -28.0880  -19.9050   20.3780 C   0  0  0  0  0  1  0  0  0  0  0  0
  -29.9930  -21.5070   20.5140 N   0  0  0  0  0  0  0  0  0  0  0  0
  -30.4210  -17.9250   19.7690 C   0  0  0  0  0  3  0  0  0  0  0  0
  -30.3070  -17.9370   21.7600 C   0  0  0  0  0  2  0  0  0  0  0  0
  -30.5550  -19.1010   20.7320 C   0  0  0  0  0  3  0  0  0  0  0  0
  -30.9300  -16.9010   20.7650 C   0  0  0  0  0  3  0  0  0  0  0  0
  -29.8000  -17.7590   18.6900 N   0  0  0  0  0  2  0  0  0  0  0  0
  -30.4040  -17.8920   17.8880 H   0  0  0  0  0  0  0  0  0  0  0  0
  -30.9000  -14.5150   20.0730 C   0  0  0  0  0  0  0  0  0  0  0  0
  -30.4960  -12.3630   18.9230 C   0  0  0  0  0  2  0  0  0  0  0  0
  -29.4820  -12.5700   17.7790 C   0  0  0  0  0  2  0  0  0  0  0  0
  -28.0370  -12.4430   18.2980 C   0  0  0  0  0  2  0  0  0  0  0  0
  -27.7880  -13.2770   19.5830 C   0  0  0  0  0  3  0  0  0  0  0  0
  -28.9090  -13.0500   20.6220 C   0  0  0  0  0  2  0  0  0  0  0  0
  -30.1910  -13.3540   19.9710 N   0  0  0  0  0  0  0  0  0  0  0  0
  -31.9950  -14.6620   19.5220 O   0  0  0  0  0  0  0  0  0  0  0  0
  -30.3070  -15.5570   20.6950 N   0  0  0  0  0  0  0  0  0  0  0  0
  -29.3810  -15.4230   21.0750 H   0  0  0  0  0  0  0  0  0  0  0  0
  -25.4470  -13.8970   20.4560 C   0  0  0  0  0  0  0  0  0  0  0  0
  -24.3920  -13.1270   20.8730 C   0  0  0  0  0  0  0  0  0  0  0  0
  -24.8270  -11.7710   20.7710 C   0  0  0  0  0  0  0  0  0  0  0  0
  -26.4650  -13.0090   20.1410 N   0  0  0  0  0  0  0  0  0  0  0  0
  -26.0970  -11.7240   20.3830 N   0  0  0  0  0  0  0  0  0  0  0  0
  -24.0900  -10.5130   20.9590 C   0  0  0  0  0  0  0  0  0  0  0  0
  -24.5200   -9.5390   21.8870 C   0  0  0  0  0  3  0  0  0  0  0  0
  -23.7840   -8.3490   22.0670 C   0  0  0  0  0  3  0  0  0  0  0  0
  -22.6050   -8.1230   21.3180 C   0  0  0  0  0  0  0  0  0  0  0  0
  -22.1960   -9.0840   20.3770 C   0  0  0  0  0  3  0  0  0  0  0  0
  -22.9330  -10.2670   20.1930 C   0  0  0  0  0  3  0  0  0  0  0  0
  -21.8420   -6.9850   21.4080 O   0  0  0  0  0  0  0  0  0  0  0  0
  -21.7340   -6.2820   22.5800 C   0  0  0  0  0  0  0  0  0  0  0  0
  -21.1390   -6.8390   23.7340 C   0  0  0  0  0  3  0  0  0  0  0  0
  -20.9870   -6.0580   24.8950 C   0  0  0  0  0  3  0  0  0  0  0  0
  -21.4190   -4.7180   24.9060 C   0  0  0  0  0  0  0  0  0  0  0  0
  -22.0080   -4.1590   23.7580 C   0  0  0  0  0  3  0  0  0  0  0  0
  -22.1630   -4.9380   22.5980 C   0  0  0  0  0  0  0  0  0  0  0  0
  -22.7090   -4.3870   21.4880 F   0  0  0  0  0  0  0  0  0  0  0  0
  -21.2680   -3.9650   26.0210 F   0  0  0  0  0  0  0  0  0  0  0  0
  -23.0220  -13.6160   21.2470 C   0  0  0  0  0  0  0  0  0  0  0  0
  -22.3370  -12.9020   22.1360 N   0  0  0  0  0  0  0  0  0  0  0  0
  -22.5690  -14.6630   20.7860 O   0  0  0  0  0  0  0  0  0  0  0  0
  -22.7140  -12.0530   22.5310 H   0  0  0  0  0  0  0  0  0  0  0  0
  -21.4190  -13.2150   22.4270 H   0  0  0  0  0  0  0  0  0  0  0  0
  -25.6130  -15.2690   20.3000 N   0  0  0  0  0  0  0  0  0  0  0  0
  -24.8370  -15.9130   20.4160 H   0  0  0  0  0  0  0  0  0  0  0  0
  -26.4210  -15.7050   19.8790 H   0  0  0  0  0  0  0  0  0  0  0  0
  -30.1360  -23.5510   19.2490 C   0  0  0  0  0  2  0  0  0  0  0  0
  -29.3950  -24.0790   20.4530 C   0  0  0  0  0  3  0  0  0  0  0  0
  -29.1850  -22.6170   19.9640 C   0  0  0  0  0  3  0  0  0  0  0  0
  -28.2660  -25.1170   20.2300 C   0  0  0  0  0  2  0  0  0  0  0  0
  -28.5180  -26.5560   20.3290 O   0  0  0  0  0  0  0  0  0  0  0  0
  -24.7260  -31.9170   23.2210 C   0  0  0  0  0  0  0  0  0  0  0  0
  -27.3810  -27.3670   20.2530 C   0  0  0  0  0  0  0  0  0  0  0  0
  -23.5320  -30.4850   21.6030 C   0  0  0  0  0  3  0  0  0  0  0  0
  -24.9990  -28.9350   20.2070 C   0  0  0  0  0  0  0  0  0  0  0  0
  -26.0730  -30.8320   21.4180 C   0  0  0  0  0  2  0  0  0  0  0  0
  -26.1640  -29.4510   20.7890 C   0  0  0  0  0  0  0  0  0  0  0  0
  -27.3620  -28.6840   20.7930 C   0  0  0  0  0  3  0  0  0  0  0  0
  -26.1820  -26.8870   19.6690 C   0  0  0  0  0  3  0  0  0  0  0  0
  -25.0090  -27.6560   19.6360 C   0  0  0  0  0  3  0  0  0  0  0  0
  -23.7540  -29.7960   20.2330 C   0  0  0  0  0  2  0  0  0  0  0  0
  -24.7940  -31.0970   22.1340 N   0  0  0  0  0  0  0  0  0  0  0  0
  -23.6430  -32.1900   23.7570 O   0  0  0  0  0  0  0  0  0  0  0  0
  -22.8830  -29.4730   22.5760 C   0  0  0  0  0  0  0  0  0  0  0  0
  -21.5630  -29.2610   22.4310 N   0  0  0  0  0  0  0  0  0  0  0  0
  -23.5650  -28.8830   23.4180 O   0  0  0  0  0  0  0  0  0  0  0  0
  -21.0750  -29.7850   21.7170 H   0  0  0  0  0  0  0  0  0  0  0  0
  -18.1970  -28.0430   22.9350 C   0  0  0  0  0  0  0  0  0  0  0  0
  -20.7510  -28.3240   23.2080 C   0  0  0  0  0  3  0  0  0  0  0  0
  -20.8700  -26.8880   22.6440 C   0  0  0  0  0  2  0  0  0  0  0  0
  -19.7680  -26.5400   21.6360 C   0  0  0  0  0  2  0  0  0  0  0  0
  -18.3840  -26.6840   22.2780 C   0  0  0  0  0  2  0  0  0  0  0  0
  -19.3090  -28.8160   23.3590 C   0  0  0  0  0  0  0  0  0  0  0  0
  -19.0780  -30.0860   23.9340 C   0  0  0  0  0  3  0  0  0  0  0  0
  -17.7680  -30.5790   24.0920 C   0  0  0  0  0  3  0  0  0  0  0  0
  -16.6720  -29.7980   23.6870 C   0  0  0  0  0  3  0  0  0  0  0  0
  -16.8870  -28.5340   23.1100 C   0  0  0  0  0  3  0  0  0  0  0  0
  -26.0060  -32.5660   23.8290 C   0  0  0  0  0  3  0  0  0  0  0  0
  -26.5580  -31.7910   25.0880 C   0  0  1  0  0  0  0  0  0  0  0  0
  -25.4750  -31.4880   26.1500 C   0  0  0  0  0  1  0  0  0  0  0  0
  -27.1970  -30.4470   24.6720 C   0  0  0  0  0  1  0  0  0  0  0  0
  -27.6780  -32.6170   25.7620 C   0  0  0  0  0  1  0  0  0  0  0  0
  -25.6720  -33.9530   24.1830 N   0  0  0  0  0  0  0  0  0  0  0  0
  -25.9530  -35.0220   23.4250 C   0  0  0  0  0  0  0  0  0  0  0  0
  -26.5890  -34.9470   22.3700 O   0  0  0  0  0  0  0  0  0  0  0  0
  -25.1000  -34.0820   25.0060 H   0  0  0  0  0  0  0  0  0  0  0  0
  -24.1720  -36.7740   23.1360 C   0  0  0  0  0  1  0  0  0  0  0  0
  -25.4420  -36.3910   23.9130 C   0  0  0  0  0  3  0  0  0  0  0  0
  -27.5540  -37.3320   24.7360 C   0  0  0  0  0  1  0  0  0  0  0  0
  -26.4460  -37.4710   23.7940 N   0  0  0  0  0  0  0  0  0  0  0  0
  -26.0150  -38.3790   23.9440 H   0  0  0  0  0  0  0  0  0  0  0  0
  2  1  1  0
  3  1  2  0
  4  8  1  0
  4  6  1  0
  4  7  1  0
  6  1  1  0
  6  5  1  0
  7 18  1  0
  7  5  1  0
  9  8  1  0
 10 18  1  0
 11 16  1  0
 12 13  1  0
 12 11  1  0
 14 13  1  0
 14 23  1  0
 14 15  1  0
 16 10  1  0
 16 15  1  0
 17 10  2  0
 18 19  1  0
 20 21  2  0
 21 40  1  0
 22 21  1  0
 22 25  1  0
 23 24  1  0
 23 20  1  0
 24 22  2  0
 25 26  1  0
 26 27  2  0
 28 31  1  0
 28 27  1  0
 29 28  2  0
 30 29  1  0
 30 25  2  0
 31 32  1  0
 32 37  2  0
 32 33  1  0
 33 34  2  0
 34 35  1  0
 35 39  1  0
 36 35  2  0
 37 36  1  0
 38 37  1  0
 40 41  1  0
 41 44  1  0
 41 43  1  0
 42 40  2  0
 45 46  1  0
 45 20  1  0
 47 45  1  0
 48 50  1  0
 48 49  1  0
 49 51  1  0
 50 49  1  0
 50  3  1  0
 51 52  1  0
 53 64  2  0
 54 52  1  0
 54 59  1  0
 55 63  1  0
 55 65  1  0
 56 62  1  0
 56 58  1  0
 57 63  1  0
 58 59  2  0
 58 57  1  0
 60 54  2  0
 61 60  1  0
 61 56  2  0
 62 55  1  0
 63 53  1  0
 65 67  2  0
 66 65  1  0
 68 66  1  0
 69 78  2  0
 69 74  1  0
 70 66  1  0
 70 74  1  0
 71 70  1  0
 72 73  1  0
 72 71  1  0
 73 69  1  0
 74 75  2  0
 75 76  1  0
 77 76  2  0
 78 77  1  0
 79 53  1  0
 79 84  1  0
 79 80  1  0
 80 83  1  1
 80 81  1  0
 82 80  1  0
 84 87  1  0
 85 89  1  0
 85 84  1  0
 86 85  2  0
 89 88  1  0
 91 89  1  0
 91 92  1  0
 91 90  1  0
M  ISO  4  10 100  18 100  51 101  52 101
M  END
>  <TORSDO>  (64) 
F 19

>  <SCORE>  (64) 
-14.037

>  <name>  (64) 
63

>  <ligand_id>  (64) 
63

>  <original_smiles>  (64) 
[H]N=C1C([H])(C(=NC2([H])C([H])([H])C2([H])C([H])([H])Oc2c([H])c([H])c3c(c2[H])C([H])([H])N(C(=O)C([H])(N([H])C(=O)C([H])(N([H])C([H])([H])[H])C([H])([H])[H])C(C([H])([H])[H])(C([H])([H])[H])C([H])([H])[H])C([H])(C(=O)N([H])C2([H])c4c([H])c([H])c([H])c([H])c4C([H])([H])C([H])([H])C2([H])[H])C3([H])[H])C([H])([H])[H])C([H])([H])C1([H])N([H])C(=O)N1C([H])([H])C([H])([H])C([H])([H])C([H])(n2nc(-c3c([H])c([H])c(Oc4c([H])c([H])c(F)c([H])c4F)c([H])c3[H])c(C(=O)N([H])[H])c2N([H])[H])C1([H])[H]

>  <smiles>  (64) 
[H]N=C1C([H])(C(=NC2([H])C([H])([H])C2([H])C([H])([H])Oc2c([H])c([H])c3c(c2[H])C([H])([H])N(C(=O)C([H])(N([H])C(=O)C([H])(N([H])C([H])([H])[H])C([H])([H])[H])C(C([H])([H])[H])(C([H])([H])[H])C([H])([H])[H])C([H])(C(=O)N([H])C2([H])c4c([H])c([H])c([H])c([H])c4C([H])([H])C([H])([H])C2([H])[H])C3([H])[H])C([H])([H])[H])C([H])([H])C1([H])N([H])C(=O)N1C([H])([H])C([H])([H])C([H])([H])C([H])(n2nc(-c3c([H])c([H])c(Oc4c([H])c([H])c(F)c([H])c4F)c([H])c3[H])c(C(=O)N([H])[H])c2N([H])[H])C1([H])[H]

$$$$
64:0:0
     RDKit          3D

 91100  0  0  1  0  0  0  0  0999 V2000
  -29.9050  -21.5300   19.8240 C   0  0  0  0  0  2  0  0  0  0  0  0
  -28.9740  -20.5790   21.9710 C   0  0  0  0  0  3  0  0  0  0  0  0
  -29.2730  -20.3830   20.6630 C   0  0  0  0  0  0  0  0  0  0  0  0
  -29.2170  -21.8360   22.8060 C   0  0  0  0  0  1  0  0  0  0  0  0
  -27.9370  -18.0610   20.3430 C   0  0  0  0  0  2  0  0  0  0  0  0
  -29.0350  -19.0380   19.9460 C   0  0  0  0  0  3  0  0  0  0  0  0
  -29.3790  -17.6070   20.4840 C   0  0  0  0  0  3  0  0  0  0  0  0
  -29.8610  -16.3970   19.6170 C   0  0  0  0  0  2  0  0  0  0  0  0
  -31.6430  -14.5110   19.5800 C   0  0  0  0  0  0  0  0  0  0  0  0
  -31.3450  -12.1100   18.9980 C   0  0  0  0  0  2  0  0  0  0  0  0
  -30.3680  -11.9630   17.8150 C   0  0  0  0  0  2  0  0  0  0  0  0
  -28.9040  -11.9890   18.2970 C   0  0  0  0  0  2  0  0  0  0  0  0
  -28.6140  -13.1240   19.3180 C   0  0  0  0  0  3  0  0  0  0  0  0
  -29.6920  -13.1450   20.4180 C   0  0  0  0  0  2  0  0  0  0  0  0
  -30.9790  -13.3290   19.7480 N   0  0  0  0  0  0  0  0  0  0  0  0
  -32.7530  -14.5440   19.0460 O   0  0  0  0  0  0  0  0  0  0  0  0
  -31.0930  -15.6680   20.0580 N   0  0  0  0  0  0  0  0  0  0  0  0
  -31.8320  -16.3410   20.2200 H   0  0  0  0  0  0  0  0  0  0  0  0
  -26.3520  -14.0130   20.1520 C   0  0  0  0  0  0  0  0  0  0  0  0
  -25.2310  -13.3760   20.5950 C   0  0  0  0  0  0  0  0  0  0  0  0
  -25.5200  -11.9770   20.5360 C   0  0  0  0  0  0  0  0  0  0  0  0
  -27.2710  -13.0150   19.8730 N   0  0  0  0  0  0  0  0  0  0  0  0
  -26.7770  -11.7840   20.1550 N   0  0  0  0  0  0  0  0  0  0  0  0
  -24.6590  -10.8120   20.7660 C   0  0  0  0  0  0  0  0  0  0  0  0
  -24.9770   -9.8430   21.7430 C   0  0  0  0  0  3  0  0  0  0  0  0
  -24.1270   -8.7390   21.9620 C   0  0  0  0  0  3  0  0  0  0  0  0
  -22.9400   -8.5960   21.2070 C   0  0  0  0  0  0  0  0  0  0  0  0
  -22.6380   -9.5510   20.2170 C   0  0  0  0  0  3  0  0  0  0  0  0
  -23.4880  -10.6490   19.9970 C   0  0  0  0  0  3  0  0  0  0  0  0
  -22.0670   -7.5430   21.3350 O   0  0  0  0  0  0  0  0  0  0  0  0
  -21.8740   -6.9080   22.5340 C   0  0  0  0  0  0  0  0  0  0  0  0
  -21.4230   -7.6000   23.6780 C   0  0  0  0  0  3  0  0  0  0  0  0
  -21.1750   -6.8950   24.8730 C   0  0  0  0  0  3  0  0  0  0  0  0
  -21.3650   -5.5020   24.9230 C   0  0  0  0  0  0  0  0  0  0  0  0
  -21.8030   -4.8110   23.7800 C   0  0  0  0  0  3  0  0  0  0  0  0
  -22.0550   -5.5110   22.5870 C   0  0  0  0  0  0  0  0  0  0  0  0
  -22.4610   -4.8380   21.4830 F   0  0  0  0  0  0  0  0  0  0  0  0
  -21.1140   -4.8220   26.0670 F   0  0  0  0  0  0  0  0  0  0  0  0
  -23.9150  -14.0130   20.9430 C   0  0  0  0  0  0  0  0  0  0  0  0
  -23.1650  -13.4190   21.8590 N   0  0  0  0  0  0  0  0  0  0  0  0
  -23.5700  -15.0810   20.4330 O   0  0  0  0  0  0  0  0  0  0  0  0
  -23.4530  -12.5540   22.3000 H   0  0  0  0  0  0  0  0  0  0  0  0
  -22.2830  -13.8340   22.1260 H   0  0  0  0  0  0  0  0  0  0  0  0
  -26.6610  -15.3510   19.9350 N   0  0  0  0  0  0  0  0  0  0  0  0
  -25.9830  -16.0880   20.0870 H   0  0  0  0  0  0  0  0  0  0  0  0
  -27.4970  -15.6680   19.4680 H   0  0  0  0  0  0  0  0  0  0  0  0
  -27.6620  -23.0240   19.8520 C   0  0  0  0  0  2  0  0  0  0  0  0
  -29.0060  -22.6860   19.2590 C   0  0  0  0  0  3  0  0  0  0  0  0
  -28.7350  -24.0870   19.9070 C   0  0  0  0  0  3  0  0  0  0  0  0
  -28.5750  -25.4130   19.0940 C   0  0  0  0  0  2  0  0  0  0  0  0
  -28.4720  -26.6630   19.8560 O   0  0  0  0  0  0  0  0  0  0  0  0
  -24.6250  -31.7350   23.1860 C   0  0  0  0  0  0  0  0  0  0  0  0
  -27.2910  -27.4090   19.8900 C   0  0  0  0  0  0  0  0  0  0  0  0
  -23.4330  -30.3990   21.4940 C   0  0  0  0  0  3  0  0  0  0  0  0
  -24.8900  -28.9400   19.9990 C   0  0  0  0  0  0  0  0  0  0  0  0
  -25.9600  -30.7810   21.2990 C   0  0  0  0  0  2  0  0  0  0  0  0
  -26.0570  -29.4370   20.5900 C   0  0  0  0  0  0  0  0  0  0  0  0
  -27.2650  -28.6870   20.5190 C   0  0  0  0  0  3  0  0  0  0  0  0
  -26.0870  -26.9360   19.3210 C   0  0  0  0  0  3  0  0  0  0  0  0
  -24.8980  -27.6880   19.3710 C   0  0  0  0  0  3  0  0  0  0  0  0
  -23.6460  -29.7970   20.0810 C   0  0  0  0  0  2  0  0  0  0  0  0
  -24.6940  -30.9840   22.0500 N   0  0  0  0  0  0  0  0  0  0  0  0
  -23.5410  -31.9690   23.7370 O   0  0  0  0  0  0  0  0  0  0  0  0
  -22.7930  -29.3240   22.4050 C   0  0  0  0  0  0  0  0  0  0  0  0
  -21.4760  -29.1120   22.2550 N   0  0  0  0  0  0  0  0  0  0  0  0
  -23.4830  -28.6840   23.2050 O   0  0  0  0  0  0  0  0  0  0  0  0
  -20.9770  -29.6840   21.5860 H   0  0  0  0  0  0  0  0  0  0  0  0
  -18.1280  -27.8100   22.6650 C   0  0  0  0  0  0  0  0  0  0  0  0
  -20.6740  -28.1290   22.9840 C   0  0  0  0  0  3  0  0  0  0  0  0
  -20.8270  -26.7210   22.3660 C   0  0  0  0  0  2  0  0  0  0  0  0
  -19.7500  -26.4010   21.3250 C   0  0  0  0  0  2  0  0  0  0  0  0
  -18.3550  -26.4870   21.9500 C   0  0  0  0  0  2  0  0  0  0  0  0
  -19.2190  -28.5870   23.1360 C   0  0  0  0  0  0  0  0  0  0  0  0
  -18.9560  -29.8280   23.7600 C   0  0  0  0  0  3  0  0  0  0  0  0
  -17.6360  -30.2840   23.9250 C   0  0  0  0  0  3  0  0  0  0  0  0
  -16.5590  -29.5030   23.4710 C   0  0  0  0  0  3  0  0  0  0  0  0
  -16.8060  -28.2700   22.8430 C   0  0  0  0  0  3  0  0  0  0  0  0
  -25.9000  -32.3610   23.8290 C   0  0  0  0  0  3  0  0  0  0  0  0
  -25.5830  -33.7520   24.1770 N   0  0  0  0  0  0  0  0  0  0  0  0
  -25.9250  -34.8200   23.4430 C   0  0  0  0  0  0  0  0  0  0  0  0
  -26.6150  -34.7380   22.4240 O   0  0  0  0  0  0  0  0  0  0  0  0
  -24.9750  -33.8920   24.9700 H   0  0  0  0  0  0  0  0  0  0  0  0
  -24.1970  -36.6140   23.0950 C   0  0  0  0  0  1  0  0  0  0  0  0
  -25.4240  -36.1980   23.9190 C   0  0  0  0  0  3  0  0  0  0  0  0
  -27.5390  -37.0730   24.8080 C   0  0  0  0  0  1  0  0  0  0  0  0
  -26.4560  -37.2570   23.8460 N   0  0  0  0  0  0  0  0  0  0  0  0
  -26.0460  -38.1740   24.0070 H   0  0  0  0  0  0  0  0  0  0  0  0
  -26.4010  -31.5740   25.0990 C   0  0  1  0  0  0  0  0  0  0  0  0
  -25.2920  -31.3160   26.1460 C   0  0  0  0  0  1  0  0  0  0  0  0
  -26.9990  -30.2070   24.6920 C   0  0  0  0  0  1  0  0  0  0  0  0
  -27.5370  -32.3620   25.7930 C   0  0  0  0  0  1  0  0  0  0  0  0
  1  3  1  0
  2  4  1  0
  3  2  2  0
  5  7  1  0
  6  5  1  0
  6  7  1  0
  6  3  1  0
  7  8  1  0
  8 17  1  0
  9 15  1  0
  9 17  1  0
 10 15  1  0
 11 12  1  0
 11 10  1  0
 13 12  1  0
 13 22  1  0
 13 14  1  0
 15 14  1  0
 16  9  2  0
 17 18  1  0
 19 20  2  0
 20 39  1  0
 21 20  1  0
 21 24  1  0
 22 19  1  0
 22 23  1  0
 23 21  2  0
 24 25  1  0
 25 26  2  0
 27 30  1  0
 27 26  1  0
 28 27  2  0
 29 28  1  0
 29 24  2  0
 30 31  1  0
 31 36  2  0
 31 32  1  0
 32 33  2  0
 33 34  1  0
 34 38  1  0
 35 34  2  0
 36 35  1  0
 37 36  1  0
 39 40  1  0
 40 43  1  0
 40 42  1  0
 41 39  2  0
 44 45  1  0
 44 19  1  0
 46 44  1  0
 47 49  1  0
 48  1  1  0
 48 47  1  0
 48 49  1  0
 49 50  1  0
 50 51  1  0
 51 53  1  0
 52 63  2  0
 53 58  1  0
 54 62  1  0
 54 64  1  0
 55 61  1  0
 55 57  1  0
 56 62  1  0
 57 56  1  0
 58 57  2  0
 59 60  1  0
 59 53  2  0
 60 55  2  0
 61 54  1  0
 62 52  1  0
 64 66  2  0
 65 64  1  0
 67 65  1  0
 68 77  2  0
 68 73  1  0
 69 65  1  0
 69 73  1  0
 70 69  1  0
 71 72  1  0
 71 70  1  0
 72 68  1  0
 73 74  2  0
 74 75  1  0
 76 75  2  0
 77 76  1  0
 78 52  1  0
 78 79  1  0
 78 88  1  0
 79 82  1  0
 80 84  1  0
 80 79  1  0
 81 80  2  0
 84 83  1  0
 86 84  1  0
 86 87  1  0
 86 85  1  0
 88 91  1  1
 88 89  1  0
 90 88  1  0
M  ISO  4   9 100  17 100  50 101  51 101
M  END
>  <TORSDO>  (65) 
F 21

>  <SCORE>  (65) 
-11.797

>  <name>  (65) 
64

>  <ligand_id>  (65) 
64

>  <original_smiles>  (65) 
[H]C(=C(C([H])([H])C1([H])C([H])([H])C1([H])C([H])([H])Oc1c([H])c([H])c2c(c1[H])C([H])([H])N(C(=O)C([H])(N([H])C(=O)C([H])(N([H])C([H])([H])[H])C([H])([H])[H])C(C([H])([H])[H])(C([H])([H])[H])C([H])([H])[H])C([H])(C(=O)N([H])C1([H])c3c([H])c([H])c([H])c([H])c3C([H])([H])C([H])([H])C1([H])[H])C2([H])[H])C1([H])C([H])([H])C1([H])C([H])([H])N([H])C(=O)N1C([H])([H])C([H])([H])C([H])([H])C([H])(n2nc(-c3c([H])c([H])c(Oc4c([H])c([H])c(F)c([H])c4F)c([H])c3[H])c(C(=O)N([H])[H])c2N([H])[H])C1([H])[H])C([H])([H])[H]

>  <smiles>  (65) 
[H]C(=C(C([H])([H])C1([H])C([H])([H])C1([H])C([H])([H])Oc1c([H])c([H])c2c(c1[H])C([H])([H])N(C(=O)C([H])(N([H])C(=O)C([H])(N([H])C([H])([H])[H])C([H])([H])[H])C(C([H])([H])[H])(C([H])([H])[H])C([H])([H])[H])C([H])(C(=O)N([H])C1([H])c3c([H])c([H])c([H])c([H])c3C([H])([H])C([H])([H])C1([H])[H])C2([H])[H])C1([H])C([H])([H])C1([H])C([H])([H])N([H])C(=O)N1C([H])([H])C([H])([H])C([H])([H])C([H])(n2nc(-c3c([H])c([H])c(Oc4c([H])c([H])c(F)c([H])c4F)c([H])c3[H])c(C(=O)N([H])[H])c2N([H])[H])C1([H])[H])C([H])([H])[H]

$$$$
65:0:0
     RDKit          3D

 88 96  0  0  1  0  0  0  0  0999 V2000
  -28.7840  -22.1400   20.1620 C   0  0  0  0  0  3  0  0  0  0  0  0
  -29.1310  -23.7230   20.4150 C   0  0  0  0  0  3  0  0  0  0  0  0
  -28.0650  -24.9060   20.0810 C   0  0  0  0  0  3  0  0  0  0  0  0
  -28.3200  -26.3750   20.3350 O   0  0  0  0  0  0  0  0  0  0  0  0
  -24.6350  -31.8960   23.3210 C   0  0  0  0  0  0  0  0  0  0  0  0
  -27.2380  -27.2920   20.2600 C   0  0  0  0  0  0  0  0  0  0  0  0
  -23.4440  -30.5270   21.6490 C   0  0  0  0  0  3  0  0  0  0  0  0
  -24.9010  -28.9750   20.2270 C   0  0  0  0  0  0  0  0  0  0  0  0
  -25.9940  -30.8090   21.5110 C   0  0  0  0  0  2  0  0  0  0  0  0
  -26.0700  -29.4320   20.8480 C   0  0  0  0  0  0  0  0  0  0  0  0
  -27.2420  -28.6040   20.8510 C   0  0  0  0  0  3  0  0  0  0  0  0
  -26.0420  -26.9110   19.6070 C   0  0  0  0  0  3  0  0  0  0  0  0
  -24.8930  -27.7240   19.5950 C   0  0  0  0  0  3  0  0  0  0  0  0
  -23.6740  -29.8680   20.2650 C   0  0  0  0  0  2  0  0  0  0  0  0
  -24.7090  -31.0950   22.2170 N   0  0  0  0  0  0  0  0  0  0  0  0
  -23.5450  -32.1800   23.8400 O   0  0  0  0  0  0  0  0  0  0  0  0
  -22.7550  -29.5080   22.5890 C   0  0  0  0  0  0  0  0  0  0  0  0
  -21.4290  -29.3430   22.4400 N   0  0  0  0  0  0  0  0  0  0  0  0
  -23.4140  -28.8700   23.4130 O   0  0  0  0  0  0  0  0  0  0  0  0
  -20.9550  -29.9100   21.7500 H   0  0  0  0  0  0  0  0  0  0  0  0
  -18.0310  -28.1780   22.8890 C   0  0  0  0  0  0  0  0  0  0  0  0
  -20.5890  -28.4050   23.1900 C   0  0  0  0  0  3  0  0  0  0  0  0
  -20.6820  -26.9800   22.5980 C   0  0  0  0  0  2  0  0  0  0  0  0
  -19.5870  -26.6820   21.5670 C   0  0  0  0  0  2  0  0  0  0  0  0
  -18.2000  -26.8350   22.1990 C   0  0  0  0  0  2  0  0  0  0  0  0
  -19.1530  -28.9210   23.3410 C   0  0  0  0  0  0  0  0  0  0  0  0
  -18.9410  -30.1780   23.9480 C   0  0  0  0  0  3  0  0  0  0  0  0
  -17.6410  -30.6920   24.1070 C   0  0  0  0  0  3  0  0  0  0  0  0
  -16.5330  -29.9440   23.6700 C   0  0  0  0  0  3  0  0  0  0  0  0
  -16.7290  -28.6890   23.0680 C   0  0  0  0  0  3  0  0  0  0  0  0
  -25.9120  -32.5120   23.9680 C   0  0  0  0  0  3  0  0  0  0  0  0
  -26.3830  -31.7450   25.2640 C   0  0  1  0  0  0  0  0  0  0  0  0
  -25.2600  -31.5330   26.3050 C   0  0  0  0  0  1  0  0  0  0  0  0
  -26.9540  -30.3550   24.9000 C   0  0  0  0  0  1  0  0  0  0  0  0
  -27.5280  -32.5280   25.9500 C   0  0  0  0  0  1  0  0  0  0  0  0
  -25.6200  -33.9200   24.2810 N   0  0  0  0  0  0  0  0  0  0  0  0
  -25.9510  -34.9590   23.5030 C   0  0  0  0  0  0  0  0  0  0  0  0
  -26.6040  -34.8340   22.4640 O   0  0  0  0  0  0  0  0  0  0  0  0
  -25.0420  -34.0930   25.0900 H   0  0  0  0  0  0  0  0  0  0  0  0
  -24.2140  -36.7490   23.1770 C   0  0  0  0  0  1  0  0  0  0  0  0
  -25.4850  -36.3590   23.9480 C   0  0  0  0  0  3  0  0  0  0  0  0
  -27.6470  -37.2620   24.6830 C   0  0  0  0  0  1  0  0  0  0  0  0
  -26.5140  -37.4060   23.7730 N   0  0  0  0  0  0  0  0  0  0  0  0
  -26.1140  -38.3300   23.9080 H   0  0  0  0  0  0  0  0  0  0  0  0
  -29.9240  -21.0180   20.4500 C   0  0  0  0  0  3  0  0  0  0  0  0
  -30.2230  -18.4730   21.2070 C   0  0  0  0  0  0  0  0  0  0  0  0
  -29.4170  -18.4510   19.3230 C   0  0  0  0  0  2  0  0  0  0  0  0
  -30.3550  -17.4240   20.0460 C   0  0  0  0  0  3  0  0  0  0  0  0
  -29.7400  -19.4890   20.3670 N   0  0  0  0  0  0  0  0  0  0  0  0
  -30.5340  -18.5050   22.3790 O   0  0  0  0  0  0  0  0  0  0  0  0
  -30.6560  -14.8190   20.0620 C   0  0  0  0  0  0  0  0  0  0  0  0
  -30.4380  -12.5280   19.0860 C   0  0  0  0  0  2  0  0  0  0  0  0
  -29.4480  -12.5600   17.9000 C   0  0  0  0  0  2  0  0  0  0  0  0
  -28.0030  -12.3670   18.3980 C   0  0  0  0  0  2  0  0  0  0  0  0
  -27.6630  -13.2640   19.6170 C   0  0  0  0  0  3  0  0  0  0  0  0
  -28.7710  -13.2200   20.6920 C   0  0  0  0  0  2  0  0  0  0  0  0
  -30.0310  -13.5900   20.0360 N   0  0  0  0  0  0  0  0  0  0  0  0
  -31.8290  -14.9060   19.6940 O   0  0  0  0  0  0  0  0  0  0  0  0
  -29.9060  -15.9710   20.2710 N   0  0  0  0  0  0  0  0  0  0  0  0
  -28.9470  -15.8430   20.5530 H   0  0  0  0  0  0  0  0  0  0  0  0
  -25.3160  -13.8230   20.4880 C   0  0  0  0  0  0  0  0  0  0  0  0
  -24.2720  -13.0350   20.8870 C   0  0  0  0  0  0  0  0  0  0  0  0
  -24.7350  -11.6860   20.7890 C   0  0  0  0  0  0  0  0  0  0  0  0
  -26.3470  -12.9550   20.1700 N   0  0  0  0  0  0  0  0  0  0  0  0
  -26.0070  -11.6620   20.4130 N   0  0  0  0  0  0  0  0  0  0  0  0
  -24.0200  -10.4160   20.9730 C   0  0  0  0  0  0  0  0  0  0  0  0
  -24.4530   -9.4530   21.9110 C   0  0  0  0  0  3  0  0  0  0  0  0
  -23.7360   -8.2500   22.0840 C   0  0  0  0  0  3  0  0  0  0  0  0
  -22.5720   -8.0010   21.3190 C   0  0  0  0  0  0  0  0  0  0  0  0
  -22.1580   -8.9540   20.3720 C   0  0  0  0  0  3  0  0  0  0  0  0
  -22.8750  -10.1480   20.1970 C   0  0  0  0  0  3  0  0  0  0  0  0
  -21.8280   -6.8490   21.4000 O   0  0  0  0  0  0  0  0  0  0  0  0
  -21.7070   -6.1520   22.5760 C   0  0  0  0  0  0  0  0  0  0  0  0
  -21.1600   -6.7380   23.7380 C   0  0  0  0  0  3  0  0  0  0  0  0
  -20.9900   -5.9660   24.9040 C   0  0  0  0  0  3  0  0  0  0  0  0
  -21.3570   -4.6070   24.9070 C   0  0  0  0  0  0  0  0  0  0  0  0
  -21.8980   -4.0190   23.7500 C   0  0  0  0  0  3  0  0  0  0  0  0
  -22.0690   -4.7900   22.5860 C   0  0  0  0  0  0  0  0  0  0  0  0
  -22.5700   -4.2140   21.4670 F   0  0  0  0  0  0  0  0  0  0  0  0
  -21.1870   -3.8610   26.0240 F   0  0  0  0  0  0  0  0  0  0  0  0
  -22.8900  -13.5000   21.2420 C   0  0  0  0  0  0  0  0  0  0  0  0
  -22.2100  -12.7820   22.1280 N   0  0  0  0  0  0  0  0  0  0  0  0
  -22.4240  -14.5360   20.7690 O   0  0  0  0  0  0  0  0  0  0  0  0
  -22.6010  -11.9450   22.5330 H   0  0  0  0  0  0  0  0  0  0  0  0
  -21.2850  -13.0770   22.4080 H   0  0  0  0  0  0  0  0  0  0  0  0
  -25.4670  -15.2000   20.3450 N   0  0  0  0  0  0  0  0  0  0  0  0
  -24.6960  -15.8380   20.5060 H   0  0  0  0  0  0  0  0  0  0  0  0
  -26.2730  -15.6520   19.9370 H   0  0  0  0  0  0  0  0  0  0  0  0
  1  2  1  0
  1 45  2  0
  3  4  1  0
  3  2  2  0
  5 16  2  0
  6  4  1  0
  6 11  1  0
  7 15  1  0
  7 17  1  0
  8 14  1  0
  8 10  1  0
  9 15  1  0
 10 11  2  0
 10  9  1  0
 12  6  2  0
 13 12  1  0
 13  8  2  0
 14  7  1  0
 15  5  1  0
 17 19  2  0
 18 17  1  0
 20 18  1  0
 21 30  2  0
 21 26  1  0
 22 18  1  0
 22 26  1  0
 23 22  1  0
 24 25  1  0
 24 23  1  0
 25 21  1  0
 26 27  2  0
 27 28  1  0
 29 28  2  0
 30 29  1  0
 31  5  1  0
 31 36  1  0
 31 32  1  0
 32 35  1  1
 32 33  1  0
 34 32  1  0
 36 39  1  0
 37 41  1  0
 37 36  1  0
 38 37  2  0
 41 40  1  0
 43 44  1  0
 43 41  1  0
 43 42  1  0
 46 50  2  0
 47 48  1  0
 47 49  1  0
 48 59  1  0
 48 46  1  0
 49 45  1  0
 49 46  1  0
 51 59  1  0
 52 57  1  0
 53 54  1  0
 53 52  1  0
 55 54  1  0
 55 64  1  0
 55 56  1  0
 57 51  1  0
 57 56  1  0
 58 51  2  0
 59 60  1  0
 61 62  2  0
 62 81  1  0
 63 62  1  0
 63 66  1  0
 64 65  1  0
 64 61  1  0
 65 63  2  0
 66 67  1  0
 67 68  2  0
 69 72  1  0
 69 68  1  0
 70 69  2  0
 71 70  1  0
 71 66  2  0
 72 73  1  0
 73 78  2  0
 73 74  1  0
 74 75  2  0
 75 76  1  0
 76 80  1  0
 77 76  2  0
 78 77  1  0
 79 78  1  0
 81 82  1  0
 82 85  1  0
 82 84  1  0
 83 81  2  0
 86 61  1  0
 86 87  1  0
 88 86  1  0
M  ISO  4   3 101   4 101  51 100  59 100
M  END
>  <TORSDO>  (66) 
F 20

>  <SCORE>  (66) 
-13.405

>  <name>  (66) 
65

>  <ligand_id>  (66) 
65

>  <original_smiles>  (66) 
[H]c1c([H])c([H])c2c(c1[H])C([H])([H])C([H])([H])C([H])([H])C2([H])N([H])C(=O)C1([H])N(C(=O)C([H])(N([H])C(=O)C([H])(N([H])C([H])([H])[H])C([H])([H])[H])C(C([H])([H])[H])(C([H])([H])[H])C([H])([H])[H])C([H])([H])c2c([H])c(OC([H])([H])C([H])([H])C([H])([H])C([H])([H])N3C(=O)C([H])(N([H])C(=O)N4C([H])([H])C([H])([H])C([H])([H])C([H])(n5nc(-c6c([H])c([H])c(Oc7c([H])c([H])c(F)c([H])c7F)c([H])c6[H])c(C(=O)N([H])[H])c5N([H])[H])C4([H])[H])C3([H])[H])c([H])c([H])c2C1([H])[H]

>  <smiles>  (66) 
[H]c1c([H])c([H])c2c(c1[H])C([H])([H])C([H])([H])C([H])([H])C2([H])N([H])C(=O)C1([H])N(C(=O)C([H])(N([H])C(=O)C([H])(N([H])C([H])([H])[H])C([H])([H])[H])C(C([H])([H])[H])(C([H])([H])[H])C([H])([H])[H])C([H])([H])c2c([H])c(OC([H])([H])C([H])([H])C([H])([H])C([H])([H])N3C(=O)C([H])(N([H])C(=O)N4C([H])([H])C([H])([H])C([H])([H])C([H])(n5nc(-c6c([H])c([H])c(Oc7c([H])c([H])c(F)c([H])c7F)c([H])c6[H])c(C(=O)N([H])[H])c5N([H])[H])C4([H])[H])C3([H])[H])c([H])c([H])c2C1([H])[H]

$$$$
66:0:0
     RDKit          3D

 92 92  0  0  1  0  0  0  0  0999 V2000
  -28.4270  -17.7220   19.3970 C   0  0  0  0  0 15  0  0  0  0  0  0
  -29.5040  -20.3570   18.4480 C   0  0  0  0  0  1  0  0  0  0  0  0
  -29.2880  -20.2110   20.9450 C   0  0  0  0  0  1  0  0  0  0  0  0
  -28.5300  -20.1110   19.6130 C   0  0  0  0  0  2  0  0  0  0  0  0
  -27.7210  -22.3540   19.5990 C   0  0  0  0  0 15  0  0  0  0  0  0
  -27.8510  -24.4670   19.7950 O   0  0  0  0  0  1  0  0  0  0  0  0
  -24.6340  -31.6910   22.9150 C   0  0  0  0  0  0  0  0  0  0  0  0
  -27.0370  -26.0190   19.8650 C   0  0  0  0  0  0  0  0  0  0  0  0
  -23.4670  -30.2510   21.3210 C   0  0  0  0  0  3  0  0  0  0  0  0
  -24.8870  -28.4870   19.9130 C   0  0  0  0  0  0  0  0  0  0  0  0
  -26.0680  -30.2030   21.2350 C   0  0  0  0  0  2  0  0  0  0  0  0
  -26.1090  -28.7010   20.5570 C   0  0  0  0  0  0  0  0  0  0  0  0
  -27.1410  -27.5140   20.4900 C   0  0  0  0  0  3  0  0  0  0  0  0
  -25.7880  -26.2030   19.1790 C   0  0  0  0  0  3  0  0  0  0  0  0
  -24.8070  -27.2740   19.2010 C   0  0  0  0  0  3  0  0  0  0  0  0
  -23.7170  -29.5160   19.9660 C   0  0  0  0  0  2  0  0  0  0  0  0
  -24.7610  -30.7670   21.8740 N   0  0  0  0  0  0  0  0  0  0  0  0
  -23.5270  -32.0070   23.3970 O   0  0  0  0  0  0  0  0  0  0  0  0
  -22.7240  -29.3210   22.3220 C   0  0  0  0  0  0  0  0  0  0  0  0
  -21.3810  -29.2060   22.2420 N   0  0  0  0  0  0  0  0  0  0  0  0
  -23.3780  -28.6930   23.1590 O   0  0  0  0  0  0  0  0  0  0  0  0
  -20.8930  -29.7620   21.5540 H   0  0  0  0  0  0  0  0  0  0  0  0
  -17.9930  -28.0150   22.8800 C   0  0  0  0  0  0  0  0  0  0  0  0
  -20.5650  -28.2750   23.0390 C   0  0  0  0  0  3  0  0  0  0  0  0
  -20.6320  -26.8450   22.4540 C   0  0  0  0  0  2  0  0  0  0  0  0
  -19.4930  -26.5390   21.4770 C   0  0  0  0  0  2  0  0  0  0  0  0
  -18.1370  -26.6790   22.1740 C   0  0  0  0  0  2  0  0  0  0  0  0
  -19.1300  -28.7730   23.2710 C   0  0  0  0  0  0  0  0  0  0  0  0
  -18.9330  -30.0190   23.9060 C   0  0  0  0  0  3  0  0  0  0  0  0
  -17.6360  -30.5110   24.1440 C   0  0  0  0  0  3  0  0  0  0  0  0
  -16.5150  -29.7530   23.7620 C   0  0  0  0  0  3  0  0  0  0  0  0
  -16.6950  -28.5060   23.1370 C   0  0  0  0  0  3  0  0  0  0  0  0
  -25.8580  -32.4110   23.5620 C   0  0  0  0  0  3  0  0  0  0  0  0
  -25.4590  -33.7830   23.9690 N   0  0  0  0  0  0  0  0  0  0  0  0
  -25.7720  -34.9190   23.3270 C   0  0  0  0  0  0  0  0  0  0  0  0
  -26.4670  -34.9270   22.3100 O   0  0  0  0  0  0  0  0  0  0  0  0
  -24.8340  -33.8450   24.7600 H   0  0  0  0  0  0  0  0  0  0  0  0
  -23.9970  -36.7040   23.1040 C   0  0  0  0  0  1  0  0  0  0  0  0
  -25.2370  -36.2570   23.8960 C   0  0  0  0  0  3  0  0  0  0  0  0
  -27.3290  -37.1460   24.8380 C   0  0  0  0  0  1  0  0  0  0  0  0
  -26.2380  -37.3490   23.8880 N   0  0  0  0  0  0  0  0  0  0  0  0
  -25.8000  -38.2420   24.0970 H   0  0  0  0  0  0  0  0  0  0  0  0
  -26.4160  -31.6500   24.8300 C   0  0  1  0  0  0  0  0  0  0  0  0
  -25.3440  -31.3600   25.9100 C   0  0  0  0  0  1  0  0  0  0  0  0
  -27.0480  -30.3000   24.4370 C   0  0  0  0  0  1  0  0  0  0  0  0
  -27.5430  -32.4790   25.4890 C   0  0  0  0  0  1  0  0  0  0  0  0
  -28.9950  -15.7640   19.9390 N   0  0  0  0  0  2  0  0  0  0  0  0
  -28.0240  -15.6240   20.1670 H   0  0  0  0  0  0  0  0  0  0  0  0
  -29.6610  -11.6600   20.1320 C   0  0  0  0  0  0  0  0  0  0  0  0
  -29.1250  -10.7910   18.9930 C   0  0  0  0  0  2  0  0  0  0  0  0
  -29.0500  -12.0900   18.1880 C   0  0  0  0  0  2  0  0  0  0  0  0
  -28.9040  -13.0460   19.5240 C   0  0  0  0  0  2  0  0  0  0  0  0
  -30.4060  -11.3550   21.0740 O   0  0  0  0  0  0  0  0  0  0  0  0
  -29.4970  -16.4220   21.2910 C   0  0  0  0  0  2  0  0  0  0  0  0
  -31.0560  -16.3350   23.3760 C   0  0  0  0  0  1  0  0  0  0  0  0
  -30.9210  -16.1990   21.8480 C   0  0  0  0  0  3  0  0  0  0  0  0
  -31.4700  -14.9170   21.3290 C   0  0  0  0  0  0  0  0  0  0  0  0
  -30.9720  -14.3350   19.0910 C   0  0  0  0  0  1  0  0  0  0  0  0
  -29.5360  -14.6850   17.7830 C   0  0  0  0  0 15  0  0  0  0  0  0
  -27.6180  -14.5750   18.4490 C   0  0  0  0  0 15  0  0  0  0  0  0
  -27.4070  -14.2840   20.4460 C   0  0  0  0  0  2  0  0  0  0  0  0
  -28.9400  -13.9640   21.5450 C   0  0  0  0  0  2  0  0  0  0  0  0
  -30.5710  -14.1590   20.8190 N   0  0  0  0  0  0  0  0  0  0  0  0
  -32.6240  -14.8880   20.9290 O   0  0  0  0  0  0  0  0  0  0  0  0
  -25.1140  -14.0980   20.7390 C   0  0  0  0  0  0  0  0  0  0  0  0
  -24.2080  -13.1780   21.0800 C   0  0  0  0  0  0  0  0  0  0  0  0
  -24.8370  -11.8940   21.0100 C   0  0  0  0  0  0  0  0  0  0  0  0
  -26.2770  -13.4360   20.6700 N   0  0  0  0  0  0  0  0  0  0  0  0
  -26.1580  -12.0620   20.7660 N   0  0  0  0  0  0  0  0  0  0  0  0
  -24.1740  -10.5760   21.1400 C   0  0  0  0  0  0  0  0  0  0  0  0
  -24.5740   -9.5970   22.0790 C   0  0  0  0  0  3  0  0  0  0  0  0
  -23.8360   -8.3990   22.2310 C   0  0  0  0  0  3  0  0  0  0  0  0
  -22.6800   -8.1630   21.4470 C   0  0  0  0  0  0  0  0  0  0  0  0
  -22.2970   -9.1280   20.4990 C   0  0  0  0  0  3  0  0  0  0  0  0
  -23.0360  -10.3130   20.3440 C   0  0  0  0  0  3  0  0  0  0  0  0
  -21.9160   -7.0210   21.5040 O   0  0  0  0  0  0  0  0  0  0  0  0
  -21.8120   -6.2740   22.6510 C   0  0  0  0  0  0  0  0  0  0  0  0
  -21.3220   -6.8250   23.8550 C   0  0  0  0  0  3  0  0  0  0  0  0
  -21.1660   -6.0070   24.9920 C   0  0  0  0  0  3  0  0  0  0  0  0
  -21.4900   -4.6390   24.9260 C   0  0  0  0  0  0  0  0  0  0  0  0
  -21.9690   -4.0860   23.7250 C   0  0  0  0  0  3  0  0  0  0  0  0
  -22.1260   -4.9010   22.5900 C   0  0  0  0  0  0  0  0  0  0  0  0
  -22.5670   -4.3570   21.4310 F   0  0  0  0  0  0  0  0  0  0  0  0
  -21.3350   -3.8510   26.0170 F   0  0  0  0  0  0  0  0  0  0  0  0
  -22.8050  -13.5600   21.3700 C   0  0  0  0  0  0  0  0  0  0  0  0
  -22.1580  -12.8400   22.2690 N   0  0  0  0  0  0  0  0  0  0  0  0
  -22.3240  -14.5790   20.8740 O   0  0  0  0  0  0  0  0  0  0  0  0
  -22.5860  -12.0320   22.6960 H   0  0  0  0  0  0  0  0  0  0  0  0
  -21.2160  -13.0950   22.5320 H   0  0  0  0  0  0  0  0  0  0  0  0
  -25.0370  -15.4770   20.5180 N   0  0  0  0  0  0  0  0  0  0  0  0
  -24.1120  -15.8990   20.5370 H   0  0  0  0  0  0  0  0  0  0  0  0
  -25.7200  -16.0760   20.0820 H   0  0  0  0  0  0  0  0  0  0  0  0
  2  4  1  0
  4  3  1  0
  6  8  1  0
  7 18  2  0
  8 13  1  0
  9 17  1  0
  9 19  1  0
 10 16  1  0
 10 12  1  0
 11 17  1  0
 12 11  1  0
 13 12  2  0
 14 15  1  0
 14  8  2  0
 15 10  2  0
 16  9  1  0
 17  7  1  0
 19 21  2  0
 20 19  1  0
 22 20  1  0
 23 32  2  0
 23 28  1  0
 24 20  1  0
 24 28  1  0
 25 24  1  0
 26 27  1  0
 26 25  1  0
 27 23  1  0
 28 29  2  0
 29 30  1  0
 31 30  2  0
 32 31  1  0
 33  7  1  0
 33 34  1  0
 33 43  1  0
 34 37  1  0
 35 39  1  0
 35 34  1  0
 36 35  2  0
 39 38  1  0
 41 39  1  0
 41 42  1  0
 41 40  1  0
 43 46  1  1
 43 44  1  0
 45 43  1  0
 47 48  1  0
 47 54  1  0
 49 53  2  0
 50 49  1  0
 51 50  1  0
 51 52  1  0
 52 49  1  0
 54 56  1  0
 56 55  1  0
 57 56  1  0
 58 63  1  0
 61 68  1  0
 61 62  1  0
 63 57  1  0
 63 62  1  0
 64 57  2  0
 65 66  2  0
 66 85  1  0
 67 66  1  0
 67 70  1  0
 68 65  1  0
 68 69  1  0
 69 67  2  0
 70 71  1  0
 71 72  2  0
 73 76  1  0
 73 72  1  0
 74 73  2  0
 75 74  1  0
 75 70  2  0
 76 77  1  0
 77 78  1  0
 78 79  2  0
 80 79  1  0
 80 84  1  0
 81 80  2  0
 82 77  2  0
 82 81  1  0
 83 82  1  0
 85 86  1  0
 86 89  1  0
 86 88  1  0
 87 85  2  0
 90 91  1  0
 90 65  1  0
 92 90  1  0
M  ISO  4   5 101   6 101  56 100  57 100
M  END
>  <TORSDO>  (67) 
F 22

>  <SCORE>  (67) 
-11.998

>  <name>  (67) 
66

>  <ligand_id>  (67) 
66

>  <original_smiles>  (67) 
[H]c1c([H])c([H])c2c(c1[H])C([H])([H])C([H])([H])C([H])([H])C2([H])N([H])C(=O)C1([H])N(C(=O)C([H])(N([H])C(=O)C([H])(N([H])C([H])([H])[H])C([H])([H])[H])C(C([H])([H])[H])(C([H])([H])[H])C([H])([H])[H])C([H])([H])c2c([H])c(OC([H])([H])C(C([H])([H])[H])(C([H])([H])[H])C([H])([H])[N+]([H])(C([H])([H])C([H])(C(=O)N3C([H])([H])C([H])([H])C([H])([H])C([H])(n4nc(-c5c([H])c([H])c(Oc6c([H])c([H])c(F)c([H])c6F)c([H])c5[H])c(C(=O)N([H])[H])c4N([H])[H])C3([H])[H])C([H])([H])[H])C3([H])C(=O)C([H])([H])C3([H])[H])c([H])c([H])c2C1([H])[H]

>  <smiles>  (67) 
[H]c1c([H])c([H])c2c(c1[H])C([H])([H])C([H])([H])C([H])([H])C2([H])N([H])C(=O)C1([H])N(C(=O)C([H])(N([H])C(=O)C([H])(N([H])C([H])([H])[H])C([H])([H])[H])C(C([H])([H])[H])(C([H])([H])[H])C([H])([H])[H])C([H])([H])c2c([H])c(OC([H])([H])C(C([H])([H])[H])(C([H])([H])[H])C([H])([H])[N+]([H])(C([H])([H])C([H])(C(=O)N3C([H])([H])C([H])([H])C([H])([H])C([H])(n4nc(-c5c([H])c([H])c(Oc6c([H])c([H])c(F)c([H])c6F)c([H])c5[H])c(C(=O)N([H])[H])c4N([H])[H])C3([H])[H])C([H])([H])[H])C3([H])C(=O)C([H])([H])C3([H])[H])c([H])c([H])c2C1([H])[H]

$$$$
67:0:0
     RDKit          3D

 94102  0  0  1  0  0  0  0  0999 V2000
  -27.3490  -21.1940   19.1930 C   0  0  0  0  0  3  0  0  0  0  0  0
  -28.2250  -18.9110   19.2060 C   0  0  0  0  0  3  0  0  0  0  0  0
  -28.7360  -20.4170   21.0490 C   0  0  0  0  0  3  0  0  0  0  0  0
  -27.4650  -19.9250   18.5830 C   0  0  0  0  0  0  0  0  0  0  0  0
  -27.9850  -21.4470   20.4300 C   0  0  0  0  0  0  0  0  0  0  0  0
  -28.8380  -19.1330   20.4590 C   0  0  0  0  0  0  0  0  0  0  0  0
  -26.7220  -19.6130   17.2960 C   0  0  0  0  0  1  0  0  0  0  0  0
  -27.7540  -22.7670   21.1710 C   0  0  0  0  0  2  0  0  0  0  0  0
  -28.6220  -23.9870   20.7230 C   0  0  0  0  0  2  0  0  0  0  0  0
  -29.5260  -24.8840   22.9410 C   0  0  0  0  0  1  0  0  0  0  0  0
  -27.1830  -25.4160   22.3010 C   0  0  0  0  0  1  0  0  0  0  0  0
  -28.6030  -25.1850   21.7390 C   0  0  2  0  0  0  0  0  0  0  0  0
  -29.1310  -26.4850   21.0640 C   0  0  0  0  0  2  0  0  0  0  0  0
  -28.4060  -26.8010   19.8840 O   0  0  0  0  0  0  0  0  0  0  0  0
  -24.5530  -31.9010   23.1290 C   0  0  0  0  0  0  0  0  0  0  0  0
  -27.2480  -27.5280   20.0000 C   0  0  0  0  0  0  0  0  0  0  0  0
  -23.3580  -30.4980   21.4710 C   0  0  0  0  0  3  0  0  0  0  0  0
  -24.8280  -28.9770   20.0450 C   0  0  0  0  0  0  0  0  0  0  0  0
  -25.8770  -30.8810   21.2860 C   0  0  0  0  0  2  0  0  0  0  0  0
  -25.9740  -29.5120   20.6500 C   0  0  0  0  0  0  0  0  0  0  0  0
  -27.1860  -28.7850   20.6450 C   0  0  0  0  0  3  0  0  0  0  0  0
  -26.0900  -27.0110   19.3870 C   0  0  0  0  0  3  0  0  0  0  0  0
  -24.8750  -27.7190   19.4240 C   0  0  0  0  0  3  0  0  0  0  0  0
  -23.5750  -29.8210   20.0910 C   0  0  0  0  0  2  0  0  0  0  0  0
  -24.6120  -31.1110   22.0210 N   0  0  0  0  0  0  0  0  0  0  0  0
  -23.4700  -32.1670   23.6670 O   0  0  0  0  0  0  0  0  0  0  0  0
  -22.7140  -29.4690   22.4270 C   0  0  0  0  0  0  0  0  0  0  0  0
  -21.3870  -29.2980   22.3110 N   0  0  0  0  0  0  0  0  0  0  0  0
  -23.4020  -28.8280   23.2250 O   0  0  0  0  0  0  0  0  0  0  0  0
  -20.8970  -29.8720   21.6400 H   0  0  0  0  0  0  0  0  0  0  0  0
  -18.0050  -28.1500   22.8320 C   0  0  0  0  0  0  0  0  0  0  0  0
  -20.5700  -28.3590   23.0740 C   0  0  0  0  0  3  0  0  0  0  0  0
  -20.6410  -26.9380   22.4660 C   0  0  0  0  0  2  0  0  0  0  0  0
  -19.5180  -26.6570   21.4620 C   0  0  0  0  0  2  0  0  0  0  0  0
  -18.1490  -26.8130   22.1280 C   0  0  0  0  0  2  0  0  0  0  0  0
  -19.1420  -28.8850   23.2620 C   0  0  0  0  0  0  0  0  0  0  0  0
  -18.9500  -30.1410   23.8750 C   0  0  0  0  0  3  0  0  0  0  0  0
  -17.6550  -30.6580   24.0700 C   0  0  0  0  0  3  0  0  0  0  0  0
  -16.5330  -29.9170   23.6570 C   0  0  0  0  0  3  0  0  0  0  0  0
  -16.7120  -28.6650   23.0420 C   0  0  0  0  0  3  0  0  0  0  0  0
  -25.8380  -32.5300   23.7560 C   0  0  0  0  0  3  0  0  0  0  0  0
  -25.5200  -33.9180   24.1150 N   0  0  0  0  0  0  0  0  0  0  0  0
  -25.8420  -34.9890   23.3770 C   0  0  0  0  0  0  0  0  0  0  0  0
  -26.5100  -34.9110   22.3410 O   0  0  0  0  0  0  0  0  0  0  0  0
  -24.9330  -34.0550   24.9240 H   0  0  0  0  0  0  0  0  0  0  0  0
  -24.0980  -36.7680   23.0590 C   0  0  0  0  0  1  0  0  0  0  0  0
  -25.3430  -36.3610   23.8620 C   0  0  0  0  0  3  0  0  0  0  0  0
  -27.4680  -37.2460   24.7150 C   0  0  0  0  0  1  0  0  0  0  0  0
  -26.3650  -37.4250   23.7750 N   0  0  0  0  0  0  0  0  0  0  0  0
  -25.9500  -38.3370   23.9440 H   0  0  0  0  0  0  0  0  0  0  0  0
  -26.3730  -31.7360   25.0100 C   0  0  1  0  0  0  0  0  0  0  0  0
  -25.2900  -31.4620   26.0790 C   0  0  0  0  0  1  0  0  0  0  0  0
  -26.9650  -30.3740   24.5800 C   0  0  0  0  0  1  0  0  0  0  0  0
  -27.5200  -32.5280   25.6880 C   0  0  0  0  0  1  0  0  0  0  0  0
  -29.4290  -17.9540   21.2560 C   0  0  0  0  0  2  0  0  0  0  0  0
  -30.4830  -17.0400   20.5560 C   0  0  0  0  0  2  0  0  0  0  0  0
  -30.8520  -14.5820   20.0400 C   0  0  0  0  0  0  0  0  0  0  0  0
  -30.5340  -12.3780   18.9520 C   0  0  0  0  0  2  0  0  0  0  0  0
  -29.5550  -12.5800   17.7720 C   0  0  0  0  0  2  0  0  0  0  0  0
  -28.0910  -12.4300   18.2360 C   0  0  0  0  0  2  0  0  0  0  0  0
  -27.7900  -13.3130   19.4750 C   0  0  0  0  0  3  0  0  0  0  0  0
  -28.8760  -13.0980   20.5580 C   0  0  0  0  0  2  0  0  0  0  0  0
  -30.1910  -13.3880   19.9640 N   0  0  0  0  0  0  0  0  0  0  0  0
  -31.9520  -14.7680   19.5130 O   0  0  0  0  0  0  0  0  0  0  0  0
  -30.1640  -15.5950   20.6190 N   0  0  0  0  0  0  0  0  0  0  0  0
  -29.3060  -15.3310   21.0790 H   0  0  0  0  0  0  0  0  0  0  0  0
  -25.4440  -13.9850   20.2880 C   0  0  0  0  0  0  0  0  0  0  0  0
  -24.3610  -13.2330   20.6780 C   0  0  0  0  0  0  0  0  0  0  0  0
  -24.7830  -11.8720   20.6190 C   0  0  0  0  0  0  0  0  0  0  0  0
  -26.4480  -13.0740   19.9980 N   0  0  0  0  0  0  0  0  0  0  0  0
  -26.0600  -11.8030   20.2620 N   0  0  0  0  0  0  0  0  0  0  0  0
  -24.0350  -10.6260   20.8310 C   0  0  0  0  0  0  0  0  0  0  0  0
  -24.4520   -9.6720   21.7870 C   0  0  0  0  0  3  0  0  0  0  0  0
  -23.7110   -8.4860   21.9840 C   0  0  0  0  0  3  0  0  0  0  0  0
  -22.5420   -8.2480   21.2290 C   0  0  0  0  0  0  0  0  0  0  0  0
  -22.1380   -9.1910   20.2690 C   0  0  0  0  0  3  0  0  0  0  0  0
  -22.8740  -10.3700   20.0680 C   0  0  0  0  0  3  0  0  0  0  0  0
  -21.7720   -7.1120   21.3320 O   0  0  0  0  0  0  0  0  0  0  0  0
  -21.6610   -6.4210   22.5120 C   0  0  0  0  0  0  0  0  0  0  0  0
  -21.1900   -7.0370   23.6920 C   0  0  0  0  0  3  0  0  0  0  0  0
  -21.0330   -6.2770   24.8680 C   0  0  0  0  0  3  0  0  0  0  0  0
  -21.3250   -4.8990   24.8580 C   0  0  0  0  0  0  0  0  0  0  0  0
  -21.7790   -4.2820   23.6810 C   0  0  0  0  0  3  0  0  0  0  0  0
  -21.9450   -5.0410   22.5090 C   0  0  0  0  0  0  0  0  0  0  0  0
  -22.3640   -4.4400   21.3700 F   0  0  0  0  0  0  0  0  0  0  0  0
  -21.1650   -4.1640   25.9840 F   0  0  0  0  0  0  0  0  0  0  0  0
  -22.9900  -13.7450   21.0090 C   0  0  0  0  0  0  0  0  0  0  0  0
  -22.2800  -13.0610   21.9000 N   0  0  0  0  0  0  0  0  0  0  0  0
  -22.5530  -14.7800   20.5070 O   0  0  0  0  0  0  0  0  0  0  0  0
  -22.6500  -12.2220   22.3240 H   0  0  0  0  0  0  0  0  0  0  0  0
  -21.3550  -13.3810   22.1590 H   0  0  0  0  0  0  0  0  0  0  0  0
  -25.6440  -15.3500   20.1430 N   0  0  0  0  0  0  0  0  0  0  0  0
  -24.9250  -16.0210   20.3870 H   0  0  0  0  0  0  0  0  0  0  0  0
  -26.5180  -15.7890   19.8800 H   0  0  0  0  0  0  0  0  0  0  0  0
  1  5  1  0
  2  6  2  0
  4  1  2  0
  4  2  1  0
  5  3  2  0
  5  8  1  0
  6  3  1  0
  6 55  1  0
  7  4  1  0
  9  8  1  0
  9 12  1  0
 12 11  1  1
 12 10  1  0
 13 12  1  0
 14 16  1  0
 14 13  1  0
 15 26  2  0
 16 21  1  0
 17 25  1  0
 17 27  1  0
 18 24  1  0
 18 20  1  0
 19 25  1  0
 20 19  1  0
 21 20  2  0
 22 23  1  0
 22 16  2  0
 23 18  2  0
 24 17  1  0
 25 15  1  0
 27 29  2  0
 28 27  1  0
 30 28  1  0
 31 40  2  0
 31 36  1  0
 32 28  1  0
 32 36  1  0
 33 32  1  0
 34 35  1  0
 34 33  1  0
 35 31  1  0
 36 37  2  0
 37 38  1  0
 39 38  2  0
 40 39  1  0
 41 15  1  0
 41 42  1  0
 41 51  1  0
 42 45  1  0
 43 47  1  0
 43 42  1  0
 44 43  2  0
 47 46  1  0
 49 47  1  0
 49 50  1  0
 49 48  1  0
 51 54  1  1
 51 52  1  0
 53 51  1  0
 56 65  1  0
 56 55  1  0
 57 65  1  0
 58 63  1  0
 59 60  1  0
 59 58  1  0
 61 60  1  0
 61 70  1  0
 61 62  1  0
 63 57  1  0
 63 62  1  0
 64 57  2  0
 65 66  1  0
 67 68  2  0
 68 87  1  0
 69 68  1  0
 69 72  1  0
 70 71  1  0
 70 67  1  0
 71 69  2  0
 72 73  1  0
 73 74  2  0
 75 78  1  0
 75 74  1  0
 76 75  2  0
 77 76  1  0
 77 72  2  0
 78 79  1  0
 79 80  1  0
 80 81  2  0
 82 81  1  0
 82 86  1  0
 83 82  2  0
 84 79  2  0
 84 83  1  0
 85 84  1  0
 87 88  1  0
 88 91  1  0
 88 90  1  0
 89 87  2  0
 92 67  1  0
 92 93  1  0
 94 92  1  0
M  ISO  4  13 101  14 101  57 100  65 100
M  END
>  <TORSDO>  (68) 
F 22

>  <SCORE>  (68) 
-12.903

>  <name>  (68) 
67

>  <ligand_id>  (68) 
67

>  <original_smiles>  (68) 
[H]c1c([H])c([H])c2c(c1[H])C([H])([H])C([H])([H])C([H])([H])C2([H])N([H])C(=O)C1([H])N(C(=O)C([H])(N([H])C(=O)C([H])(N([H])C([H])([H])[H])C([H])([H])[H])C(C([H])([H])[H])(C([H])([H])[H])C([H])([H])[H])C([H])([H])c2c([H])c(OC([H])([H])C(C([H])([H])[H])(C([H])([H])[H])C([H])([H])C([H])([H])c3c([H])c(C([H])([H])[H])c([H])c(C([H])([H])C([H])([H])N([H])C(=O)N4C([H])([H])C([H])([H])C([H])([H])C([H])(n5nc(-c6c([H])c([H])c(Oc7c([H])c([H])c(F)c([H])c7F)c([H])c6[H])c(C(=O)N([H])[H])c5N([H])[H])C4([H])[H])c3[H])c([H])c([H])c2C1([H])[H]

>  <smiles>  (68) 
[H]c1c([H])c([H])c2c(c1[H])C([H])([H])C([H])([H])C([H])([H])C2([H])N([H])C(=O)C1([H])N(C(=O)C([H])(N([H])C(=O)C([H])(N([H])C([H])([H])[H])C([H])([H])[H])C(C([H])([H])[H])(C([H])([H])[H])C([H])([H])[H])C([H])([H])c2c([H])c(OC([H])([H])C(C([H])([H])[H])(C([H])([H])[H])C([H])([H])C([H])([H])c3c([H])c(C([H])([H])[H])c([H])c(C([H])([H])C([H])([H])N([H])C(=O)N4C([H])([H])C([H])([H])C([H])([H])C([H])(n5nc(-c6c([H])c([H])c(Oc7c([H])c([H])c(F)c([H])c7F)c([H])c6[H])c(C(=O)N([H])[H])c5N([H])[H])C4([H])[H])c3[H])c([H])c([H])c2C1([H])[H]

$$$$
68:0:0
     RDKit          3D

 95104  0  0  1  0  0  0  0  0999 V2000
  -27.2100  -19.4310   20.0260 C   0  0  0  0  0  3  0  0  0  0  0  0
  -28.1350  -18.3630   20.0410 C   0  0  0  0  0  3  0  0  0  0  0  0
  -27.5970  -20.7500   20.3450 C   0  0  0  0  0  3  0  0  0  0  0  0
  -29.8570  -19.9440   20.7000 C   0  0  0  0  0  3  0  0  0  0  0  0
  -29.4910  -18.5820   20.3680 C   0  0  0  0  0  0  0  0  0  0  0  0
  -28.9280  -21.0560   20.6900 C   0  0  0  0  0  0  0  0  0  0  0  0
  -30.9120  -14.7610   20.2890 C   0  0  0  0  0  0  0  0  0  0  0  0
  -30.6860  -12.4680   19.3600 C   0  0  0  0  0  2  0  0  0  0  0  0
  -29.7630  -12.4920   18.1240 C   0  0  0  0  0  2  0  0  0  0  0  0
  -28.2890  -12.3590   18.5530 C   0  0  0  0  0  2  0  0  0  0  0  0
  -27.9030  -13.2970   19.7260 C   0  0  0  0  0  3  0  0  0  0  0  0
  -28.9520  -13.2660   20.8580 C   0  0  0  0  0  2  0  0  0  0  0  0
  -30.2480  -13.5640   20.2470 N   0  0  0  0  0  0  0  0  0  0  0  0
  -32.1400  -14.7740   20.1900 O   0  0  0  0  0  0  0  0  0  0  0  0
  -30.2040  -16.3150   18.5660 C   0  0  0  0  0  2  0  0  0  0  0  0
  -30.5570  -17.4020   20.2780 C   0  0  0  0  0  3  0  0  0  0  0  0
  -31.2850  -17.3250   18.9400 C   0  0  0  0  0  3  0  0  0  0  0  0
  -30.1830  -15.9220   20.0010 N   0  0  0  0  0  0  0  0  0  0  0  0
  -25.5140  -13.9120   20.4350 C   0  0  0  0  0  0  0  0  0  0  0  0
  -24.4380  -13.1480   20.7920 C   0  0  0  0  0  0  0  0  0  0  0  0
  -24.8920  -11.7930   20.7770 C   0  0  0  0  0  0  0  0  0  0  0  0
  -26.5550  -13.0240   20.2160 N   0  0  0  0  0  0  0  0  0  0  0  0
  -26.1870  -11.7440   20.4890 N   0  0  0  0  0  0  0  0  0  0  0  0
  -24.1540  -10.5370   20.9650 C   0  0  0  0  0  0  0  0  0  0  0  0
  -24.5360   -9.5940   21.9450 C   0  0  0  0  0  3  0  0  0  0  0  0
  -23.7980   -8.4020   22.1190 C   0  0  0  0  0  3  0  0  0  0  0  0
  -22.6650   -8.1450   21.3110 C   0  0  0  0  0  0  0  0  0  0  0  0
  -22.3010   -9.0760   20.3230 C   0  0  0  0  0  3  0  0  0  0  0  0
  -23.0400  -10.2590   20.1470 C   0  0  0  0  0  3  0  0  0  0  0  0
  -21.9060   -7.0030   21.3920 O   0  0  0  0  0  0  0  0  0  0  0  0
  -21.7620   -6.3160   22.5690 C   0  0  0  0  0  0  0  0  0  0  0  0
  -21.1660   -6.9030   23.7070 C   0  0  0  0  0  3  0  0  0  0  0  0
  -20.9780   -6.1390   24.8760 C   0  0  0  0  0  3  0  0  0  0  0  0
  -21.3730   -4.7880   24.9080 C   0  0  0  0  0  0  0  0  0  0  0  0
  -21.9620   -4.2000   23.7740 C   0  0  0  0  0  3  0  0  0  0  0  0
  -22.1520   -4.9610   22.6070 C   0  0  0  0  0  0  0  0  0  0  0  0
  -22.7010   -4.3860   21.5100 F   0  0  0  0  0  0  0  0  0  0  0  0
  -21.1840   -4.0500   26.0250 F   0  0  0  0  0  0  0  0  0  0  0  0
  -23.0410  -13.6350   21.0380 C   0  0  0  0  0  0  0  0  0  0  0  0
  -22.2960  -12.9560   21.9010 N   0  0  0  0  0  0  0  0  0  0  0  0
  -22.6170  -14.6580   20.4980 O   0  0  0  0  0  0  0  0  0  0  0  0
  -22.6480  -12.1270   22.3580 H   0  0  0  0  0  0  0  0  0  0  0  0
  -21.3580  -13.2680   22.1060 H   0  0  0  0  0  0  0  0  0  0  0  0
  -25.6880  -15.2800   20.2520 N   0  0  0  0  0  0  0  0  0  0  0  0
  -24.9290  -15.9410   20.3730 H   0  0  0  0  0  0  0  0  0  0  0  0
  -26.5590  -15.7120   19.9750 H   0  0  0  0  0  0  0  0  0  0  0  0
  -31.3980  -18.5530   18.1260 N   0  0  0  0  0  4  0  0  0  0  0  0
  -31.7010  -18.3310   17.1950 H   0  0  0  0  0  0  0  0  0  0  0  0
  -32.0790  -19.1760   18.5230 H   0  0  0  0  0  0  0  0  0  0  0  0
  -30.5230  -19.0420   18.0680 H   0  0  0  0  0  0  0  0  0  0  0  0
  -30.6950  -22.6640   21.6710 C   0  0  0  0  0  1  0  0  0  0  0  0
  -29.2410  -22.5340   21.1820 C   0  0  0  0  0  3  0  0  0  0  0  0
  -28.8300  -23.8050   20.2760 C   0  0  0  0  0  2  0  0  0  0  0  0
  -28.4840  -25.1980   21.0060 C   0  0  0  0  0  2  0  0  0  0  0  0
  -28.5960  -26.5120   20.3160 O   0  0  0  0  0  0  0  0  0  0  0  0
  -24.6040  -31.7740   23.2490 C   0  0  0  0  0  0  0  0  0  0  0  0
  -27.4640  -27.3370   20.2630 C   0  0  0  0  0  0  0  0  0  0  0  0
  -23.5120  -30.3680   21.5370 C   0  0  0  0  0  3  0  0  0  0  0  0
  -25.0650  -28.8820   20.1530 C   0  0  0  0  0  0  0  0  0  0  0  0
  -26.0470  -30.7680   21.4640 C   0  0  0  0  0  2  0  0  0  0  0  0
  -26.1940  -29.4050   20.7960 C   0  0  0  0  0  0  0  0  0  0  0  0
  -27.4040  -28.6470   20.8280 C   0  0  0  0  0  3  0  0  0  0  0  0
  -26.3110  -26.8580   19.6080 C   0  0  0  0  0  3  0  0  0  0  0  0
  -25.1250  -27.6160   19.5450 C   0  0  0  0  0  3  0  0  0  0  0  0
  -23.8000  -29.7180   20.1590 C   0  0  0  0  0  2  0  0  0  0  0  0
  -24.7360  -30.9880   22.1420 N   0  0  0  0  0  0  0  0  0  0  0  0
  -23.4920  -32.0100   23.7430 O   0  0  0  0  0  0  0  0  0  0  0  0
  -22.8400  -29.3170   22.4520 C   0  0  0  0  0  0  0  0  0  0  0  0
  -21.5240  -29.1160   22.2750 N   0  0  0  0  0  0  0  0  0  0  0  0
  -23.5030  -28.6840   23.2770 O   0  0  0  0  0  0  0  0  0  0  0  0
  -21.0500  -29.6750   21.5800 H   0  0  0  0  0  0  0  0  0  0  0  0
  -18.1460  -27.8840   22.6630 C   0  0  0  0  0  0  0  0  0  0  0  0
  -20.6960  -28.1480   22.9960 C   0  0  0  0  0  3  0  0  0  0  0  0
  -20.8200  -26.7380   22.3710 C   0  0  0  0  0  2  0  0  0  0  0  0
  -19.7410  -26.4460   21.3220 C   0  0  0  0  0  2  0  0  0  0  0  0
  -18.3440  -26.5610   21.9420 C   0  0  0  0  0  2  0  0  0  0  0  0
  -19.2500  -28.6370   23.1410 C   0  0  0  0  0  0  0  0  0  0  0  0
  -19.0120  -29.8760   23.7720 C   0  0  0  0  0  3  0  0  0  0  0  0
  -17.7010  -30.3650   23.9300 C   0  0  0  0  0  3  0  0  0  0  0  0
  -16.6100  -29.6070   23.4710 C   0  0  0  0  0  3  0  0  0  0  0  0
  -16.8330  -28.3690   22.8430 C   0  0  0  0  0  3  0  0  0  0  0  0
  -25.8420  -32.4290   23.9360 C   0  0  0  0  0  3  0  0  0  0  0  0
  -26.2780  -31.6950   25.2640 C   0  0  1  0  0  0  0  0  0  0  0  0
  -25.1150  -31.4730   26.2610 C   0  0  0  0  0  1  0  0  0  0  0  0
  -26.8970  -30.3140   24.9480 C   0  0  0  0  0  1  0  0  0  0  0  0
  -27.3740  -32.5170   25.9820 C   0  0  0  0  0  1  0  0  0  0  0  0
  -25.5060  -33.8340   24.2100 N   0  0  0  0  0  0  0  0  0  0  0  0
  -25.8810  -34.8680   23.4460 C   0  0  0  0  0  0  0  0  0  0  0  0
  -26.6140  -34.7430   22.4630 O   0  0  0  0  0  0  0  0  0  0  0  0
  -24.8660  -34.0050   24.9710 H   0  0  0  0  0  0  0  0  0  0  0  0
  -24.1790  -36.6440   22.9260 C   0  0  0  0  0  1  0  0  0  0  0  0
  -25.3580  -36.2650   23.8370 C   0  0  0  0  0  3  0  0  0  0  0  0
  -27.4100  -37.1850   24.8220 C   0  0  0  0  0  1  0  0  0  0  0  0
  -26.3940  -37.3190   23.7800 N   0  0  0  0  0  0  0  0  0  0  0  0
  -25.9740  -38.2400   23.8640 H   0  0  0  0  0  0  0  0  0  0  0  0
  1  2  2  0
  1  3  1  0
  2  5  1  0
  3  6  2  0
  5  4  2  0
  6  4  1  0
  6 52  1  0
  8 13  1  0
  9 10  1  0
  9  8  1  0
 11 10  1  0
 11 22  1  0
 11 12  1  0
 13  7  1  0
 13 12  1  0
 14  7  2  0
 15 17  1  0
 15 18  1  0
 16  5  1  0
 17 47  1  0
 17 16  1  0
 18 16  1  0
 18  7  1  0
 19 20  2  0
 20 39  1  0
 21 20  1  0
 21 24  1  0
 22 19  1  0
 22 23  1  0
 23 21  2  0
 24 25  1  0
 25 26  2  0
 27 30  1  0
 27 26  1  0
 28 27  2  0
 29 28  1  0
 29 24  2  0
 30 31  1  0
 31 36  2  0
 31 32  1  0
 32 33  2  0
 33 34  1  0
 34 38  1  0
 35 34  2  0
 36 35  1  0
 37 36  1  0
 39 40  1  0
 40 43  1  0
 40 42  1  0
 41 39  2  0
 44 45  1  0
 44 19  1  0
 46 44  1  0
 47 49  1  0
 48 47  1  0
 50 47  1  0
 52 51  1  0
 53 54  1  0
 53 52  1  0
 55 54  1  0
 56 67  2  0
 57 55  1  0
 57 62  1  0
 58 66  1  0
 58 68  1  0
 59 65  1  0
 59 61  1  0
 60 66  1  0
 61 62  2  0
 61 60  1  0
 63 57  2  0
 64 63  1  0
 64 59  2  0
 65 58  1  0
 66 56  1  0
 68 70  2  0
 69 68  1  0
 71 69  1  0
 72 81  2  0
 72 77  1  0
 73 69  1  0
 73 77  1  0
 74 73  1  0
 75 76  1  0
 75 74  1  0
 76 72  1  0
 77 78  2  0
 78 79  1  0
 80 79  2  0
 81 80  1  0
 82 56  1  0
 82 87  1  0
 82 83  1  0
 83 86  1  1
 83 84  1  0
 85 83  1  0
 87 90  1  0
 88 92  1  0
 88 87  1  0
 89 88  2  0
 92 91  1  0
 94 92  1  0
 94 95  1  0
 94 93  1  0
M  ISO  4   7 100  18 100  54 101  55 101
M  END
>  <TORSDO>  (69) 
F 20

>  <SCORE>  (69) 
-13.504

>  <name>  (69) 
68

>  <ligand_id>  (69) 
68

>  <original_smiles>  (69) 
[H]c1c([H])c([H])c2c(c1[H])C([H])([H])C([H])([H])C([H])([H])C2([H])N([H])C(=O)C1([H])N(C(=O)C([H])(N([H])C(=O)C([H])(N([H])C([H])([H])[H])C([H])([H])[H])C(C([H])([H])[H])(C([H])([H])[H])C([H])([H])[H])C([H])([H])c2c([H])c(OC([H])([H])C([H])([H])C([H])(c3c([H])c([H])c([H])c(C4([H])N(C(=O)N5C([H])([H])C([H])([H])C([H])([H])C([H])(n6nc(-c7c([H])c([H])c(Oc8c([H])c([H])c(F)c([H])c8F)c([H])c7[H])c(C(=O)N([H])[H])c6N([H])[H])C5([H])[H])C([H])([H])C4([H])[N+]([H])([H])[H])c3[H])C([H])([H])[H])c([H])c([H])c2C1([H])[H]

>  <smiles>  (69) 
[H]c1c([H])c([H])c2c(c1[H])C([H])([H])C([H])([H])C([H])([H])C2([H])N([H])C(=O)C1([H])N(C(=O)C([H])(N([H])C(=O)C([H])(N([H])C([H])([H])[H])C([H])([H])[H])C(C([H])([H])[H])(C([H])([H])[H])C([H])([H])[H])C([H])([H])c2c([H])c(OC([H])([H])C([H])([H])C([H])(c3c([H])c([H])c([H])c(C4([H])N(C(=O)N5C([H])([H])C([H])([H])C([H])([H])C([H])(n6nc(-c7c([H])c([H])c(Oc8c([H])c([H])c(F)c([H])c8F)c([H])c7[H])c(C(=O)N([H])[H])c6N([H])[H])C5([H])[H])C([H])([H])C4([H])[N+]([H])([H])[H])c3[H])C([H])([H])[H])c([H])c([H])c2C1([H])[H]

$$$$
69:0:0
     RDKit          3D

 94 89  0  0  1  0  0  0  0  0999 V2000
  -30.0110  -18.0240   20.0640 C   0  0  0  0  0  0  0  0  0  0  0  0
  -29.4380  -18.0320   18.1560 C   0  0  0  0  0  2  0  0  0  0  0  0
  -29.6860  -16.5810   19.0600 C   0  0  0  0  0  2  0  0  0  0  0  0
  -29.3680  -19.2160   19.3480 N   0  0  0  0  0  0  0  0  0  0  0  0
  -30.6180  -18.1170   21.1140 O   0  0  0  0  0  0  0  0  0  0  0  0
  -30.3850  -14.7790   18.8320 N   0  0  0  0  0  2  0  0  0  0  0  0
  -29.6270  -14.7440   18.1680 H   0  0  0  0  0  0  0  0  0  0  0  0
  -30.3000  -14.8130   19.8460 H   0  0  0  0  0  0  0  0  0  0  0  0
  -29.8910  -12.0970   18.9680 C   0  0  0  0  0 15  0  0  0  0  0  0
  -29.6760  -13.6600   21.2240 C   0  0  0  0  0  2  0  0  0  0  0  0
  -32.0940  -12.8720   19.2240 C   0  0  0  0  0  1  0  0  0  0  0  0
  -31.2410  -13.1250   17.4150 C   0  0  0  0  0 15  0  0  0  0  0  0
  -29.3440  -13.6540   17.3540 C   0  0  0  0  0  1  0  0  0  0  0  0
  -28.5880  -13.8500   19.0930 C   0  0  0  0  0  2  0  0  0  0  0  0
  -30.2090  -12.8240   21.0390 C   0  0  0  0  0  2  0  0  0  0  0  0
  -31.2050  -13.2630   20.7780 N   0  0  0  0  0  2  0  0  0  0  0  0
  -30.0230  -14.9100   21.5280 O   0  0  0  0  0  1  0  0  0  0  0  0
  -27.4650  -11.9140   21.2100 C   0  0  0  0  0  0  0  0  0  0  0  0
  -27.2600  -11.1330   22.4970 C   0  0  0  0  0  2  0  0  0  0  0  0
  -25.4020  -13.0710   19.4370 C   0  0  0  0  0 15  0  0  0  0  0  0
  -28.6660  -11.3580   20.2360 C   0  0  0  0  0  1  0  0  0  0  0  0
  -28.2290  -10.1760   23.1660 C   0  0  0  0  0  1  0  0  0  0  0  0
  -28.0460  -12.6350   20.9990 N   0  0  0  0  0  2  0  0  0  0  0  0
  -26.2780  -14.6410   20.5040 C   0  0  0  0  0  2  0  0  0  0  0  0
  -25.0870  -13.5750   21.3990 C   0  0  0  0  0  2  0  0  0  0  0  0
  -25.2560  -11.6730   20.8960 C   0  0  0  0  0  1  0  0  0  0  0  0
  -27.4160  -13.3970   19.1110 N   0  0  0  0  0  1  0  0  0  0  0  0
  -26.6680  -11.4610   19.5770 N   0  0  0  0  0  2  0  0  0  0  0  0
  -24.3850  -10.5810   21.0620 C   0  0  0  0  0  0  0  0  0  0  0  0
  -24.7310   -9.6200   22.0140 C   0  0  0  0  0  3  0  0  0  0  0  0
  -23.9050   -8.5050   22.1750 C   0  0  0  0  0  3  0  0  0  0  0  0
  -22.7430   -8.3750   21.3800 C   0  0  0  0  0  0  0  0  0  0  0  0
  -22.4310   -9.3400   20.4060 C   0  0  0  0  0  3  0  0  0  0  0  0
  -23.2580  -10.4550   20.2370 C   0  0  0  0  0  3  0  0  0  0  0  0
  -21.8970   -7.3080   21.4810 O   0  0  0  0  0  0  0  0  0  0  0  0
  -21.8520   -6.5710   22.6340 C   0  0  0  0  0  0  0  0  0  0  0  0
  -21.5180   -7.1520   23.8770 C   0  0  0  0  0  3  0  0  0  0  0  0
  -21.4150   -6.3410   25.0230 C   0  0  0  0  0  3  0  0  0  0  0  0
  -21.6420   -4.9550   24.9250 C   0  0  0  0  0  0  0  0  0  0  0  0
  -21.9840   -4.3790   23.6890 C   0  0  0  0  0  3  0  0  0  0  0  0
  -22.0890   -5.1880   22.5450 C   0  0  0  0  0  0  0  0  0  0  0  0
  -22.4030   -4.6310   21.3490 F   0  0  0  0  0  0  0  0  0  0  0  0
  -21.5260   -4.1730   26.0230 F   0  0  0  0  0  0  0  0  0  0  0  0
  -23.6140  -14.0140   21.1940 C   0  0  0  0  0  0  0  0  0  0  0  0
  -22.6740  -13.2900   21.7780 N   0  0  0  0  0  0  0  0  0  0  0  0
  -23.2880  -14.8450   20.3300 O   0  0  0  0  0  0  0  0  0  0  0  0
  -22.9150  -12.5720   22.4440 H   0  0  0  0  0  0  0  0  0  0  0  0
  -21.7010  -13.4880   21.5970 H   0  0  0  0  0  0  0  0  0  0  0  0
  -26.3620  -15.9760   20.2590 N   0  0  0  0  0  0  0  0  0  0  0  0
  -25.7250  -16.6260   20.7060 H   0  0  0  0  0  0  0  0  0  0  0  0
  -26.7830  -16.3710   19.4290 H   0  0  0  0  0  0  0  0  0  0  0  0
  -29.3020  -21.1120   19.6050 C   0  0  0  0  0  1  0  0  0  0  0  0
  -28.2410  -22.9020   19.8570 C   0  0  0  0  0 15  0  0  0  0  0  0
  -28.3070  -24.7620   20.1980 O   0  0  0  0  0  1  0  0  0  0  0  0
  -24.5690  -31.3930   22.9500 C   0  0  0  0  0  0  0  0  0  0  0  0
  -27.3440  -26.0700   20.1920 C   0  0  0  0  0  0  0  0  0  0  0  0
  -23.5050  -29.8860   21.3400 C   0  0  0  0  0  3  0  0  0  0  0  0
  -25.0480  -28.1850   20.0630 C   0  0  0  0  0  0  0  0  0  0  0  0
  -26.0970  -30.0230   21.3460 C   0  0  0  0  0  2  0  0  0  0  0  0
  -26.2240  -28.5480   20.7290 C   0  0  0  0  0  0  0  0  0  0  0  0
  -27.3500  -27.5200   20.7550 C   0  0  0  0  0  3  0  0  0  0  0  0
  -26.1100  -25.9750   19.4970 C   0  0  0  0  0  3  0  0  0  0  0  0
  -25.0400  -26.9260   19.4350 C   0  0  0  0  0  3  0  0  0  0  0  0
  -23.8290  -29.1310   20.0190 C   0  0  0  0  0  2  0  0  0  0  0  0
  -24.7490  -30.4750   21.9290 N   0  0  0  0  0  0  0  0  0  0  0  0
  -23.4400  -31.6880   23.3830 O   0  0  0  0  0  0  0  0  0  0  0  0
  -22.7550  -28.9460   22.3240 C   0  0  0  0  0  0  0  0  0  0  0  0
  -21.4230  -28.7950   22.1830 N   0  0  0  0  0  0  0  0  0  0  0  0
  -23.3900  -28.3460   23.1950 O   0  0  0  0  0  0  0  0  0  0  0  0
  -20.9570  -29.3290   21.4630 H   0  0  0  0  0  0  0  0  0  0  0  0
  -18.0260  -27.5820   22.6750 C   0  0  0  0  0  0  0  0  0  0  0  0
  -20.5820  -27.8760   22.9650 C   0  0  0  0  0  3  0  0  0  0  0  0
  -20.6970  -26.4290   22.4310 C   0  0  0  0  0  2  0  0  0  0  0  0
  -19.6140  -26.0760   21.4060 C   0  0  0  0  0  2  0  0  0  0  0  0
  -18.2220  -26.2220   22.0270 C   0  0  0  0  0  2  0  0  0  0  0  0
  -19.1340  -28.3670   23.1000 C   0  0  0  0  0  0  0  0  0  0  0  0
  -18.8920  -29.6330   23.6730 C   0  0  0  0  0  3  0  0  0  0  0  0
  -17.5780  -30.1200   23.8190 C   0  0  0  0  0  3  0  0  0  0  0  0
  -16.4870  -29.3360   23.4060 C   0  0  0  0  0  3  0  0  0  0  0  0
  -16.7120  -28.0690   22.8410 C   0  0  0  0  0  3  0  0  0  0  0  0
  -25.7650  -32.1300   23.6250 C   0  0  0  0  0  3  0  0  0  0  0  0
  -26.2280  -31.4460   24.9720 C   0  0  1  0  0  0  0  0  0  0  0  0
  -25.0820  -31.2090   25.9840 C   0  0  0  0  0  1  0  0  0  0  0  0
  -26.8940  -30.0800   24.7020 C   0  0  0  0  0  1  0  0  0  0  0  0
  -27.2980  -32.3240   25.6640 C   0  0  0  0  0  1  0  0  0  0  0  0
  -25.3620  -33.5270   23.9000 N   0  0  0  0  0  0  0  0  0  0  0  0
  -25.8010  -34.6090   23.2410 C   0  0  0  0  0  0  0  0  0  0  0  0
  -26.6380  -34.5370   22.3390 O   0  0  0  0  0  0  0  0  0  0  0  0
  -24.6320  -33.6550   24.5860 H   0  0  0  0  0  0  0  0  0  0  0  0
  -24.1440  -36.4130   22.6370 C   0  0  0  0  0  1  0  0  0  0  0  0
  -25.2270  -35.9880   23.6410 C   0  0  0  0  0  3  0  0  0  0  0  0
  -27.1700  -36.8780   24.8560 C   0  0  0  0  0  1  0  0  0  0  0  0
  -26.2520  -37.0520   23.7350 N   0  0  0  0  0  0  0  0  0  0  0  0
  -25.8130  -37.9650   23.8240 H   0  0  0  0  0  0  0  0  0  0  0  0
  1  5  2  0
  2  3  1  0
  2  4  1  0
  3  1  1  0
  4 52  1  0
  4  1  1  0
  6  8  1  0
  7  6  1  0
 10 17  1  0
 11 16  1  0
 13 14  1  0
 14 27  1  0
 15 10  1  0
 16 15  1  0
 18 19  1  0
 19 22  1  0
 21 23  1  0
 23 18  1  0
 24 25  1  0
 26 29  1  0
 28 18  2  0
 29 30  1  0
 30 31  2  0
 32 35  1  0
 32 31  1  0
 33 32  2  0
 34 33  1  0
 34 29  2  0
 35 36  1  0
 36 37  1  0
 37 38  2  0
 39 38  1  0
 39 43  1  0
 40 39  2  0
 41 36  2  0
 41 40  1  0
 42 41  1  0
 44 25  1  0
 44 45  1  0
 45 47  1  0
 46 44  2  0
 48 45  1  0
 49 24  1  0
 49 50  1  0
 51 49  1  0
 55 66  2  0
 56 54  1  0
 56 61  1  0
 57 65  1  0
 57 67  1  0
 58 60  1  0
 59 65  1  0
 60 61  2  0
 60 59  1  0
 62 56  2  0
 63 62  1  0
 63 58  2  0
 64 58  1  0
 64 57  1  0
 65 55  1  0
 67 69  2  0
 68 67  1  0
 70 68  1  0
 71 80  2  0
 71 76  1  0
 72 68  1  0
 72 76  1  0
 73 72  1  0
 74 75  1  0
 74 73  1  0
 75 71  1  0
 76 77  2  0
 77 78  1  0
 79 78  2  0
 80 79  1  0
 81 55  1  0
 81 86  1  0
 81 82  1  0
 82 85  1  1
 82 83  1  0
 84 82  1  0
 86 89  1  0
 87 91  1  0
 87 86  1  0
 88 87  2  0
 91 90  1  0
 91 93  1  0
 93 94  1  0
 93 92  1  0
M  ISO  4  10 100  23 100  53 101  54 101
M  END
>  <TORSDO>  (70) 
F 20

>  <SCORE>  (70) 
-14.111

>  <name>  (70) 
69

>  <ligand_id>  (70) 
69

>  <original_smiles>  (70) 
[H]C(=C1C([H])([H])N(C(=O)N2C([H])([H])C([H])([H])C([H])([H])C([H])(n3nc(-c4c([H])c([H])c(Oc5c([H])c([H])c(F)c([H])c5F)c([H])c4[H])c(C(=O)N([H])[H])c3N([H])[H])C2([H])[H])C1([H])C([H])([H])[N+]([H])([H])C1([H])C(=O)N(C([H])([H])C([H])([H])Oc2c([H])c([H])c3c(c2[H])C([H])([H])N(C(=O)C([H])(N([H])C(=O)C([H])(N([H])C([H])([H])[H])C([H])([H])[H])C(C([H])([H])[H])(C([H])([H])[H])C([H])([H])[H])C([H])(C(=O)N([H])C2([H])c4c([H])c([H])c([H])c([H])c4C([H])([H])C([H])([H])C2([H])[H])C3([H])[H])C1([H])[H])C([H])([H])[H]

>  <smiles>  (70) 
[H]C(=C1C([H])([H])N(C(=O)N2C([H])([H])C([H])([H])C([H])([H])C([H])(n3nc(-c4c([H])c([H])c(Oc5c([H])c([H])c(F)c([H])c5F)c([H])c4[H])c(C(=O)N([H])[H])c3N([H])[H])C2([H])[H])C1([H])C([H])([H])[N+]([H])([H])C1([H])C(=O)N(C([H])([H])C([H])([H])Oc2c([H])c([H])c3c(c2[H])C([H])([H])N(C(=O)C([H])(N([H])C(=O)C([H])(N([H])C([H])([H])[H])C([H])([H])[H])C(C([H])([H])[H])(C([H])([H])[H])C([H])([H])[H])C([H])(C(=O)N([H])C2([H])c4c([H])c([H])c([H])c([H])c4C([H])([H])C([H])([H])C2([H])[H])C3([H])[H])C1([H])[H])C([H])([H])[H]

$$$$
70:0:0
     RDKit          3D

 90 98  0  0  1  0  0  0  0  0999 V2000
  -28.3120  -20.7840   20.3360 C   0  0  0  0  0  3  0  0  0  0  0  0
  -29.5780  -20.6820   20.7450 C   0  0  0  0  0  0  0  0  0  0  0  0
  -27.9950  -22.1780   20.0750 C   0  0  0  0  0  0  0  0  0  0  0  0
  -30.2080  -22.0590   20.7920 C   0  0  0  0  0  2  0  0  0  0  0  0
  -29.0940  -22.9160   20.3560 N   0  0  0  0  0  0  0  0  0  0  0  0
  -26.9320  -22.6240   19.6370 O   0  0  0  0  0  0  0  0  0  0  0  0
  -30.3660  -19.4230   21.1510 C   0  0  0  0  0  2  0  0  0  0  0  0
  -29.7280  -18.0300   20.8470 C   0  0  0  0  0  2  0  0  0  0  0  0
  -30.5700  -16.8400   21.4060 C   0  0  0  0  0  2  0  0  0  0  0  0
  -30.6770  -14.4840   20.4840 C   0  0  0  0  0  0  0  0  0  0  0  0
  -30.3490  -12.3340   19.3090 C   0  0  0  0  0  2  0  0  0  0  0  0
  -29.4100  -12.5530   18.1050 C   0  0  0  0  0  2  0  0  0  0  0  0
  -27.9350  -12.4200   18.5360 C   0  0  0  0  0  2  0  0  0  0  0  0
  -27.6040  -13.2520   19.8040 C   0  0  0  0  0  3  0  0  0  0  0  0
  -28.6590  -13.0230   20.9100 C   0  0  0  0  0  2  0  0  0  0  0  0
  -29.9850  -13.3220   20.3400 N   0  0  0  0  0  0  0  0  0  0  0  0
  -31.7930  -14.6570   19.9860 O   0  0  0  0  0  0  0  0  0  0  0  0
  -30.0350  -15.4900   21.1170 N   0  0  0  0  0  0  0  0  0  0  0  0
  -29.1180  -15.2680   21.4790 H   0  0  0  0  0  0  0  0  0  0  0  0
  -25.2090  -13.8720   20.5080 C   0  0  0  0  0  0  0  0  0  0  0  0
  -24.1350  -13.1060   20.8770 C   0  0  0  0  0  0  0  0  0  0  0  0
  -24.5880  -11.7510   20.8490 C   0  0  0  0  0  0  0  0  0  0  0  0
  -26.2490  -12.9840   20.2820 N   0  0  0  0  0  0  0  0  0  0  0  0
  -25.8780  -11.7030   20.5440 N   0  0  0  0  0  0  0  0  0  0  0  0
  -23.8520  -10.4950   21.0420 C   0  0  0  0  0  0  0  0  0  0  0  0
  -24.2800   -9.5230   21.9730 C   0  0  0  0  0  3  0  0  0  0  0  0
  -23.5460   -8.3320   22.1530 C   0  0  0  0  0  3  0  0  0  0  0  0
  -22.3690   -8.1020   21.4010 C   0  0  0  0  0  0  0  0  0  0  0  0
  -21.9610   -9.0610   20.4580 C   0  0  0  0  0  3  0  0  0  0  0  0
  -22.6950  -10.2450   20.2750 C   0  0  0  0  0  3  0  0  0  0  0  0
  -21.6070   -6.9620   21.4910 O   0  0  0  0  0  0  0  0  0  0  0  0
  -21.5590   -6.2170   22.6410 C   0  0  0  0  0  0  0  0  0  0  0  0
  -21.1400   -6.7690   23.8710 C   0  0  0  0  0  3  0  0  0  0  0  0
  -21.0390   -5.9500   25.0140 C   0  0  0  0  0  3  0  0  0  0  0  0
  -21.3480   -4.5790   24.9270 C   0  0  0  0  0  0  0  0  0  0  0  0
  -21.7580   -4.0260   23.7010 C   0  0  0  0  0  3  0  0  0  0  0  0
  -21.8610   -4.8430   22.5610 C   0  0  0  0  0  0  0  0  0  0  0  0
  -22.2370   -4.3010   21.3780 F   0  0  0  0  0  0  0  0  0  0  0  0
  -21.2440   -3.7890   26.0220 F   0  0  0  0  0  0  0  0  0  0  0  0
  -22.7400  -13.5930   21.1470 C   0  0  0  0  0  0  0  0  0  0  0  0
  -22.0060  -12.9020   22.0130 N   0  0  0  0  0  0  0  0  0  0  0  0
  -22.3090  -14.6210   20.6250 O   0  0  0  0  0  0  0  0  0  0  0  0
  -22.3660  -12.0720   22.4610 H   0  0  0  0  0  0  0  0  0  0  0  0
  -21.0710  -13.2100   22.2350 H   0  0  0  0  0  0  0  0  0  0  0  0
  -25.3830  -15.2400   20.3260 N   0  0  0  0  0  0  0  0  0  0  0  0
  -24.6210  -15.9030   20.4210 H   0  0  0  0  0  0  0  0  0  0  0  0
  -26.2410  -15.6700   20.0000 H   0  0  0  0  0  0  0  0  0  0  0  0
  -29.2980  -24.3440   20.0110 C   0  0  0  0  0  2  0  0  0  0  0  0
  -28.3630  -25.3480   20.7470 C   0  0  0  0  0  2  0  0  0  0  0  0
  -28.4490  -26.6900   20.2090 O   0  0  0  0  0  0  0  0  0  0  0  0
  -24.5960  -31.8820   23.2370 C   0  0  0  0  0  0  0  0  0  0  0  0
  -27.2790  -27.4280   20.2010 C   0  0  0  0  0  0  0  0  0  0  0  0
  -23.4030  -30.4700   21.5940 C   0  0  0  0  0  3  0  0  0  0  0  0
  -24.8720  -28.9310   20.1840 C   0  0  0  0  0  0  0  0  0  0  0  0
  -25.9280  -30.8400   21.4040 C   0  0  0  0  0  2  0  0  0  0  0  0
  -26.0260  -29.4640   20.7720 C   0  0  0  0  0  0  0  0  0  0  0  0
  -27.2330  -28.7230   20.7730 C   0  0  0  0  0  3  0  0  0  0  0  0
  -26.1070  -26.9160   19.6010 C   0  0  0  0  0  3  0  0  0  0  0  0
  -24.9080  -27.6540   19.5960 C   0  0  0  0  0  3  0  0  0  0  0  0
  -23.6240  -29.7840   20.2190 C   0  0  0  0  0  2  0  0  0  0  0  0
  -24.6600  -31.0800   22.1370 N   0  0  0  0  0  0  0  0  0  0  0  0
  -23.5120  -32.1520   23.7720 O   0  0  0  0  0  0  0  0  0  0  0  0
  -22.7500  -29.4520   22.5560 C   0  0  0  0  0  0  0  0  0  0  0  0
  -21.4250  -29.2720   22.4310 N   0  0  0  0  0  0  0  0  0  0  0  0
  -23.4320  -28.8250   23.3710 O   0  0  0  0  0  0  0  0  0  0  0  0
  -20.9350  -29.8310   21.7450 H   0  0  0  0  0  0  0  0  0  0  0  0
  -18.0460  -28.0990   22.9400 C   0  0  0  0  0  0  0  0  0  0  0  0
  -20.6070  -28.3360   23.2000 C   0  0  0  0  0  3  0  0  0  0  0  0
  -20.6970  -26.9070   22.6150 C   0  0  0  0  0  2  0  0  0  0  0  0
  -19.5870  -26.5990   21.6040 C   0  0  0  0  0  2  0  0  0  0  0  0
  -18.2100  -26.7510   22.2560 C   0  0  0  0  0  2  0  0  0  0  0  0
  -19.1730  -28.8490   23.3680 C   0  0  0  0  0  0  0  0  0  0  0  0
  -18.9670  -30.1120   23.9660 C   0  0  0  0  0  3  0  0  0  0  0  0
  -17.6680  -30.6220   24.1430 C   0  0  0  0  0  3  0  0  0  0  0  0
  -16.5550  -29.8670   23.7330 C   0  0  0  0  0  3  0  0  0  0  0  0
  -16.7450  -28.6090   23.1360 C   0  0  0  0  0  3  0  0  0  0  0  0
  -25.8780  -32.5200   23.8600 C   0  0  0  0  0  3  0  0  0  0  0  0
  -25.5640  -33.9170   24.1850 N   0  0  0  0  0  0  0  0  0  0  0  0
  -25.8990  -34.9690   23.4260 C   0  0  0  0  0  0  0  0  0  0  0  0
  -26.5750  -34.8650   22.3990 O   0  0  0  0  0  0  0  0  0  0  0  0
  -24.9630  -34.0720   24.9820 H   0  0  0  0  0  0  0  0  0  0  0  0
  -24.1700  -36.7570   23.0550 C   0  0  0  0  0  1  0  0  0  0  0  0
  -25.4050  -36.3560   23.8770 C   0  0  0  0  0  3  0  0  0  0  0  0
  -27.5330  -37.2450   24.7220 C   0  0  0  0  0  1  0  0  0  0  0  0
  -26.4360  -37.4110   23.7720 N   0  0  0  0  0  0  0  0  0  0  0  0
  -26.0270  -38.3310   23.9190 H   0  0  0  0  0  0  0  0  0  0  0  0
  -26.3960  -31.7510   25.1370 C   0  0  1  0  0  0  0  0  0  0  0  0
  -25.3020  -31.5130   26.2050 C   0  0  0  0  0  1  0  0  0  0  0  0
  -26.9860  -30.3770   24.7480 C   0  0  0  0  0  1  0  0  0  0  0  0
  -27.5420  -32.5500   25.8020 C   0  0  0  0  0  1  0  0  0  0  0  0
  1  2  2  0
  2  4  1  0
  2  7  1  0
  3  1  1  0
  3  5  1  0
  5  4  1  0
  6  3  2  0
  8  7  1  0
  8  9  1  0
 10 18  1  0
 11 16  1  0
 12 13  1  0
 12 11  1  0
 14 13  1  0
 14 23  1  0
 14 15  1  0
 16 10  1  0
 16 15  1  0
 17 10  2  0
 18  9  1  0
 18 19  1  0
 20 21  2  0
 21 40  1  0
 22 21  1  0
 22 25  1  0
 23 20  1  0
 23 24  1  0
 24 22  2  0
 25 26  1  0
 26 27  2  0
 28 31  1  0
 28 27  1  0
 29 28  2  0
 30 29  1  0
 30 25  2  0
 31 32  1  0
 32 33  1  0
 33 34  2  0
 35 34  1  0
 35 39  1  0
 36 35  2  0
 37 32  2  0
 37 36  1  0
 38 37  1  0
 40 41  1  0
 41 44  1  0
 41 43  1  0
 42 40  2  0
 45 46  1  0
 45 20  1  0
 47 45  1  0
 48  5  1  0
 48 49  1  0
 50 49  1  0
 51 62  2  0
 52 50  1  0
 52 57  1  0
 53 61  1  0
 53 63  1  0
 54 60  1  0
 54 56  1  0
 55 61  1  0
 56 57  2  0
 56 55  1  0
 58 52  2  0
 59 58  1  0
 59 54  2  0
 60 53  1  0
 61 51  1  0
 63 65  2  0
 64 63  1  0
 66 64  1  0
 67 76  2  0
 67 72  1  0
 68 64  1  0
 68 72  1  0
 69 68  1  0
 70 71  1  0
 70 69  1  0
 71 67  1  0
 72 73  2  0
 73 74  1  0
 75 74  2  0
 76 75  1  0
 77 51  1  0
 77 78  1  0
 77 87  1  0
 78 81  1  0
 79 83  1  0
 79 78  1  0
 80 79  2  0
 83 82  1  0
 85 83  1  0
 85 86  1  0
 85 84  1  0
 87 90  1  1
 87 88  1  0
 89 87  1  0
M  ISO  4  10 100  18 100  49 101  50 101
M  END
>  <TORSDO>  (71) 
F 21

>  <SCORE>  (71) 
-13.589

>  <name>  (71) 
70

>  <ligand_id>  (71) 
70

>  <original_smiles>  (71) 
[H]C1=C(C([H])([H])C([H])([H])C([H])([H])N([H])C(=O)N2C([H])([H])C([H])([H])C([H])([H])C([H])(n3nc(-c4c([H])c([H])c(Oc5c([H])c([H])c(F)c([H])c5F)c([H])c4[H])c(C(=O)N([H])[H])c3N([H])[H])C2([H])[H])C([H])([H])N(C([H])([H])C([H])([H])Oc2c([H])c([H])c3c(c2[H])C([H])([H])N(C(=O)C([H])(N([H])C(=O)C([H])(N([H])C([H])([H])[H])C([H])([H])[H])C(C([H])([H])[H])(C([H])([H])[H])C([H])([H])[H])C([H])(C(=O)N([H])C2([H])c4c([H])c([H])c([H])c([H])c4C([H])([H])C([H])([H])C2([H])[H])C3([H])[H])C1=O

>  <smiles>  (71) 
[H]C1=C(C([H])([H])C([H])([H])C([H])([H])N([H])C(=O)N2C([H])([H])C([H])([H])C([H])([H])C([H])(n3nc(-c4c([H])c([H])c(Oc5c([H])c([H])c(F)c([H])c5F)c([H])c4[H])c(C(=O)N([H])[H])c3N([H])[H])C2([H])[H])C([H])([H])N(C([H])([H])C([H])([H])Oc2c([H])c([H])c3c(c2[H])C([H])([H])N(C(=O)C([H])(N([H])C(=O)C([H])(N([H])C([H])([H])[H])C([H])([H])[H])C(C([H])([H])[H])(C([H])([H])[H])C([H])([H])[H])C([H])(C(=O)N([H])C2([H])c4c([H])c([H])c([H])c([H])c4C([H])([H])C([H])([H])C2([H])[H])C3([H])[H])C1=O

$$$$
71:0:0
     RDKit          3D

 91 99  0  0  1  0  0  0  0  0999 V2000
  -28.3280  -23.2070   20.1610 N   0  0  0  0  0  4  0  0  0  0  0  0
  -27.9270  -23.0590   19.2480 H   0  0  0  0  0  0  0  0  0  0  0  0
  -29.3220  -23.0690   20.0640 H   0  0  0  0  0  0  0  0  0  0  0  0
  -28.7660  -21.7360   22.1600 C   0  0  0  0  0  2  0  0  0  0  0  0
  -28.7190  -20.9990   21.1030 C   0  0  0  0  0  3  0  0  0  0  0  0
  -27.7950  -22.1680   21.0620 C   0  0  0  0  0  3  0  0  0  0  0  0
  -28.4870  -19.5070   21.0990 C   0  0  0  0  0  2  0  0  0  0  0  0
  -29.8050  -18.7610   20.8360 C   0  0  0  0  0  2  0  0  0  0  0  0
  -29.6340  -17.2410   20.8570 C   0  0  0  0  0  2  0  0  0  0  0  0
  -30.9760  -16.4920   20.7940 C   0  0  0  0  0  2  0  0  0  0  0  0
  -31.2070  -14.1560   19.9110 C   0  0  0  0  0  0  0  0  0  0  0  0
  -30.8400  -11.9100   18.9510 C   0  0  0  0  0  2  0  0  0  0  0  0
  -29.8620  -11.9850   17.7580 C   0  0  0  0  0  2  0  0  0  0  0  0
  -28.3960  -11.9420   18.2320 C   0  0  0  0  0  2  0  0  0  0  0  0
  -28.1130  -12.9230   19.4010 C   0  0  0  0  0  3  0  0  0  0  0  0
  -29.1860  -12.7770   20.5030 C   0  0  0  0  0  2  0  0  0  0  0  0
  -30.5120  -12.9910   19.8880 N   0  0  0  0  0  0  0  0  0  0  0  0
  -32.1860  -14.3840   19.1880 O   0  0  0  0  0  0  0  0  0  0  0  0
  -30.7330  -15.0540   20.7850 N   0  0  0  0  0  0  0  0  0  0  0  0
  -30.0000  -14.7150   21.3920 H   0  0  0  0  0  0  0  0  0  0  0  0
  -25.7760  -13.6910   20.1640 C   0  0  0  0  0  0  0  0  0  0  0  0
  -24.6860  -12.9950   20.6150 C   0  0  0  0  0  0  0  0  0  0  0  0
  -25.0730  -11.6200   20.6290 C   0  0  0  0  0  0  0  0  0  0  0  0
  -26.7630  -12.7450   19.9360 N   0  0  0  0  0  0  0  0  0  0  0  0
  -26.3420  -11.4970   20.2640 N   0  0  0  0  0  0  0  0  0  0  0  0
  -24.2920  -10.4090   20.9140 C   0  0  0  0  0  0  0  0  0  0  0  0
  -24.6860   -9.4900   21.9110 C   0  0  0  0  0  3  0  0  0  0  0  0
  -23.9080   -8.3420   22.1720 C   0  0  0  0  0  3  0  0  0  0  0  0
  -22.7220   -8.1060   21.4380 C   0  0  0  0  0  0  0  0  0  0  0  0
  -22.3450   -9.0130   20.4330 C   0  0  0  0  0  3  0  0  0  0  0  0
  -23.1250  -10.1520   20.1690 C   0  0  0  0  0  3  0  0  0  0  0  0
  -21.9190   -7.0030   21.6060 O   0  0  0  0  0  0  0  0  0  0  0  0
  -21.8060   -6.3730   22.8190 C   0  0  0  0  0  0  0  0  0  0  0  0
  -21.3740   -7.0590   23.9760 C   0  0  0  0  0  3  0  0  0  0  0  0
  -21.2040   -6.3580   25.1860 C   0  0  0  0  0  3  0  0  0  0  0  0
  -21.4600   -4.9760   25.2420 C   0  0  0  0  0  0  0  0  0  0  0  0
  -21.8870   -4.2910   24.0910 C   0  0  0  0  0  3  0  0  0  0  0  0
  -22.0560   -4.9870   22.8830 C   0  0  0  0  0  0  0  0  0  0  0  0
  -22.4480   -4.3190   21.7700 F   0  0  0  0  0  0  0  0  0  0  0  0
  -21.2880   -4.3030   26.4040 F   0  0  0  0  0  0  0  0  0  0  0  0
  -23.3290  -13.5590   20.9240 C   0  0  0  0  0  0  0  0  0  0  0  0
  -22.6110  -12.9520   21.8620 N   0  0  0  0  0  0  0  0  0  0  0  0
  -22.9160  -14.5740   20.3660 O   0  0  0  0  0  0  0  0  0  0  0  0
  -22.9540  -12.1280   22.3310 H   0  0  0  0  0  0  0  0  0  0  0  0
  -21.7040  -13.3200   22.1140 H   0  0  0  0  0  0  0  0  0  0  0  0
  -26.0090  -15.0390   19.9130 N   0  0  0  0  0  0  0  0  0  0  0  0
  -25.2960  -15.7520   20.0210 H   0  0  0  0  0  0  0  0  0  0  0  0
  -26.8780  -15.4040   19.5410 H   0  0  0  0  0  0  0  0  0  0  0  0
  -28.0660  -24.5930   20.6010 C   0  0  0  0  0  2  0  0  0  0  0  0
  -28.5620  -25.6240   19.5680 C   0  0  0  0  0  2  0  0  0  0  0  0
  -28.4930  -26.9540   20.0830 O   0  0  0  0  0  0  0  0  0  0  0  0
  -24.6820  -31.9610   23.3330 C   0  0  0  0  0  0  0  0  0  0  0  0
  -27.2880  -27.6220   20.0990 C   0  0  0  0  0  0  0  0  0  0  0  0
  -23.4490  -30.6020   21.6750 C   0  0  0  0  0  3  0  0  0  0  0  0
  -24.8800  -29.1060   20.1900 C   0  0  0  0  0  0  0  0  0  0  0  0
  -25.9670  -30.9800   21.4400 C   0  0  0  0  0  2  0  0  0  0  0  0
  -26.0440  -29.6240   20.7700 C   0  0  0  0  0  0  0  0  0  0  0  0
  -27.2470  -28.8900   20.7220 C   0  0  0  0  0  3  0  0  0  0  0  0
  -26.1000  -27.1120   19.5200 C   0  0  0  0  0  3  0  0  0  0  0  0
  -24.9010  -27.8490   19.5660 C   0  0  0  0  0  3  0  0  0  0  0  0
  -23.6350  -29.9590   20.2750 C   0  0  0  0  0  2  0  0  0  0  0  0
  -24.7200  -31.1920   22.2100 N   0  0  0  0  0  0  0  0  0  0  0  0
  -23.6110  -32.2180   23.8990 O   0  0  0  0  0  0  0  0  0  0  0  0
  -22.8180  -29.5530   22.6180 C   0  0  0  0  0  0  0  0  0  0  0  0
  -21.4960  -29.3490   22.4850 N   0  0  0  0  0  0  0  0  0  0  0  0
  -23.5110  -28.9280   23.4240 O   0  0  0  0  0  0  0  0  0  0  0  0
  -20.9960  -29.9060   21.8060 H   0  0  0  0  0  0  0  0  0  0  0  0
  -18.1540  -28.0530   22.9140 C   0  0  0  0  0  0  0  0  0  0  0  0
  -20.6950  -28.3880   23.2420 C   0  0  0  0  0  3  0  0  0  0  0  0
  -20.8540  -26.9600   22.6710 C   0  0  0  0  0  2  0  0  0  0  0  0
  -19.7850  -26.6030   21.6330 C   0  0  0  0  0  2  0  0  0  0  0  0
  -18.3850  -26.7080   22.2470 C   0  0  0  0  0  2  0  0  0  0  0  0
  -19.2380  -28.8490   23.3670 C   0  0  0  0  0  0  0  0  0  0  0  0
  -18.9700  -30.1060   23.9500 C   0  0  0  0  0  3  0  0  0  0  0  0
  -17.6480  -30.5710   24.0820 C   0  0  0  0  0  3  0  0  0  0  0  0
  -16.5770  -29.7730   23.6460 C   0  0  0  0  0  3  0  0  0  0  0  0
  -16.8300  -28.5160   23.0680 C   0  0  0  0  0  3  0  0  0  0  0  0
  -25.9800  -32.5770   23.9460 C   0  0  0  0  0  3  0  0  0  0  0  0
  -25.6850  -33.9720   24.2930 N   0  0  0  0  0  0  0  0  0  0  0  0
  -26.0130  -35.0280   23.5380 C   0  0  0  0  0  0  0  0  0  0  0  0
  -26.6700  -34.9290   22.4970 O   0  0  0  0  0  0  0  0  0  0  0  0
  -25.1020  -34.1230   25.1040 H   0  0  0  0  0  0  0  0  0  0  0  0
  -24.2860  -36.8260   23.2200 C   0  0  0  0  0  1  0  0  0  0  0  0
  -25.5380  -36.4150   24.0090 C   0  0  0  0  0  3  0  0  0  0  0  0
  -27.6920  -37.2860   24.8060 C   0  0  0  0  0  1  0  0  0  0  0  0
  -26.5730  -37.4660   23.8830 N   0  0  0  0  0  0  0  0  0  0  0  0
  -26.1730  -38.3860   24.0460 H   0  0  0  0  0  0  0  0  0  0  0  0
  -26.5080  -31.7850   25.2050 C   0  0  1  0  0  0  0  0  0  0  0  0
  -25.4240  -31.5350   26.2790 C   0  0  0  0  0  1  0  0  0  0  0  0
  -27.0820  -30.4120   24.7830 C   0  0  0  0  0  1  0  0  0  0  0  0
  -27.6690  -32.5640   25.8670 C   0  0  0  0  0  1  0  0  0  0  0  0
  1 49  1  0
  2  1  1  0
  3  1  1  0
  5  7  1  0
  5  4  1  0
  6  1  1  0
  6  5  1  0
  6  4  1  0
  8  9  1  0
  8  7  1  0
 10  9  1  0
 11 19  1  0
 12 17  1  0
 13 14  1  0
 13 12  1  0
 15 14  1  0
 15 24  1  0
 15 16  1  0
 17 11  1  0
 17 16  1  0
 18 11  2  0
 19 10  1  0
 19 20  1  0
 21 22  2  0
 22 23  1  0
 22 41  1  0
 23 26  1  0
 24 21  1  0
 24 25  1  0
 25 23  2  0
 26 27  1  0
 27 28  2  0
 29 32  1  0
 29 28  1  0
 30 29  2  0
 31 30  1  0
 31 26  2  0
 32 33  1  0
 33 38  2  0
 33 34  1  0
 34 35  2  0
 35 36  1  0
 36 40  1  0
 37 36  2  0
 38 37  1  0
 39 38  1  0
 41 42  1  0
 42 45  1  0
 42 44  1  0
 43 41  2  0
 46 47  1  0
 46 21  1  0
 48 46  1  0
 50 51  1  0
 50 49  1  0
 51 53  1  0
 52 63  2  0
 53 58  1  0
 54 62  1  0
 54 64  1  0
 55 61  1  0
 55 57  1  0
 56 62  1  0
 57 56  1  0
 58 57  2  0
 59 60  1  0
 59 53  2  0
 60 55  2  0
 61 54  1  0
 62 52  1  0
 64 66  2  0
 65 64  1  0
 67 65  1  0
 68 77  2  0
 68 73  1  0
 69 65  1  0
 69 73  1  0
 70 69  1  0
 71 72  1  0
 71 70  1  0
 72 68  1  0
 73 74  2  0
 74 75  1  0
 76 75  2  0
 77 76  1  0
 78 52  1  0
 78 79  1  0
 78 88  1  0
 79 82  1  0
 80 84  1  0
 80 79  1  0
 81 80  2  0
 84 83  1  0
 86 84  1  0
 86 87  1  0
 86 85  1  0
 88 91  1  1
 88 89  1  0
 90 88  1  0
M  ISO  4  11 100  19 100  50 101  51 101
M  END
>  <TORSDO>  (72) 
F 23

>  <SCORE>  (72) 
-11.657

>  <name>  (72) 
71

>  <ligand_id>  (72) 
71

>  <original_smiles>  (72) 
[H]C1=C(C([H])([H])C([H])([H])C([H])([H])C([H])([H])N([H])C(=O)N2C([H])([H])C([H])([H])C([H])([H])C([H])(n3nc(-c4c([H])c([H])c(Oc5c([H])c([H])c(F)c([H])c5F)c([H])c4[H])c(C(=O)N([H])[H])c3N([H])[H])C2([H])[H])C1([H])[N+]([H])([H])C([H])([H])C([H])([H])Oc1c([H])c([H])c2c(c1[H])C([H])([H])N(C(=O)C([H])(N([H])C(=O)C([H])(N([H])C([H])([H])[H])C([H])([H])[H])C(C([H])([H])[H])(C([H])([H])[H])C([H])([H])[H])C([H])(C(=O)N([H])C1([H])c3c([H])c([H])c([H])c([H])c3C([H])([H])C([H])([H])C1([H])[H])C2([H])[H]

>  <smiles>  (72) 
[H]C1=C(C([H])([H])C([H])([H])C([H])([H])C([H])([H])N([H])C(=O)N2C([H])([H])C([H])([H])C([H])([H])C([H])(n3nc(-c4c([H])c([H])c(Oc5c([H])c([H])c(F)c([H])c5F)c([H])c4[H])c(C(=O)N([H])[H])c3N([H])[H])C2([H])[H])C1([H])[N+]([H])([H])C([H])([H])C([H])([H])Oc1c([H])c([H])c2c(c1[H])C([H])([H])N(C(=O)C([H])(N([H])C(=O)C([H])(N([H])C([H])([H])[H])C([H])([H])[H])C(C([H])([H])[H])(C([H])([H])[H])C([H])([H])[H])C([H])(C(=O)N([H])C1([H])c3c([H])c([H])c([H])c([H])c3C([H])([H])C([H])([H])C1([H])[H])C2([H])[H]

$$$$
72:0:0
     RDKit          3D

 93101  0  0  1  0  0  0  0  0999 V2000
  -29.2270  -22.3970   20.4000 C   0  0  0  0  0  2  0  0  0  0  0  0
  -28.7950  -20.9950   19.6920 C   0  0  0  0  0  2  0  0  0  0  0  0
  -29.6130  -18.4460   19.8220 C   0  0  0  0  0  0  0  0  0  0  0  0
  -29.1010  -19.6350   20.3350 N   0  0  0  0  0  0  0  0  0  0  0  0
  -30.2680  -18.4390   18.7810 O   0  0  0  0  0  0  0  0  0  0  0  0
  -28.6380  -19.5040   21.2260 H   0  0  0  0  0  0  0  0  0  0  0  0
  -30.6090  -14.8000   19.6670 C   0  0  0  0  0  0  0  0  0  0  0  0
  -30.2430  -12.6080   18.4970 C   0  0  0  0  0  2  0  0  0  0  0  0
  -29.1660  -12.7600   17.4010 C   0  0  0  0  0  2  0  0  0  0  0  0
  -27.7560  -12.5780   17.9940 C   0  0  0  0  0  2  0  0  0  0  0  0
  -27.5480  -13.3950   19.2950 C   0  0  0  0  0  3  0  0  0  0  0  0
  -28.7230  -13.2070   20.2770 C   0  0  0  0  0  2  0  0  0  0  0  0
  -29.9520  -13.5920   19.5680 N   0  0  0  0  0  0  0  0  0  0  0  0
  -31.6780  -14.9640   19.0680 O   0  0  0  0  0  0  0  0  0  0  0  0
  -29.5820  -17.0740   22.0160 C   0  0  0  0  0  2  0  0  0  0  0  0
  -29.2630  -17.0390   20.5190 C   0  0  0  0  0  3  0  0  0  0  0  0
  -30.8540  -16.2840   21.7020 C   0  0  0  0  0  3  0  0  0  0  0  0
  -31.3200  -15.1830   22.6560 C   0  0  0  0  0  1  0  0  0  0  0  0
  -30.1210  -15.7590   20.5420 N   0  0  0  0  0  0  0  0  0  0  0  0
  -25.2650  -13.9760   20.3080 C   0  0  0  0  0  0  0  0  0  0  0  0
  -24.2400  -13.1970   20.7690 C   0  0  0  0  0  0  0  0  0  0  0  0
  -24.6800  -11.8450   20.6350 C   0  0  0  0  0  0  0  0  0  0  0  0
  -26.2640  -13.0990   19.9210 N   0  0  0  0  0  0  0  0  0  0  0  0
  -25.9250  -11.8090   20.1770 N   0  0  0  0  0  0  0  0  0  0  0  0
  -23.9650  -10.5810   20.8570 C   0  0  0  0  0  0  0  0  0  0  0  0
  -24.4360   -9.6150   21.7730 C   0  0  0  0  0  3  0  0  0  0  0  0
  -23.7190   -8.4180   21.9830 C   0  0  0  0  0  3  0  0  0  0  0  0
  -22.5170   -8.1770   21.2770 C   0  0  0  0  0  0  0  0  0  0  0  0
  -22.0630   -9.1310   20.3490 C   0  0  0  0  0  3  0  0  0  0  0  0
  -22.7810  -10.3200   20.1360 C   0  0  0  0  0  3  0  0  0  0  0  0
  -21.7670   -7.0320   21.3990 O   0  0  0  0  0  0  0  0  0  0  0  0
  -21.7160   -6.3250   22.5730 C   0  0  0  0  0  0  0  0  0  0  0  0
  -21.2840   -6.9180   23.7800 C   0  0  0  0  0  3  0  0  0  0  0  0
  -21.1810   -6.1380   24.9490 C   0  0  0  0  0  3  0  0  0  0  0  0
  -21.5000   -4.7670   24.9130 C   0  0  0  0  0  0  0  0  0  0  0  0
  -21.9250   -4.1740   23.7110 C   0  0  0  0  0  3  0  0  0  0  0  0
  -22.0300   -4.9520   22.5440 C   0  0  0  0  0  0  0  0  0  0  0  0
  -22.4200   -4.3710   21.3840 F   0  0  0  0  0  0  0  0  0  0  0  0
  -21.3940   -4.0160   26.0340 F   0  0  0  0  0  0  0  0  0  0  0  0
  -22.8890  -13.6740   21.2180 C   0  0  0  0  0  0  0  0  0  0  0  0
  -22.2720  -12.9710   22.1600 N   0  0  0  0  0  0  0  0  0  0  0  0
  -22.3940  -14.7050   20.7650 O   0  0  0  0  0  0  0  0  0  0  0  0
  -22.6900  -12.1380   22.5470 H   0  0  0  0  0  0  0  0  0  0  0  0
  -21.3700  -13.2700   22.5030 H   0  0  0  0  0  0  0  0  0  0  0  0
  -25.4220  -15.3520   20.1580 N   0  0  0  0  0  0  0  0  0  0  0  0
  -24.6700  -16.0030   20.3510 H   0  0  0  0  0  0  0  0  0  0  0  0
  -26.2100  -15.7810   19.6920 H   0  0  0  0  0  0  0  0  0  0  0  0
  -28.3500  -23.7890   20.4640 C   0  0  0  0  0  3  0  0  0  0  0  0
  -26.8550  -23.4730   20.5330 C   0  0  0  0  0  0  0  0  0  0  0  0
  -26.3010  -23.0330   21.8820 C   0  0  0  0  0  1  0  0  0  0  0  0
  -26.1230  -23.5340   19.5420 O   0  0  0  0  0  0  0  0  0  0  0  0
  -28.6530  -25.1090   19.5600 C   0  0  0  0  0  2  0  0  0  0  0  0
  -28.5370  -26.5210   20.0850 O   0  0  0  0  0  0  0  0  0  0  0  0
  -24.6910  -31.8720   23.1060 C   0  0  0  0  0  0  0  0  0  0  0  0
  -27.3920  -27.3500   20.0090 C   0  0  0  0  0  0  0  0  0  0  0  0
  -23.5210  -30.4720   21.4440 C   0  0  0  0  0  3  0  0  0  0  0  0
  -25.0040  -28.9560   20.0030 C   0  0  0  0  0  0  0  0  0  0  0  0
  -26.0580  -30.8230   21.2800 C   0  0  0  0  0  2  0  0  0  0  0  0
  -26.1620  -29.4480   20.6150 C   0  0  0  0  0  0  0  0  0  0  0  0
  -27.3550  -28.6560   20.6080 C   0  0  0  0  0  3  0  0  0  0  0  0
  -26.2070  -26.9210   19.3720 C   0  0  0  0  0  3  0  0  0  0  0  0
  -25.0310  -27.7020   19.3720 C   0  0  0  0  0  3  0  0  0  0  0  0
  -23.7540  -29.8150   20.0560 C   0  0  0  0  0  2  0  0  0  0  0  0
  -24.7750  -31.0750   21.9990 N   0  0  0  0  0  0  0  0  0  0  0  0
  -23.6000  -32.1250   23.6380 O   0  0  0  0  0  0  0  0  0  0  0  0
  -22.8700  -29.4350   22.3900 C   0  0  0  0  0  0  0  0  0  0  0  0
  -21.5430  -29.2520   22.2700 N   0  0  0  0  0  0  0  0  0  0  0  0
  -23.5570  -28.7990   23.1930 O   0  0  0  0  0  0  0  0  0  0  0  0
  -21.0460  -29.8200   21.5970 H   0  0  0  0  0  0  0  0  0  0  0  0
  -18.1720  -28.0530   22.8050 C   0  0  0  0  0  0  0  0  0  0  0  0
  -20.7360  -28.2950   23.0290 C   0  0  0  0  0  3  0  0  0  0  0  0
  -20.8200  -26.8810   22.4070 C   0  0  0  0  0  2  0  0  0  0  0  0
  -19.6960  -26.5950   21.4060 C   0  0  0  0  0  2  0  0  0  0  0  0
  -18.3280  -26.7260   22.0830 C   0  0  0  0  0  2  0  0  0  0  0  0
  -19.3030  -28.7980   23.2340 C   0  0  0  0  0  0  0  0  0  0  0  0
  -19.1000  -30.0420   23.8690 C   0  0  0  0  0  3  0  0  0  0  0  0
  -17.8010  -30.5410   24.0800 C   0  0  0  0  0  3  0  0  0  0  0  0
  -16.6850  -29.7930   23.6650 C   0  0  0  0  0  3  0  0  0  0  0  0
  -16.8720  -28.5520   23.0330 C   0  0  0  0  0  3  0  0  0  0  0  0
  -25.9580  -32.5230   23.7430 C   0  0  0  0  0  3  0  0  0  0  0  0
  -25.6200  -33.9100   24.0940 N   0  0  0  0  0  0  0  0  0  0  0  0
  -25.9430  -34.9830   23.3590 C   0  0  0  0  0  0  0  0  0  0  0  0
  -26.6260  -34.9090   22.3330 O   0  0  0  0  0  0  0  0  0  0  0  0
  -25.0190  -34.0390   24.8940 H   0  0  0  0  0  0  0  0  0  0  0  0
  -24.2040  -36.7650   23.0050 C   0  0  0  0  0  1  0  0  0  0  0  0
  -25.4280  -36.3540   23.8360 C   0  0  0  0  0  3  0  0  0  0  0  0
  -27.5290  -37.2450   24.7450 C   0  0  0  0  0  1  0  0  0  0  0  0
  -26.4510  -37.4220   23.7750 N   0  0  0  0  0  0  0  0  0  0  0  0
  -26.0300  -38.3330   23.9340 H   0  0  0  0  0  0  0  0  0  0  0  0
  -26.4840  -31.7440   25.0120 C   0  0  1  0  0  0  0  0  0  0  0  0
  -25.3910  -31.4640   26.0690 C   0  0  0  0  0  1  0  0  0  0  0  0
  -27.1000  -30.3860   24.6040 C   0  0  0  0  0  1  0  0  0  0  0  0
  -27.6140  -32.5530   25.6920 C   0  0  0  0  0  1  0  0  0  0  0  0
  1 48  1  0
  2  4  1  0
  2  1  1  0
  3  4  1  0
  4  6  1  0
  5  3  2  0
  7 19  1  0
  8 13  1  0
  9 10  1  0
  9  8  1  0
 11 10  1  0
 11 23  1  0
 11 12  1  0
 13  7  1  0
 13 12  1  0
 14  7  2  0
 16  3  1  0
 16 19  1  0
 16 15  1  0
 17 15  1  0
 17 18  1  0
 19 17  1  0
 20 21  2  0
 21 40  1  0
 22 21  1  0
 22 25  1  0
 23 24  1  0
 23 20  1  0
 24 22  2  0
 25 26  1  0
 26 27  2  0
 28 31  1  0
 28 27  1  0
 29 28  2  0
 30 29  1  0
 30 25  2  0
 31 32  1  0
 32 33  1  0
 33 34  2  0
 35 34  1  0
 35 39  1  0
 36 35  2  0
 37 32  2  0
 37 36  1  0
 38 37  1  0
 40 41  1  0
 41 44  1  0
 41 43  1  0
 42 40  2  0
 45 20  1  0
 45 46  1  0
 47 45  1  0
 48 52  1  0
 48 49  1  0
 49 50  1  0
 51 49  2  0
 52 53  1  0
 54 65  2  0
 55 53  1  0
 55 60  1  0
 56 64  1  0
 56 66  1  0
 57 63  1  0
 57 59  1  0
 58 64  1  0
 59 58  1  0
 60 59  2  0
 61 55  2  0
 62 61  1  0
 62 57  2  0
 63 56  1  0
 64 54  1  0
 66 68  2  0
 67 66  1  0
 69 67  1  0
 70 79  2  0
 70 75  1  0
 71 67  1  0
 71 75  1  0
 72 71  1  0
 73 74  1  0
 73 72  1  0
 74 70  1  0
 75 76  2  0
 76 77  1  0
 78 77  2  0
 79 78  1  0
 80 54  1  0
 80 81  1  0
 80 90  1  0
 81 84  1  0
 82 86  1  0
 82 81  1  0
 83 82  2  0
 86 85  1  0
 88 86  1  0
 88 89  1  0
 88 87  1  0
 90 93  1  1
 90 91  1  0
 92 90  1  0
M  ISO  4   7 100  19 100  52 101  53 101
M  END
>  <TORSDO>  (73) 
F 21

>  <SCORE>  (73) 
-11.152

>  <name>  (73) 
72

>  <ligand_id>  (73) 
72

>  <original_smiles>  (73) 
[H]c1c([H])c([H])c2c(c1[H])C([H])([H])C([H])([H])C([H])([H])C2([H])N([H])C(=O)C1([H])N(C(=O)C([H])(N([H])C(=O)C([H])(N([H])C([H])([H])[H])C([H])([H])[H])C(C([H])([H])[H])(C([H])([H])[H])C([H])([H])[H])C([H])([H])c2c([H])c(OC([H])([H])C([H])(C(=O)C([H])([H])[H])C([H])([H])C([H])([H])N([H])C(=O)C3([H])N(C(=O)N4C([H])([H])C([H])([H])C([H])([H])C([H])(n5nc(-c6c([H])c([H])c(Oc7c([H])c([H])c(F)c([H])c7F)c([H])c6[H])c(C(=O)N([H])[H])c5N([H])[H])C4([H])[H])C([H])(C([H])([H])[H])C3([H])[H])c([H])c([H])c2C1([H])[H]

>  <smiles>  (73) 
[H]c1c([H])c([H])c2c(c1[H])C([H])([H])C([H])([H])C([H])([H])C2([H])N([H])C(=O)C1([H])N(C(=O)C([H])(N([H])C(=O)C([H])(N([H])C([H])([H])[H])C([H])([H])[H])C(C([H])([H])[H])(C([H])([H])[H])C([H])([H])[H])C([H])([H])c2c([H])c(OC([H])([H])C([H])(C(=O)C([H])([H])[H])C([H])([H])C([H])([H])N([H])C(=O)C3([H])N(C(=O)N4C([H])([H])C([H])([H])C([H])([H])C([H])(n5nc(-c6c([H])c([H])c(Oc7c([H])c([H])c(F)c([H])c7F)c([H])c6[H])c(C(=O)N([H])[H])c5N([H])[H])C4([H])[H])C([H])(C([H])([H])[H])C3([H])[H])c([H])c([H])c2C1([H])[H]

$$$$
73:0:0
     RDKit          3D

 92100  0  0  1  0  0  0  0  0999 V2000
  -27.2820  -18.8260   20.4760 C   0  0  0  0  0  3  0  0  0  0  0  0
  -27.8860  -19.9380   19.8520 C   0  0  0  0  0  3  0  0  0  0  0  0
  -27.9280  -17.5720   20.4740 C   0  0  0  0  0  3  0  0  0  0  0  0
  -29.7890  -18.5480   19.2390 C   0  0  0  0  0  3  0  0  0  0  0  0
  -29.1470  -19.8030   19.2340 C   0  0  0  0  0  0  0  0  0  0  0  0
  -29.1900  -17.4260   19.8480 C   0  0  0  0  0  0  0  0  0  0  0  0
  -29.7940  -20.9660   18.4880 C   0  0  0  0  0  2  0  0  0  0  0  0
  -30.2330  -22.1600   19.3440 C   0  0  0  0  0  0  0  0  0  0  0  0
  -30.6860  -22.0250   20.4870 O   0  0  0  0  0  0  0  0  0  0  0  0
  -30.0920  -23.5290   18.6730 C   0  0  0  0  0  2  0  0  0  0  0  0
  -30.4560  -24.7410   19.5570 C   0  0  0  0  0  2  0  0  0  0  0  0
  -30.2670  -25.9960   18.8860 O   0  0  0  0  0  0  0  0  0  0  0  0
  -25.8130  -29.6680   23.0280 C   0  0  0  0  0  0  0  0  0  0  0  0
  -29.0160  -26.5410   19.0280 C   0  0  0  0  0  0  0  0  0  0  0  0
  -24.7980  -28.5520   21.0650 C   0  0  0  0  0  3  0  0  0  0  0  0
  -26.4360  -27.6380   19.3390 C   0  0  0  0  0  0  0  0  0  0  0  0
  -27.2380  -29.3110   21.0160 C   0  0  0  0  0  2  0  0  0  0  0  0
  -27.5110  -28.1620   20.0690 C   0  0  0  0  0  0  0  0  0  0  0  0
  -28.8040  -27.6190   19.9140 C   0  0  0  0  0  3  0  0  0  0  0  0
  -27.9300  -26.0450   18.2770 C   0  0  0  0  0  3  0  0  0  0  0  0
  -26.6390  -26.5780   18.4390 C   0  0  0  0  0  3  0  0  0  0  0  0
  -25.0830  -28.2720   19.5640 C   0  0  0  0  0  2  0  0  0  0  0  0
  -25.9660  -29.1810   21.7640 N   0  0  0  0  0  0  0  0  0  0  0  0
  -24.7120  -29.6420   23.5950 O   0  0  0  0  0  0  0  0  0  0  0  0
  -24.3150  -27.2450   21.7310 C   0  0  0  0  0  0  0  0  0  0  0  0
  -23.0440  -26.8840   21.4850 N   0  0  0  0  0  0  0  0  0  0  0  0
  -25.0790  -26.5670   22.4230 O   0  0  0  0  0  0  0  0  0  0  0  0
  -22.4810  -27.4940   20.9090 H   0  0  0  0  0  0  0  0  0  0  0  0
  -19.9260  -25.0570   21.4700 C   0  0  0  0  0  0  0  0  0  0  0  0
  -22.3830  -25.6740   21.9760 C   0  0  0  0  0  3  0  0  0  0  0  0
  -22.7620  -24.4470   21.1140 C   0  0  0  0  0  2  0  0  0  0  0  0
  -21.7670  -24.1570   19.9880 C   0  0  0  0  0  2  0  0  0  0  0  0
  -20.3640  -23.9260   20.5560 C   0  0  0  0  0  2  0  0  0  0  0  0
  -20.8730  -25.8840   22.1310 C   0  0  0  0  0  0  0  0  0  0  0  0
  -20.4100  -26.9340   22.9530 C   0  0  0  0  0  3  0  0  0  0  0  0
  -19.0310  -27.1620   23.1250 C   0  0  0  0  0  3  0  0  0  0  0  0
  -18.0980  -26.3290   22.4820 C   0  0  0  0  0  3  0  0  0  0  0  0
  -18.5460  -25.2790   21.6600 C   0  0  0  0  0  3  0  0  0  0  0  0
  -27.0070  -30.3000   23.8110 C   0  0  0  0  0  3  0  0  0  0  0  0
  -26.5250  -31.5470   24.4180 N   0  0  0  0  0  0  0  0  0  0  0  0
  -26.7500  -32.7710   23.9160 C   0  0  0  0  0  0  0  0  0  0  0  0
  -27.4560  -32.9720   22.9250 O   0  0  0  0  0  0  0  0  0  0  0  0
  -25.8930  -31.4580   25.1990 H   0  0  0  0  0  0  0  0  0  0  0  0
  -24.8330  -34.3990   23.8530 C   0  0  0  0  0  1  0  0  0  0  0  0
  -26.0850  -33.9620   24.6330 C   0  0  0  0  0  3  0  0  0  0  0  0
  -28.0580  -34.8730   25.7760 C   0  0  0  0  0  1  0  0  0  0  0  0
  -26.9870  -35.1200   24.8110 N   0  0  0  0  0  0  0  0  0  0  0  0
  -26.4670  -35.9360   25.1180 H   0  0  0  0  0  0  0  0  0  0  0  0
  -27.6090  -29.3410   24.9100 C   0  0  1  0  0  0  0  0  0  0  0  0
  -26.5480  -28.7510   25.8670 C   0  0  0  0  0  1  0  0  0  0  0  0
  -28.3600  -28.1610   24.2500 C   0  0  0  0  0  1  0  0  0  0  0  0
  -28.6460  -30.1080   25.7630 C   0  0  0  0  0  1  0  0  0  0  0  0
  -29.9290  -16.0960   19.7640 C   0  0  0  0  0  2  0  0  0  0  0  0
  -29.7970  -15.1750   20.9930 C   0  0  0  0  0  2  0  0  0  0  0  0
  -31.2600  -13.2490   20.2850 C   0  0  0  0  0  0  0  0  0  0  0  0
  -30.8850  -10.9040   19.6010 C   0  0  0  0  0  2  0  0  0  0  0  0
  -29.9930  -10.8140   18.3470 C   0  0  0  0  0  2  0  0  0  0  0  0
  -28.4970  -10.8670   18.7160 C   0  0  0  0  0  2  0  0  0  0  0  0
  -28.1680  -12.0220   19.7000 C   0  0  0  0  0  3  0  0  0  0  0  0
  -29.1510  -11.9900   20.8910 C   0  0  0  0  0  2  0  0  0  0  0  0
  -30.5140  -12.1160   20.3510 N   0  0  0  0  0  0  0  0  0  0  0  0
  -32.3180  -13.3210   19.6530 O   0  0  0  0  0  0  0  0  0  0  0  0
  -30.9250  -14.2350   21.1320 N   0  0  0  0  0  0  0  0  0  0  0  0
  -31.7540  -14.7270   21.4370 H   0  0  0  0  0  0  0  0  0  0  0  0
  -25.8380  -12.9770   20.2310 C   0  0  0  0  0  0  0  0  0  0  0  0
  -24.6740  -12.3760   20.6280 C   0  0  0  0  0  0  0  0  0  0  0  0
  -24.9680  -10.9830   20.7440 C   0  0  0  0  0  0  0  0  0  0  0  0
  -26.7770  -11.9610   20.1380 N   0  0  0  0  0  0  0  0  0  0  0  0
  -26.2520  -10.7600   20.4900 N   0  0  0  0  0  0  0  0  0  0  0  0
  -24.0900   -9.8400   21.0190 C   0  0  0  0  0  0  0  0  0  0  0  0
  -24.1710   -9.1180   22.2310 C   0  0  0  0  0  3  0  0  0  0  0  0
  -23.3010   -8.0340   22.4770 C   0  0  0  0  0  3  0  0  0  0  0  0
  -22.3360   -7.6650   21.5090 C   0  0  0  0  0  0  0  0  0  0  0  0
  -22.2770   -8.3710   20.2940 C   0  0  0  0  0  3  0  0  0  0  0  0
  -23.1490   -9.4450   20.0480 C   0  0  0  0  0  3  0  0  0  0  0  0
  -21.4660   -6.6120   21.6530 O   0  0  0  0  0  0  0  0  0  0  0  0
  -20.8280   -6.3620   22.8410 C   0  0  0  0  0  0  0  0  0  0  0  0
  -19.9410   -7.2950   23.4220 C   0  0  0  0  0  3  0  0  0  0  0  0
  -19.2520   -6.9690   24.6060 C   0  0  0  0  0  3  0  0  0  0  0  0
  -19.4420   -5.7100   25.2110 C   0  0  0  0  0  0  0  0  0  0  0  0
  -20.3220   -4.7780   24.6310 C   0  0  0  0  0  3  0  0  0  0  0  0
  -21.0100   -5.1030   23.4490 C   0  0  0  0  0  0  0  0  0  0  0  0
  -21.8390   -4.1930   22.8850 F   0  0  0  0  0  0  0  0  0  0  0  0
  -18.7750   -5.3940   26.3440 F   0  0  0  0  0  0  0  0  0  0  0  0
  -23.3380  -13.0410   20.8030 C   0  0  0  0  0  0  0  0  0  0  0  0
  -22.5170  -12.5330   21.7140 N   0  0  0  0  0  0  0  0  0  0  0  0
  -23.0350  -14.0460   20.1620 O   0  0  0  0  0  0  0  0  0  0  0  0
  -22.7740  -11.7200   22.2520 H   0  0  0  0  0  0  0  0  0  0  0  0
  -21.6190  -12.9670   21.8780 H   0  0  0  0  0  0  0  0  0  0  0  0
  -26.1690  -14.2930   19.9260 N   0  0  0  0  0  0  0  0  0  0  0  0
  -25.4790  -15.0360   19.9200 H   0  0  0  0  0  0  0  0  0  0  0  0
  -27.0720  -14.5940   19.5840 H   0  0  0  0  0  0  0  0  0  0  0  0
  2  1  2  0
  3  1  1  0
  4  6  1  0
  5  4  2  0
  5  2  1  0
  6  3  2  0
  7  5  1  0
  7  8  1  0
  8  9  2  0
 10  8  1  0
 10 11  1  0
 12 14  1  0
 12 11  1  0
 13 24  2  0
 14 19  1  0
 15 25  1  0
 15 23  1  0
 16 22  1  0
 16 18  1  0
 17 23  1  0
 18 17  1  0
 19 18  2  0
 20 21  1  0
 20 14  2  0
 21 16  2  0
 22 15  1  0
 23 13  1  0
 25 27  2  0
 26 25  1  0
 28 26  1  0
 29 38  2  0
 29 34  1  0
 30 26  1  0
 30 34  1  0
 31 30  1  0
 32 33  1  0
 32 31  1  0
 33 29  1  0
 34 35  2  0
 35 36  1  0
 37 36  2  0
 38 37  1  0
 39 13  1  0
 39 40  1  0
 39 49  1  0
 40 43  1  0
 41 40  1  0
 41 45  1  0
 42 41  2  0
 45 44  1  0
 45 47  1  0
 47 48  1  0
 47 46  1  0
 49 52  1  1
 49 50  1  0
 51 49  1  0
 53  6  1  0
 53 54  1  0
 54 63  1  0
 55 61  1  0
 55 63  1  0
 56 61  1  0
 57 58  1  0
 57 56  1  0
 59 58  1  0
 59 68  1  0
 59 60  1  0
 61 60  1  0
 62 55  2  0
 63 64  1  0
 65 66  2  0
 66 67  1  0
 66 85  1  0
 67 70  1  0
 68 65  1  0
 68 69  1  0
 69 67  2  0
 70 71  1  0
 71 72  2  0
 73 76  1  0
 73 72  1  0
 74 73  2  0
 75 74  1  0
 75 70  2  0
 76 77  1  0
 77 78  2  0
 77 82  1  0
 78 79  1  0
 79 80  2  0
 80 84  1  0
 81 80  1  0
 82 81  2  0
 83 82  1  0
 85 86  1  0
 86 89  1  0
 86 88  1  0
 87 85  2  0
 90 65  1  0
 91 90  1  0
 92 90  1  0
M  ISO  4  11 101  12 101  55 100  63 100
M  END
>  <TORSDO>  (74) 
F 22

>  <SCORE>  (74) 
-6.959

>  <name>  (74) 
73

>  <ligand_id>  (74) 
73

>  <original_smiles>  (74) 
[H]c1c([H])c(C([H])([H])C(=O)C([H])([H])C([H])([H])Oc2c([H])c([H])c3c(c2[H])C([H])([H])N(C(=O)C([H])(N([H])C(=O)C([H])(N([H])C([H])([H])[H])C([H])([H])[H])C(C([H])([H])[H])(C([H])([H])[H])C([H])([H])[H])C([H])(C(=O)N([H])C2([H])c4c([H])c([H])c([H])c([H])c4C([H])([H])C([H])([H])C2([H])[H])C3([H])[H])c([H])c(C([H])([H])C([H])([H])N([H])C(=O)N2C([H])([H])C([H])([H])C([H])([H])C([H])(n3nc(-c4c([H])c([H])c(Oc5c([H])c([H])c(F)c([H])c5F)c([H])c4[H])c(C(=O)N([H])[H])c3N([H])[H])C2([H])[H])c1[H]

>  <smiles>  (74) 
[H]c1c([H])c(C([H])([H])C(=O)C([H])([H])C([H])([H])Oc2c([H])c([H])c3c(c2[H])C([H])([H])N(C(=O)C([H])(N([H])C(=O)C([H])(N([H])C([H])([H])[H])C([H])([H])[H])C(C([H])([H])[H])(C([H])([H])[H])C([H])([H])[H])C([H])(C(=O)N([H])C2([H])c4c([H])c([H])c([H])c([H])c4C([H])([H])C([H])([H])C2([H])[H])C3([H])[H])c([H])c(C([H])([H])C([H])([H])N([H])C(=O)N2C([H])([H])C([H])([H])C([H])([H])C([H])(n3nc(-c4c([H])c([H])c(Oc5c([H])c([H])c(F)c([H])c5F)c([H])c4[H])c(C(=O)N([H])[H])c3N([H])[H])C2([H])[H])c1[H]

$$$$
74:0:0
     RDKit          3D

 96105  0  0  1  0  0  0  0  0999 V2000
  -30.3620  -21.7960   20.2970 C   0  0  0  0  0  0  0  0  0  0  0  0
  -30.1420  -22.0530   18.0050 C   0  0  0  0  0  2  0  0  0  0  0  0
  -30.5570  -20.3840   19.7300 C   0  0  0  0  0  3  0  0  0  0  0  0
  -30.7240  -20.6490   18.2130 C   0  0  0  0  0  3  0  0  0  0  0  0
  -30.1310  -19.5670   17.2800 C   0  0  0  0  0  1  0  0  0  0  0  0
  -30.2400  -22.6960   19.3110 N   0  0  0  0  0  0  0  0  0  0  0  0
  -30.3690  -22.0410   21.5070 O   0  0  0  0  0  0  0  0  0  0  0  0
  -31.7840  -19.6770   20.3460 C   0  0  0  0  0  2  0  0  0  0  0  0
  -31.0720  -17.9320   23.6880 C   0  0  0  0  0  3  0  0  0  0  0  0
  -31.3000  -18.9520   22.7450 C   0  0  0  0  0  3  0  0  0  0  0  0
  -30.9490  -16.5930   23.2670 C   0  0  0  0  0  3  0  0  0  0  0  0
  -31.3000  -17.2930   20.9610 C   0  0  0  0  0  3  0  0  0  0  0  0
  -31.4400  -18.6270   21.3810 C   0  0  0  0  0  0  0  0  0  0  0  0
  -31.0560  -16.2660   21.8970 C   0  0  0  0  0  0  0  0  0  0  0  0
  -31.0960  -14.3570   20.3110 C   0  0  0  0  0  0  0  0  0  0  0  0
  -30.6130  -12.3590   18.9510 C   0  0  0  0  0  2  0  0  0  0  0  0
  -29.6560  -12.6920   17.7930 C   0  0  0  0  0  2  0  0  0  0  0  0
  -28.1900  -12.5870   18.2500 C   0  0  0  0  0  2  0  0  0  0  0  0
  -27.9210  -13.3760   19.5600 C   0  0  0  0  0  3  0  0  0  0  0  0
  -28.9810  -13.0420   20.6300 C   0  0  0  0  0  2  0  0  0  0  0  0
  -30.3270  -13.2720   20.0670 N   0  0  0  0  0  0  0  0  0  0  0  0
  -32.0320  -14.7030   19.5780 O   0  0  0  0  0  0  0  0  0  0  0  0
  -30.8660  -14.9170   21.5090 N   0  0  0  0  0  0  0  0  0  0  0  0
  -30.2950  -14.3550   22.1240 H   0  0  0  0  0  0  0  0  0  0  0  0
  -25.5430  -14.0400   20.3000 C   0  0  0  0  0  0  0  0  0  0  0  0
  -24.4660  -13.2940   20.6910 C   0  0  0  0  0  0  0  0  0  0  0  0
  -24.8980  -11.9310   20.6630 C   0  0  0  0  0  0  0  0  0  0  0  0
  -26.5680  -13.1360   20.0590 N   0  0  0  0  0  0  0  0  0  0  0  0
  -26.1800  -11.8630   20.3300 N   0  0  0  0  0  0  0  0  0  0  0  0
  -24.1480  -10.6860   20.8790 C   0  0  0  0  0  0  0  0  0  0  0  0
  -24.5530   -9.7370   21.8440 C   0  0  0  0  0  3  0  0  0  0  0  0
  -23.8080   -8.5550   22.0450 C   0  0  0  0  0  3  0  0  0  0  0  0
  -22.6410   -8.3140   21.2790 C   0  0  0  0  0  0  0  0  0  0  0  0
  -22.2540   -9.2500   20.3050 C   0  0  0  0  0  3  0  0  0  0  0  0
  -23.0010  -10.4240   20.1030 C   0  0  0  0  0  3  0  0  0  0  0  0
  -21.8680   -7.1830   21.3870 O   0  0  0  0  0  0  0  0  0  0  0  0
  -21.7530   -6.4990   22.5710 C   0  0  0  0  0  0  0  0  0  0  0  0
  -21.2900   -7.1240   23.7490 C   0  0  0  0  0  3  0  0  0  0  0  0
  -21.1220   -6.3670   24.9250 C   0  0  0  0  0  3  0  0  0  0  0  0
  -21.4050   -4.9880   24.9250 C   0  0  0  0  0  0  0  0  0  0  0  0
  -21.8610   -4.3640   23.7500 C   0  0  0  0  0  3  0  0  0  0  0  0
  -22.0310   -5.1170   22.5750 C   0  0  0  0  0  0  0  0  0  0  0  0
  -22.4510   -4.5070   21.4390 F   0  0  0  0  0  0  0  0  0  0  0  0
  -21.2350   -4.2600   26.0530 F   0  0  0  0  0  0  0  0  0  0  0  0
  -23.0830  -13.8010   20.9900 C   0  0  0  0  0  0  0  0  0  0  0  0
  -22.3670  -13.1380   21.8890 N   0  0  0  0  0  0  0  0  0  0  0  0
  -22.6480  -14.8220   20.4580 O   0  0  0  0  0  0  0  0  0  0  0  0
  -22.7290  -12.3140   22.3470 H   0  0  0  0  0  0  0  0  0  0  0  0
  -21.4380  -13.4590   22.1270 H   0  0  0  0  0  0  0  0  0  0  0  0
  -25.7310  -15.4050   20.1050 N   0  0  0  0  0  0  0  0  0  0  0  0
  -24.9880  -16.0830   20.2340 H   0  0  0  0  0  0  0  0  0  0  0  0
  -26.5930  -15.8230   19.7770 H   0  0  0  0  0  0  0  0  0  0  0  0
  -30.2430  -24.1620   19.4360 C   0  0  0  0  0  2  0  0  0  0  0  0
  -28.8680  -24.7450   19.0070 C   0  0  0  0  0  2  0  0  0  0  0  0
  -28.7720  -26.2840   18.9410 C   0  0  0  0  0  2  0  0  0  0  0  0
  -28.3580  -26.8720   20.1760 O   0  0  0  0  0  0  0  0  0  0  0  0
  -24.6560  -32.0260   23.3730 C   0  0  0  0  0  0  0  0  0  0  0  0
  -27.1810  -27.5920   20.1860 C   0  0  0  0  0  0  0  0  0  0  0  0
  -23.4000  -30.6810   21.7110 C   0  0  0  0  0  3  0  0  0  0  0  0
  -24.8080  -29.1220   20.2630 C   0  0  0  0  0  0  0  0  0  0  0  0
  -25.9320  -30.9850   21.5030 C   0  0  0  0  0  2  0  0  0  0  0  0
  -25.9760  -29.6200   20.8450 C   0  0  0  0  0  0  0  0  0  0  0  0
  -27.1650  -28.8580   20.8090 C   0  0  0  0  0  3  0  0  0  0  0  0
  -25.9860  -27.0840   19.6310 C   0  0  0  0  0  3  0  0  0  0  0  0
  -24.8010  -27.8500   19.6610 C   0  0  0  0  0  3  0  0  0  0  0  0
  -23.5890  -30.0120   20.3230 C   0  0  0  0  0  2  0  0  0  0  0  0
  -24.6800  -31.2440   22.2540 N   0  0  0  0  0  0  0  0  0  0  0  0
  -23.5870  -32.3120   23.9250 O   0  0  0  0  0  0  0  0  0  0  0  0
  -22.7300  -29.6640   22.6630 C   0  0  0  0  0  0  0  0  0  0  0  0
  -21.4040  -29.4910   22.5230 N   0  0  0  0  0  0  0  0  0  0  0  0
  -23.4010  -29.0280   23.4830 O   0  0  0  0  0  0  0  0  0  0  0  0
  -20.9250  -30.0600   21.8410 H   0  0  0  0  0  0  0  0  0  0  0  0
  -18.0290  -28.2710   22.9470 C   0  0  0  0  0  0  0  0  0  0  0  0
  -20.5740  -28.5520   23.2820 C   0  0  0  0  0  3  0  0  0  0  0  0
  -20.7000  -27.1130   22.7300 C   0  0  0  0  0  2  0  0  0  0  0  0
  -19.6320  -26.7700   21.6890 C   0  0  0  0  0  2  0  0  0  0  0  0
  -18.2300  -26.9150   22.2890 C   0  0  0  0  0  2  0  0  0  0  0  0
  -19.1280  -29.0470   23.4000 C   0  0  0  0  0  0  0  0  0  0  0  0
  -18.8850  -30.3130   23.9720 C   0  0  0  0  0  3  0  0  0  0  0  0
  -17.5720  -30.8050   24.0980 C   0  0  0  0  0  3  0  0  0  0  0  0
  -16.4860  -30.0270   23.6630 C   0  0  0  0  0  3  0  0  0  0  0  0
  -16.7130  -28.7630   23.0920 C   0  0  0  0  0  3  0  0  0  0  0  0
  -25.9640  -32.6120   23.9910 C   0  0  0  0  0  3  0  0  0  0  0  0
  -25.6980  -34.0100   24.3560 N   0  0  0  0  0  0  0  0  0  0  0  0
  -26.0530  -35.0700   23.6190 C   0  0  0  0  0  0  0  0  0  0  0  0
  -26.7140  -34.9740   22.5820 O   0  0  0  0  0  0  0  0  0  0  0  0
  -25.1390  -34.1670   25.1820 H   0  0  0  0  0  0  0  0  0  0  0  0
  -24.3850  -36.9190   23.3040 C   0  0  0  0  0  1  0  0  0  0  0  0
  -25.6060  -36.4580   24.1140 C   0  0  0  0  0  3  0  0  0  0  0  0
  -27.7680  -37.2480   24.9720 C   0  0  0  0  0  1  0  0  0  0  0  0
  -26.6660  -37.4830   24.0420 N   0  0  0  0  0  0  0  0  0  0  0  0
  -26.2860  -38.4050   24.2320 H   0  0  0  0  0  0  0  0  0  0  0  0
  -26.4860  -31.8030   25.2410 C   0  0  1  0  0  0  0  0  0  0  0  0
  -25.4040  -31.5640   26.3210 C   0  0  0  0  0  1  0  0  0  0  0  0
  -27.0320  -30.4230   24.8030 C   0  0  0  0  0  1  0  0  0  0  0  0
  -27.6620  -32.5610   25.9030 C   0  0  0  0  0  1  0  0  0  0  0  0
  1  7  2  0
  2  4  1  0
  2  6  1  0
  3  1  1  0
  3  8  1  0
  4  5  1  0
  4  3  1  0
  6 53  1  0
  6  1  1  0
  8 13  1  0
 10  9  2  0
 11  9  1  0
 12 13  2  0
 12 14  1  0
 13 10  1  0
 14 11  2  0
 15 23  1  0
 16 21  1  0
 17 18  1  0
 17 16  1  0
 19 18  1  0
 19 28  1  0
 19 20  1  0
 21 15  1  0
 21 20  1  0
 22 15  2  0
 23 14  1  0
 23 24  1  0
 25 26  2  0
 26 45  1  0
 27 26  1  0
 27 30  1  0
 28 25  1  0
 28 29  1  0
 29 27  2  0
 30 31  1  0
 31 32  2  0
 33 36  1  0
 33 32  1  0
 34 33  2  0
 35 34  1  0
 35 30  2  0
 36 37  1  0
 37 42  2  0
 37 38  1  0
 38 39  2  0
 40 39  1  0
 40 44  1  0
 41 40  2  0
 42 41  1  0
 43 42  1  0
 45 46  1  0
 46 49  1  0
 46 48  1  0
 47 45  2  0
 50 51  1  0
 50 25  1  0
 52 50  1  0
 54 53  1  0
 55 54  1  0
 55 56  1  0
 56 58  1  0
 57 68  2  0
 58 63  1  0
 59 67  1  0
 59 69  1  0
 60 66  1  0
 60 62  1  0
 61 67  1  0
 62 61  1  0
 63 62  2  0
 64 65  1  0
 64 58  2  0
 65 60  2  0
 66 59  1  0
 67 57  1  0
 69 71  2  0
 70 69  1  0
 72 70  1  0
 73 82  2  0
 73 78  1  0
 74 70  1  0
 74 78  1  0
 75 74  1  0
 76 77  1  0
 76 75  1  0
 77 73  1  0
 78 79  2  0
 79 80  1  0
 81 80  2  0
 82 81  1  0
 83 57  1  0
 83 84  1  0
 83 93  1  0
 84 87  1  0
 85 89  1  0
 85 84  1  0
 86 85  2  0
 89 88  1  0
 91 89  1  0
 91 92  1  0
 91 90  1  0
 93 96  1  1
 93 94  1  0
 95 93  1  0
M  ISO  4  15 100  23 100  55 101  56 101
M  END
>  <TORSDO>  (75) 
F 21

>  <SCORE>  (75) 
-11.854

>  <name>  (75) 
74

>  <ligand_id>  (75) 
74

>  <original_smiles>  (75) 
[H]c1c([H])c([H])c2c(c1[H])C([H])([H])C([H])([H])C([H])([H])C2([H])N([H])C(=O)C1([H])N(C(=O)C([H])(N([H])C(=O)C([H])(N([H])C([H])([H])[H])C([H])([H])[H])C(C([H])([H])[H])(C([H])([H])[H])C([H])([H])[H])C([H])([H])c2c([H])c(OC([H])([H])C([H])([H])C([H])([H])N3C(=O)C([H])(C([H])([H])c4c([H])c([H])c([H])c(N([H])C(=O)N5C([H])([H])C([H])([H])C([H])([H])C([H])(n6nc(-c7c([H])c([H])c(Oc8c([H])c([H])c(F)c([H])c8F)c([H])c7[H])c(C(=O)N([H])[H])c6N([H])[H])C5([H])[H])c4[H])C([H])(C([H])([H])[H])C3([H])[H])c([H])c([H])c2C1([H])[H]

>  <smiles>  (75) 
[H]c1c([H])c([H])c2c(c1[H])C([H])([H])C([H])([H])C([H])([H])C2([H])N([H])C(=O)C1([H])N(C(=O)C([H])(N([H])C(=O)C([H])(N([H])C([H])([H])[H])C([H])([H])[H])C(C([H])([H])[H])(C([H])([H])[H])C([H])([H])[H])C([H])([H])c2c([H])c(OC([H])([H])C([H])([H])C([H])([H])N3C(=O)C([H])(C([H])([H])c4c([H])c([H])c([H])c(N([H])C(=O)N5C([H])([H])C([H])([H])C([H])([H])C([H])(n6nc(-c7c([H])c([H])c(Oc8c([H])c([H])c(F)c([H])c8F)c([H])c7[H])c(C(=O)N([H])[H])c6N([H])[H])C5([H])[H])c4[H])C([H])(C([H])([H])[H])C3([H])[H])c([H])c([H])c2C1([H])[H]

$$$$
75:0:0
     RDKit          3D

 94102  0  0  1  0  0  0  0  0999 V2000
  -30.8690  -22.0500   21.0260 C   0  0  0  0  0  3  0  0  0  0  0  0
  -30.9670  -23.3840   21.2420 C   0  0  0  0  0  3  0  0  0  0  0  0
  -30.1900  -25.6780   21.0770 C   0  0  0  0  0  3  0  0  0  0  0  0
  -29.8970  -24.3560   20.9810 C   0  0  0  0  0  0  0  0  0  0  0  0
  -28.4920  -23.8540   20.6700 C   0  0  0  0  0  1  0  0  0  0  0  0
  -29.2900  -26.9160   20.9430 C   0  0  0  0  0  2  0  0  0  0  0  0
  -28.2300  -26.7720   20.0020 O   0  0  0  0  0  0  0  0  0  0  0  0
  -24.5110  -31.9760   23.2830 C   0  0  0  0  0  0  0  0  0  0  0  0
  -27.1090  -27.5710   20.1080 C   0  0  0  0  0  0  0  0  0  0  0  0
  -23.2660  -30.5810   21.6620 C   0  0  0  0  0  3  0  0  0  0  0  0
  -24.6940  -29.0520   20.1980 C   0  0  0  0  0  0  0  0  0  0  0  0
  -25.7830  -30.9510   21.4010 C   0  0  0  0  0  2  0  0  0  0  0  0
  -25.8620  -29.5800   20.7640 C   0  0  0  0  0  0  0  0  0  0  0  0
  -27.0720  -28.8460   20.7270 C   0  0  0  0  0  3  0  0  0  0  0  0
  -25.9250  -27.0640   19.5360 C   0  0  0  0  0  3  0  0  0  0  0  0
  -24.7170  -27.7880   19.5850 C   0  0  0  0  0  3  0  0  0  0  0  0
  -23.4460  -29.9050   20.2760 C   0  0  0  0  0  2  0  0  0  0  0  0
  -24.5410  -31.1830   22.1750 N   0  0  0  0  0  0  0  0  0  0  0  0
  -23.4420  -32.2460   23.8500 O   0  0  0  0  0  0  0  0  0  0  0  0
  -22.6390  -29.5560   22.6320 C   0  0  0  0  0  0  0  0  0  0  0  0
  -21.3210  -29.3330   22.4980 N   0  0  0  0  0  0  0  0  0  0  0  0
  -23.3350  -28.9630   23.4610 O   0  0  0  0  0  0  0  0  0  0  0  0
  -20.8220  -29.8630   21.7970 H   0  0  0  0  0  0  0  0  0  0  0  0
  -17.9920  -27.9970   22.9340 C   0  0  0  0  0  0  0  0  0  0  0  0
  -20.5270  -28.3820   23.2740 C   0  0  0  0  0  3  0  0  0  0  0  0
  -20.7120  -26.9420   22.7430 C   0  0  0  0  0  2  0  0  0  0  0  0
  -19.6560  -26.5390   21.7080 C   0  0  0  0  0  2  0  0  0  0  0  0
  -18.2510  -26.6380   22.3090 C   0  0  0  0  0  2  0  0  0  0  0  0
  -19.0620  -28.8220   23.3730 C   0  0  0  0  0  0  0  0  0  0  0  0
  -18.7700  -30.0910   23.9160 C   0  0  0  0  0  3  0  0  0  0  0  0
  -17.4410  -30.5400   24.0260 C   0  0  0  0  0  3  0  0  0  0  0  0
  -16.3830  -29.7130   23.6070 C   0  0  0  0  0  3  0  0  0  0  0  0
  -16.6600  -28.4440   23.0670 C   0  0  0  0  0  3  0  0  0  0  0  0
  -25.8110  -32.6030   23.8760 C   0  0  0  0  0  3  0  0  0  0  0  0
  -26.3410  -31.8440   25.1550 C   0  0  1  0  0  0  0  0  0  0  0  0
  -25.2620  -31.6300   26.2430 C   0  0  0  0  0  1  0  0  0  0  0  0
  -26.9050  -30.4560   24.7710 C   0  0  0  0  0  1  0  0  0  0  0  0
  -27.5110  -32.6350   25.7870 C   0  0  0  0  0  1  0  0  0  0  0  0
  -25.5260  -34.0100   24.1830 N   0  0  0  0  0  0  0  0  0  0  0  0
  -25.8450  -35.0430   23.3920 C   0  0  0  0  0  0  0  0  0  0  0  0
  -26.4890  -34.9110   22.3460 O   0  0  0  0  0  0  0  0  0  0  0  0
  -24.9530  -34.1870   24.9970 H   0  0  0  0  0  0  0  0  0  0  0  0
  -24.1190  -36.8380   23.0420 C   0  0  0  0  0  1  0  0  0  0  0  0
  -25.3810  -36.4440   23.8290 C   0  0  0  0  0  3  0  0  0  0  0  0
  -27.5430  -37.3350   24.5750 C   0  0  0  0  0  1  0  0  0  0  0  0
  -26.4140  -37.4900   23.6620 N   0  0  0  0  0  0  0  0  0  0  0  0
  -26.0170  -38.4160   23.8040 H   0  0  0  0  0  0  0  0  0  0  0  0
  -31.9300  -21.0750   21.4010 C   0  0  0  0  0  0  0  0  0  0  0  0
  -33.0540  -21.4680   21.7270 O   0  0  0  0  0  0  0  0  0  0  0  0
  -30.2630  -19.1900   21.7300 C   0  0  0  0  0  3  0  0  0  0  0  0
  -29.8400  -17.8460   21.6310 C   0  0  0  0  0  3  0  0  0  0  0  0
  -32.0490  -17.2290   20.8740 C   0  0  0  0  0  3  0  0  0  0  0  0
  -31.5720  -19.5990   21.3630 C   0  0  0  0  0  0  0  0  0  0  0  0
  -32.4850  -18.5740   20.9630 C   0  0  0  0  0  0  0  0  0  0  0  0
  -30.7120  -16.8490   21.1480 C   0  0  0  0  0  0  0  0  0  0  0  0
  -33.9400  -18.8490   20.6020 C   0  0  0  0  0  1  0  0  0  0  0  0
  -30.7000  -14.5600   20.1390 C   0  0  0  0  0  0  0  0  0  0  0  0
  -30.2510  -12.4700   18.9020 C   0  0  0  0  0  2  0  0  0  0  0  0
  -29.2350  -12.7200   17.7710 C   0  0  0  0  0  2  0  0  0  0  0  0
  -27.7970  -12.5510   18.2930 C   0  0  0  0  0  2  0  0  0  0  0  0
  -27.5450  -13.3480   19.6000 C   0  0  0  0  0  3  0  0  0  0  0  0
  -28.6720  -13.1100   20.6320 C   0  0  0  0  0  2  0  0  0  0  0  0
  -29.9630  -13.4210   19.9930 N   0  0  0  0  0  0  0  0  0  0  0  0
  -31.7310  -14.7430   19.4900 O   0  0  0  0  0  0  0  0  0  0  0  0
  -30.2160  -15.5100   20.9740 N   0  0  0  0  0  0  0  0  0  0  0  0
  -29.3170  -15.3040   21.3830 H   0  0  0  0  0  0  0  0  0  0  0  0
  -25.1990  -13.9190   20.4850 C   0  0  0  0  0  0  0  0  0  0  0  0
  -24.1560  -13.1300   20.8910 C   0  0  0  0  0  0  0  0  0  0  0  0
  -24.6130  -11.7810   20.7760 C   0  0  0  0  0  0  0  0  0  0  0  0
  -26.2270  -13.0500   20.1550 N   0  0  0  0  0  0  0  0  0  0  0  0
  -25.8820  -11.7560   20.3840 N   0  0  0  0  0  0  0  0  0  0  0  0
  -23.8990  -10.5110   20.9640 C   0  0  0  0  0  0  0  0  0  0  0  0
  -24.3490   -9.5400   21.8880 C   0  0  0  0  0  3  0  0  0  0  0  0
  -23.6360   -8.3350   22.0640 C   0  0  0  0  0  3  0  0  0  0  0  0
  -22.4570   -8.0910   21.3190 C   0  0  0  0  0  0  0  0  0  0  0  0
  -22.0260   -9.0510   20.3860 C   0  0  0  0  0  3  0  0  0  0  0  0
  -22.7410  -10.2480   20.2060 C   0  0  0  0  0  3  0  0  0  0  0  0
  -21.7140   -6.9390   21.4060 O   0  0  0  0  0  0  0  0  0  0  0  0
  -21.6280   -6.2220   22.5730 C   0  0  0  0  0  0  0  0  0  0  0  0
  -21.1340   -6.7960   23.7650 C   0  0  0  0  0  3  0  0  0  0  0  0
  -20.9980   -6.0040   24.9230 C   0  0  0  0  0  3  0  0  0  0  0  0
  -21.3450   -4.6410   24.8900 C   0  0  0  0  0  0  0  0  0  0  0  0
  -21.8330   -4.0670   23.7020 C   0  0  0  0  0  3  0  0  0  0  0  0
  -21.9710   -4.8550   22.5460 C   0  0  0  0  0  0  0  0  0  0  0  0
  -22.4200   -4.2920   21.4000 F   0  0  0  0  0  0  0  0  0  0  0  0
  -21.2090   -3.8780   26.0000 F   0  0  0  0  0  0  0  0  0  0  0  0
  -22.7800  -13.5930   21.2720 C   0  0  0  0  0  0  0  0  0  0  0  0
  -22.1070  -12.8630   22.1550 N   0  0  0  0  0  0  0  0  0  0  0  0
  -22.3100  -14.6380   20.8220 O   0  0  0  0  0  0  0  0  0  0  0  0
  -22.4970  -12.0150   22.5370 H   0  0  0  0  0  0  0  0  0  0  0  0
  -21.1880  -13.1590   22.4530 H   0  0  0  0  0  0  0  0  0  0  0  0
  -25.3580  -15.2940   20.3550 N   0  0  0  0  0  0  0  0  0  0  0  0
  -24.6080  -15.9510   20.5400 H   0  0  0  0  0  0  0  0  0  0  0  0
  -26.2040  -15.7430   20.0260 H   0  0  0  0  0  0  0  0  0  0  0  0
  1  2  2  0
  1 48  1  0
  4  3  2  0
  4  2  1  0
  5  4  1  0
  6  3  1  0
  7  9  1  0
  7  6  1  0
  8 19  2  0
  9 14  1  0
 10 18  1  0
 10 20  1  0
 11 17  1  0
 11 13  1  0
 12 18  1  0
 13 12  1  0
 14 13  2  0
 15 16  1  0
 15  9  2  0
 16 11  2  0
 17 10  1  0
 18  8  1  0
 20 22  2  0
 21 20  1  0
 23 21  1  0
 24 33  2  0
 24 29  1  0
 25 21  1  0
 25 29  1  0
 26 25  1  0
 27 28  1  0
 27 26  1  0
 28 24  1  0
 29 30  2  0
 30 31  1  0
 32 31  2  0
 33 32  1  0
 34  8  1  0
 34 39  1  0
 34 35  1  0
 35 38  1  1
 35 36  1  0
 37 35  1  0
 39 42  1  0
 40 44  1  0
 40 39  1  0
 41 40  2  0
 44 43  1  0
 46 47  1  0
 46 44  1  0
 46 45  1  0
 48 49  2  0
 51 50  1  0
 52 54  2  0
 52 55  1  0
 53 48  1  0
 53 50  2  0
 54 53  1  0
 55 51  2  0
 56 54  1  0
 57 65  1  0
 58 63  1  0
 59 60  1  0
 59 58  1  0
 61 60  1  0
 61 70  1  0
 61 62  1  0
 63 57  1  0
 63 62  1  0
 64 57  2  0
 65 55  1  0
 65 66  1  0
 67 68  2  0
 68 87  1  0
 69 68  1  0
 69 72  1  0
 70 71  1  0
 70 67  1  0
 71 69  2  0
 72 73  1  0
 73 74  2  0
 75 78  1  0
 75 74  1  0
 76 75  2  0
 77 76  1  0
 77 72  2  0
 78 79  1  0
 79 80  1  0
 80 81  2  0
 82 81  1  0
 82 86  1  0
 83 82  2  0
 84 79  2  0
 84 83  1  0
 85 84  1  0
 87 88  1  0
 88 91  1  0
 88 90  1  0
 89 87  2  0
 92 67  1  0
 92 93  1  0
 94 92  1  0
M  ISO  4   6 101   7 101  57 100  65 100
M  END
>  <TORSDO>  (76) 
F 20

>  <SCORE>  (76) 
-13.374

>  <name>  (76) 
75

>  <ligand_id>  (76) 
75

>  <original_smiles>  (76) 
[H]C(C(=O)c1c([H])c([H])c(N([H])C(=O)N2C([H])([H])C([H])([H])C([H])([H])C([H])(n3nc(-c4c([H])c([H])c(Oc5c([H])c([H])c(F)c([H])c5F)c([H])c4[H])c(C(=O)N([H])[H])c3N([H])[H])C2([H])[H])c([H])c1C([H])([H])[H])=C([H])C(=C([H])C([H])([H])Oc1c([H])c([H])c2c(c1[H])C([H])([H])N(C(=O)C([H])(N([H])C(=O)C([H])(N([H])C([H])([H])[H])C([H])([H])[H])C(C([H])([H])[H])(C([H])([H])[H])C([H])([H])[H])C([H])(C(=O)N([H])C1([H])c3c([H])c([H])c([H])c([H])c3C([H])([H])C([H])([H])C1([H])[H])C2([H])[H])C([H])([H])[H]

>  <smiles>  (76) 
[H]C(C(=O)c1c([H])c([H])c(N([H])C(=O)N2C([H])([H])C([H])([H])C([H])([H])C([H])(n3nc(-c4c([H])c([H])c(Oc5c([H])c([H])c(F)c([H])c5F)c([H])c4[H])c(C(=O)N([H])[H])c3N([H])[H])C2([H])[H])c([H])c1C([H])([H])[H])=C([H])C(=C([H])C([H])([H])Oc1c([H])c([H])c2c(c1[H])C([H])([H])N(C(=O)C([H])(N([H])C(=O)C([H])(N([H])C([H])([H])[H])C([H])([H])[H])C(C([H])([H])[H])(C([H])([H])[H])C([H])([H])[H])C([H])(C(=O)N([H])C1([H])c3c([H])c([H])c([H])c([H])c3C([H])([H])C([H])([H])C1([H])[H])C2([H])[H])C([H])([H])[H]

$$$$
76:0:0
     RDKit          3D

 91 99  0  0  1  0  0  0  0  0999 V2000
  -28.8420  -22.7770   22.3960 C   0  0  0  0  0  1  0  0  0  0  0  0
  -27.2330  -22.2110   20.5540 C   0  0  0  0  0  1  0  0  0  0  0  0
  -28.6590  -22.7130   20.8610 C   0  0  1  0  0  0  0  0  0  0  0  0
  -28.8930  -24.1490   20.2340 C   0  0  0  0  0  3  0  0  0  0  0  0
  -28.1550  -25.3590   20.8990 C   0  0  0  0  0  3  0  0  0  0  0  0
  -28.3990  -26.6560   20.2770 O   0  0  0  0  0  0  0  0  0  0  0  0
  -24.6400  -31.9310   23.2760 C   0  0  0  0  0  0  0  0  0  0  0  0
  -27.2840  -27.4700   20.2100 C   0  0  0  0  0  0  0  0  0  0  0  0
  -23.4460  -30.5310   21.6250 C   0  0  0  0  0  3  0  0  0  0  0  0
  -24.9060  -29.0070   20.1970 C   0  0  0  0  0  0  0  0  0  0  0  0
  -25.9710  -30.8970   21.4310 C   0  0  0  0  0  2  0  0  0  0  0  0
  -26.0660  -29.5280   20.7850 C   0  0  0  0  0  0  0  0  0  0  0  0
  -27.2670  -28.7710   20.7760 C   0  0  0  0  0  3  0  0  0  0  0  0
  -26.1150  -26.9850   19.5900 C   0  0  0  0  0  3  0  0  0  0  0  0
  -24.9280  -27.7400   19.5930 C   0  0  0  0  0  3  0  0  0  0  0  0
  -23.6600  -29.8610   20.2420 C   0  0  0  0  0  2  0  0  0  0  0  0
  -24.7040  -31.1340   22.1700 N   0  0  0  0  0  0  0  0  0  0  0  0
  -23.5600  -32.1910   23.8210 O   0  0  0  0  0  0  0  0  0  0  0  0
  -22.7960  -29.5050   22.5840 C   0  0  0  0  0  0  0  0  0  0  0  0
  -21.4730  -29.3120   22.4550 N   0  0  0  0  0  0  0  0  0  0  0  0
  -23.4810  -28.8880   23.4030 O   0  0  0  0  0  0  0  0  0  0  0  0
  -20.9800  -29.8570   21.7620 H   0  0  0  0  0  0  0  0  0  0  0  0
  -18.1140  -28.0710   22.9500 C   0  0  0  0  0  0  0  0  0  0  0  0
  -20.6680  -28.3670   23.2290 C   0  0  0  0  0  3  0  0  0  0  0  0
  -20.7910  -26.9340   22.6630 C   0  0  0  0  0  2  0  0  0  0  0  0
  -19.6990  -26.5890   21.6460 C   0  0  0  0  0  2  0  0  0  0  0  0
  -18.3130  -26.7200   22.2840 C   0  0  0  0  0  2  0  0  0  0  0  0
  -19.2200  -28.8480   23.3840 C   0  0  0  0  0  0  0  0  0  0  0  0
  -18.9810  -30.1080   23.9740 C   0  0  0  0  0  3  0  0  0  0  0  0
  -17.6680  -30.5900   24.1390 C   0  0  0  0  0  3  0  0  0  0  0  0
  -16.5770  -29.8070   23.7190 C   0  0  0  0  0  3  0  0  0  0  0  0
  -16.8010  -28.5520   23.1270 C   0  0  0  0  0  3  0  0  0  0  0  0
  -25.9200  -32.5740   23.8980 C   0  0  0  0  0  3  0  0  0  0  0  0
  -25.5990  -33.9690   24.2240 N   0  0  0  0  0  0  0  0  0  0  0  0
  -25.9180  -35.0230   23.4610 C   0  0  0  0  0  0  0  0  0  0  0  0
  -26.5900  -34.9220   22.4310 O   0  0  0  0  0  0  0  0  0  0  0  0
  -25.0060  -34.1230   25.0270 H   0  0  0  0  0  0  0  0  0  0  0  0
  -24.1820  -36.8070   23.1050 C   0  0  0  0  0  1  0  0  0  0  0  0
  -25.4230  -36.4080   23.9170 C   0  0  0  0  0  3  0  0  0  0  0  0
  -27.5520  -37.3160   24.7420 C   0  0  0  0  0  1  0  0  0  0  0  0
  -26.4470  -37.4690   23.7980 N   0  0  0  0  0  0  0  0  0  0  0  0
  -26.0330  -38.3870   23.9420 H   0  0  0  0  0  0  0  0  0  0  0  0
  -26.4450  -31.8080   25.1760 C   0  0  1  0  0  0  0  0  0  0  0  0
  -25.3590  -31.5670   26.2500 C   0  0  0  0  0  1  0  0  0  0  0  0
  -27.0350  -30.4320   24.7880 C   0  0  0  0  0  1  0  0  0  0  0  0
  -27.5860  -32.6140   25.8410 C   0  0  0  0  0  1  0  0  0  0  0  0
  -29.6850  -21.6970   20.2400 C   0  0  0  0  0  2  0  0  0  0  0  0
  -30.4160  -19.3850   21.2310 C   0  0  0  0  0  0  0  0  0  0  0  0
  -28.6450  -19.1590   20.1710 C   0  0  0  0  0  2  0  0  0  0  0  0
  -29.4780  -18.1610   21.0070 C   0  0  0  0  0  3  0  0  0  0  0  0
  -29.5490  -20.2590   20.6080 N   0  0  0  0  0  0  0  0  0  0  0  0
  -31.5120  -19.5850   21.7240 O   0  0  0  0  0  0  0  0  0  0  0  0
  -30.1440  -16.9370   20.2910 C   0  0  0  0  0  0  0  0  0  0  0  0
  -30.9980  -17.3220   19.0680 C   0  0  0  0  0  1  0  0  0  0  0  0
  -29.9820  -15.7260   20.7560 N   0  0  0  0  0  0  0  0  0  0  0  0
  -30.7030  -14.6290   20.2360 C   0  0  0  0  0  0  0  0  0  0  0  0
  -30.3670  -12.4640   19.0870 C   0  0  0  0  0  2  0  0  0  0  0  0
  -29.3960  -12.6640   17.9020 C   0  0  0  0  0  2  0  0  0  0  0  0
  -27.9360  -12.5120   18.3710 C   0  0  0  0  0  2  0  0  0  0  0  0
  -27.6250  -13.3460   19.6410 C   0  0  0  0  0  3  0  0  0  0  0  0
  -28.7060  -13.1390   20.7170 C   0  0  0  0  0  2  0  0  0  0  0  0
  -30.0140  -13.4550   20.1200 N   0  0  0  0  0  0  0  0  0  0  0  0
  -31.8490  -14.7080   19.7890 O   0  0  0  0  0  0  0  0  0  0  0  0
  -25.2490  -13.9430   20.4240 C   0  0  0  0  0  0  0  0  0  0  0  0
  -24.1940  -13.1670   20.8200 C   0  0  0  0  0  0  0  0  0  0  0  0
  -24.6590  -11.8150   20.7760 C   0  0  0  0  0  0  0  0  0  0  0  0
  -26.2890  -13.0650   20.1580 N   0  0  0  0  0  0  0  0  0  0  0  0
  -25.9390  -11.7820   20.4280 N   0  0  0  0  0  0  0  0  0  0  0  0
  -23.9430  -10.5500   20.9850 C   0  0  0  0  0  0  0  0  0  0  0  0
  -24.4030   -9.5850   21.9100 C   0  0  0  0  0  3  0  0  0  0  0  0
  -23.6830   -8.3870   22.1060 C   0  0  0  0  0  3  0  0  0  0  0  0
  -22.4930   -8.1450   21.3800 C   0  0  0  0  0  0  0  0  0  0  0  0
  -22.0510   -9.1000   20.4480 C   0  0  0  0  0  3  0  0  0  0  0  0
  -22.7700  -10.2900   20.2470 C   0  0  0  0  0  3  0  0  0  0  0  0
  -21.7440   -6.9970   21.4860 O   0  0  0  0  0  0  0  0  0  0  0  0
  -21.7240   -6.2550   22.6410 C   0  0  0  0  0  0  0  0  0  0  0  0
  -21.3330   -6.8130   23.8790 C   0  0  0  0  0  3  0  0  0  0  0  0
  -21.2620   -5.9990   25.0250 C   0  0  0  0  0  3  0  0  0  0  0  0
  -21.5690   -4.6280   24.9360 C   0  0  0  0  0  0  0  0  0  0  0  0
  -21.9540   -4.0700   23.7040 C   0  0  0  0  0  3  0  0  0  0  0  0
  -22.0280   -4.8820   22.5590 C   0  0  0  0  0  0  0  0  0  0  0  0
  -22.3770   -4.3370   21.3690 F   0  0  0  0  0  0  0  0  0  0  0  0
  -21.4950   -3.8410   26.0370 F   0  0  0  0  0  0  0  0  0  0  0  0
  -22.8030  -13.6390   21.1290 C   0  0  0  0  0  0  0  0  0  0  0  0
  -22.1040  -12.9440   22.0180 N   0  0  0  0  0  0  0  0  0  0  0  0
  -22.3480  -14.6620   20.6210 O   0  0  0  0  0  0  0  0  0  0  0  0
  -22.4860  -12.1140   22.4480 H   0  0  0  0  0  0  0  0  0  0  0  0
  -21.1740  -13.2440   22.2720 H   0  0  0  0  0  0  0  0  0  0  0  0
  -25.4070  -15.3140   20.2460 N   0  0  0  0  0  0  0  0  0  0  0  0
  -24.6430  -15.9670   20.3760 H   0  0  0  0  0  0  0  0  0  0  0  0
  -26.2620  -15.7530   19.9280 H   0  0  0  0  0  0  0  0  0  0  0  0
  3  2  1  1
  3  1  1  0
  4  3  1  0
  4  5  2  0
  6  5  1  0
  7 18  2  0
  8  6  1  0
  8 13  1  0
  9 17  1  0
  9 19  1  0
 10 16  1  0
 10 12  1  0
 11 17  1  0
 12 11  1  0
 13 12  2  0
 14 15  1  0
 14  8  2  0
 15 10  2  0
 16  9  1  0
 17  7  1  0
 19 21  2  0
 20 19  1  0
 22 20  1  0
 23 32  2  0
 23 28  1  0
 24 20  1  0
 24 28  1  0
 25 24  1  0
 26 27  1  0
 26 25  1  0
 27 23  1  0
 28 29  2  0
 29 30  1  0
 31 30  2  0
 32 31  1  0
 33  7  1  0
 33 34  1  0
 33 43  1  0
 34 37  1  0
 35 39  1  0
 35 34  1  0
 36 35  2  0
 39 38  1  0
 41 39  1  0
 41 42  1  0
 41 40  1  0
 43 46  1  1
 43 44  1  0
 45 43  1  0
 47 51  1  0
 47  3  1  0
 48 52  2  0
 49 51  1  0
 49 50  1  0
 50 53  1  0
 50 48  1  0
 51 48  1  0
 53 55  2  0
 54 53  1  0
 56 55  1  0
 57 62  1  0
 58 59  1  0
 58 57  1  0
 60 59  1  0
 60 67  1  0
 60 61  1  0
 62 56  1  0
 62 61  1  0
 63 56  2  0
 64 65  2  0
 65 84  1  0
 66 65  1  0
 66 69  1  0
 67 64  1  0
 67 68  1  0
 68 66  2  0
 69 70  1  0
 70 71  2  0
 72 75  1  0
 72 71  1  0
 73 72  2  0
 74 73  1  0
 74 69  2  0
 75 76  1  0
 76 77  1  0
 77 78  2  0
 79 78  1  0
 79 83  1  0
 80 79  2  0
 81 76  2  0
 81 80  1  0
 82 81  1  0
 84 85  1  0
 85 88  1  0
 85 87  1  0
 86 84  2  0
 89 90  1  0
 89 64  1  0
 91 89  1  0
M  ISO  4   5 101   6 101  55 100  56 100
M  END
>  <TORSDO>  (77) 
F 21

>  <SCORE>  (77) 
-13.456

>  <name>  (77) 
76

>  <ligand_id>  (77) 
76

>  <original_smiles>  (77) 
[H]c1c([H])c([H])c2c(c1[H])C([H])([H])C([H])([H])C([H])([H])C2([H])N([H])C(=O)C1([H])N(C(=O)C([H])(N([H])C(=O)C([H])(N([H])C([H])([H])[H])C([H])([H])[H])C(C([H])([H])[H])(C([H])([H])[H])C([H])([H])[H])C([H])([H])c2c([H])c(OC([H])([H])C([H])([H])C(C([H])([H])[H])(C([H])([H])[H])C([H])([H])N3C(=O)C([H])(C(=NC(=O)N4C([H])([H])C([H])([H])C([H])([H])C([H])(n5nc(-c6c([H])c([H])c(Oc7c([H])c([H])c(F)c([H])c7F)c([H])c6[H])c(C(=O)N([H])[H])c5N([H])[H])C4([H])[H])C([H])([H])[H])C3([H])[H])c([H])c([H])c2C1([H])[H]

>  <smiles>  (77) 
[H]c1c([H])c([H])c2c(c1[H])C([H])([H])C([H])([H])C([H])([H])C2([H])N([H])C(=O)C1([H])N(C(=O)C([H])(N([H])C(=O)C([H])(N([H])C([H])([H])[H])C([H])([H])[H])C(C([H])([H])[H])(C([H])([H])[H])C([H])([H])[H])C([H])([H])c2c([H])c(OC([H])([H])C([H])([H])C(C([H])([H])[H])(C([H])([H])[H])C([H])([H])N3C(=O)C([H])(C(=NC(=O)N4C([H])([H])C([H])([H])C([H])([H])C([H])(n5nc(-c6c([H])c([H])c(Oc7c([H])c([H])c(F)c([H])c7F)c([H])c6[H])c(C(=O)N([H])[H])c5N([H])[H])C4([H])[H])C([H])([H])[H])C3([H])[H])c([H])c([H])c2C1([H])[H]

$$$$
77:0:0
     RDKit          3D

 98107  0  0  1  0  0  0  0  0999 V2000
  -28.1230  -22.2700   21.2240 C   0  0  0  0  0  2  0  0  0  0  0  0
  -30.0600  -21.3960   21.1470 C   0  0  0  0  0  3  0  0  0  0  0  0
  -29.0730  -21.7010   22.2890 C   0  0  0  0  0  3  0  0  0  0  0  0
  -29.2570  -22.3160   20.2900 N   0  0  0  0  0  0  0  0  0  0  0  0
  -31.3150  -19.1650   21.1330 C   0  0  0  0  0  3  0  0  0  0  0  0
  -29.0790  -19.1850   20.1980 C   0  0  0  0  0  3  0  0  0  0  0  0
  -31.3620  -17.7540   21.0200 C   0  0  0  0  0  3  0  0  0  0  0  0
  -29.1130  -17.7740   20.1090 C   0  0  0  0  0  3  0  0  0  0  0  0
  -30.1620  -19.9020   20.7610 C   0  0  0  0  0  0  0  0  0  0  0  0
  -30.2410  -17.0390   20.5400 C   0  0  0  0  0  0  0  0  0  0  0  0
  -30.9090  -14.6410   20.1310 C   0  0  0  0  0  0  0  0  0  0  0  0
  -30.6670  -12.4180   19.0670 C   0  0  0  0  0  2  0  0  0  0  0  0
  -29.6930  -12.5520   17.8760 C   0  0  0  0  0  2  0  0  0  0  0  0
  -28.2270  -12.4120   18.3360 C   0  0  0  0  0  2  0  0  0  0  0  0
  -27.9010  -13.2950   19.5700 C   0  0  0  0  0  3  0  0  0  0  0  0
  -28.9770  -13.1100   20.6650 C   0  0  0  0  0  2  0  0  0  0  0  0
  -30.2890  -13.4270   20.0680 N   0  0  0  0  0  0  0  0  0  0  0  0
  -32.0250  -14.8540   19.6440 O   0  0  0  0  0  0  0  0  0  0  0  0
  -30.1320  -15.6170   20.6450 N   0  0  0  0  0  0  0  0  0  0  0  0
  -29.2290  -15.2770   20.9350 H   0  0  0  0  0  0  0  0  0  0  0  0
  -25.5290  -13.9320   20.3440 C   0  0  0  0  0  0  0  0  0  0  0  0
  -24.4590  -13.1720   20.7350 C   0  0  0  0  0  0  0  0  0  0  0  0
  -24.9010  -11.8150   20.6830 C   0  0  0  0  0  0  0  0  0  0  0  0
  -26.5560  -13.0380   20.0790 N   0  0  0  0  0  0  0  0  0  0  0  0
  -26.1810  -11.7600   20.3390 N   0  0  0  0  0  0  0  0  0  0  0  0
  -24.1630  -10.5610   20.8840 C   0  0  0  0  0  0  0  0  0  0  0  0
  -24.5640   -9.6170   21.8540 C   0  0  0  0  0  3  0  0  0  0  0  0
  -23.8290   -8.4270   22.0410 C   0  0  0  0  0  3  0  0  0  0  0  0
  -22.6780   -8.1730   21.2570 C   0  0  0  0  0  0  0  0  0  0  0  0
  -22.2970   -9.1050   20.2760 C   0  0  0  0  0  3  0  0  0  0  0  0
  -23.0330  -10.2870   20.0880 C   0  0  0  0  0  3  0  0  0  0  0  0
  -21.9180   -7.0340   21.3520 O   0  0  0  0  0  0  0  0  0  0  0  0
  -21.7820   -6.3540   22.5360 C   0  0  0  0  0  0  0  0  0  0  0  0
  -21.2460   -6.9670   23.6910 C   0  0  0  0  0  3  0  0  0  0  0  0
  -21.0620   -6.2120   24.8650 C   0  0  0  0  0  3  0  0  0  0  0  0
  -21.4020   -4.8470   24.8880 C   0  0  0  0  0  0  0  0  0  0  0  0
  -21.9300   -4.2340   23.7380 C   0  0  0  0  0  3  0  0  0  0  0  0
  -22.1170   -4.9850   22.5650 C   0  0  0  0  0  0  0  0  0  0  0  0
  -22.6070   -4.3850   21.4540 F   0  0  0  0  0  0  0  0  0  0  0  0
  -21.2160   -4.1200   26.0140 F   0  0  0  0  0  0  0  0  0  0  0  0
  -23.0770  -13.6670   21.0490 C   0  0  0  0  0  0  0  0  0  0  0  0
  -22.3610  -12.9750   21.9280 N   0  0  0  0  0  0  0  0  0  0  0  0
  -22.6400  -14.7030   20.5510 O   0  0  0  0  0  0  0  0  0  0  0  0
  -22.7240  -12.1350   22.3540 H   0  0  0  0  0  0  0  0  0  0  0  0
  -21.4350  -13.2900   22.1810 H   0  0  0  0  0  0  0  0  0  0  0  0
  -25.7080  -15.3020   20.1750 N   0  0  0  0  0  0  0  0  0  0  0  0
  -24.9550  -15.9650   20.3240 H   0  0  0  0  0  0  0  0  0  0  0  0
  -26.5580  -15.7350   19.8430 H   0  0  0  0  0  0  0  0  0  0  0  0
  -29.5440  -22.7000   23.2740 N   0  0  0  0  0  4  0  0  0  0  0  0
  -29.8260  -23.5560   22.8360 H   0  0  0  0  0  0  0  0  0  0  0  0
  -30.3240  -22.3370   23.7910 H   0  0  0  0  0  0  0  0  0  0  0  0
  -28.8160  -22.9050   23.9350 H   0  0  0  0  0  0  0  0  0  0  0  0
  -29.8120  -23.6920   20.1910 C   0  0  0  0  0  2  0  0  0  0  0  0
  -30.5350  -25.5640   18.6720 C   0  0  0  0  0  1  0  0  0  0  0  0
  -29.3610  -23.6120   17.6900 C   0  0  0  0  0  1  0  0  0  0  0  0
  -29.4120  -24.5360   18.9270 C   0  0  1  0  0  0  0  0  0  0  0  0
  -28.0510  -25.3120   19.0480 C   0  0  0  0  0  2  0  0  0  0  0  0
  -28.1240  -26.6490   19.5940 O   0  0  0  0  0  0  0  0  0  0  0  0
  -24.5710  -31.7740   23.0850 C   0  0  0  0  0  0  0  0  0  0  0  0
  -26.9580  -27.4040   19.6660 C   0  0  0  0  0  0  0  0  0  0  0  0
  -23.2490  -30.4600   21.4620 C   0  0  0  0  0  3  0  0  0  0  0  0
  -24.5910  -28.9650   19.8900 C   0  0  0  0  0  0  0  0  0  0  0  0
  -25.7690  -30.7830   21.1330 C   0  0  0  0  0  2  0  0  0  0  0  0
  -25.7930  -29.4390   20.4280 C   0  0  0  0  0  0  0  0  0  0  0  0
  -26.9760  -28.6660   20.3140 C   0  0  0  0  0  3  0  0  0  0  0  0
  -25.7270  -26.9550   19.1250 C   0  0  0  0  0  3  0  0  0  0  0  0
  -24.5540  -27.7230   19.2370 C   0  0  0  0  0  3  0  0  0  0  0  0
  -23.3670  -29.8400   20.0460 C   0  0  0  0  0  2  0  0  0  0  0  0
  -24.5520  -31.0190   21.9500 N   0  0  0  0  0  0  0  0  0  0  0  0
  -23.5270  -32.0380   23.6980 O   0  0  0  0  0  0  0  0  0  0  0  0
  -22.6380  -29.4070   22.4150 C   0  0  0  0  0  0  0  0  0  0  0  0
  -21.3100  -29.2270   22.3370 N   0  0  0  0  0  0  0  0  0  0  0  0
  -23.3550  -28.7570   23.1810 O   0  0  0  0  0  0  0  0  0  0  0  0
  -20.7900  -29.8030   21.6890 H   0  0  0  0  0  0  0  0  0  0  0  0
  -17.9660  -27.9740   22.9000 C   0  0  0  0  0  0  0  0  0  0  0  0
  -20.5250  -28.2630   23.1120 C   0  0  0  0  0  3  0  0  0  0  0  0
  -20.6330  -26.8440   22.5060 C   0  0  0  0  0  2  0  0  0  0  0  0
  -19.5090  -26.5240   21.5140 C   0  0  0  0  0  2  0  0  0  0  0  0
  -18.1420  -26.6410   22.1950 C   0  0  0  0  0  2  0  0  0  0  0  0
  -19.0840  -28.7440   23.3150 C   0  0  0  0  0  0  0  0  0  0  0  0
  -18.8640  -29.9940   23.9350 C   0  0  0  0  0  3  0  0  0  0  0  0
  -17.5570  -30.4740   24.1420 C   0  0  0  0  0  3  0  0  0  0  0  0
  -16.4530  -29.7010   23.7440 C   0  0  0  0  0  3  0  0  0  0  0  0
  -16.6580  -28.4530   23.1280 C   0  0  0  0  0  3  0  0  0  0  0  0
  -25.9010  -32.3600   23.6540 C   0  0  0  0  0  3  0  0  0  0  0  0
  -25.6340  -33.7450   24.0630 N   0  0  0  0  0  0  0  0  0  0  0  0
  -25.9460  -34.8270   23.3360 C   0  0  0  0  0  0  0  0  0  0  0  0
  -26.5610  -34.7610   22.2690 O   0  0  0  0  0  0  0  0  0  0  0  0
  -25.0860  -33.8720   24.9020 H   0  0  0  0  0  0  0  0  0  0  0  0
  -24.2370  -36.6620   23.1450 C   0  0  0  0  0  1  0  0  0  0  0  0
  -25.5050  -36.2000   23.8810 C   0  0  0  0  0  3  0  0  0  0  0  0
  -27.6880  -37.0120   24.6580 C   0  0  0  0  0  1  0  0  0  0  0  0
  -26.5510  -37.2410   23.7700 N   0  0  0  0  0  0  0  0  0  0  0  0
  -26.1680  -38.1600   23.9730 H   0  0  0  0  0  0  0  0  0  0  0  0
  -26.4830  -31.5260   24.8610 C   0  0  1  0  0  0  0  0  0  0  0  0
  -25.4560  -31.2590   25.9850 C   0  0  0  0  0  1  0  0  0  0  0  0
  -27.0150  -30.1570   24.3730 C   0  0  0  0  0  1  0  0  0  0  0  0
  -27.6880  -32.2710   25.4820 C   0  0  0  0  0  1  0  0  0  0  0  0
  1  3  1  0
  2  9  1  0
  2  3  1  0
  3 49  1  0
  4  2  1  0
  4  1  1  0
  6  9  1  0
  7  5  1  0
  8  6  2  0
  8 10  1  0
  9  5  2  0
 10 19  1  0
 10  7  2  0
 11 19  1  0
 12 17  1  0
 13 14  1  0
 13 12  1  0
 15 14  1  0
 15 24  1  0
 15 16  1  0
 17 11  1  0
 17 16  1  0
 18 11  2  0
 19 20  1  0
 21 22  2  0
 22 41  1  0
 23 22  1  0
 23 26  1  0
 24 25  1  0
 24 21  1  0
 25 23  2  0
 26 27  1  0
 27 28  2  0
 29 32  1  0
 29 28  1  0
 30 29  2  0
 31 30  1  0
 31 26  2  0
 32 33  1  0
 33 38  2  0
 33 34  1  0
 34 35  2  0
 35 36  1  0
 36 40  1  0
 37 36  2  0
 38 37  1  0
 39 38  1  0
 41 42  1  0
 42 45  1  0
 42 44  1  0
 43 41  2  0
 46 47  1  0
 46 21  1  0
 48 46  1  0
 49 51  1  0
 49 52  1  0
 50 49  1  0
 53  4  1  0
 56 54  1  6
 55 56  1  0
 56 57  1  0
 56 53  1  0
 57 58  1  0
 58 60  1  0
 59 70  2  0
 60 65  1  0
 61 69  1  0
 61 71  1  0
 62 68  1  0
 62 64  1  0
 63 69  1  0
 64 63  1  0
 65 64  2  0
 66 67  1  0
 66 60  2  0
 67 62  2  0
 68 61  1  0
 69 59  1  0
 71 73  2  0
 72 71  1  0
 74 72  1  0
 75 84  2  0
 75 80  1  0
 76 72  1  0
 76 80  1  0
 77 76  1  0
 78 79  1  0
 78 77  1  0
 79 75  1  0
 80 81  2  0
 81 82  1  0
 83 82  2  0
 84 83  1  0
 85 59  1  0
 85 86  1  0
 85 95  1  0
 86 89  1  0
 87 91  1  0
 87 86  1  0
 88 87  2  0
 91 90  1  0
 93 91  1  0
 93 94  1  0
 93 92  1  0
 95 98  1  1
 95 96  1  0
 97 95  1  0
M  ISO  4  11 100  19 100  57 101  58 101
M  END
>  <TORSDO>  (78) 
F 21

>  <SCORE>  (78) 
-13.840

>  <name>  (78) 
77

>  <ligand_id>  (78) 
77

>  <original_smiles>  (78) 
[H]c1c([H])c([H])c2c(c1[H])C([H])([H])C([H])([H])C([H])([H])C2([H])N([H])C(=O)C1([H])N(C(=O)C([H])(N([H])C(=O)C([H])(N([H])C([H])([H])[H])C([H])([H])[H])C(C([H])([H])[H])(C([H])([H])[H])C([H])([H])[H])C([H])([H])c2c([H])c(OC([H])([H])C(C([H])([H])[H])(C([H])([H])[H])C([H])([H])N3C([H])([H])C([H])([N+]([H])([H])[H])C3([H])c3c([H])c([H])c(N([H])C(=O)N4C([H])([H])C([H])([H])C([H])([H])C([H])(n5nc(-c6c([H])c([H])c(Oc7c([H])c([H])c(F)c([H])c7F)c([H])c6[H])c(C(=O)N([H])[H])c5N([H])[H])C4([H])[H])c([H])c3[H])c([H])c([H])c2C1([H])[H]

>  <smiles>  (78) 
[H]c1c([H])c([H])c2c(c1[H])C([H])([H])C([H])([H])C([H])([H])C2([H])N([H])C(=O)C1([H])N(C(=O)C([H])(N([H])C(=O)C([H])(N([H])C([H])([H])[H])C([H])([H])[H])C(C([H])([H])[H])(C([H])([H])[H])C([H])([H])[H])C([H])([H])c2c([H])c(OC([H])([H])C(C([H])([H])[H])(C([H])([H])[H])C([H])([H])N3C([H])([H])C([H])([N+]([H])([H])[H])C3([H])c3c([H])c([H])c(N([H])C(=O)N4C([H])([H])C([H])([H])C([H])([H])C([H])(n5nc(-c6c([H])c([H])c(Oc7c([H])c([H])c(F)c([H])c7F)c([H])c6[H])c(C(=O)N([H])[H])c5N([H])[H])C4([H])[H])c([H])c3[H])c([H])c([H])c2C1([H])[H]

$$$$
78:0:0
     RDKit          3D

 97105  0  0  1  0  0  0  0  0999 V2000
  -27.6500  -20.5740   19.9320 C   0  0  0  0  0  3  0  0  0  0  0  0
  -28.7840  -19.9010   20.7740 C   0  0  0  0  0  2  0  0  0  0  0  0
  -29.1470  -18.4370   20.4090 C   0  0  0  0  0  0  0  0  0  0  0  0
  -29.0820  -18.0210   19.2490 O   0  0  0  0  0  0  0  0  0  0  0  0
  -29.6060  -17.4960   21.5300 C   0  0  0  0  0  2  0  0  0  0  0  0
  -30.8260  -14.3490   20.0540 C   0  0  0  0  0  0  0  0  0  0  0  0
  -30.3330  -12.2980   18.7660 C   0  0  0  0  0  2  0  0  0  0  0  0
  -29.3210  -12.5880   17.6420 C   0  0  0  0  0  2  0  0  0  0  0  0
  -27.8780  -12.4640   18.1640 C   0  0  0  0  0  2  0  0  0  0  0  0
  -27.6520  -13.2560   19.4790 C   0  0  0  0  0  3  0  0  0  0  0  0
  -28.7660  -12.9550   20.5050 C   0  0  0  0  0  2  0  0  0  0  0  0
  -30.0660  -13.2350   19.8700 N   0  0  0  0  0  0  0  0  0  0  0  0
  -31.8270  -14.5960   19.3720 O   0  0  0  0  0  0  0  0  0  0  0  0
  -31.3150  -15.5870   22.1060 C   0  0  0  0  0  2  0  0  0  0  0  0
  -30.7650  -16.5760   21.1390 C   0  0  0  0  0  3  0  0  0  0  0  0
  -30.4350  -15.1700   21.0530 N   0  0  0  0  0  0  0  0  0  0  0  0
  -25.3050  -13.8910   20.3230 C   0  0  0  0  0  0  0  0  0  0  0  0
  -24.2510  -13.1320   20.7610 C   0  0  0  0  0  0  0  0  0  0  0  0
  -24.6910  -11.7730   20.6960 C   0  0  0  0  0  0  0  0  0  0  0  0
  -26.3250  -12.9970   20.0340 N   0  0  0  0  0  0  0  0  0  0  0  0
  -25.9600  -11.7180   20.3110 N   0  0  0  0  0  0  0  0  0  0  0  0
  -23.9590  -10.5210   20.9260 C   0  0  0  0  0  0  0  0  0  0  0  0
  -24.4010   -9.5700   21.8730 C   0  0  0  0  0  3  0  0  0  0  0  0
  -23.6700   -8.3820   22.0870 C   0  0  0  0  0  3  0  0  0  0  0  0
  -22.4840   -8.1360   21.3580 C   0  0  0  0  0  0  0  0  0  0  0  0
  -22.0600   -9.0750   20.4010 C   0  0  0  0  0  3  0  0  0  0  0  0
  -22.7910  -10.2550   20.1840 C   0  0  0  0  0  3  0  0  0  0  0  0
  -21.7230   -6.9990   21.4820 O   0  0  0  0  0  0  0  0  0  0  0  0
  -21.6490   -6.3080   22.6660 C   0  0  0  0  0  0  0  0  0  0  0  0
  -21.2100   -6.9210   23.8600 C   0  0  0  0  0  3  0  0  0  0  0  0
  -21.0820   -6.1580   25.0370 C   0  0  0  0  0  3  0  0  0  0  0  0
  -21.3820   -4.7820   25.0210 C   0  0  0  0  0  0  0  0  0  0  0  0
  -21.8150   -4.1690   23.8320 C   0  0  0  0  0  3  0  0  0  0  0  0
  -21.9440   -4.9300   22.6580 C   0  0  0  0  0  0  0  0  0  0  0  0
  -22.3400   -4.3300   21.5090 F   0  0  0  0  0  0  0  0  0  0  0  0
  -21.2520   -4.0470   26.1500 F   0  0  0  0  0  0  0  0  0  0  0  0
  -22.8820  -13.6280   21.1230 C   0  0  0  0  0  0  0  0  0  0  0  0
  -22.2080  -12.9500   22.0480 N   0  0  0  0  0  0  0  0  0  0  0  0
  -22.4210  -14.6530   20.6260 O   0  0  0  0  0  0  0  0  0  0  0  0
  -22.5960  -12.1210   22.4750 H   0  0  0  0  0  0  0  0  0  0  0  0
  -21.2930  -13.2670   22.3340 H   0  0  0  0  0  0  0  0  0  0  0  0
  -25.4740  -15.2590   20.1240 N   0  0  0  0  0  0  0  0  0  0  0  0
  -24.7020  -15.9110   20.2050 H   0  0  0  0  0  0  0  0  0  0  0  0
  -26.3020  -15.6720   19.7130 H   0  0  0  0  0  0  0  0  0  0  0  0
  -27.1720  -21.9600   20.4590 C   0  0  0  0  0  2  0  0  0  0  0  0
  -28.2330  -22.9960   20.5980 N   0  0  0  0  0  4  0  0  0  0  0  0
  -28.4590  -23.0490   21.5780 H   0  0  0  0  0  0  0  0  0  0  0  0
  -29.0640  -22.7110   20.1060 H   0  0  0  0  0  0  0  0  0  0  0  0
  -27.8320  -24.3560   20.1310 C   0  0  0  0  0  2  0  0  0  0  0  0
  -28.6660  -25.5100   20.7500 C   0  0  0  0  0  2  0  0  0  0  0  0
  -28.5560  -26.7830   20.0910 O   0  0  0  0  0  0  0  0  0  0  0  0
  -24.6500  -31.8760   23.2410 C   0  0  0  0  0  0  0  0  0  0  0  0
  -27.3630  -27.4670   20.1700 C   0  0  0  0  0  0  0  0  0  0  0  0
  -23.4750  -30.4810   21.5700 C   0  0  0  0  0  3  0  0  0  0  0  0
  -24.9560  -28.9570   20.1680 C   0  0  0  0  0  0  0  0  0  0  0  0
  -25.9990  -30.8520   21.4120 C   0  0  0  0  0  2  0  0  0  0  0  0
  -26.1020  -29.4810   20.7790 C   0  0  0  0  0  0  0  0  0  0  0  0
  -27.3080  -28.7420   20.7810 C   0  0  0  0  0  3  0  0  0  0  0  0
  -26.2050  -26.9710   19.5340 C   0  0  0  0  0  3  0  0  0  0  0  0
  -25.0020  -27.6980   19.5500 C   0  0  0  0  0  3  0  0  0  0  0  0
  -23.7100  -29.8100   20.1930 C   0  0  0  0  0  2  0  0  0  0  0  0
  -24.7260  -31.0840   22.1350 N   0  0  0  0  0  0  0  0  0  0  0  0
  -23.5590  -32.1420   23.7650 O   0  0  0  0  0  0  0  0  0  0  0  0
  -22.8120  -29.4490   22.5110 C   0  0  0  0  0  0  0  0  0  0  0  0
  -21.4890  -29.2620   22.3580 N   0  0  0  0  0  0  0  0  0  0  0  0
  -23.4830  -28.8210   23.3320 O   0  0  0  0  0  0  0  0  0  0  0  0
  -21.0090  -29.8250   21.6690 H   0  0  0  0  0  0  0  0  0  0  0  0
  -18.1110  -28.0560   22.7830 C   0  0  0  0  0  0  0  0  0  0  0  0
  -20.6640  -28.3150   23.1070 C   0  0  0  0  0  3  0  0  0  0  0  0
  -20.7800  -26.8890   22.5220 C   0  0  0  0  0  2  0  0  0  0  0  0
  -19.6980  -26.5730   21.4850 C   0  0  0  0  0  2  0  0  0  0  0  0
  -18.3030  -26.7120   22.1030 C   0  0  0  0  0  2  0  0  0  0  0  0
  -19.2200  -28.8170   23.2410 C   0  0  0  0  0  0  0  0  0  0  0  0
  -18.9870  -30.0760   23.8320 C   0  0  0  0  0  3  0  0  0  0  0  0
  -17.6790  -30.5770   23.9750 C   0  0  0  0  0  3  0  0  0  0  0  0
  -16.5840  -29.8120   23.5380 C   0  0  0  0  0  3  0  0  0  0  0  0
  -16.8010  -28.5540   22.9480 C   0  0  0  0  0  3  0  0  0  0  0  0
  -25.9230  -32.5070   23.8860 C   0  0  0  0  0  3  0  0  0  0  0  0
  -26.4150  -31.7340   25.1700 C   0  0  1  0  0  0  0  0  0  0  0  0
  -25.3030  -31.4950   26.2180 C   0  0  0  0  0  1  0  0  0  0  0  0
  -27.0020  -30.3580   24.7810 C   0  0  0  0  0  1  0  0  0  0  0  0
  -27.5590  -32.5230   25.8510 C   0  0  0  0  0  1  0  0  0  0  0  0
  -25.6180  -33.9060   24.2060 N   0  0  0  0  0  0  0  0  0  0  0  0
  -25.9610  -34.9530   23.4430 C   0  0  0  0  0  0  0  0  0  0  0  0
  -26.6450  -34.8420   22.4220 O   0  0  0  0  0  0  0  0  0  0  0  0
  -25.0200  -34.0680   25.0030 H   0  0  0  0  0  0  0  0  0  0  0  0
  -24.2370  -36.7400   23.0490 C   0  0  0  0  0  1  0  0  0  0  0  0
  -25.4650  -36.3410   23.8840 C   0  0  0  0  0  3  0  0  0  0  0  0
  -27.5810  -37.2290   24.7510 C   0  0  0  0  0  1  0  0  0  0  0  0
  -26.4970  -37.3970   23.7880 N   0  0  0  0  0  0  0  0  0  0  0  0
  -26.0870  -38.3160   23.9320 H   0  0  0  0  0  0  0  0  0  0  0  0
  -27.8790  -20.5980   18.3930 C   0  0  0  0  0  2  0  0  0  0  0  0
  -26.8440  -19.7330   17.6330 C   0  0  0  0  0  2  0  0  0  0  0  0
  -27.2210  -19.4700   16.2320 N   0  0  0  0  0  4  0  0  0  0  0  0
  -27.3710  -20.3190   15.7200 H   0  0  0  0  0  0  0  0  0  0  0  0
  -26.4830  -18.9590   15.7790 H   0  0  0  0  0  0  0  0  0  0  0  0
  -28.0530  -18.9070   16.1830 H   0  0  0  0  0  0  0  0  0  0  0  0
  1 92  1  0
  1 45  1  0
  1  2  1  0
  3  2  1  0
  3  5  1  0
  4  3  2  0
  6 16  1  0
  7 12  1  0
  8  9  1  0
  8  7  1  0
 10  9  1  0
 10 20  1  0
 10 11  1  0
 12  6  1  0
 12 11  1  0
 13  6  2  0
 15  5  1  0
 15 14  1  0
 16 15  1  0
 16 14  1  0
 17 18  2  0
 18 37  1  0
 19 18  1  0
 19 22  1  0
 20 21  1  0
 20 17  1  0
 21 19  2  0
 22 23  1  0
 23 24  2  0
 25 28  1  0
 25 24  1  0
 26 25  2  0
 27 26  1  0
 27 22  2  0
 28 29  1  0
 29 30  1  0
 30 31  2  0
 32 31  1  0
 32 36  1  0
 33 32  2  0
 34 29  2  0
 34 33  1  0
 35 34  1  0
 37 38  1  0
 38 41  1  0
 38 40  1  0
 39 37  2  0
 42 43  1  0
 42 17  1  0
 44 42  1  0
 45 46  1  0
 46 47  1  0
 48 46  1  0
 49 46  1  0
 49 50  1  0
 51 53  1  0
 51 50  1  0
 52 63  2  0
 53 58  1  0
 54 62  1  0
 54 64  1  0
 55 61  1  0
 55 57  1  0
 56 62  1  0
 57 58  2  0
 57 56  1  0
 59 60  1  0
 59 53  2  0
 60 55  2  0
 61 54  1  0
 62 52  1  0
 64 66  2  0
 65 64  1  0
 67 65  1  0
 68 77  2  0
 68 73  1  0
 69 65  1  0
 69 73  1  0
 70 69  1  0
 71 72  1  0
 71 70  1  0
 72 68  1  0
 73 74  2  0
 74 75  1  0
 76 75  2  0
 77 76  1  0
 78 52  1  0
 78 83  1  0
 78 79  1  0
 79 82  1  1
 79 80  1  0
 81 79  1  0
 83 86  1  0
 84 88  1  0
 84 83  1  0
 85 84  2  0
 88 87  1  0
 90 88  1  0
 90 91  1  0
 90 89  1  0
 93 92  1  0
 94 93  1  0
 95 94  1  0
 96 94  1  0
 97 94  1  0
M  ISO  4   6 100  16 100  50 101  51 101
M  END
>  <TORSDO>  (79) 
F 26

>  <SCORE>  (79) 
-10.996

>  <name>  (79) 
78

>  <ligand_id>  (79) 
78

>  <original_smiles>  (79) 
[H]c1c([H])c([H])c2c(c1[H])C([H])([H])C([H])([H])C([H])([H])C2([H])N([H])C(=O)C1([H])N(C(=O)C([H])(N([H])C(=O)C([H])(N([H])C([H])([H])[H])C([H])([H])[H])C(C([H])([H])[H])(C([H])([H])[H])C([H])([H])[H])C([H])([H])c2c([H])c(OC([H])([H])C([H])([H])[N+]([H])([H])C([H])([H])C([H])(C([H])([H])C(=O)C([H])([H])C3([H])N(C(=O)N4C([H])([H])C([H])([H])C([H])([H])C([H])(n5nc(-c6c([H])c([H])c(Oc7c([H])c([H])c(F)c([H])c7F)c([H])c6[H])c(C(=O)N([H])[H])c5N([H])[H])C4([H])[H])C3([H])[H])C([H])([H])C([H])([H])[N+]([H])([H])[H])c([H])c([H])c2C1([H])[H]

>  <smiles>  (79) 
[H]c1c([H])c([H])c2c(c1[H])C([H])([H])C([H])([H])C([H])([H])C2([H])N([H])C(=O)C1([H])N(C(=O)C([H])(N([H])C(=O)C([H])(N([H])C([H])([H])[H])C([H])([H])[H])C(C([H])([H])[H])(C([H])([H])[H])C([H])([H])[H])C([H])([H])c2c([H])c(OC([H])([H])C([H])([H])[N+]([H])([H])C([H])([H])C([H])(C([H])([H])C(=O)C([H])([H])C3([H])N(C(=O)N4C([H])([H])C([H])([H])C([H])([H])C([H])(n5nc(-c6c([H])c([H])c(Oc7c([H])c([H])c(F)c([H])c7F)c([H])c6[H])c(C(=O)N([H])[H])c5N([H])[H])C4([H])[H])C3([H])[H])C([H])([H])C([H])([H])[N+]([H])([H])[H])c([H])c([H])c2C1([H])[H]

$$$$
79:0:0
     RDKit          3D

 89 97  0  0  1  0  0  0  0  0999 V2000
  -27.4080  -21.7260   20.5210 C   0  0  0  0  0  1  0  0  0  0  0  0
  -28.6760  -22.1570   19.7680 C   0  0  0  0  0  3  0  0  0  0  0  0
  -29.0290  -23.7320   20.0780 C   0  0  0  0  0  3  0  0  0  0  0  0
  -27.9770  -24.9420   19.7940 C   0  0  0  0  0  3  0  0  0  0  0  0
  -28.2450  -26.4010   20.0970 O   0  0  0  0  0  0  0  0  0  0  0  0
  -24.6120  -31.8700   23.2540 C   0  0  0  0  0  0  0  0  0  0  0  0
  -27.1650  -27.3260   20.0610 C   0  0  0  0  0  0  0  0  0  0  0  0
  -23.3940  -30.5230   21.5860 C   0  0  0  0  0  3  0  0  0  0  0  0
  -24.8260  -29.0060   20.1040 C   0  0  0  0  0  0  0  0  0  0  0  0
  -25.9410  -30.8170   21.4010 C   0  0  0  0  0  2  0  0  0  0  0  0
  -26.0080  -29.4530   20.7110 C   0  0  0  0  0  0  0  0  0  0  0  0
  -27.1800  -28.6260   20.6770 C   0  0  0  0  0  3  0  0  0  0  0  0
  -25.9600  -26.9600   19.4190 C   0  0  0  0  0  3  0  0  0  0  0  0
  -24.8090  -27.7690   19.4460 C   0  0  0  0  0  3  0  0  0  0  0  0
  -23.5980  -29.8910   20.1850 C   0  0  0  0  0  2  0  0  0  0  0  0
  -24.6690  -31.0870   22.1350 N   0  0  0  0  0  0  0  0  0  0  0  0
  -23.5310  -32.1380   23.8000 O   0  0  0  0  0  0  0  0  0  0  0  0
  -22.7280  -29.4850   22.5210 C   0  0  0  0  0  0  0  0  0  0  0  0
  -21.4050  -29.3000   22.3820 N   0  0  0  0  0  0  0  0  0  0  0  0
  -23.4050  -28.8500   23.3360 O   0  0  0  0  0  0  0  0  0  0  0  0
  -20.9150  -29.8640   21.7020 H   0  0  0  0  0  0  0  0  0  0  0  0
  -18.0350  -28.0550   22.8300 C   0  0  0  0  0  0  0  0  0  0  0  0
  -20.5870  -28.3420   23.1310 C   0  0  0  0  0  3  0  0  0  0  0  0
  -20.7130  -26.9200   22.5390 C   0  0  0  0  0  2  0  0  0  0  0  0
  -19.6260  -26.5970   21.5080 C   0  0  0  0  0  2  0  0  0  0  0  0
  -18.2360  -26.7180   22.1390 C   0  0  0  0  0  2  0  0  0  0  0  0
  -19.1400  -28.8260   23.2820 C   0  0  0  0  0  0  0  0  0  0  0  0
  -18.8990  -30.0760   23.8910 C   0  0  0  0  0  3  0  0  0  0  0  0
  -17.5870  -30.5590   24.0490 C   0  0  0  0  0  3  0  0  0  0  0  0
  -16.4960  -29.7860   23.6130 C   0  0  0  0  0  3  0  0  0  0  0  0
  -16.7220  -28.5360   23.0110 C   0  0  0  0  0  3  0  0  0  0  0  0
  -25.8990  -32.4830   23.8850 C   0  0  0  0  0  3  0  0  0  0  0  0
  -26.3910  -31.7060   25.1680 C   0  0  1  0  0  0  0  0  0  0  0  0
  -25.2840  -31.4880   26.2260 C   0  0  0  0  0  1  0  0  0  0  0  0
  -26.9550  -30.3180   24.7840 C   0  0  0  0  0  1  0  0  0  0  0  0
  -27.5490  -32.4830   25.8380 C   0  0  0  0  0  1  0  0  0  0  0  0
  -25.6080  -33.8870   24.2130 N   0  0  0  0  0  0  0  0  0  0  0  0
  -25.9320  -34.9330   23.4430 C   0  0  0  0  0  0  0  0  0  0  0  0
  -26.5750  -34.8180   22.3960 O   0  0  0  0  0  0  0  0  0  0  0  0
  -25.0360  -34.0520   25.0280 H   0  0  0  0  0  0  0  0  0  0  0  0
  -24.2020  -36.7350   23.1380 C   0  0  0  0  0  1  0  0  0  0  0  0
  -25.4700  -36.3290   23.9050 C   0  0  0  0  0  3  0  0  0  0  0  0
  -27.6350  -37.2150   24.6530 C   0  0  0  0  0  1  0  0  0  0  0  0
  -26.5030  -37.3750   23.7430 N   0  0  0  0  0  0  0  0  0  0  0  0
  -26.1070  -38.2990   23.8900 H   0  0  0  0  0  0  0  0  0  0  0  0
  -29.8520  -21.0620   20.0070 C   0  0  0  0  0  2  0  0  0  0  0  0
  -30.0280  -18.5400   20.8660 C   0  0  0  0  0  0  0  0  0  0  0  0
  -29.6080  -18.4740   18.8640 C   0  0  0  0  0  2  0  0  0  0  0  0
  -30.4150  -17.4840   19.7680 C   0  0  0  0  0  3  0  0  0  0  0  0
  -29.6910  -19.5310   19.9350 N   0  0  0  0  0  0  0  0  0  0  0  0
  -30.1050  -18.5930   22.0750 O   0  0  0  0  0  0  0  0  0  0  0  0
  -30.7360  -14.8790   19.7700 C   0  0  0  0  0  0  0  0  0  0  0  0
  -30.5360  -12.5390   18.9160 C   0  0  0  0  0  2  0  0  0  0  0  0
  -29.5240  -12.5030   17.7500 C   0  0  0  0  0  2  0  0  0  0  0  0
  -28.0940  -12.3090   18.2840 C   0  0  0  0  0  2  0  0  0  0  0  0
  -27.7610  -13.2680   19.4590 C   0  0  0  0  0  3  0  0  0  0  0  0
  -28.8860  -13.2950   20.5150 C   0  0  0  0  0  2  0  0  0  0  0  0
  -30.1290  -13.6430   19.8170 N   0  0  0  0  0  0  0  0  0  0  0  0
  -31.9050  -14.9680   19.3890 O   0  0  0  0  0  0  0  0  0  0  0  0
  -29.9680  -16.0250   19.9330 N   0  0  0  0  0  0  0  0  0  0  0  0
  -29.0090  -15.8920   20.2130 H   0  0  0  0  0  0  0  0  0  0  0  0
  -25.4440  -13.8540   20.3900 C   0  0  0  0  0  0  0  0  0  0  0  0
  -24.4050  -13.0760   20.8210 C   0  0  0  0  0  0  0  0  0  0  0  0
  -24.8530  -11.7240   20.7210 C   0  0  0  0  0  0  0  0  0  0  0  0
  -26.4590  -12.9740   20.0490 N   0  0  0  0  0  0  0  0  0  0  0  0
  -26.1160  -11.6860   20.3110 N   0  0  0  0  0  0  0  0  0  0  0  0
  -24.1330  -10.4600   20.9330 C   0  0  0  0  0  0  0  0  0  0  0  0
  -24.5540   -9.5240   21.9030 C   0  0  0  0  0  3  0  0  0  0  0  0
  -23.8320   -8.3270   22.1020 C   0  0  0  0  0  3  0  0  0  0  0  0
  -22.6780   -8.0570   21.3290 C   0  0  0  0  0  0  0  0  0  0  0  0
  -22.2760   -8.9820   20.3500 C   0  0  0  0  0  3  0  0  0  0  0  0
  -22.9970  -10.1700   20.1500 C   0  0  0  0  0  3  0  0  0  0  0  0
  -21.9300   -6.9080   21.4350 O   0  0  0  0  0  0  0  0  0  0  0  0
  -21.7570   -6.2700   22.6370 C   0  0  0  0  0  0  0  0  0  0  0  0
  -21.1630   -6.9160   23.7440 C   0  0  0  0  0  3  0  0  0  0  0  0
  -20.9400   -6.2030   24.9380 C   0  0  0  0  0  3  0  0  0  0  0  0
  -21.2990   -4.8440   25.0270 C   0  0  0  0  0  0  0  0  0  0  0  0
  -21.8840   -4.1980   23.9240 C   0  0  0  0  0  3  0  0  0  0  0  0
  -22.1100   -4.9090   22.7320 C   0  0  0  0  0  0  0  0  0  0  0  0
  -22.6550   -4.2760   21.6660 F   0  0  0  0  0  0  0  0  0  0  0  0
  -21.0770   -4.1570   26.1720 F   0  0  0  0  0  0  0  0  0  0  0  0
  -23.0350  -13.5540   21.2110 C   0  0  0  0  0  0  0  0  0  0  0  0
  -22.3740  -12.8470   22.1200 N   0  0  0  0  0  0  0  0  0  0  0  0
  -22.5640  -14.5900   20.7430 O   0  0  0  0  0  0  0  0  0  0  0  0
  -22.7670  -12.0060   22.5170 H   0  0  0  0  0  0  0  0  0  0  0  0
  -21.4590  -13.1490   22.4230 H   0  0  0  0  0  0  0  0  0  0  0  0
  -25.6020  -15.2280   20.2310 N   0  0  0  0  0  0  0  0  0  0  0  0
  -24.8460  -15.8810   20.4060 H   0  0  0  0  0  0  0  0  0  0  0  0
  -26.4130  -15.6710   19.8180 H   0  0  0  0  0  0  0  0  0  0  0  0
  2 46  1  0
  2  3  1  0
  2  1  1  0
  4  3  2  0
  4  5  1  0
  6 17  2  0
  7  5  1  0
  7 12  1  0
  8 16  1  0
  8 18  1  0
  9 15  1  0
  9 11  1  0
 10 16  1  0
 11 10  1  0
 12 11  2  0
 13 14  1  0
 13  7  2  0
 14  9  2  0
 15  8  1  0
 16  6  1  0
 18 20  2  0
 19 18  1  0
 21 19  1  0
 22 31  2  0
 22 27  1  0
 23 19  1  0
 23 27  1  0
 24 23  1  0
 25 26  1  0
 25 24  1  0
 26 22  1  0
 27 28  2  0
 28 29  1  0
 30 29  2  0
 31 30  1  0
 32  6  1  0
 32 37  1  0
 32 33  1  0
 33 36  1  1
 33 34  1  0
 35 33  1  0
 37 40  1  0
 38 42  1  0
 38 37  1  0
 39 38  2  0
 42 41  1  0
 44 45  1  0
 44 42  1  0
 44 43  1  0
 47 51  2  0
 48 49  1  0
 48 50  1  0
 49 60  1  0
 49 47  1  0
 50 46  1  0
 50 47  1  0
 52 58  1  0
 52 60  1  0
 53 58  1  0
 54 55  1  0
 54 53  1  0
 56 55  1  0
 56 65  1  0
 56 57  1  0
 58 57  1  0
 59 52  2  0
 60 61  1  0
 62 63  2  0
 63 82  1  0
 64 63  1  0
 64 67  1  0
 65 66  1  0
 65 62  1  0
 66 64  2  0
 67 68  1  0
 68 69  2  0
 70 73  1  0
 70 69  1  0
 71 70  2  0
 72 71  1  0
 72 67  2  0
 73 74  1  0
 74 79  2  0
 74 75  1  0
 75 76  2  0
 76 77  1  0
 77 81  1  0
 78 77  2  0
 79 78  1  0
 80 79  1  0
 82 83  1  0
 83 86  1  0
 83 85  1  0
 84 82  2  0
 87 62  1  0
 87 88  1  0
 89 87  1  0
M  ISO  4   4 101   5 101  52 100  60 100
M  END
>  <TORSDO>  (80) 
F 20

>  <SCORE>  (80) 
-12.954

>  <name>  (80) 
79

>  <ligand_id>  (80) 
79

>  <original_smiles>  (80) 
[H]c1c([H])c([H])c2c(c1[H])C([H])([H])C([H])([H])C([H])([H])C2([H])N([H])C(=O)C1([H])N(C(=O)C([H])(N([H])C(=O)C([H])(N([H])C([H])([H])[H])C([H])([H])[H])C(C([H])([H])[H])(C([H])([H])[H])C([H])([H])[H])C([H])([H])c2c([H])c(OC([H])([H])C([H])([H])C([H])(C([H])([H])[H])C([H])([H])N3C(=O)C([H])(N([H])C(=O)N4C([H])([H])C([H])([H])C([H])([H])C([H])(n5nc(-c6c([H])c([H])c(Oc7c([H])c([H])c(F)c([H])c7F)c([H])c6[H])c(C(=O)N([H])[H])c5N([H])[H])C4([H])[H])C3([H])[H])c([H])c([H])c2C1([H])[H]

>  <smiles>  (80) 
[H]c1c([H])c([H])c2c(c1[H])C([H])([H])C([H])([H])C([H])([H])C2([H])N([H])C(=O)C1([H])N(C(=O)C([H])(N([H])C(=O)C([H])(N([H])C([H])([H])[H])C([H])([H])[H])C(C([H])([H])[H])(C([H])([H])[H])C([H])([H])[H])C([H])([H])c2c([H])c(OC([H])([H])C([H])([H])C([H])(C([H])([H])[H])C([H])([H])N3C(=O)C([H])(N([H])C(=O)N4C([H])([H])C([H])([H])C([H])([H])C([H])(n5nc(-c6c([H])c([H])c(Oc7c([H])c([H])c(F)c([H])c7F)c([H])c6[H])c(C(=O)N([H])[H])c5N([H])[H])C4([H])[H])C3([H])[H])c([H])c([H])c2C1([H])[H]

$$$$
80:0:0
     RDKit          3D

 97106  0  0  1  0  0  0  0  0999 V2000
  -29.8420  -23.9760   19.4800 C   0  0  0  0  0  2  0  0  0  0  0  0
  -29.4570  -22.9060   21.5120 C   0  0  0  0  0  2  0  0  0  0  0  0
  -30.1000  -22.4680   19.2660 C   0  0  0  0  0  3  0  0  0  0  0  0
  -28.8770  -24.0660   20.6710 C   0  0  2  0  0  0  0  0  0  0  0  0
  -29.3210  -21.9600   18.0420 C   0  0  0  0  0  1  0  0  0  0  0  0
  -27.4270  -23.7040   20.2730 C   0  0  0  0  0  1  0  0  0  0  0  0
  -29.6800  -21.8050   20.5320 N   0  0  1  0  0  4  0  0  0  0  0  0
  -28.7560  -21.4350   20.3690 H   0  0  0  0  0  0  0  0  0  0  0  0
  -30.5190  -20.6600   21.0020 C   0  0  0  0  0  2  0  0  0  0  0  0
  -30.4830  -18.1890   19.8820 C   0  0  0  0  0  2  0  0  0  0  0  0
  -29.8930  -18.2010   21.8900 C   0  0  0  0  0  2  0  0  0  0  0  0
  -29.8040  -17.1400   20.7820 C   0  0  0  0  0  3  0  0  0  0  0  0
  -29.8510  -19.2820   20.7770 C   0  0  0  0  0  3  0  0  0  0  0  0
  -31.6270  -13.9600   19.7080 C   0  0  0  0  0  0  0  0  0  0  0  0
  -31.1290  -11.6820   18.9130 C   0  0  0  0  0  2  0  0  0  0  0  0
  -30.1240  -11.7410   17.7430 C   0  0  0  0  0  2  0  0  0  0  0  0
  -28.6770  -11.7390   18.2760 C   0  0  0  0  0  2  0  0  0  0  0  0
  -28.4500  -12.7750   19.4110 C   0  0  0  0  0  3  0  0  0  0  0  0
  -29.5700  -12.7060   20.4790 C   0  0  0  0  0  2  0  0  0  0  0  0
  -30.8660  -12.8350   19.7910 N   0  0  0  0  0  0  0  0  0  0  0  0
  -32.7080  -14.0020   19.1080 O   0  0  0  0  0  0  0  0  0  0  0  0
  -30.5920  -15.8670   20.9810 C   0  0  0  0  0  0  0  0  0  0  0  0
  -30.9390  -15.2050   19.8520 N   0  0  0  0  0  0  0  0  0  0  0  0
  -30.8670  -15.4880   22.2460 N   0  0  0  0  0  4  0  0  0  0  0  0
  -31.0030  -15.8670   19.0990 H   0  0  0  0  0  0  0  0  0  0  0  0
  -30.5330  -16.0590   23.0100 H   0  0  0  0  0  0  0  0  0  0  0  0
  -31.4360  -14.6930   22.4910 H   0  0  0  0  0  0  0  0  0  0  0  0
  -26.2260  -13.6190   20.3990 C   0  0  0  0  0  0  0  0  0  0  0  0
  -25.1070  -12.9600   20.8270 C   0  0  0  0  0  0  0  0  0  0  0  0
  -25.3820  -11.5680   20.6600 C   0  0  0  0  0  0  0  0  0  0  0  0
  -27.1230  -12.6370   20.0040 N   0  0  0  0  0  0  0  0  0  0  0  0
  -26.6210  -11.3930   20.2150 N   0  0  0  0  0  0  0  0  0  0  0  0
  -24.5180  -10.3960   20.8480 C   0  0  0  0  0  0  0  0  0  0  0  0
  -24.8150   -9.4100   21.8140 C   0  0  0  0  0  3  0  0  0  0  0  0
  -23.9640   -8.2970   21.9890 C   0  0  0  0  0  3  0  0  0  0  0  0
  -22.7970   -8.1680   21.1990 C   0  0  0  0  0  0  0  0  0  0  0  0
  -22.5160   -9.1420   20.2260 C   0  0  0  0  0  3  0  0  0  0  0  0
  -23.3680  -10.2450   20.0480 C   0  0  0  0  0  3  0  0  0  0  0  0
  -21.9270   -7.1070   21.2810 O   0  0  0  0  0  0  0  0  0  0  0  0
  -21.6370   -6.5070   22.4790 C   0  0  0  0  0  0  0  0  0  0  0  0
  -21.1020   -7.2310   23.5670 C   0  0  0  0  0  3  0  0  0  0  0  0
  -20.7540   -6.5590   24.7560 C   0  0  0  0  0  3  0  0  0  0  0  0
  -20.9280   -5.1660   24.8550 C   0  0  0  0  0  0  0  0  0  0  0  0
  -21.4540   -4.4420   23.7700 C   0  0  0  0  0  3  0  0  0  0  0  0
  -21.8050   -5.1110   22.5840 C   0  0  0  0  0  0  0  0  0  0  0  0
  -22.2920   -4.4080   21.5340 F   0  0  0  0  0  0  0  0  0  0  0  0
  -20.5860   -4.5170   25.9920 F   0  0  0  0  0  0  0  0  0  0  0  0
  -23.8140  -13.5850   21.2700 C   0  0  0  0  0  0  0  0  0  0  0  0
  -23.0970  -12.9350   22.1800 N   0  0  0  0  0  0  0  0  0  0  0  0
  -23.4530  -14.6810   20.8410 O   0  0  0  0  0  0  0  0  0  0  0  0
  -23.4090  -12.0520   22.5610 H   0  0  0  0  0  0  0  0  0  0  0  0
  -22.2260  -13.3310   22.5030 H   0  0  0  0  0  0  0  0  0  0  0  0
  -26.5480  -14.9690   20.2890 N   0  0  0  0  0  0  0  0  0  0  0  0
  -25.8720  -15.6870   20.5280 H   0  0  0  0  0  0  0  0  0  0  0  0
  -27.3640  -15.3300   19.8150 H   0  0  0  0  0  0  0  0  0  0  0  0
  -28.9010  -25.4740   21.3560 C   0  0  0  0  0  2  0  0  0  0  0  0
  -28.9060  -26.5800   20.4240 O   0  0  0  0  0  0  0  0  0  0  0  0
  -24.8000  -31.6400   23.3260 C   0  0  0  0  0  0  0  0  0  0  0  0
  -27.7390  -27.3120   20.3640 C   0  0  0  0  0  0  0  0  0  0  0  0
  -23.7230  -30.2140   21.6130 C   0  0  0  0  0  3  0  0  0  0  0  0
  -25.3020  -28.7470   20.2460 C   0  0  0  0  0  0  0  0  0  0  0  0
  -26.2430  -30.6580   21.5480 C   0  0  0  0  0  2  0  0  0  0  0  0
  -26.4080  -29.2950   20.9090 C   0  0  0  0  0  0  0  0  0  0  0  0
  -27.6280  -28.5820   20.9780 C   0  0  0  0  0  3  0  0  0  0  0  0
  -26.6300  -26.8060   19.6540 C   0  0  0  0  0  3  0  0  0  0  0  0
  -25.4090  -27.5000   19.6130 C   0  0  0  0  0  3  0  0  0  0  0  0
  -24.0250  -29.5580   20.2380 C   0  0  0  0  0  2  0  0  0  0  0  0
  -24.9350  -30.8520   22.2200 N   0  0  0  0  0  0  0  0  0  0  0  0
  -23.6860  -31.8680   23.8150 O   0  0  0  0  0  0  0  0  0  0  0  0
  -23.0620  -29.1610   22.5310 C   0  0  0  0  0  0  0  0  0  0  0  0
  -21.7460  -28.9580   22.3620 N   0  0  0  0  0  0  0  0  0  0  0  0
  -23.7330  -28.5280   23.3520 O   0  0  0  0  0  0  0  0  0  0  0  0
  -21.2650  -29.5210   21.6730 H   0  0  0  0  0  0  0  0  0  0  0  0
  -18.3660  -27.7510   22.7850 C   0  0  0  0  0  0  0  0  0  0  0  0
  -20.9220  -27.9920   23.0880 C   0  0  0  0  0  3  0  0  0  0  0  0
  -21.0270  -26.5840   22.4550 C   0  0  0  0  0  2  0  0  0  0  0  0
  -19.9330  -26.3050   21.4210 C   0  0  0  0  0  2  0  0  0  0  0  0
  -18.5460  -26.4290   22.0580 C   0  0  0  0  0  2  0  0  0  0  0  0
  -19.4820  -28.4930   23.2550 C   0  0  0  0  0  0  0  0  0  0  0  0
  -19.2610  -29.7330   23.8920 C   0  0  0  0  0  3  0  0  0  0  0  0
  -17.9560  -30.2300   24.0660 C   0  0  0  0  0  3  0  0  0  0  0  0
  -16.8540  -29.4840   23.6140 C   0  0  0  0  0  3  0  0  0  0  0  0
  -17.0600  -28.2470   22.9790 C   0  0  0  0  0  3  0  0  0  0  0  0
  -26.0340  -32.3070   24.0100 C   0  0  0  0  0  3  0  0  0  0  0  0
  -26.5010  -31.5570   25.3180 C   0  0  1  0  0  0  0  0  0  0  0  0
  -25.3540  -31.2820   26.3170 C   0  0  0  0  0  1  0  0  0  0  0  0
  -27.1550  -30.2000   24.9650 C   0  0  0  0  0  1  0  0  0  0  0  0
  -27.5800  -32.3920   26.0450 C   0  0  0  0  0  1  0  0  0  0  0  0
  -25.6720  -33.6980   24.3110 N   0  0  0  0  0  0  0  0  0  0  0  0
  -25.9980  -34.7490   23.5470 C   0  0  0  0  0  0  0  0  0  0  0  0
  -26.7040  -34.6530   22.5390 O   0  0  0  0  0  0  0  0  0  0  0  0
  -25.0540  -33.8460   25.0940 H   0  0  0  0  0  0  0  0  0  0  0  0
  -24.2240  -36.4780   23.1100 C   0  0  0  0  0  1  0  0  0  0  0  0
  -25.4520  -36.1280   23.9670 C   0  0  0  0  0  3  0  0  0  0  0  0
  -27.5270  -37.0940   24.8530 C   0  0  0  0  0  1  0  0  0  0  0  0
  -26.4540  -37.2120   23.8700 N   0  0  0  0  0  0  0  0  0  0  0  0
  -26.0120  -38.1200   23.9900 H   0  0  0  0  0  0  0  0  0  0  0  0
  1  4  1  0
  3  5  1  0
  3  1  1  0
  3  7  1  0
  4  6  1  6
  4 56  1  0
  4  2  1  0
  7  9  1  0
  7  2  1  0
  7  8  1  6
 10 13  1  0
 10 12  1  0
 12 22  1  0
 12 11  1  0
 13  9  1  0
 13 11  1  0
 14 20  1  0
 14 23  1  0
 15 20  1  0
 16 17  1  0
 16 15  1  0
 18 17  1  0
 18 31  1  0
 18 19  1  0
 20 19  1  0
 21 14  2  0
 22 24  2  0
 23 22  1  0
 24 27  1  0
 24 26  1  0
 25 23  1  0
 28 29  2  0
 29 48  1  0
 30 29  1  0
 30 33  1  0
 31 32  1  0
 31 28  1  0
 32 30  2  0
 33 34  1  0
 34 35  2  0
 36 39  1  0
 36 35  1  0
 37 36  2  0
 38 37  1  0
 38 33  2  0
 39 40  1  0
 40 45  2  0
 40 41  1  0
 41 42  2  0
 42 43  1  0
 43 47  1  0
 44 43  2  0
 45 44  1  0
 46 45  1  0
 48 49  1  0
 49 52  1  0
 49 51  1  0
 50 48  2  0
 53 28  1  0
 53 54  1  0
 55 53  1  0
 57 56  1  0
 58 69  2  0
 59 57  1  0
 59 64  1  0
 60 68  1  0
 60 70  1  0
 61 63  1  0
 62 68  1  0
 63 64  2  0
 63 62  1  0
 65 59  2  0
 66 65  1  0
 66 61  2  0
 67 61  1  0
 67 60  1  0
 68 58  1  0
 70 72  2  0
 71 70  1  0
 73 71  1  0
 74 83  2  0
 74 79  1  0
 75 71  1  0
 75 79  1  0
 76 75  1  0
 77 78  1  0
 77 76  1  0
 78 74  1  0
 79 80  2  0
 80 81  1  0
 82 81  2  0
 83 82  1  0
 84 58  1  0
 84 89  1  0
 84 85  1  0
 85 88  1  1
 85 86  1  0
 87 85  1  0
 89 92  1  0
 90 94  1  0
 90 89  1  0
 91 90  2  0
 94 93  1  0
 96 94  1  0
 96 97  1  0
 96 95  1  0
M  ISO  4  14 100  23 100  56 101  57 101
M  END
>  <TORSDO>  (81) 
F 19

>  <SCORE>  (81) 
-12.161

>  <name>  (81) 
80

>  <ligand_id>  (81) 
80

>  <original_smiles>  (81) 
[H]c1c([H])c([H])c2c(c1[H])C([H])([H])C([H])([H])C([H])([H])C2([H])N([H])C(=O)C1([H])N(C(=O)C([H])(N([H])C(=O)C([H])(N([H])C([H])([H])[H])C([H])([H])[H])C(C([H])([H])[H])(C([H])([H])[H])C([H])([H])[H])C([H])([H])c2c([H])c(OC([H])([H])C3(C([H])([H])[H])C([H])([H])C([H])(C([H])([H])[H])[N+]([H])(C([H])([H])C4([H])C([H])([H])C([H])(C(N([H])C(=O)N5C([H])([H])C([H])([H])C([H])([H])C([H])(n6nc(-c7c([H])c([H])c(Oc8c([H])c([H])c(F)c([H])c8F)c([H])c7[H])c(C(=O)N([H])[H])c6N([H])[H])C5([H])[H])=[N+]([H])[H])C4([H])[H])C3([H])[H])c([H])c([H])c2C1([H])[H]

>  <smiles>  (81) 
[H]c1c([H])c([H])c2c(c1[H])C([H])([H])C([H])([H])C([H])([H])C2([H])N([H])C(=O)C1([H])N(C(=O)C([H])(N([H])C(=O)C([H])(N([H])C([H])([H])[H])C([H])([H])[H])C(C([H])([H])[H])(C([H])([H])[H])C([H])([H])[H])C([H])([H])c2c([H])c(OC([H])([H])C3(C([H])([H])[H])C([H])([H])C([H])(C([H])([H])[H])[N+]([H])(C([H])([H])C4([H])C([H])([H])C([H])(C(N([H])C(=O)N5C([H])([H])C([H])([H])C([H])([H])C([H])(n6nc(-c7c([H])c([H])c(Oc8c([H])c([H])c(F)c([H])c8F)c([H])c7[H])c(C(=O)N([H])[H])c6N([H])[H])C5([H])[H])=[N+]([H])[H])C4([H])[H])C3([H])[H])c([H])c([H])c2C1([H])[H]

$$$$
81:0:0
     RDKit          3D

 89 97  0  0  1  0  0  0  0  0999 V2000
  -28.8790  -22.1650   20.0740 C   0  0  0  0  0  0  0  0  0  0  0  0
  -27.7040  -21.7970   20.1050 O   0  0  0  0  0  0  0  0  0  0  0  0
  -29.2180  -23.7500   20.1300 C   0  0  0  0  0  3  0  0  0  0  0  0
  -28.0860  -24.9030   19.9120 C   0  0  0  0  0  3  0  0  0  0  0  0
  -28.3260  -26.3890   20.1440 O   0  0  0  0  0  0  0  0  0  0  0  0
  -24.6500  -31.8870   23.2360 C   0  0  0  0  0  0  0  0  0  0  0  0
  -27.2320  -27.2990   20.1100 C   0  0  0  0  0  0  0  0  0  0  0  0
  -23.4440  -30.5210   21.5770 C   0  0  0  0  0  3  0  0  0  0  0  0
  -24.8850  -28.9760   20.1320 C   0  0  0  0  0  0  0  0  0  0  0  0
  -25.9910  -30.8110   21.4020 C   0  0  0  0  0  2  0  0  0  0  0  0
  -26.0650  -29.4370   20.7340 C   0  0  0  0  0  0  0  0  0  0  0  0
  -27.2390  -28.6110   20.7060 C   0  0  0  0  0  3  0  0  0  0  0  0
  -26.0200  -26.9140   19.4900 C   0  0  0  0  0  3  0  0  0  0  0  0
  -24.8690  -27.7220   19.5060 C   0  0  0  0  0  3  0  0  0  0  0  0
  -23.6550  -29.8610   20.1900 C   0  0  0  0  0  2  0  0  0  0  0  0
  -24.7150  -31.0890   22.1290 N   0  0  0  0  0  0  0  0  0  0  0  0
  -23.5660  -32.1640   23.7680 O   0  0  0  0  0  0  0  0  0  0  0  0
  -22.7660  -29.5000   22.5230 C   0  0  0  0  0  0  0  0  0  0  0  0
  -21.4410  -29.3240   22.3820 N   0  0  0  0  0  0  0  0  0  0  0  0
  -23.4360  -28.8670   23.3440 O   0  0  0  0  0  0  0  0  0  0  0  0
  -20.9570  -29.8850   21.6950 H   0  0  0  0  0  0  0  0  0  0  0  0
  -18.0560  -28.1230   22.8450 C   0  0  0  0  0  0  0  0  0  0  0  0
  -20.6120  -28.3810   23.1370 C   0  0  0  0  0  3  0  0  0  0  0  0
  -20.7210  -26.9550   22.5490 C   0  0  0  0  0  2  0  0  0  0  0  0
  -19.6250  -26.6400   21.5270 C   0  0  0  0  0  2  0  0  0  0  0  0
  -18.2380  -26.7790   22.1590 C   0  0  0  0  0  2  0  0  0  0  0  0
  -19.1710  -28.8820   23.2900 C   0  0  0  0  0  0  0  0  0  0  0  0
  -18.9460  -30.1390   23.8940 C   0  0  0  0  0  3  0  0  0  0  0  0
  -17.6380  -30.6360   24.0570 C   0  0  0  0  0  3  0  0  0  0  0  0
  -16.5380  -29.8730   23.6270 C   0  0  0  0  0  3  0  0  0  0  0  0
  -16.7490  -28.6180   23.0270 C   0  0  0  0  0  3  0  0  0  0  0  0
  -25.9320  -32.5050   23.8720 C   0  0  0  0  0  3  0  0  0  0  0  0
  -26.4240  -31.7290   25.1530 C   0  0  1  0  0  0  0  0  0  0  0  0
  -25.3180  -31.5070   26.2110 C   0  0  0  0  0  1  0  0  0  0  0  0
  -26.9940  -30.3440   24.7700 C   0  0  0  0  0  1  0  0  0  0  0  0
  -27.5790  -32.5070   25.8270 C   0  0  0  0  0  1  0  0  0  0  0  0
  -25.6370  -33.9080   24.2020 N   0  0  0  0  0  0  0  0  0  0  0  0
  -25.9520  -34.9560   23.4300 C   0  0  0  0  0  0  0  0  0  0  0  0
  -26.5910  -34.8440   22.3800 O   0  0  0  0  0  0  0  0  0  0  0  0
  -25.0640  -34.0690   25.0170 H   0  0  0  0  0  0  0  0  0  0  0  0
  -24.2050  -36.7420   23.1450 C   0  0  0  0  0  1  0  0  0  0  0  0
  -25.4870  -36.3490   23.8950 C   0  0  0  0  0  3  0  0  0  0  0  0
  -27.6570  -37.2510   24.6070 C   0  0  0  0  0  1  0  0  0  0  0  0
  -26.5100  -37.4020   23.7160 N   0  0  0  0  0  0  0  0  0  0  0  0
  -26.1100  -38.3240   23.8670 H   0  0  0  0  0  0  0  0  0  0  0  0
  -30.0500  -21.0730   19.9360 C   0  0  0  0  0  2  0  0  0  0  0  0
  -29.1060  -18.5920   20.7630 C   0  0  0  0  0  0  0  0  0  0  0  0
  -30.8030  -18.4150   19.6320 C   0  0  0  0  0  2  0  0  0  0  0  0
  -30.2120  -17.4510   20.6940 C   0  0  0  0  0  3  0  0  0  0  0  0
  -29.9160  -19.5370   20.1280 N   0  0  0  0  0  0  0  0  0  0  0  0
  -27.9990  -18.6930   21.2510 O   0  0  0  0  0  0  0  0  0  0  0  0
  -30.5880  -14.8760   20.0550 C   0  0  0  0  0  0  0  0  0  0  0  0
  -30.3750  -12.6050   19.0060 C   0  0  0  0  0  2  0  0  0  0  0  0
  -29.3700  -12.6530   17.8310 C   0  0  0  0  0  2  0  0  0  0  0  0
  -27.9380  -12.4180   18.3460 C   0  0  0  0  0  2  0  0  0  0  0  0
  -27.5980  -13.3090   19.5670 C   0  0  0  0  0  3  0  0  0  0  0  0
  -28.7090  -13.2570   20.6380 C   0  0  0  0  0  2  0  0  0  0  0  0
  -29.9650  -13.6440   19.9820 N   0  0  0  0  0  0  0  0  0  0  0  0
  -31.7690  -14.9830   19.7160 O   0  0  0  0  0  0  0  0  0  0  0  0
  -29.8230  -16.0000   20.3400 N   0  0  0  0  0  0  0  0  0  0  0  0
  -28.8540  -15.7960   20.5120 H   0  0  0  0  0  0  0  0  0  0  0  0
  -25.2460  -13.8690   20.4140 C   0  0  0  0  0  0  0  0  0  0  0  0
  -24.2020  -13.0790   20.8210 C   0  0  0  0  0  0  0  0  0  0  0  0
  -24.6740  -11.7340   20.7460 C   0  0  0  0  0  0  0  0  0  0  0  0
  -26.2820  -13.0000   20.1130 N   0  0  0  0  0  0  0  0  0  0  0  0
  -25.9490  -11.7120   20.3760 N   0  0  0  0  0  0  0  0  0  0  0  0
  -23.9660  -10.4620   20.9460 C   0  0  0  0  0  0  0  0  0  0  0  0
  -24.4240   -9.4990   21.8720 C   0  0  0  0  0  3  0  0  0  0  0  0
  -23.7140   -8.2940   22.0600 C   0  0  0  0  0  3  0  0  0  0  0  0
  -22.5300   -8.0450   21.3250 C   0  0  0  0  0  0  0  0  0  0  0  0
  -22.0920   -8.9970   20.3890 C   0  0  0  0  0  3  0  0  0  0  0  0
  -22.8030  -10.1930   20.1980 C   0  0  0  0  0  3  0  0  0  0  0  0
  -21.7890   -6.8920   21.4260 O   0  0  0  0  0  0  0  0  0  0  0  0
  -21.7300   -6.1710   22.5920 C   0  0  0  0  0  0  0  0  0  0  0  0
  -21.2700   -6.7420   23.7980 C   0  0  0  0  0  3  0  0  0  0  0  0
  -21.1630   -5.9500   24.9570 C   0  0  0  0  0  3  0  0  0  0  0  0
  -21.5040   -4.5840   24.9110 C   0  0  0  0  0  0  0  0  0  0  0  0
  -21.9600   -4.0130   23.7090 C   0  0  0  0  0  3  0  0  0  0  0  0
  -22.0690   -4.8040   22.5530 C   0  0  0  0  0  0  0  0  0  0  0  0
  -22.4870   -4.2420   21.3920 F   0  0  0  0  0  0  0  0  0  0  0  0
  -21.3950   -3.8200   26.0230 F   0  0  0  0  0  0  0  0  0  0  0  0
  -22.8160  -13.5410   21.1620 C   0  0  0  0  0  0  0  0  0  0  0  0
  -22.1350  -12.8270   22.0520 N   0  0  0  0  0  0  0  0  0  0  0  0
  -22.3450  -14.5680   20.6760 O   0  0  0  0  0  0  0  0  0  0  0  0
  -22.5300  -11.9940   22.4650 H   0  0  0  0  0  0  0  0  0  0  0  0
  -21.2100  -13.1190   22.3290 H   0  0  0  0  0  0  0  0  0  0  0  0
  -25.3910  -15.2420   20.2480 N   0  0  0  0  0  0  0  0  0  0  0  0
  -24.6270  -15.8910   20.4120 H   0  0  0  0  0  0  0  0  0  0  0  0
  -26.2030  -15.6890   19.8410 H   0  0  0  0  0  0  0  0  0  0  0  0
  1  2  2  0
  1  3  1  0
  4  3  2  0
  4  5  1  0
  6 17  2  0
  7  5  1  0
  7 12  1  0
  8 16  1  0
  8 18  1  0
  9 15  1  0
  9 11  1  0
 10 16  1  0
 11 10  1  0
 12 11  2  0
 13 14  1  0
 13  7  2  0
 14  9  2  0
 15  8  1  0
 16  6  1  0
 18 20  2  0
 19 18  1  0
 21 19  1  0
 22 31  2  0
 22 27  1  0
 23 19  1  0
 23 27  1  0
 24 23  1  0
 25 26  1  0
 25 24  1  0
 26 22  1  0
 27 28  2  0
 28 29  1  0
 30 29  2  0
 31 30  1  0
 32  6  1  0
 32 37  1  0
 32 33  1  0
 33 36  1  1
 33 34  1  0
 35 33  1  0
 37 40  1  0
 38 42  1  0
 38 37  1  0
 39 38  2  0
 42 41  1  0
 44 45  1  0
 44 42  1  0
 44 43  1  0
 46  1  1  0
 46 50  1  0
 47 51  2  0
 48 50  1  0
 48 49  1  0
 49 60  1  0
 49 47  1  0
 50 47  1  0
 52 60  1  0
 53 58  1  0
 54 55  1  0
 54 53  1  0
 56 55  1  0
 56 65  1  0
 56 57  1  0
 58 52  1  0
 58 57  1  0
 59 52  2  0
 60 61  1  0
 62 63  2  0
 63 82  1  0
 64 63  1  0
 64 67  1  0
 65 66  1  0
 65 62  1  0
 66 64  2  0
 67 68  1  0
 68 69  2  0
 70 73  1  0
 70 69  1  0
 71 70  2  0
 72 71  1  0
 72 67  2  0
 73 74  1  0
 74 75  1  0
 75 76  2  0
 77 76  1  0
 77 81  1  0
 78 77  2  0
 79 74  2  0
 79 78  1  0
 80 79  1  0
 82 83  1  0
 83 86  1  0
 83 85  1  0
 84 82  2  0
 87 88  1  0
 87 62  1  0
 89 87  1  0
M  ISO  4   4 101   5 101  52 100  60 100
M  END
>  <TORSDO>  (82) 
F 20

>  <SCORE>  (82) 
-13.142

>  <name>  (82) 
81

>  <ligand_id>  (82) 
81

>  <original_smiles>  (82) 
[H]c1c([H])c([H])c2c(c1[H])C([H])([H])C([H])([H])C([H])([H])C2([H])N([H])C(=O)C1([H])N(C(=O)C([H])(N([H])C(=O)C([H])(N([H])C([H])([H])[H])C([H])([H])[H])C(C([H])([H])[H])(C([H])([H])[H])C([H])([H])[H])C([H])([H])c2c([H])c(OC([H])([H])C([H])([H])C(=O)C([H])([H])N3C(=O)C([H])(N([H])C(=O)N4C([H])([H])C([H])([H])C([H])([H])C([H])(n5nc(-c6c([H])c([H])c(Oc7c([H])c([H])c(F)c([H])c7F)c([H])c6[H])c(C(=O)N([H])[H])c5N([H])[H])C4([H])[H])C3([H])[H])c([H])c([H])c2C1([H])[H]

>  <smiles>  (82) 
[H]c1c([H])c([H])c2c(c1[H])C([H])([H])C([H])([H])C([H])([H])C2([H])N([H])C(=O)C1([H])N(C(=O)C([H])(N([H])C(=O)C([H])(N([H])C([H])([H])[H])C([H])([H])[H])C(C([H])([H])[H])(C([H])([H])[H])C([H])([H])[H])C([H])([H])c2c([H])c(OC([H])([H])C([H])([H])C(=O)C([H])([H])N3C(=O)C([H])(N([H])C(=O)N4C([H])([H])C([H])([H])C([H])([H])C([H])(n5nc(-c6c([H])c([H])c(Oc7c([H])c([H])c(F)c([H])c7F)c([H])c6[H])c(C(=O)N([H])[H])c5N([H])[H])C4([H])[H])C3([H])[H])c([H])c([H])c2C1([H])[H]

$$$$
82:0:0
     RDKit          3D

 88 96  0  0  1  0  0  0  0  0999 V2000
  -28.4720  -22.0230   19.9760 C   0  0  0  0  0  2  0  0  0  0  0  0
  -29.9900  -19.9070   20.8880 C   0  0  0  0  0  0  0  0  0  0  0  0
  -29.1420  -19.4610   19.0650 C   0  0  0  0  0  2  0  0  0  0  0  0
  -30.0700  -18.5820   19.9800 C   0  0  0  0  0  3  0  0  0  0  0  0
  -29.2520  -20.6710   19.9690 N   0  0  0  0  0  0  0  0  0  0  0  0
  -30.3820  -20.2230   21.9920 O   0  0  0  0  0  0  0  0  0  0  0  0
  -29.4750  -17.1800   20.5810 C   0  0  0  0  0  0  0  0  0  0  0  0
  -28.1630  -17.4210   21.3360 C   0  0  0  0  0  1  0  0  0  0  0  0
  -29.7460  -15.8670   20.5970 N   0  0  0  0  0  0  0  0  0  0  0  0
  -30.6830  -14.9260   20.0290 C   0  0  0  0  0  0  0  0  0  0  0  0
  -30.5860  -12.6500   18.9210 C   0  0  0  0  0  2  0  0  0  0  0  0
  -29.5500  -12.6940   17.7700 C   0  0  0  0  0  2  0  0  0  0  0  0
  -28.1090  -12.4730   18.2760 C   0  0  0  0  0  2  0  0  0  0  0  0
  -27.8020  -13.3170   19.5360 C   0  0  0  0  0  3  0  0  0  0  0  0
  -28.9250  -13.1740   20.5810 C   0  0  0  0  0  2  0  0  0  0  0  0
  -30.1770  -13.6370   19.9510 N   0  0  0  0  0  0  0  0  0  0  0  0
  -31.7900  -15.1610   19.5360 O   0  0  0  0  0  0  0  0  0  0  0  0
  -25.4600  -13.8880   20.4220 C   0  0  0  0  0  0  0  0  0  0  0  0
  -24.4210  -13.1020   20.8400 C   0  0  0  0  0  0  0  0  0  0  0  0
  -24.8830  -11.7530   20.7340 C   0  0  0  0  0  0  0  0  0  0  0  0
  -26.4870  -13.0170   20.0980 N   0  0  0  0  0  0  0  0  0  0  0  0
  -26.1510  -11.7260   20.3410 N   0  0  0  0  0  0  0  0  0  0  0  0
  -24.1710  -10.4840   20.9230 C   0  0  0  0  0  0  0  0  0  0  0  0
  -24.6020   -9.5300   21.8700 C   0  0  0  0  0  3  0  0  0  0  0  0
  -23.8880   -8.3240   22.0480 C   0  0  0  0  0  3  0  0  0  0  0  0
  -22.7310   -8.0660   21.2750 C   0  0  0  0  0  0  0  0  0  0  0  0
  -22.3220   -9.0090   20.3150 C   0  0  0  0  0  3  0  0  0  0  0  0
  -23.0370  -10.2050   20.1370 C   0  0  0  0  0  3  0  0  0  0  0  0
  -21.9910   -6.9120   21.3590 O   0  0  0  0  0  0  0  0  0  0  0  0
  -21.8360   -6.2390   22.5460 C   0  0  0  0  0  0  0  0  0  0  0  0
  -21.2740   -6.8580   23.6830 C   0  0  0  0  0  3  0  0  0  0  0  0
  -21.0670   -6.1100   24.8610 C   0  0  0  0  0  3  0  0  0  0  0  0
  -21.4190   -4.7460   24.8990 C   0  0  0  0  0  0  0  0  0  0  0  0
  -21.9780   -4.1310   23.7660 C   0  0  0  0  0  3  0  0  0  0  0  0
  -22.1830   -4.8750   22.5930 C   0  0  0  0  0  0  0  0  0  0  0  0
  -22.6990   -4.2700   21.4950 F   0  0  0  0  0  0  0  0  0  0  0  0
  -21.2160   -4.0280   26.0270 F   0  0  0  0  0  0  0  0  0  0  0  0
  -23.0450  -13.5670   21.2190 C   0  0  0  0  0  0  0  0  0  0  0  0
  -22.3790  -12.8430   22.1120 N   0  0  0  0  0  0  0  0  0  0  0  0
  -22.5710  -14.6060   20.7620 O   0  0  0  0  0  0  0  0  0  0  0  0
  -22.7800  -12.0070   22.5070 H   0  0  0  0  0  0  0  0  0  0  0  0
  -21.4580  -13.1330   22.4100 H   0  0  0  0  0  0  0  0  0  0  0  0
  -25.6110  -15.2610   20.2630 N   0  0  0  0  0  0  0  0  0  0  0  0
  -24.8430  -15.9130   20.3780 H   0  0  0  0  0  0  0  0  0  0  0  0
  -26.4400  -15.6840   19.8630 H   0  0  0  0  0  0  0  0  0  0  0  0
  -29.0450  -23.5400   20.2810 C   0  0  0  0  0  3  0  0  0  0  0  0
  -28.0560  -24.8340   19.9970 C   0  0  0  0  0  3  0  0  0  0  0  0
  -28.3300  -26.3270   20.2170 O   0  0  0  0  0  0  0  0  0  0  0  0
  -24.6630  -31.8650   23.2790 C   0  0  0  0  0  0  0  0  0  0  0  0
  -27.2510  -27.2670   20.1550 C   0  0  0  0  0  0  0  0  0  0  0  0
  -23.4530  -30.5040   21.6130 C   0  0  0  0  0  3  0  0  0  0  0  0
  -24.9030  -28.9580   20.1670 C   0  0  0  0  0  0  0  0  0  0  0  0
  -26.0000  -30.7930   21.4400 C   0  0  0  0  0  2  0  0  0  0  0  0
  -26.0810  -29.4160   20.7680 C   0  0  0  0  0  0  0  0  0  0  0  0
  -27.2560  -28.5870   20.7440 C   0  0  0  0  0  3  0  0  0  0  0  0
  -26.0430  -26.8960   19.5180 C   0  0  0  0  0  3  0  0  0  0  0  0
  -24.8930  -27.7100   19.5280 C   0  0  0  0  0  3  0  0  0  0  0  0
  -23.6730  -29.8430   20.2240 C   0  0  0  0  0  2  0  0  0  0  0  0
  -24.7250  -31.0680   22.1680 N   0  0  0  0  0  0  0  0  0  0  0  0
  -23.5820  -32.1350   23.8220 O   0  0  0  0  0  0  0  0  0  0  0  0
  -22.7830  -29.4760   22.5560 C   0  0  0  0  0  0  0  0  0  0  0  0
  -21.4600  -29.2860   22.4100 N   0  0  0  0  0  0  0  0  0  0  0  0
  -23.4540  -28.8540   23.3810 O   0  0  0  0  0  0  0  0  0  0  0  0
  -20.9730  -29.8440   21.7200 H   0  0  0  0  0  0  0  0  0  0  0  0
  -18.1000  -28.0180   22.8570 C   0  0  0  0  0  0  0  0  0  0  0  0
  -20.6460  -28.3330   23.1670 C   0  0  0  0  0  3  0  0  0  0  0  0
  -20.7820  -26.8990   22.6000 C   0  0  0  0  0  2  0  0  0  0  0  0
  -19.7070  -26.5540   21.5640 C   0  0  0  0  0  2  0  0  0  0  0  0
  -18.3130  -26.6730   22.1850 C   0  0  0  0  0  2  0  0  0  0  0  0
  -19.1940  -28.8040   23.3060 C   0  0  0  0  0  0  0  0  0  0  0  0
  -18.9410  -30.0600   23.8970 C   0  0  0  0  0  3  0  0  0  0  0  0
  -17.6240  -30.5350   24.0390 C   0  0  0  0  0  3  0  0  0  0  0  0
  -16.5420  -29.7500   23.6010 C   0  0  0  0  0  3  0  0  0  0  0  0
  -16.7820  -28.4910   23.0190 C   0  0  0  0  0  3  0  0  0  0  0  0
  -25.9470  -32.4890   23.9050 C   0  0  0  0  0  3  0  0  0  0  0  0
  -26.4360  -31.7310   25.1990 C   0  0  1  0  0  0  0  0  0  0  0  0
  -25.3270  -31.5220   26.2560 C   0  0  0  0  0  1  0  0  0  0  0  0
  -27.0020  -30.3390   24.8370 C   0  0  0  0  0  1  0  0  0  0  0  0
  -27.5870  -32.5180   25.8690 C   0  0  0  0  0  1  0  0  0  0  0  0
  -25.6500  -33.8940   24.2180 N   0  0  0  0  0  0  0  0  0  0  0  0
  -25.9730  -34.9350   23.4400 C   0  0  0  0  0  0  0  0  0  0  0  0
  -26.6180  -34.8130   22.3940 O   0  0  0  0  0  0  0  0  0  0  0  0
  -25.0710  -34.0630   25.0270 H   0  0  0  0  0  0  0  0  0  0  0  0
  -24.2340  -36.7260   23.1170 C   0  0  0  0  0  1  0  0  0  0  0  0
  -25.5060  -36.3340   23.8860 C   0  0  0  0  0  3  0  0  0  0  0  0
  -27.6650  -37.2380   24.6260 C   0  0  0  0  0  1  0  0  0  0  0  0
  -26.5340  -37.3830   23.7140 N   0  0  0  0  0  0  0  0  0  0  0  0
  -26.1320  -38.3040   23.8630 H   0  0  0  0  0  0  0  0  0  0  0  0
  1 46  1  0
  2  6  2  0
  3  5  1  0
  3  4  1  0
  4  7  1  0
  4  2  1  0
  5  1  1  0
  5  2  1  0
  7  9  2  0
  7  8  1  0
 10  9  1  0
 11 16  1  0
 12 13  1  0
 12 11  1  0
 14 13  1  0
 14 21  1  0
 14 15  1  0
 16 10  1  0
 16 15  1  0
 17 10  2  0
 18 19  2  0
 19 38  1  0
 20 19  1  0
 20 23  1  0
 21 22  1  0
 21 18  1  0
 22 20  2  0
 23 24  1  0
 24 25  2  0
 26 29  1  0
 26 25  1  0
 27 26  2  0
 28 27  1  0
 28 23  2  0
 29 30  1  0
 30 35  2  0
 30 31  1  0
 31 32  2  0
 32 33  1  0
 33 37  1  0
 34 33  2  0
 35 34  1  0
 36 35  1  0
 38 39  1  0
 39 42  1  0
 39 41  1  0
 40 38  2  0
 43 44  1  0
 43 18  1  0
 45 43  1  0
 47 48  1  0
 47 46  2  0
 49 60  2  0
 50 48  1  0
 50 55  1  0
 51 59  1  0
 51 61  1  0
 52 58  1  0
 52 54  1  0
 53 59  1  0
 54 53  1  0
 55 54  2  0
 56 57  1  0
 56 50  2  0
 57 52  2  0
 58 51  1  0
 59 49  1  0
 61 63  2  0
 62 61  1  0
 64 62  1  0
 65 74  2  0
 65 70  1  0
 66 62  1  0
 66 70  1  0
 67 66  1  0
 68 69  1  0
 68 67  1  0
 69 65  1  0
 70 71  2  0
 71 72  1  0
 73 72  2  0
 74 73  1  0
 75 49  1  0
 75 80  1  0
 75 76  1  0
 76 79  1  1
 76 77  1  0
 78 76  1  0
 80 83  1  0
 81 85  1  0
 81 80  1  0
 82 81  2  0
 85 84  1  0
 87 88  1  0
 87 85  1  0
 87 86  1  0
M  ISO  4   9 100  10 100  47 101  48 101
M  END
>  <TORSDO>  (83) 
F 20

>  <SCORE>  (83) 
-12.395

>  <name>  (83) 
82

>  <ligand_id>  (83) 
82

>  <original_smiles>  (83) 
[H]c1c([H])c([H])c2c(c1[H])C([H])([H])C([H])([H])C([H])([H])C2([H])N([H])C(=O)C1([H])N(C(=O)C([H])(N([H])C(=O)C([H])(N([H])C([H])([H])[H])C([H])([H])[H])C(C([H])([H])[H])(C([H])([H])[H])C([H])([H])[H])C([H])([H])c2c([H])c(OC([H])([H])C([H])([H])C([H])([H])N3C(=O)C([H])(C(=NC(=O)N4C([H])([H])C([H])([H])C([H])([H])C([H])(n5nc(-c6c([H])c([H])c(Oc7c([H])c([H])c(F)c([H])c7F)c([H])c6[H])c(C(=O)N([H])[H])c5N([H])[H])C4([H])[H])C([H])([H])[H])C3([H])[H])c([H])c([H])c2C1([H])[H]

>  <smiles>  (83) 
[H]c1c([H])c([H])c2c(c1[H])C([H])([H])C([H])([H])C([H])([H])C2([H])N([H])C(=O)C1([H])N(C(=O)C([H])(N([H])C(=O)C([H])(N([H])C([H])([H])[H])C([H])([H])[H])C(C([H])([H])[H])(C([H])([H])[H])C([H])([H])[H])C([H])([H])c2c([H])c(OC([H])([H])C([H])([H])C([H])([H])N3C(=O)C([H])(C(=NC(=O)N4C([H])([H])C([H])([H])C([H])([H])C([H])(n5nc(-c6c([H])c([H])c(Oc7c([H])c([H])c(F)c([H])c7F)c([H])c6[H])c(C(=O)N([H])[H])c5N([H])[H])C4([H])[H])C([H])([H])[H])C3([H])[H])c([H])c([H])c2C1([H])[H]

$$$$
83:0:0
     RDKit          3D

 96105  0  0  1  0  0  0  0  0999 V2000
  -31.7230  -20.5050   22.2200 C   0  0  0  0  0  0  0  0  0  0  0  0
  -32.9020  -19.8650   22.1540 C   0  0  0  0  0  2  0  0  0  0  0  0
  -31.1930  -21.2130   23.4320 C   0  0  0  0  0  2  0  0  0  0  0  0
  -30.4530  -22.3930   22.8110 C   0  0  0  0  0  2  0  0  0  0  0  0
  -30.7860  -20.7670   21.0560 C   0  0  0  0  0  3  0  0  0  0  0  0
  -29.9040  -21.9050   21.5170 N   0  0  2  0  0  4  0  0  0  0  0  0
  -29.0240  -21.4690   21.7470 H   0  0  0  0  0  0  0  0  0  0  0  0
  -29.3160  -19.6640   19.3300 C   0  0  0  0  0  3  0  0  0  0  0  0
  -28.7090  -18.5620   18.7170 C   0  0  0  0  0  3  0  0  0  0  0  0
  -30.1780  -18.1850   21.0730 C   0  0  0  0  0  3  0  0  0  0  0  0
  -30.0600  -19.5040   20.5140 C   0  0  0  0  0  0  0  0  0  0  0  0
  -28.8310  -17.2700   19.2600 C   0  0  0  0  0  0  0  0  0  0  0  0
  -29.5840  -17.0400   20.4500 C   0  0  0  0  0  0  0  0  0  0  0  0
  -28.1010  -16.1780   18.5110 C   0  0  0  0  0  1  0  0  0  0  0  0
  -30.4880  -14.7000   20.8690 C   0  0  0  0  0  0  0  0  0  0  0  0
  -30.4310  -12.4000   19.9510 C   0  0  0  0  0  2  0  0  0  0  0  0
  -29.5530  -12.4030   18.6810 C   0  0  0  0  0  2  0  0  0  0  0  0
  -28.0550  -12.2660   19.0310 C   0  0  0  0  0  2  0  0  0  0  0  0
  -27.6050  -13.1510   20.2260 C   0  0  0  0  0  3  0  0  0  0  0  0
  -28.6110  -13.0850   21.3940 C   0  0  0  0  0  2  0  0  0  0  0  0
  -29.9310  -13.4510   20.8560 N   0  0  0  0  0  0  0  0  0  0  0  0
  -31.6640  -14.8990   20.5560 O   0  0  0  0  0  0  0  0  0  0  0  0
  -29.6110  -15.7260   21.0730 N   0  0  0  0  0  0  0  0  0  0  0  0
  -28.7070  -15.3930   21.3720 H   0  0  0  0  0  0  0  0  0  0  0  0
  -25.1650  -13.7070   20.8180 C   0  0  0  0  0  0  0  0  0  0  0  0
  -24.1040  -12.9070   21.1420 C   0  0  0  0  0  0  0  0  0  0  0  0
  -24.6050  -11.5700   21.1460 C   0  0  0  0  0  0  0  0  0  0  0  0
  -26.2430  -12.8510   20.6480 N   0  0  0  0  0  0  0  0  0  0  0  0
  -25.9090  -11.5640   20.9060 N   0  0  0  0  0  0  0  0  0  0  0  0
  -23.9120  -10.2880   21.3080 C   0  0  0  0  0  0  0  0  0  0  0  0
  -24.3480   -9.3290   22.2480 C   0  0  0  0  0  3  0  0  0  0  0  0
  -23.6530   -8.1100   22.4030 C   0  0  0  0  0  3  0  0  0  0  0  0
  -22.5110   -7.8400   21.6100 C   0  0  0  0  0  0  0  0  0  0  0  0
  -22.0990   -8.7870   20.6570 C   0  0  0  0  0  3  0  0  0  0  0  0
  -22.7930   -9.9980   20.5020 C   0  0  0  0  0  3  0  0  0  0  0  0
  -21.7890   -6.6730   21.6690 O   0  0  0  0  0  0  0  0  0  0  0  0
  -21.7420   -5.9150   22.8110 C   0  0  0  0  0  0  0  0  0  0  0  0
  -21.2810   -6.4400   24.0380 C   0  0  0  0  0  3  0  0  0  0  0  0
  -21.1880   -5.6060   25.1690 C   0  0  0  0  0  3  0  0  0  0  0  0
  -21.5450   -4.2470   25.0740 C   0  0  0  0  0  0  0  0  0  0  0  0
  -21.9980   -3.7210   23.8510 C   0  0  0  0  0  3  0  0  0  0  0  0
  -22.0950   -4.5530   22.7220 C   0  0  0  0  0  0  0  0  0  0  0  0
  -22.5100   -4.0370   21.5410 F   0  0  0  0  0  0  0  0  0  0  0  0
  -21.4460   -3.4420   26.1580 F   0  0  0  0  0  0  0  0  0  0  0  0
  -22.6810  -13.3420   21.3450 C   0  0  0  0  0  0  0  0  0  0  0  0
  -21.9350  -12.6310   22.1830 N   0  0  0  0  0  0  0  0  0  0  0  0
  -22.2360  -14.3480   20.7940 O   0  0  0  0  0  0  0  0  0  0  0  0
  -22.3060  -11.8160   22.6510 H   0  0  0  0  0  0  0  0  0  0  0  0
  -20.9780  -12.9060   22.3590 H   0  0  0  0  0  0  0  0  0  0  0  0
  -25.2960  -15.0810   20.6380 N   0  0  0  0  0  0  0  0  0  0  0  0
  -24.5030  -15.7090   20.7000 H   0  0  0  0  0  0  0  0  0  0  0  0
  -26.1550  -15.5510   20.3830 H   0  0  0  0  0  0  0  0  0  0  0  0
  -29.6020  -22.9910   20.5090 C   0  0  0  0  0  2  0  0  0  0  0  0
  -29.1840  -24.4120   21.0510 C   0  0  0  0  0  2  0  0  0  0  0  0
  -28.3910  -25.2980   20.0340 C   0  0  0  0  0  2  0  0  0  0  0  0
  -28.3670  -26.7170   20.3480 O   0  0  0  0  0  0  0  0  0  0  0  0
  -24.5760  -31.9790   23.2970 C   0  0  0  0  0  0  0  0  0  0  0  0
  -27.1890  -27.4560   20.2720 C   0  0  0  0  0  0  0  0  0  0  0  0
  -23.3590  -30.5730   21.6660 C   0  0  0  0  0  3  0  0  0  0  0  0
  -24.8020  -29.0090   20.2560 C   0  0  0  0  0  0  0  0  0  0  0  0
  -25.8900  -30.9040   21.4690 C   0  0  0  0  0  2  0  0  0  0  0  0
  -25.9650  -29.5240   20.8400 C   0  0  0  0  0  0  0  0  0  0  0  0
  -27.1560  -28.7550   20.8440 C   0  0  0  0  0  3  0  0  0  0  0  0
  -26.0070  -26.9800   19.6530 C   0  0  0  0  0  3  0  0  0  0  0  0
  -24.8210  -27.7400   19.6570 C   0  0  0  0  0  3  0  0  0  0  0  0
  -23.5650  -29.8800   20.2920 C   0  0  0  0  0  2  0  0  0  0  0  0
  -24.6260  -31.1680   22.2010 N   0  0  0  0  0  0  0  0  0  0  0  0
  -23.4960  -32.2640   23.8340 O   0  0  0  0  0  0  0  0  0  0  0  0
  -22.6980  -29.5660   22.6370 C   0  0  0  0  0  0  0  0  0  0  0  0
  -21.3780  -29.3760   22.4950 N   0  0  0  0  0  0  0  0  0  0  0  0
  -23.3740  -28.9610   23.4740 O   0  0  0  0  0  0  0  0  0  0  0  0
  -20.8950  -29.9140   21.7900 H   0  0  0  0  0  0  0  0  0  0  0  0
  -18.0070  -28.1490   22.9510 C   0  0  0  0  0  0  0  0  0  0  0  0
  -20.5550  -28.4490   23.2730 C   0  0  0  0  0  3  0  0  0  0  0  0
  -20.6890  -27.0050   22.7390 C   0  0  0  0  0  2  0  0  0  0  0  0
  -19.6150  -26.6400   21.7090 C   0  0  0  0  0  2  0  0  0  0  0  0
  -18.2170  -26.7850   22.3170 C   0  0  0  0  0  2  0  0  0  0  0  0
  -19.1070  -28.9370   23.3870 C   0  0  0  0  0  0  0  0  0  0  0  0
  -18.8590  -30.2110   23.9390 C   0  0  0  0  0  3  0  0  0  0  0  0
  -17.5440  -30.7000   24.0640 C   0  0  0  0  0  3  0  0  0  0  0  0
  -16.4600  -29.9110   23.6420 C   0  0  0  0  0  3  0  0  0  0  0  0
  -16.6920  -28.6390   23.0910 C   0  0  0  0  0  3  0  0  0  0  0  0
  -25.8650  -32.6050   23.9110 C   0  0  0  0  0  3  0  0  0  0  0  0
  -26.3820  -31.8410   25.1920 C   0  0  1  0  0  0  0  0  0  0  0  0
  -25.2890  -31.6170   26.2620 C   0  0  0  0  0  1  0  0  0  0  0  0
  -26.9580  -30.4580   24.8100 C   0  0  0  0  0  1  0  0  0  0  0  0
  -27.5370  -32.6360   25.8470 C   0  0  0  0  0  1  0  0  0  0  0  0
  -25.5640  -34.0070   24.2300 N   0  0  0  0  0  0  0  0  0  0  0  0
  -25.9020  -35.0520   23.4610 C   0  0  0  0  0  0  0  0  0  0  0  0
  -26.5700  -34.9370   22.4310 O   0  0  0  0  0  0  0  0  0  0  0  0
  -24.9640  -34.1720   25.0240 H   0  0  0  0  0  0  0  0  0  0  0  0
  -24.1820  -36.8530   23.0970 C   0  0  0  0  0  1  0  0  0  0  0  0
  -25.4210  -36.4460   23.9090 C   0  0  0  0  0  3  0  0  0  0  0  0
  -27.5650  -37.3250   24.7260 C   0  0  0  0  0  1  0  0  0  0  0  0
  -26.4590  -37.4940   23.7860 N   0  0  0  0  0  0  0  0  0  0  0  0
  -26.0560  -38.4160   23.9300 H   0  0  0  0  0  0  0  0  0  0  0  0
  1  3  1  0
  2  1  2  0
  4  3  1  0
  5 11  1  0
  5  6  1  0
  5  1  1  0
  6  7  1  1
  6  4  1  0
  8 11  1  0
  9 12  1  0
  9  8  2  0
 11 10  2  0
 12 13  2  0
 13 23  1  0
 13 10  1  0
 14 12  1  0
 15 23  1  0
 16 21  1  0
 17 18  1  0
 17 16  1  0
 19 18  1  0
 19 28  1  0
 19 20  1  0
 21 15  1  0
 21 20  1  0
 22 15  2  0
 23 24  1  0
 25 26  2  0
 26 27  1  0
 26 45  1  0
 27 30  1  0
 28 25  1  0
 28 29  1  0
 29 27  2  0
 30 31  1  0
 31 32  2  0
 33 36  1  0
 33 32  1  0
 34 33  2  0
 35 34  1  0
 35 30  2  0
 36 37  1  0
 37 38  1  0
 38 39  2  0
 40 39  1  0
 40 44  1  0
 41 40  2  0
 42 37  2  0
 42 41  1  0
 43 42  1  0
 45 46  1  0
 46 49  1  0
 46 48  1  0
 47 45  2  0
 50 51  1  0
 50 25  1  0
 52 50  1  0
 53 54  1  0
 53  6  1  0
 55 56  1  0
 55 54  1  0
 57 68  2  0
 58 56  1  0
 58 63  1  0
 59 67  1  0
 59 69  1  0
 60 66  1  0
 60 62  1  0
 61 67  1  0
 62 63  2  0
 62 61  1  0
 64 65  1  0
 64 58  2  0
 65 60  2  0
 66 59  1  0
 67 57  1  0
 69 71  2  0
 70 69  1  0
 72 70  1  0
 73 82  2  0
 73 78  1  0
 74 70  1  0
 74 78  1  0
 75 74  1  0
 76 77  1  0
 76 75  1  0
 77 73  1  0
 78 79  2  0
 79 80  1  0
 81 80  2  0
 82 81  1  0
 83 57  1  0
 83 88  1  0
 83 84  1  0
 84 87  1  1
 84 85  1  0
 86 84  1  0
 88 91  1  0
 89 93  1  0
 89 88  1  0
 90 89  2  0
 93 92  1  0
 95 93  1  0
 95 96  1  0
 95 94  1  0
M  ISO  4  15 100  23 100  55 101  56 101
M  END
>  <TORSDO>  (84) 
F 20

>  <SCORE>  (84) 
-13.906

>  <name>  (84) 
83

>  <ligand_id>  (84) 
83

>  <original_smiles>  (84) 
[H]C([H])=C1C([H])([H])C([H])([H])[N+]([H])(C([H])([H])C([H])([H])C([H])([H])Oc2c([H])c([H])c3c(c2[H])C([H])([H])N(C(=O)C([H])(N([H])C(=O)C([H])(N([H])C([H])([H])[H])C([H])([H])[H])C(C([H])([H])[H])(C([H])([H])[H])C([H])([H])[H])C([H])(C(=O)N([H])C2([H])c4c([H])c([H])c([H])c([H])c4C([H])([H])C([H])([H])C2([H])[H])C3([H])[H])C1([H])c1c([H])c([H])c(C([H])([H])[H])c(N([H])C(=O)N2C([H])([H])C([H])([H])C([H])([H])C([H])(n3nc(-c4c([H])c([H])c(Oc5c([H])c([H])c(F)c([H])c5F)c([H])c4[H])c(C(=O)N([H])[H])c3N([H])[H])C2([H])[H])c1[H]

>  <smiles>  (84) 
[H]C([H])=C1C([H])([H])C([H])([H])[N+]([H])(C([H])([H])C([H])([H])C([H])([H])Oc2c([H])c([H])c3c(c2[H])C([H])([H])N(C(=O)C([H])(N([H])C(=O)C([H])(N([H])C([H])([H])[H])C([H])([H])[H])C(C([H])([H])[H])(C([H])([H])[H])C([H])([H])[H])C([H])(C(=O)N([H])C2([H])c4c([H])c([H])c([H])c([H])c4C([H])([H])C([H])([H])C2([H])[H])C3([H])[H])C1([H])c1c([H])c([H])c(C([H])([H])[H])c(N([H])C(=O)N2C([H])([H])C([H])([H])C([H])([H])C([H])(n3nc(-c4c([H])c([H])c(Oc5c([H])c([H])c(F)c([H])c5F)c([H])c4[H])c(C(=O)N([H])[H])c3N([H])[H])C2([H])[H])c1[H]

$$$$
84:0:0
     RDKit          3D

 90 98  0  0  1  0  0  0  0  0999 V2000
  -29.4250  -22.0770   19.7670 N   0  0  0  0  0  0  0  0  0  0  0  0
  -30.5520  -22.9310   17.5560 C   0  0  0  0  0  2  0  0  0  0  0  0
  -30.1360  -22.1740   18.5590 C   0  0  0  0  0  3  0  0  0  0  0  0
  -30.8650  -21.6780   17.6670 C   0  0  0  0  0  0  0  0  0  0  0  0
  -31.4770  -20.7080   17.2120 O   0  0  0  0  0  0  0  0  0  0  0  0
  -27.9680  -20.5410   21.1090 C   0  0  0  0  0  1  0  0  0  0  0  0
  -29.3870  -20.6740   20.4930 C   0  0  0  0  0  3  0  0  0  0  0  0
  -29.7330  -19.1650   19.7650 C   0  0  0  0  0  2  0  0  0  0  0  0
  -30.1590  -17.7310   20.5760 C   0  0  0  0  0  2  0  0  0  0  0  0
  -30.5760  -15.0240   20.1010 C   0  0  0  0  0  0  0  0  0  0  0  0
  -30.4020  -12.6840   19.1270 C   0  0  0  0  0  2  0  0  0  0  0  0
  -29.4360  -12.6640   17.9230 C   0  0  0  0  0  2  0  0  0  0  0  0
  -27.9910  -12.4440   18.4110 C   0  0  0  0  0  2  0  0  0  0  0  0
  -27.6180  -13.3570   19.6090 C   0  0  0  0  0  3  0  0  0  0  0  0
  -28.7120  -13.3550   20.6960 C   0  0  0  0  0  2  0  0  0  0  0  0
  -29.9570  -13.7730   20.0390 N   0  0  0  0  0  0  0  0  0  0  0  0
  -31.7850  -15.0770   19.8650 O   0  0  0  0  0  0  0  0  0  0  0  0
  -29.8130  -16.2210   20.2160 N   0  0  0  0  0  0  0  0  0  0  0  0
  -28.8230  -16.0240   20.2500 H   0  0  0  0  0  0  0  0  0  0  0  0
  -25.2590  -13.9290   20.4080 C   0  0  0  0  0  0  0  0  0  0  0  0
  -24.2050  -13.1530   20.7970 C   0  0  0  0  0  0  0  0  0  0  0  0
  -24.6720  -11.8030   20.7560 C   0  0  0  0  0  0  0  0  0  0  0  0
  -26.2990  -13.0580   20.1440 N   0  0  0  0  0  0  0  0  0  0  0  0
  -25.9550  -11.7710   20.4180 N   0  0  0  0  0  0  0  0  0  0  0  0
  -23.9530  -10.5390   20.9600 C   0  0  0  0  0  0  0  0  0  0  0  0
  -24.4030   -9.5760   21.8910 C   0  0  0  0  0  3  0  0  0  0  0  0
  -23.6820   -8.3770   22.0830 C   0  0  0  0  0  3  0  0  0  0  0  0
  -22.5000   -8.1340   21.3460 C   0  0  0  0  0  0  0  0  0  0  0  0
  -22.0710   -9.0860   20.4050 C   0  0  0  0  0  3  0  0  0  0  0  0
  -22.7900  -10.2740   20.2110 C   0  0  0  0  0  3  0  0  0  0  0  0
  -21.7480   -6.9860   21.4500 O   0  0  0  0  0  0  0  0  0  0  0  0
  -21.7140   -6.2510   22.6080 C   0  0  0  0  0  0  0  0  0  0  0  0
  -21.2870   -6.8090   23.8320 C   0  0  0  0  0  3  0  0  0  0  0  0
  -21.2010   -5.9990   24.9820 C   0  0  0  0  0  3  0  0  0  0  0  0
  -21.5340   -4.6320   24.9070 C   0  0  0  0  0  0  0  0  0  0  0  0
  -21.9540   -4.0750   23.6860 C   0  0  0  0  0  3  0  0  0  0  0  0
  -22.0410   -4.8840   22.5380 C   0  0  0  0  0  0  0  0  0  0  0  0
  -22.4300   -4.3360   21.3600 F   0  0  0  0  0  0  0  0  0  0  0  0
  -21.4420   -3.8510   26.0070 F   0  0  0  0  0  0  0  0  0  0  0  0
  -22.8130  -13.6280   21.0960 C   0  0  0  0  0  0  0  0  0  0  0  0
  -22.0980  -12.9300   21.9710 N   0  0  0  0  0  0  0  0  0  0  0  0
  -22.3640  -14.6550   20.5840 O   0  0  0  0  0  0  0  0  0  0  0  0
  -22.4700  -12.0970   22.4050 H   0  0  0  0  0  0  0  0  0  0  0  0
  -21.1690  -13.2390   22.2140 H   0  0  0  0  0  0  0  0  0  0  0  0
  -25.4090  -15.3020   20.2290 N   0  0  0  0  0  0  0  0  0  0  0  0
  -24.6350  -15.9430   20.3670 H   0  0  0  0  0  0  0  0  0  0  0  0
  -26.2270  -15.7500   19.8410 H   0  0  0  0  0  0  0  0  0  0  0  0
  -29.1490  -23.4690   20.4670 C   0  0  0  0  0  3  0  0  0  0  0  0
  -28.4610  -24.8310   19.7100 C   0  0  0  0  0  3  0  0  0  0  0  0
  -28.3900  -26.3000   20.2470 O   0  0  0  0  0  0  0  0  0  0  0  0
  -24.6260  -31.8800   23.2160 C   0  0  0  0  0  0  0  0  0  0  0  0
  -27.2700  -27.2240   20.1670 C   0  0  0  0  0  0  0  0  0  0  0  0
  -23.4280  -30.4900   21.5700 C   0  0  0  0  0  3  0  0  0  0  0  0
  -24.8900  -28.9210   20.1460 C   0  0  0  0  0  0  0  0  0  0  0  0
  -25.9770  -30.7770   21.4040 C   0  0  0  0  0  2  0  0  0  0  0  0
  -26.0650  -29.3850   20.7600 C   0  0  0  0  0  0  0  0  0  0  0  0
  -27.2430  -28.5480   20.7640 C   0  0  0  0  0  3  0  0  0  0  0  0
  -26.0700  -26.8580   19.5140 C   0  0  0  0  0  3  0  0  0  0  0  0
  -24.9070  -27.6640   19.5160 C   0  0  0  0  0  3  0  0  0  0  0  0
  -23.6450  -29.7980   20.1950 C   0  0  0  0  0  2  0  0  0  0  0  0
  -24.6950  -31.0740   22.1140 N   0  0  0  0  0  0  0  0  0  0  0  0
  -23.5400  -32.1590   23.7490 O   0  0  0  0  0  0  0  0  0  0  0  0
  -22.7480  -29.4850   22.5420 C   0  0  0  0  0  0  0  0  0  0  0  0
  -21.4300  -29.2920   22.3950 N   0  0  0  0  0  0  0  0  0  0  0  0
  -23.4210  -28.8710   23.3740 O   0  0  0  0  0  0  0  0  0  0  0  0
  -20.9540  -29.8210   21.6780 H   0  0  0  0  0  0  0  0  0  0  0  0
  -18.0500  -28.0610   22.8630 C   0  0  0  0  0  0  0  0  0  0  0  0
  -20.6060  -28.3560   23.1650 C   0  0  0  0  0  3  0  0  0  0  0  0
  -20.7320  -26.9240   22.6030 C   0  0  0  0  0  2  0  0  0  0  0  0
  -19.6480  -26.5800   21.5770 C   0  0  0  0  0  2  0  0  0  0  0  0
  -18.2550  -26.7110   22.1990 C   0  0  0  0  0  2  0  0  0  0  0  0
  -19.1550  -28.8430   23.3000 C   0  0  0  0  0  0  0  0  0  0  0  0
  -18.9150  -30.1060   23.8800 C   0  0  0  0  0  3  0  0  0  0  0  0
  -17.6000  -30.5870   24.0410 C   0  0  0  0  0  3  0  0  0  0  0  0
  -16.5090  -29.8090   23.6140 C   0  0  0  0  0  3  0  0  0  0  0  0
  -16.7380  -28.5480   23.0270 C   0  0  0  0  0  3  0  0  0  0  0  0
  -25.9040  -32.5150   23.8480 C   0  0  0  0  0  3  0  0  0  0  0  0
  -25.5870  -33.9140   24.1700 N   0  0  0  0  0  0  0  0  0  0  0  0
  -25.9220  -34.9730   23.4170 C   0  0  0  0  0  0  0  0  0  0  0  0
  -26.5960  -34.8680   22.3880 O   0  0  0  0  0  0  0  0  0  0  0  0
  -24.9850  -34.0580   24.9660 H   0  0  0  0  0  0  0  0  0  0  0  0
  -24.2000  -36.7750   23.0560 C   0  0  0  0  0  1  0  0  0  0  0  0
  -25.4380  -36.3650   23.8700 C   0  0  0  0  0  3  0  0  0  0  0  0
  -27.5680  -37.2540   24.7070 C   0  0  0  0  0  1  0  0  0  0  0  0
  -26.4740  -37.4170   23.7540 N   0  0  0  0  0  0  0  0  0  0  0  0
  -26.0660  -38.3370   23.8820 H   0  0  0  0  0  0  0  0  0  0  0  0
  -26.4060  -31.7480   25.1350 C   0  0  1  0  0  0  0  0  0  0  0  0
  -25.3020  -31.5150   26.1970 C   0  0  0  0  0  1  0  0  0  0  0  0
  -26.9940  -30.3640   24.7640 C   0  0  0  0  0  1  0  0  0  0  0  0
  -27.5560  -32.5400   25.7930 C   0  0  0  0  0  1  0  0  0  0  0  0
  1 48  1  0
  1  7  1  0
  2  4  1  0
  2  3  1  0
  3  1  1  0
  4  3  1  0
  5  4  2  0
  7  6  1  0
  8  7  1  0
  8  9  1  0
 10 18  1  0
 11 16  1  0
 12 13  1  0
 12 11  1  0
 14 13  1  0
 14 23  1  0
 14 15  1  0
 16 10  1  0
 16 15  1  0
 17 10  2  0
 18 19  1  0
 18  9  1  0
 20 21  2  0
 21 40  1  0
 22 21  1  0
 22 25  1  0
 23 20  1  0
 23 24  1  0
 24 22  2  0
 25 26  1  0
 26 27  2  0
 28 31  1  0
 28 27  1  0
 29 28  2  0
 30 29  1  0
 30 25  2  0
 31 32  1  0
 32 33  1  0
 33 34  2  0
 35 34  1  0
 35 39  1  0
 36 35  2  0
 37 32  2  0
 37 36  1  0
 38 37  1  0
 40 41  1  0
 41 44  1  0
 41 43  1  0
 42 40  2  0
 45 46  1  0
 45 20  1  0
 47 45  1  0
 49 50  1  0
 49 48  2  0
 51 62  2  0
 52 50  1  0
 52 57  1  0
 53 61  1  0
 53 63  1  0
 54 60  1  0
 54 56  1  0
 55 61  1  0
 56 57  2  0
 56 55  1  0
 58 59  1  0
 58 52  2  0
 59 54  2  0
 60 53  1  0
 61 51  1  0
 63 65  2  0
 64 63  1  0
 66 64  1  0
 67 76  2  0
 67 72  1  0
 68 64  1  0
 68 72  1  0
 69 68  1  0
 70 71  1  0
 70 69  1  0
 71 67  1  0
 72 73  2  0
 73 74  1  0
 75 74  2  0
 76 75  1  0
 77 51  1  0
 77 78  1  0
 77 87  1  0
 78 81  1  0
 79 83  1  0
 79 78  1  0
 80 79  2  0
 83 82  1  0
 85 83  1  0
 85 86  1  0
 85 84  1  0
 87 90  1  1
 87 88  1  0
 89 87  1  0
M  ISO  4  10 100  18 100  49 101  50 101
M  END
>  <TORSDO>  (85) 
F 22

>  <SCORE>  (85) 
-14.248

>  <name>  (85) 
84

>  <ligand_id>  (85) 
84

>  <original_smiles>  (85) 
[H]c1c([H])c([H])c2c(c1[H])C([H])([H])C([H])([H])C([H])([H])C2([H])N([H])C(=O)C1([H])N(C(=O)C([H])(N([H])C(=O)C([H])(N([H])C([H])([H])[H])C([H])([H])[H])C(C([H])([H])[H])(C([H])([H])[H])C([H])([H])[H])C([H])([H])c2c([H])c(OC([H])([H])C([H])([H])N(c3c([H])c3=O)C([H])(C([H])([H])[H])C([H])([H])C([H])([H])N([H])C(=O)N3C([H])([H])C([H])([H])C([H])([H])C([H])(n4nc(-c5c([H])c([H])c(Oc6c([H])c([H])c(F)c([H])c6F)c([H])c5[H])c(C(=O)N([H])[H])c4N([H])[H])C3([H])[H])c([H])c([H])c2C1([H])[H]

>  <smiles>  (85) 
[H]c1c([H])c([H])c2c(c1[H])C([H])([H])C([H])([H])C([H])([H])C2([H])N([H])C(=O)C1([H])N(C(=O)C([H])(N([H])C(=O)C([H])(N([H])C([H])([H])[H])C([H])([H])[H])C(C([H])([H])[H])(C([H])([H])[H])C([H])([H])[H])C([H])([H])c2c([H])c(OC([H])([H])C([H])([H])N(c3c([H])c3=O)C([H])(C([H])([H])[H])C([H])([H])C([H])([H])N([H])C(=O)N3C([H])([H])C([H])([H])C([H])([H])C([H])(n4nc(-c5c([H])c([H])c(Oc6c([H])c([H])c(F)c([H])c6F)c([H])c5[H])c(C(=O)N([H])[H])c4N([H])[H])C3([H])[H])c([H])c([H])c2C1([H])[H]

$$$$
85:0:0
     RDKit          3D

100109  0  0  1  0  0  0  0  0999 V2000
  -28.2610  -21.4900   20.8160 C   0  0  0  0  0  2  0  0  0  0  0  0
  -30.0580  -21.5390   19.9130 C   0  0  0  0  0  3  0  0  0  0  0  0
  -29.4060  -20.4090   20.7880 C   0  0  0  0  0  3  0  0  0  0  0  0
  -29.2520  -22.5770   20.6330 N   0  0  1  0  0  4  0  0  0  0  0  0
  -29.7080  -22.7830   21.5100 H   0  0  0  0  0  0  0  0  0  0  0  0
  -34.3290  -22.3860   19.8940 C   0  0  0  0  0  3  0  0  0  0  0  0
  -33.5300  -22.7220   18.7860 C   0  0  0  0  0  3  0  0  0  0  0  0
  -33.7450  -21.7730   21.0190 C   0  0  0  0  0  3  0  0  0  0  0  0
  -32.1490  -22.4500   18.8050 C   0  0  0  0  0  3  0  0  0  0  0  0
  -32.3650  -21.4980   21.0400 C   0  0  0  0  0  3  0  0  0  0  0  0
  -31.5550  -21.8360   19.9310 C   0  0  0  0  0  0  0  0  0  0  0  0
  -28.8820  -23.8880   19.9060 C   0  0  0  0  0  2  0  0  0  0  0  0
  -28.2750  -25.1140   20.7570 C   0  0  0  0  0  2  0  0  0  0  0  0
  -28.4180  -26.5300   20.2890 O   0  0  0  0  0  0  0  0  0  0  0  0
  -24.6190  -31.9490   23.2540 C   0  0  0  0  0  0  0  0  0  0  0  0
  -27.2910  -27.3710   20.2700 C   0  0  0  0  0  0  0  0  0  0  0  0
  -23.4390  -30.5260   21.6160 C   0  0  0  0  0  3  0  0  0  0  0  0
  -24.9140  -28.9690   20.2180 C   0  0  0  0  0  0  0  0  0  0  0  0
  -25.9780  -30.8610   21.4500 C   0  0  0  0  0  2  0  0  0  0  0  0
  -26.0750  -29.4770   20.8170 C   0  0  0  0  0  0  0  0  0  0  0  0
  -27.2700  -28.6910   20.8240 C   0  0  0  0  0  3  0  0  0  0  0  0
  -26.1080  -26.9170   19.6490 C   0  0  0  0  0  3  0  0  0  0  0  0
  -24.9340  -27.6970   19.6230 C   0  0  0  0  0  3  0  0  0  0  0  0
  -23.6710  -29.8360   20.2450 C   0  0  0  0  0  2  0  0  0  0  0  0
  -24.6970  -31.1300   22.1640 N   0  0  0  0  0  0  0  0  0  0  0  0
  -23.5290  -32.2230   23.7790 O   0  0  0  0  0  0  0  0  0  0  0  0
  -22.7760  -29.5140   22.5820 C   0  0  0  0  0  0  0  0  0  0  0  0
  -21.4510  -29.3280   22.4460 N   0  0  0  0  0  0  0  0  0  0  0  0
  -23.4530  -28.8980   23.4080 O   0  0  0  0  0  0  0  0  0  0  0  0
  -20.9650  -29.8770   21.7520 H   0  0  0  0  0  0  0  0  0  0  0  0
  -18.0770  -28.1180   22.9320 C   0  0  0  0  0  0  0  0  0  0  0  0
  -20.6320  -28.3920   23.2180 C   0  0  0  0  0  3  0  0  0  0  0  0
  -20.7440  -26.9570   22.6510 C   0  0  0  0  0  2  0  0  0  0  0  0
  -19.6500  -26.6230   21.6310 C   0  0  0  0  0  2  0  0  0  0  0  0
  -18.2630  -26.7650   22.2660 C   0  0  0  0  0  2  0  0  0  0  0  0
  -19.1890  -28.8880   23.3640 C   0  0  0  0  0  0  0  0  0  0  0  0
  -18.9590  -30.1540   23.9470 C   0  0  0  0  0  3  0  0  0  0  0  0
  -17.6510  -30.6490   24.1010 C   0  0  0  0  0  3  0  0  0  0  0  0
  -16.5530  -29.8750   23.6860 C   0  0  0  0  0  3  0  0  0  0  0  0
  -16.7660  -28.6120   23.1070 C   0  0  0  0  0  3  0  0  0  0  0  0
  -25.8920  -32.5960   23.8830 C   0  0  0  0  0  3  0  0  0  0  0  0
  -26.4060  -31.8380   25.1690 C   0  0  1  0  0  0  0  0  0  0  0  0
  -25.3020  -31.5870   26.2230 C   0  0  0  0  0  1  0  0  0  0  0  0
  -27.0140  -30.4670   24.7900 C   0  0  0  0  0  1  0  0  0  0  0  0
  -27.5360  -32.6510   25.8410 C   0  0  0  0  0  1  0  0  0  0  0  0
  -25.5690  -33.9930   24.2040 N   0  0  0  0  0  0  0  0  0  0  0  0
  -25.8950  -35.0450   23.4400 C   0  0  0  0  0  0  0  0  0  0  0  0
  -26.5680  -34.9410   22.4110 O   0  0  0  0  0  0  0  0  0  0  0  0
  -24.9740  -34.1490   25.0030 H   0  0  0  0  0  0  0  0  0  0  0  0
  -24.1510  -36.8190   23.0740 C   0  0  0  0  0  1  0  0  0  0  0  0
  -25.3950  -36.4320   23.8890 C   0  0  0  0  0  3  0  0  0  0  0  0
  -27.5190  -37.3400   24.7200 C   0  0  0  0  0  1  0  0  0  0  0  0
  -26.4180  -37.4940   23.7720 N   0  0  0  0  0  0  0  0  0  0  0  0
  -26.0040  -38.4110   23.9140 H   0  0  0  0  0  0  0  0  0  0  0  0
  -29.1550  -18.8760   20.3120 C   0  0  0  0  0  3  0  0  0  0  0  0
  -27.8070  -18.4650   20.7670 N   0  0  0  0  0  4  0  0  0  0  0  0
  -27.7470  -18.4590   21.7710 H   0  0  0  0  0  0  0  0  0  0  0  0
  -27.5780  -17.5440   20.4390 H   0  0  0  0  0  0  0  0  0  0  0  0
  -27.0990  -19.0850   20.4150 H   0  0  0  0  0  0  0  0  0  0  0  0
  -30.4350  -17.5620   22.1870 C   0  0  0  0  0  1  0  0  0  0  0  0
  -30.1960  -17.6580   20.6670 C   0  0  0  0  0  3  0  0  0  0  0  0
  -29.8660  -16.1830   20.0360 C   0  0  0  0  0  3  0  0  0  0  0  0
  -30.7810  -14.8560   20.2510 C   0  0  0  0  0  0  0  0  0  0  0  0
  -30.6680  -12.5000   19.4410 C   0  0  0  0  0  2  0  0  0  0  0  0
  -29.7550  -12.4600   18.1920 C   0  0  0  0  0  2  0  0  0  0  0  0
  -28.2640  -12.3530   18.5830 C   0  0  0  0  0  2  0  0  0  0  0  0
  -27.8590  -13.2960   19.7480 C   0  0  0  0  0  3  0  0  0  0  0  0
  -28.8970  -13.2760   20.8880 C   0  0  0  0  0  2  0  0  0  0  0  0
  -30.2090  -13.6020   20.3160 N   0  0  0  0  0  0  0  0  0  0  0  0
  -31.9970  -14.9500   20.0620 O   0  0  0  0  0  0  0  0  0  0  0  0
  -25.4830  -13.9390   20.4660 C   0  0  0  0  0  0  0  0  0  0  0  0
  -24.3990  -13.1860   20.8280 C   0  0  0  0  0  0  0  0  0  0  0  0
  -24.8340  -11.8250   20.7880 C   0  0  0  0  0  0  0  0  0  0  0  0
  -26.5070  -13.0360   20.2270 N   0  0  0  0  0  0  0  0  0  0  0  0
  -26.1250  -11.7610   20.4870 N   0  0  0  0  0  0  0  0  0  0  0  0
  -24.0820  -10.5770   20.9580 C   0  0  0  0  0  0  0  0  0  0  0  0
  -24.4910   -9.5910   21.8830 C   0  0  0  0  0  3  0  0  0  0  0  0
  -23.7410   -8.4070   22.0430 C   0  0  0  0  0  3  0  0  0  0  0  0
  -22.5690   -8.1990   21.2780 C   0  0  0  0  0  0  0  0  0  0  0  0
  -22.1810   -9.1730   20.3400 C   0  0  0  0  0  3  0  0  0  0  0  0
  -22.9320  -10.3500   20.1780 C   0  0  0  0  0  3  0  0  0  0  0  0
  -21.7910   -7.0680   21.3480 O   0  0  0  0  0  0  0  0  0  0  0  0
  -21.7220   -6.3140   22.4910 C   0  0  0  0  0  0  0  0  0  0  0  0
  -21.2950   -6.8620   23.7210 C   0  0  0  0  0  3  0  0  0  0  0  0
  -21.1720   -6.0340   24.8550 C   0  0  0  0  0  3  0  0  0  0  0  0
  -21.4650   -4.6600   24.7610 C   0  0  0  0  0  0  0  0  0  0  0  0
  -21.8860   -4.1120   23.5360 C   0  0  0  0  0  3  0  0  0  0  0  0
  -22.0110   -4.9370   22.4040 C   0  0  0  0  0  0  0  0  0  0  0  0
  -22.3970   -4.4010   21.2210 F   0  0  0  0  0  0  0  0  0  0  0  0
  -21.3400   -3.8640   25.8470 F   0  0  0  0  0  0  0  0  0  0  0  0
  -23.0090  -13.6890   21.0860 C   0  0  0  0  0  0  0  0  0  0  0  0
  -22.2610  -13.0070   21.9460 N   0  0  0  0  0  0  0  0  0  0  0  0
  -22.5950  -14.7210   20.5600 O   0  0  0  0  0  0  0  0  0  0  0  0
  -22.6100  -12.1720   22.3940 H   0  0  0  0  0  0  0  0  0  0  0  0
  -21.3260  -13.3240   22.1610 H   0  0  0  0  0  0  0  0  0  0  0  0
  -25.6730  -15.3070   20.2840 N   0  0  0  0  0  0  0  0  0  0  0  0
  -24.8260  -15.8660   20.2490 H   0  0  0  0  0  0  0  0  0  0  0  0
  -26.3340  -15.5840   19.5720 H   0  0  0  0  0  0  0  0  0  0  0  0
  -30.7960  -17.0340   17.7260 C   0  0  0  0  0  1  0  0  0  0  0  0
  -29.6490  -16.3580   18.5010 C   0  0  0  0  0  2  0  0  0  0  0  0
  2 11  1  0
  2  4  1  0
  2  3  1  0
  3 55  1  0
  3  1  1  0
  4  1  1  0
  4  5  1  1
  6  8  1  0
  7  9  1  0
  7  6  2  0
  8 10  2  0
  9 11  2  0
 11 10  1  0
 12  4  1  0
 12 13  1  0
 14 13  1  0
 15 26  2  0
 16 14  1  0
 16 21  1  0
 17 25  1  0
 17 27  1  0
 18 24  1  0
 18 20  1  0
 19 25  1  0
 20 21  2  0
 20 19  1  0
 22 16  2  0
 23 22  1  0
 23 18  2  0
 24 17  1  0
 25 15  1  0
 27 29  2  0
 28 27  1  0
 30 28  1  0
 31 40  2  0
 31 36  1  0
 32 28  1  0
 32 36  1  0
 33 32  1  0
 34 35  1  0
 34 33  1  0
 35 31  1  0
 36 37  2  0
 37 38  1  0
 39 38  2  0
 40 39  1  0
 41 15  1  0
 41 46  1  0
 41 42  1  0
 42 45  1  1
 42 43  1  0
 44 42  1  0
 46 49  1  0
 47 51  1  0
 47 46  1  0
 48 47  2  0
 51 50  1  0
 53 51  1  0
 53 54  1  0
 53 52  1  0
 55 61  1  0
 55 56  1  0
 56 57  1  0
 58 56  1  0
 59 56  1  0
 61 60  1  0
 62100  1  0
 62 63  1  0
 62 61  1  0
 63 69  1  0
 64 69  1  0
 65 66  1  0
 65 64  1  0
 67 66  1  0
 67 74  1  0
 67 68  1  0
 69 68  1  0
 70 63  2  0
 71 72  2  0
 72 91  1  0
 73 72  1  0
 73 76  1  0
 74 71  1  0
 74 75  1  0
 75 73  2  0
 76 77  1  0
 77 78  2  0
 79 82  1  0
 79 78  1  0
 80 79  2  0
 81 80  1  0
 81 76  2  0
 82 83  1  0
 83 84  1  0
 84 85  2  0
 86 85  1  0
 86 90  1  0
 87 86  2  0
 88 83  2  0
 88 87  1  0
 89 88  1  0
 91 92  1  0
 92 95  1  0
 92 94  1  0
 93 91  2  0
 96 71  1  0
 97 96  1  0
 98 96  1  0
 99100  1  0
M  ISO  4  13 101  14 101  62 100  63 100
M  END
>  <TORSDO>  (86) 
F 24

>  <SCORE>  (86) 
-12.226

>  <name>  (86) 
85

>  <ligand_id>  (86) 
85

>  <original_smiles>  (86) 
[H]c1c([H])c([H])c(C2([H])C([H])(C([H])(C([H])(C([H])([H])[H])C([H])(C(=O)N3C([H])([H])C([H])([H])C([H])([H])C([H])(n4nc(-c5c([H])c([H])c(Oc6c([H])c([H])c(F)c([H])c6F)c([H])c5[H])c(C(=O)N([H])[H])c4N([H])[H])C3([H])[H])C([H])([H])C([H])([H])[H])[N+]([H])([H])[H])C([H])([H])[N+]2([H])C([H])([H])C([H])([H])Oc2c([H])c([H])c3c(c2[H])C([H])([H])N(C(=O)C([H])(N([H])C(=O)C([H])(N([H])C([H])([H])[H])C([H])([H])[H])C(C([H])([H])[H])(C([H])([H])[H])C([H])([H])[H])C([H])(C(=O)N([H])C2([H])c4c([H])c([H])c([H])c([H])c4C([H])([H])C([H])([H])C2([H])[H])C3([H])[H])c([H])c1[H]

>  <smiles>  (86) 
[H]c1c([H])c([H])c(C2([H])C([H])(C([H])(C([H])(C([H])([H])[H])C([H])(C(=O)N3C([H])([H])C([H])([H])C([H])([H])C([H])(n4nc(-c5c([H])c([H])c(Oc6c([H])c([H])c(F)c([H])c6F)c([H])c5[H])c(C(=O)N([H])[H])c4N([H])[H])C3([H])[H])C([H])([H])C([H])([H])[H])[N+]([H])([H])[H])C([H])([H])[N+]2([H])C([H])([H])C([H])([H])Oc2c([H])c([H])c3c(c2[H])C([H])([H])N(C(=O)C([H])(N([H])C(=O)C([H])(N([H])C([H])([H])[H])C([H])([H])[H])C(C([H])([H])[H])(C([H])([H])[H])C([H])([H])[H])C([H])(C(=O)N([H])C2([H])c4c([H])c([H])c([H])c([H])c4C([H])([H])C([H])([H])C2([H])[H])C3([H])[H])c([H])c1[H]

$$$$
86:0:0
     RDKit          3D

 94103  0  0  1  0  0  0  0  0999 V2000
  -27.9920  -22.3470   19.9540 C   0  0  0  0  0  0  0  0  0  0  0  0
  -27.2320  -21.2830   19.6440 C   0  0  0  0  0  2  0  0  0  0  0  0
  -28.0920  -23.7320   19.3830 C   0  0  0  0  0  2  0  0  0  0  0  0
  -29.0540  -22.6630   20.9930 C   0  0  0  0  0  3  0  0  0  0  0  0
  -29.4000  -23.7460   20.0550 N   0  0  0  0  0  0  0  0  0  0  0  0
  -30.1990  -21.6360   21.0930 C   0  0  0  0  0  2  0  0  0  0  0  0
  -29.7100  -20.2690   21.3660 N   0  0  0  0  0  4  0  0  0  0  0  0
  -28.8530  -20.1560   20.8470 H   0  0  0  0  0  0  0  0  0  0  0  0
  -29.4940  -20.1910   22.3460 H   0  0  0  0  0  0  0  0  0  0  0  0
  -30.6450  -19.1910   20.9760 C   0  0  0  0  0  2  0  0  0  0  0  0
  -30.5840  -17.1720   22.6440 C   0  0  0  0  0  2  0  0  0  0  0  0
  -30.1200  -17.8140   21.3630 C   0  0  0  0  0  3  0  0  0  0  0  0
  -31.0230  -16.5880   21.3160 C   0  0  0  0  0  3  0  0  0  0  0  0
  -31.0140  -14.3960   20.1630 C   0  0  0  0  0  0  0  0  0  0  0  0
  -30.6180  -12.2580   18.9910 C   0  0  0  0  0  2  0  0  0  0  0  0
  -29.6490  -12.4590   17.8100 C   0  0  0  0  0  2  0  0  0  0  0  0
  -28.1830  -12.3630   18.2750 C   0  0  0  0  0  2  0  0  0  0  0  0
  -27.8960  -13.2420   19.5210 C   0  0  0  0  0  3  0  0  0  0  0  0
  -28.9630  -12.9980   20.6120 C   0  0  0  0  0  2  0  0  0  0  0  0
  -30.2900  -13.2550   20.0220 N   0  0  0  0  0  0  0  0  0  0  0  0
  -32.0730  -14.6090   19.5630 O   0  0  0  0  0  0  0  0  0  0  0  0
  -30.4690  -15.3120   20.9760 N   0  0  0  0  0  0  0  0  0  0  0  0
  -29.5960  -15.0500   21.4110 H   0  0  0  0  0  0  0  0  0  0  0  0
  -25.5380  -13.9430   20.2830 C   0  0  0  0  0  0  0  0  0  0  0  0
  -24.4520  -13.2120   20.6830 C   0  0  0  0  0  0  0  0  0  0  0  0
  -24.8610  -11.8440   20.6460 C   0  0  0  0  0  0  0  0  0  0  0  0
  -26.5430  -13.0230   20.0320 N   0  0  0  0  0  0  0  0  0  0  0  0
  -26.1400  -11.7550   20.3050 N   0  0  0  0  0  0  0  0  0  0  0  0
  -24.0960  -10.6090   20.8630 C   0  0  0  0  0  0  0  0  0  0  0  0
  -24.5000   -9.6470   21.8150 C   0  0  0  0  0  3  0  0  0  0  0  0
  -23.7380   -8.4760   22.0150 C   0  0  0  0  0  3  0  0  0  0  0  0
  -22.5580   -8.2590   21.2640 C   0  0  0  0  0  0  0  0  0  0  0  0
  -22.1740   -9.2090   20.3010 C   0  0  0  0  0  3  0  0  0  0  0  0
  -22.9360  -10.3720   20.0990 C   0  0  0  0  0  3  0  0  0  0  0  0
  -21.7700   -7.1390   21.3730 O   0  0  0  0  0  0  0  0  0  0  0  0
  -21.6670   -6.4430   22.5500 C   0  0  0  0  0  0  0  0  0  0  0  0
  -21.2380   -7.0590   23.7460 C   0  0  0  0  0  3  0  0  0  0  0  0
  -21.0810   -6.2900   24.9160 C   0  0  0  0  0  3  0  0  0  0  0  0
  -21.3420   -4.9070   24.8930 C   0  0  0  0  0  0  0  0  0  0  0  0
  -21.7650   -4.2910   23.7010 C   0  0  0  0  0  3  0  0  0  0  0  0
  -21.9240   -5.0570   22.5320 C   0  0  0  0  0  0  0  0  0  0  0  0
  -22.3100   -4.4550   21.3820 F   0  0  0  0  0  0  0  0  0  0  0  0
  -21.1840   -4.1670   26.0140 F   0  0  0  0  0  0  0  0  0  0  0  0
  -23.0790  -13.7400   20.9910 C   0  0  0  0  0  0  0  0  0  0  0  0
  -22.3540  -13.0780   21.8860 N   0  0  0  0  0  0  0  0  0  0  0  0
  -22.6610  -14.7730   20.4700 O   0  0  0  0  0  0  0  0  0  0  0  0
  -22.7070  -12.2410   22.3280 H   0  0  0  0  0  0  0  0  0  0  0  0
  -21.4330  -13.4120   22.1330 H   0  0  0  0  0  0  0  0  0  0  0  0
  -25.7500  -15.3050   20.0950 N   0  0  0  0  0  0  0  0  0  0  0  0
  -25.0110  -15.9910   20.2100 H   0  0  0  0  0  0  0  0  0  0  0  0
  -26.6120  -15.7060   19.7470 H   0  0  0  0  0  0  0  0  0  0  0  0
  -29.9200  -25.0120   20.6010 C   0  0  0  0  0  2  0  0  0  0  0  0
  -28.8840  -26.0730   21.0470 C   0  0  0  0  0  2  0  0  0  0  0  0
  -28.4710  -26.8030   19.8950 O   0  0  0  0  0  0  0  0  0  0  0  0
  -24.6600  -31.8670   23.2030 C   0  0  0  0  0  0  0  0  0  0  0  0
  -27.3030  -27.5100   20.0220 C   0  0  0  0  0  0  0  0  0  0  0  0
  -23.4430  -30.4760   21.5600 C   0  0  0  0  0  3  0  0  0  0  0  0
  -24.8910  -28.9680   20.1000 C   0  0  0  0  0  0  0  0  0  0  0  0
  -25.9590  -30.8620   21.3330 C   0  0  0  0  0  2  0  0  0  0  0  0
  -26.0500  -29.4980   20.6840 C   0  0  0  0  0  0  0  0  0  0  0  0
  -27.2600  -28.7700   20.6540 C   0  0  0  0  0  3  0  0  0  0  0  0
  -26.1330  -26.9910   19.4310 C   0  0  0  0  0  3  0  0  0  0  0  0
  -24.9240  -27.7080   19.4780 C   0  0  0  0  0  3  0  0  0  0  0  0
  -23.6390  -29.8120   20.1710 C   0  0  0  0  0  2  0  0  0  0  0  0
  -24.7060  -31.0830   22.0900 N   0  0  0  0  0  0  0  0  0  0  0  0
  -23.5860  -32.1230   23.7640 O   0  0  0  0  0  0  0  0  0  0  0  0
  -22.8150  -29.4370   22.5170 C   0  0  0  0  0  0  0  0  0  0  0  0
  -21.4910  -29.2440   22.4020 N   0  0  0  0  0  0  0  0  0  0  0  0
  -23.5150  -28.8060   23.3140 O   0  0  0  0  0  0  0  0  0  0  0  0
  -20.9890  -29.8020   21.7260 H   0  0  0  0  0  0  0  0  0  0  0  0
  -18.1350  -28.0050   22.9140 C   0  0  0  0  0  0  0  0  0  0  0  0
  -20.6920  -28.2890   23.1690 C   0  0  0  0  0  3  0  0  0  0  0  0
  -20.8070  -26.8670   22.5770 C   0  0  0  0  0  2  0  0  0  0  0  0
  -19.7020  -26.5420   21.5680 C   0  0  0  0  0  2  0  0  0  0  0  0
  -18.3230  -26.6640   22.2240 C   0  0  0  0  0  2  0  0  0  0  0  0
  -19.2490  -28.7750   23.3430 C   0  0  0  0  0  0  0  0  0  0  0  0
  -19.0220  -30.0310   23.9470 C   0  0  0  0  0  3  0  0  0  0  0  0
  -17.7140  -30.5180   24.1250 C   0  0  0  0  0  3  0  0  0  0  0  0
  -16.6140  -29.7450   23.7150 C   0  0  0  0  0  3  0  0  0  0  0  0
  -16.8260  -28.4900   23.1150 C   0  0  0  0  0  3  0  0  0  0  0  0
  -25.9520  -32.4980   23.8130 C   0  0  0  0  0  3  0  0  0  0  0  0
  -25.6380  -33.8880   24.1720 N   0  0  0  0  0  0  0  0  0  0  0  0
  -25.9420  -34.9540   23.4190 C   0  0  0  0  0  0  0  0  0  0  0  0
  -26.5890  -34.8710   22.3710 O   0  0  0  0  0  0  0  0  0  0  0  0
  -25.0610  -34.0250   24.9880 H   0  0  0  0  0  0  0  0  0  0  0  0
  -24.1810  -36.7260   23.1330 C   0  0  0  0  0  1  0  0  0  0  0  0
  -25.4490  -36.3290   23.9050 C   0  0  0  0  0  3  0  0  0  0  0  0
  -27.5940  -37.2290   24.6890 C   0  0  0  0  0  1  0  0  0  0  0  0
  -26.4660  -37.3950   23.7770 N   0  0  0  0  0  0  0  0  0  0  0  0
  -26.0530  -38.3090   23.9480 H   0  0  0  0  0  0  0  0  0  0  0  0
  -26.5010  -31.7070   25.0630 C   0  0  1  0  0  0  0  0  0  0  0  0
  -25.4310  -31.4380   26.1470 C   0  0  0  0  0  1  0  0  0  0  0  0
  -27.0870  -30.3430   24.6300 C   0  0  0  0  0  1  0  0  0  0  0  0
  -27.6590  -32.4980   25.7160 C   0  0  0  0  0  1  0  0  0  0  0  0
  1  4  1  0
  2  1  2  0
  3  1  1  0
  3  5  1  0
  4  6  1  0
  5 52  1  0
  5  4  1  0
  6  7  1  0
  7  9  1  0
  8  7  1  0
 10  7  1  0
 12 10  1  0
 12 11  1  0
 13 22  1  0
 13 12  1  0
 13 11  1  0
 14 22  1  0
 15 20  1  0
 16 17  1  0
 16 15  1  0
 18 17  1  0
 18 27  1  0
 18 19  1  0
 20 14  1  0
 20 19  1  0
 21 14  2  0
 22 23  1  0
 24 25  2  0
 25 44  1  0
 26 25  1  0
 26 29  1  0
 27 24  1  0
 27 28  1  0
 28 26  2  0
 29 30  1  0
 30 31  2  0
 32 35  1  0
 32 31  1  0
 33 32  2  0
 34 33  1  0
 34 29  2  0
 35 36  1  0
 36 37  1  0
 37 38  2  0
 39 38  1  0
 39 43  1  0
 40 39  2  0
 41 36  2  0
 41 40  1  0
 42 41  1  0
 44 45  1  0
 45 48  1  0
 45 47  1  0
 46 44  2  0
 49 50  1  0
 49 24  1  0
 51 49  1  0
 52 53  1  0
 54 56  1  0
 54 53  1  0
 55 66  2  0
 56 61  1  0
 57 65  1  0
 57 67  1  0
 58 64  1  0
 58 60  1  0
 59 65  1  0
 60 59  1  0
 61 60  2  0
 62 63  1  0
 62 56  2  0
 63 58  2  0
 64 57  1  0
 65 55  1  0
 67 69  2  0
 68 67  1  0
 70 68  1  0
 71 80  2  0
 71 76  1  0
 72 68  1  0
 72 76  1  0
 73 72  1  0
 74 75  1  0
 74 73  1  0
 75 71  1  0
 76 77  2  0
 77 78  1  0
 79 78  2  0
 80 79  1  0
 81 55  1  0
 81 82  1  0
 81 91  1  0
 82 85  1  0
 83 87  1  0
 83 82  1  0
 84 83  2  0
 87 86  1  0
 89 87  1  0
 89 90  1  0
 89 88  1  0
 91 94  1  1
 91 92  1  0
 93 91  1  0
M  ISO  4  14 100  22 100  53 101  54 101
M  END
>  <TORSDO>  (87) 
F 22

>  <SCORE>  (87) 
-12.939

>  <name>  (87) 
86

>  <ligand_id>  (87) 
86

>  <original_smiles>  (87) 
[H]C([H])=C1C([H])([H])N(C([H])([H])C([H])([H])Oc2c([H])c([H])c3c(c2[H])C([H])([H])N(C(=O)C([H])(N([H])C(=O)C([H])(N([H])C([H])([H])[H])C([H])([H])[H])C(C([H])([H])[H])(C([H])([H])[H])C([H])([H])[H])C([H])(C(=O)N([H])C2([H])c4c([H])c([H])c([H])c([H])c4C([H])([H])C([H])([H])C2([H])[H])C3([H])[H])C1([H])C([H])([H])[N+]([H])([H])C([H])([H])C1([H])C([H])([H])C1([H])N([H])C(=O)N1C([H])([H])C([H])([H])C([H])([H])C([H])(n2nc(-c3c([H])c([H])c(Oc4c([H])c([H])c(F)c([H])c4F)c([H])c3[H])c(C(=O)N([H])[H])c2N([H])[H])C1([H])[H]

>  <smiles>  (87) 
[H]C([H])=C1C([H])([H])N(C([H])([H])C([H])([H])Oc2c([H])c([H])c3c(c2[H])C([H])([H])N(C(=O)C([H])(N([H])C(=O)C([H])(N([H])C([H])([H])[H])C([H])([H])[H])C(C([H])([H])[H])(C([H])([H])[H])C([H])([H])[H])C([H])(C(=O)N([H])C2([H])c4c([H])c([H])c([H])c([H])c4C([H])([H])C([H])([H])C2([H])[H])C3([H])[H])C1([H])C([H])([H])[N+]([H])([H])C([H])([H])C1([H])C([H])([H])C1([H])N([H])C(=O)N1C([H])([H])C([H])([H])C([H])([H])C([H])(n2nc(-c3c([H])c([H])c(Oc4c([H])c([H])c(F)c([H])c4F)c([H])c3[H])c(C(=O)N([H])[H])c2N([H])[H])C1([H])[H]

$$$$
87:0:0
     RDKit          3D

 96105  0  0  1  0  0  0  0  0999 V2000
  -32.7760  -19.5470   20.2230 C   0  0  0  0  0  3  0  0  0  0  0  0
  -32.1370  -18.3180   20.5180 C   0  0  0  0  0  3  0  0  0  0  0  0
  -32.0840  -20.7820   20.3310 C   0  0  0  0  0  3  0  0  0  0  0  0
  -30.2110  -19.6000   21.2920 C   0  0  0  0  0  3  0  0  0  0  0  0
  -30.8120  -18.3470   21.0020 C   0  0  0  0  0  0  0  0  0  0  0  0
  -30.7660  -20.8190   20.8440 C   0  0  0  0  0  0  0  0  0  0  0  0
  -30.6630  -14.6610   20.3870 C   0  0  0  0  0  0  0  0  0  0  0  0
  -30.4020  -12.4190   19.3540 C   0  0  0  0  0  2  0  0  0  0  0  0
  -29.4430  -12.5100   18.1420 C   0  0  0  0  0  2  0  0  0  0  0  0
  -27.9750  -12.3050   18.5860 C   0  0  0  0  0  2  0  0  0  0  0  0
  -27.5930  -13.1660   19.8110 C   0  0  0  0  0  3  0  0  0  0  0  0
  -28.6910  -13.1300   20.9130 C   0  0  0  0  0  2  0  0  0  0  0  0
  -30.0010  -13.4580   20.3110 N   0  0  0  0  0  0  0  0  0  0  0  0
  -31.8680  -14.7740   20.1660 O   0  0  0  0  0  0  0  0  0  0  0  0
  -28.7890  -16.0230   19.4800 C   0  0  0  0  0  2  0  0  0  0  0  0
  -29.7810  -17.2330   20.7930 C   0  0  0  0  0  3  0  0  0  0  0  0
  -29.3990  -17.3650   19.3180 C   0  0  0  0  0  3  0  0  0  0  0  0
  -29.8500  -15.7560   20.4700 N   0  0  0  0  0  0  0  0  0  0  0  0
  -25.2200  -13.8210   20.5710 C   0  0  0  0  0  0  0  0  0  0  0  0
  -24.1530  -13.0560   20.9470 C   0  0  0  0  0  0  0  0  0  0  0  0
  -24.6100  -11.7040   20.9070 C   0  0  0  0  0  0  0  0  0  0  0  0
  -26.2560  -12.9220   20.3250 N   0  0  0  0  0  0  0  0  0  0  0  0
  -25.8950  -11.6490   20.5930 N   0  0  0  0  0  0  0  0  0  0  0  0
  -23.8860  -10.4480   21.0920 C   0  0  0  0  0  0  0  0  0  0  0  0
  -24.3360   -9.4730   22.0080 C   0  0  0  0  0  3  0  0  0  0  0  0
  -23.6160   -8.2740   22.1790 C   0  0  0  0  0  3  0  0  0  0  0  0
  -22.4350   -8.0460   21.4340 C   0  0  0  0  0  0  0  0  0  0  0  0
  -22.0060   -9.0100   20.5050 C   0  0  0  0  0  3  0  0  0  0  0  0
  -22.7270  -10.2020   20.3290 C   0  0  0  0  0  3  0  0  0  0  0  0
  -21.6840   -6.8990   21.5200 O   0  0  0  0  0  0  0  0  0  0  0  0
  -21.6550   -6.1450   22.6650 C   0  0  0  0  0  0  0  0  0  0  0  0
  -21.2520   -6.6840   23.9040 C   0  0  0  0  0  3  0  0  0  0  0  0
  -21.1660   -5.8540   25.0400 C   0  0  0  0  0  3  0  0  0  0  0  0
  -21.4800   -4.4860   24.9350 C   0  0  0  0  0  0  0  0  0  0  0  0
  -21.8820   -3.9460   23.7010 C   0  0  0  0  0  3  0  0  0  0  0  0
  -21.9670   -4.7740   22.5670 C   0  0  0  0  0  0  0  0  0  0  0  0
  -22.3320   -4.2460   21.3740 F   0  0  0  0  0  0  0  0  0  0  0  0
  -21.3940   -3.6850   26.0220 F   0  0  0  0  0  0  0  0  0  0  0  0
  -22.7580  -13.5430   21.2240 C   0  0  0  0  0  0  0  0  0  0  0  0
  -22.0280  -12.8520   22.0930 N   0  0  0  0  0  0  0  0  0  0  0  0
  -22.3230  -14.5720   20.7110 O   0  0  0  0  0  0  0  0  0  0  0  0
  -22.3870  -12.0180   22.5320 H   0  0  0  0  0  0  0  0  0  0  0  0
  -21.0950  -13.1610   22.3200 H   0  0  0  0  0  0  0  0  0  0  0  0
  -25.3740  -15.1920   20.3890 N   0  0  0  0  0  0  0  0  0  0  0  0
  -24.5900  -15.8290   20.4690 H   0  0  0  0  0  0  0  0  0  0  0  0
  -26.1900  -15.6130   19.9690 H   0  0  0  0  0  0  0  0  0  0  0  0
  -28.5160  -18.4850   18.9300 N   0  0  0  0  0  4  0  0  0  0  0  0
  -27.7270  -18.5720   19.5490 H   0  0  0  0  0  0  0  0  0  0  0  0
  -28.1740  -18.3640   17.9930 H   0  0  0  0  0  0  0  0  0  0  0  0
  -29.0360  -19.3430   18.9490 H   0  0  0  0  0  0  0  0  0  0  0  0
  -29.7920  -22.0200   20.6810 C   0  0  0  0  0  2  0  0  0  0  0  0
  -30.1930  -23.4720   21.0230 C   0  0  0  0  0  0  0  0  0  0  0  0
  -31.3750  -23.8070   21.1450 O   0  0  0  0  0  0  0  0  0  0  0  0
  -29.0520  -24.5150   21.1920 C   0  0  0  0  0  2  0  0  0  0  0  0
  -28.7020  -25.3790   19.9330 C   0  0  0  0  0  2  0  0  0  0  0  0
  -28.4880  -26.7790   20.2380 O   0  0  0  0  0  0  0  0  0  0  0  0
  -24.5660  -31.8950   23.2280 C   0  0  0  0  0  0  0  0  0  0  0  0
  -27.2580  -27.4270   20.1970 C   0  0  0  0  0  0  0  0  0  0  0  0
  -23.3680  -30.4850   21.5830 C   0  0  0  0  0  3  0  0  0  0  0  0
  -24.8360  -28.9290   20.1800 C   0  0  0  0  0  0  0  0  0  0  0  0
  -25.8900  -30.8480   21.3870 C   0  0  0  0  0  2  0  0  0  0  0  0
  -25.9870  -29.4650   20.7660 C   0  0  0  0  0  0  0  0  0  0  0  0
  -27.1910  -28.7240   20.7640 C   0  0  0  0  0  3  0  0  0  0  0  0
  -26.0810  -26.9000   19.6100 C   0  0  0  0  0  3  0  0  0  0  0  0
  -24.8780  -27.6460   19.6000 C   0  0  0  0  0  3  0  0  0  0  0  0
  -23.5880  -29.7860   20.2100 C   0  0  0  0  0  2  0  0  0  0  0  0
  -24.6280  -31.0920   22.1260 N   0  0  0  0  0  0  0  0  0  0  0  0
  -23.4840  -32.1680   23.7660 O   0  0  0  0  0  0  0  0  0  0  0  0
  -22.7090  -29.4740   22.5500 C   0  0  0  0  0  0  0  0  0  0  0  0
  -21.3840  -29.2960   22.4230 N   0  0  0  0  0  0  0  0  0  0  0  0
  -23.3890  -28.8490   23.3680 O   0  0  0  0  0  0  0  0  0  0  0  0
  -20.8940  -29.8550   21.7380 H   0  0  0  0  0  0  0  0  0  0  0  0
  -18.0080  -28.1100   22.9230 C   0  0  0  0  0  0  0  0  0  0  0  0
  -20.5660  -28.3620   23.1960 C   0  0  0  0  0  3  0  0  0  0  0  0
  -20.6670  -26.9300   22.6240 C   0  0  0  0  0  2  0  0  0  0  0  0
  -19.5650  -26.6090   21.6060 C   0  0  0  0  0  2  0  0  0  0  0  0
  -18.1830  -26.7580   22.2490 C   0  0  0  0  0  2  0  0  0  0  0  0
  -19.1290  -28.8670   23.3530 C   0  0  0  0  0  0  0  0  0  0  0  0
  -18.9140  -30.1320   23.9470 C   0  0  0  0  0  3  0  0  0  0  0  0
  -17.6120  -30.6370   24.1110 C   0  0  0  0  0  3  0  0  0  0  0  0
  -16.5050  -29.8770   23.6950 C   0  0  0  0  0  3  0  0  0  0  0  0
  -16.7050  -28.6150   23.1060 C   0  0  0  0  0  3  0  0  0  0  0  0
  -25.8500  -32.5300   23.8500 C   0  0  0  0  0  3  0  0  0  0  0  0
  -25.5380  -33.9280   24.1740 N   0  0  0  0  0  0  0  0  0  0  0  0
  -25.8800  -34.9800   23.4160 C   0  0  0  0  0  0  0  0  0  0  0  0
  -26.5600  -34.8730   22.3920 O   0  0  0  0  0  0  0  0  0  0  0  0
  -24.9310  -34.0850   24.9650 H   0  0  0  0  0  0  0  0  0  0  0  0
  -24.1620  -36.7800   23.0390 C   0  0  0  0  0  1  0  0  0  0  0  0
  -25.3890  -36.3700   23.8670 C   0  0  0  0  0  3  0  0  0  0  0  0
  -27.5140  -37.2520   24.7260 C   0  0  0  0  0  1  0  0  0  0  0  0
  -26.4270  -37.4190   23.7660 N   0  0  0  0  0  0  0  0  0  0  0  0
  -26.0200  -38.3410   23.9060 H   0  0  0  0  0  0  0  0  0  0  0  0
  -26.3680  -31.7630   25.1280 C   0  0  1  0  0  0  0  0  0  0  0  0
  -25.2750  -31.5300   26.1970 C   0  0  0  0  0  1  0  0  0  0  0  0
  -26.9490  -30.3830   24.7390 C   0  0  0  0  0  1  0  0  0  0  0  0
  -27.5160  -32.5590   25.7910 C   0  0  0  0  0  1  0  0  0  0  0  0
  1  3  2  0
  1  2  1  0
  2  5  2  0
  3  6  1  0
  5  4  1  0
  6  4  2  0
  7 18  1  0
  8 13  1  0
  9 10  1  0
  9  8  1  0
 11 10  1  0
 11 22  1  0
 11 12  1  0
 13  7  1  0
 13 12  1  0
 14  7  2  0
 15 18  1  0
 16  5  1  0
 17 47  1  0
 17 15  1  0
 17 16  1  0
 18 16  1  0
 19 20  2  0
 20 39  1  0
 21 20  1  0
 21 24  1  0
 22 19  1  0
 22 23  1  0
 23 21  2  0
 24 25  1  0
 25 26  2  0
 27 30  1  0
 27 26  1  0
 28 27  2  0
 29 28  1  0
 29 24  2  0
 30 31  1  0
 31 32  1  0
 32 33  2  0
 34 33  1  0
 34 38  1  0
 35 34  2  0
 36 31  2  0
 36 35  1  0
 37 36  1  0
 39 40  1  0
 40 43  1  0
 40 42  1  0
 41 39  2  0
 44 45  1  0
 44 19  1  0
 46 44  1  0
 47 50  1  0
 47 48  1  0
 49 47  1  0
 51  6  1  0
 51 52  1  0
 52 53  2  0
 52 54  1  0
 55 56  1  0
 55 54  1  0
 57 68  2  0
 58 56  1  0
 58 63  1  0
 59 67  1  0
 59 69  1  0
 60 66  1  0
 60 62  1  0
 61 67  1  0
 62 61  1  0
 63 62  2  0
 64 58  2  0
 65 64  1  0
 65 60  2  0
 66 59  1  0
 67 57  1  0
 69 71  2  0
 70 69  1  0
 72 70  1  0
 73 82  2  0
 73 78  1  0
 74 70  1  0
 74 78  1  0
 75 74  1  0
 76 77  1  0
 76 75  1  0
 77 73  1  0
 78 79  2  0
 79 80  1  0
 81 80  2  0
 82 81  1  0
 83 57  1  0
 83 84  1  0
 83 93  1  0
 84 87  1  0
 85 89  1  0
 85 84  1  0
 86 85  2  0
 89 88  1  0
 91 89  1  0
 91 92  1  0
 91 90  1  0
 93 96  1  1
 93 94  1  0
 95 93  1  0
M  ISO  4   7 100  18 100  55 101  56 101
M  END
>  <TORSDO>  (88) 
F 21

>  <SCORE>  (88) 
-14.005

>  <name>  (88) 
87

>  <ligand_id>  (88) 
87

>  <original_smiles>  (88) 
[H]c1c([H])c([H])c2c(c1[H])C([H])([H])C([H])([H])C([H])([H])C2([H])N([H])C(=O)C1([H])N(C(=O)C([H])(N([H])C(=O)C([H])(N([H])C([H])([H])[H])C([H])([H])[H])C(C([H])([H])[H])(C([H])([H])[H])C([H])([H])[H])C([H])([H])c2c([H])c(OC([H])([H])C([H])([H])C(=O)C([H])([H])c3c([H])c([H])c([H])c(C4([H])N(C(=O)N5C([H])([H])C([H])([H])C([H])([H])C([H])(n6nc(-c7c([H])c([H])c(Oc8c([H])c([H])c(F)c([H])c8F)c([H])c7[H])c(C(=O)N([H])[H])c6N([H])[H])C5([H])[H])C([H])([H])C4([H])[N+]([H])([H])[H])c3[H])c([H])c([H])c2C1([H])[H]

>  <smiles>  (88) 
[H]c1c([H])c([H])c2c(c1[H])C([H])([H])C([H])([H])C([H])([H])C2([H])N([H])C(=O)C1([H])N(C(=O)C([H])(N([H])C(=O)C([H])(N([H])C([H])([H])[H])C([H])([H])[H])C(C([H])([H])[H])(C([H])([H])[H])C([H])([H])[H])C([H])([H])c2c([H])c(OC([H])([H])C([H])([H])C(=O)C([H])([H])c3c([H])c([H])c([H])c(C4([H])N(C(=O)N5C([H])([H])C([H])([H])C([H])([H])C([H])(n6nc(-c7c([H])c([H])c(Oc8c([H])c([H])c(F)c([H])c8F)c([H])c7[H])c(C(=O)N([H])[H])c6N([H])[H])C5([H])[H])C([H])([H])C4([H])[N+]([H])([H])[H])c3[H])c([H])c([H])c2C1([H])[H]

$$$$
88:0:0
     RDKit          3D

 90 98  0  0  1  0  0  0  0  0999 V2000
  -29.3980  -21.0400   21.0860 C   0  0  0  0  0  3  0  0  0  0  0  0
  -30.9160  -17.9560   19.5440 C   0  0  0  0  0  3  0  0  0  0  0  0
  -29.2670  -18.3740   21.0140 C   0  0  0  0  0  3  0  0  0  0  0  0
  -29.9890  -17.3270   20.4300 C   0  0  0  0  0  0  0  0  0  0  0  0
  -30.7440  -19.3190   19.6550 C   0  0  0  0  0  0  0  0  0  0  0  0
  -29.7390  -19.6430   20.5630 N   0  0  0  0  0  0  0  0  0  0  0  0
  -30.5840  -14.7730   20.2820 C   0  0  0  0  0  0  0  0  0  0  0  0
  -30.3750  -12.5100   19.2400 C   0  0  0  0  0  2  0  0  0  0  0  0
  -29.4190  -12.6040   18.0290 C   0  0  0  0  0  2  0  0  0  0  0  0
  -27.9570  -12.4260   18.4800 C   0  0  0  0  0  2  0  0  0  0  0  0
  -27.6030  -13.3030   19.7090 C   0  0  0  0  0  3  0  0  0  0  0  0
  -28.6730  -13.1870   20.8170 C   0  0  0  0  0  2  0  0  0  0  0  0
  -29.9670  -13.5420   20.2200 N   0  0  0  0  0  0  0  0  0  0  0  0
  -31.7490  -14.8950   19.8940 O   0  0  0  0  0  0  0  0  0  0  0  0
  -29.8130  -15.8670   20.6460 N   0  0  0  0  0  0  0  0  0  0  0  0
  -28.9280  -15.6040   21.0540 H   0  0  0  0  0  0  0  0  0  0  0  0
  -25.2190  -13.8950   20.4520 C   0  0  0  0  0  0  0  0  0  0  0  0
  -24.1570  -13.1200   20.8310 C   0  0  0  0  0  0  0  0  0  0  0  0
  -24.6240  -11.7690   20.8020 C   0  0  0  0  0  0  0  0  0  0  0  0
  -26.2620  -13.0170   20.2090 N   0  0  0  0  0  0  0  0  0  0  0  0
  -25.9120  -11.7340   20.4820 N   0  0  0  0  0  0  0  0  0  0  0  0
  -23.9030  -10.5050   20.9990 C   0  0  0  0  0  0  0  0  0  0  0  0
  -24.3450   -9.5410   21.9320 C   0  0  0  0  0  3  0  0  0  0  0  0
  -23.6230   -8.3420   22.1190 C   0  0  0  0  0  3  0  0  0  0  0  0
  -22.4460   -8.0980   21.3720 C   0  0  0  0  0  0  0  0  0  0  0  0
  -22.0210   -9.0520   20.4300 C   0  0  0  0  0  3  0  0  0  0  0  0
  -22.7450  -10.2430   20.2410 C   0  0  0  0  0  3  0  0  0  0  0  0
  -21.6950   -6.9520   21.4670 O   0  0  0  0  0  0  0  0  0  0  0  0
  -21.6550   -6.2110   22.6210 C   0  0  0  0  0  0  0  0  0  0  0  0
  -21.2300   -6.7660   23.8470 C   0  0  0  0  0  3  0  0  0  0  0  0
  -21.1370   -5.9530   24.9940 C   0  0  0  0  0  3  0  0  0  0  0  0
  -21.4610   -4.5850   24.9160 C   0  0  0  0  0  0  0  0  0  0  0  0
  -21.8810   -4.0290   23.6950 C   0  0  0  0  0  3  0  0  0  0  0  0
  -21.9740   -4.8400   22.5500 C   0  0  0  0  0  0  0  0  0  0  0  0
  -22.3590   -4.2950   21.3700 F   0  0  0  0  0  0  0  0  0  0  0  0
  -21.3660   -3.8020   26.0160 F   0  0  0  0  0  0  0  0  0  0  0  0
  -22.7610  -13.5940   21.1130 C   0  0  0  0  0  0  0  0  0  0  0  0
  -22.0420  -12.8950   21.9840 N   0  0  0  0  0  0  0  0  0  0  0  0
  -22.3170  -14.6170   20.5960 O   0  0  0  0  0  0  0  0  0  0  0  0
  -22.4140  -12.0640   22.4210 H   0  0  0  0  0  0  0  0  0  0  0  0
  -21.1070  -13.1960   22.2210 H   0  0  0  0  0  0  0  0  0  0  0  0
  -25.3790  -15.2660   20.2700 N   0  0  0  0  0  0  0  0  0  0  0  0
  -24.6150  -15.9210   20.3930 H   0  0  0  0  0  0  0  0  0  0  0  0
  -26.2220  -15.7070   19.9230 H   0  0  0  0  0  0  0  0  0  0  0  0
  -31.4410  -20.3130   19.0410 O   0  0  0  0  0  0  0  0  0  0  0  0
  -32.1120  -19.9090   18.5010 H   0  0  0  0  0  0  0  0  0  0  0  0
  -28.8710  -22.2400   20.1400 C   0  0  0  0  0  3  0  0  0  0  0  0
  -28.9610  -23.7750   20.6710 C   0  0  0  0  0  3  0  0  0  0  0  0
  -28.1050  -24.9480   19.9630 C   0  0  0  0  0  3  0  0  0  0  0  0
  -28.2820  -26.4040   20.3030 O   0  0  0  0  0  0  0  0  0  0  0  0
  -24.5980  -31.9140   23.2450 C   0  0  0  0  0  0  0  0  0  0  0  0
  -27.1890  -27.3000   20.2080 C   0  0  0  0  0  0  0  0  0  0  0  0
  -23.3920  -30.5160   21.6090 C   0  0  0  0  0  3  0  0  0  0  0  0
  -24.8400  -28.9600   20.1820 C   0  0  0  0  0  0  0  0  0  0  0  0
  -25.9380  -30.8110   21.4350 C   0  0  0  0  0  2  0  0  0  0  0  0
  -26.0130  -29.4300   20.7880 C   0  0  0  0  0  0  0  0  0  0  0  0
  -27.1860  -28.6120   20.7950 C   0  0  0  0  0  3  0  0  0  0  0  0
  -26.0010  -26.9110   19.5470 C   0  0  0  0  0  3  0  0  0  0  0  0
  -24.8420  -27.7080   19.5490 C   0  0  0  0  0  3  0  0  0  0  0  0
  -23.6060  -29.8400   20.2300 C   0  0  0  0  0  2  0  0  0  0  0  0
  -24.6620  -31.0980   22.1520 N   0  0  0  0  0  0  0  0  0  0  0  0
  -23.5150  -32.2000   23.7760 O   0  0  0  0  0  0  0  0  0  0  0  0
  -22.7230  -29.5030   22.5710 C   0  0  0  0  0  0  0  0  0  0  0  0
  -21.3970  -29.3310   22.4420 N   0  0  0  0  0  0  0  0  0  0  0  0
  -23.3970  -28.8780   23.3940 O   0  0  0  0  0  0  0  0  0  0  0  0
  -20.9140  -29.8910   21.7550 H   0  0  0  0  0  0  0  0  0  0  0  0
  -18.0090  -28.1500   22.9370 C   0  0  0  0  0  0  0  0  0  0  0  0
  -20.5700  -28.3970   23.2110 C   0  0  0  0  0  3  0  0  0  0  0  0
  -20.6650  -26.9640   22.6380 C   0  0  0  0  0  2  0  0  0  0  0  0
  -19.5630  -26.6450   21.6230 C   0  0  0  0  0  2  0  0  0  0  0  0
  -18.1800  -26.7980   22.2650 C   0  0  0  0  0  2  0  0  0  0  0  0
  -19.1320  -28.9080   23.3660 C   0  0  0  0  0  0  0  0  0  0  0  0
  -18.9200  -30.1730   23.9550 C   0  0  0  0  0  3  0  0  0  0  0  0
  -17.6180  -30.6800   24.1230 C   0  0  0  0  0  3  0  0  0  0  0  0
  -16.5100  -29.9190   23.7120 C   0  0  0  0  0  3  0  0  0  0  0  0
  -16.7060  -28.6580   23.1210 C   0  0  0  0  0  3  0  0  0  0  0  0
  -25.8800  -32.5450   23.8680 C   0  0  0  0  0  3  0  0  0  0  0  0
  -25.5770  -33.9470   24.1910 N   0  0  0  0  0  0  0  0  0  0  0  0
  -25.9120  -34.9960   23.4290 C   0  0  0  0  0  0  0  0  0  0  0  0
  -26.5820  -34.8860   22.3990 O   0  0  0  0  0  0  0  0  0  0  0  0
  -24.9810  -34.1080   24.9910 H   0  0  0  0  0  0  0  0  0  0  0  0
  -24.1930  -36.7980   23.0690 C   0  0  0  0  0  1  0  0  0  0  0  0
  -25.4320  -36.3900   23.8820 C   0  0  0  0  0  3  0  0  0  0  0  0
  -27.5690  -37.2670   24.7120 C   0  0  0  0  0  1  0  0  0  0  0  0
  -26.4690  -37.4380   23.7670 N   0  0  0  0  0  0  0  0  0  0  0  0
  -26.0670  -38.3590   23.9140 H   0  0  0  0  0  0  0  0  0  0  0  0
  -26.3890  -31.7790   25.1500 C   0  0  1  0  0  0  0  0  0  0  0  0
  -25.2890  -31.5530   26.2160 C   0  0  0  0  0  1  0  0  0  0  0  0
  -26.9700  -30.3960   24.7700 C   0  0  0  0  0  1  0  0  0  0  0  0
  -27.5410  -32.5720   25.8110 C   0  0  0  0  0  1  0  0  0  0  0  0
  2  5  2  0
  2  4  1  0
  4 15  1  0
  4  3  2  0
  5  6  1  0
  6  3  1  0
  6  1  1  0
  7 15  1  0
  8 13  1  0
  9 10  1  0
  9  8  1  0
 11 10  1  0
 11 20  1  0
 11 12  1  0
 13  7  1  0
 13 12  1  0
 14  7  2  0
 15 16  1  0
 17 18  2  0
 18 37  1  0
 19 18  1  0
 19 22  1  0
 20 17  1  0
 20 21  1  0
 21 19  2  0
 22 23  1  0
 23 24  2  0
 25 28  1  0
 25 24  1  0
 26 25  2  0
 27 26  1  0
 27 22  2  0
 28 29  1  0
 29 30  1  0
 30 31  2  0
 32 31  1  0
 32 36  1  0
 33 32  2  0
 34 29  2  0
 34 33  1  0
 35 34  1  0
 37 38  1  0
 38 41  1  0
 38 40  1  0
 39 37  2  0
 42 43  1  0
 42 17  1  0
 44 42  1  0
 45  5  1  0
 46 45  1  0
 47 48  1  0
 47  1  2  0
 49 50  1  0
 49 48  2  0
 51 62  2  0
 52 50  1  0
 52 57  1  0
 53 61  1  0
 53 63  1  0
 54 60  1  0
 54 56  1  0
 55 61  1  0
 56 57  2  0
 56 55  1  0
 58 59  1  0
 58 52  2  0
 59 54  2  0
 60 53  1  0
 61 51  1  0
 63 65  2  0
 64 63  1  0
 66 64  1  0
 67 76  2  0
 67 72  1  0
 68 64  1  0
 68 72  1  0
 69 68  1  0
 70 71  1  0
 70 69  1  0
 71 67  1  0
 72 73  2  0
 73 74  1  0
 75 74  2  0
 76 75  1  0
 77 51  1  0
 77 78  1  0
 77 87  1  0
 78 81  1  0
 79 83  1  0
 79 78  1  0
 80 79  2  0
 83 82  1  0
 85 83  1  0
 85 86  1  0
 85 84  1  0
 87 90  1  1
 87 88  1  0
 89 87  1  0
M  ISO  4   7 100  15 100  49 101  50 101
M  END
>  <TORSDO>  (89) 
F 21

>  <SCORE>  (89) 
-13.560

>  <name>  (89) 
88

>  <ligand_id>  (89) 
88

>  <original_smiles>  (89) 
[H]Oc1c([H])c(N([H])C(=O)N2C([H])([H])C([H])([H])C([H])([H])C([H])(n3nc(-c4c([H])c([H])c(Oc5c([H])c([H])c(F)c([H])c5F)c([H])c4[H])c(C(=O)N([H])[H])c3N([H])[H])C2([H])[H])c([H])n1C([H])([H])C([H])([H])C([H])([H])C([H])([H])Oc1c([H])c([H])c2c(c1[H])C([H])([H])N(C(=O)C([H])(N([H])C(=O)C([H])(N([H])C([H])([H])[H])C([H])([H])[H])C(C([H])([H])[H])(C([H])([H])[H])C([H])([H])[H])C([H])(C(=O)N([H])C1([H])c3c([H])c([H])c([H])c([H])c3C([H])([H])C([H])([H])C1([H])[H])C2([H])[H]

>  <smiles>  (89) 
[H]Oc1c([H])c(N([H])C(=O)N2C([H])([H])C([H])([H])C([H])([H])C([H])(n3nc(-c4c([H])c([H])c(Oc5c([H])c([H])c(F)c([H])c5F)c([H])c4[H])c(C(=O)N([H])[H])c3N([H])[H])C2([H])[H])c([H])n1C([H])([H])C([H])([H])C([H])([H])C([H])([H])Oc1c([H])c([H])c2c(c1[H])C([H])([H])N(C(=O)C([H])(N([H])C(=O)C([H])(N([H])C([H])([H])[H])C([H])([H])[H])C(C([H])([H])[H])(C([H])([H])[H])C([H])([H])[H])C([H])(C(=O)N([H])C1([H])c3c([H])c([H])c([H])c([H])c3C([H])([H])C([H])([H])C1([H])[H])C2([H])[H]

$$$$
89:0:0
     RDKit          3D

 89 97  0  0  1  0  0  0  0  0999 V2000
  -29.3800  -20.8160   19.7470 C   0  0  0  0  0  0  0  0  0  0  0  0
  -29.8760  -21.9890   19.0780 C   0  0  0  0  0  0  0  0  0  0  0  0
  -29.7680  -19.5110   19.6110 C   0  0  0  0  0  3  0  0  0  0  0  0
  -28.3420  -21.6650   20.4510 C   0  0  0  0  0  2  0  0  0  0  0  0
  -28.9040  -22.8090   19.6450 N   0  0  0  0  0  0  0  0  0  0  0  0
  -30.7760  -22.1220   18.2770 O   0  0  0  0  0  0  0  0  0  0  0  0
  -29.2280  -18.1990   20.2370 C   0  0  0  0  0  2  0  0  0  0  0  0
  -30.3270  -17.0800   20.4050 C   0  0  0  0  0  2  0  0  0  0  0  0
  -30.6290  -14.5680   20.4060 C   0  0  0  0  0  0  0  0  0  0  0  0
  -30.3510  -12.3630   19.3370 C   0  0  0  0  0  2  0  0  0  0  0  0
  -29.4060  -12.5410   18.1330 C   0  0  0  0  0  2  0  0  0  0  0  0
  -27.9350  -12.3960   18.5680 C   0  0  0  0  0  2  0  0  0  0  0  0
  -27.5970  -13.2430   19.8230 C   0  0  0  0  0  3  0  0  0  0  0  0
  -28.6620  -13.0660   20.9290 C   0  0  0  0  0  2  0  0  0  0  0  0
  -29.9710  -13.3730   20.3360 N   0  0  0  0  0  0  0  0  0  0  0  0
  -31.8040  -14.6850   20.0500 O   0  0  0  0  0  0  0  0  0  0  0  0
  -29.8720  -15.6750   20.6360 N   0  0  0  0  0  0  0  0  0  0  0  0
  -28.9030  -15.5220   20.8710 H   0  0  0  0  0  0  0  0  0  0  0  0
  -25.2090  -13.8510   20.5510 C   0  0  0  0  0  0  0  0  0  0  0  0
  -24.1410  -13.0830   20.9290 C   0  0  0  0  0  0  0  0  0  0  0  0
  -24.5960  -11.7300   20.8940 C   0  0  0  0  0  0  0  0  0  0  0  0
  -26.2480  -12.9670   20.3130 N   0  0  0  0  0  0  0  0  0  0  0  0
  -25.8850  -11.6870   20.5800 N   0  0  0  0  0  0  0  0  0  0  0  0
  -23.8650  -10.4700   21.0840 C   0  0  0  0  0  0  0  0  0  0  0  0
  -24.3120   -9.4900   21.9960 C   0  0  0  0  0  3  0  0  0  0  0  0
  -23.5850   -8.2950   22.1790 C   0  0  0  0  0  3  0  0  0  0  0  0
  -22.3970   -8.0690   21.4420 C   0  0  0  0  0  0  0  0  0  0  0  0
  -21.9680   -9.0380   20.5180 C   0  0  0  0  0  3  0  0  0  0  0  0
  -22.6960  -10.2260   20.3360 C   0  0  0  0  0  3  0  0  0  0  0  0
  -21.6390   -6.9280   21.5320 O   0  0  0  0  0  0  0  0  0  0  0  0
  -21.6220   -6.1640   22.6720 C   0  0  0  0  0  0  0  0  0  0  0  0
  -21.2500   -6.7020   23.9230 C   0  0  0  0  0  3  0  0  0  0  0  0
  -21.1800   -5.8650   25.0550 C   0  0  0  0  0  3  0  0  0  0  0  0
  -21.4700   -4.4920   24.9370 C   0  0  0  0  0  0  0  0  0  0  0  0
  -21.8320   -3.9540   23.6900 C   0  0  0  0  0  3  0  0  0  0  0  0
  -21.9060   -4.7870   22.5600 C   0  0  0  0  0  0  0  0  0  0  0  0
  -22.2360   -4.2600   21.3570 F   0  0  0  0  0  0  0  0  0  0  0  0
  -21.3920   -3.6880   26.0210 F   0  0  0  0  0  0  0  0  0  0  0  0
  -22.7470  -13.5660   21.2050 C   0  0  0  0  0  0  0  0  0  0  0  0
  -22.0190  -12.8740   22.0750 N   0  0  0  0  0  0  0  0  0  0  0  0
  -22.3070  -14.5910   20.6850 O   0  0  0  0  0  0  0  0  0  0  0  0
  -22.3910  -12.0510   22.5250 H   0  0  0  0  0  0  0  0  0  0  0  0
  -21.0800  -13.1780   22.2930 H   0  0  0  0  0  0  0  0  0  0  0  0
  -25.3810  -15.2200   20.3700 N   0  0  0  0  0  0  0  0  0  0  0  0
  -24.6150  -15.8750   20.4840 H   0  0  0  0  0  0  0  0  0  0  0  0
  -26.2180  -15.6520   20.0020 H   0  0  0  0  0  0  0  0  0  0  0  0
  -28.5310  -24.2160   19.3050 C   0  0  0  0  0  3  0  0  0  0  0  0
  -28.4270  -25.2450   20.4820 C   0  0  0  0  0  3  0  0  0  0  0  0
  -28.4260  -26.6540   20.1070 O   0  0  0  0  0  0  0  0  0  0  0  0
  -24.6290  -31.8840   23.2300 C   0  0  0  0  0  0  0  0  0  0  0  0
  -27.2450  -27.3830   20.1480 C   0  0  0  0  0  0  0  0  0  0  0  0
  -23.4090  -30.4740   21.6050 C   0  0  0  0  0  3  0  0  0  0  0  0
  -24.8480  -28.9190   20.1790 C   0  0  0  0  0  0  0  0  0  0  0  0
  -25.9370  -30.8180   21.3850 C   0  0  0  0  0  2  0  0  0  0  0  0
  -26.0160  -29.4400   20.7480 C   0  0  0  0  0  0  0  0  0  0  0  0
  -27.2160  -28.6830   20.7210 C   0  0  0  0  0  3  0  0  0  0  0  0
  -26.0540  -26.8810   19.5830 C   0  0  0  0  0  3  0  0  0  0  0  0
  -24.8640  -27.6380   19.5980 C   0  0  0  0  0  3  0  0  0  0  0  0
  -23.6070  -29.7830   20.2290 C   0  0  0  0  0  2  0  0  0  0  0  0
  -24.6780  -31.0750   22.1320 N   0  0  0  0  0  0  0  0  0  0  0  0
  -23.5510  -32.1610   23.7750 O   0  0  0  0  0  0  0  0  0  0  0  0
  -22.7620  -29.4600   22.5760 C   0  0  0  0  0  0  0  0  0  0  0  0
  -21.4350  -29.2780   22.4580 N   0  0  0  0  0  0  0  0  0  0  0  0
  -23.4470  -28.8400   23.3920 O   0  0  0  0  0  0  0  0  0  0  0  0
  -20.9380  -29.8280   21.7720 H   0  0  0  0  0  0  0  0  0  0  0  0
  -18.0690  -28.0630   22.9700 C   0  0  0  0  0  0  0  0  0  0  0  0
  -20.6240  -28.3430   23.2390 C   0  0  0  0  0  3  0  0  0  0  0  0
  -20.7380  -26.9060   22.6790 C   0  0  0  0  0  2  0  0  0  0  0  0
  -19.6390  -26.5650   21.6680 C   0  0  0  0  0  2  0  0  0  0  0  0
  -18.2560  -26.7070   22.3100 C   0  0  0  0  0  2  0  0  0  0  0  0
  -19.1820  -28.8360   23.3910 C   0  0  0  0  0  0  0  0  0  0  0  0
  -18.9540  -30.1040   23.9710 C   0  0  0  0  0  3  0  0  0  0  0  0
  -17.6470  -30.5990   24.1290 C   0  0  0  0  0  3  0  0  0  0  0  0
  -16.5480  -29.8220   23.7260 C   0  0  0  0  0  3  0  0  0  0  0  0
  -16.7600  -28.5550   23.1520 C   0  0  0  0  0  3  0  0  0  0  0  0
  -25.9200  -32.5210   23.8350 C   0  0  0  0  0  3  0  0  0  0  0  0
  -26.4590  -31.7470   25.1010 C   0  0  1  0  0  0  0  0  0  0  0  0
  -25.3850  -31.5060   26.1870 C   0  0  0  0  0  1  0  0  0  0  0  0
  -27.0370  -30.3720   24.6970 C   0  0  0  0  0  1  0  0  0  0  0  0
  -27.6170  -32.5430   25.7480 C   0  0  0  0  0  1  0  0  0  0  0  0
  -25.6100  -33.9170   24.1720 N   0  0  0  0  0  0  0  0  0  0  0  0
  -25.9290  -34.9720   23.4110 C   0  0  0  0  0  0  0  0  0  0  0  0
  -26.5830  -34.8740   22.3700 O   0  0  0  0  0  0  0  0  0  0  0  0
  -25.0300  -34.0720   24.9840 H   0  0  0  0  0  0  0  0  0  0  0  0
  -24.1860  -36.7580   23.0910 C   0  0  0  0  0  1  0  0  0  0  0  0
  -25.4440  -36.3580   23.8790 C   0  0  0  0  0  3  0  0  0  0  0  0
  -27.5900  -37.2490   24.6730 C   0  0  0  0  0  1  0  0  0  0  0  0
  -26.4710  -37.4150   23.7500 N   0  0  0  0  0  0  0  0  0  0  0  0
  -26.0630  -38.3330   23.9100 H   0  0  0  0  0  0  0  0  0  0  0  0
  1  4  1  0
  2  5  1  0
  2  1  1  0
  3  1  2  0
  3  7  1  0
  5  4  1  0
  6  2  2  0
  7  8  1  0
  8 17  1  0
  9 17  1  0
 10 15  1  0
 11 12  1  0
 11 10  1  0
 13 12  1  0
 13 22  1  0
 13 14  1  0
 15  9  1  0
 15 14  1  0
 16  9  2  0
 17 18  1  0
 19 20  2  0
 20 39  1  0
 21 20  1  0
 21 24  1  0
 22 19  1  0
 22 23  1  0
 23 21  2  0
 24 25  1  0
 25 26  2  0
 27 30  1  0
 27 26  1  0
 28 27  2  0
 29 28  1  0
 29 24  2  0
 30 31  1  0
 31 32  1  0
 32 33  2  0
 34 33  1  0
 34 38  1  0
 35 34  2  0
 36 31  2  0
 36 35  1  0
 37 36  1  0
 39 40  1  0
 40 43  1  0
 40 42  1  0
 41 39  2  0
 44 45  1  0
 44 19  1  0
 46 44  1  0
 47  5  1  0
 47 48  2  0
 49 51  1  0
 49 48  1  0
 50 61  2  0
 51 56  1  0
 52 60  1  0
 52 62  1  0
 53 59  1  0
 53 55  1  0
 54 60  1  0
 55 54  1  0
 56 55  2  0
 57 58  1  0
 57 51  2  0
 58 53  2  0
 59 52  1  0
 60 50  1  0
 62 64  2  0
 63 62  1  0
 65 63  1  0
 66 75  2  0
 66 71  1  0
 67 63  1  0
 67 71  1  0
 68 67  1  0
 69 70  1  0
 69 68  1  0
 70 66  1  0
 71 72  2  0
 72 73  1  0
 74 73  2  0
 75 74  1  0
 76 50  1  0
 76 81  1  0
 76 77  1  0
 77 80  1  1
 77 78  1  0
 79 77  1  0
 81 84  1  0
 82 86  1  0
 82 81  1  0
 83 82  2  0
 86 85  1  0
 88 86  1  0
 88 89  1  0
 88 87  1  0
M  ISO  4   9 100  17 100  48 101  49 101
M  END
>  <TORSDO>  (90) 
F 20

>  <SCORE>  (90) 
-13.649

>  <name>  (90) 
89

>  <ligand_id>  (90) 
89

>  <original_smiles>  (90) 
[H]C(=C1C(=O)N(C([H])([H])C([H])([H])Oc2c([H])c([H])c3c(c2[H])C([H])([H])N(C(=O)C([H])(N([H])C(=O)C([H])(N([H])C([H])([H])[H])C([H])([H])[H])C(C([H])([H])[H])(C([H])([H])[H])C([H])([H])[H])C([H])(C(=O)N([H])C2([H])c4c([H])c([H])c([H])c([H])c4C([H])([H])C([H])([H])C2([H])[H])C3([H])[H])C1([H])[H])C([H])([H])C([H])([H])N([H])C(=O)N1C([H])([H])C([H])([H])C([H])([H])C([H])(n2nc(-c3c([H])c([H])c(Oc4c([H])c([H])c(F)c([H])c4F)c([H])c3[H])c(C(=O)N([H])[H])c2N([H])[H])C1([H])[H]

>  <smiles>  (90) 
[H]C(=C1C(=O)N(C([H])([H])C([H])([H])Oc2c([H])c([H])c3c(c2[H])C([H])([H])N(C(=O)C([H])(N([H])C(=O)C([H])(N([H])C([H])([H])[H])C([H])([H])[H])C(C([H])([H])[H])(C([H])([H])[H])C([H])([H])[H])C([H])(C(=O)N([H])C2([H])c4c([H])c([H])c([H])c([H])c4C([H])([H])C([H])([H])C2([H])[H])C3([H])[H])C1([H])[H])C([H])([H])C([H])([H])N([H])C(=O)N1C([H])([H])C([H])([H])C([H])([H])C([H])(n2nc(-c3c([H])c([H])c(Oc4c([H])c([H])c(F)c([H])c4F)c([H])c3[H])c(C(=O)N([H])[H])c2N([H])[H])C1([H])[H]

$$$$
90:0:0
     RDKit          3D

 96104  0  0  1  0  0  0  0  0999 V2000
  -30.8560  -23.5810   19.6650 C   0  0  0  0  0  3  0  0  0  0  0  0
  -30.4170  -24.4080   20.8260 C   0  0  0  0  0  2  0  0  0  0  0  0
  -32.0610  -24.4500   19.4700 C   0  0  0  0  0  2  0  0  0  0  0  0
  -30.2280  -22.8040   18.9030 N   0  0  0  0  0  2  0  0  0  0  0  0
  -31.3190  -25.4490   20.2740 N   0  0  1  0  0  4  0  0  0  0  0  0
  -31.9040  -25.8340   21.0030 H   0  0  0  0  0  0  0  0  0  0  0  0
  -30.9850  -21.9870   17.9760 C   0  0  0  0  0  2  0  0  0  0  0  0
  -30.2610  -20.6510   17.7490 C   0  0  0  0  0  2  0  0  0  0  0  0
  -30.1120  -19.9080   19.0170 N   0  0  0  0  0  4  0  0  0  0  0  0
  -31.0320  -19.7430   19.3890 H   0  0  0  0  0  0  0  0  0  0  0  0
  -29.6170  -20.5030   19.6620 H   0  0  0  0  0  0  0  0  0  0  0  0
  -29.4070  -18.6170   18.8920 C   0  0  0  0  0  2  0  0  0  0  0  0
  -29.3990  -17.8280   20.2150 C   0  0  0  0  0  2  0  0  0  0  0  0
  -30.8140  -17.5050   20.7390 C   0  0  0  0  0  2  0  0  0  0  0  0
  -30.8510  -16.4310   21.8440 C   0  0  0  0  0  2  0  0  0  0  0  0
  -30.7500  -14.3410   20.4730 C   0  0  0  0  0  0  0  0  0  0  0  0
  -30.3390  -12.2910   19.1690 C   0  0  0  0  0  2  0  0  0  0  0  0
  -29.3820  -12.5690   17.9940 C   0  0  0  0  0  2  0  0  0  0  0  0
  -27.9140  -12.4420   18.4460 C   0  0  0  0  0  2  0  0  0  0  0  0
  -27.6180  -13.2450   19.7400 C   0  0  0  0  0  3  0  0  0  0  0  0
  -28.6790  -12.9450   20.8220 C   0  0  0  0  0  2  0  0  0  0  0  0
  -30.0120  -13.2240   20.2560 N   0  0  0  0  0  0  0  0  0  0  0  0
  -31.7830  -14.6070   19.8510 O   0  0  0  0  0  0  0  0  0  0  0  0
  -30.2700  -15.1590   21.4190 N   0  0  0  0  0  0  0  0  0  0  0  0
  -29.4290  -14.8560   21.8880 H   0  0  0  0  0  0  0  0  0  0  0  0
  -25.2280  -13.8790   20.4650 C   0  0  0  0  0  0  0  0  0  0  0  0
  -24.1570  -13.1170   20.8490 C   0  0  0  0  0  0  0  0  0  0  0  0
  -24.6080  -11.7620   20.8230 C   0  0  0  0  0  0  0  0  0  0  0  0
  -26.2650  -12.9880   20.2300 N   0  0  0  0  0  0  0  0  0  0  0  0
  -25.8930  -11.7100   20.5000 N   0  0  0  0  0  0  0  0  0  0  0  0
  -23.8750  -10.5060   21.0310 C   0  0  0  0  0  0  0  0  0  0  0  0
  -24.3250   -9.5300   21.9490 C   0  0  0  0  0  3  0  0  0  0  0  0
  -23.5940   -8.3390   22.1420 C   0  0  0  0  0  3  0  0  0  0  0  0
  -22.3980   -8.1150   21.4200 C   0  0  0  0  0  0  0  0  0  0  0  0
  -21.9670   -9.0790   20.4920 C   0  0  0  0  0  3  0  0  0  0  0  0
  -22.6990  -10.2610   20.2950 C   0  0  0  0  0  3  0  0  0  0  0  0
  -21.6350   -6.9770   21.5250 O   0  0  0  0  0  0  0  0  0  0  0  0
  -21.6300   -6.2170   22.6680 C   0  0  0  0  0  0  0  0  0  0  0  0
  -21.2840   -6.7610   23.9230 C   0  0  0  0  0  3  0  0  0  0  0  0
  -21.2240   -5.9280   25.0590 C   0  0  0  0  0  3  0  0  0  0  0  0
  -21.5010   -4.5520   24.9400 C   0  0  0  0  0  0  0  0  0  0  0  0
  -21.8400   -4.0090   23.6890 C   0  0  0  0  0  3  0  0  0  0  0  0
  -21.9020   -4.8370   22.5550 C   0  0  0  0  0  0  0  0  0  0  0  0
  -22.2090   -4.3050   21.3480 F   0  0  0  0  0  0  0  0  0  0  0  0
  -21.4360   -3.7500   26.0280 F   0  0  0  0  0  0  0  0  0  0  0  0
  -22.7670  -13.6060   21.1360 C   0  0  0  0  0  0  0  0  0  0  0  0
  -22.0430  -12.9230   22.0180 N   0  0  0  0  0  0  0  0  0  0  0  0
  -22.3290  -14.6310   20.6140 O   0  0  0  0  0  0  0  0  0  0  0  0
  -22.4090  -12.0940   22.4630 H   0  0  0  0  0  0  0  0  0  0  0  0
  -21.1110  -13.2330   22.2500 H   0  0  0  0  0  0  0  0  0  0  0  0
  -25.4010  -15.2470   20.2770 N   0  0  0  0  0  0  0  0  0  0  0  0
  -24.6430  -15.9090   20.4020 H   0  0  0  0  0  0  0  0  0  0  0  0
  -26.2600  -15.6810   19.9650 H   0  0  0  0  0  0  0  0  0  0  0  0
  -30.7050  -26.5340   19.4600 C   0  0  0  0  0  2  0  0  0  0  0  0
  -29.6580  -27.3780   20.2060 C   0  0  0  0  0  2  0  0  0  0  0  0
  -28.4000  -26.7170   20.0930 O   0  0  0  0  0  0  0  0  0  0  0  0
  -24.5810  -31.8860   23.2330 C   0  0  0  0  0  0  0  0  0  0  0  0
  -27.2540  -27.4720   20.1730 C   0  0  0  0  0  0  0  0  0  0  0  0
  -23.3730  -30.4670   21.6020 C   0  0  0  0  0  3  0  0  0  0  0  0
  -24.8320  -28.9220   20.1940 C   0  0  0  0  0  0  0  0  0  0  0  0
  -25.8910  -30.8450   21.3930 C   0  0  0  0  0  2  0  0  0  0  0  0
  -25.9840  -29.4690   20.7730 C   0  0  0  0  0  0  0  0  0  0  0  0
  -27.1940  -28.7510   20.7730 C   0  0  0  0  0  3  0  0  0  0  0  0
  -26.0830  -26.9190   19.6170 C   0  0  0  0  0  3  0  0  0  0  0  0
  -24.8730  -27.6400   19.6190 C   0  0  0  0  0  3  0  0  0  0  0  0
  -23.5830  -29.7720   20.2300 C   0  0  0  0  0  2  0  0  0  0  0  0
  -24.6330  -31.0800   22.1350 N   0  0  0  0  0  0  0  0  0  0  0  0
  -23.5010  -32.1600   23.7740 O   0  0  0  0  0  0  0  0  0  0  0  0
  -22.7280  -29.4520   22.5710 C   0  0  0  0  0  0  0  0  0  0  0  0
  -21.4050  -29.2670   22.4460 N   0  0  0  0  0  0  0  0  0  0  0  0
  -23.4150  -28.8330   23.3880 O   0  0  0  0  0  0  0  0  0  0  0  0
  -20.9140  -29.8190   21.7560 H   0  0  0  0  0  0  0  0  0  0  0  0
  -18.0310  -28.0830   22.9500 C   0  0  0  0  0  0  0  0  0  0  0  0
  -20.5880  -28.3350   23.2210 C   0  0  0  0  0  3  0  0  0  0  0  0
  -20.6880  -26.9020   22.6520 C   0  0  0  0  0  2  0  0  0  0  0  0
  -19.5850  -26.5750   21.6400 C   0  0  0  0  0  2  0  0  0  0  0  0
  -18.2040  -26.7290   22.2840 C   0  0  0  0  0  2  0  0  0  0  0  0
  -19.1510  -28.8450   23.3760 C   0  0  0  0  0  0  0  0  0  0  0  0
  -18.9360  -30.1140   23.9560 C   0  0  0  0  0  3  0  0  0  0  0  0
  -17.6330  -30.6200   24.1160 C   0  0  0  0  0  3  0  0  0  0  0  0
  -16.5260  -29.8560   23.7090 C   0  0  0  0  0  3  0  0  0  0  0  0
  -16.7260  -28.5890   23.1310 C   0  0  0  0  0  3  0  0  0  0  0  0
  -25.8700  -32.5190   23.8460 C   0  0  0  0  0  3  0  0  0  0  0  0
  -26.4020  -31.7460   25.1150 C   0  0  1  0  0  0  0  0  0  0  0  0
  -25.3170  -31.4930   26.1870 C   0  0  0  0  0  1  0  0  0  0  0  0
  -26.9940  -30.3770   24.7070 C   0  0  0  0  0  1  0  0  0  0  0  0
  -27.5500  -32.5460   25.7730 C   0  0  0  0  0  1  0  0  0  0  0  0
  -25.5600  -33.9160   24.1780 N   0  0  0  0  0  0  0  0  0  0  0  0
  -25.8900  -34.9670   23.4160 C   0  0  0  0  0  0  0  0  0  0  0  0
  -26.5570  -34.8650   22.3840 O   0  0  0  0  0  0  0  0  0  0  0  0
  -24.9670  -34.0700   24.9800 H   0  0  0  0  0  0  0  0  0  0  0  0
  -24.1540  -36.7520   23.0620 C   0  0  0  0  0  1  0  0  0  0  0  0
  -25.3980  -36.3550   23.8720 C   0  0  0  0  0  3  0  0  0  0  0  0
  -27.5340  -37.2440   24.6950 C   0  0  0  0  0  1  0  0  0  0  0  0
  -26.4270  -37.4110   23.7560 N   0  0  0  0  0  0  0  0  0  0  0  0
  -26.0190  -38.3290   23.9070 H   0  0  0  0  0  0  0  0  0  0  0  0
  1  4  1  0
  1  2  1  0
  3  1  1  0
  3  5  1  0
  5  2  1  0
  5  6  1  1
  7  4  1  0
  8  7  1  0
  8  9  1  0
  9 10  1  0
  9 11  1  0
 12  9  1  0
 12 13  1  0
 13 14  1  0
 14 15  1  0
 16 24  1  0
 17 22  1  0
 18 19  1  0
 18 17  1  0
 20 19  1  0
 20 29  1  0
 20 21  1  0
 22 16  1  0
 22 21  1  0
 23 16  2  0
 24 15  1  0
 24 25  1  0
 26 27  2  0
 27 46  1  0
 28 27  1  0
 28 31  1  0
 29 26  1  0
 29 30  1  0
 30 28  2  0
 31 32  1  0
 32 33  2  0
 34 37  1  0
 34 33  1  0
 35 34  2  0
 36 35  1  0
 36 31  2  0
 37 38  1  0
 38 39  1  0
 39 40  2  0
 41 40  1  0
 41 45  1  0
 42 41  2  0
 43 38  2  0
 43 42  1  0
 44 43  1  0
 46 47  1  0
 47 50  1  0
 47 49  1  0
 48 46  2  0
 51 52  1  0
 51 26  1  0
 53 51  1  0
 54 55  1  0
 54  5  1  0
 56 58  1  0
 56 55  1  0
 57 68  2  0
 58 63  1  0
 59 67  1  0
 59 69  1  0
 60 66  1  0
 60 62  1  0
 61 67  1  0
 62 63  2  0
 62 61  1  0
 64 65  1  0
 64 58  2  0
 65 60  2  0
 66 59  1  0
 67 57  1  0
 69 71  2  0
 70 69  1  0
 72 70  1  0
 73 82  2  0
 73 78  1  0
 74 70  1  0
 74 78  1  0
 75 74  1  0
 76 77  1  0
 76 75  1  0
 77 73  1  0
 78 79  2  0
 79 80  1  0
 81 80  2  0
 82 81  1  0
 83 57  1  0
 83 88  1  0
 83 84  1  0
 84 87  1  1
 84 85  1  0
 86 84  1  0
 88 91  1  0
 89 93  1  0
 89 88  1  0
 90 89  2  0
 93 92  1  0
 95 93  1  0
 95 96  1  0
 95 94  1  0
M  ISO  4  16 100  24 100  55 101  56 101
M  END
>  <TORSDO>  (91) 
F 25

>  <SCORE>  (91) 
-12.273

>  <name>  (91) 
90

>  <ligand_id>  (91) 
90

>  <original_smiles>  (91) 
[H]c1c([H])c([H])c2c(c1[H])C([H])([H])C([H])([H])C([H])([H])C2([H])N([H])C(=O)C1([H])N(C(=O)C([H])(N([H])C(=O)C([H])(N([H])C([H])([H])[H])C([H])([H])[H])C(C([H])([H])[H])(C([H])([H])[H])C([H])([H])[H])C([H])([H])c2c([H])c(OC([H])([H])C([H])([H])[N+]3([H])C([H])([H])C(=NC([H])([H])C([H])([H])[N+]([H])([H])C([H])([H])C([H])([H])C([H])([H])C([H])([H])N([H])C(=O)N4C([H])([H])C([H])([H])C([H])([H])C([H])(n5nc(-c6c([H])c([H])c(Oc7c([H])c([H])c(F)c([H])c7F)c([H])c6[H])c(C(=O)N([H])[H])c5N([H])[H])C4([H])[H])C3([H])[H])c([H])c([H])c2C1([H])[H]

>  <smiles>  (91) 
[H]c1c([H])c([H])c2c(c1[H])C([H])([H])C([H])([H])C([H])([H])C2([H])N([H])C(=O)C1([H])N(C(=O)C([H])(N([H])C(=O)C([H])(N([H])C([H])([H])[H])C([H])([H])[H])C(C([H])([H])[H])(C([H])([H])[H])C([H])([H])[H])C([H])([H])c2c([H])c(OC([H])([H])C([H])([H])[N+]3([H])C([H])([H])C(=NC([H])([H])C([H])([H])[N+]([H])([H])C([H])([H])C([H])([H])C([H])([H])C([H])([H])N([H])C(=O)N4C([H])([H])C([H])([H])C([H])([H])C([H])(n5nc(-c6c([H])c([H])c(Oc7c([H])c([H])c(F)c([H])c7F)c([H])c6[H])c(C(=O)N([H])[H])c5N([H])[H])C4([H])[H])C3([H])[H])c([H])c([H])c2C1([H])[H]

$$$$
91:0:0
     RDKit          3D

 94102  0  0  1  0  0  0  0  0999 V2000
  -30.1010  -20.4770   20.8410 C   0  0  0  0  0  2  0  0  0  0  0  0
  -28.2430  -21.2870   19.6240 C   0  0  0  0  0  2  0  0  0  0  0  0
  -29.0170  -19.3600   20.7740 C   0  0  0  0  0  3  0  0  0  0  0  0
  -28.1650  -19.7640   19.5640 C   0  0  0  0  0  3  0  0  0  0  0  0
  -29.6200  -21.6040   19.9990 N   0  0  0  0  0  0  0  0  0  0  0  0
  -26.7630  -19.3260   19.6650 N   0  0  0  0  0  4  0  0  0  0  0  0
  -26.3630  -19.6140   20.5400 H   0  0  0  0  0  0  0  0  0  0  0  0
  -26.6850  -18.3300   19.5790 H   0  0  0  0  0  0  0  0  0  0  0  0
  -26.2320  -19.7500   18.9240 H   0  0  0  0  0  0  0  0  0  0  0  0
  -29.3240  -17.8170   20.9760 C   0  0  0  0  0  2  0  0  0  0  0  0
  -30.1160  -17.2270   18.5910 C   0  0  0  0  0  1  0  0  0  0  0  0
  -30.3110  -16.9720   20.0980 C   0  0  0  0  0  3  0  0  0  0  0  0
  -30.9300  -14.4620   20.0190 C   0  0  0  0  0  0  0  0  0  0  0  0
  -30.6130  -12.2320   18.9840 C   0  0  0  0  0  2  0  0  0  0  0  0
  -29.6180  -12.4020   17.8140 C   0  0  0  0  0  2  0  0  0  0  0  0
  -28.1640  -12.2970   18.3090 C   0  0  0  0  0  2  0  0  0  0  0  0
  -27.8890  -13.1690   19.5640 C   0  0  0  0  0  3  0  0  0  0  0  0
  -28.9920  -12.9730   20.6310 C   0  0  0  0  0  2  0  0  0  0  0  0
  -30.2880  -13.2600   19.9930 N   0  0  0  0  0  0  0  0  0  0  0  0
  -32.0600  -14.6230   19.5470 O   0  0  0  0  0  0  0  0  0  0  0  0
  -30.1560  -15.5160   20.3900 N   0  0  0  0  0  0  0  0  0  0  0  0
  -29.2650  -15.2410   20.7790 H   0  0  0  0  0  0  0  0  0  0  0  0
  -25.5510  -13.8390   20.4080 C   0  0  0  0  0  0  0  0  0  0  0  0
  -24.4750  -13.0980   20.8150 C   0  0  0  0  0  0  0  0  0  0  0  0
  -24.8810  -11.7320   20.7220 C   0  0  0  0  0  0  0  0  0  0  0  0
  -26.5520  -12.9270   20.1050 N   0  0  0  0  0  0  0  0  0  0  0  0
  -26.1520  -11.6540   20.3470 N   0  0  0  0  0  0  0  0  0  0  0  0
  -24.1190  -10.4930   20.9130 C   0  0  0  0  0  0  0  0  0  0  0  0
  -24.5300   -9.5120   21.8430 C   0  0  0  0  0  3  0  0  0  0  0  0
  -23.7700   -8.3380   22.0280 C   0  0  0  0  0  3  0  0  0  0  0  0
  -22.5850   -8.1330   21.2800 C   0  0  0  0  0  0  0  0  0  0  0  0
  -22.1930   -9.1030   20.3410 C   0  0  0  0  0  3  0  0  0  0  0  0
  -22.9510  -10.2690   20.1540 C   0  0  0  0  0  3  0  0  0  0  0  0
  -21.7990   -7.0100   21.3710 O   0  0  0  0  0  0  0  0  0  0  0  0
  -21.6850   -6.3070   22.5430 C   0  0  0  0  0  0  0  0  0  0  0  0
  -21.2120   -6.9090   23.7290 C   0  0  0  0  0  3  0  0  0  0  0  0
  -21.0360   -6.1330   24.8910 C   0  0  0  0  0  3  0  0  0  0  0  0
  -21.3290   -4.7550   24.8690 C   0  0  0  0  0  0  0  0  0  0  0  0
  -21.7940   -4.1520   23.6880 C   0  0  0  0  0  3  0  0  0  0  0  0
  -21.9700   -4.9270   22.5280 C   0  0  0  0  0  0  0  0  0  0  0  0
  -22.3970   -4.3360   21.3850 F   0  0  0  0  0  0  0  0  0  0  0  0
  -21.1570   -4.0080   25.9840 F   0  0  0  0  0  0  0  0  0  0  0  0
  -23.1120  -13.6160   21.1740 C   0  0  0  0  0  0  0  0  0  0  0  0
  -22.4080  -12.9300   22.0660 N   0  0  0  0  0  0  0  0  0  0  0  0
  -22.6830  -14.6670   20.6960 O   0  0  0  0  0  0  0  0  0  0  0  0
  -22.7690  -12.0790   22.4730 H   0  0  0  0  0  0  0  0  0  0  0  0
  -21.4940  -13.2580   22.3410 H   0  0  0  0  0  0  0  0  0  0  0  0
  -25.7590  -15.2090   20.2450 N   0  0  0  0  0  0  0  0  0  0  0  0
  -24.9710  -15.8450   20.2630 H   0  0  0  0  0  0  0  0  0  0  0  0
  -26.5480  -15.5700   19.7250 H   0  0  0  0  0  0  0  0  0  0  0  0
  -29.6840  -22.9580   20.6030 C   0  0  0  0  0  2  0  0  0  0  0  0
  -29.0420  -24.1110   19.7450 C   0  0  0  0  0  2  0  0  0  0  0  0
  -28.7690  -25.4370   20.5290 C   0  0  0  0  0  2  0  0  0  0  0  0
  -28.5890  -26.6220   19.7200 O   0  0  0  0  0  0  0  0  0  0  0  0
  -24.5840  -31.5900   22.9950 C   0  0  0  0  0  0  0  0  0  0  0  0
  -27.3880  -27.3040   19.8120 C   0  0  0  0  0  0  0  0  0  0  0  0
  -23.4310  -30.2030   21.3020 C   0  0  0  0  0  3  0  0  0  0  0  0
  -24.9430  -28.7460   19.8450 C   0  0  0  0  0  0  0  0  0  0  0  0
  -25.9470  -30.6410   21.1290 C   0  0  0  0  0  2  0  0  0  0  0  0
  -26.0820  -29.2880   20.4540 C   0  0  0  0  0  0  0  0  0  0  0  0
  -27.3070  -28.5770   20.4290 C   0  0  0  0  0  3  0  0  0  0  0  0
  -26.2340  -26.7760   19.1990 C   0  0  0  0  0  3  0  0  0  0  0  0
  -25.0180  -27.4900   19.2110 C   0  0  0  0  0  3  0  0  0  0  0  0
  -23.6700  -29.5640   19.9070 C   0  0  0  0  0  2  0  0  0  0  0  0
  -24.6730  -30.8250   21.8680 N   0  0  0  0  0  0  0  0  0  0  0  0
  -23.4910  -31.8120   23.5340 O   0  0  0  0  0  0  0  0  0  0  0  0
  -22.8030  -29.1360   22.2280 C   0  0  0  0  0  0  0  0  0  0  0  0
  -21.4780  -28.9520   22.1170 N   0  0  0  0  0  0  0  0  0  0  0  0
  -23.5050  -28.4770   23.0000 O   0  0  0  0  0  0  0  0  0  0  0  0
  -20.9720  -29.5310   21.4620 H   0  0  0  0  0  0  0  0  0  0  0  0
  -18.1130  -27.7440   22.6700 C   0  0  0  0  0  0  0  0  0  0  0  0
  -20.6820  -27.9680   22.8550 C   0  0  0  0  0  3  0  0  0  0  0  0
  -20.7490  -26.5790   22.1760 C   0  0  0  0  0  2  0  0  0  0  0  0
  -19.5990  -26.3310   21.1940 C   0  0  0  0  0  2  0  0  0  0  0  0
  -18.2510  -26.4350   21.9100 C   0  0  0  0  0  2  0  0  0  0  0  0
  -19.2540  -28.4710   23.1000 C   0  0  0  0  0  0  0  0  0  0  0  0
  -19.0680  -29.6980   23.7750 C   0  0  0  0  0  3  0  0  0  0  0  0
  -17.7760  -30.1970   24.0190 C   0  0  0  0  0  3  0  0  0  0  0  0
  -16.6510  -29.4670   23.6010 C   0  0  0  0  0  3  0  0  0  0  0  0
  -16.8200  -28.2410   22.9340 C   0  0  0  0  0  3  0  0  0  0  0  0
  -25.8440  -32.2400   23.6430 C   0  0  0  0  0  3  0  0  0  0  0  0
  -25.4890  -33.6140   24.0250 N   0  0  0  0  0  0  0  0  0  0  0  0
  -25.7990  -34.7060   23.3120 C   0  0  0  0  0  0  0  0  0  0  0  0
  -26.4860  -34.6650   22.2880 O   0  0  0  0  0  0  0  0  0  0  0  0
  -24.8790  -33.7190   24.8230 H   0  0  0  0  0  0  0  0  0  0  0  0
  -24.0180  -36.4560   23.0100 C   0  0  0  0  0  1  0  0  0  0  0  0
  -25.2640  -36.0600   23.8180 C   0  0  0  0  0  3  0  0  0  0  0  0
  -27.3600  -36.9820   24.7050 C   0  0  0  0  0  1  0  0  0  0  0  0
  -26.2640  -37.1480   23.7520 N   0  0  0  0  0  0  0  0  0  0  0  0
  -25.8300  -38.0500   23.9230 H   0  0  0  0  0  0  0  0  0  0  0  0
  -26.3880  -31.4370   24.8880 C   0  0  1  0  0  0  0  0  0  0  0  0
  -25.3030  -31.1230   25.9450 C   0  0  0  0  0  1  0  0  0  0  0  0
  -27.0110  -30.0960   24.4400 C   0  0  0  0  0  1  0  0  0  0  0  0
  -27.5150  -32.2400   25.5790 C   0  0  0  0  0  1  0  0  0  0  0  0
  2  5  1  0
  3  1  1  0
  3 10  1  0
  4  2  1  0
  4  6  1  0
  4  3  1  0
  5 51  1  0
  5  1  1  0
  6  7  1  0
  8  6  1  0
  9  6  1  0
 12 11  1  0
 12 21  1  0
 12 10  1  0
 13 21  1  0
 14 19  1  0
 15 16  1  0
 15 14  1  0
 17 16  1  0
 17 26  1  0
 17 18  1  0
 19 13  1  0
 19 18  1  0
 20 13  2  0
 21 22  1  0
 23 24  2  0
 24 43  1  0
 25 24  1  0
 25 28  1  0
 26 27  1  0
 26 23  1  0
 27 25  2  0
 28 29  1  0
 29 30  2  0
 31 34  1  0
 31 30  1  0
 32 31  2  0
 33 32  1  0
 33 28  2  0
 34 35  1  0
 35 36  1  0
 36 37  2  0
 38 37  1  0
 38 42  1  0
 39 38  2  0
 40 35  2  0
 40 39  1  0
 41 40  1  0
 43 44  1  0
 44 47  1  0
 44 46  1  0
 45 43  2  0
 48 49  1  0
 48 23  1  0
 50 48  1  0
 52 53  1  0
 52 51  1  0
 54 56  1  0
 54 53  1  0
 55 66  2  0
 56 61  1  0
 57 65  1  0
 57 67  1  0
 58 64  1  0
 58 60  1  0
 59 65  1  0
 60 59  1  0
 61 60  2  0
 62 63  1  0
 62 56  2  0
 63 58  2  0
 64 57  1  0
 65 55  1  0
 67 69  2  0
 68 67  1  0
 70 68  1  0
 71 80  2  0
 71 76  1  0
 72 68  1  0
 72 76  1  0
 73 72  1  0
 74 75  1  0
 74 73  1  0
 75 71  1  0
 76 77  2  0
 77 78  1  0
 79 78  2  0
 80 79  1  0
 81 55  1  0
 81 82  1  0
 81 91  1  0
 82 85  1  0
 83 87  1  0
 83 82  1  0
 84 83  2  0
 87 86  1  0
 89 87  1  0
 89 90  1  0
 89 88  1  0
 91 94  1  1
 91 92  1  0
 93 91  1  0
M  ISO  4  13 100  21 100  53 101  54 101
M  END
>  <TORSDO>  (92) 
F 22

>  <SCORE>  (92) 
-12.530

>  <name>  (92) 
91

>  <ligand_id>  (92) 
91

>  <original_smiles>  (92) 
[H]c1c([H])c([H])c2c(c1[H])C([H])([H])C([H])([H])C([H])([H])C2([H])N([H])C(=O)C1([H])N(C(=O)C([H])(N([H])C(=O)C([H])(N([H])C([H])([H])[H])C([H])([H])[H])C(C([H])([H])[H])(C([H])([H])[H])C([H])([H])[H])C([H])([H])c2c([H])c(OC([H])([H])C([H])([H])C([H])([H])N3C([H])([H])C([H])(C([H])([H])C([H])(N([H])C(=O)N4C([H])([H])C([H])([H])C([H])([H])C([H])(n5nc(-c6c([H])c([H])c(Oc7c([H])c([H])c(F)c([H])c7F)c([H])c6[H])c(C(=O)N([H])[H])c5N([H])[H])C4([H])[H])C([H])([H])[H])C([H])([N+]([H])([H])[H])C3([H])[H])c([H])c([H])c2C1([H])[H]

>  <smiles>  (92) 
[H]c1c([H])c([H])c2c(c1[H])C([H])([H])C([H])([H])C([H])([H])C2([H])N([H])C(=O)C1([H])N(C(=O)C([H])(N([H])C(=O)C([H])(N([H])C([H])([H])[H])C([H])([H])[H])C(C([H])([H])[H])(C([H])([H])[H])C([H])([H])[H])C([H])([H])c2c([H])c(OC([H])([H])C([H])([H])C([H])([H])N3C([H])([H])C([H])(C([H])([H])C([H])(N([H])C(=O)N4C([H])([H])C([H])([H])C([H])([H])C([H])(n5nc(-c6c([H])c([H])c(Oc7c([H])c([H])c(F)c([H])c7F)c([H])c6[H])c(C(=O)N([H])[H])c5N([H])[H])C4([H])[H])C([H])([H])[H])C([H])([N+]([H])([H])[H])C3([H])[H])c([H])c([H])c2C1([H])[H]

$$$$
92:0:0
     RDKit          3D

 90 98  0  0  1  0  0  0  0  0999 V2000
  -29.1710  -21.8350   21.5810 C   0  0  0  0  0  0  0  0  0  0  0  0
  -28.5960  -21.7700   19.5860 C   0  0  0  0  0  2  0  0  0  0  0  0
  -28.7410  -20.6640   20.6660 C   0  0  0  0  0  3  0  0  0  0  0  0
  -28.9620  -22.7870   20.6010 N   0  0  0  0  0  0  0  0  0  0  0  0
  -29.5730  -21.9570   22.7220 O   0  0  0  0  0  0  0  0  0  0  0  0
  -29.5760  -18.2520   21.0160 C   0  0  0  0  0  3  0  0  0  0  0  0
  -29.7310  -19.4830   20.4360 C   0  0  0  0  0  0  0  0  0  0  0  0
  -30.9030  -19.8030   19.5130 C   0  0  0  0  0  1  0  0  0  0  0  0
  -30.5370  -17.0380   20.9190 C   0  0  0  0  0  2  0  0  0  0  0  0
  -30.6580  -14.5720   20.4670 C   0  0  0  0  0  0  0  0  0  0  0  0
  -30.3790  -12.3820   19.3600 C   0  0  0  0  0  2  0  0  0  0  0  0
  -29.4510  -12.5470   18.1400 C   0  0  0  0  0  2  0  0  0  0  0  0
  -27.9760  -12.3960   18.5610 C   0  0  0  0  0  2  0  0  0  0  0  0
  -27.6160  -13.2550   19.8030 C   0  0  0  0  0  3  0  0  0  0  0  0
  -28.6630  -13.0900   20.9270 C   0  0  0  0  0  2  0  0  0  0  0  0
  -29.9810  -13.3930   20.3580 N   0  0  0  0  0  0  0  0  0  0  0  0
  -31.8140  -14.6960   20.0570 O   0  0  0  0  0  0  0  0  0  0  0  0
  -29.9590  -15.6640   20.8780 N   0  0  0  0  0  0  0  0  0  0  0  0
  -29.0020  -15.5250   21.1660 H   0  0  0  0  0  0  0  0  0  0  0  0
  -25.2170  -13.8510   20.5090 C   0  0  0  0  0  0  0  0  0  0  0  0
  -24.1510  -13.0750   20.8730 C   0  0  0  0  0  0  0  0  0  0  0  0
  -24.6160  -11.7250   20.8470 C   0  0  0  0  0  0  0  0  0  0  0  0
  -26.2660  -12.9740   20.2800 N   0  0  0  0  0  0  0  0  0  0  0  0
  -25.9070  -11.6900   20.5420 N   0  0  0  0  0  0  0  0  0  0  0  0
  -23.8920  -10.4600   21.0330 C   0  0  0  0  0  0  0  0  0  0  0  0
  -24.3240   -9.4930   21.9660 C   0  0  0  0  0  3  0  0  0  0  0  0
  -23.6000   -8.2940   22.1410 C   0  0  0  0  0  3  0  0  0  0  0  0
  -22.4310   -8.0550   21.3800 C   0  0  0  0  0  0  0  0  0  0  0  0
  -22.0180   -9.0110   20.4340 C   0  0  0  0  0  3  0  0  0  0  0  0
  -22.7430  -10.2010   20.2580 C   0  0  0  0  0  3  0  0  0  0  0  0
  -21.6780   -6.9070   21.4620 O   0  0  0  0  0  0  0  0  0  0  0  0
  -21.6230   -6.1650   22.6140 C   0  0  0  0  0  0  0  0  0  0  0  0
  -21.1760   -6.7160   23.8360 C   0  0  0  0  0  3  0  0  0  0  0  0
  -21.0670   -5.8990   24.9790 C   0  0  0  0  0  3  0  0  0  0  0  0
  -21.3960   -4.5320   24.9020 C   0  0  0  0  0  0  0  0  0  0  0  0
  -21.8410   -3.9810   23.6860 C   0  0  0  0  0  3  0  0  0  0  0  0
  -21.9490   -4.7960   22.5450 C   0  0  0  0  0  0  0  0  0  0  0  0
  -22.3540   -4.2540   21.3710 F   0  0  0  0  0  0  0  0  0  0  0  0
  -21.2850   -3.7460   25.9970 F   0  0  0  0  0  0  0  0  0  0  0  0
  -22.7510  -13.5500   21.1380 C   0  0  0  0  0  0  0  0  0  0  0  0
  -22.0220  -12.8550   22.0070 N   0  0  0  0  0  0  0  0  0  0  0  0
  -22.3120  -14.5730   20.6150 O   0  0  0  0  0  0  0  0  0  0  0  0
  -22.3890  -12.0300   22.4560 H   0  0  0  0  0  0  0  0  0  0  0  0
  -21.0840  -13.1560   22.2250 H   0  0  0  0  0  0  0  0  0  0  0  0
  -25.3750  -15.2240   20.3290 N   0  0  0  0  0  0  0  0  0  0  0  0
  -24.6010  -15.8710   20.4300 H   0  0  0  0  0  0  0  0  0  0  0  0
  -26.2170  -15.6700   19.9880 H   0  0  0  0  0  0  0  0  0  0  0  0
  -29.2480  -24.2460   20.5780 C   0  0  0  0  0  3  0  0  0  0  0  0
  -28.0880  -25.1540   20.0750 C   0  0  0  0  0  3  0  0  0  0  0  0
  -28.3160  -26.5910   20.2140 O   0  0  0  0  0  0  0  0  0  0  0  0
  -24.6030  -31.9240   23.2520 C   0  0  0  0  0  0  0  0  0  0  0  0
  -27.1900  -27.4090   20.1650 C   0  0  0  0  0  0  0  0  0  0  0  0
  -23.3860  -30.5310   21.6170 C   0  0  0  0  0  3  0  0  0  0  0  0
  -24.8230  -28.9900   20.1810 C   0  0  0  0  0  0  0  0  0  0  0  0
  -25.9220  -30.8530   21.4190 C   0  0  0  0  0  2  0  0  0  0  0  0
  -25.9950  -29.4810   20.7710 C   0  0  0  0  0  0  0  0  0  0  0  0
  -27.1820  -28.7000   20.7580 C   0  0  0  0  0  3  0  0  0  0  0  0
  -25.9980  -26.9600   19.5460 C   0  0  0  0  0  3  0  0  0  0  0  0
  -24.8260  -27.7310   19.5620 C   0  0  0  0  0  3  0  0  0  0  0  0
  -23.5900  -29.8640   20.2340 C   0  0  0  0  0  2  0  0  0  0  0  0
  -24.6560  -31.1180   22.1540 N   0  0  0  0  0  0  0  0  0  0  0  0
  -23.5230  -32.2050   23.7920 O   0  0  0  0  0  0  0  0  0  0  0  0
  -22.7290  -29.5090   22.5760 C   0  0  0  0  0  0  0  0  0  0  0  0
  -21.4020  -29.3330   22.4490 N   0  0  0  0  0  0  0  0  0  0  0  0
  -23.4100  -28.8790   23.3880 O   0  0  0  0  0  0  0  0  0  0  0  0
  -20.9130  -29.8940   21.7650 H   0  0  0  0  0  0  0  0  0  0  0  0
  -18.0260  -28.1550   22.9550 C   0  0  0  0  0  0  0  0  0  0  0  0
  -20.5840  -28.4010   23.2230 C   0  0  0  0  0  3  0  0  0  0  0  0
  -20.6790  -26.9680   22.6490 C   0  0  0  0  0  2  0  0  0  0  0  0
  -19.5760  -26.6500   21.6350 C   0  0  0  0  0  2  0  0  0  0  0  0
  -18.1950  -26.8030   22.2800 C   0  0  0  0  0  2  0  0  0  0  0  0
  -19.1470  -28.9110   23.3830 C   0  0  0  0  0  0  0  0  0  0  0  0
  -18.9350  -30.1760   23.9750 C   0  0  0  0  0  3  0  0  0  0  0  0
  -17.6330  -30.6850   24.1370 C   0  0  0  0  0  3  0  0  0  0  0  0
  -16.5240  -29.9250   23.7280 C   0  0  0  0  0  3  0  0  0  0  0  0
  -16.7220  -28.6620   23.1420 C   0  0  0  0  0  3  0  0  0  0  0  0
  -25.8930  -32.5480   23.8690 C   0  0  0  0  0  3  0  0  0  0  0  0
  -26.4170  -31.7700   25.1390 C   0  0  1  0  0  0  0  0  0  0  0  0
  -25.3290  -31.5280   26.2120 C   0  0  0  0  0  1  0  0  0  0  0  0
  -26.9950  -30.3940   24.7340 C   0  0  0  0  0  1  0  0  0  0  0  0
  -27.5760  -32.5560   25.7950 C   0  0  0  0  0  1  0  0  0  0  0  0
  -25.5940  -33.9470   24.2020 N   0  0  0  0  0  0  0  0  0  0  0  0
  -25.9140  -34.9950   23.4320 C   0  0  0  0  0  0  0  0  0  0  0  0
  -26.5640  -34.8880   22.3910 O   0  0  0  0  0  0  0  0  0  0  0  0
  -25.0200  -34.1060   25.0170 H   0  0  0  0  0  0  0  0  0  0  0  0
  -24.1770  -36.7830   23.1060 C   0  0  0  0  0  1  0  0  0  0  0  0
  -25.4350  -36.3850   23.8960 C   0  0  0  0  0  3  0  0  0  0  0  0
  -27.5830  -37.2740   24.6850 C   0  0  0  0  0  1  0  0  0  0  0  0
  -26.4640  -37.4380   23.7600 N   0  0  0  0  0  0  0  0  0  0  0  0
  -26.0610  -38.3580   23.9140 H   0  0  0  0  0  0  0  0  0  0  0  0
  1  5  2  0
  2  4  1  0
  2  3  1  0
  3  7  1  0
  3  1  1  0
  4  1  1  0
  7  6  2  0
  8  7  1  0
  9  6  1  0
 10 18  1  0
 11 16  1  0
 12 13  1  0
 12 11  1  0
 14 13  1  0
 14 23  1  0
 14 15  1  0
 16 10  1  0
 16 15  1  0
 17 10  2  0
 18  9  1  0
 18 19  1  0
 20 21  2  0
 21 40  1  0
 22 21  1  0
 22 25  1  0
 23 20  1  0
 23 24  1  0
 24 22  2  0
 25 26  1  0
 26 27  2  0
 28 31  1  0
 28 27  1  0
 29 28  2  0
 30 29  1  0
 30 25  2  0
 31 32  1  0
 32 33  1  0
 33 34  2  0
 35 34  1  0
 35 39  1  0
 36 35  2  0
 37 32  2  0
 37 36  1  0
 38 37  1  0
 40 41  1  0
 41 44  1  0
 41 43  1  0
 42 40  2  0
 45 46  1  0
 45 20  1  0
 47 45  1  0
 48  4  1  0
 49 50  1  0
 49 48  2  0
 51 62  2  0
 52 50  1  0
 52 57  1  0
 53 61  1  0
 53 63  1  0
 54 60  1  0
 54 56  1  0
 55 61  1  0
 56 55  1  0
 57 56  2  0
 58 59  1  0
 58 52  2  0
 59 54  2  0
 60 53  1  0
 61 51  1  0
 63 65  2  0
 64 63  1  0
 66 64  1  0
 67 76  2  0
 67 72  1  0
 68 64  1  0
 68 72  1  0
 69 68  1  0
 70 71  1  0
 70 69  1  0
 71 67  1  0
 72 73  2  0
 73 74  1  0
 75 74  2  0
 76 75  1  0
 77 51  1  0
 77 82  1  0
 77 78  1  0
 78 81  1  1
 78 79  1  0
 80 78  1  0
 82 85  1  0
 83 87  1  0
 83 82  1  0
 84 83  2  0
 87 86  1  0
 89 87  1  0
 89 90  1  0
 89 88  1  0
M  ISO  4  10 100  18 100  49 101  50 101
M  END
>  <TORSDO>  (93) 
F 20

>  <SCORE>  (93) 
-13.993

>  <name>  (93) 
92

>  <ligand_id>  (93) 
92

>  <original_smiles>  (93) 
[H]C(=C(C([H])([H])[H])C1([H])C(=O)N(C([H])([H])C([H])([H])Oc2c([H])c([H])c3c(c2[H])C([H])([H])N(C(=O)C([H])(N([H])C(=O)C([H])(N([H])C([H])([H])[H])C([H])([H])[H])C(C([H])([H])[H])(C([H])([H])[H])C([H])([H])[H])C([H])(C(=O)N([H])C2([H])c4c([H])c([H])c([H])c([H])c4C([H])([H])C([H])([H])C2([H])[H])C3([H])[H])C1([H])[H])C([H])([H])N([H])C(=O)N1C([H])([H])C([H])([H])C([H])([H])C([H])(n2nc(-c3c([H])c([H])c(Oc4c([H])c([H])c(F)c([H])c4F)c([H])c3[H])c(C(=O)N([H])[H])c2N([H])[H])C1([H])[H]

>  <smiles>  (93) 
[H]C(=C(C([H])([H])[H])C1([H])C(=O)N(C([H])([H])C([H])([H])Oc2c([H])c([H])c3c(c2[H])C([H])([H])N(C(=O)C([H])(N([H])C(=O)C([H])(N([H])C([H])([H])[H])C([H])([H])[H])C(C([H])([H])[H])(C([H])([H])[H])C([H])([H])[H])C([H])(C(=O)N([H])C2([H])c4c([H])c([H])c([H])c([H])c4C([H])([H])C([H])([H])C2([H])[H])C3([H])[H])C1([H])[H])C([H])([H])N([H])C(=O)N1C([H])([H])C([H])([H])C([H])([H])C([H])(n2nc(-c3c([H])c([H])c(Oc4c([H])c([H])c(F)c([H])c4F)c([H])c3[H])c(C(=O)N([H])[H])c2N([H])[H])C1([H])[H]

$$$$
93:0:0
     RDKit          3D

 90 98  0  0  1  0  0  0  0  0999 V2000
  -30.1860  -20.1810   22.1770 C   0  0  0  0  0  3  0  0  0  0  0  0
  -29.6780  -19.3360   21.2050 C   0  0  0  0  0  0  0  0  0  0  0  0
  -28.6260  -21.3140   20.6070 C   0  0  0  0  0  0  0  0  0  0  0  0
  -28.8140  -20.0230   20.3500 N   0  0  0  0  0  0  0  0  0  0  0  0
  -29.4840  -21.7840   22.0830 S   0  0  0  0  0  0  0  0  0  0  0  0
  -27.7810  -23.3590   19.7560 C   0  0  0  0  0  3  0  0  0  0  0  0
  -27.8220  -22.0880   19.8350 N   0  0  0  0  0  0  0  0  0  0  0  0
  -28.5780  -24.4460   20.4680 C   0  0  0  0  0  2  0  0  0  0  0  0
  -28.8140  -25.6660   19.5460 C   0  0  0  0  0  2  0  0  0  0  0  0
  -28.6160  -26.9110   20.2150 O   0  0  0  0  0  0  0  0  0  0  0  0
  -24.6260  -31.9250   23.2430 C   0  0  0  0  0  0  0  0  0  0  0  0
  -27.3880  -27.5440   20.1840 C   0  0  0  0  0  0  0  0  0  0  0  0
  -23.4640  -30.5170   21.5760 C   0  0  0  0  0  3  0  0  0  0  0  0
  -24.9550  -29.0020   20.1680 C   0  0  0  0  0  0  0  0  0  0  0  0
  -25.9870  -30.9130   21.4110 C   0  0  0  0  0  2  0  0  0  0  0  0
  -26.0950  -29.5460   20.7680 C   0  0  0  0  0  0  0  0  0  0  0  0
  -27.3100  -28.8260   20.7700 C   0  0  0  0  0  3  0  0  0  0  0  0
  -26.2200  -26.9980   19.5950 C   0  0  0  0  0  3  0  0  0  0  0  0
  -25.0090  -27.7220   19.5850 C   0  0  0  0  0  3  0  0  0  0  0  0
  -23.7010  -29.8470   20.1950 C   0  0  0  0  0  2  0  0  0  0  0  0
  -24.7110  -31.1330   22.1360 N   0  0  0  0  0  0  0  0  0  0  0  0
  -23.5340  -32.1760   23.7720 O   0  0  0  0  0  0  0  0  0  0  0  0
  -22.8180  -29.4800   22.5260 C   0  0  0  0  0  0  0  0  0  0  0  0
  -21.4960  -29.2950   22.4010 N   0  0  0  0  0  0  0  0  0  0  0  0
  -23.5040  -28.8470   23.3300 O   0  0  0  0  0  0  0  0  0  0  0  0
  -20.9970  -29.8640   21.7300 H   0  0  0  0  0  0  0  0  0  0  0  0
  -18.1230  -28.1050   22.9060 C   0  0  0  0  0  0  0  0  0  0  0  0
  -20.6860  -28.3420   23.1580 C   0  0  0  0  0  3  0  0  0  0  0  0
  -20.7720  -26.9230   22.5470 C   0  0  0  0  0  2  0  0  0  0  0  0
  -19.6580  -26.6290   21.5360 C   0  0  0  0  0  2  0  0  0  0  0  0
  -18.2830  -26.7700   22.1990 C   0  0  0  0  0  2  0  0  0  0  0  0
  -19.2500  -28.8510   23.3420 C   0  0  0  0  0  0  0  0  0  0  0  0
  -19.0430  -30.1010   23.9610 C   0  0  0  0  0  3  0  0  0  0  0  0
  -17.7420  -30.6080   24.1500 C   0  0  0  0  0  3  0  0  0  0  0  0
  -16.6290  -29.8590   23.7270 C   0  0  0  0  0  3  0  0  0  0  0  0
  -16.8220  -28.6090   23.1100 C   0  0  0  0  0  3  0  0  0  0  0  0
  -25.8970  -32.5740   23.8800 C   0  0  0  0  0  3  0  0  0  0  0  0
  -25.5690  -33.9700   24.1970 N   0  0  0  0  0  0  0  0  0  0  0  0
  -25.9120  -35.0200   23.4380 C   0  0  0  0  0  0  0  0  0  0  0  0
  -26.6070  -34.9150   22.4260 O   0  0  0  0  0  0  0  0  0  0  0  0
  -24.9610  -34.1250   24.9870 H   0  0  0  0  0  0  0  0  0  0  0  0
  -24.1880  -36.8000   23.0240 C   0  0  0  0  0  1  0  0  0  0  0  0
  -25.4050  -36.4050   23.8770 C   0  0  0  0  0  3  0  0  0  0  0  0
  -27.5030  -37.3110   24.7750 C   0  0  0  0  0  1  0  0  0  0  0  0
  -26.4360  -37.4600   23.7870 N   0  0  0  0  0  0  0  0  0  0  0  0
  -26.0230  -38.3820   23.9020 H   0  0  0  0  0  0  0  0  0  0  0  0
  -26.4020  -31.8140   25.1680 C   0  0  1  0  0  0  0  0  0  0  0  0
  -25.2950  -31.5640   26.2180 C   0  0  0  0  0  1  0  0  0  0  0  0
  -27.0120  -30.4460   24.7890 C   0  0  0  0  0  1  0  0  0  0  0  0
  -27.5320  -32.6260   25.8450 C   0  0  0  0  0  1  0  0  0  0  0  0
  -29.7980  -17.8520   20.8530 C   0  0  0  0  0  2  0  0  0  0  0  0
  -30.7220  -16.8500   21.6000 C   0  0  0  0  0  2  0  0  0  0  0  0
  -30.8330  -14.5890   20.3620 C   0  0  0  0  0  0  0  0  0  0  0  0
  -30.4730  -12.4860   19.0890 C   0  0  0  0  0  2  0  0  0  0  0  0
  -29.5050  -12.6940   17.9060 C   0  0  0  0  0  2  0  0  0  0  0  0
  -28.0360  -12.5550   18.3530 C   0  0  0  0  0  2  0  0  0  0  0  0
  -27.7340  -13.3540   19.6500 C   0  0  0  0  0  3  0  0  0  0  0  0
  -28.8110  -13.1010   20.7270 C   0  0  0  0  0  2  0  0  0  0  0  0
  -30.1290  -13.4360   20.1580 N   0  0  0  0  0  0  0  0  0  0  0  0
  -31.8710  -14.8470   19.7420 O   0  0  0  0  0  0  0  0  0  0  0  0
  -30.3150  -15.4550   21.2590 N   0  0  0  0  0  0  0  0  0  0  0  0
  -29.4590  -15.1450   21.6970 H   0  0  0  0  0  0  0  0  0  0  0  0
  -25.3490  -13.9580   20.4200 C   0  0  0  0  0  0  0  0  0  0  0  0
  -24.2900  -13.1880   20.8130 C   0  0  0  0  0  0  0  0  0  0  0  0
  -24.7470  -11.8340   20.7620 C   0  0  0  0  0  0  0  0  0  0  0  0
  -26.3880  -13.0770   20.1550 N   0  0  0  0  0  0  0  0  0  0  0  0
  -26.0310  -11.7920   20.4180 N   0  0  0  0  0  0  0  0  0  0  0  0
  -24.0250  -10.5720   20.9690 C   0  0  0  0  0  0  0  0  0  0  0  0
  -24.4680   -9.6080   21.9020 C   0  0  0  0  0  3  0  0  0  0  0  0
  -23.7460   -8.4080   22.0940 C   0  0  0  0  0  3  0  0  0  0  0  0
  -22.5680   -8.1680   21.3520 C   0  0  0  0  0  0  0  0  0  0  0  0
  -22.1420   -9.1160   20.4070 C   0  0  0  0  0  3  0  0  0  0  0  0
  -22.8620  -10.3060   20.2160 C   0  0  0  0  0  3  0  0  0  0  0  0
  -21.8170   -7.0200   21.4530 O   0  0  0  0  0  0  0  0  0  0  0  0
  -21.7650   -6.2900   22.6100 C   0  0  0  0  0  0  0  0  0  0  0  0
  -21.3220   -6.8530   23.8280 C   0  0  0  0  0  3  0  0  0  0  0  0
  -21.2180   -6.0490   24.9790 C   0  0  0  0  0  3  0  0  0  0  0  0
  -21.5460   -4.6800   24.9170 C   0  0  0  0  0  0  0  0  0  0  0  0
  -21.9800   -4.1170   23.7030 C   0  0  0  0  0  3  0  0  0  0  0  0
  -22.0870   -4.9200   22.5550 C   0  0  0  0  0  0  0  0  0  0  0  0
  -22.4860   -4.3670   21.3860 F   0  0  0  0  0  0  0  0  0  0  0  0
  -21.4390   -3.9080   26.0200 F   0  0  0  0  0  0  0  0  0  0  0  0
  -22.8980  -13.6610   21.1200 C   0  0  0  0  0  0  0  0  0  0  0  0
  -22.1890  -12.9680   21.9980 N   0  0  0  0  0  0  0  0  0  0  0  0
  -22.4470  -14.6860   20.6100 O   0  0  0  0  0  0  0  0  0  0  0  0
  -22.5740  -12.1470   22.4440 H   0  0  0  0  0  0  0  0  0  0  0  0
  -21.2520  -13.2600   22.2330 H   0  0  0  0  0  0  0  0  0  0  0  0
  -25.5170  -15.3290   20.2460 N   0  0  0  0  0  0  0  0  0  0  0  0
  -24.7590  -15.9870   20.3910 H   0  0  0  0  0  0  0  0  0  0  0  0
  -26.3490  -15.7600   19.8660 H   0  0  0  0  0  0  0  0  0  0  0  0
  2  1  2  0
  3  5  1  0
  4  3  2  0
  4  2  1  0
  5  1  1  0
  6  7  2  0
  6  8  1  0
  7  3  1  0
  9 10  1  0
  9  8  1  0
 11 22  2  0
 12 10  1  0
 12 17  1  0
 13 21  1  0
 13 23  1  0
 14 20  1  0
 14 16  1  0
 15 21  1  0
 16 17  2  0
 16 15  1  0
 18 12  2  0
 19 18  1  0
 19 14  2  0
 20 13  1  0
 21 11  1  0
 23 25  2  0
 24 23  1  0
 26 24  1  0
 27 36  2  0
 27 32  1  0
 28 24  1  0
 28 32  1  0
 29 28  1  0
 30 31  1  0
 30 29  1  0
 31 27  1  0
 32 33  2  0
 33 34  1  0
 35 34  2  0
 36 35  1  0
 37 11  1  0
 37 38  1  0
 37 47  1  0
 38 41  1  0
 39 43  1  0
 39 38  1  0
 40 39  2  0
 43 42  1  0
 45 43  1  0
 45 46  1  0
 45 44  1  0
 47 50  1  1
 47 48  1  0
 49 47  1  0
 51  2  1  0
 51 52  1  0
 53 61  1  0
 54 59  1  0
 55 56  1  0
 55 54  1  0
 57 56  1  0
 57 66  1  0
 57 58  1  0
 59 53  1  0
 59 58  1  0
 60 53  2  0
 61 52  1  0
 61 62  1  0
 63 64  2  0
 64 83  1  0
 65 64  1  0
 65 68  1  0
 66 67  1  0
 66 63  1  0
 67 65  2  0
 68 69  1  0
 69 70  2  0
 71 74  1  0
 71 70  1  0
 72 71  2  0
 73 72  1  0
 73 68  2  0
 74 75  1  0
 75 76  1  0
 76 77  2  0
 78 77  1  0
 78 82  1  0
 79 78  2  0
 80 75  2  0
 80 79  1  0
 81 80  1  0
 83 84  1  0
 84 87  1  0
 84 86  1  0
 85 83  2  0
 88 89  1  0
 88 63  1  0
 90 88  1  0
M  ISO  4   9 101  10 101  53 100  61 100
M  END
>  <TORSDO>  (94) 
F 21

>  <SCORE>  (94) 
-13.363

>  <name>  (94) 
93

>  <ligand_id>  (94) 
93

>  <original_smiles>  (94) 
[H]C(=Nc1nc(C([H])([H])C([H])([H])N([H])C(=O)N2C([H])([H])C([H])([H])C([H])([H])C([H])(n3nc(-c4c([H])c([H])c(Oc5c([H])c([H])c(F)c([H])c5F)c([H])c4[H])c(C(=O)N([H])[H])c3N([H])[H])C2([H])[H])c([H])s1)C([H])([H])C([H])([H])Oc1c([H])c([H])c2c(c1[H])C([H])([H])N(C(=O)C([H])(N([H])C(=O)C([H])(N([H])C([H])([H])[H])C([H])([H])[H])C(C([H])([H])[H])(C([H])([H])[H])C([H])([H])[H])C([H])(C(=O)N([H])C1([H])c3c([H])c([H])c([H])c([H])c3C([H])([H])C([H])([H])C1([H])[H])C2([H])[H]

>  <smiles>  (94) 
[H]C(=Nc1nc(C([H])([H])C([H])([H])N([H])C(=O)N2C([H])([H])C([H])([H])C([H])([H])C([H])(n3nc(-c4c([H])c([H])c(Oc5c([H])c([H])c(F)c([H])c5F)c([H])c4[H])c(C(=O)N([H])[H])c3N([H])[H])C2([H])[H])c([H])s1)C([H])([H])C([H])([H])Oc1c([H])c([H])c2c(c1[H])C([H])([H])N(C(=O)C([H])(N([H])C(=O)C([H])(N([H])C([H])([H])[H])C([H])([H])[H])C(C([H])([H])[H])(C([H])([H])[H])C([H])([H])[H])C([H])(C(=O)N([H])C1([H])c3c([H])c([H])c([H])c([H])c3C([H])([H])C([H])([H])C1([H])[H])C2([H])[H]

$$$$
94:0:0
     RDKit          3D

 91 99  0  0  1  0  0  0  0  0999 V2000
  -30.0230  -22.8370   22.4500 C   0  0  0  0  0  3  0  0  0  0  0  0
  -30.0120  -21.5420   21.8790 C   0  0  0  0  0  3  0  0  0  0  0  0
  -29.4470  -23.9460   21.7880 C   0  0  0  0  0  3  0  0  0  0  0  0
  -28.8560  -22.4570   19.9620 C   0  0  0  0  0  3  0  0  0  0  0  0
  -29.4320  -21.2970   20.6130 C   0  0  0  0  0  0  0  0  0  0  0  0
  -28.8450  -23.7890   20.5260 C   0  0  0  0  0  0  0  0  0  0  0  0
  -29.4900  -19.8880   19.9740 C   0  0  0  0  0  0  0  0  0  0  0  0
  -29.5620  -19.8020   18.7130 N   0  0  0  0  0  0  0  0  0  0  0  0
  -29.5990  -20.7210   18.2830 H   0  0  0  0  0  0  0  0  0  0  0  0
  -29.4120  -18.5090   20.7760 C   0  0  0  0  0  2  0  0  0  0  0  0
  -30.2920  -17.2550   20.2690 C   0  0  0  0  0  2  0  0  0  0  0  0
  -30.6260  -14.6920   20.3750 C   0  0  0  0  0  0  0  0  0  0  0  0
  -30.3680  -12.4430   19.3440 C   0  0  0  0  0  2  0  0  0  0  0  0
  -29.4320  -12.5580   18.1220 C   0  0  0  0  0  2  0  0  0  0  0  0
  -27.9600  -12.4070   18.5520 C   0  0  0  0  0  2  0  0  0  0  0  0
  -27.6020  -13.2830   19.7810 C   0  0  0  0  0  3  0  0  0  0  0  0
  -28.6620  -13.1650   20.9000 C   0  0  0  0  0  2  0  0  0  0  0  0
  -29.9680  -13.4890   20.3120 N   0  0  0  0  0  0  0  0  0  0  0  0
  -31.7960  -14.7860   19.9930 O   0  0  0  0  0  0  0  0  0  0  0  0
  -29.8980  -15.8310   20.6400 N   0  0  0  0  0  0  0  0  0  0  0  0
  -28.9450  -15.6840   20.9410 H   0  0  0  0  0  0  0  0  0  0  0  0
  -25.2140  -13.8850   20.5020 C   0  0  0  0  0  0  0  0  0  0  0  0
  -24.1450  -13.1150   20.8740 C   0  0  0  0  0  0  0  0  0  0  0  0
  -24.6050  -11.7620   20.8510 C   0  0  0  0  0  0  0  0  0  0  0  0
  -26.2550  -13.0010   20.2710 N   0  0  0  0  0  0  0  0  0  0  0  0
  -25.8960  -11.7200   20.5430 N   0  0  0  0  0  0  0  0  0  0  0  0
  -23.8750  -10.5030   21.0460 C   0  0  0  0  0  0  0  0  0  0  0  0
  -24.3150   -9.5300   21.9710 C   0  0  0  0  0  3  0  0  0  0  0  0
  -23.5860   -8.3350   22.1570 C   0  0  0  0  0  3  0  0  0  0  0  0
  -22.4020   -8.1060   21.4160 C   0  0  0  0  0  0  0  0  0  0  0  0
  -21.9810   -9.0660   20.4800 C   0  0  0  0  0  3  0  0  0  0  0  0
  -22.7090  -10.2530   20.2930 C   0  0  0  0  0  3  0  0  0  0  0  0
  -21.6430   -6.9640   21.5120 O   0  0  0  0  0  0  0  0  0  0  0  0
  -21.6170   -6.2090   22.6560 C   0  0  0  0  0  0  0  0  0  0  0  0
  -21.2430   -6.7580   23.9030 C   0  0  0  0  0  3  0  0  0  0  0  0
  -21.1650   -5.9300   25.0410 C   0  0  0  0  0  3  0  0  0  0  0  0
  -21.4500   -4.5560   24.9340 C   0  0  0  0  0  0  0  0  0  0  0  0
  -21.8160   -4.0070   23.6930 C   0  0  0  0  0  3  0  0  0  0  0  0
  -21.8970   -4.8310   22.5570 C   0  0  0  0  0  0  0  0  0  0  0  0
  -22.2310   -4.2930   21.3590 F   0  0  0  0  0  0  0  0  0  0  0  0
  -21.3650   -3.7590   26.0250 F   0  0  0  0  0  0  0  0  0  0  0  0
  -22.7490  -13.5960   21.1400 C   0  0  0  0  0  0  0  0  0  0  0  0
  -22.0190  -12.9070   22.0110 N   0  0  0  0  0  0  0  0  0  0  0  0
  -22.3130  -14.6180   20.6100 O   0  0  0  0  0  0  0  0  0  0  0  0
  -22.3880  -12.0830   22.4600 H   0  0  0  0  0  0  0  0  0  0  0  0
  -21.0810  -13.2090   22.2320 H   0  0  0  0  0  0  0  0  0  0  0  0
  -25.3830  -15.2540   20.3180 N   0  0  0  0  0  0  0  0  0  0  0  0
  -24.6170  -15.9100   20.4180 H   0  0  0  0  0  0  0  0  0  0  0  0
  -26.2270  -15.6830   19.9600 H   0  0  0  0  0  0  0  0  0  0  0  0
  -28.0640  -24.9820   19.8590 C   0  0  0  0  0  2  0  0  0  0  0  0
  -28.2910  -26.4100   20.2410 O   0  0  0  0  0  0  0  0  0  0  0  0
  -24.6310  -31.8900   23.2300 C   0  0  0  0  0  0  0  0  0  0  0  0
  -27.2020  -27.3070   20.1500 C   0  0  0  0  0  0  0  0  0  0  0  0
  -23.4130  -30.4960   21.5990 C   0  0  0  0  0  3  0  0  0  0  0  0
  -24.8490  -28.9530   20.1540 C   0  0  0  0  0  0  0  0  0  0  0  0
  -25.9550  -30.8000   21.4060 C   0  0  0  0  0  2  0  0  0  0  0  0
  -26.0250  -29.4220   20.7550 C   0  0  0  0  0  0  0  0  0  0  0  0
  -27.2000  -28.6080   20.7520 C   0  0  0  0  0  3  0  0  0  0  0  0
  -26.0100  -26.9220   19.4890 C   0  0  0  0  0  3  0  0  0  0  0  0
  -24.8460  -27.7090   19.5130 C   0  0  0  0  0  3  0  0  0  0  0  0
  -23.6160  -29.8300   20.2140 C   0  0  0  0  0  2  0  0  0  0  0  0
  -24.6850  -31.0800   22.1340 N   0  0  0  0  0  0  0  0  0  0  0  0
  -23.5510  -32.1720   23.7700 O   0  0  0  0  0  0  0  0  0  0  0  0
  -22.7560  -29.4770   22.5610 C   0  0  0  0  0  0  0  0  0  0  0  0
  -21.4280  -29.3040   22.4440 N   0  0  0  0  0  0  0  0  0  0  0  0
  -23.4380  -28.8480   23.3740 O   0  0  0  0  0  0  0  0  0  0  0  0
  -20.9370  -29.8630   21.7610 H   0  0  0  0  0  0  0  0  0  0  0  0
  -18.0520  -28.1130   22.9610 C   0  0  0  0  0  0  0  0  0  0  0  0
  -20.6120  -28.3690   23.2200 C   0  0  0  0  0  3  0  0  0  0  0  0
  -20.7100  -26.9370   22.6490 C   0  0  0  0  0  2  0  0  0  0  0  0
  -19.6030  -26.6130   21.6400 C   0  0  0  0  0  2  0  0  0  0  0  0
  -18.2240  -26.7610   22.2900 C   0  0  0  0  0  2  0  0  0  0  0  0
  -19.1730  -28.8750   23.3850 C   0  0  0  0  0  0  0  0  0  0  0  0
  -18.9590  -30.1390   23.9740 C   0  0  0  0  0  3  0  0  0  0  0  0
  -17.6540  -30.6420   24.1460 C   0  0  0  0  0  3  0  0  0  0  0  0
  -16.5470  -29.8770   23.7400 C   0  0  0  0  0  3  0  0  0  0  0  0
  -16.7470  -28.6140   23.1520 C   0  0  0  0  0  3  0  0  0  0  0  0
  -25.9190  -32.5200   23.8420 C   0  0  0  0  0  3  0  0  0  0  0  0
  -26.4480  -31.7410   25.1080 C   0  0  1  0  0  0  0  0  0  0  0  0
  -25.3670  -31.4960   26.1860 C   0  0  0  0  0  1  0  0  0  0  0  0
  -27.0280  -30.3650   24.7030 C   0  0  0  0  0  1  0  0  0  0  0  0
  -27.6060  -32.5300   25.7620 C   0  0  0  0  0  1  0  0  0  0  0  0
  -25.6090  -33.9160   24.1860 N   0  0  0  0  0  0  0  0  0  0  0  0
  -25.9260  -34.9750   23.4290 C   0  0  0  0  0  0  0  0  0  0  0  0
  -26.5790  -34.8810   22.3860 O   0  0  0  0  0  0  0  0  0  0  0  0
  -25.0260  -34.0630   24.9970 H   0  0  0  0  0  0  0  0  0  0  0  0
  -24.1810  -36.7610   23.1250 C   0  0  0  0  0  1  0  0  0  0  0  0
  -25.4430  -36.3590   23.9060 C   0  0  0  0  0  3  0  0  0  0  0  0
  -27.5930  -37.2490   24.6890 C   0  0  0  0  0  1  0  0  0  0  0  0
  -26.4660  -37.4180   23.7740 N   0  0  0  0  0  0  0  0  0  0  0  0
  -26.0600  -38.3350   23.9380 H   0  0  0  0  0  0  0  0  0  0  0  0
  2  1  1  0
  3  1  2  0
  4  6  2  0
  4  5  1  0
  5  2  2  0
  6  3  1  0
  7  5  1  0
  7 10  1  0
  8  7  2  0
  9  8  1  0
 11 20  1  0
 11 10  1  0
 12 20  1  0
 13 18  1  0
 14 15  1  0
 14 13  1  0
 16 15  1  0
 16 25  1  0
 16 17  1  0
 18 12  1  0
 18 17  1  0
 19 12  2  0
 20 21  1  0
 22 23  2  0
 23 42  1  0
 24 23  1  0
 24 27  1  0
 25 22  1  0
 25 26  1  0
 26 24  2  0
 27 28  1  0
 28 29  2  0
 30 33  1  0
 30 29  1  0
 31 30  2  0
 32 31  1  0
 32 27  2  0
 33 34  1  0
 34 35  1  0
 35 36  2  0
 37 36  1  0
 37 41  1  0
 38 37  2  0
 39 34  2  0
 39 38  1  0
 40 39  1  0
 42 43  1  0
 43 46  1  0
 43 45  1  0
 44 42  2  0
 47 48  1  0
 47 22  1  0
 49 47  1  0
 50 51  1  0
 50  6  1  0
 52 63  2  0
 53 51  1  0
 53 58  1  0
 54 62  1  0
 54 64  1  0
 55 61  1  0
 55 57  1  0
 56 62  1  0
 57 56  1  0
 58 57  2  0
 59 60  1  0
 59 53  2  0
 60 55  2  0
 61 54  1  0
 62 52  1  0
 64 66  2  0
 65 64  1  0
 67 65  1  0
 68 77  2  0
 68 73  1  0
 69 65  1  0
 69 73  1  0
 70 69  1  0
 71 72  1  0
 71 70  1  0
 72 68  1  0
 73 74  2  0
 74 75  1  0
 76 75  2  0
 77 76  1  0
 78 52  1  0
 78 83  1  0
 78 79  1  0
 79 82  1  1
 79 80  1  0
 81 79  1  0
 83 86  1  0
 84 88  1  0
 84 83  1  0
 85 84  2  0
 88 87  1  0
 90 88  1  0
 90 91  1  0
 90 89  1  0
M  ISO  4  12 100  20 100  50 101  51 101
M  END
>  <TORSDO>  (95) 
F 20

>  <SCORE>  (95) 
-13.921

>  <name>  (95) 
94

>  <ligand_id>  (95) 
94

>  <original_smiles>  (95) 
[H]N=C(c1c([H])c([H])c([H])c(C([H])([H])Oc2c([H])c([H])c3c(c2[H])C([H])([H])N(C(=O)C([H])(N([H])C(=O)C([H])(N([H])C([H])([H])[H])C([H])([H])[H])C(C([H])([H])[H])(C([H])([H])[H])C([H])([H])[H])C([H])(C(=O)N([H])C2([H])c4c([H])c([H])c([H])c([H])c4C([H])([H])C([H])([H])C2([H])[H])C3([H])[H])c1[H])C([H])([H])C([H])([H])N([H])C(=O)N1C([H])([H])C([H])([H])C([H])([H])C([H])(n2nc(-c3c([H])c([H])c(Oc4c([H])c([H])c(F)c([H])c4F)c([H])c3[H])c(C(=O)N([H])[H])c2N([H])[H])C1([H])[H]

>  <smiles>  (95) 
[H]N=C(c1c([H])c([H])c([H])c(C([H])([H])Oc2c([H])c([H])c3c(c2[H])C([H])([H])N(C(=O)C([H])(N([H])C(=O)C([H])(N([H])C([H])([H])[H])C([H])([H])[H])C(C([H])([H])[H])(C([H])([H])[H])C([H])([H])[H])C([H])(C(=O)N([H])C2([H])c4c([H])c([H])c([H])c([H])c4C([H])([H])C([H])([H])C2([H])[H])C3([H])[H])c1[H])C([H])([H])C([H])([H])N([H])C(=O)N1C([H])([H])C([H])([H])C([H])([H])C([H])(n2nc(-c3c([H])c([H])c(Oc4c([H])c([H])c(F)c([H])c4F)c([H])c3[H])c(C(=O)N([H])[H])c2N([H])[H])C1([H])[H]

$$$$
95:0:0
     RDKit          3D

 92101  0  0  1  0  0  0  0  0999 V2000
  -30.3090  -15.5950   20.2360 C   0  0  0  0  0  0  0  0  0  0  0  0
  -30.2950  -13.0910   19.4570 C   0  0  0  0  0  2  0  0  0  0  0  0
  -29.3970  -12.7050   18.2560 C   0  0  0  0  0  2  0  0  0  0  0  0
  -27.9710  -12.3870   18.7320 C   0  0  0  0  0  2  0  0  0  0  0  0
  -27.4750  -13.4140   19.7790 C   0  0  0  0  0  3  0  0  0  0  0  0
  -28.5140  -13.7410   20.8730 C   0  0  0  0  0  2  0  0  0  0  0  0
  -29.6920  -14.2930   20.1730 N   0  0  0  0  0  0  0  0  0  0  0  0
  -31.5410  -15.4650   20.1520 O   0  0  0  0  0  0  0  0  0  0  0  0
  -28.5840  -17.8080   20.1890 C   0  0  2  0  0  0  0  0  0  0  0  0
  -29.1060  -19.3280   19.8170 C   0  0  0  0  0  3  0  0  0  0  0  0
  -30.4330  -18.4650   20.2830 C   0  0  2  0  0  0  0  0  0  0  0  0
  -29.7690  -17.0290   20.2030 N   0  0  0  0  0  0  0  0  0  0  0  0
  -27.4140  -17.4420   20.3150 O   0  0  0  0  0  1  0  0  0  0  0  0
  -25.1260  -13.9420   20.5920 C   0  0  0  0  0  0  0  0  0  0  0  0
  -24.0710  -13.1550   20.9540 C   0  0  0  0  0  0  0  0  0  0  0  0
  -24.5410  -11.8070   20.8960 C   0  0  0  0  0  0  0  0  0  0  0  0
  -26.1670  -13.0750   20.3190 N   0  0  0  0  0  0  0  0  0  0  0  0
  -25.8300  -11.7820   20.5710 N   0  0  0  0  0  0  0  0  0  0  0  0
  -23.8160  -10.5410   21.0700 C   0  0  0  0  0  0  0  0  0  0  0  0
  -24.2380   -9.5690   22.0020 C   0  0  0  0  0  3  0  0  0  0  0  0
  -23.5090   -8.3710   22.1680 C   0  0  0  0  0  3  0  0  0  0  0  0
  -22.3420   -8.1380   21.4010 C   0  0  0  0  0  0  0  0  0  0  0  0
  -21.9380   -9.0990   20.4590 C   0  0  0  0  0  3  0  0  0  0  0  0
  -22.6690  -10.2880   20.2910 C   0  0  0  0  0  3  0  0  0  0  0  0
  -21.5850   -6.9940   21.4770 O   0  0  0  0  0  0  0  0  0  0  0  0
  -21.4970   -6.2640   22.6350 C   0  0  0  0  0  0  0  0  0  0  0  0
  -21.0100   -6.8260   23.8350 C   0  0  0  0  0  3  0  0  0  0  0  0
  -20.8710   -6.0220   24.9850 C   0  0  0  0  0  3  0  0  0  0  0  0
  -21.2090   -4.6570   24.9340 C   0  0  0  0  0  0  0  0  0  0  0  0
  -21.6880   -4.0930   23.7380 C   0  0  0  0  0  3  0  0  0  0  0  0
  -21.8290   -4.8940   22.5910 C   0  0  0  0  0  0  0  0  0  0  0  0
  -22.2710   -4.3420   21.4360 F   0  0  0  0  0  0  0  0  0  0  0  0
  -21.0680   -3.8810   26.0350 F   0  0  0  0  0  0  0  0  0  0  0  0
  -22.6760  -13.6270   21.2430 C   0  0  0  0  0  0  0  0  0  0  0  0
  -21.9590  -12.9230   22.1110 N   0  0  0  0  0  0  0  0  0  0  0  0
  -22.2350  -14.6580   20.7380 O   0  0  0  0  0  0  0  0  0  0  0  0
  -22.3300  -12.0890   22.5420 H   0  0  0  0  0  0  0  0  0  0  0  0
  -21.0240  -13.2230   22.3490 H   0  0  0  0  0  0  0  0  0  0  0  0
  -25.2790  -15.3170   20.4450 N   0  0  0  0  0  0  0  0  0  0  0  0
  -24.5110  -15.9570   20.6160 H   0  0  0  0  0  0  0  0  0  0  0  0
  -26.1490  -15.8040   20.2470 H   0  0  0  0  0  0  0  0  0  0  0  0
  -28.5250  -20.8710   20.3280 N   0  0  0  0  0  4  0  0  0  0  0  0
  -27.5320  -20.7310   20.2290 H   0  0  0  0  0  0  0  0  0  0  0  0
  -28.6610  -20.8960   21.3250 H   0  0  0  0  0  0  0  0  0  0  0  0
  -28.6980  -22.4990   19.7940 C   0  0  0  0  0  3  0  0  0  0  0  0
  -27.7540  -24.0910   20.1010 C   0  0  0  0  0  3  0  0  0  0  0  0
  -27.9550  -25.7840   19.9300 O   0  0  0  0  0  0  0  0  0  0  0  0
  -24.5220  -31.8800   23.0910 C   0  0  0  0  0  0  0  0  0  0  0  0
  -26.9540  -26.9310   19.9590 C   0  0  0  0  0  0  0  0  0  0  0  0
  -23.2740  -30.4990   21.4840 C   0  0  0  0  0  3  0  0  0  0  0  0
  -24.6710  -28.8870   20.0040 C   0  0  0  0  0  0  0  0  0  0  0  0
  -25.8420  -30.6790   21.2600 C   0  0  0  0  0  2  0  0  0  0  0  0
  -25.8860  -29.2640   20.5900 C   0  0  0  0  0  0  0  0  0  0  0  0
  -27.0180  -28.3120   20.5340 C   0  0  0  0  0  3  0  0  0  0  0  0
  -25.7040  -26.7350   19.3280 C   0  0  0  0  0  3  0  0  0  0  0  0
  -24.6110  -27.6460   19.3490 C   0  0  0  0  0  3  0  0  0  0  0  0
  -23.4620  -29.8230   20.0970 C   0  0  0  0  0  2  0  0  0  0  0  0
  -24.5710  -31.0490   21.9970 N   0  0  0  0  0  0  0  0  0  0  0  0
  -23.4480  -32.1680   23.6480 O   0  0  0  0  0  0  0  0  0  0  0  0
  -22.6050  -29.5010   22.4660 C   0  0  0  0  0  0  0  0  0  0  0  0
  -21.2720  -29.3280   22.3720 N   0  0  0  0  0  0  0  0  0  0  0  0
  -23.2910  -28.8830   23.2820 O   0  0  0  0  0  0  0  0  0  0  0  0
  -20.7680  -29.8770   21.6910 H   0  0  0  0  0  0  0  0  0  0  0  0
  -17.9150  -28.0730   22.9550 C   0  0  0  0  0  0  0  0  0  0  0  0
  -20.4760  -28.3800   23.1620 C   0  0  0  0  0  3  0  0  0  0  0  0
  -20.5870  -26.9490   22.5870 C   0  0  0  0  0  2  0  0  0  0  0  0
  -19.4680  -26.6080   21.5980 C   0  0  0  0  0  2  0  0  0  0  0  0
  -18.0990  -26.7280   22.2710 C   0  0  0  0  0  2  0  0  0  0  0  0
  -19.0310  -28.8560   23.3590 C   0  0  0  0  0  0  0  0  0  0  0  0
  -18.8000  -30.1100   23.9640 C   0  0  0  0  0  3  0  0  0  0  0  0
  -17.4900  -30.5830   24.1670 C   0  0  0  0  0  3  0  0  0  0  0  0
  -16.3910  -29.8000   23.7760 C   0  0  0  0  0  3  0  0  0  0  0  0
  -16.6040  -28.5460   23.1760 C   0  0  0  0  0  3  0  0  0  0  0  0
  -25.8100  -32.5220   23.6900 C   0  0  0  0  0  3  0  0  0  0  0  0
  -26.3560  -31.7450   24.9530 C   0  0  1  0  0  0  0  0  0  0  0  0
  -25.2920  -31.5080   26.0490 C   0  0  0  0  0  1  0  0  0  0  0  0
  -26.9260  -30.3670   24.5520 C   0  0  0  0  0  1  0  0  0  0  0  0
  -27.5260  -32.5350   25.5860 C   0  0  0  0  0  1  0  0  0  0  0  0
  -25.4980  -33.9170   24.0540 N   0  0  0  0  0  0  0  0  0  0  0  0
  -25.8270  -34.9940   23.3280 C   0  0  0  0  0  0  0  0  0  0  0  0
  -26.4840  -34.9170   22.2860 O   0  0  0  0  0  0  0  0  0  0  0  0
  -24.9110  -34.0490   24.8640 H   0  0  0  0  0  0  0  0  0  0  0  0
  -24.1200  -36.8250   23.0400 C   0  0  0  0  0  1  0  0  0  0  0  0
  -25.3560  -36.3740   23.8340 C   0  0  0  0  0  3  0  0  0  0  0  0
  -27.4970  -37.2150   24.6970 C   0  0  0  0  0  1  0  0  0  0  0  0
  -26.4010  -37.4200   23.7560 N   0  0  0  0  0  0  0  0  0  0  0  0
  -26.0030  -38.3390   23.9260 H   0  0  0  0  0  0  0  0  0  0  0  0
  -31.0930  -18.6820   21.6570 C   0  0  0  0  0  2  0  0  0  0  0  0
  -32.3980  -18.0000   21.7520 N   0  0  0  0  0  4  0  0  0  0  0  0
  -32.7520  -18.0580   22.6910 H   0  0  0  0  0  0  0  0  0  0  0  0
  -33.0700  -18.4380   21.1460 H   0  0  0  0  0  0  0  0  0  0  0  0
  -32.3300  -17.0300   21.4920 H   0  0  0  0  0  0  0  0  0  0  0  0
  2  7  1  0
  3  4  1  0
  3  2  1  0
  5  4  1  0
  5 17  1  0
  5  6  1  0
  7  1  1  0
  7  6  1  0
  8  1  2  0
  9 12  1  0
  9 11  1  0
  9 13  1  1
 10  9  1  0
 10 11  1  0
 10 42  1  0
 11 88  1  1
 12  1  1  0
 12 11  1  0
 14 15  2  0
 15 34  1  0
 16 15  1  0
 16 19  1  0
 17 18  1  0
 17 14  1  0
 18 16  2  0
 19 20  1  0
 20 21  2  0
 22 25  1  0
 22 21  1  0
 23 22  2  0
 24 23  1  0
 24 19  2  0
 25 26  1  0
 26 27  1  0
 27 28  2  0
 29 28  1  0
 29 33  1  0
 30 29  2  0
 31 26  2  0
 31 30  1  0
 32 31  1  0
 34 35  1  0
 35 38  1  0
 35 37  1  0
 36 34  2  0
 39 14  1  0
 39 40  1  0
 41 39  1  0
 42 44  1  0
 43 42  1  0
 45 46  2  0
 45 42  1  0
 47 49  1  0
 47 46  1  0
 48 59  2  0
 49 54  1  0
 50 58  1  0
 50 60  1  0
 51 57  1  0
 51 53  1  0
 52 58  1  0
 53 52  1  0
 54 53  2  0
 55 56  1  0
 55 49  2  0
 56 51  2  0
 57 50  1  0
 58 48  1  0
 60 62  2  0
 61 60  1  0
 63 61  1  0
 64 73  2  0
 64 69  1  0
 65 61  1  0
 65 69  1  0
 66 65  1  0
 67 68  1  0
 67 66  1  0
 68 64  1  0
 69 70  2  0
 70 71  1  0
 72 71  2  0
 73 72  1  0
 74 48  1  0
 74 79  1  0
 74 75  1  0
 75 78  1  1
 75 76  1  0
 77 75  1  0
 79 82  1  0
 80 84  1  0
 80 79  1  0
 81 80  2  0
 84 83  1  0
 86 84  1  0
 86 87  1  0
 86 85  1  0
 88 89  1  0
 89 90  1  0
 91 89  1  0
 92 89  1  0
M  ISO  4   1 100  12 100  46 101  47 101
M  END
>  <TORSDO>  (96) 
F 20

>  <SCORE>  (96) 
-15.278

>  <name>  (96) 
95

>  <ligand_id>  (96) 
95

>  <original_smiles>  (96) 
[H]c1c([H])c([H])c2c(c1[H])C([H])([H])C([H])([H])C([H])([H])C2([H])N([H])C(=O)C1([H])N(C(=O)C([H])(N([H])C(=O)C([H])(N([H])C([H])([H])[H])C([H])([H])[H])C(C([H])([H])[H])(C([H])([H])[H])C([H])([H])[H])C([H])([H])c2c([H])c(OC([H])([H])C([H])([H])[N+]([H])([H])C3([H])C(=O)N(C(=O)N4C([H])([H])C([H])([H])C([H])([H])C([H])(n5nc(-c6c([H])c([H])c(Oc7c([H])c([H])c(F)c([H])c7F)c([H])c6[H])c(C(=O)N([H])[H])c5N([H])[H])C4([H])[H])C3([H])C([H])([H])[N+]([H])([H])[H])c([H])c([H])c2C1([H])[H]

>  <smiles>  (96) 
[H]c1c([H])c([H])c2c(c1[H])C([H])([H])C([H])([H])C([H])([H])C2([H])N([H])C(=O)C1([H])N(C(=O)C([H])(N([H])C(=O)C([H])(N([H])C([H])([H])[H])C([H])([H])[H])C(C([H])([H])[H])(C([H])([H])[H])C([H])([H])[H])C([H])([H])c2c([H])c(OC([H])([H])C([H])([H])[N+]([H])([H])C3([H])C(=O)N(C(=O)N4C([H])([H])C([H])([H])C([H])([H])C([H])(n5nc(-c6c([H])c([H])c(Oc7c([H])c([H])c(F)c([H])c7F)c([H])c6[H])c(C(=O)N([H])[H])c5N([H])[H])C4([H])[H])C3([H])C([H])([H])[N+]([H])([H])[H])c([H])c([H])c2C1([H])[H]

$$$$
96:0:0
     RDKit          3D

 89 97  0  0  1  0  0  0  0  0999 V2000
  -30.1830  -20.9830   21.8160 C   0  0  0  0  0  0  0  0  0  0  0  0
  -28.9210  -21.8090   22.1140 C   0  0  0  0  0  2  0  0  0  0  0  0
  -29.6470  -20.6610   20.4170 C   0  0  0  0  0  3  0  0  0  0  0  0
  -28.7040  -21.9330   20.6610 N   0  0  2  0  0  4  0  0  0  0  0  0
  -31.1920  -20.6720   22.4610 O   0  0  0  0  0  0  0  0  0  0  0  0
  -27.7540  -21.6880   20.4250 H   0  0  0  0  0  0  0  0  0  0  0  0
  -29.1560  -19.0420   20.3980 C   0  0  0  0  0  3  0  0  0  0  0  0
  -30.2210  -17.7310   20.3640 C   0  0  0  0  0  3  0  0  0  0  0  0
  -30.5950  -15.0160   20.2890 C   0  0  0  0  0  0  0  0  0  0  0  0
  -30.4620  -12.6750   19.3390 C   0  0  0  0  0  2  0  0  0  0  0  0
  -29.5280  -12.6440   18.1060 C   0  0  0  0  0  2  0  0  0  0  0  0
  -28.0660  -12.4320   18.5390 C   0  0  0  0  0  2  0  0  0  0  0  0
  -27.6580  -13.3510   19.7210 C   0  0  0  0  0  3  0  0  0  0  0  0
  -28.7140  -13.3620   20.8460 C   0  0  0  0  0  2  0  0  0  0  0  0
  -29.9880  -13.7640   20.2380 N   0  0  0  0  0  0  0  0  0  0  0  0
  -31.7920  -15.0830   19.9960 O   0  0  0  0  0  0  0  0  0  0  0  0
  -29.8290  -16.2020   20.4560 N   0  0  0  0  0  0  0  0  0  0  0  0
  -28.8550  -16.0250   20.6460 H   0  0  0  0  0  0  0  0  0  0  0  0
  -25.2730  -13.9110   20.4680 C   0  0  0  0  0  0  0  0  0  0  0  0
  -24.2170  -13.1270   20.8400 C   0  0  0  0  0  0  0  0  0  0  0  0
  -24.6920  -11.7800   20.8070 C   0  0  0  0  0  0  0  0  0  0  0  0
  -26.3230  -13.0430   20.2230 N   0  0  0  0  0  0  0  0  0  0  0  0
  -25.9830  -11.7560   20.4940 N   0  0  0  0  0  0  0  0  0  0  0  0
  -23.9760  -10.5120   20.9960 C   0  0  0  0  0  0  0  0  0  0  0  0
  -24.4050   -9.5510   21.9390 C   0  0  0  0  0  3  0  0  0  0  0  0
  -23.6850   -8.3490   22.1140 C   0  0  0  0  0  3  0  0  0  0  0  0
  -22.5200   -8.1010   21.3510 C   0  0  0  0  0  0  0  0  0  0  0  0
  -22.1100   -9.0500   20.3970 C   0  0  0  0  0  3  0  0  0  0  0  0
  -22.8310  -10.2420   20.2180 C   0  0  0  0  0  3  0  0  0  0  0  0
  -21.7720   -6.9510   21.4370 O   0  0  0  0  0  0  0  0  0  0  0  0
  -21.7090   -6.2190   22.5950 C   0  0  0  0  0  0  0  0  0  0  0  0
  -21.2490   -6.7790   23.8070 C   0  0  0  0  0  3  0  0  0  0  0  0
  -21.1360   -5.9710   24.9570 C   0  0  0  0  0  3  0  0  0  0  0  0
  -21.4710   -4.6050   24.8950 C   0  0  0  0  0  0  0  0  0  0  0  0
  -21.9260   -4.0460   23.6880 C   0  0  0  0  0  3  0  0  0  0  0  0
  -22.0400   -4.8500   22.5410 C   0  0  0  0  0  0  0  0  0  0  0  0
  -22.4580   -4.3000   21.3750 F   0  0  0  0  0  0  0  0  0  0  0  0
  -21.3550   -3.8280   25.9970 F   0  0  0  0  0  0  0  0  0  0  0  0
  -22.8170  -13.5940   21.1110 C   0  0  0  0  0  0  0  0  0  0  0  0
  -22.0930  -12.8900   21.9750 N   0  0  0  0  0  0  0  0  0  0  0  0
  -22.3740  -14.6190   20.5940 O   0  0  0  0  0  0  0  0  0  0  0  0
  -22.4650  -12.0610   22.4130 H   0  0  0  0  0  0  0  0  0  0  0  0
  -21.1520  -13.1820   22.2000 H   0  0  0  0  0  0  0  0  0  0  0  0
  -25.4240  -15.2850   20.2930 N   0  0  0  0  0  0  0  0  0  0  0  0
  -24.6470  -15.9270   20.4070 H   0  0  0  0  0  0  0  0  0  0  0  0
  -26.2550  -15.7340   19.9340 H   0  0  0  0  0  0  0  0  0  0  0  0
  -29.0010  -23.4160   20.1530 C   0  0  0  0  0  3  0  0  0  0  0  0
  -28.0270  -24.7380   20.5390 C   0  0  0  0  0  3  0  0  0  0  0  0
  -28.2820  -26.2510   20.2500 O   0  0  0  0  0  0  0  0  0  0  0  0
  -24.6170  -31.9140   23.2410 C   0  0  0  0  0  0  0  0  0  0  0  0
  -27.2110  -27.2170   20.2190 C   0  0  0  0  0  0  0  0  0  0  0  0
  -23.4200  -30.5080   21.6090 C   0  0  0  0  0  3  0  0  0  0  0  0
  -24.8730  -28.9410   20.1830 C   0  0  0  0  0  0  0  0  0  0  0  0
  -25.9710  -30.7920   21.4330 C   0  0  0  0  0  2  0  0  0  0  0  0
  -26.0500  -29.3990   20.7870 C   0  0  0  0  0  0  0  0  0  0  0  0
  -27.2230  -28.5540   20.7840 C   0  0  0  0  0  3  0  0  0  0  0  0
  -26.0090  -26.8610   19.5680 C   0  0  0  0  0  3  0  0  0  0  0  0
  -24.8650  -27.6880   19.5540 C   0  0  0  0  0  3  0  0  0  0  0  0
  -23.6390  -29.8290   20.2310 C   0  0  0  0  0  2  0  0  0  0  0  0
  -24.6900  -31.0930   22.1480 N   0  0  0  0  0  0  0  0  0  0  0  0
  -23.5310  -32.1920   23.7720 O   0  0  0  0  0  0  0  0  0  0  0  0
  -22.7520  -29.4980   22.5760 C   0  0  0  0  0  0  0  0  0  0  0  0
  -21.4260  -29.3140   22.4500 N   0  0  0  0  0  0  0  0  0  0  0  0
  -23.4280  -28.8820   23.4030 O   0  0  0  0  0  0  0  0  0  0  0  0
  -20.9350  -29.8640   21.7580 H   0  0  0  0  0  0  0  0  0  0  0  0
  -18.0560  -28.0790   22.9510 C   0  0  0  0  0  0  0  0  0  0  0  0
  -20.6120  -28.3730   23.2230 C   0  0  0  0  0  3  0  0  0  0  0  0
  -20.7310  -26.9380   22.6600 C   0  0  0  0  0  2  0  0  0  0  0  0
  -19.6350  -26.5930   21.6460 C   0  0  0  0  0  2  0  0  0  0  0  0
  -18.2500  -26.7270   22.2850 C   0  0  0  0  0  2  0  0  0  0  0  0
  -19.1640  -28.8590   23.3780 C   0  0  0  0  0  0  0  0  0  0  0  0
  -18.9270  -30.1210   23.9640 C   0  0  0  0  0  3  0  0  0  0  0  0
  -17.6140  -30.6050   24.1250 C   0  0  0  0  0  3  0  0  0  0  0  0
  -16.5210  -29.8230   23.7130 C   0  0  0  0  0  3  0  0  0  0  0  0
  -16.7430  -28.5620   23.1330 C   0  0  0  0  0  3  0  0  0  0  0  0
  -25.8930  -32.5590   23.8620 C   0  0  0  0  0  3  0  0  0  0  0  0
  -26.4050  -31.8060   25.1510 C   0  0  1  0  0  0  0  0  0  0  0  0
  -25.3070  -31.5780   26.2170 C   0  0  0  0  0  1  0  0  0  0  0  0
  -26.9930  -30.4240   24.7810 C   0  0  0  0  0  1  0  0  0  0  0  0
  -27.5510  -32.6110   25.8070 C   0  0  0  0  0  1  0  0  0  0  0  0
  -25.5780  -33.9610   24.1830 N   0  0  0  0  0  0  0  0  0  0  0  0
  -25.9090  -35.0130   23.4230 C   0  0  0  0  0  0  0  0  0  0  0  0
  -26.5810  -34.9060   22.3920 O   0  0  0  0  0  0  0  0  0  0  0  0
  -24.9860  -34.1160   24.9850 H   0  0  0  0  0  0  0  0  0  0  0  0
  -24.1850  -36.8100   23.0570 C   0  0  0  0  0  1  0  0  0  0  0  0
  -25.4210  -36.4030   23.8750 C   0  0  0  0  0  3  0  0  0  0  0  0
  -27.5500  -37.2900   24.7170 C   0  0  0  0  0  1  0  0  0  0  0  0
  -26.4540  -37.4570   23.7680 N   0  0  0  0  0  0  0  0  0  0  0  0
  -26.0470  -38.3760   23.9140 H   0  0  0  0  0  0  0  0  0  0  0  0
  1  2  1  0
  1  5  2  0
  3  7  1  0
  3  4  1  0
  3  1  1  0
  4  2  1  0
  4  6  1  1
  8  7  2  0
  8 17  1  0
  9 17  1  0
 10 15  1  0
 11 12  1  0
 11 10  1  0
 13 12  1  0
 13 22  1  0
 13 14  1  0
 15  9  1  0
 15 14  1  0
 16  9  2  0
 17 18  1  0
 19 20  2  0
 20 39  1  0
 21 20  1  0
 21 24  1  0
 22 19  1  0
 22 23  1  0
 23 21  2  0
 24 25  1  0
 25 26  2  0
 27 30  1  0
 27 26  1  0
 28 27  2  0
 29 28  1  0
 29 24  2  0
 30 31  1  0
 31 32  1  0
 32 33  2  0
 34 33  1  0
 34 38  1  0
 35 34  2  0
 36 31  2  0
 36 35  1  0
 37 36  1  0
 39 40  1  0
 40 43  1  0
 40 42  1  0
 41 39  2  0
 44 45  1  0
 44 19  1  0
 46 44  1  0
 47 48  2  0
 47  4  1  0
 49 48  1  0
 50 61  2  0
 51 49  1  0
 51 56  1  0
 52 60  1  0
 52 62  1  0
 53 59  1  0
 53 55  1  0
 54 60  1  0
 55 54  1  0
 56 55  2  0
 57 51  2  0
 58 57  1  0
 58 53  2  0
 59 52  1  0
 60 50  1  0
 62 64  2  0
 63 62  1  0
 65 63  1  0
 66 75  2  0
 66 71  1  0
 67 63  1  0
 67 71  1  0
 68 67  1  0
 69 70  1  0
 69 68  1  0
 70 66  1  0
 71 72  2  0
 72 73  1  0
 74 73  2  0
 75 74  1  0
 76 50  1  0
 76 81  1  0
 76 77  1  0
 77 80  1  1
 77 78  1  0
 79 77  1  0
 81 84  1  0
 82 86  1  0
 82 81  1  0
 83 82  2  0
 86 85  1  0
 88 86  1  0
 88 89  1  0
 88 87  1  0
M  ISO  4   9 100  17 100  48 101  49 101
M  END
>  <TORSDO>  (97) 
F 20

>  <SCORE>  (97) 
-13.874

>  <name>  (97) 
96

>  <ligand_id>  (97) 
96

>  <original_smiles>  (97) 
[H]c1c([H])c([H])c2c(c1[H])C([H])([H])C([H])([H])C([H])([H])C2([H])N([H])C(=O)C1([H])N(C(=O)C([H])(N([H])C(=O)C([H])(N([H])C([H])([H])[H])C([H])([H])[H])C(C([H])([H])[H])(C([H])([H])[H])C([H])([H])[H])C([H])([H])c2c([H])c(OC([H])([H])C([H])([H])[N+]3([H])C([H])([H])C(=O)C3([H])C([H])([H])C([H])([H])N([H])C(=O)N3C([H])([H])C([H])([H])C([H])([H])C([H])(n4nc(-c5c([H])c([H])c(Oc6c([H])c([H])c(F)c([H])c6F)c([H])c5[H])c(C(=O)N([H])[H])c4N([H])[H])C3([H])[H])c([H])c([H])c2C1([H])[H]

>  <smiles>  (97) 
[H]c1c([H])c([H])c2c(c1[H])C([H])([H])C([H])([H])C([H])([H])C2([H])N([H])C(=O)C1([H])N(C(=O)C([H])(N([H])C(=O)C([H])(N([H])C([H])([H])[H])C([H])([H])[H])C(C([H])([H])[H])(C([H])([H])[H])C([H])([H])[H])C([H])([H])c2c([H])c(OC([H])([H])C([H])([H])[N+]3([H])C([H])([H])C(=O)C3([H])C([H])([H])C([H])([H])N([H])C(=O)N3C([H])([H])C([H])([H])C([H])([H])C([H])(n4nc(-c5c([H])c([H])c(Oc6c([H])c([H])c(F)c([H])c6F)c([H])c5[H])c(C(=O)N([H])[H])c4N([H])[H])C3([H])[H])c([H])c([H])c2C1([H])[H]

$$$$
97:0:0
     RDKit          3D

 91100  0  0  1  0  0  0  0  0999 V2000
  -31.1040  -17.8710   20.1340 C   0  0  0  0  0  2  0  0  0  0  0  0
  -28.6810  -17.9930   20.7300 C   0  0  0  0  0  2  0  0  0  0  0  0
  -29.5230  -19.4950   18.7200 C   0  0  0  0  0  2  0  0  0  0  0  0
  -29.7930  -17.0240   20.1790 C   0  0  0  0  0  3  0  0  0  0  0  0
  -30.7880  -19.3180   19.6010 C   0  0  0  0  0  3  0  0  0  0  0  0
  -28.8260  -19.4250   20.0910 C   0  0  0  0  0  3  0  0  0  0  0  0
  -30.0330  -20.1560   20.5850 N   0  0  2  0  0  4  0  0  0  0  0  0
  -30.2590  -19.9310   21.5470 H   0  0  0  0  0  0  0  0  0  0  0  0
  -30.6160  -14.5890   20.4050 C   0  0  0  0  0  0  0  0  0  0  0  0
  -30.3770  -12.3900   19.3030 C   0  0  0  0  0  2  0  0  0  0  0  0
  -29.4680  -12.6110   18.0770 C   0  0  0  0  0  2  0  0  0  0  0  0
  -27.9800  -12.4770   18.4630 C   0  0  0  0  0  2  0  0  0  0  0  0
  -27.6160  -13.2740   19.7470 C   0  0  0  0  0  3  0  0  0  0  0  0
  -28.6550  -13.0620   20.8740 C   0  0  0  0  0  2  0  0  0  0  0  0
  -29.9840  -13.3750   20.3260 N   0  0  0  0  0  0  0  0  0  0  0  0
  -31.7550  -14.7550   19.9710 O   0  0  0  0  0  0  0  0  0  0  0  0
  -29.8210  -15.6400   20.7600 N   0  0  0  0  0  0  0  0  0  0  0  0
  -28.9400  -15.3320   21.1480 H   0  0  0  0  0  0  0  0  0  0  0  0
  -25.2100  -13.8870   20.4180 C   0  0  0  0  0  0  0  0  0  0  0  0
  -24.1340  -13.1230   20.7830 C   0  0  0  0  0  0  0  0  0  0  0  0
  -24.5890  -11.7710   20.7790 C   0  0  0  0  0  0  0  0  0  0  0  0
  -26.2550  -13.0020   20.2040 N   0  0  0  0  0  0  0  0  0  0  0  0
  -25.8830  -11.7250   20.4760 N   0  0  0  0  0  0  0  0  0  0  0  0
  -23.8600  -10.5110   20.9800 C   0  0  0  0  0  0  0  0  0  0  0  0
  -24.2810   -9.5540   21.9310 C   0  0  0  0  0  3  0  0  0  0  0  0
  -23.5420   -8.3660   22.1240 C   0  0  0  0  0  3  0  0  0  0  0  0
  -22.3710   -8.1230   21.3670 C   0  0  0  0  0  0  0  0  0  0  0  0
  -21.9690   -9.0700   20.4090 C   0  0  0  0  0  3  0  0  0  0  0  0
  -22.7080  -10.2480   20.2110 C   0  0  0  0  0  3  0  0  0  0  0  0
  -21.6160   -6.9790   21.4580 O   0  0  0  0  0  0  0  0  0  0  0  0
  -21.5610   -6.2470   22.6170 C   0  0  0  0  0  0  0  0  0  0  0  0
  -21.1480   -6.8140   23.8390 C   0  0  0  0  0  3  0  0  0  0  0  0
  -21.0380   -6.0080   24.9900 C   0  0  0  0  0  3  0  0  0  0  0  0
  -21.3320   -4.6340   24.9180 C   0  0  0  0  0  0  0  0  0  0  0  0
  -21.7480   -4.0660   23.6980 C   0  0  0  0  0  3  0  0  0  0  0  0
  -21.8580   -4.8690   22.5530 C   0  0  0  0  0  0  0  0  0  0  0  0
  -22.2330   -4.3150   21.3750 F   0  0  0  0  0  0  0  0  0  0  0  0
  -21.2220   -3.8560   26.0200 F   0  0  0  0  0  0  0  0  0  0  0  0
  -22.7360  -13.6160   21.0340 C   0  0  0  0  0  0  0  0  0  0  0  0
  -21.9940  -12.9380   21.9010 N   0  0  0  0  0  0  0  0  0  0  0  0
  -22.3120  -14.6390   20.4980 O   0  0  0  0  0  0  0  0  0  0  0  0
  -22.3510  -12.1130   22.3630 H   0  0  0  0  0  0  0  0  0  0  0  0
  -21.0570  -13.2510   22.1150 H   0  0  0  0  0  0  0  0  0  0  0  0
  -25.3740  -15.2550   20.2350 N   0  0  0  0  0  0  0  0  0  0  0  0
  -24.5870  -15.8910   20.2990 H   0  0  0  0  0  0  0  0  0  0  0  0
  -26.2070  -15.6920   19.8680 H   0  0  0  0  0  0  0  0  0  0  0  0
  -30.1770  -21.6660   20.3820 C   0  0  0  0  0  2  0  0  0  0  0  0
  -28.9710  -22.6170   20.7380 C   0  0  0  0  0  2  0  0  0  0  0  0
  -29.1270  -24.0920   20.1890 C   0  0  0  0  0  3  0  0  0  0  0  0
  -28.0530  -25.1380   20.6410 C   0  0  0  0  0  3  0  0  0  0  0  0
  -28.3050  -26.5180   20.2070 O   0  0  0  0  0  0  0  0  0  0  0  0
  -24.6140  -31.8760   23.2430 C   0  0  0  0  0  0  0  0  0  0  0  0
  -27.1960  -27.3560   20.1730 C   0  0  0  0  0  0  0  0  0  0  0  0
  -23.3990  -30.4870   21.6010 C   0  0  0  0  0  3  0  0  0  0  0  0
  -24.8400  -28.9450   20.1670 C   0  0  0  0  0  0  0  0  0  0  0  0
  -25.9330  -30.8110   21.4050 C   0  0  0  0  0  2  0  0  0  0  0  0
  -26.0090  -29.4350   20.7670 C   0  0  0  0  0  0  0  0  0  0  0  0
  -27.1920  -28.6480   20.7710 C   0  0  0  0  0  3  0  0  0  0  0  0
  -26.0190  -26.9200   19.5300 C   0  0  0  0  0  3  0  0  0  0  0  0
  -24.8440  -27.6920   19.5400 C   0  0  0  0  0  3  0  0  0  0  0  0
  -23.6080  -29.8220   20.2160 C   0  0  0  0  0  2  0  0  0  0  0  0
  -24.6690  -31.0740   22.1390 N   0  0  0  0  0  0  0  0  0  0  0  0
  -23.5360  -32.1540   23.7840 O   0  0  0  0  0  0  0  0  0  0  0  0
  -22.7450  -29.4650   22.5610 C   0  0  0  0  0  0  0  0  0  0  0  0
  -21.4210  -29.2820   22.4350 N   0  0  0  0  0  0  0  0  0  0  0  0
  -23.4270  -28.8400   23.3790 O   0  0  0  0  0  0  0  0  0  0  0  0
  -20.9300  -29.8310   21.7420 H   0  0  0  0  0  0  0  0  0  0  0  0
  -18.0490  -28.0790   22.9490 C   0  0  0  0  0  0  0  0  0  0  0  0
  -20.6080  -28.3460   23.2130 C   0  0  0  0  0  3  0  0  0  0  0  0
  -20.7120  -26.9130   22.6440 C   0  0  0  0  0  2  0  0  0  0  0  0
  -19.6100  -26.5830   21.6320 C   0  0  0  0  0  2  0  0  0  0  0  0
  -18.2270  -26.7290   22.2750 C   0  0  0  0  0  2  0  0  0  0  0  0
  -19.1690  -28.8430   23.3780 C   0  0  0  0  0  0  0  0  0  0  0  0
  -18.9500  -30.1030   23.9740 C   0  0  0  0  0  3  0  0  0  0  0  0
  -17.6460  -30.6030   24.1440 C   0  0  0  0  0  3  0  0  0  0  0  0
  -16.5410  -29.8390   23.7280 C   0  0  0  0  0  3  0  0  0  0  0  0
  -16.7450  -28.5790   23.1350 C   0  0  0  0  0  3  0  0  0  0  0  0
  -25.9040  -32.5070   23.8560 C   0  0  0  0  0  3  0  0  0  0  0  0
  -26.4240  -31.7340   25.1290 C   0  0  1  0  0  0  0  0  0  0  0  0
  -25.3300  -31.4950   26.1960 C   0  0  0  0  0  1  0  0  0  0  0  0
  -27.0100  -30.3590   24.7350 C   0  0  0  0  0  1  0  0  0  0  0  0
  -27.5820  -32.5240   25.7820 C   0  0  0  0  0  1  0  0  0  0  0  0
  -25.5960  -33.9050   24.1930 N   0  0  0  0  0  0  0  0  0  0  0  0
  -25.9180  -34.9590   23.4290 C   0  0  0  0  0  0  0  0  0  0  0  0
  -26.5800  -34.8560   22.3930 O   0  0  0  0  0  0  0  0  0  0  0  0
  -25.0130  -34.0580   25.0010 H   0  0  0  0  0  0  0  0  0  0  0  0
  -24.1830  -36.7450   23.0850 C   0  0  0  0  0  1  0  0  0  0  0  0
  -25.4300  -36.3470   23.8900 C   0  0  0  0  0  3  0  0  0  0  0  0
  -27.5740  -37.2260   24.7030 C   0  0  0  0  0  1  0  0  0  0  0  0
  -26.4610  -37.4030   23.7730 N   0  0  0  0  0  0  0  0  0  0  0  0
  -26.0560  -38.3230   23.9240 H   0  0  0  0  0  0  0  0  0  0  0  0
  1  4  1  0
  4  2  1  0
  4 17  1  0
  5  3  1  0
  5  1  1  0
  5  7  1  0
  6  3  1  0
  6  7  1  0
  6  2  1  0
  7  8  1  1
  9 17  1  0
 10 15  1  0
 11 12  1  0
 11 10  1  0
 13 12  1  0
 13 22  1  0
 13 14  1  0
 15  9  1  0
 15 14  1  0
 16  9  2  0
 17 18  1  0
 19 20  2  0
 20 39  1  0
 21 20  1  0
 21 24  1  0
 22 19  1  0
 22 23  1  0
 23 21  2  0
 24 25  1  0
 25 26  2  0
 27 30  1  0
 27 26  1  0
 28 27  2  0
 29 28  1  0
 29 24  2  0
 30 31  1  0
 31 32  1  0
 32 33  2  0
 34 33  1  0
 34 38  1  0
 35 34  2  0
 36 31  2  0
 36 35  1  0
 37 36  1  0
 39 40  1  0
 40 43  1  0
 40 42  1  0
 41 39  2  0
 44 45  1  0
 44 19  1  0
 46 44  1  0
 47  7  1  0
 47 48  1  0
 49 50  2  0
 49 48  1  0
 51 50  1  0
 52 63  2  0
 53 51  1  0
 53 58  1  0
 54 62  1  0
 54 64  1  0
 55 61  1  0
 55 57  1  0
 56 62  1  0
 57 58  2  0
 57 56  1  0
 59 60  1  0
 59 53  2  0
 60 55  2  0
 61 54  1  0
 62 52  1  0
 64 66  2  0
 65 64  1  0
 67 65  1  0
 68 77  2  0
 68 73  1  0
 69 65  1  0
 69 73  1  0
 70 69  1  0
 71 72  1  0
 71 70  1  0
 72 68  1  0
 73 74  2  0
 74 75  1  0
 76 75  2  0
 77 76  1  0
 78 52  1  0
 78 83  1  0
 78 79  1  0
 79 82  1  1
 79 80  1  0
 81 79  1  0
 83 86  1  0
 84 88  1  0
 84 83  1  0
 85 84  2  0
 88 87  1  0
 90 88  1  0
 90 91  1  0
 90 89  1  0
M  ISO  4   9 100  17 100  50 101  51 101
M  END
>  <TORSDO>  (98) 
F 20

>  <SCORE>  (98) 
-13.808

>  <name>  (98) 
97

>  <ligand_id>  (98) 
97

>  <original_smiles>  (98) 
[H]c1c([H])c([H])c2c(c1[H])C([H])([H])C([H])([H])C([H])([H])C2([H])N([H])C(=O)C1([H])N(C(=O)C([H])(N([H])C(=O)C([H])(N([H])C([H])([H])[H])C([H])([H])[H])C(C([H])([H])[H])(C([H])([H])[H])C([H])([H])[H])C([H])([H])c2c([H])c(OC([H])([H])C([H])([H])C([H])([H])C([H])([H])[N+]3([H])C4([H])C([H])([H])C([H])(N([H])C(=O)N5C([H])([H])C([H])([H])C([H])([H])C([H])(n6nc(-c7c([H])c([H])c(Oc8c([H])c([H])c(F)c([H])c8F)c([H])c7[H])c(C(=O)N([H])[H])c6N([H])[H])C5([H])[H])C([H])([H])C3([H])C4([H])[H])c([H])c([H])c2C1([H])[H]

>  <smiles>  (98) 
[H]c1c([H])c([H])c2c(c1[H])C([H])([H])C([H])([H])C([H])([H])C2([H])N([H])C(=O)C1([H])N(C(=O)C([H])(N([H])C(=O)C([H])(N([H])C([H])([H])[H])C([H])([H])[H])C(C([H])([H])[H])(C([H])([H])[H])C([H])([H])[H])C([H])([H])c2c([H])c(OC([H])([H])C([H])([H])C([H])([H])C([H])([H])[N+]3([H])C4([H])C([H])([H])C([H])(N([H])C(=O)N5C([H])([H])C([H])([H])C([H])([H])C([H])(n6nc(-c7c([H])c([H])c(Oc8c([H])c([H])c(F)c([H])c8F)c([H])c7[H])c(C(=O)N([H])[H])c6N([H])[H])C5([H])[H])C([H])([H])C3([H])C4([H])[H])c([H])c([H])c2C1([H])[H]

$$$$
98:0:0
     RDKit          3D

 93102  0  0  1  0  0  0  0  0999 V2000
  -29.0430  -21.7160   20.1750 C   0  0  0  0  0  2  0  0  0  0  0  0
  -31.0850  -22.0780   20.4310 C   0  0  0  0  0  2  0  0  0  0  0  0
  -29.8430  -23.0070   20.5460 C   0  0  0  0  0  3  0  0  0  0  0  0
  -30.1880  -20.8600   20.7910 C   0  0  0  0  0  3  0  0  0  0  0  0
  -30.5730  -19.5470   20.1350 N   0  0  0  0  0  4  0  0  0  0  0  0
  -30.4910  -19.6450   19.1370 H   0  0  0  0  0  0  0  0  0  0  0  0
  -31.5500  -19.3960   20.3250 H   0  0  0  0  0  0  0  0  0  0  0  0
  -30.7100  -14.6030   20.0730 C   0  0  0  0  0  0  0  0  0  0  0  0
  -30.2940  -12.4320   18.9430 C   0  0  0  0  0  2  0  0  0  0  0  0
  -29.3000  -12.6480   17.7820 C   0  0  0  0  0  2  0  0  0  0  0  0
  -27.8550  -12.4900   18.2930 C   0  0  0  0  0  2  0  0  0  0  0  0
  -27.5830  -13.3060   19.5880 C   0  0  0  0  0  3  0  0  0  0  0  0
  -28.7100  -13.1340   20.6340 C   0  0  0  0  0  2  0  0  0  0  0  0
  -29.9860  -13.4430   19.9770 N   0  0  0  0  0  0  0  0  0  0  0  0
  -31.8300  -14.6890   19.5640 O   0  0  0  0  0  0  0  0  0  0  0  0
  -30.3040  -17.7020   21.8690 C   0  0  0  0  0  0  0  0  0  0  0  0
  -30.0940  -16.1820   21.8700 C   0  0  0  0  0  2  0  0  0  0  0  0
  -30.2090  -17.0160   19.6520 C   0  0  0  0  0  2  0  0  0  0  0  0
  -29.8790  -18.2620   20.5310 C   0  0  0  0  0  3  0  0  0  0  0  0
  -30.0630  -15.7560   20.4540 N   0  0  0  0  0  0  0  0  0  0  0  0
  -30.7630  -18.3210   22.8320 O   0  0  0  0  0  0  0  0  0  0  0  0
  -25.2350  -13.8710   20.4500 C   0  0  0  0  0  0  0  0  0  0  0  0
  -24.1950  -13.0920   20.8710 C   0  0  0  0  0  0  0  0  0  0  0  0
  -24.6580  -11.7410   20.7900 C   0  0  0  0  0  0  0  0  0  0  0  0
  -26.2700  -13.0020   20.1490 N   0  0  0  0  0  0  0  0  0  0  0  0
  -25.9310  -11.7120   20.4090 N   0  0  0  0  0  0  0  0  0  0  0  0
  -23.9410  -10.4750   20.9950 C   0  0  0  0  0  0  0  0  0  0  0  0
  -24.4100   -9.4980   21.9000 C   0  0  0  0  0  3  0  0  0  0  0  0
  -23.6920   -8.2970   22.0900 C   0  0  0  0  0  3  0  0  0  0  0  0
  -22.4920   -8.0650   21.3740 C   0  0  0  0  0  0  0  0  0  0  0  0
  -22.0440   -9.0340   20.4570 C   0  0  0  0  0  3  0  0  0  0  0  0
  -22.7640  -10.2250   20.2650 C   0  0  0  0  0  3  0  0  0  0  0  0
  -21.7450   -6.9180   21.4750 O   0  0  0  0  0  0  0  0  0  0  0  0
  -21.7180   -6.1770   22.6310 C   0  0  0  0  0  0  0  0  0  0  0  0
  -21.3250   -6.7410   23.8650 C   0  0  0  0  0  3  0  0  0  0  0  0
  -21.2470   -5.9320   25.0160 C   0  0  0  0  0  3  0  0  0  0  0  0
  -21.5490   -4.5590   24.9340 C   0  0  0  0  0  0  0  0  0  0  0  0
  -21.9350   -3.9950   23.7040 C   0  0  0  0  0  3  0  0  0  0  0  0
  -22.0130   -4.8020   22.5560 C   0  0  0  0  0  0  0  0  0  0  0  0
  -22.3670   -4.2520   21.3690 F   0  0  0  0  0  0  0  0  0  0  0  0
  -21.4650   -3.7770   26.0350 F   0  0  0  0  0  0  0  0  0  0  0  0
  -22.8200  -13.5630   21.2380 C   0  0  0  0  0  0  0  0  0  0  0  0
  -22.1480  -12.8570   22.1410 N   0  0  0  0  0  0  0  0  0  0  0  0
  -22.3500  -14.5980   20.7580 O   0  0  0  0  0  0  0  0  0  0  0  0
  -22.5430  -12.0230   22.5490 H   0  0  0  0  0  0  0  0  0  0  0  0
  -21.2300  -13.1590   22.4360 H   0  0  0  0  0  0  0  0  0  0  0  0
  -25.3760  -15.2430   20.2730 N   0  0  0  0  0  0  0  0  0  0  0  0
  -24.5490  -15.8310   20.2600 H   0  0  0  0  0  0  0  0  0  0  0  0
  -26.1620  -15.6430   19.7810 H   0  0  0  0  0  0  0  0  0  0  0  0
  -30.9990  -25.2560   20.0370 C   0  0  0  0  0  1  0  0  0  0  0  0
  -29.7620  -24.3760   19.7650 C   0  0  0  0  0  3  0  0  0  0  0  0
  -28.4080  -25.1710   19.9250 C   0  0  0  0  0  2  0  0  0  0  0  0
  -28.4590  -26.6120   20.1760 O   0  0  0  0  0  0  0  0  0  0  0  0
  -24.5980  -31.8740   23.2240 C   0  0  0  0  0  0  0  0  0  0  0  0
  -27.2710  -27.3560   20.1770 C   0  0  0  0  0  0  0  0  0  0  0  0
  -23.3990  -30.4500   21.5950 C   0  0  0  0  0  3  0  0  0  0  0  0
  -24.8600  -28.8910   20.1970 C   0  0  0  0  0  0  0  0  0  0  0  0
  -25.9280  -30.8080   21.3910 C   0  0  0  0  0  2  0  0  0  0  0  0
  -26.0270  -29.4230   20.7610 C   0  0  0  0  0  0  0  0  0  0  0  0
  -27.2340  -28.6690   20.7340 C   0  0  0  0  0  3  0  0  0  0  0  0
  -26.0680  -26.8520   19.6310 C   0  0  0  0  0  3  0  0  0  0  0  0
  -24.8780  -27.6030   19.6370 C   0  0  0  0  0  3  0  0  0  0  0  0
  -23.6160  -29.7520   20.2280 C   0  0  0  0  0  2  0  0  0  0  0  0
  -24.6610  -31.0600   22.1290 N   0  0  0  0  0  0  0  0  0  0  0  0
  -23.5150  -32.1490   23.7580 O   0  0  0  0  0  0  0  0  0  0  0  0
  -22.7400  -29.4450   22.5690 C   0  0  0  0  0  0  0  0  0  0  0  0
  -21.4140  -29.2680   22.4520 N   0  0  0  0  0  0  0  0  0  0  0  0
  -23.4230  -28.8260   23.3890 O   0  0  0  0  0  0  0  0  0  0  0  0
  -20.9240  -29.8310   21.7710 H   0  0  0  0  0  0  0  0  0  0  0  0
  -18.0430  -28.0490   22.9120 C   0  0  0  0  0  0  0  0  0  0  0  0
  -20.5930  -28.3310   23.2200 C   0  0  0  0  0  3  0  0  0  0  0  0
  -20.7190  -26.8940   22.6640 C   0  0  0  0  0  2  0  0  0  0  0  0
  -19.6360  -26.5450   21.6370 C   0  0  0  0  0  2  0  0  0  0  0  0
  -18.2400  -26.6930   22.2510 C   0  0  0  0  0  2  0  0  0  0  0  0
  -19.1480  -28.8250   23.3480 C   0  0  0  0  0  0  0  0  0  0  0  0
  -18.9100  -30.0980   23.9140 C   0  0  0  0  0  3  0  0  0  0  0  0
  -17.5990  -30.5880   24.0540 C   0  0  0  0  0  3  0  0  0  0  0  0
  -16.5060  -29.8070   23.6380 C   0  0  0  0  0  3  0  0  0  0  0  0
  -16.7320  -28.5400   23.0680 C   0  0  0  0  0  3  0  0  0  0  0  0
  -25.8810  -32.5120   23.8450 C   0  0  0  0  0  3  0  0  0  0  0  0
  -26.4100  -31.7430   25.1180 C   0  0  1  0  0  0  0  0  0  0  0  0
  -25.3280  -31.4990   26.1940 C   0  0  0  0  0  1  0  0  0  0  0  0
  -26.9970  -30.3720   24.7130 C   0  0  0  0  0  1  0  0  0  0  0  0
  -27.5580  -32.5410   25.7810 C   0  0  0  0  0  1  0  0  0  0  0  0
  -25.5680  -33.9080   24.1770 N   0  0  0  0  0  0  0  0  0  0  0  0
  -25.8990  -34.9630   23.4210 C   0  0  0  0  0  0  0  0  0  0  0  0
  -26.5650  -34.8640   22.3880 O   0  0  0  0  0  0  0  0  0  0  0  0
  -24.9710  -34.0640   24.9750 H   0  0  0  0  0  0  0  0  0  0  0  0
  -24.1600  -36.7520   23.0850 C   0  0  0  0  0  1  0  0  0  0  0  0
  -25.4070  -36.3470   23.8870 C   0  0  0  0  0  3  0  0  0  0  0  0
  -27.5410  -37.2400   24.7080 C   0  0  0  0  0  1  0  0  0  0  0  0
  -26.4320  -37.4050   23.7730 N   0  0  0  0  0  0  0  0  0  0  0  0
  -26.0200  -38.3200   23.9290 H   0  0  0  0  0  0  0  0  0  0  0  0
  1  3  1  0
  1  4  1  0
  2  3  1  0
  2  4  1  0
  3 51  1  0
  4  5  1  0
  5  7  1  0
  6  5  1  0
  8 20  1  0
  9 14  1  0
 10 11  1  0
 10  9  1  0
 12 11  1  0
 12 25  1  0
 12 13  1  0
 14  8  1  0
 14 13  1  0
 15  8  2  0
 16 17  1  0
 16 21  2  0
 18 20  1  0
 18 19  1  0
 19  5  1  0
 19 16  1  0
 20 17  1  0
 22 23  2  0
 23 42  1  0
 24 23  1  0
 24 27  1  0
 25 26  1  0
 25 22  1  0
 26 24  2  0
 27 28  1  0
 28 29  2  0
 30 33  1  0
 30 29  1  0
 31 30  2  0
 32 31  1  0
 32 27  2  0
 33 34  1  0
 34 35  1  0
 35 36  2  0
 37 36  1  0
 37 41  1  0
 38 37  2  0
 39 34  2  0
 39 38  1  0
 40 39  1  0
 42 43  1  0
 43 46  1  0
 43 45  1  0
 44 42  2  0
 47 22  1  0
 48 47  1  0
 49 47  1  0
 51 52  1  0
 51 50  1  0
 52 53  1  0
 53 55  1  0
 54 65  2  0
 55 60  1  0
 56 64  1  0
 56 66  1  0
 57 63  1  0
 57 59  1  0
 58 64  1  0
 59 58  1  0
 60 59  2  0
 61 62  1  0
 61 55  2  0
 62 57  2  0
 63 56  1  0
 64 54  1  0
 66 68  2  0
 67 66  1  0
 69 67  1  0
 70 79  2  0
 70 75  1  0
 71 67  1  0
 71 75  1  0
 72 71  1  0
 73 74  1  0
 73 72  1  0
 74 70  1  0
 75 76  2  0
 76 77  1  0
 78 77  2  0
 79 78  1  0
 80 54  1  0
 80 85  1  0
 80 81  1  0
 81 84  1  1
 81 82  1  0
 83 81  1  0
 85 88  1  0
 86 90  1  0
 86 85  1  0
 87 86  2  0
 90 89  1  0
 92 90  1  0
 92 93  1  0
 92 91  1  0
M  ISO  4   8 100  20 100  52 101  53 101
M  END
>  <TORSDO>  (99) 
F 19

>  <SCORE>  (99) 
-13.907

>  <name>  (99) 
98

>  <ligand_id>  (99) 
98

>  <original_smiles>  (99) 
[H]c1c([H])c([H])c2c(c1[H])C([H])([H])C([H])([H])C([H])([H])C2([H])N([H])C(=O)C1([H])N(C(=O)C([H])(N([H])C(=O)C([H])(N([H])C([H])([H])[H])C([H])([H])[H])C(C([H])([H])[H])(C([H])([H])[H])C([H])([H])[H])C([H])([H])c2c([H])c(OC([H])([H])C([H])(C([H])([H])[H])C3([H])C([H])([H])C([H])([N+]([H])([H])C4([H])C(=O)C([H])([H])N(C(=O)N5C([H])([H])C([H])([H])C([H])([H])C([H])(n6nc(-c7c([H])c([H])c(Oc8c([H])c([H])c(F)c([H])c8F)c([H])c7[H])c(C(=O)N([H])[H])c6N([H])[H])C5([H])[H])C4([H])[H])C3([H])[H])c([H])c([H])c2C1([H])[H]

>  <smiles>  (99) 
[H]c1c([H])c([H])c2c(c1[H])C([H])([H])C([H])([H])C([H])([H])C2([H])N([H])C(=O)C1([H])N(C(=O)C([H])(N([H])C(=O)C([H])(N([H])C([H])([H])[H])C([H])([H])[H])C(C([H])([H])[H])(C([H])([H])[H])C([H])([H])[H])C([H])([H])c2c([H])c(OC([H])([H])C([H])(C([H])([H])[H])C3([H])C([H])([H])C([H])([N+]([H])([H])C4([H])C(=O)C([H])([H])N(C(=O)N5C([H])([H])C([H])([H])C([H])([H])C([H])(n6nc(-c7c([H])c([H])c(Oc8c([H])c([H])c(F)c([H])c8F)c([H])c7[H])c(C(=O)N([H])[H])c6N([H])[H])C5([H])[H])C4([H])[H])C3([H])[H])c([H])c([H])c2C1([H])[H]

$$$$
