0:0:0
     RDKit          3D

 93102  0  0  1  0  0  0  0  0999 V2000
  -30.0060  -20.8830   21.1500 C   0  0  0  0  0  3  0  0  0  0  0  0
  -28.4270  -20.2440   19.6030 C   0  0  0  0  0  3  0  0  0  0  0  0
  -29.5790  -22.3050   21.0520 C   0  0  0  0  0  3  0  0  0  0  0  0
  -28.0080  -21.6640   19.5010 C   0  0  0  0  0  3  0  0  0  0  0  0
  -29.4760  -19.7090   20.4510 C   0  0  0  0  0  0  0  0  0  0  0  0
  -28.5300  -22.8370   20.2020 C   0  0  0  0  0  0  0  0  0  0  0  0
  -30.4620  -15.2720   20.4540 C   0  0  0  0  0  0  0  0  0  0  0  0
  -30.4080  -12.8560   19.5690 C   0  0  0  0  0  2  0  0  0  0  0  0
  -29.5070  -12.6430   18.3290 C   0  0  0  0  0  2  0  0  0  0  0  0
  -28.0520  -12.3800   18.7510 C   0  0  0  0  0  2  0  0  0  0  0  0
  -27.5750  -13.3670   19.8460 C   0  0  0  0  0  3  0  0  0  0  0  0
  -28.6020  -13.5250   20.9870 C   0  0  0  0  0  2  0  0  0  0  0  0
  -29.8500  -14.0000   20.3680 N   0  0  0  0  0  0  0  0  0  0  0  0
  -31.6990  -15.2340   20.3860 O   0  0  0  0  0  0  0  0  0  0  0  0
  -30.4010  -17.5530   18.1720 C   0  0  0  0  0  2  0  0  0  0  0  0
  -29.3280  -16.6970   18.8830 C   0  0  0  0  0  2  0  0  0  0  0  0
  -30.2400  -18.1440   20.4760 C   0  0  0  0  0  3  0  0  0  0  0  0
  -31.2070  -18.2590   19.2800 C   0  0  0  0  0  3  0  0  0  0  0  0
  -29.7700  -16.5720   20.2740 N   0  0  0  0  0  0  0  0  0  0  0  0
  -25.1880  -13.9240   20.5440 C   0  0  0  0  0  0  0  0  0  0  0  0
  -24.1190  -13.1420   20.8900 C   0  0  0  0  0  0  0  0  0  0  0  0
  -24.5950  -11.7950   20.8810 C   0  0  0  0  0  0  0  0  0  0  0  0
  -26.2390  -13.0510   20.3340 N   0  0  0  0  0  0  0  0  0  0  0  0
  -25.8940  -11.7670   20.6050 N   0  0  0  0  0  0  0  0  0  0  0  0
  -23.8730  -10.5280   21.0580 C   0  0  0  0  0  0  0  0  0  0  0  0
  -24.2820   -9.5700   22.0120 C   0  0  0  0  0  3  0  0  0  0  0  0
  -23.5580   -8.3690   22.1780 C   0  0  0  0  0  3  0  0  0  0  0  0
  -22.4100   -8.1200   21.3910 C   0  0  0  0  0  0  0  0  0  0  0  0
  -22.0190   -9.0650   20.4280 C   0  0  0  0  0  3  0  0  0  0  0  0
  -22.7430  -10.2570   20.2600 C   0  0  0  0  0  3  0  0  0  0  0  0
  -21.6600   -6.9700   21.4650 O   0  0  0  0  0  0  0  0  0  0  0  0
  -21.5790   -6.2370   22.6220 C   0  0  0  0  0  0  0  0  0  0  0  0
  -21.0860   -6.7910   23.8220 C   0  0  0  0  0  3  0  0  0  0  0  0
  -20.9570   -5.9830   24.9700 C   0  0  0  0  0  3  0  0  0  0  0  0
  -21.3090   -4.6220   24.9180 C   0  0  0  0  0  0  0  0  0  0  0  0
  -21.7940   -4.0670   23.7210 C   0  0  0  0  0  3  0  0  0  0  0  0
  -21.9260   -4.8720   22.5750 C   0  0  0  0  0  0  0  0  0  0  0  0
  -22.3750   -4.3270   21.4200 F   0  0  0  0  0  0  0  0  0  0  0  0
  -21.1750   -3.8440   26.0170 F   0  0  0  0  0  0  0  0  0  0  0  0
  -22.7110  -13.6110   21.1140 C   0  0  0  0  0  0  0  0  0  0  0  0
  -21.9620  -12.9190   21.9650 N   0  0  0  0  0  0  0  0  0  0  0  0
  -22.2830  -14.6260   20.5670 O   0  0  0  0  0  0  0  0  0  0  0  0
  -22.3180  -12.0930   22.4220 H   0  0  0  0  0  0  0  0  0  0  0  0
  -21.0180  -13.2200   22.1580 H   0  0  0  0  0  0  0  0  0  0  0  0
  -25.3520  -15.2930   20.3600 N   0  0  0  0  0  0  0  0  0  0  0  0
  -24.5890  -15.9540   20.4540 H   0  0  0  0  0  0  0  0  0  0  0  0
  -26.2230  -15.7250   20.0800 H   0  0  0  0  0  0  0  0  0  0  0  0
  -32.5260  -17.6360   19.5270 N   0  0  0  0  0  4  0  0  0  0  0  0
  -32.4200  -16.6770   19.8510 H   0  0  0  0  0  0  0  0  0  0  0  0
  -33.0230  -18.1500   20.2330 H   0  0  0  0  0  0  0  0  0  0  0  0
  -33.0890  -17.6370   18.6950 H   0  0  0  0  0  0  0  0  0  0  0  0
  -27.7980  -24.4080   20.0430 C   0  0  0  0  0  2  0  0  0  0  0  0
  -28.1710  -25.9670   20.3230 O   0  0  0  0  0  0  0  0  0  0  0  0
  -24.6220  -31.9350   23.2600 C   0  0  0  0  0  0  0  0  0  0  0  0
  -27.1740  -27.0680   20.2500 C   0  0  0  0  0  0  0  0  0  0  0  0
  -23.4240  -30.5380   21.6240 C   0  0  0  0  0  3  0  0  0  0  0  0
  -24.8730  -28.9310   20.2080 C   0  0  0  0  0  0  0  0  0  0  0  0
  -25.9920  -30.7450   21.4820 C   0  0  0  0  0  2  0  0  0  0  0  0
  -26.0610  -29.3360   20.8300 C   0  0  0  0  0  0  0  0  0  0  0  0
  -27.2080  -28.4240   20.8320 C   0  0  0  0  0  3  0  0  0  0  0  0
  -25.9550  -26.8110   19.5810 C   0  0  0  0  0  3  0  0  0  0  0  0
  -24.8420  -27.6860   19.5650 C   0  0  0  0  0  3  0  0  0  0  0  0
  -23.6550  -29.8510   20.2510 C   0  0  0  0  0  2  0  0  0  0  0  0
  -24.7010  -31.0980   22.1770 N   0  0  0  0  0  0  0  0  0  0  0  0
  -23.5350  -32.2320   23.7780 O   0  0  0  0  0  0  0  0  0  0  0  0
  -22.7280  -29.5460   22.5910 C   0  0  0  0  0  0  0  0  0  0  0  0
  -21.3980  -29.3780   22.4600 N   0  0  0  0  0  0  0  0  0  0  0  0
  -23.3890  -28.9260   23.4280 O   0  0  0  0  0  0  0  0  0  0  0  0
  -20.9190  -29.9350   21.7670 H   0  0  0  0  0  0  0  0  0  0  0  0
  -18.0140  -28.1650   22.9500 C   0  0  0  0  0  0  0  0  0  0  0  0
  -20.5720  -28.4440   23.2310 C   0  0  0  0  0  3  0  0  0  0  0  0
  -20.6820  -27.0060   22.6720 C   0  0  0  0  0  2  0  0  0  0  0  0
  -19.5880  -26.6690   21.6510 C   0  0  0  0  0  2  0  0  0  0  0  0
  -18.2000  -26.8120   22.2840 C   0  0  0  0  0  2  0  0  0  0  0  0
  -19.1260  -28.9370   23.3800 C   0  0  0  0  0  0  0  0  0  0  0  0
  -18.8940  -30.2010   23.9660 C   0  0  0  0  0  3  0  0  0  0  0  0
  -17.5850  -30.6940   24.1210 C   0  0  0  0  0  3  0  0  0  0  0  0
  -16.4880  -29.9200   23.7050 C   0  0  0  0  0  3  0  0  0  0  0  0
  -16.7030  -28.6570   23.1260 C   0  0  0  0  0  3  0  0  0  0  0  0
  -25.8950  -32.5750   23.8940 C   0  0  0  0  0  3  0  0  0  0  0  0
  -26.3860  -31.8210   25.1910 C   0  0  1  0  0  0  0  0  0  0  0  0
  -25.2750  -31.6080   26.2470 C   0  0  0  0  0  1  0  0  0  0  0  0
  -26.9660  -30.4320   24.8350 C   0  0  0  0  0  1  0  0  0  0  0  0
  -27.5320  -32.6190   25.8570 C   0  0  0  0  0  1  0  0  0  0  0  0
  -25.5850  -33.9790   24.2140 N   0  0  0  0  0  0  0  0  0  0  0  0
  -25.9080  -35.0300   23.4480 C   0  0  0  0  0  0  0  0  0  0  0  0
  -26.5610  -34.9170   22.4070 O   0  0  0  0  0  0  0  0  0  0  0  0
  -25.0050  -34.1390   25.0240 H   0  0  0  0  0  0  0  0  0  0  0  0
  -24.1730  -36.8280   23.1270 C   0  0  0  0  0  1  0  0  0  0  0  0
  -25.4350  -36.4250   23.9080 C   0  0  0  0  0  3  0  0  0  0  0  0
  -27.5870  -37.3230   24.6780 C   0  0  0  0  0  1  0  0  0  0  0  0
  -26.4640  -37.4760   23.7580 N   0  0  0  0  0  0  0  0  0  0  0  0
  -26.0610  -38.3980   23.9010 H   0  0  0  0  0  0  0  0  0  0  0  0
  2  5  1  0
  3  1  1  0
  4  2  2  0
  4  6  1  0
  5  1  2  0
  6  3  2  0
  8 13  1  0
  9 10  1  0
  9  8  1  0
 11 10  1  0
 11 23  1  0
 11 12  1  0
 13  7  1  0
 13 12  1  0
 14  7  2  0
 15 16  1  0
 15 18  1  0
 16 19  1  0
 17  5  1  0
 18 48  1  0
 18 17  1  0
 19  7  1  0
 19 17  1  0
 20 21  2  0
 21 40  1  0
 22 21  1  0
 22 25  1  0
 23 20  1  0
 23 24  1  0
 24 22  2  0
 25 26  1  0
 26 27  2  0
 28 31  1  0
 28 27  1  0
 29 28  2  0
 30 29  1  0
 30 25  2  0
 31 32  1  0
 32 33  1  0
 33 34  2  0
 35 34  1  0
 35 39  1  0
 36 35  2  0
 37 32  2  0
 37 36  1  0
 38 37  1  0
 40 41  1  0
 41 44  1  0
 41 43  1  0
 42 40  2  0
 45 46  1  0
 45 20  1  0
 47 45  1  0
 48 49  1  0
 48 50  1  0
 51 48  1  0
 52  6  1  0
 52 53  1  0
 54 65  2  0
 55 53  1  0
 55 60  1  0
 56 64  1  0
 56 66  1  0
 57 63  1  0
 57 59  1  0
 58 64  1  0
 59 60  2  0
 59 58  1  0
 61 55  2  0
 62 61  1  0
 62 57  2  0
 63 56  1  0
 64 54  1  0
 66 68  2  0
 67 66  1  0
 69 67  1  0
 70 79  2  0
 70 75  1  0
 71 67  1  0
 71 75  1  0
 72 71  1  0
 73 74  1  0
 73 72  1  0
 74 70  1  0
 75 76  2  0
 76 77  1  0
 78 77  2  0
 79 78  1  0
 80 54  1  0
 80 85  1  0
 80 81  1  0
 81 84  1  1
 81 82  1  0
 83 81  1  0
 85 88  1  0
 86 90  1  0
 86 85  1  0
 87 86  2  0
 90 89  1  0
 92 93  1  0
 92 90  1  0
 92 91  1  0
M  ISO  4   7 100  19 100  52 101  53 101
M  END
>  <TORSDO>  (1) 
F 18

>  <SCORE>  (1) 
-15.960

>  <name>  (1) 
0

>  <ligand_id>  (1) 
0

>  <original_smiles>  (1) 
[H]c1c([H])c([H])c2c(c1[H])C([H])([H])C([H])([H])C([H])([H])C2([H])N([H])C(=O)C1([H])N(C(=O)C([H])(N([H])C(=O)C([H])(N([H])C([H])([H])[H])C([H])([H])[H])C(C([H])([H])[H])(C([H])([H])[H])C([H])([H])[H])C([H])([H])c2c([H])c(OC([H])([H])c3c([H])c([H])c(C4([H])N(C(=O)N5C([H])([H])C([H])([H])C([H])([H])C([H])(n6nc(-c7c([H])c([H])c(Oc8c([H])c([H])c(F)c([H])c8F)c([H])c7[H])c(C(=O)N([H])[H])c6N([H])[H])C5([H])[H])C([H])([H])C([H])([H])C4([H])[N+]([H])([H])[H])c([H])c3[H])c([H])c([H])c2C1([H])[H]

>  <smiles>  (1) 
[H]c1c([H])c([H])c2c(c1[H])C([H])([H])C([H])([H])C([H])([H])C2([H])N([H])C(=O)C1([H])N(C(=O)C([H])(N([H])C(=O)C([H])(N([H])C([H])([H])[H])C([H])([H])[H])C(C([H])([H])[H])(C([H])([H])[H])C([H])([H])[H])C([H])([H])c2c([H])c(OC([H])([H])c3c([H])c([H])c(C4([H])N(C(=O)N5C([H])([H])C([H])([H])C([H])([H])C([H])(n6nc(-c7c([H])c([H])c(Oc8c([H])c([H])c(F)c([H])c8F)c([H])c7[H])c(C(=O)N([H])[H])c6N([H])[H])C5([H])[H])C([H])([H])C([H])([H])C4([H])[N+]([H])([H])[H])c([H])c3[H])c([H])c([H])c2C1([H])[H]

$$$$
1:0:0
     RDKit          3D

 97106  0  0  1  0  0  0  0  0999 V2000
  -30.3860  -20.0800   21.0160 C   0  0  0  0  0  2  0  0  0  0  0  0
  -30.0080  -18.7150   20.3020 C   0  0  0  0  0  3  0  0  0  0  0  0
  -29.4750  -21.0050   20.1380 C   0  0  0  0  0  3  0  0  0  0  0  0
  -28.7660  -19.6070   19.8610 C   0  0  0  0  0  3  0  0  0  0  0  0
  -30.6300  -14.8660   20.1370 C   0  0  0  0  0  0  0  0  0  0  0  0
  -30.3970  -12.6450   18.9620 C   0  0  0  0  0  2  0  0  0  0  0  0
  -29.4040  -12.7550   17.7820 C   0  0  0  0  0  2  0  0  0  0  0  0
  -27.9490  -12.5720   18.2570 C   0  0  0  0  0  2  0  0  0  0  0  0
  -27.6320  -13.4080   19.5250 C   0  0  0  0  0  3  0  0  0  0  0  0
  -28.7270  -13.2320   20.5960 C   0  0  0  0  0  2  0  0  0  0  0  0
  -30.0060  -13.6390   19.9890 N   0  0  0  0  0  0  0  0  0  0  0  0
  -31.7260  -15.0660   19.6040 O   0  0  0  0  0  0  0  0  0  0  0  0
  -30.1990  -15.6780   22.3210 C   0  0  0  0  0  2  0  0  0  0  0  0
  -29.8910  -17.3820   21.2330 C   0  0  0  0  0  3  0  0  0  0  0  0
  -30.9550  -17.0080   22.2570 C   0  0  0  0  0  3  0  0  0  0  0  0
  -29.9540  -15.8510   20.8650 N   0  0  0  0  0  0  0  0  0  0  0  0
  -25.2600  -14.0000   20.3070 C   0  0  0  0  0  0  0  0  0  0  0  0
  -24.2050  -13.2260   20.7090 C   0  0  0  0  0  0  0  0  0  0  0  0
  -24.6710  -11.8760   20.6760 C   0  0  0  0  0  0  0  0  0  0  0  0
  -26.3000  -13.1200   20.0490 N   0  0  0  0  0  0  0  0  0  0  0  0
  -25.9540  -11.8380   20.3330 N   0  0  0  0  0  0  0  0  0  0  0  0
  -23.9540  -10.6120   20.8930 C   0  0  0  0  0  0  0  0  0  0  0  0
  -24.3970   -9.6610   21.8370 C   0  0  0  0  0  3  0  0  0  0  0  0
  -23.6770   -8.4640   22.0400 C   0  0  0  0  0  3  0  0  0  0  0  0
  -22.5000   -8.2100   21.2970 C   0  0  0  0  0  0  0  0  0  0  0  0
  -22.0760   -9.1490   20.3400 C   0  0  0  0  0  3  0  0  0  0  0  0
  -22.7970  -10.3380   20.1370 C   0  0  0  0  0  3  0  0  0  0  0  0
  -21.7510   -7.0630   21.4090 O   0  0  0  0  0  0  0  0  0  0  0  0
  -21.6980   -6.3490   22.5790 C   0  0  0  0  0  0  0  0  0  0  0  0
  -21.2610   -6.9340   23.7880 C   0  0  0  0  0  3  0  0  0  0  0  0
  -21.1550   -6.1470   24.9520 C   0  0  0  0  0  3  0  0  0  0  0  0
  -21.4760   -4.7760   24.9080 C   0  0  0  0  0  0  0  0  0  0  0  0
  -21.9060   -4.1920   23.7040 C   0  0  0  0  0  3  0  0  0  0  0  0
  -22.0130   -4.9760   22.5420 C   0  0  0  0  0  0  0  0  0  0  0  0
  -22.4080   -4.4040   21.3800 F   0  0  0  0  0  0  0  0  0  0  0  0
  -21.3660   -4.0180   26.0240 F   0  0  0  0  0  0  0  0  0  0  0  0
  -22.8160  -13.7020   21.0140 C   0  0  0  0  0  0  0  0  0  0  0  0
  -22.1140  -13.0130   21.9070 N   0  0  0  0  0  0  0  0  0  0  0  0
  -22.3600  -14.7210   20.4950 O   0  0  0  0  0  0  0  0  0  0  0  0
  -22.4960  -12.1890   22.3490 H   0  0  0  0  0  0  0  0  0  0  0  0
  -21.1830  -13.3150   22.1560 H   0  0  0  0  0  0  0  0  0  0  0  0
  -25.4170  -15.3690   20.1160 N   0  0  0  0  0  0  0  0  0  0  0  0
  -24.6530  -16.0250   20.2370 H   0  0  0  0  0  0  0  0  0  0  0  0
  -26.2670  -15.8030   19.7800 H   0  0  0  0  0  0  0  0  0  0  0  0
  -31.0160  -17.7760   23.5190 N   0  0  0  0  0  4  0  0  0  0  0  0
  -30.1110  -17.9150   23.9280 H   0  0  0  0  0  0  0  0  0  0  0  0
  -31.4400  -18.6750   23.3740 H   0  0  0  0  0  0  0  0  0  0  0  0
  -31.5840  -17.2930   24.1930 H   0  0  0  0  0  0  0  0  0  0  0  0
  -28.3590  -19.4290   18.4530 N   0  0  0  0  0  4  0  0  0  0  0  0
  -29.1280  -19.5570   17.8220 H   0  0  0  0  0  0  0  0  0  0  0  0
  -27.6470  -20.0930   18.2050 H   0  0  0  0  0  0  0  0  0  0  0  0
  -27.9800  -18.5130   18.3000 H   0  0  0  0  0  0  0  0  0  0  0  0
  -27.5050  -22.0410   21.2650 C   0  0  0  0  0  1  0  0  0  0  0  0
  -28.8200  -22.3170   20.6920 N   0  0  0  0  0  0  0  0  0  0  0  0
  -28.8690  -23.6850   19.9940 C   0  0  0  0  0  3  0  0  0  0  0  0
  -28.1860  -25.0130   20.6880 C   0  0  0  0  0  3  0  0  0  0  0  0
  -28.4000  -26.4520   20.2590 O   0  0  0  0  0  0  0  0  0  0  0  0
  -24.6370  -31.9560   23.2310 C   0  0  0  0  0  0  0  0  0  0  0  0
  -27.2980  -27.3450   20.2340 C   0  0  0  0  0  0  0  0  0  0  0  0
  -23.4610  -30.5440   21.5850 C   0  0  0  0  0  3  0  0  0  0  0  0
  -24.9350  -28.9870   20.1820 C   0  0  0  0  0  0  0  0  0  0  0  0
  -26.0050  -30.8610   21.4300 C   0  0  0  0  0  2  0  0  0  0  0  0
  -26.0990  -29.4760   20.7890 C   0  0  0  0  0  0  0  0  0  0  0  0
  -27.2870  -28.6690   20.7970 C   0  0  0  0  0  3  0  0  0  0  0  0
  -26.1120  -26.9280   19.5940 C   0  0  0  0  0  3  0  0  0  0  0  0
  -24.9470  -27.7230   19.5720 C   0  0  0  0  0  3  0  0  0  0  0  0
  -23.6950  -29.8620   20.2120 C   0  0  0  0  0  2  0  0  0  0  0  0
  -24.7200  -31.1410   22.1380 N   0  0  0  0  0  0  0  0  0  0  0  0
  -23.5460  -32.2300   23.7520 O   0  0  0  0  0  0  0  0  0  0  0  0
  -22.7900  -29.5310   22.5440 C   0  0  0  0  0  0  0  0  0  0  0  0
  -21.4650  -29.3460   22.4040 N   0  0  0  0  0  0  0  0  0  0  0  0
  -23.4610  -28.9120   23.3740 O   0  0  0  0  0  0  0  0  0  0  0  0
  -20.9820  -29.8960   21.7080 H   0  0  0  0  0  0  0  0  0  0  0  0
  -18.0900  -28.1210   22.8710 C   0  0  0  0  0  0  0  0  0  0  0  0
  -20.6430  -28.4070   23.1700 C   0  0  0  0  0  3  0  0  0  0  0  0
  -20.7650  -26.9720   22.6060 C   0  0  0  0  0  2  0  0  0  0  0  0
  -19.6790  -26.6320   21.5810 C   0  0  0  0  0  2  0  0  0  0  0  0
  -18.2870  -26.7690   22.2050 C   0  0  0  0  0  2  0  0  0  0  0  0
  -19.1960  -28.8970   23.3100 C   0  0  0  0  0  0  0  0  0  0  0  0
  -18.9580  -30.1610   23.8920 C   0  0  0  0  0  3  0  0  0  0  0  0
  -17.6460  -30.6510   24.0380 C   0  0  0  0  0  3  0  0  0  0  0  0
  -16.5540  -29.8720   23.6160 C   0  0  0  0  0  3  0  0  0  0  0  0
  -16.7770  -28.6090   23.0380 C   0  0  0  0  0  3  0  0  0  0  0  0
  -25.9080  -32.6010   23.8650 C   0  0  0  0  0  3  0  0  0  0  0  0
  -25.5830  -33.9980   24.1930 N   0  0  0  0  0  0  0  0  0  0  0  0
  -25.9110  -35.0540   23.4370 C   0  0  0  0  0  0  0  0  0  0  0  0
  -26.5870  -34.9570   22.4100 O   0  0  0  0  0  0  0  0  0  0  0  0
  -24.9830  -34.1460   24.9910 H   0  0  0  0  0  0  0  0  0  0  0  0
  -24.1710  -36.8360   23.0780 C   0  0  0  0  0  1  0  0  0  0  0  0
  -25.4110  -36.4390   23.8940 C   0  0  0  0  0  3  0  0  0  0  0  0
  -27.5340  -37.3400   24.7370 C   0  0  0  0  0  1  0  0  0  0  0  0
  -26.4350  -37.5000   23.7870 N   0  0  0  0  0  0  0  0  0  0  0  0
  -26.0220  -38.4160   23.9340 H   0  0  0  0  0  0  0  0  0  0  0  0
  -26.4170  -31.8370   25.1500 C   0  0  1  0  0  0  0  0  0  0  0  0
  -25.3130  -31.5850   26.2030 C   0  0  0  0  0  1  0  0  0  0  0  0
  -27.0230  -30.4670   24.7680 C   0  0  0  0  0  1  0  0  0  0  0  0
  -27.5500  -32.6460   25.8250 C   0  0  0  0  0  1  0  0  0  0  0  0
  2  1  1  0
  2 14  1  0
  3 54  1  0
  3  1  1  0
  4 49  1  0
  4  3  1  0
  4  2  1  0
  5 16  1  0
  6 11  1  0
  7  8  1  0
  7  6  1  0
  9  8  1  0
  9 20  1  0
  9 10  1  0
 11  5  1  0
 11 10  1  0
 12  5  2  0
 14 16  1  0
 14 15  1  0
 15 13  1  0
 15 45  1  0
 16 13  1  0
 17 18  2  0
 18 37  1  0
 19 18  1  0
 19 22  1  0
 20 17  1  0
 20 21  1  0
 21 19  2  0
 22 23  1  0
 23 24  2  0
 25 28  1  0
 25 24  1  0
 26 25  2  0
 27 26  1  0
 27 22  2  0
 28 29  1  0
 29 30  1  0
 30 31  2  0
 32 31  1  0
 32 36  1  0
 33 32  2  0
 34 29  2  0
 34 33  1  0
 35 34  1  0
 37 38  1  0
 38 41  1  0
 38 40  1  0
 39 37  2  0
 42 43  1  0
 42 17  1  0
 44 42  1  0
 45 46  1  0
 45 48  1  0
 47 45  1  0
 50 49  1  0
 51 49  1  0
 52 49  1  0
 54 53  1  0
 55 56  2  0
 55 54  1  0
 57 56  1  0
 58 69  2  0
 59 57  1  0
 59 64  1  0
 60 68  1  0
 60 70  1  0
 61 67  1  0
 61 63  1  0
 62 68  1  0
 63 64  2  0
 63 62  1  0
 65 59  2  0
 66 65  1  0
 66 61  2  0
 67 60  1  0
 68 58  1  0
 70 72  2  0
 71 70  1  0
 73 71  1  0
 74 83  2  0
 74 79  1  0
 75 71  1  0
 75 79  1  0
 76 75  1  0
 77 78  1  0
 77 76  1  0
 78 74  1  0
 79 80  2  0
 80 81  1  0
 82 81  2  0
 83 82  1  0
 84 58  1  0
 84 85  1  0
 84 94  1  0
 85 88  1  0
 86 90  1  0
 86 85  1  0
 87 86  2  0
 90 89  1  0
 92 90  1  0
 92 93  1  0
 92 91  1  0
 94 97  1  1
 94 95  1  0
 96 94  1  0
M  ISO  4   5 100  16 100  56 101  57 101
M  END
>  <TORSDO>  (2) 
F 21

>  <SCORE>  (2) 
-13.157

>  <name>  (2) 
1

>  <ligand_id>  (2) 
1

>  <original_smiles>  (2) 
[H]c1c([H])c([H])c2c(c1[H])C([H])([H])C([H])([H])C([H])([H])C2([H])N([H])C(=O)C1([H])N(C(=O)C([H])(N([H])C(=O)C([H])(N([H])C([H])([H])[H])C([H])([H])[H])C(C([H])([H])[H])(C([H])([H])[H])C([H])([H])[H])C([H])([H])c2c([H])c(OC([H])([H])C([H])([H])N(C([H])([H])[H])C3([H])C([H])([H])C([H])(C4([H])N(C(=O)N5C([H])([H])C([H])([H])C([H])([H])C([H])(n6nc(-c7c([H])c([H])c(Oc8c([H])c([H])c(F)c([H])c8F)c([H])c7[H])c(C(=O)N([H])[H])c6N([H])[H])C5([H])[H])C([H])([H])C4([H])[N+]([H])([H])[H])C3([H])[N+]([H])([H])[H])c([H])c([H])c2C1([H])[H]

>  <smiles>  (2) 
[H]c1c([H])c([H])c2c(c1[H])C([H])([H])C([H])([H])C([H])([H])C2([H])N([H])C(=O)C1([H])N(C(=O)C([H])(N([H])C(=O)C([H])(N([H])C([H])([H])[H])C([H])([H])[H])C(C([H])([H])[H])(C([H])([H])[H])C([H])([H])[H])C([H])([H])c2c([H])c(OC([H])([H])C([H])([H])N(C([H])([H])[H])C3([H])C([H])([H])C([H])(C4([H])N(C(=O)N5C([H])([H])C([H])([H])C([H])([H])C([H])(n6nc(-c7c([H])c([H])c(Oc8c([H])c([H])c(F)c([H])c8F)c([H])c7[H])c(C(=O)N([H])[H])c6N([H])[H])C5([H])[H])C([H])([H])C4([H])[N+]([H])([H])[H])C3([H])[N+]([H])([H])[H])c([H])c([H])c2C1([H])[H]

$$$$
2:0:0
     RDKit          3D

 90 99  0  0  1  0  0  0  0  0999 V2000
  -28.5760  -21.6050   20.0890 N   0  0  0  0  0  4  0  0  0  0  0  0
  -28.1330  -21.4970   20.9870 H   0  0  0  0  0  0  0  0  0  0  0  0
  -27.8100  -21.6000   19.4370 H   0  0  0  0  0  0  0  0  0  0  0  0
  -29.3450  -20.1350   19.8370 C   0  0  0  0  0  3  0  0  0  0  0  0
  -29.6830  -19.1180   20.7190 C   0  0  1  0  0  0  0  0  0  0  0  0
  -29.4560  -19.0120   18.7970 C   0  0  0  0  0  0  0  0  0  0  0  0
  -30.2620  -17.9620   19.7470 C   0  0  0  0  0  3  0  0  0  0  0  0
  -29.6470  -19.0290   22.0890 O   0  0  0  0  0  1  0  0  0  0  0  0
  -29.0300  -18.9710   17.6380 O   0  0  0  0  0  1  0  0  0  0  0  0
  -30.6750  -15.1830   19.7280 C   0  0  0  0  0  0  0  0  0  0  0  0
  -30.5960  -12.7500   18.9400 C   0  0  0  0  0  2  0  0  0  0  0  0
  -29.5990  -12.5520   17.7740 C   0  0  0  0  0  2  0  0  0  0  0  0
  -28.1770  -12.3050   18.3110 C   0  0  0  0  0  2  0  0  0  0  0  0
  -27.7960  -13.2950   19.4420 C   0  0  0  0  0  3  0  0  0  0  0  0
  -28.9130  -13.4510   20.4950 C   0  0  0  0  0  2  0  0  0  0  0  0
  -30.1140  -13.8960   19.7750 N   0  0  0  0  0  0  0  0  0  0  0  0
  -31.8670  -15.2280   19.4000 O   0  0  0  0  0  0  0  0  0  0  0  0
  -29.9000  -16.3950   19.8490 N   0  0  0  0  0  0  0  0  0  0  0  0
  -28.9300  -16.2330   20.0690 H   0  0  0  0  0  0  0  0  0  0  0  0
  -25.4970  -13.8530   20.4090 C   0  0  0  0  0  0  0  0  0  0  0  0
  -24.4590  -13.0720   20.8300 C   0  0  0  0  0  0  0  0  0  0  0  0
  -24.9030  -11.7200   20.7010 C   0  0  0  0  0  0  0  0  0  0  0  0
  -26.5050  -12.9790   20.0420 N   0  0  0  0  0  0  0  0  0  0  0  0
  -26.1640  -11.6860   20.2840 N   0  0  0  0  0  0  0  0  0  0  0  0
  -24.1760  -10.4570   20.8900 C   0  0  0  0  0  0  0  0  0  0  0  0
  -24.5740   -9.5140   21.8640 C   0  0  0  0  0  3  0  0  0  0  0  0
  -23.8450   -8.3180   22.0420 C   0  0  0  0  0  3  0  0  0  0  0  0
  -22.7040   -8.0570   21.2460 C   0  0  0  0  0  0  0  0  0  0  0  0
  -22.3270   -8.9890   20.2630 C   0  0  0  0  0  3  0  0  0  0  0  0
  -23.0560  -10.1750   20.0840 C   0  0  0  0  0  3  0  0  0  0  0  0
  -21.9500   -6.9110   21.3310 O   0  0  0  0  0  0  0  0  0  0  0  0
  -21.7210   -6.2880   22.5320 C   0  0  0  0  0  0  0  0  0  0  0  0
  -21.0700   -6.9430   23.5990 C   0  0  0  0  0  3  0  0  0  0  0  0
  -20.7930   -6.2440   24.7910 C   0  0  0  0  0  3  0  0  0  0  0  0
  -21.1560   -4.8900   24.9140 C   0  0  0  0  0  0  0  0  0  0  0  0
  -21.8010   -4.2340   23.8500 C   0  0  0  0  0  3  0  0  0  0  0  0
  -22.0790   -4.9310   22.6610 C   0  0  0  0  0  0  0  0  0  0  0  0
  -22.6810   -4.2880   21.6310 F   0  0  0  0  0  0  0  0  0  0  0  0
  -20.8840   -4.2150   26.0550 F   0  0  0  0  0  0  0  0  0  0  0  0
  -23.0950  -13.5500   21.2330 C   0  0  0  0  0  0  0  0  0  0  0  0
  -22.4330  -12.8290   22.1310 N   0  0  0  0  0  0  0  0  0  0  0  0
  -22.6290  -14.5990   20.7880 O   0  0  0  0  0  0  0  0  0  0  0  0
  -22.8260  -11.9800   22.5100 H   0  0  0  0  0  0  0  0  0  0  0  0
  -21.5210  -13.1310   22.4440 H   0  0  0  0  0  0  0  0  0  0  0  0
  -25.6600  -15.2290   20.2770 N   0  0  0  0  0  0  0  0  0  0  0  0
  -24.9070  -15.8790   20.4770 H   0  0  0  0  0  0  0  0  0  0  0  0
  -26.4700  -15.6780   19.8690 H   0  0  0  0  0  0  0  0  0  0  0  0
  -29.0700  -23.1490   20.0850 C   0  0  0  0  0  3  0  0  0  0  0  0
  -28.0200  -24.5340   20.0650 C   0  0  0  0  0  3  0  0  0  0  0  0
  -28.3050  -26.1040   20.1900 O   0  0  0  0  0  0  0  0  0  0  0  0
  -24.6590  -31.8370   23.2480 C   0  0  0  0  0  0  0  0  0  0  0  0
  -27.2700  -27.1370   20.1390 C   0  0  0  0  0  0  0  0  0  0  0  0
  -23.4910  -30.4960   21.5460 C   0  0  0  0  0  3  0  0  0  0  0  0
  -24.9610  -28.9470   20.1060 C   0  0  0  0  0  0  0  0  0  0  0  0
  -26.0540  -30.7330   21.4470 C   0  0  0  0  0  2  0  0  0  0  0  0
  -26.1340  -29.3540   20.7550 C   0  0  0  0  0  0  0  0  0  0  0  0
  -27.2880  -28.4690   20.7490 C   0  0  0  0  0  3  0  0  0  0  0  0
  -26.0680  -26.8540   19.4520 C   0  0  0  0  0  3  0  0  0  0  0  0
  -24.9460  -27.7130   19.4380 C   0  0  0  0  0  3  0  0  0  0  0  0
  -23.7410  -29.8580   20.1530 C   0  0  0  0  0  2  0  0  0  0  0  0
  -24.7540  -31.0440   22.1360 N   0  0  0  0  0  0  0  0  0  0  0  0
  -23.5620  -32.1130   23.7590 O   0  0  0  0  0  0  0  0  0  0  0  0
  -22.7820  -29.4670   22.4640 C   0  0  0  0  0  0  0  0  0  0  0  0
  -21.4580  -29.2970   22.2940 N   0  0  0  0  0  0  0  0  0  0  0  0
  -23.4280  -28.8250   23.2950 O   0  0  0  0  0  0  0  0  0  0  0  0
  -20.9910  -29.8680   21.6020 H   0  0  0  0  0  0  0  0  0  0  0  0
  -18.0650  -28.0820   22.6820 C   0  0  0  0  0  0  0  0  0  0  0  0
  -20.6170  -28.3400   23.0190 C   0  0  0  0  0  3  0  0  0  0  0  0
  -20.7330  -26.9230   22.4080 C   0  0  0  0  0  2  0  0  0  0  0  0
  -19.6570  -26.6270   21.3580 C   0  0  0  0  0  2  0  0  0  0  0  0
  -18.2600  -26.7530   21.9720 C   0  0  0  0  0  2  0  0  0  0  0  0
  -19.1710  -28.8340   23.1590 C   0  0  0  0  0  0  0  0  0  0  0  0
  -18.9350  -30.0770   23.7840 C   0  0  0  0  0  3  0  0  0  0  0  0
  -17.6240  -30.5700   23.9340 C   0  0  0  0  0  3  0  0  0  0  0  0
  -16.5320  -29.8160   23.4710 C   0  0  0  0  0  3  0  0  0  0  0  0
  -16.7540  -28.5730   22.8510 C   0  0  0  0  0  3  0  0  0  0  0  0
  -25.9240  -32.4510   23.9230 C   0  0  0  0  0  3  0  0  0  0  0  0
  -26.3840  -31.6610   25.2110 C   0  0  1  0  0  0  0  0  0  0  0  0
  -25.2490  -31.4280   26.2370 C   0  0  0  0  0  1  0  0  0  0  0  0
  -26.9640  -30.2790   24.8330 C   0  0  0  0  0  1  0  0  0  0  0  0
  -27.5190  -32.4340   25.9210 C   0  0  0  0  0  1  0  0  0  0  0  0
  -25.6170  -33.8490   24.2650 N   0  0  0  0  0  0  0  0  0  0  0  0
  -25.9500  -34.9110   23.5200 C   0  0  0  0  0  0  0  0  0  0  0  0
  -26.6140  -34.8160   22.4850 O   0  0  0  0  0  0  0  0  0  0  0  0
  -25.0260  -33.9970   25.0700 H   0  0  0  0  0  0  0  0  0  0  0  0
  -24.2190  -36.7140   23.2170 C   0  0  0  0  0  1  0  0  0  0  0  0
  -25.4760  -36.2980   23.9990 C   0  0  0  0  0  3  0  0  0  0  0  0
  -27.6220  -37.1830   24.8010 C   0  0  0  0  0  1  0  0  0  0  0  0
  -26.5070  -37.3510   23.8710 N   0  0  0  0  0  0  0  0  0  0  0  0
  -26.1040  -38.2710   24.0230 H   0  0  0  0  0  0  0  0  0  0  0  0
  1  2  1  0
  3  1  1  0
  4  1  1  0
  4  5  1  0
  5  8  1  1
  6  9  1  0
  6  7  1  0
  6  4  1  0
  6  5  1  0
  7 18  1  0
  7  5  1  0
 10 16  1  0
 10 18  1  0
 11 16  1  0
 12 13  1  0
 12 11  1  0
 14 13  1  0
 14 23  1  0
 14 15  1  0
 16 15  1  0
 17 10  2  0
 18 19  1  0
 20 21  2  0
 21 40  1  0
 22 21  1  0
 22 25  1  0
 23 24  1  0
 23 20  1  0
 24 22  2  0
 25 26  1  0
 26 27  2  0
 28 31  1  0
 28 27  1  0
 29 28  2  0
 30 29  1  0
 30 25  2  0
 31 32  1  0
 32 37  2  0
 32 33  1  0
 33 34  2  0
 34 35  1  0
 35 39  1  0
 36 35  2  0
 37 36  1  0
 38 37  1  0
 40 41  1  0
 41 44  1  0
 41 43  1  0
 42 40  2  0
 45 20  1  0
 45 46  1  0
 47 45  1  0
 48  1  1  0
 49 48  2  0
 49 50  1  0
 51 62  2  0
 52 50  1  0
 52 57  1  0
 53 61  1  0
 53 63  1  0
 54 60  1  0
 54 56  1  0
 55 61  1  0
 56 55  1  0
 57 56  2  0
 58 52  2  0
 59 58  1  0
 59 54  2  0
 60 53  1  0
 61 51  1  0
 63 65  2  0
 64 63  1  0
 66 64  1  0
 67 76  2  0
 67 72  1  0
 68 64  1  0
 68 72  1  0
 69 68  1  0
 70 71  1  0
 70 69  1  0
 71 67  1  0
 72 73  2  0
 73 74  1  0
 75 74  2  0
 76 75  1  0
 77 51  1  0
 77 82  1  0
 77 78  1  0
 78 81  1  1
 78 79  1  0
 80 78  1  0
 82 85  1  0
 83 87  1  0
 83 82  1  0
 84 83  2  0
 87 86  1  0
 89 87  1  0
 89 90  1  0
 89 88  1  0
M  ISO  4  10 100  18 100  49 101  50 101
M  END
>  <TORSDO>  (3) 
F 19

>  <SCORE>  (3) 
-14.281

>  <name>  (3) 
2

>  <ligand_id>  (3) 
2

>  <original_smiles>  (3) 
[H]c1c([H])c([H])c2c(c1[H])C([H])([H])C([H])([H])C([H])([H])C2([H])N([H])C(=O)C1([H])N(C(=O)C([H])(N([H])C(=O)C([H])(N([H])C([H])([H])[H])C([H])([H])[H])C(C([H])([H])[H])(C([H])([H])[H])C([H])([H])[H])C([H])([H])c2c([H])c(OC([H])([H])C([H])([H])[N+]([H])([H])C3=C([O-])C([H])(N([H])C(=O)N4C([H])([H])C([H])([H])C([H])([H])C([H])(n5nc(-c6c([H])c([H])c(Oc7c([H])c([H])c(F)c([H])c7F)c([H])c6[H])c(C(=O)N([H])[H])c5N([H])[H])C4([H])[H])C3=O)c([H])c([H])c2C1([H])[H]

>  <smiles>  (3) 
[H]c1c([H])c([H])c2c(c1[H])C([H])([H])C([H])([H])C([H])([H])C2([H])N([H])C(=O)C1([H])N(C(=O)C([H])(N([H])C(=O)C([H])(N([H])C([H])([H])[H])C([H])([H])[H])C(C([H])([H])[H])(C([H])([H])[H])C([H])([H])[H])C([H])([H])c2c([H])c(OC([H])([H])C([H])([H])[N+]([H])([H])C3=C([O-])C([H])(N([H])C(=O)N4C([H])([H])C([H])([H])C([H])([H])C([H])(n5nc(-c6c([H])c([H])c(Oc7c([H])c([H])c(F)c([H])c7F)c([H])c6[H])c(C(=O)N([H])[H])c5N([H])[H])C4([H])[H])C3=O)c([H])c([H])c2C1([H])[H]

$$$$
3:0:0
     RDKit          3D

 96105  0  0  1  0  0  0  0  0999 V2000
  -31.0320  -20.9830   18.2870 C   0  0  0  0  0  1  0  0  0  0  0  0
  -28.8350  -19.8080   18.6430 C   0  0  0  0  0  1  0  0  0  0  0  0
  -30.1060  -20.3350   19.3530 C   0  0  1  0  0  0  0  0  0  0  0  0
  -30.9230  -19.1190   19.9760 C   0  0  0  0  0  2  0  0  0  0  0  0
  -29.6010  -17.5250   21.5180 C   0  0  0  0  0  2  0  0  0  0  0  0
  -30.2180  -17.7510   20.1780 C   0  0  0  0  0  3  0  0  0  0  0  0
  -30.7790  -16.6480   21.1050 C   0  0  0  0  0  3  0  0  0  0  0  0
  -30.8730  -14.3550   20.1350 C   0  0  0  0  0  0  0  0  0  0  0  0
  -30.4390  -12.3400   18.7300 C   0  0  0  0  0  2  0  0  0  0  0  0
  -29.3910  -12.6580   17.6400 C   0  0  0  0  0  2  0  0  0  0  0  0
  -27.9590  -12.4380   18.1670 C   0  0  0  0  0  2  0  0  0  0  0  0
  -27.7340  -13.1140   19.5410 C   0  0  0  0  0  3  0  0  0  0  0  0
  -28.8820  -12.7800   20.5100 C   0  0  0  0  0  2  0  0  0  0  0  0
  -30.1590  -13.2010   19.9020 N   0  0  0  0  0  0  0  0  0  0  0  0
  -31.7970  -14.6830   19.3840 O   0  0  0  0  0  0  0  0  0  0  0  0
  -30.4750  -15.2130   21.1380 N   0  0  0  0  0  0  0  0  0  0  0  0
  -25.4370  -13.6070   20.5960 C   0  0  0  0  0  0  0  0  0  0  0  0
  -24.4030  -12.7890   20.9700 C   0  0  0  0  0  0  0  0  0  0  0  0
  -24.8440  -11.4540   20.7060 C   0  0  0  0  0  0  0  0  0  0  0  0
  -26.4310  -12.7720   20.1180 N   0  0  0  0  0  0  0  0  0  0  0  0
  -26.0880  -11.4630   20.2460 N   0  0  0  0  0  0  0  0  0  0  0  0
  -24.1350  -10.1710   20.8080 C   0  0  0  0  0  0  0  0  0  0  0  0
  -24.7000   -9.0700   21.4890 C   0  0  0  0  0  3  0  0  0  0  0  0
  -23.9910   -7.8510   21.5880 C   0  0  0  0  0  3  0  0  0  0  0  0
  -22.7060   -7.7330   21.0040 C   0  0  0  0  0  0  0  0  0  0  0  0
  -22.1600   -8.8270   20.3120 C   0  0  0  0  0  3  0  0  0  0  0  0
  -22.8670  -10.0370   20.2120 C   0  0  0  0  0  3  0  0  0  0  0  0
  -21.9500   -6.5860   21.0310 O   0  0  0  0  0  0  0  0  0  0  0  0
  -22.1110   -5.6400   22.0100 C   0  0  0  0  0  0  0  0  0  0  0  0
  -22.0020   -5.9550   23.3840 C   0  0  0  0  0  3  0  0  0  0  0  0
  -22.1020   -4.9330   24.3490 C   0  0  0  0  0  3  0  0  0  0  0  0
  -22.3080   -3.6010   23.9490 C   0  0  0  0  0  0  0  0  0  0  0  0
  -22.4150   -3.2850   22.5840 C   0  0  0  0  0  3  0  0  0  0  0  0
  -22.3100   -4.2990   21.6180 C   0  0  0  0  0  0  0  0  0  0  0  0
  -22.3790   -3.9830   20.3030 F   0  0  0  0  0  0  0  0  0  0  0  0
  -22.4090   -2.6190   24.8780 F   0  0  0  0  0  0  0  0  0  0  0  0
  -23.0500  -13.2160   21.4570 C   0  0  0  0  0  0  0  0  0  0  0  0
  -22.4130  -12.4250   22.3080 N   0  0  0  0  0  0  0  0  0  0  0  0
  -22.5590  -14.2910   21.1130 O   0  0  0  0  0  0  0  0  0  0  0  0
  -22.8220  -11.5630   22.6330 H   0  0  0  0  0  0  0  0  0  0  0  0
  -21.4970  -12.7030   22.6410 H   0  0  0  0  0  0  0  0  0  0  0  0
  -25.6180  -14.9910   20.6070 N   0  0  0  0  0  0  0  0  0  0  0  0
  -24.9140  -15.6500   20.9210 H   0  0  0  0  0  0  0  0  0  0  0  0
  -26.4940  -15.4330   20.3640 H   0  0  0  0  0  0  0  0  0  0  0  0
  -31.6440  -14.2310   24.0310 C   0  0  0  0  0  0  0  0  0  0  0  0
  -30.9490  -15.5570   23.6920 C   0  0  0  0  0  2  0  0  0  0  0  0
  -30.7550  -13.4580   23.0430 C   0  0  0  0  0  2  0  0  0  0  0  0
  -30.1610  -14.8170   22.5580 C   0  0  0  0  0  3  0  0  0  0  0  0
  -32.5860  -13.9190   24.7670 O   0  0  0  0  0  0  0  0  0  0  0  0
  -29.7260  -21.4690   20.4010 C   0  0  0  0  0  2  0  0  0  0  0  0
  -29.3180  -22.7690   19.7570 N   0  0  0  0  0  4  0  0  0  0  0  0
  -30.0430  -22.9840   19.0930 H   0  0  0  0  0  0  0  0  0  0  0  0
  -28.4700  -22.6100   19.2390 H   0  0  0  0  0  0  0  0  0  0  0  0
  -29.1150  -24.0010   20.6030 C   0  0  0  0  0  2  0  0  0  0  0  0
  -28.6960  -25.2640   19.7690 C   0  0  0  0  0  2  0  0  0  0  0  0
  -28.5380  -26.5090   20.5120 O   0  0  0  0  0  0  0  0  0  0  0  0
  -24.7810  -31.6570   23.7460 C   0  0  0  0  0  0  0  0  0  0  0  0
  -27.3790  -27.2830   20.4630 C   0  0  0  0  0  0  0  0  0  0  0  0
  -23.5900  -30.4160   21.9670 C   0  0  0  0  0  3  0  0  0  0  0  0
  -25.0370  -28.9130   20.4960 C   0  0  0  0  0  0  0  0  0  0  0  0
  -26.1380  -30.6670   21.8950 C   0  0  0  0  0  2  0  0  0  0  0  0
  -26.1930  -29.3380   21.1610 C   0  0  0  0  0  0  0  0  0  0  0  0
  -27.3600  -28.5360   21.1380 C   0  0  0  0  0  3  0  0  0  0  0  0
  -26.1920  -26.8900   19.7900 C   0  0  0  0  0  3  0  0  0  0  0  0
  -25.0350  -27.6910   19.8060 C   0  0  0  0  0  3  0  0  0  0  0  0
  -23.8240  -29.8130   20.5570 C   0  0  0  0  0  2  0  0  0  0  0  0
  -24.8540  -30.9270   22.5940 N   0  0  0  0  0  0  0  0  0  0  0  0
  -23.6930  -31.9400   24.2610 O   0  0  0  0  0  0  0  0  0  0  0  0
  -22.8600  -29.3630   22.8350 C   0  0  0  0  0  0  0  0  0  0  0  0
  -21.5320  -29.2560   22.6580 N   0  0  0  0  0  0  0  0  0  0  0  0
  -23.4850  -28.6560   23.6300 O   0  0  0  0  0  0  0  0  0  0  0  0
  -21.0940  -29.8870   22.0010 H   0  0  0  0  0  0  0  0  0  0  0  0
  -18.0990  -28.1560   22.9450 C   0  0  0  0  0  0  0  0  0  0  0  0
  -20.6510  -28.3000   23.3260 C   0  0  0  0  0  3  0  0  0  0  0  0
  -20.7240  -26.9050   22.6590 C   0  0  0  0  0  2  0  0  0  0  0  0
  -19.6520  -26.6910   21.5850 C   0  0  0  0  0  2  0  0  0  0  0  0
  -18.2510  -26.8480   22.1850 C   0  0  0  0  0  2  0  0  0  0  0  0
  -19.2260  -28.8450   23.4650 C   0  0  0  0  0  0  0  0  0  0  0  0
  -19.0290  -30.0750   24.1280 C   0  0  0  0  0  3  0  0  0  0  0  0
  -17.7390  -30.6170   24.2770 C   0  0  0  0  0  3  0  0  0  0  0  0
  -16.6250  -29.9210   23.7760 C   0  0  0  0  0  3  0  0  0  0  0  0
  -16.8060  -28.6930   23.1170 C   0  0  0  0  0  3  0  0  0  0  0  0
  -26.0670  -32.1920   24.4580 C   0  0  0  0  0  3  0  0  0  0  0  0
  -25.7870  -33.5600   24.9130 N   0  0  0  0  0  0  0  0  0  0  0  0
  -26.1590  -34.6710   24.2640 C   0  0  0  0  0  0  0  0  0  0  0  0
  -26.8500  -34.6460   23.2420 O   0  0  0  0  0  0  0  0  0  0  0  0
  -25.1910  -33.6580   25.7230 H   0  0  0  0  0  0  0  0  0  0  0  0
  -24.4780  -36.5280   24.0470 C   0  0  0  0  0  1  0  0  0  0  0  0
  -25.6950  -36.0230   24.8380 C   0  0  0  0  0  3  0  0  0  0  0  0
  -27.8370  -36.7690   25.7780 C   0  0  0  0  0  1  0  0  0  0  0  0
  -26.7570  -37.0550   24.8400 N   0  0  0  0  0  0  0  0  0  0  0  0
  -26.3680  -37.9680   25.0670 H   0  0  0  0  0  0  0  0  0  0  0  0
  -26.5300  -31.2900   25.6680 C   0  0  1  0  0  0  0  0  0  0  0  0
  -25.4040  -30.9830   26.6850 C   0  0  0  0  0  1  0  0  0  0  0  0
  -27.0910  -29.9420   25.1620 C   0  0  0  0  0  1  0  0  0  0  0  0
  -27.6870  -31.9890   26.4240 C   0  0  0  0  0  1  0  0  0  0  0  0
  3  1  1  6
  2  3  1  0
  3  4  1  0
  3 50  1  0
  6  4  1  0
  6  7  1  0
  6  5  1  0
  7 16  1  0
  7  5  1  0
  8 16  1  0
  9 14  1  0
 10 11  1  0
 10  9  1  0
 12 11  1  0
 12 20  1  0
 12 13  1  0
 14  8  1  0
 14 13  1  0
 15  8  2  0
 16 48  1  0
 17 42  1  0
 17 18  2  0
 18 37  1  0
 19 22  1  0
 19 18  1  0
 20 21  1  0
 20 17  1  0
 21 19  2  0
 22 23  1  0
 23 24  2  0
 25 28  1  0
 25 24  1  0
 26 25  2  0
 27 26  1  0
 27 22  2  0
 28 29  1  0
 29 30  1  0
 30 31  2  0
 32 31  1  0
 32 36  1  0
 33 32  2  0
 34 29  2  0
 34 33  1  0
 35 34  1  0
 37 38  1  0
 38 40  1  0
 38 41  1  0
 39 37  2  0
 42 43  1  0
 44 42  1  0
 45 49  2  0
 46 45  1  0
 47 45  1  0
 48 47  1  0
 48 46  1  0
 51 50  1  0
 51 54  1  0
 52 51  1  0
 53 51  1  0
 55 56  1  0
 55 54  1  0
 57 68  2  0
 58 56  1  0
 58 63  1  0
 59 67  1  0
 59 69  1  0
 60 66  1  0
 60 62  1  0
 61 67  1  0
 62 61  1  0
 63 62  2  0
 64 65  1  0
 64 58  2  0
 65 60  2  0
 66 59  1  0
 67 57  1  0
 69 71  2  0
 70 69  1  0
 72 70  1  0
 73 82  2  0
 73 78  1  0
 74 70  1  0
 74 78  1  0
 75 74  1  0
 76 77  1  0
 76 75  1  0
 77 73  1  0
 78 79  2  0
 79 80  1  0
 81 80  2  0
 82 81  1  0
 83 57  1  0
 83 84  1  0
 83 93  1  0
 84 87  1  0
 85 89  1  0
 85 84  1  0
 86 85  2  0
 89 88  1  0
 89 91  1  0
 91 92  1  0
 91 90  1  0
 93 96  1  1
 93 94  1  0
 95 93  1  0
M  ISO  4   8 100  16 100  55 101  56 101
M  END
>  <TORSDO>  (4) 
F 23

>  <SCORE>  (4) 
4.623

>  <name>  (4) 
3

>  <ligand_id>  (4) 
3

>  <original_smiles>  (4) 
[H]c1c([H])c([H])c2c(c1[H])C([H])([H])C([H])([H])C([H])([H])C2([H])N([H])C(=O)C1([H])N(C(=O)C([H])(N([H])C(=O)C([H])(N([H])C([H])([H])[H])C([H])([H])[H])C(C([H])([H])[H])(C([H])([H])[H])C([H])([H])[H])C([H])([H])c2c([H])c(OC([H])([H])C([H])([H])[N+]([H])([H])C([H])([H])C(C([H])([H])[H])(C([H])([H])[H])C([H])([H])C3([H])C([H])([H])C3([H])N(C(=O)N3C([H])([H])C([H])([H])C([H])([H])C([H])(n4nc(-c5c([H])c([H])c(Oc6c([H])c([H])c(F)c([H])c6F)c([H])c5[H])c(C(=O)N([H])[H])c4N([H])[H])C3([H])[H])C3([H])C([H])([H])C(=O)C3([H])[H])c([H])c([H])c2C1([H])[H]

>  <smiles>  (4) 
[H]c1c([H])c([H])c2c(c1[H])C([H])([H])C([H])([H])C([H])([H])C2([H])N([H])C(=O)C1([H])N(C(=O)C([H])(N([H])C(=O)C([H])(N([H])C([H])([H])[H])C([H])([H])[H])C(C([H])([H])[H])(C([H])([H])[H])C([H])([H])[H])C([H])([H])c2c([H])c(OC([H])([H])C([H])([H])[N+]([H])([H])C([H])([H])C(C([H])([H])[H])(C([H])([H])[H])C([H])([H])C3([H])C([H])([H])C3([H])N(C(=O)N3C([H])([H])C([H])([H])C([H])([H])C([H])(n4nc(-c5c([H])c([H])c(Oc6c([H])c([H])c(F)c([H])c6F)c([H])c5[H])c(C(=O)N([H])[H])c4N([H])[H])C3([H])[H])C3([H])C([H])([H])C(=O)C3([H])[H])c([H])c([H])c2C1([H])[H]

$$$$
4:0:0
     RDKit          3D

 95104  0  0  1  0  0  0  0  0999 V2000
  -29.1880  -21.3650   21.7880 C   0  0  0  0  0  0  0  0  0  0  0  0
  -28.0140  -22.2550   21.3510 C   0  0  0  0  0  2  0  0  0  0  0  0
  -29.6440  -21.2480   20.3300 C   0  0  0  0  0  3  0  0  0  0  0  0
  -28.6870  -22.4470   20.0500 N   0  0  2  0  0  4  0  0  0  0  0  0
  -29.5890  -20.9250   22.8730 O   0  0  0  0  0  0  0  0  0  0  0  0
  -28.0760  -22.1850   19.2880 H   0  0  0  0  0  0  0  0  0  0  0  0
  -29.2070  -19.7900   19.8210 C   0  0  0  0  0  0  0  0  0  0  0  0
  -28.2170  -19.6670   19.0910 O   0  0  0  0  0  0  0  0  0  0  0  0
  -30.8820  -15.0960   20.1210 C   0  0  0  0  0  0  0  0  0  0  0  0
  -30.6560  -12.7800   19.2010 C   0  0  0  0  0  2  0  0  0  0  0  0
  -29.7010  -12.7650   17.9890 C   0  0  0  0  0  2  0  0  0  0  0  0
  -28.2460  -12.5830   18.4600 C   0  0  0  0  0  2  0  0  0  0  0  0
  -27.8720  -13.5300   19.6320 C   0  0  0  0  0  3  0  0  0  0  0  0
  -28.9510  -13.5480   20.7360 C   0  0  0  0  0  2  0  0  0  0  0  0
  -30.2200  -13.8870   20.0870 N   0  0  0  0  0  0  0  0  0  0  0  0
  -32.0780  -15.1210   19.8240 O   0  0  0  0  0  0  0  0  0  0  0  0
  -29.3910  -17.1930   20.8390 C   0  0  0  0  0  2  0  0  0  0  0  0
  -30.0700  -18.4830   20.2250 C   0  0  0  0  0  3  0  0  0  0  0  0
  -30.5070  -17.4870   19.0910 C   0  0  0  0  0  3  0  0  0  0  0  0
  -30.1610  -16.2860   19.9320 N   0  0  0  0  0  0  0  0  0  0  0  0
  -25.5160  -14.1150   20.4510 C   0  0  0  0  0  0  0  0  0  0  0  0
  -24.4570  -13.3390   20.8350 C   0  0  0  0  0  0  0  0  0  0  0  0
  -24.9110  -11.9870   20.7630 C   0  0  0  0  0  0  0  0  0  0  0  0
  -26.5460  -13.2360   20.1640 N   0  0  0  0  0  0  0  0  0  0  0  0
  -26.1920  -11.9490   20.4170 N   0  0  0  0  0  0  0  0  0  0  0  0
  -24.1820  -10.7240   20.9460 C   0  0  0  0  0  0  0  0  0  0  0  0
  -24.5840   -9.7720   21.9080 C   0  0  0  0  0  3  0  0  0  0  0  0
  -23.8550   -8.5760   22.0790 C   0  0  0  0  0  3  0  0  0  0  0  0
  -22.7100   -8.3220   21.2860 C   0  0  0  0  0  0  0  0  0  0  0  0
  -22.3290   -9.2630   20.3140 C   0  0  0  0  0  3  0  0  0  0  0  0
  -23.0580  -10.4510   20.1420 C   0  0  0  0  0  3  0  0  0  0  0  0
  -21.9560   -7.1760   21.3650 O   0  0  0  0  0  0  0  0  0  0  0  0
  -21.8070   -6.4920   22.5460 C   0  0  0  0  0  0  0  0  0  0  0  0
  -21.1940   -7.0800   23.6740 C   0  0  0  0  0  3  0  0  0  0  0  0
  -20.9990   -6.3180   24.8440 C   0  0  0  0  0  3  0  0  0  0  0  0
  -21.4030   -4.9700   24.8840 C   0  0  0  0  0  0  0  0  0  0  0  0
  -22.0070   -4.3820   23.7590 C   0  0  0  0  0  3  0  0  0  0  0  0
  -22.2050   -5.1410   22.5920 C   0  0  0  0  0  0  0  0  0  0  0  0
  -22.7680   -4.5640   21.5030 F   0  0  0  0  0  0  0  0  0  0  0  0
  -21.2080   -4.2370   26.0050 F   0  0  0  0  0  0  0  0  0  0  0  0
  -23.0700  -13.8180   21.1510 C   0  0  0  0  0  0  0  0  0  0  0  0
  -22.3650  -13.1170   22.0310 N   0  0  0  0  0  0  0  0  0  0  0  0
  -22.6230  -14.8510   20.6550 O   0  0  0  0  0  0  0  0  0  0  0  0
  -22.7410  -12.2800   22.4540 H   0  0  0  0  0  0  0  0  0  0  0  0
  -21.4360  -13.4190   22.2850 H   0  0  0  0  0  0  0  0  0  0  0  0
  -25.6840  -15.4880   20.2970 N   0  0  0  0  0  0  0  0  0  0  0  0
  -24.9240  -16.1440   20.4370 H   0  0  0  0  0  0  0  0  0  0  0  0
  -26.5220  -15.9220   19.9320 H   0  0  0  0  0  0  0  0  0  0  0  0
  -31.8860  -17.7200   18.5920 N   0  0  0  0  0  4  0  0  0  0  0  0
  -32.5660  -17.6900   19.3310 H   0  0  0  0  0  0  0  0  0  0  0  0
  -31.9670  -18.6040   18.1240 H   0  0  0  0  0  0  0  0  0  0  0  0
  -32.1440  -17.0140   17.9270 H   0  0  0  0  0  0  0  0  0  0  0  0
  -29.1850  -23.9170   19.8680 C   0  0  0  0  0  3  0  0  0  0  0  0
  -28.0850  -25.1000   19.6110 C   0  0  0  0  0  3  0  0  0  0  0  0
  -28.3500  -26.5930   19.7120 O   0  0  0  0  0  0  0  0  0  0  0  0
  -24.6400  -31.8170   23.1890 C   0  0  0  0  0  0  0  0  0  0  0  0
  -27.2420  -27.4840   19.7470 C   0  0  0  0  0  0  0  0  0  0  0  0
  -23.4150  -30.4960   21.5060 C   0  0  0  0  0  3  0  0  0  0  0  0
  -24.8510  -29.0860   19.9240 C   0  0  0  0  0  0  0  0  0  0  0  0
  -25.9440  -30.8820   21.2570 C   0  0  0  0  0  2  0  0  0  0  0  0
  -26.0350  -29.5480   20.5140 C   0  0  0  0  0  0  0  0  0  0  0  0
  -27.2330  -28.7630   20.4120 C   0  0  0  0  0  3  0  0  0  0  0  0
  -26.0270  -27.1040   19.1300 C   0  0  0  0  0  3  0  0  0  0  0  0
  -24.8540  -27.8760   19.2200 C   0  0  0  0  0  3  0  0  0  0  0  0
  -23.5970  -29.9240   20.0760 C   0  0  0  0  0  2  0  0  0  0  0  0
  -24.6870  -31.0810   22.0400 N   0  0  0  0  0  0  0  0  0  0  0  0
  -23.5680  -32.0280   23.7780 O   0  0  0  0  0  0  0  0  0  0  0  0
  -22.8140  -29.3990   22.4190 C   0  0  0  0  0  0  0  0  0  0  0  0
  -21.5030  -29.1380   22.2730 N   0  0  0  0  0  0  0  0  0  0  0  0
  -23.5270  -28.7880   23.2180 O   0  0  0  0  0  0  0  0  0  0  0  0
  -20.9810  -29.6890   21.6060 H   0  0  0  0  0  0  0  0  0  0  0  0
  -18.2190  -27.6700   22.6730 C   0  0  0  0  0  0  0  0  0  0  0  0
  -20.7450  -28.1170   23.0000 C   0  0  0  0  0  3  0  0  0  0  0  0
  -20.9660  -26.7140   22.3880 C   0  0  0  0  0  2  0  0  0  0  0  0
  -19.9120  -26.3390   21.3420 C   0  0  0  0  0  2  0  0  0  0  0  0
  -18.5100  -26.3600   21.9610 C   0  0  0  0  0  2  0  0  0  0  0  0
  -19.2670  -28.5020   23.1480 C   0  0  0  0  0  0  0  0  0  0  0  0
  -18.9410  -29.7260   23.7720 C   0  0  0  0  0  3  0  0  0  0  0  0
  -17.5990  -30.1190   23.9280 C   0  0  0  0  0  3  0  0  0  0  0  0
  -16.5640  -29.2840   23.4710 C   0  0  0  0  0  3  0  0  0  0  0  0
  -16.8740  -28.0610   22.8490 C   0  0  0  0  0  3  0  0  0  0  0  0
  -25.9240  -32.4480   23.8080 C   0  0  0  0  0  3  0  0  0  0  0  0
  -26.4540  -31.6640   25.0700 C   0  0  1  0  0  0  0  0  0  0  0  0
  -25.3640  -31.3820   26.1310 C   0  0  0  0  0  1  0  0  0  0  0  0
  -27.0700  -30.3060   24.6550 C   0  0  0  0  0  1  0  0  0  0  0  0
  -27.5860  -32.4710   25.7510 C   0  0  0  0  0  1  0  0  0  0  0  0
  -25.6120  -33.8400   24.1610 N   0  0  0  0  0  0  0  0  0  0  0  0
  -25.9150  -34.9060   23.4080 C   0  0  0  0  0  0  0  0  0  0  0  0
  -26.5580  -34.8200   22.3580 O   0  0  0  0  0  0  0  0  0  0  0  0
  -25.0360  -33.9800   24.9780 H   0  0  0  0  0  0  0  0  0  0  0  0
  -24.1620  -36.6900   23.1290 C   0  0  0  0  0  1  0  0  0  0  0  0
  -25.4310  -36.2860   23.8960 C   0  0  0  0  0  3  0  0  0  0  0  0
  -27.5750  -37.1890   24.6810 C   0  0  0  0  0  1  0  0  0  0  0  0
  -26.4510  -37.3490   23.7630 N   0  0  0  0  0  0  0  0  0  0  0  0
  -26.0390  -38.2640   23.9210 H   0  0  0  0  0  0  0  0  0  0  0  0
  1  5  2  0
  2  1  1  0
  3  7  1  0
  3  1  1  0
  4  3  1  0
  4  2  1  0
  4  6  1  6
  8  7  2  0
 10 15  1  0
 11 12  1  0
 11 10  1  0
 13 12  1  0
 13 24  1  0
 13 14  1  0
 15  9  1  0
 15 14  1  0
 16  9  2  0
 18  7  1  0
 18 17  1  0
 19 49  1  0
 19 20  1  0
 19 18  1  0
 20  9  1  0
 20 17  1  0
 21 22  2  0
 22 41  1  0
 23 22  1  0
 23 26  1  0
 24 25  1  0
 24 21  1  0
 25 23  2  0
 26 27  1  0
 27 28  2  0
 29 32  1  0
 29 28  1  0
 30 29  2  0
 31 30  1  0
 31 26  2  0
 32 33  1  0
 33 38  2  0
 33 34  1  0
 34 35  2  0
 35 36  1  0
 36 40  1  0
 37 36  2  0
 38 37  1  0
 39 38  1  0
 41 42  1  0
 42 45  1  0
 42 44  1  0
 43 41  2  0
 46 47  1  0
 46 21  1  0
 48 46  1  0
 49 50  1  0
 51 49  1  0
 52 49  1  0
 53  4  1  0
 54 55  1  0
 54 53  2  0
 55 57  1  0
 56 67  2  0
 57 62  1  0
 58 66  1  0
 58 68  1  0
 59 65  1  0
 59 61  1  0
 60 66  1  0
 61 60  1  0
 62 61  2  0
 63 64  1  0
 63 57  2  0
 64 59  2  0
 65 58  1  0
 66 56  1  0
 68 70  2  0
 69 68  1  0
 71 69  1  0
 72 81  2  0
 72 77  1  0
 73 69  1  0
 73 77  1  0
 74 73  1  0
 75 76  1  0
 75 74  1  0
 76 72  1  0
 77 78  2  0
 78 79  1  0
 80 79  2  0
 81 80  1  0
 82 56  1  0
 82 87  1  0
 82 83  1  0
 83 86  1  1
 83 84  1  0
 85 83  1  0
 87 90  1  0
 88 92  1  0
 88 87  1  0
 89 88  2  0
 92 91  1  0
 94 92  1  0
 94 95  1  0
 94 93  1  0
M  ISO  4   9 100  20 100  54 101  55 101
M  END
>  <TORSDO>  (5) 
F 20

>  <SCORE>  (5) 
-13.696

>  <name>  (5) 
4

>  <ligand_id>  (5) 
4

>  <original_smiles>  (5) 
[H]c1c([H])c([H])c2c(c1[H])C([H])([H])C([H])([H])C([H])([H])C2([H])N([H])C(=O)C1([H])N(C(=O)C([H])(N([H])C(=O)C([H])(N([H])C([H])([H])[H])C([H])([H])[H])C(C([H])([H])[H])(C([H])([H])[H])C([H])([H])[H])C([H])([H])c2c([H])c(OC([H])([H])C([H])([H])[N+]3([H])C([H])([H])C(=O)C3([H])C(=O)C3([H])C([H])([H])N(C(=O)N4C([H])([H])C([H])([H])C([H])([H])C([H])(n5nc(-c6c([H])c([H])c(Oc7c([H])c([H])c(F)c([H])c7F)c([H])c6[H])c(C(=O)N([H])[H])c5N([H])[H])C4([H])[H])C3([H])[N+]([H])([H])[H])c([H])c([H])c2C1([H])[H]

>  <smiles>  (5) 
[H]c1c([H])c([H])c2c(c1[H])C([H])([H])C([H])([H])C([H])([H])C2([H])N([H])C(=O)C1([H])N(C(=O)C([H])(N([H])C(=O)C([H])(N([H])C([H])([H])[H])C([H])([H])[H])C(C([H])([H])[H])(C([H])([H])[H])C([H])([H])[H])C([H])([H])c2c([H])c(OC([H])([H])C([H])([H])[N+]3([H])C([H])([H])C(=O)C3([H])C(=O)C3([H])C([H])([H])N(C(=O)N4C([H])([H])C([H])([H])C([H])([H])C([H])(n5nc(-c6c([H])c([H])c(Oc7c([H])c([H])c(F)c([H])c7F)c([H])c6[H])c(C(=O)N([H])[H])c5N([H])[H])C4([H])[H])C3([H])[N+]([H])([H])[H])c([H])c([H])c2C1([H])[H]

$$$$
5:0:0
     RDKit          3D

 99107  0  0  1  0  0  0  0  0999 V2000
  -30.1810  -19.8030   20.8120 C   0  0  0  0  0  0  0  0  0  0  0  0
  -29.6140  -18.7580   21.2860 N   0  0  0  0  0  0  0  0  0  0  0  0
  -30.2410  -22.4980   23.4980 C   0  0  0  0  0  3  0  0  0  0  0  0
  -30.4670  -21.2860   22.8190 C   0  0  0  0  0  3  0  0  0  0  0  0
  -29.5210  -23.5360   22.8750 C   0  0  0  0  0  3  0  0  0  0  0  0
  -29.2220  -22.1320   20.9070 C   0  0  0  0  0  3  0  0  0  0  0  0
  -29.9620  -21.0920   21.5150 C   0  0  0  0  0  0  0  0  0  0  0  0
  -29.0250  -23.3670   21.5640 C   0  0  0  0  0  0  0  0  0  0  0  0
  -28.2970  -24.4950   20.8380 C   0  0  0  0  0  2  0  0  0  0  0  0
  -28.8530  -25.9020   21.1340 C   0  0  0  0  0  2  0  0  0  0  0  0
  -28.5570  -26.8020   20.0750 O   0  0  0  0  0  0  0  0  0  0  0  0
  -24.5710  -31.8380   23.1800 C   0  0  0  0  0  0  0  0  0  0  0  0
  -27.3600  -27.4640   20.1570 C   0  0  0  0  0  0  0  0  0  0  0  0
  -23.4260  -30.4210   21.5020 C   0  0  0  0  0  3  0  0  0  0  0  0
  -24.9390  -28.9040   20.1180 C   0  0  0  0  0  0  0  0  0  0  0  0
  -25.9470  -30.8230   21.3700 C   0  0  0  0  0  2  0  0  0  0  0  0
  -26.0680  -29.4520   20.7400 C   0  0  0  0  0  0  0  0  0  0  0  0
  -27.2840  -28.7340   20.7640 C   0  0  0  0  0  3  0  0  0  0  0  0
  -26.2180  -26.9170   19.5390 C   0  0  0  0  0  3  0  0  0  0  0  0
  -25.0050  -27.6310   19.5220 C   0  0  0  0  0  3  0  0  0  0  0  0
  -23.6810  -29.7440   20.1290 C   0  0  0  0  0  2  0  0  0  0  0  0
  -24.6640  -31.0420   22.0760 N   0  0  0  0  0  0  0  0  0  0  0  0
  -23.4730  -32.0930   23.6920 O   0  0  0  0  0  0  0  0  0  0  0  0
  -22.7650  -29.3900   22.4430 C   0  0  0  0  0  0  0  0  0  0  0  0
  -21.4450  -29.1980   22.2850 N   0  0  0  0  0  0  0  0  0  0  0  0
  -23.4360  -28.7660   23.2690 O   0  0  0  0  0  0  0  0  0  0  0  0
  -20.9680  -29.7520   21.5880 H   0  0  0  0  0  0  0  0  0  0  0  0
  -18.0580  -28.0330   22.7530 C   0  0  0  0  0  0  0  0  0  0  0  0
  -20.6180  -28.2500   23.0310 C   0  0  0  0  0  3  0  0  0  0  0  0
  -20.7040  -26.8350   22.4140 C   0  0  0  0  0  2  0  0  0  0  0  0
  -19.5970  -26.5540   21.3940 C   0  0  0  0  0  2  0  0  0  0  0  0
  -18.2170  -26.6990   22.0420 C   0  0  0  0  0  2  0  0  0  0  0  0
  -19.1860  -28.7680   23.2020 C   0  0  0  0  0  0  0  0  0  0  0  0
  -18.9850  -30.0190   23.8260 C   0  0  0  0  0  3  0  0  0  0  0  0
  -17.6870  -30.5340   24.0040 C   0  0  0  0  0  3  0  0  0  0  0  0
  -16.5720  -29.7940   23.5720 C   0  0  0  0  0  3  0  0  0  0  0  0
  -16.7580  -28.5460   22.9520 C   0  0  0  0  0  3  0  0  0  0  0  0
  -25.8330  -32.4810   23.8340 C   0  0  0  0  0  3  0  0  0  0  0  0
  -26.3270  -31.7110   25.1190 C   0  0  1  0  0  0  0  0  0  0  0  0
  -25.2080  -31.4430   26.1520 C   0  0  0  0  0  1  0  0  0  0  0  0
  -26.9510  -30.3510   24.7330 C   0  0  0  0  0  1  0  0  0  0  0  0
  -27.4450  -32.5220   25.8180 C   0  0  0  0  0  1  0  0  0  0  0  0
  -25.5010  -33.8740   24.1560 N   0  0  0  0  0  0  0  0  0  0  0  0
  -25.8630  -34.9310   23.4160 C   0  0  0  0  0  0  0  0  0  0  0  0
  -26.5830  -34.8360   22.4180 O   0  0  0  0  0  0  0  0  0  0  0  0
  -24.8660  -34.0220   24.9270 H   0  0  0  0  0  0  0  0  0  0  0  0
  -24.1650  -36.7290   22.9610 C   0  0  0  0  0  1  0  0  0  0  0  0
  -25.3450  -36.3150   23.8530 C   0  0  0  0  0  3  0  0  0  0  0  0
  -27.4080  -37.1930   24.8520 C   0  0  0  0  0  1  0  0  0  0  0  0
  -26.3830  -37.3670   23.8260 N   0  0  0  0  0  0  0  0  0  0  0  0
  -25.9670  -38.2880   23.9500 H   0  0  0  0  0  0  0  0  0  0  0  0
  -30.3650  -19.9190   18.2580 C   0  0  0  0  0  1  0  0  0  0  0  0
  -31.1370  -19.8090   19.5930 C   0  0  0  0  0  3  0  0  0  0  0  0
  -32.3460  -20.7860   19.6960 C   0  0  0  0  0  2  0  0  0  0  0  0
  -32.2340  -22.1390   18.9520 C   0  0  0  0  0  2  0  0  0  0  0  0
  -33.4600  -22.9430   19.0770 N   0  0  0  0  0  4  0  0  0  0  0  0
  -33.6580  -23.1540   20.0390 H   0  0  0  0  0  0  0  0  0  0  0  0
  -33.3520  -23.8110   18.5810 H   0  0  0  0  0  0  0  0  0  0  0  0
  -34.2470  -22.4590   18.6820 H   0  0  0  0  0  0  0  0  0  0  0  0
  -29.7260  -17.4290   20.7040 C   0  0  0  0  0  2  0  0  0  0  0  0
  -30.6950  -16.5390   21.5070 C   0  0  0  0  0  2  0  0  0  0  0  0
  -30.8140  -14.3910   20.2290 C   0  0  0  0  0  0  0  0  0  0  0  0
  -30.3910  -12.3510   18.9040 C   0  0  0  0  0  2  0  0  0  0  0  0
  -29.3760  -12.6230   17.7770 C   0  0  0  0  0  2  0  0  0  0  0  0
  -27.9310  -12.4700   18.2880 C   0  0  0  0  0  2  0  0  0  0  0  0
  -27.6800  -13.2540   19.6020 C   0  0  0  0  0  3  0  0  0  0  0  0
  -28.7870  -12.9460   20.6350 C   0  0  0  0  0  2  0  0  0  0  0  0
  -30.0990  -13.2530   20.0270 N   0  0  0  0  0  0  0  0  0  0  0  0
  -31.7700  -14.7340   19.5280 O   0  0  0  0  0  0  0  0  0  0  0  0
  -30.3900  -15.1330   21.2580 N   0  0  0  0  0  0  0  0  0  0  0  0
  -29.6650  -14.7230   21.8270 H   0  0  0  0  0  0  0  0  0  0  0  0
  -25.3230  -13.8630   20.4490 C   0  0  0  0  0  0  0  0  0  0  0  0
  -24.2690  -13.0890   20.8560 C   0  0  0  0  0  0  0  0  0  0  0  0
  -24.7160  -11.7350   20.7610 C   0  0  0  0  0  0  0  0  0  0  0  0
  -26.3470  -12.9810   20.1400 N   0  0  0  0  0  0  0  0  0  0  0  0
  -25.9850  -11.6940   20.3800 N   0  0  0  0  0  0  0  0  0  0  0  0
  -23.9900  -10.4740   20.9580 C   0  0  0  0  0  0  0  0  0  0  0  0
  -24.4280   -9.5050   21.8880 C   0  0  0  0  0  3  0  0  0  0  0  0
  -23.7050   -8.3070   22.0720 C   0  0  0  0  0  3  0  0  0  0  0  0
  -22.5270   -8.0690   21.3240 C   0  0  0  0  0  0  0  0  0  0  0  0
  -22.1080   -9.0250   20.3810 C   0  0  0  0  0  3  0  0  0  0  0  0
  -22.8330  -10.2140   20.1960 C   0  0  0  0  0  3  0  0  0  0  0  0
  -21.7730   -6.9250   21.4170 O   0  0  0  0  0  0  0  0  0  0  0  0
  -21.6850   -6.2130   22.5870 C   0  0  0  0  0  0  0  0  0  0  0  0
  -21.1610   -6.7820   23.7680 C   0  0  0  0  0  3  0  0  0  0  0  0
  -21.0250   -5.9940   24.9290 C   0  0  0  0  0  3  0  0  0  0  0  0
  -21.4040   -4.6390   24.9090 C   0  0  0  0  0  0  0  0  0  0  0  0
  -21.9220   -4.0690   23.7320 C   0  0  0  0  0  3  0  0  0  0  0  0
  -22.0610   -4.8540   22.5740 C   0  0  0  0  0  0  0  0  0  0  0  0
  -22.5390   -4.2950   21.4380 F   0  0  0  0  0  0  0  0  0  0  0  0
  -21.2660   -3.8800   26.0210 F   0  0  0  0  0  0  0  0  0  0  0  0
  -22.8930  -13.5660   21.2230 C   0  0  0  0  0  0  0  0  0  0  0  0
  -22.2050  -12.8420   22.0990 N   0  0  0  0  0  0  0  0  0  0  0  0
  -22.4380  -14.6160   20.7710 O   0  0  0  0  0  0  0  0  0  0  0  0
  -22.5880  -11.9930   22.4870 H   0  0  0  0  0  0  0  0  0  0  0  0
  -21.2840  -13.1400   22.3860 H   0  0  0  0  0  0  0  0  0  0  0  0
  -25.4900  -15.2360   20.2980 N   0  0  0  0  0  0  0  0  0  0  0  0
  -24.7360  -15.8970   20.4580 H   0  0  0  0  0  0  0  0  0  0  0  0
  -26.3310  -15.6750   19.9450 H   0  0  0  0  0  0  0  0  0  0  0  0
  1  2  2  0
  1  7  1  0
  4  3  2  0
  5  3  1  0
  6  7  2  0
  6  8  1  0
  7  4  1  0
  8  5  2  0
  9 10  1  0
  9  8  1  0
 11 13  1  0
 11 10  1  0
 12 23  2  0
 13 18  1  0
 14 22  1  0
 14 24  1  0
 15 21  1  0
 15 17  1  0
 16 22  1  0
 17 18  2  0
 17 16  1  0
 19 13  2  0
 20 19  1  0
 20 15  2  0
 21 14  1  0
 22 12  1  0
 24 26  2  0
 25 24  1  0
 27 25  1  0
 28 37  2  0
 28 33  1  0
 29 25  1  0
 29 33  1  0
 30 29  1  0
 31 32  1  0
 31 30  1  0
 32 28  1  0
 33 34  2  0
 34 35  1  0
 36 35  2  0
 37 36  1  0
 38 12  1  0
 38 43  1  0
 38 39  1  0
 39 42  1  1
 39 40  1  0
 41 39  1  0
 43 46  1  0
 44 48  1  0
 44 43  1  0
 45 44  2  0
 48 47  1  0
 50 48  1  0
 50 51  1  0
 50 49  1  0
 53 52  1  0
 53 54  1  0
 53  1  1  0
 55 56  1  0
 55 54  1  0
 56 57  1  0
 58 56  1  0
 59 56  1  0
 60  2  1  0
 60 61  1  0
 62 70  1  0
 63 68  1  0
 64 65  1  0
 64 63  1  0
 66 65  1  0
 66 75  1  0
 66 67  1  0
 68 62  1  0
 68 67  1  0
 69 62  2  0
 70 61  1  0
 70 71  1  0
 72 73  2  0
 73 92  1  0
 74 73  1  0
 74 77  1  0
 75 76  1  0
 75 72  1  0
 76 74  2  0
 77 78  1  0
 78 79  2  0
 80 83  1  0
 80 79  1  0
 81 80  2  0
 82 81  1  0
 82 77  2  0
 83 84  1  0
 84 85  1  0
 85 86  2  0
 87 86  1  0
 87 91  1  0
 88 87  2  0
 89 84  2  0
 89 88  1  0
 90 89  1  0
 92 93  1  0
 93 96  1  0
 93 95  1  0
 94 92  2  0
 97 72  1  0
 97 98  1  0
 99 97  1  0
M  ISO  4  10 101  11 101  62 100  70 100
M  END
>  <TORSDO>  (6) 
F 25

>  <SCORE>  (6) 
-12.654

>  <name>  (6) 
5

>  <ligand_id>  (6) 
5

>  <original_smiles>  (6) 
[H]c1c([H])c(C(=NC([H])([H])C([H])([H])N([H])C(=O)N2C([H])([H])C([H])([H])C([H])([H])C([H])(n3nc(-c4c([H])c([H])c(Oc5c([H])c([H])c(F)c([H])c5F)c([H])c4[H])c(C(=O)N([H])[H])c3N([H])[H])C2([H])[H])C([H])(C([H])([H])[H])C([H])([H])C([H])([H])[N+]([H])([H])[H])c([H])c(C([H])([H])C([H])([H])Oc2c([H])c([H])c3c(c2[H])C([H])([H])N(C(=O)C([H])(N([H])C(=O)C([H])(N([H])C([H])([H])[H])C([H])([H])[H])C(C([H])([H])[H])(C([H])([H])[H])C([H])([H])[H])C([H])(C(=O)N([H])C2([H])c4c([H])c([H])c([H])c([H])c4C([H])([H])C([H])([H])C2([H])[H])C3([H])[H])c1[H]

>  <smiles>  (6) 
[H]c1c([H])c(C(=NC([H])([H])C([H])([H])N([H])C(=O)N2C([H])([H])C([H])([H])C([H])([H])C([H])(n3nc(-c4c([H])c([H])c(Oc5c([H])c([H])c(F)c([H])c5F)c([H])c4[H])c(C(=O)N([H])[H])c3N([H])[H])C2([H])[H])C([H])(C([H])([H])[H])C([H])([H])C([H])([H])[N+]([H])([H])[H])c([H])c(C([H])([H])C([H])([H])Oc2c([H])c([H])c3c(c2[H])C([H])([H])N(C(=O)C([H])(N([H])C(=O)C([H])(N([H])C([H])([H])[H])C([H])([H])[H])C(C([H])([H])[H])(C([H])([H])[H])C([H])([H])[H])C([H])(C(=O)N([H])C2([H])c4c([H])c([H])c([H])c([H])c4C([H])([H])C([H])([H])C2([H])[H])C3([H])[H])c1[H]

$$$$
6:0:0
     RDKit          3D

100108  0  0  1  0  0  0  0  0999 V2000
  -29.2530  -20.5530   20.4190 C   0  0  0  0  0  0  0  0  0  0  0  0
  -28.0620  -20.4810   20.7340 O   0  0  0  0  0  0  0  0  0  0  0  0
  -29.3600  -22.8570   22.2590 C   0  0  0  0  0  3  0  0  0  0  0  0
  -30.4410  -21.8250   22.2520 C   0  0  0  0  0  2  0  0  0  0  0  0
  -30.1440  -21.7490   20.7440 C   0  0  0  0  0  3  0  0  0  0  0  0
  -29.4700  -23.0830   20.9400 N   0  0  0  0  0  0  0  0  0  0  0  0
  -28.6800  -23.4250   23.2680 N   0  0  0  0  0  0  0  0  0  0  0  0
  -28.8260  -23.1130   24.2190 H   0  0  0  0  0  0  0  0  0  0  0  0
  -27.9380  -24.0890   23.1090 H   0  0  0  0  0  0  0  0  0  0  0  0
  -28.9240  -24.0910   19.9760 C   0  0  0  0  0  2  0  0  0  0  0  0
  -28.6400  -25.4960   20.6180 C   0  0  0  0  0  2  0  0  0  0  0  0
  -28.6000  -26.6520   19.7300 O   0  0  0  0  0  0  0  0  0  0  0  0
  -24.6800  -31.6630   23.0320 C   0  0  0  0  0  0  0  0  0  0  0  0
  -27.4350  -27.4020   19.7650 C   0  0  0  0  0  0  0  0  0  0  0  0
  -23.5020  -30.2810   21.3530 C   0  0  0  0  0  3  0  0  0  0  0  0
  -24.9960  -28.8480   19.8510 C   0  0  0  0  0  0  0  0  0  0  0  0
  -26.0170  -30.7320   21.1400 C   0  0  0  0  0  2  0  0  0  0  0  0
  -26.1460  -29.3880   20.4390 C   0  0  0  0  0  0  0  0  0  0  0  0
  -27.3740  -28.6770   20.3870 C   0  0  0  0  0  3  0  0  0  0  0  0
  -26.2670  -26.8870   19.1630 C   0  0  0  0  0  3  0  0  0  0  0  0
  -25.0520  -27.6000   19.2060 C   0  0  0  0  0  3  0  0  0  0  0  0
  -23.7200  -29.6600   19.9480 C   0  0  0  0  0  2  0  0  0  0  0  0
  -24.7510  -30.9060   21.9000 N   0  0  0  0  0  0  0  0  0  0  0  0
  -23.5970  -31.8750   23.5950 O   0  0  0  0  0  0  0  0  0  0  0  0
  -22.9020  -29.2030   22.2860 C   0  0  0  0  0  0  0  0  0  0  0  0
  -21.5830  -28.9760   22.1710 N   0  0  0  0  0  0  0  0  0  0  0  0
  -23.6190  -28.5730   23.0690 O   0  0  0  0  0  0  0  0  0  0  0  0
  -21.0630  -29.5320   21.5040 H   0  0  0  0  0  0  0  0  0  0  0  0
  -18.2650  -27.6350   22.6750 C   0  0  0  0  0  0  0  0  0  0  0  0
  -20.8150  -27.9780   22.9150 C   0  0  0  0  0  3  0  0  0  0  0  0
  -20.9590  -26.5780   22.2770 C   0  0  0  0  0  2  0  0  0  0  0  0
  -19.8500  -26.2490   21.2710 C   0  0  0  0  0  2  0  0  0  0  0  0
  -18.4770  -26.3200   21.9430 C   0  0  0  0  0  2  0  0  0  0  0  0
  -19.3610  -28.4210   23.1190 C   0  0  0  0  0  0  0  0  0  0  0  0
  -19.1070  -29.6500   23.7650 C   0  0  0  0  0  3  0  0  0  0  0  0
  -17.7890  -30.0970   23.9740 C   0  0  0  0  0  3  0  0  0  0  0  0
  -16.7060  -29.3070   23.5500 C   0  0  0  0  0  3  0  0  0  0  0  0
  -16.9470  -28.0800   22.9020 C   0  0  0  0  0  3  0  0  0  0  0  0
  -25.9510  -32.3130   23.6620 C   0  0  0  0  0  3  0  0  0  0  0  0
  -26.5200  -31.4960   24.8860 C   0  0  1  0  0  0  0  0  0  0  0  0
  -25.4590  -31.1530   25.9590 C   0  0  0  0  0  1  0  0  0  0  0  0
  -27.1460  -30.1650   24.4110 C   0  0  0  0  0  1  0  0  0  0  0  0
  -27.6530  -32.2960   25.5700 C   0  0  0  0  0  1  0  0  0  0  0  0
  -25.5970  -33.6820   24.0680 N   0  0  0  0  0  0  0  0  0  0  0  0
  -25.8750  -34.7790   23.3520 C   0  0  0  0  0  0  0  0  0  0  0  0
  -26.5340  -34.7510   22.3100 O   0  0  0  0  0  0  0  0  0  0  0  0
  -25.0140  -33.7760   24.8860 H   0  0  0  0  0  0  0  0  0  0  0  0
  -24.0810  -36.5220   23.0900 C   0  0  0  0  0  1  0  0  0  0  0  0
  -25.3390  -36.1230   23.8790 C   0  0  0  0  0  3  0  0  0  0  0  0
  -27.4400  -37.0490   24.7500 C   0  0  0  0  0  1  0  0  0  0  0  0
  -26.3310  -37.2200   23.8180 N   0  0  0  0  0  0  0  0  0  0  0  0
  -25.8890  -38.1150   24.0050 H   0  0  0  0  0  0  0  0  0  0  0  0
  -29.9220  -19.3920   19.5880 C   0  0  0  0  0  3  0  0  0  0  0  0
  -29.8610  -19.7220   18.1520 N   0  0  0  0  0  0  0  0  0  0  0  0
  -30.4480  -20.5230   17.9350 H   0  0  0  0  0  0  0  0  0  0  0  0
  -28.9280  -20.0180   17.8820 H   0  0  0  0  0  0  0  0  0  0  0  0
  -29.4080  -17.8980   19.7910 C   0  0  0  0  0  3  0  0  0  0  0  0
  -27.9390  -17.8060   19.8540 N   0  0  0  0  0  4  0  0  0  0  0  0
  -27.5800  -18.4490   20.5410 H   0  0  0  0  0  0  0  0  0  0  0  0
  -27.6410  -16.8760   20.0790 H   0  0  0  0  0  0  0  0  0  0  0  0
  -27.5520  -18.0610   18.9630 H   0  0  0  0  0  0  0  0  0  0  0  0
  -30.0980  -17.0370   20.9080 C   0  0  0  0  0  2  0  0  0  0  0  0
  -30.5480  -14.5630   20.4190 C   0  0  0  0  0  0  0  0  0  0  0  0
  -30.3210  -12.3570   19.3200 C   0  0  0  0  0  2  0  0  0  0  0  0
  -29.3600  -12.5100   18.1210 C   0  0  0  0  0  2  0  0  0  0  0  0
  -27.8930  -12.3440   18.5680 C   0  0  0  0  0  2  0  0  0  0  0  0
  -27.5480  -13.1940   19.8170 C   0  0  0  0  0  3  0  0  0  0  0  0
  -28.6180  -13.0200   20.9190 C   0  0  0  0  0  2  0  0  0  0  0  0
  -29.9280  -13.3520   20.3320 N   0  0  0  0  0  0  0  0  0  0  0  0
  -31.6750  -14.7700   19.9610 O   0  0  0  0  0  0  0  0  0  0  0  0
  -29.7740  -15.5810   20.8730 N   0  0  0  0  0  0  0  0  0  0  0  0
  -28.9030  -15.2870   21.2920 H   0  0  0  0  0  0  0  0  0  0  0  0
  -25.1610  -13.7760   20.5760 C   0  0  0  0  0  0  0  0  0  0  0  0
  -24.1100  -12.9940   20.9700 C   0  0  0  0  0  0  0  0  0  0  0  0
  -24.5800  -11.6470   20.9110 C   0  0  0  0  0  0  0  0  0  0  0  0
  -26.2060  -12.9050   20.3140 N   0  0  0  0  0  0  0  0  0  0  0  0
  -25.8620  -11.6200   20.5750 N   0  0  0  0  0  0  0  0  0  0  0  0
  -23.8660  -10.3780   21.0940 C   0  0  0  0  0  0  0  0  0  0  0  0
  -24.3230   -9.4020   22.0060 C   0  0  0  0  0  3  0  0  0  0  0  0
  -23.6100   -8.1940   22.1760 C   0  0  0  0  0  3  0  0  0  0  0  0
  -22.4280   -7.9580   21.4330 C   0  0  0  0  0  0  0  0  0  0  0  0
  -21.9910   -8.9240   20.5090 C   0  0  0  0  0  3  0  0  0  0  0  0
  -22.7040  -10.1220   20.3370 C   0  0  0  0  0  3  0  0  0  0  0  0
  -21.6830   -6.8050   21.5180 O   0  0  0  0  0  0  0  0  0  0  0  0
  -21.6600   -6.0460   22.6620 C   0  0  0  0  0  0  0  0  0  0  0  0
  -21.2310   -6.5730   23.8990 C   0  0  0  0  0  3  0  0  0  0  0  0
  -21.1550   -5.7380   25.0320 C   0  0  0  0  0  3  0  0  0  0  0  0
  -21.5000   -4.3770   24.9280 C   0  0  0  0  0  0  0  0  0  0  0  0
  -21.9250   -3.8500   23.6970 C   0  0  0  0  0  3  0  0  0  0  0  0
  -22.0030   -4.6820   22.5670 C   0  0  0  0  0  0  0  0  0  0  0  0
  -22.3920   -4.1650   21.3760 F   0  0  0  0  0  0  0  0  0  0  0  0
  -21.4220   -3.5730   26.0140 F   0  0  0  0  0  0  0  0  0  0  0  0
  -22.7140  -13.4580   21.2690 C   0  0  0  0  0  0  0  0  0  0  0  0
  -21.9990  -12.7440   22.1310 N   0  0  0  0  0  0  0  0  0  0  0  0
  -22.2690  -14.4940   20.7760 O   0  0  0  0  0  0  0  0  0  0  0  0
  -22.3710  -11.9080   22.5590 H   0  0  0  0  0  0  0  0  0  0  0  0
  -21.0640  -13.0420   22.3700 H   0  0  0  0  0  0  0  0  0  0  0  0
  -25.3010  -15.1470   20.3790 N   0  0  0  0  0  0  0  0  0  0  0  0
  -24.4010  -15.6170   20.4000 H   0  0  0  0  0  0  0  0  0  0  0  0
  -25.7800  -15.3660   19.5170 H   0  0  0  0  0  0  0  0  0  0  0  0
  1  2  2  0
  3  7  1  0
  4  3  1  0
  5  1  1  0
  5  6  1  0
  5  4  1  0
  6  3  1  0
  7  8  1  0
  9  7  1  0
 10 11  1  0
 10  6  1  0
 12 14  1  0
 12 11  1  0
 13 24  2  0
 14 19  1  0
 15 23  1  0
 15 25  1  0
 16 22  1  0
 16 18  1  0
 17 23  1  0
 18 17  1  0
 19 18  2  0
 20 21  1  0
 20 14  2  0
 21 16  2  0
 22 15  1  0
 23 13  1  0
 25 27  2  0
 26 25  1  0
 28 26  1  0
 29 38  2  0
 29 34  1  0
 30 26  1  0
 30 34  1  0
 31 30  1  0
 32 33  1  0
 32 31  1  0
 33 29  1  0
 34 35  2  0
 35 36  1  0
 37 36  2  0
 38 37  1  0
 39 13  1  0
 39 44  1  0
 39 40  1  0
 40 43  1  1
 40 41  1  0
 42 40  1  0
 44 47  1  0
 45 49  1  0
 45 44  1  0
 46 45  2  0
 49 48  1  0
 51 49  1  0
 51 52  1  0
 51 50  1  0
 53 57  1  0
 53  1  1  0
 54 53  1  0
 55 54  1  0
 56 54  1  0
 57 58  1  0
 57 62  1  0
 58 60  1  0
 58 59  1  0
 61 58  1  0
 63 71  1  0
 64 69  1  0
 65 66  1  0
 65 64  1  0
 67 66  1  0
 67 76  1  0
 67 68  1  0
 69 63  1  0
 69 68  1  0
 70 63  2  0
 71 62  1  0
 71 72  1  0
 73 74  2  0
 74 93  1  0
 75 74  1  0
 75 78  1  0
 76 77  1  0
 76 73  1  0
 77 75  2  0
 78 79  1  0
 79 80  2  0
 81 84  1  0
 81 80  1  0
 82 81  2  0
 83 82  1  0
 83 78  2  0
 84 85  1  0
 85 86  1  0
 86 87  2  0
 88 87  1  0
 88 92  1  0
 89 88  2  0
 90 85  2  0
 90 89  1  0
 91 90  1  0
 93 94  1  0
 94 97  1  0
 94 96  1  0
 95 93  2  0
 98 99  1  0
 98 73  1  0
100 98  1  0
M  ISO  4  11 101  12 101  63 100  71 100
M  END
>  <TORSDO>  (7) 
F 24

>  <SCORE>  (7) 
-12.324

>  <name>  (7) 
6

>  <ligand_id>  (7) 
6

>  <original_smiles>  (7) 
[H]c1c([H])c([H])c2c(c1[H])C([H])([H])C([H])([H])C([H])([H])C2([H])N([H])C(=O)C1([H])N(C(=O)C([H])(N([H])C(=O)C([H])(N([H])C([H])([H])[H])C([H])([H])[H])C(C([H])([H])[H])(C([H])([H])[H])C([H])([H])[H])C([H])([H])c2c([H])c(OC([H])([H])C([H])([H])N3C(=[N+]([H])[H])C([H])([H])C3([H])C(=O)C([H])(N([H])[H])C([H])(C([H])([H])N([H])C(=O)N3C([H])([H])C([H])([H])C([H])([H])C([H])(n4nc(-c5c([H])c([H])c(Oc6c([H])c([H])c(F)c([H])c6F)c([H])c5[H])c(C(=O)N([H])[H])c4N([H])[H])C3([H])[H])[N+]([H])([H])[H])c([H])c([H])c2C1([H])[H]

>  <smiles>  (7) 
[H]c1c([H])c([H])c2c(c1[H])C([H])([H])C([H])([H])C([H])([H])C2([H])N([H])C(=O)C1([H])N(C(=O)C([H])(N([H])C(=O)C([H])(N([H])C([H])([H])[H])C([H])([H])[H])C(C([H])([H])[H])(C([H])([H])[H])C([H])([H])[H])C([H])([H])c2c([H])c(OC([H])([H])C([H])([H])N3C(=[N+]([H])[H])C([H])([H])C3([H])C(=O)C([H])(N([H])[H])C([H])(C([H])([H])N([H])C(=O)N3C([H])([H])C([H])([H])C([H])([H])C([H])(n4nc(-c5c([H])c([H])c(Oc6c([H])c([H])c(F)c([H])c6F)c([H])c5[H])c(C(=O)N([H])[H])c4N([H])[H])C3([H])[H])[N+]([H])([H])[H])c([H])c([H])c2C1([H])[H]

$$$$
7:0:0
     RDKit          3D

100108  0  0  1  0  0  0  0  0999 V2000
  -28.6790  -21.8260   19.3890 C   0  0  0  0  0  2  0  0  0  0  0  0
  -29.1300  -22.6040   20.6090 C   0  0  0  0  0  3  0  0  0  0  0  0
  -29.9280  -21.3670   20.1260 C   0  0  2  0  0  0  0  0  0  0  0  0
  -31.1830  -21.7200   19.4170 N   0  0  0  0  0  4  0  0  0  0  0  0
  -31.0470  -22.5360   18.8460 H   0  0  0  0  0  0  0  0  0  0  0  0
  -31.4840  -20.9900   18.7970 H   0  0  0  0  0  0  0  0  0  0  0  0
  -31.9290  -21.9350   20.0540 H   0  0  0  0  0  0  0  0  0  0  0  0
  -30.2280  -24.4820   21.8890 C   0  0  0  0  0  1  0  0  0  0  0  0
  -29.5550  -24.0960   20.5620 C   0  0  0  0  0  3  0  0  0  0  0  0
  -28.3310  -25.0240   20.2730 C   0  0  0  0  0  2  0  0  0  0  0  0
  -28.5330  -26.4610   20.3620 O   0  0  0  0  0  0  0  0  0  0  0  0
  -24.6460  -31.7570   23.2040 C   0  0  0  0  0  0  0  0  0  0  0  0
  -27.3850  -27.2420   20.2750 C   0  0  0  0  0  0  0  0  0  0  0  0
  -23.4950  -30.3290   21.5510 C   0  0  0  0  0  3  0  0  0  0  0  0
  -24.9930  -28.7800   20.1880 C   0  0  0  0  0  0  0  0  0  0  0  0
  -26.0310  -30.6830   21.4250 C   0  0  0  0  0  2  0  0  0  0  0  0
  -26.1380  -29.3030   20.8010 C   0  0  0  0  0  0  0  0  0  0  0  0
  -27.3380  -28.5470   20.8330 C   0  0  0  0  0  3  0  0  0  0  0  0
  -26.2150  -26.7540   19.6440 C   0  0  0  0  0  3  0  0  0  0  0  0
  -25.0280  -27.5050   19.6030 C   0  0  0  0  0  3  0  0  0  0  0  0
  -23.7470  -29.6360   20.1880 C   0  0  0  0  0  2  0  0  0  0  0  0
  -24.7400  -30.9400   22.1170 N   0  0  0  0  0  0  0  0  0  0  0  0
  -23.5480  -32.0320   23.7070 O   0  0  0  0  0  0  0  0  0  0  0  0
  -22.8190  -29.3160   22.5070 C   0  0  0  0  0  0  0  0  0  0  0  0
  -21.4970  -29.1330   22.3500 N   0  0  0  0  0  0  0  0  0  0  0  0
  -23.4820  -28.7010   23.3450 O   0  0  0  0  0  0  0  0  0  0  0  0
  -21.0220  -29.6800   21.6450 H   0  0  0  0  0  0  0  0  0  0  0  0
  -18.1110  -27.9490   22.7870 C   0  0  0  0  0  0  0  0  0  0  0  0
  -20.6620  -28.2060   23.1140 C   0  0  0  0  0  3  0  0  0  0  0  0
  -20.7740  -26.7690   22.5580 C   0  0  0  0  0  2  0  0  0  0  0  0
  -19.6950  -26.4370   21.5210 C   0  0  0  0  0  2  0  0  0  0  0  0
  -18.3000  -26.5920   22.1320 C   0  0  0  0  0  2  0  0  0  0  0  0
  -19.2200  -28.7140   23.2340 C   0  0  0  0  0  0  0  0  0  0  0  0
  -18.9900  -29.9860   23.8030 C   0  0  0  0  0  3  0  0  0  0  0  0
  -17.6820  -30.4910   23.9340 C   0  0  0  0  0  3  0  0  0  0  0  0
  -16.5870  -29.7240   23.5040 C   0  0  0  0  0  3  0  0  0  0  0  0
  -16.8010  -28.4540   22.9370 C   0  0  0  0  0  3  0  0  0  0  0  0
  -25.9100  -32.4060   23.8500 C   0  0  0  0  0  3  0  0  0  0  0  0
  -26.4120  -31.6400   25.1360 C   0  0  1  0  0  0  0  0  0  0  0  0
  -25.3010  -31.3840   26.1810 C   0  0  0  0  0  1  0  0  0  0  0  0
  -27.0250  -30.2740   24.7540 C   0  0  0  0  0  1  0  0  0  0  0  0
  -27.5360  -32.4530   25.8230 C   0  0  0  0  0  1  0  0  0  0  0  0
  -25.5760  -33.7980   24.1740 N   0  0  0  0  0  0  0  0  0  0  0  0
  -25.9050  -34.8540   23.4190 C   0  0  0  0  0  0  0  0  0  0  0  0
  -26.5930  -34.7610   22.3990 O   0  0  0  0  0  0  0  0  0  0  0  0
  -24.9660  -33.9460   24.9660 H   0  0  0  0  0  0  0  0  0  0  0  0
  -24.1520  -36.6150   23.0370 C   0  0  0  0  0  1  0  0  0  0  0  0
  -25.3890  -36.2350   23.8680 C   0  0  0  0  0  3  0  0  0  0  0  0
  -27.4930  -37.1540   24.7330 C   0  0  0  0  0  1  0  0  0  0  0  0
  -26.4040  -37.3050   23.7690 N   0  0  0  0  0  0  0  0  0  0  0  0
  -25.9820  -38.2190   23.9100 H   0  0  0  0  0  0  0  0  0  0  0  0
  -30.0050  -20.1140   21.0530 C   0  0  0  0  0  2  0  0  0  0  0  0
  -30.1650  -18.6320   20.4840 C   0  0  0  0  0  3  0  0  0  0  0  0
  -29.1780  -17.8310   21.2010 N   0  0  0  0  0  0  0  0  0  0  0  0
  -29.3810  -17.7650   22.1920 H   0  0  0  0  0  0  0  0  0  0  0  0
  -29.1950  -16.8760   20.8650 H   0  0  0  0  0  0  0  0  0  0  0  0
  -31.5770  -17.9050   20.5920 C   0  0  0  0  0  3  0  0  0  0  0  0
  -32.4610  -18.6750   21.4870 N   0  0  0  0  0  4  0  0  0  0  0  0
  -32.1350  -18.6230   22.4350 H   0  0  0  0  0  0  0  0  0  0  0  0
  -32.5060  -19.6410   21.2240 H   0  0  0  0  0  0  0  0  0  0  0  0
  -33.3930  -18.3020   21.4560 H   0  0  0  0  0  0  0  0  0  0  0  0
  -31.6560  -16.4130   21.1160 C   0  0  0  0  0  2  0  0  0  0  0  0
  -31.4770  -14.2450   19.8620 C   0  0  0  0  0  0  0  0  0  0  0  0
  -31.0590  -11.9680   18.9820 C   0  0  0  0  0  2  0  0  0  0  0  0
  -30.0550  -12.0190   17.8130 C   0  0  0  0  0  2  0  0  0  0  0  0
  -28.6030  -11.9830   18.3320 C   0  0  0  0  0  2  0  0  0  0  0  0
  -28.3510  -12.9930   19.4830 C   0  0  0  0  0  3  0  0  0  0  0  0
  -29.4570  -12.8930   20.5550 C   0  0  0  0  0  2  0  0  0  0  0  0
  -30.7510  -13.0930   19.8790 N   0  0  0  0  0  0  0  0  0  0  0  0
  -32.5690  -14.3400   19.3000 O   0  0  0  0  0  0  0  0  0  0  0  0
  -30.9110  -15.3110   20.4700 N   0  0  0  0  0  0  0  0  0  0  0  0
  -29.9780  -15.1410   20.8120 H   0  0  0  0  0  0  0  0  0  0  0  0
  -26.0900  -13.8030   20.4070 C   0  0  0  0  0  0  0  0  0  0  0  0
  -24.9800  -13.1250   20.8370 C   0  0  0  0  0  0  0  0  0  0  0  0
  -25.2970  -11.7370   20.7200 C   0  0  0  0  0  0  0  0  0  0  0  0
  -27.0180  -12.8320   20.0610 N   0  0  0  0  0  0  0  0  0  0  0  0
  -26.5490  -11.5820   20.3060 N   0  0  0  0  0  0  0  0  0  0  0  0
  -24.4610  -10.5460   20.9260 C   0  0  0  0  0  0  0  0  0  0  0  0
  -24.8240   -9.5370   21.8450 C   0  0  0  0  0  3  0  0  0  0  0  0
  -23.9940   -8.4120   22.0370 C   0  0  0  0  0  3  0  0  0  0  0  0
  -22.7860   -8.2890   21.3120 C   0  0  0  0  0  0  0  0  0  0  0  0
  -22.4380   -9.2880   20.3840 C   0  0  0  0  0  3  0  0  0  0  0  0
  -23.2680  -10.4040   20.1890 C   0  0  0  0  0  3  0  0  0  0  0  0
  -21.9300   -7.2190   21.4140 O   0  0  0  0  0  0  0  0  0  0  0  0
  -21.7890   -6.5200   22.5860 C   0  0  0  0  0  0  0  0  0  0  0  0
  -21.3700   -7.1440   23.7810 C   0  0  0  0  0  3  0  0  0  0  0  0
  -21.1720   -6.3760   24.9460 C   0  0  0  0  0  3  0  0  0  0  0  0
  -21.3830   -4.9850   24.9160 C   0  0  0  0  0  0  0  0  0  0  0  0
  -21.7960   -4.3600   23.7260 C   0  0  0  0  0  3  0  0  0  0  0  0
  -21.9950   -5.1260   22.5630 C   0  0  0  0  0  0  0  0  0  0  0  0
  -22.3720   -4.5160   21.4150 F   0  0  0  0  0  0  0  0  0  0  0  0
  -21.1860   -4.2440   26.0320 F   0  0  0  0  0  0  0  0  0  0  0  0
  -23.6660  -13.7300   21.2360 C   0  0  0  0  0  0  0  0  0  0  0  0
  -22.9460  -13.0860   22.1490 N   0  0  0  0  0  0  0  0  0  0  0  0
  -23.2880  -14.8070   20.7750 O   0  0  0  0  0  0  0  0  0  0  0  0
  -23.2630  -12.2140   22.5460 H   0  0  0  0  0  0  0  0  0  0  0  0
  -22.0650  -13.4720   22.4560 H   0  0  0  0  0  0  0  0  0  0  0  0
  -26.3790  -15.1560   20.2640 N   0  0  0  0  0  0  0  0  0  0  0  0
  -25.6890  -15.8750   20.4590 H   0  0  0  0  0  0  0  0  0  0  0  0
  -27.2380  -15.5260   19.8790 H   0  0  0  0  0  0  0  0  0  0  0  0
  1  3  1  0
  1  2  1  0
  2  9  1  0
  3  2  1  0
  3 52  1  1
  4  7  1  0
  4  3  1  0
  5  4  1  0
  6  4  1  0
  9  8  1  0
 10 11  1  0
 10  9  1  0
 12 23  2  0
 13 11  1  0
 13 18  1  0
 14 22  1  0
 14 24  1  0
 15 17  1  0
 16 22  1  0
 17 18  2  0
 17 16  1  0
 19 13  2  0
 20 19  1  0
 20 15  2  0
 21 15  1  0
 21 14  1  0
 22 12  1  0
 24 26  2  0
 25 24  1  0
 27 25  1  0
 28 37  2  0
 28 33  1  0
 29 25  1  0
 29 33  1  0
 30 29  1  0
 31 32  1  0
 31 30  1  0
 32 28  1  0
 33 34  2  0
 34 35  1  0
 36 35  2  0
 37 36  1  0
 38 12  1  0
 38 43  1  0
 38 39  1  0
 39 42  1  1
 39 40  1  0
 41 39  1  0
 43 46  1  0
 44 48  1  0
 44 43  1  0
 45 44  2  0
 48 47  1  0
 50 48  1  0
 50 51  1  0
 50 49  1  0
 53 57  1  0
 53 52  1  0
 53 54  1  0
 54 55  1  0
 56 54  1  0
 57 62  1  0
 57 58  1  0
 58 59  1  0
 60 58  1  0
 61 58  1  0
 63 69  1  0
 63 71  1  0
 64 69  1  0
 65 66  1  0
 65 64  1  0
 67 66  1  0
 67 76  1  0
 67 68  1  0
 69 68  1  0
 70 63  2  0
 71 72  1  0
 71 62  1  0
 73 74  2  0
 74 93  1  0
 75 74  1  0
 75 78  1  0
 76 77  1  0
 76 73  1  0
 77 75  2  0
 78 79  1  0
 79 80  2  0
 81 84  1  0
 81 80  1  0
 82 81  2  0
 83 82  1  0
 83 78  2  0
 84 85  1  0
 85 86  1  0
 86 87  2  0
 88 87  1  0
 88 92  1  0
 89 88  2  0
 90 85  2  0
 90 89  1  0
 91 90  1  0
 93 94  1  0
 94 97  1  0
 94 96  1  0
 95 93  2  0
 98 73  1  0
 98 99  1  0
100 98  1  0
M  ISO  4  10 101  11 101  63 100  71 100
M  END
>  <TORSDO>  (8) 
F 25

>  <SCORE>  (8) 
-12.185

>  <name>  (8) 
7

>  <ligand_id>  (8) 
7

>  <original_smiles>  (8) 
[H]c1c([H])c([H])c2c(c1[H])C([H])([H])C([H])([H])C([H])([H])C2([H])N([H])C(=O)C1([H])N(C(=O)C([H])(N([H])C(=O)C([H])(N([H])C([H])([H])[H])C([H])([H])[H])C(C([H])([H])[H])(C([H])([H])[H])C([H])([H])[H])C([H])([H])c2c([H])c(OC([H])([H])C([H])(C([H])([H])[H])C3([H])C([H])([H])C3(C([H])([H])C([H])(N([H])[H])C([H])(C([H])([H])N([H])C(=O)N3C([H])([H])C([H])([H])C([H])([H])C([H])(n4nc(-c5c([H])c([H])c(Oc6c([H])c([H])c(F)c([H])c6F)c([H])c5[H])c(C(=O)N([H])[H])c4N([H])[H])C3([H])[H])[N+]([H])([H])[H])[N+]([H])([H])[H])c([H])c([H])c2C1([H])[H]

>  <smiles>  (8) 
[H]c1c([H])c([H])c2c(c1[H])C([H])([H])C([H])([H])C([H])([H])C2([H])N([H])C(=O)C1([H])N(C(=O)C([H])(N([H])C(=O)C([H])(N([H])C([H])([H])[H])C([H])([H])[H])C(C([H])([H])[H])(C([H])([H])[H])C([H])([H])[H])C([H])([H])c2c([H])c(OC([H])([H])C([H])(C([H])([H])[H])C3([H])C([H])([H])C3(C([H])([H])C([H])(N([H])[H])C([H])(C([H])([H])N([H])C(=O)N3C([H])([H])C([H])([H])C([H])([H])C([H])(n4nc(-c5c([H])c([H])c(Oc6c([H])c([H])c(F)c([H])c6F)c([H])c5[H])c(C(=O)N([H])[H])c4N([H])[H])C3([H])[H])[N+]([H])([H])[H])[N+]([H])([H])[H])c([H])c([H])c2C1([H])[H]

$$$$
8:0:0
     RDKit          3D

 89 97  0  0  1  0  0  0  0  0999 V2000
  -28.3610  -21.7670   19.6880 C   0  0  0  0  0  0  0  0  0  0  0  0
  -29.5650  -21.9660   21.3150 C   0  0  0  0  0  2  0  0  0  0  0  0
  -28.9980  -23.1160   20.3440 C   0  0  0  0  0  3  0  0  0  0  0  0
  -29.1120  -20.8000   20.4300 N   0  0  0  0  0  0  0  0  0  0  0  0
  -27.5130  -21.5650   18.8450 O   0  0  0  0  0  0  0  0  0  0  0  0
  -26.6560  -24.1680   20.9520 C   0  0  0  0  0  1  0  0  0  0  0  0
  -28.6210  -24.9100   22.2280 C   0  0  0  0  0  1  0  0  0  0  0  0
  -28.1390  -24.5670   20.8040 C   0  0  1  0  0  0  0  0  0  0  0  0
  -28.2500  -26.0530   20.2070 O   0  0  0  0  0  0  0  0  0  0  0  0
  -24.6210  -31.8580   23.2030 C   0  0  0  0  0  0  0  0  0  0  0  0
  -27.2100  -27.0850   20.2080 C   0  0  0  0  0  0  0  0  0  0  0  0
  -23.4300  -30.4570   21.5640 C   0  0  0  0  0  3  0  0  0  0  0  0
  -24.8900  -28.8780   20.1450 C   0  0  0  0  0  0  0  0  0  0  0  0
  -25.9880  -30.7120   21.4100 C   0  0  0  0  0  2  0  0  0  0  0  0
  -26.0670  -29.3090   20.7690 C   0  0  0  0  0  0  0  0  0  0  0  0
  -27.2280  -28.4310   20.7830 C   0  0  0  0  0  3  0  0  0  0  0  0
  -26.0180  -26.7980   19.5050 C   0  0  0  0  0  3  0  0  0  0  0  0
  -24.8830  -27.6360   19.4940 C   0  0  0  0  0  3  0  0  0  0  0  0
  -23.6620  -29.7780   20.1880 C   0  0  0  0  0  2  0  0  0  0  0  0
  -24.7000  -31.0320   22.1140 N   0  0  0  0  0  0  0  0  0  0  0  0
  -23.5310  -32.1400   23.7260 O   0  0  0  0  0  0  0  0  0  0  0  0
  -22.7480  -29.4500   22.5240 C   0  0  0  0  0  0  0  0  0  0  0  0
  -21.4170  -29.2880   22.4060 N   0  0  0  0  0  0  0  0  0  0  0  0
  -23.4190  -28.8140   23.3410 O   0  0  0  0  0  0  0  0  0  0  0  0
  -20.9290  -29.8520   21.7240 H   0  0  0  0  0  0  0  0  0  0  0  0
  -18.0310  -28.1060   22.9350 C   0  0  0  0  0  0  0  0  0  0  0  0
  -20.5940  -28.3520   23.1780 C   0  0  0  0  0  3  0  0  0  0  0  0
  -20.6790  -26.9210   22.5960 C   0  0  0  0  0  2  0  0  0  0  0  0
  -19.5660  -26.6120   21.5890 C   0  0  0  0  0  2  0  0  0  0  0  0
  -18.1920  -26.7610   22.2470 C   0  0  0  0  0  2  0  0  0  0  0  0
  -19.1580  -28.8600   23.3580 C   0  0  0  0  0  0  0  0  0  0  0  0
  -18.9500  -30.1180   23.9640 C   0  0  0  0  0  3  0  0  0  0  0  0
  -17.6500  -30.6240   24.1470 C   0  0  0  0  0  3  0  0  0  0  0  0
  -16.5380  -29.8670   23.7380 C   0  0  0  0  0  3  0  0  0  0  0  0
  -16.7280  -28.6090   23.1400 C   0  0  0  0  0  3  0  0  0  0  0  0
  -25.8930  -32.5000   23.8320 C   0  0  0  0  0  3  0  0  0  0  0  0
  -26.4030  -31.7350   25.1170 C   0  0  1  0  0  0  0  0  0  0  0  0
  -25.3060  -31.5040   26.1820 C   0  0  0  0  0  1  0  0  0  0  0  0
  -26.9890  -30.3550   24.7390 C   0  0  0  0  0  1  0  0  0  0  0  0
  -27.5480  -32.5320   25.7840 C   0  0  0  0  0  1  0  0  0  0  0  0
  -25.5740  -33.8980   24.1660 N   0  0  0  0  0  0  0  0  0  0  0  0
  -25.9000  -34.9570   23.4130 C   0  0  0  0  0  0  0  0  0  0  0  0
  -26.5670  -34.8600   22.3800 O   0  0  0  0  0  0  0  0  0  0  0  0
  -24.9860  -34.0470   24.9730 H   0  0  0  0  0  0  0  0  0  0  0  0
  -24.1670  -36.7470   23.0700 C   0  0  0  0  0  1  0  0  0  0  0  0
  -25.4110  -36.3430   23.8780 C   0  0  0  0  0  3  0  0  0  0  0  0
  -27.5450  -37.2280   24.7100 C   0  0  0  0  0  1  0  0  0  0  0  0
  -26.4410  -37.4000   23.7690 N   0  0  0  0  0  0  0  0  0  0  0  0
  -26.0340  -38.3190   23.9250 H   0  0  0  0  0  0  0  0  0  0  0  0
  -28.9590  -19.1930   20.5990 C   0  0  0  0  0  3  0  0  0  0  0  0
  -30.0520  -17.8850   20.3410 C   0  0  0  0  0  3  0  0  0  0  0  0
  -30.4690  -15.0860   20.2810 C   0  0  0  0  0  0  0  0  0  0  0  0
  -30.3590  -12.7170   19.3290 C   0  0  0  0  0  2  0  0  0  0  0  0
  -29.4230  -12.6380   18.0990 C   0  0  0  0  0  2  0  0  0  0  0  0
  -27.9650  -12.4100   18.5370 C   0  0  0  0  0  2  0  0  0  0  0  0
  -27.5510  -13.3310   19.7130 C   0  0  0  0  0  3  0  0  0  0  0  0
  -28.6120  -13.3700   20.8350 C   0  0  0  0  0  2  0  0  0  0  0  0
  -29.8700  -13.8170   20.2200 N   0  0  0  0  0  0  0  0  0  0  0  0
  -31.6710  -15.1230   19.9930 O   0  0  0  0  0  0  0  0  0  0  0  0
  -29.7180  -16.3070   20.4610 N   0  0  0  0  0  0  0  0  0  0  0  0
  -28.7440  -16.1260   20.6590 H   0  0  0  0  0  0  0  0  0  0  0  0
  -25.1720  -13.8920   20.4590 C   0  0  0  0  0  0  0  0  0  0  0  0
  -24.1130  -13.1140   20.8300 C   0  0  0  0  0  0  0  0  0  0  0  0
  -24.5820  -11.7650   20.8030 C   0  0  0  0  0  0  0  0  0  0  0  0
  -26.2180  -13.0190   20.2160 N   0  0  0  0  0  0  0  0  0  0  0  0
  -25.8730  -11.7330   20.4900 N   0  0  0  0  0  0  0  0  0  0  0  0
  -23.8580  -10.5000   20.9970 C   0  0  0  0  0  0  0  0  0  0  0  0
  -24.2840   -9.5410   21.9430 C   0  0  0  0  0  3  0  0  0  0  0  0
  -23.5590   -8.3440   22.1250 C   0  0  0  0  0  3  0  0  0  0  0  0
  -22.3930   -8.0960   21.3600 C   0  0  0  0  0  0  0  0  0  0  0  0
  -21.9870   -9.0440   20.4040 C   0  0  0  0  0  3  0  0  0  0  0  0
  -22.7130  -10.2340   20.2220 C   0  0  0  0  0  3  0  0  0  0  0  0
  -21.6410   -6.9500   21.4500 O   0  0  0  0  0  0  0  0  0  0  0  0
  -21.5780   -6.2210   22.6100 C   0  0  0  0  0  0  0  0  0  0  0  0
  -21.1230   -6.7870   23.8210 C   0  0  0  0  0  3  0  0  0  0  0  0
  -21.0050   -5.9840   24.9730 C   0  0  0  0  0  3  0  0  0  0  0  0
  -21.3330   -4.6160   24.9160 C   0  0  0  0  0  0  0  0  0  0  0  0
  -21.7800   -4.0500   23.7090 C   0  0  0  0  0  3  0  0  0  0  0  0
  -21.8990   -4.8500   22.5590 C   0  0  0  0  0  0  0  0  0  0  0  0
  -22.3100   -4.2940   21.3940 F   0  0  0  0  0  0  0  0  0  0  0  0
  -21.2110   -3.8430   26.0200 F   0  0  0  0  0  0  0  0  0  0  0  0
  -22.7130  -13.5880   21.0990 C   0  0  0  0  0  0  0  0  0  0  0  0
  -21.9850  -12.8950   21.9670 N   0  0  0  0  0  0  0  0  0  0  0  0
  -22.2760  -14.6110   20.5750 O   0  0  0  0  0  0  0  0  0  0  0  0
  -22.3480  -12.0650   22.4120 H   0  0  0  0  0  0  0  0  0  0  0  0
  -21.0510  -13.2030   22.1910 H   0  0  0  0  0  0  0  0  0  0  0  0
  -25.3280  -15.2650   20.2790 N   0  0  0  0  0  0  0  0  0  0  0  0
  -24.5520  -15.9100   20.3880 H   0  0  0  0  0  0  0  0  0  0  0  0
  -26.1550  -15.7060   19.9000 H   0  0  0  0  0  0  0  0  0  0  0  0
  1  3  1  0
  1  4  1  0
  3  8  1  0
  3  2  1  0
  4 50  1  0
  4  2  1  0
  5  1  2  0
  8  6  1  1
  8  7  1  0
  9 11  1  0
  9  8  1  0
 10 21  2  0
 11 16  1  0
 12 20  1  0
 12 22  1  0
 13 19  1  0
 13 15  1  0
 14 20  1  0
 15 16  2  0
 15 14  1  0
 17 11  2  0
 18 17  1  0
 18 13  2  0
 19 12  1  0
 20 10  1  0
 22 24  2  0
 23 22  1  0
 25 23  1  0
 26 35  2  0
 26 31  1  0
 27 23  1  0
 27 31  1  0
 28 27  1  0
 29 30  1  0
 29 28  1  0
 30 26  1  0
 31 32  2  0
 32 33  1  0
 34 33  2  0
 35 34  1  0
 36 10  1  0
 36 41  1  0
 36 37  1  0
 37 40  1  1
 37 38  1  0
 39 37  1  0
 41 44  1  0
 42 46  1  0
 42 41  1  0
 43 42  2  0
 46 45  1  0
 48 46  1  0
 48 49  1  0
 48 47  1  0
 51 60  1  0
 51 50  2  0
 52 60  1  0
 53 58  1  0
 54 55  1  0
 54 53  1  0
 56 55  1  0
 56 65  1  0
 56 57  1  0
 58 52  1  0
 58 57  1  0
 59 52  2  0
 60 61  1  0
 62 63  2  0
 63 82  1  0
 64 63  1  0
 64 67  1  0
 65 62  1  0
 65 66  1  0
 66 64  2  0
 67 68  1  0
 68 69  2  0
 70 73  1  0
 70 69  1  0
 71 70  2  0
 72 71  1  0
 72 67  2  0
 73 74  1  0
 74 75  1  0
 75 76  2  0
 77 76  1  0
 77 81  1  0
 78 77  2  0
 79 74  2  0
 79 78  1  0
 80 79  1  0
 82 83  1  0
 83 86  1  0
 83 85  1  0
 84 82  2  0
 87 88  1  0
 87 62  1  0
 89 87  1  0
M  ISO  4   8 101   9 101  52 100  60 100
M  END
>  <TORSDO>  (9) 
F 19

>  <SCORE>  (9) 
-15.461

>  <name>  (9) 
8

>  <ligand_id>  (9) 
8

>  <original_smiles>  (9) 
[H]c1c([H])c([H])c2c(c1[H])C([H])([H])C([H])([H])C([H])([H])C2([H])N([H])C(=O)C1([H])N(C(=O)C([H])(N([H])C(=O)C([H])(N([H])C([H])([H])[H])C([H])([H])[H])C(C([H])([H])[H])(C([H])([H])[H])C([H])([H])[H])C([H])([H])c2c([H])c(OC(C([H])([H])[H])(C([H])([H])[H])C3([H])C(=O)N(C([H])([H])C([H])([H])N([H])C(=O)N4C([H])([H])C([H])([H])C([H])([H])C([H])(n5nc(-c6c([H])c([H])c(Oc7c([H])c([H])c(F)c([H])c7F)c([H])c6[H])c(C(=O)N([H])[H])c5N([H])[H])C4([H])[H])C3([H])[H])c([H])c([H])c2C1([H])[H]

>  <smiles>  (9) 
[H]c1c([H])c([H])c2c(c1[H])C([H])([H])C([H])([H])C([H])([H])C2([H])N([H])C(=O)C1([H])N(C(=O)C([H])(N([H])C(=O)C([H])(N([H])C([H])([H])[H])C([H])([H])[H])C(C([H])([H])[H])(C([H])([H])[H])C([H])([H])[H])C([H])([H])c2c([H])c(OC(C([H])([H])[H])(C([H])([H])[H])C3([H])C(=O)N(C([H])([H])C([H])([H])N([H])C(=O)N4C([H])([H])C([H])([H])C([H])([H])C([H])(n5nc(-c6c([H])c([H])c(Oc7c([H])c([H])c(F)c([H])c7F)c([H])c6[H])c(C(=O)N([H])[H])c5N([H])[H])C4([H])[H])C3([H])[H])c([H])c([H])c2C1([H])[H]

$$$$
9:0:0
     RDKit          3D

 94103  0  0  1  0  0  0  0  0999 V2000
  -28.3720  -21.8370   18.9250 C   0  0  0  0  0  3  0  0  0  0  0  0
  -29.3400  -22.2860   20.9380 C   0  0  0  0  0  3  0  0  0  0  0  0
  -28.7380  -20.4000   19.0140 C   0  0  0  0  0  3  0  0  0  0  0  0
  -29.7150  -20.8430   21.0320 C   0  0  0  0  0  3  0  0  0  0  0  0
  -28.6370  -22.9490   19.8500 C   0  0  0  0  0  0  0  0  0  0  0  0
  -29.4650  -19.7430   20.0840 C   0  0  0  0  0  0  0  0  0  0  0  0
  -30.4500  -15.2400   19.8660 C   0  0  0  0  0  0  0  0  0  0  0  0
  -30.3090  -12.8310   18.9390 C   0  0  0  0  0  2  0  0  0  0  0  0
  -29.3000  -12.6620   17.7770 C   0  0  0  0  0  2  0  0  0  0  0  0
  -27.8880  -12.3910   18.3250 C   0  0  0  0  0  2  0  0  0  0  0  0
  -27.5280  -13.3420   19.4940 C   0  0  0  0  0  3  0  0  0  0  0  0
  -28.6550  -13.4680   20.5390 C   0  0  0  0  0  2  0  0  0  0  0  0
  -29.8420  -13.9590   19.8200 N   0  0  0  0  0  0  0  0  0  0  0  0
  -31.6410  -15.2400   19.5260 O   0  0  0  0  0  0  0  0  0  0  0  0
  -29.6700  -16.7700   21.6120 C   0  0  0  0  0  2  0  0  0  0  0  0
  -30.2060  -18.1510   20.1110 C   0  0  0  0  0  3  0  0  0  0  0  0
  -30.7870  -17.8290   21.4900 C   0  0  0  0  0  3  0  0  0  0  0  0
  -29.7840  -16.5330   20.1690 N   0  0  0  0  0  0  0  0  0  0  0  0
  -25.2390  -13.8980   20.4690 C   0  0  0  0  0  0  0  0  0  0  0  0
  -24.1990  -13.1180   20.8930 C   0  0  0  0  0  0  0  0  0  0  0  0
  -24.6450  -11.7650   20.7730 C   0  0  0  0  0  0  0  0  0  0  0  0
  -26.2430  -13.0210   20.1030 N   0  0  0  0  0  0  0  0  0  0  0  0
  -25.9060  -11.7310   20.3560 N   0  0  0  0  0  0  0  0  0  0  0  0
  -23.9210  -10.5020   20.9710 C   0  0  0  0  0  0  0  0  0  0  0  0
  -24.3820   -9.5190   21.8740 C   0  0  0  0  0  3  0  0  0  0  0  0
  -23.6570   -8.3230   22.0640 C   0  0  0  0  0  3  0  0  0  0  0  0
  -22.4540   -8.1030   21.3510 C   0  0  0  0  0  0  0  0  0  0  0  0
  -22.0110   -9.0740   20.4370 C   0  0  0  0  0  3  0  0  0  0  0  0
  -22.7360  -10.2610   20.2460 C   0  0  0  0  0  3  0  0  0  0  0  0
  -21.6970   -6.9610   21.4530 O   0  0  0  0  0  0  0  0  0  0  0  0
  -21.6490   -6.2270   22.6100 C   0  0  0  0  0  0  0  0  0  0  0  0
  -21.2110   -6.7860   23.8310 C   0  0  0  0  0  3  0  0  0  0  0  0
  -21.1140   -5.9770   24.9810 C   0  0  0  0  0  3  0  0  0  0  0  0
  -21.4450   -4.6110   24.9100 C   0  0  0  0  0  0  0  0  0  0  0  0
  -21.8770   -4.0510   23.6950 C   0  0  0  0  0  3  0  0  0  0  0  0
  -21.9760   -4.8580   22.5480 C   0  0  0  0  0  0  0  0  0  0  0  0
  -22.3710   -4.3090   21.3740 F   0  0  0  0  0  0  0  0  0  0  0  0
  -21.3460   -3.8320   26.0130 F   0  0  0  0  0  0  0  0  0  0  0  0
  -22.8350  -13.5980   21.2900 C   0  0  0  0  0  0  0  0  0  0  0  0
  -22.1670  -12.8790   22.1850 N   0  0  0  0  0  0  0  0  0  0  0  0
  -22.3700  -14.6440   20.8390 O   0  0  0  0  0  0  0  0  0  0  0  0
  -22.5580  -12.0320   22.5700 H   0  0  0  0  0  0  0  0  0  0  0  0
  -21.2500  -13.1790   22.4860 H   0  0  0  0  0  0  0  0  0  0  0  0
  -25.4130  -15.2720   20.3320 N   0  0  0  0  0  0  0  0  0  0  0  0
  -24.6810  -15.9430   20.5390 H   0  0  0  0  0  0  0  0  0  0  0  0
  -26.2560  -15.7010   19.9720 H   0  0  0  0  0  0  0  0  0  0  0  0
  -32.1810  -17.3110   21.4540 N   0  0  0  0  0  4  0  0  0  0  0  0
  -32.2850  -16.6000   20.7420 H   0  0  0  0  0  0  0  0  0  0  0  0
  -32.4510  -16.9240   22.3390 H   0  0  0  0  0  0  0  0  0  0  0  0
  -32.8220  -18.0550   21.2400 H   0  0  0  0  0  0  0  0  0  0  0  0
  -28.1970  -24.5680   19.4790 C   0  0  0  0  0  0  0  0  0  0  0  0
  -27.9120  -24.7250   18.2560 N   0  0  0  0  0  0  0  0  0  0  0  0
  -27.9890  -23.8510   17.7520 H   0  0  0  0  0  0  0  0  0  0  0  0
  -28.1440  -25.8560   20.2840 O   0  0  0  0  0  0  0  0  0  0  0  0
  -24.6360  -31.8340   23.2450 C   0  0  0  0  0  0  0  0  0  0  0  0
  -27.1700  -26.9870   20.1650 C   0  0  0  0  0  0  0  0  0  0  0  0
  -23.4310  -30.4570   21.6020 C   0  0  0  0  0  3  0  0  0  0  0  0
  -24.8690  -28.8700   20.1600 C   0  0  0  0  0  0  0  0  0  0  0  0
  -25.9980  -30.6690   21.4420 C   0  0  0  0  0  2  0  0  0  0  0  0
  -26.0650  -29.2640   20.7750 C   0  0  0  0  0  0  0  0  0  0  0  0
  -27.2050  -28.3420   20.7610 C   0  0  0  0  0  3  0  0  0  0  0  0
  -25.9300  -26.7470   19.5190 C   0  0  0  0  0  3  0  0  0  0  0  0
  -24.8270  -27.6290   19.5140 C   0  0  0  0  0  3  0  0  0  0  0  0
  -23.6510  -29.7860   20.2200 C   0  0  0  0  0  2  0  0  0  0  0  0
  -24.7110  -31.0110   22.1510 N   0  0  0  0  0  0  0  0  0  0  0  0
  -23.5490  -32.1220   23.7720 O   0  0  0  0  0  0  0  0  0  0  0  0
  -22.7390  -29.4530   22.5600 C   0  0  0  0  0  0  0  0  0  0  0  0
  -21.4080  -29.2910   22.4340 N   0  0  0  0  0  0  0  0  0  0  0  0
  -23.4040  -28.8210   23.3850 O   0  0  0  0  0  0  0  0  0  0  0  0
  -20.9270  -29.8520   21.7460 H   0  0  0  0  0  0  0  0  0  0  0  0
  -18.0230  -28.0770   22.9240 C   0  0  0  0  0  0  0  0  0  0  0  0
  -20.5820  -28.3500   23.1970 C   0  0  0  0  0  3  0  0  0  0  0  0
  -20.6890  -26.9190   22.6210 C   0  0  0  0  0  2  0  0  0  0  0  0
  -19.5910  -26.5950   21.6020 C   0  0  0  0  0  2  0  0  0  0  0  0
  -18.2070  -26.7310   22.2420 C   0  0  0  0  0  2  0  0  0  0  0  0
  -19.1370  -28.8450   23.3570 C   0  0  0  0  0  0  0  0  0  0  0  0
  -18.9080  -30.1010   23.9590 C   0  0  0  0  0  3  0  0  0  0  0  0
  -17.6000  -30.5920   24.1270 C   0  0  0  0  0  3  0  0  0  0  0  0
  -16.5000  -29.8240   23.7060 C   0  0  0  0  0  3  0  0  0  0  0  0
  -16.7130  -28.5680   23.1120 C   0  0  0  0  0  3  0  0  0  0  0  0
  -25.9110  -32.4670   23.8790 C   0  0  0  0  0  3  0  0  0  0  0  0
  -26.4030  -31.6990   25.1670 C   0  0  1  0  0  0  0  0  0  0  0  0
  -25.2960  -31.4770   26.2250 C   0  0  0  0  0  1  0  0  0  0  0  0
  -26.9750  -30.3130   24.7930 C   0  0  0  0  0  1  0  0  0  0  0  0
  -27.5570  -32.4840   25.8350 C   0  0  0  0  0  1  0  0  0  0  0  0
  -25.6030  -33.8700   24.2100 N   0  0  0  0  0  0  0  0  0  0  0  0
  -25.9240  -34.9250   23.4480 C   0  0  0  0  0  0  0  0  0  0  0  0
  -26.5730  -34.8190   22.4040 O   0  0  0  0  0  0  0  0  0  0  0  0
  -25.0230  -34.0230   25.0220 H   0  0  0  0  0  0  0  0  0  0  0  0
  -24.1880  -36.7240   23.1430 C   0  0  0  0  0  1  0  0  0  0  0  0
  -25.4540  -36.3180   23.9160 C   0  0  0  0  0  3  0  0  0  0  0  0
  -27.6110  -37.2070   24.6830 C   0  0  0  0  0  1  0  0  0  0  0  0
  -26.4850  -37.3700   23.7680 N   0  0  0  0  0  0  0  0  0  0  0  0
  -26.0830  -38.2910   23.9180 H   0  0  0  0  0  0  0  0  0  0  0  0
  1  3  2  0
  1  5  1  0
  2  4  1  0
  3  6  1  0
  5  2  2  0
  6  4  2  0
  7 18  1  0
  8 13  1  0
  9 10  1  0
  9  8  1  0
 11 10  1  0
 11 22  1  0
 11 12  1  0
 13  7  1  0
 13 12  1  0
 14  7  2  0
 16  6  1  0
 16 18  1  0
 16 17  1  0
 17 47  1  0
 17 15  1  0
 18 15  1  0
 19 20  2  0
 20 39  1  0
 21 20  1  0
 21 24  1  0
 22 23  1  0
 22 19  1  0
 23 21  2  0
 24 25  1  0
 25 26  2  0
 27 30  1  0
 27 26  1  0
 28 27  2  0
 29 28  1  0
 29 24  2  0
 30 31  1  0
 31 32  1  0
 32 33  2  0
 34 33  1  0
 34 38  1  0
 35 34  2  0
 36 31  2  0
 36 35  1  0
 37 36  1  0
 39 40  1  0
 40 43  1  0
 40 42  1  0
 41 39  2  0
 44 19  1  0
 44 45  1  0
 46 44  1  0
 47 49  1  0
 48 47  1  0
 50 47  1  0
 51  5  1  0
 51 54  1  0
 52 51  2  0
 53 52  1  0
 55 66  2  0
 56 54  1  0
 56 61  1  0
 57 65  1  0
 57 67  1  0
 58 64  1  0
 58 60  1  0
 59 65  1  0
 60 59  1  0
 61 60  2  0
 62 56  2  0
 63 62  1  0
 63 58  2  0
 64 57  1  0
 65 55  1  0
 67 69  2  0
 68 67  1  0
 70 68  1  0
 71 80  2  0
 71 76  1  0
 72 68  1  0
 72 76  1  0
 73 72  1  0
 74 75  1  0
 74 73  1  0
 75 71  1  0
 76 77  2  0
 77 78  1  0
 79 78  2  0
 80 79  1  0
 81 55  1  0
 81 86  1  0
 81 82  1  0
 82 85  1  1
 82 83  1  0
 84 82  1  0
 86 89  1  0
 87 91  1  0
 87 86  1  0
 88 87  2  0
 91 90  1  0
 93 91  1  0
 93 94  1  0
 93 92  1  0
M  ISO  4   7 100  18 100  51 101  54 101
M  END
>  <TORSDO>  (10) 
F 18

>  <SCORE>  (10) 
-15.243

>  <name>  (10) 
9

>  <ligand_id>  (10) 
9

>  <original_smiles>  (10) 
[H]N=C(Oc1c([H])c([H])c2c(c1[H])C([H])([H])N(C(=O)C([H])(N([H])C(=O)C([H])(N([H])C([H])([H])[H])C([H])([H])[H])C(C([H])([H])[H])(C([H])([H])[H])C([H])([H])[H])C([H])(C(=O)N([H])C1([H])c3c([H])c([H])c([H])c([H])c3C([H])([H])C([H])([H])C1([H])[H])C2([H])[H])c1c([H])c([H])c(C2([H])N(C(=O)N3C([H])([H])C([H])([H])C([H])([H])C([H])(n4nc(-c5c([H])c([H])c(Oc6c([H])c([H])c(F)c([H])c6F)c([H])c5[H])c(C(=O)N([H])[H])c4N([H])[H])C3([H])[H])C([H])([H])C2([H])[N+]([H])([H])[H])c([H])c1[H]

>  <smiles>  (10) 
[H]N=C(Oc1c([H])c([H])c2c(c1[H])C([H])([H])N(C(=O)C([H])(N([H])C(=O)C([H])(N([H])C([H])([H])[H])C([H])([H])[H])C(C([H])([H])[H])(C([H])([H])[H])C([H])([H])[H])C([H])(C(=O)N([H])C1([H])c3c([H])c([H])c([H])c([H])c3C([H])([H])C([H])([H])C1([H])[H])C2([H])[H])c1c([H])c([H])c(C2([H])N(C(=O)N3C([H])([H])C([H])([H])C([H])([H])C([H])(n4nc(-c5c([H])c([H])c(Oc6c([H])c([H])c(F)c([H])c6F)c([H])c5[H])c(C(=O)N([H])[H])c4N([H])[H])C3([H])[H])C([H])([H])C2([H])[N+]([H])([H])[H])c([H])c1[H]

$$$$
10:0:0
     RDKit          3D

 94102  0  0  1  0  0  0  0  0999 V2000
  -29.8240  -24.2390   21.5360 C   0  0  0  0  0  3  0  0  0  0  0  0
  -29.3010  -24.2840   20.2710 C   0  0  0  0  0  0  0  0  0  0  0  0
  -30.1180  -22.2480   20.6450 C   0  0  0  0  0  0  0  0  0  0  0  0
  -30.3420  -22.9580   21.7580 N   0  0  0  0  0  0  0  0  0  0  0  0
  -29.4660  -23.0150   19.7090 O   0  0  0  0  0  0  0  0  0  0  0  0
  -28.5950  -25.3600   19.4440 C   0  0  0  0  0  2  0  0  0  0  0  0
  -28.4960  -26.6610   20.1200 O   0  0  0  0  0  0  0  0  0  0  0  0
  -24.5540  -31.8310   23.1720 C   0  0  0  0  0  0  0  0  0  0  0  0
  -27.3280  -27.4310   20.0440 C   0  0  0  0  0  0  0  0  0  0  0  0
  -23.4020  -30.4290   21.4960 C   0  0  0  0  0  3  0  0  0  0  0  0
  -24.9080  -28.9570   20.0520 C   0  0  0  0  0  0  0  0  0  0  0  0
  -25.9310  -30.8260   21.3430 C   0  0  0  0  0  2  0  0  0  0  0  0
  -26.0540  -29.4660   20.6730 C   0  0  0  0  0  0  0  0  0  0  0  0
  -27.2600  -28.7110   20.6710 C   0  0  0  0  0  3  0  0  0  0  0  0
  -26.1540  -26.9780   19.3910 C   0  0  0  0  0  3  0  0  0  0  0  0
  -24.9590  -27.7140   19.4080 C   0  0  0  0  0  3  0  0  0  0  0  0
  -23.6460  -29.7890   20.1050 C   0  0  0  0  0  2  0  0  0  0  0  0
  -24.6460  -31.0430   22.0620 N   0  0  0  0  0  0  0  0  0  0  0  0
  -23.4580  -32.0720   23.6990 O   0  0  0  0  0  0  0  0  0  0  0  0
  -22.7640  -29.3730   22.4290 C   0  0  0  0  0  0  0  0  0  0  0  0
  -21.4460  -29.1570   22.2810 N   0  0  0  0  0  0  0  0  0  0  0  0
  -23.4530  -28.7520   23.2420 O   0  0  0  0  0  0  0  0  0  0  0  0
  -20.9500  -29.7130   21.5990 H   0  0  0  0  0  0  0  0  0  0  0  0
  -18.1010  -27.8500   22.7110 C   0  0  0  0  0  0  0  0  0  0  0  0
  -20.6450  -28.1850   23.0270 C   0  0  0  0  0  3  0  0  0  0  0  0
  -20.8000  -26.7650   22.4340 C   0  0  0  0  0  2  0  0  0  0  0  0
  -19.7260  -26.4210   21.3970 C   0  0  0  0  0  2  0  0  0  0  0  0
  -18.3300  -26.5160   22.0200 C   0  0  0  0  0  2  0  0  0  0  0  0
  -19.1880  -28.6420   23.1690 C   0  0  0  0  0  0  0  0  0  0  0  0
  -18.9220  -29.8900   23.7700 C   0  0  0  0  0  3  0  0  0  0  0  0
  -17.5980  -30.3480   23.9210 C   0  0  0  0  0  3  0  0  0  0  0  0
  -16.5250  -29.5550   23.4780 C   0  0  0  0  0  3  0  0  0  0  0  0
  -16.7780  -28.3090   22.8790 C   0  0  0  0  0  3  0  0  0  0  0  0
  -25.8160  -32.4840   23.8170 C   0  0  0  0  0  3  0  0  0  0  0  0
  -25.4740  -33.8720   24.1500 N   0  0  0  0  0  0  0  0  0  0  0  0
  -25.7950  -34.9360   23.4020 C   0  0  0  0  0  0  0  0  0  0  0  0
  -26.4830  -34.8520   22.3820 O   0  0  0  0  0  0  0  0  0  0  0  0
  -24.8650  -34.0100   24.9440 H   0  0  0  0  0  0  0  0  0  0  0  0
  -24.0340  -36.6910   23.0290 C   0  0  0  0  0  1  0  0  0  0  0  0
  -25.2700  -36.3110   23.8590 C   0  0  0  0  0  3  0  0  0  0  0  0
  -27.3720  -37.2350   24.7290 C   0  0  0  0  0  1  0  0  0  0  0  0
  -26.2820  -37.3860   23.7680 N   0  0  0  0  0  0  0  0  0  0  0  0
  -25.8550  -38.2970   23.9150 H   0  0  0  0  0  0  0  0  0  0  0  0
  -26.3270  -31.7140   25.0960 C   0  0  1  0  0  0  0  0  0  0  0  0
  -25.2210  -31.4460   26.1440 C   0  0  0  0  0  1  0  0  0  0  0  0
  -26.9450  -30.3520   24.7030 C   0  0  0  0  0  1  0  0  0  0  0  0
  -27.4500  -32.5270   25.7820 C   0  0  0  0  0  1  0  0  0  0  0  0
  -30.5420  -20.7910   20.3540 C   0  0  0  0  0  2  0  0  0  0  0  0
  -29.0570  -19.9990   22.2610 C   0  0  0  0  0  1  0  0  0  0  0  0
  -29.6650  -19.5850   20.8980 C   0  0  1  0  0  0  0  0  0  0  0  0
  -28.5350  -19.3110   19.9770 N   0  0  0  0  0  4  0  0  0  0  0  0
  -27.9410  -18.5940   20.3590 H   0  0  0  0  0  0  0  0  0  0  0  0
  -28.8470  -19.0040   19.0730 H   0  0  0  0  0  0  0  0  0  0  0  0
  -27.9650  -20.1280   19.8390 H   0  0  0  0  0  0  0  0  0  0  0  0
  -30.4410  -18.2190   21.1970 C   0  0  0  0  0  2  0  0  0  0  0  0
  -30.8240  -17.1950   20.0660 C   0  0  0  0  0  2  0  0  0  0  0  0
  -31.2930  -14.6720   20.0220 C   0  0  0  0  0  0  0  0  0  0  0  0
  -30.9150  -12.4710   18.9590 C   0  0  0  0  0  2  0  0  0  0  0  0
  -29.9540  -12.6600   17.7650 C   0  0  0  0  0  2  0  0  0  0  0  0
  -28.4850  -12.5870   18.2250 C   0  0  0  0  0  2  0  0  0  0  0  0
  -28.2010  -13.4650   19.4710 C   0  0  0  0  0  3  0  0  0  0  0  0
  -29.2730  -13.2510   20.5670 C   0  0  0  0  0  2  0  0  0  0  0  0
  -30.5920  -13.5020   19.9630 N   0  0  0  0  0  0  0  0  0  0  0  0
  -32.4250  -14.7870   19.5470 O   0  0  0  0  0  0  0  0  0  0  0  0
  -30.5910  -15.7630   20.4270 N   0  0  0  0  0  0  0  0  0  0  0  0
  -29.6840  -15.5460   20.8140 H   0  0  0  0  0  0  0  0  0  0  0  0
  -25.8460  -14.1820   20.2180 C   0  0  0  0  0  0  0  0  0  0  0  0
  -24.7530  -13.4620   20.6190 C   0  0  0  0  0  0  0  0  0  0  0  0
  -25.1540  -12.0910   20.5950 C   0  0  0  0  0  0  0  0  0  0  0  0
  -26.8470  -13.2540   19.9800 N   0  0  0  0  0  0  0  0  0  0  0  0
  -26.4350  -11.9920   20.2650 N   0  0  0  0  0  0  0  0  0  0  0  0
  -24.3760  -10.8650   20.8140 C   0  0  0  0  0  0  0  0  0  0  0  0
  -24.7530   -9.9170   21.7910 C   0  0  0  0  0  3  0  0  0  0  0  0
  -23.9780   -8.7550   21.9950 C   0  0  0  0  0  3  0  0  0  0  0  0
  -22.8150   -8.5320   21.2230 C   0  0  0  0  0  0  0  0  0  0  0  0
  -22.4570   -9.4680   20.2370 C   0  0  0  0  0  3  0  0  0  0  0  0
  -23.2300  -10.6220   20.0300 C   0  0  0  0  0  3  0  0  0  0  0  0
  -22.0170   -7.4190   21.3350 O   0  0  0  0  0  0  0  0  0  0  0  0
  -21.8620   -6.7600   22.5280 C   0  0  0  0  0  0  0  0  0  0  0  0
  -21.3860   -7.4160   23.6840 C   0  0  0  0  0  3  0  0  0  0  0  0
  -21.1740   -6.6870   24.8710 C   0  0  0  0  0  3  0  0  0  0  0  0
  -21.4300   -5.3030   24.9030 C   0  0  0  0  0  0  0  0  0  0  0  0
  -21.9000   -4.6470   23.7510 C   0  0  0  0  0  3  0  0  0  0  0  0
  -22.1120   -5.3730   22.5670 C   0  0  0  0  0  0  0  0  0  0  0  0
  -22.5450   -4.7330   21.4550 F   0  0  0  0  0  0  0  0  0  0  0  0
  -21.2200   -4.6010   26.0410 F   0  0  0  0  0  0  0  0  0  0  0  0
  -23.3840  -14.0050   20.9100 C   0  0  0  0  0  0  0  0  0  0  0  0
  -22.6480  -13.3610   21.8080 N   0  0  0  0  0  0  0  0  0  0  0  0
  -22.9790  -15.0360   20.3750 O   0  0  0  0  0  0  0  0  0  0  0  0
  -22.9910  -12.5280   22.2640 H   0  0  0  0  0  0  0  0  0  0  0  0
  -21.7300  -13.7070   22.0480 H   0  0  0  0  0  0  0  0  0  0  0  0
  -26.0670  -15.5410   20.0160 N   0  0  0  0  0  0  0  0  0  0  0  0
  -25.3120  -16.2150   20.0860 H   0  0  0  0  0  0  0  0  0  0  0  0
  -26.9000  -15.9170   19.5840 H   0  0  0  0  0  0  0  0  0  0  0  0
  1  4  1  0
  2  1  2  0
  3  4  2  0
  5  2  1  0
  5  3  1  0
  6  7  1  0
  6  2  1  0
  8 19  2  0
  9  7  1  0
  9 14  1  0
 10 18  1  0
 10 20  1  0
 11 17  1  0
 11 13  1  0
 12 18  1  0
 13 12  1  0
 14 13  2  0
 15 16  1  0
 15  9  2  0
 16 11  2  0
 17 10  1  0
 18  8  1  0
 20 22  2  0
 21 20  1  0
 23 21  1  0
 24 33  2  0
 24 29  1  0
 25 21  1  0
 25 29  1  0
 26 25  1  0
 27 28  1  0
 27 26  1  0
 28 24  1  0
 29 30  2  0
 30 31  1  0
 32 31  2  0
 33 32  1  0
 34  8  1  0
 34 35  1  0
 34 44  1  0
 35 38  1  0
 36 40  1  0
 36 35  1  0
 37 36  2  0
 40 39  1  0
 42 40  1  0
 42 43  1  0
 42 41  1  0
 44 47  1  1
 44 45  1  0
 46 44  1  0
 48  3  1  0
 48 50  1  0
 50 55  1  0
 50 49  1  1
 51 52  1  0
 51 50  1  0
 53 51  1  0
 54 51  1  0
 56 65  1  0
 56 55  1  0
 57 65  1  0
 58 63  1  0
 59 60  1  0
 59 58  1  0
 61 60  1  0
 61 70  1  0
 61 62  1  0
 63 57  1  0
 63 62  1  0
 64 57  2  0
 65 66  1  0
 67 68  2  0
 68 87  1  0
 69 68  1  0
 69 72  1  0
 70 67  1  0
 70 71  1  0
 71 69  2  0
 72 73  1  0
 73 74  2  0
 75 78  1  0
 75 74  1  0
 76 75  2  0
 77 76  1  0
 77 72  2  0
 78 79  1  0
 79 84  2  0
 79 80  1  0
 80 81  2  0
 81 82  1  0
 82 86  1  0
 83 82  2  0
 84 83  1  0
 85 84  1  0
 87 88  1  0
 88 91  1  0
 88 90  1  0
 89 87  2  0
 92 93  1  0
 92 67  1  0
 94 92  1  0
M  ISO  4   6 101   7 101  57 100  65 100
M  END
>  <TORSDO>  (11) 
F 22

>  <SCORE>  (11) 
-11.321

>  <name>  (11) 
10

>  <ligand_id>  (11) 
10

>  <original_smiles>  (11) 
[H]c1nc(C([H])([H])C(C([H])([H])[H])(C([H])([H])C([H])([H])N([H])C(=O)N2C([H])([H])C([H])([H])C([H])([H])C([H])(n3nc(-c4c([H])c([H])c(Oc5c([H])c([H])c(F)c([H])c5F)c([H])c4[H])c(C(=O)N([H])[H])c3N([H])[H])C2([H])[H])[N+]([H])([H])[H])oc1C([H])([H])Oc1c([H])c([H])c2c(c1[H])C([H])([H])N(C(=O)C([H])(N([H])C(=O)C([H])(N([H])C([H])([H])[H])C([H])([H])[H])C(C([H])([H])[H])(C([H])([H])[H])C([H])([H])[H])C([H])(C(=O)N([H])C1([H])c3c([H])c([H])c([H])c([H])c3C([H])([H])C([H])([H])C1([H])[H])C2([H])[H]

>  <smiles>  (11) 
[H]c1nc(C([H])([H])C(C([H])([H])[H])(C([H])([H])C([H])([H])N([H])C(=O)N2C([H])([H])C([H])([H])C([H])([H])C([H])(n3nc(-c4c([H])c([H])c(Oc5c([H])c([H])c(F)c([H])c5F)c([H])c4[H])c(C(=O)N([H])[H])c3N([H])[H])C2([H])[H])[N+]([H])([H])[H])oc1C([H])([H])Oc1c([H])c([H])c2c(c1[H])C([H])([H])N(C(=O)C([H])(N([H])C(=O)C([H])(N([H])C([H])([H])[H])C([H])([H])[H])C(C([H])([H])[H])(C([H])([H])[H])C([H])([H])[H])C([H])(C(=O)N([H])C1([H])c3c([H])c([H])c([H])c([H])c3C([H])([H])C([H])([H])C1([H])[H])C2([H])[H]

$$$$
11:0:0
     RDKit          3D

 91 99  0  0  1  0  0  0  0  0999 V2000
  -28.7300  -21.9900   19.8740 C   0  0  0  0  0  0  0  0  0  0  0  0
  -30.1650  -22.1140   21.3570 C   0  0  0  0  0  2  0  0  0  0  0  0
  -29.2560  -20.9430   20.9110 C   0  0  1  0  0  0  0  0  0  0  0  0
  -28.1160  -20.5130   21.8470 C   0  0  0  0  0  1  0  0  0  0  0  0
  -29.4690  -23.0200   20.4220 N   0  0  0  0  0  0  0  0  0  0  0  0
  -27.9380  -22.0010   18.9550 O   0  0  0  0  0  0  0  0  0  0  0  0
  -29.9580  -19.7450   20.2130 C   0  0  0  0  0  0  0  0  0  0  0  0
  -30.8000  -19.8570   19.3140 O   0  0  0  0  0  0  0  0  0  0  0  0
  -29.6300  -18.2940   20.7090 C   0  0  0  0  0  3  0  0  0  0  0  0
  -30.5620  -17.1470   20.1730 C   0  0  0  0  0  3  0  0  0  0  0  0
  -30.8590  -14.6550   20.0950 C   0  0  0  0  0  0  0  0  0  0  0  0
  -30.5420  -12.4640   19.0090 C   0  0  0  0  0  2  0  0  0  0  0  0
  -29.5790  -12.6520   17.8180 C   0  0  0  0  0  2  0  0  0  0  0  0
  -28.1170  -12.4990   18.2800 C   0  0  0  0  0  2  0  0  0  0  0  0
  -27.7980  -13.3450   19.5400 C   0  0  0  0  0  3  0  0  0  0  0  0
  -28.8790  -13.1760   20.6310 C   0  0  0  0  0  2  0  0  0  0  0  0
  -30.1850  -13.4710   20.0250 N   0  0  0  0  0  0  0  0  0  0  0  0
  -31.9990  -14.7890   19.6460 O   0  0  0  0  0  0  0  0  0  0  0  0
  -30.1450  -15.7460   20.4690 N   0  0  0  0  0  0  0  0  0  0  0  0
  -29.2120  -15.5860   20.8180 H   0  0  0  0  0  0  0  0  0  0  0  0
  -25.4110  -13.9400   20.2910 C   0  0  0  0  0  0  0  0  0  0  0  0
  -24.3580  -13.1640   20.6910 C   0  0  0  0  0  0  0  0  0  0  0  0
  -24.8280  -11.8160   20.6680 C   0  0  0  0  0  0  0  0  0  0  0  0
  -26.4570  -13.0640   20.0480 N   0  0  0  0  0  0  0  0  0  0  0  0
  -26.1120  -11.7830   20.3340 N   0  0  0  0  0  0  0  0  0  0  0  0
  -24.1160  -10.5490   20.8870 C   0  0  0  0  0  0  0  0  0  0  0  0
  -24.5480   -9.6170   21.8550 C   0  0  0  0  0  3  0  0  0  0  0  0
  -23.8340   -8.4170   22.0610 C   0  0  0  0  0  3  0  0  0  0  0  0
  -22.6760   -8.1410   21.2960 C   0  0  0  0  0  0  0  0  0  0  0  0
  -22.2640   -9.0620   20.3160 C   0  0  0  0  0  3  0  0  0  0  0  0
  -22.9790  -10.2530   20.1090 C   0  0  0  0  0  3  0  0  0  0  0  0
  -21.9350   -6.9870   21.4070 O   0  0  0  0  0  0  0  0  0  0  0  0
  -21.8450   -6.3010   22.5920 C   0  0  0  0  0  0  0  0  0  0  0  0
  -21.3390   -6.9030   23.7650 C   0  0  0  0  0  3  0  0  0  0  0  0
  -21.1980   -6.1420   24.9420 C   0  0  0  0  0  3  0  0  0  0  0  0
  -21.5530   -4.7800   24.9470 C   0  0  0  0  0  0  0  0  0  0  0  0
  -22.0520   -4.1770   23.7790 C   0  0  0  0  0  3  0  0  0  0  0  0
  -22.1940   -4.9350   22.6040 C   0  0  0  0  0  0  0  0  0  0  0  0
  -22.6560   -4.3440   21.4750 F   0  0  0  0  0  0  0  0  0  0  0  0
  -21.4110   -4.0470   26.0750 F   0  0  0  0  0  0  0  0  0  0  0  0
  -22.9620  -13.6350   20.9870 C   0  0  0  0  0  0  0  0  0  0  0  0
  -22.2590  -12.9470   21.8810 N   0  0  0  0  0  0  0  0  0  0  0  0
  -22.5050  -14.6480   20.4620 O   0  0  0  0  0  0  0  0  0  0  0  0
  -22.6480  -12.1310   22.3300 H   0  0  0  0  0  0  0  0  0  0  0  0
  -21.3230  -13.2430   22.1200 H   0  0  0  0  0  0  0  0  0  0  0  0
  -25.5620  -15.3100   20.0940 N   0  0  0  0  0  0  0  0  0  0  0  0
  -24.7870  -15.9550   20.1960 H   0  0  0  0  0  0  0  0  0  0  0  0
  -26.3940  -15.7480   19.7200 H   0  0  0  0  0  0  0  0  0  0  0  0
  -29.6280  -24.4700   20.1420 C   0  0  0  0  0  2  0  0  0  0  0  0
  -28.3090  -25.2710   19.9310 C   0  0  0  0  0  2  0  0  0  0  0  0
  -28.4660  -26.7150   19.9830 O   0  0  0  0  0  0  0  0  0  0  0  0
  -24.6490  -31.8820   23.1530 C   0  0  0  0  0  0  0  0  0  0  0  0
  -27.3020  -27.4780   19.9760 C   0  0  0  0  0  0  0  0  0  0  0  0
  -23.4460  -30.5010   21.4930 C   0  0  0  0  0  3  0  0  0  0  0  0
  -24.9030  -29.0020   20.0320 C   0  0  0  0  0  0  0  0  0  0  0  0
  -25.9730  -30.8740   21.2910 C   0  0  0  0  0  2  0  0  0  0  0  0
  -26.0660  -29.5130   20.6200 C   0  0  0  0  0  0  0  0  0  0  0  0
  -27.2700  -28.7630   20.5810 C   0  0  0  0  0  3  0  0  0  0  0  0
  -26.1130  -26.9960   19.3810 C   0  0  0  0  0  3  0  0  0  0  0  0
  -24.9230  -27.7460   19.4080 C   0  0  0  0  0  3  0  0  0  0  0  0
  -23.6540  -29.8520   20.1010 C   0  0  0  0  0  2  0  0  0  0  0  0
  -24.7080  -31.1000   22.0370 N   0  0  0  0  0  0  0  0  0  0  0  0
  -23.5690  -32.1360   23.7040 O   0  0  0  0  0  0  0  0  0  0  0  0
  -22.8090  -29.4560   22.4380 C   0  0  0  0  0  0  0  0  0  0  0  0
  -21.4860  -29.2640   22.3120 N   0  0  0  0  0  0  0  0  0  0  0  0
  -23.5020  -28.8240   23.2400 O   0  0  0  0  0  0  0  0  0  0  0  0
  -20.9900  -29.8280   21.6360 H   0  0  0  0  0  0  0  0  0  0  0  0
  -18.1270  -28.0140   22.7920 C   0  0  0  0  0  0  0  0  0  0  0  0
  -20.6810  -28.3030   23.0670 C   0  0  0  0  0  3  0  0  0  0  0  0
  -20.8010  -26.8820   22.4690 C   0  0  0  0  0  2  0  0  0  0  0  0
  -19.7030  -26.5590   21.4500 C   0  0  0  0  0  2  0  0  0  0  0  0
  -18.3210  -26.6780   22.0970 C   0  0  0  0  0  2  0  0  0  0  0  0
  -19.2360  -28.7850   23.2340 C   0  0  0  0  0  0  0  0  0  0  0  0
  -19.0000  -30.0360   23.8420 C   0  0  0  0  0  3  0  0  0  0  0  0
  -17.6890  -30.5180   24.0160 C   0  0  0  0  0  3  0  0  0  0  0  0
  -16.5950  -29.7440   23.5900 C   0  0  0  0  0  3  0  0  0  0  0  0
  -16.8140  -28.4940   22.9840 C   0  0  0  0  0  3  0  0  0  0  0  0
  -25.9340  -32.5120   23.7770 C   0  0  0  0  0  3  0  0  0  0  0  0
  -25.6140  -33.8990   24.1410 N   0  0  0  0  0  0  0  0  0  0  0  0
  -25.9180  -34.9690   23.3940 C   0  0  0  0  0  0  0  0  0  0  0  0
  -26.5690  -34.8920   22.3490 O   0  0  0  0  0  0  0  0  0  0  0  0
  -25.0330  -34.0310   24.9560 H   0  0  0  0  0  0  0  0  0  0  0  0
  -24.1590  -36.7430   23.1010 C   0  0  0  0  0  1  0  0  0  0  0  0
  -25.4210  -36.3430   23.8840 C   0  0  0  0  0  3  0  0  0  0  0  0
  -27.5580  -37.2420   24.6950 C   0  0  0  0  0  1  0  0  0  0  0  0
  -26.4390  -37.4120   23.7710 N   0  0  0  0  0  0  0  0  0  0  0  0
  -26.0240  -38.3250   23.9360 H   0  0  0  0  0  0  0  0  0  0  0  0
  -26.4680  -31.7170   25.0320 C   0  0  1  0  0  0  0  0  0  0  0  0
  -25.3840  -31.4460   26.1020 C   0  0  0  0  0  1  0  0  0  0  0  0
  -27.0610  -30.3560   24.6040 C   0  0  0  0  0  1  0  0  0  0  0  0
  -27.6160  -32.5090   25.7010 C   0  0  0  0  0  1  0  0  0  0  0  0
  1  5  1  0
  1  3  1  0
  3  2  1  0
  3  4  1  1
  5  2  1  0
  6  1  2  0
  7  9  1  0
  7  3  1  0
  8  7  2  0
 10 19  1  0
 10  9  2  0
 11 19  1  0
 12 17  1  0
 13 14  1  0
 13 12  1  0
 15 14  1  0
 15 24  1  0
 15 16  1  0
 17 11  1  0
 17 16  1  0
 18 11  2  0
 19 20  1  0
 21 22  2  0
 22 41  1  0
 23 22  1  0
 23 26  1  0
 24 21  1  0
 24 25  1  0
 25 23  2  0
 26 27  1  0
 27 28  2  0
 29 32  1  0
 29 28  1  0
 30 29  2  0
 31 30  1  0
 31 26  2  0
 32 33  1  0
 33 38  2  0
 33 34  1  0
 34 35  2  0
 35 36  1  0
 36 40  1  0
 37 36  2  0
 38 37  1  0
 39 38  1  0
 41 42  1  0
 42 45  1  0
 42 44  1  0
 43 41  2  0
 46 47  1  0
 46 21  1  0
 48 46  1  0
 49  5  1  0
 50 51  1  0
 50 49  1  0
 52 63  2  0
 53 51  1  0
 53 58  1  0
 54 62  1  0
 54 64  1  0
 55 61  1  0
 55 57  1  0
 56 62  1  0
 57 56  1  0
 58 57  2  0
 59 60  1  0
 59 53  2  0
 60 55  2  0
 61 54  1  0
 62 52  1  0
 64 66  2  0
 65 64  1  0
 67 65  1  0
 68 77  2  0
 68 73  1  0
 69 65  1  0
 69 73  1  0
 70 69  1  0
 71 72  1  0
 71 70  1  0
 72 68  1  0
 73 74  2  0
 74 75  1  0
 76 75  2  0
 77 76  1  0
 78 52  1  0
 78 79  1  0
 78 88  1  0
 79 82  1  0
 80 84  1  0
 80 79  1  0
 81 80  2  0
 84 83  1  0
 86 84  1  0
 86 87  1  0
 86 85  1  0
 88 91  1  1
 88 89  1  0
 90 88  1  0
M  ISO  4  11 100  19 100  50 101  51 101
M  END
>  <TORSDO>  (12) 
F 21

>  <SCORE>  (12) 
-11.956

>  <name>  (12) 
11

>  <ligand_id>  (12) 
11

>  <original_smiles>  (12) 
[H]c1c([H])c([H])c2c(c1[H])C([H])([H])C([H])([H])C([H])([H])C2([H])N([H])C(=O)C1([H])N(C(=O)C([H])(N([H])C(=O)C([H])(N([H])C([H])([H])[H])C([H])([H])[H])C(C([H])([H])[H])(C([H])([H])[H])C([H])([H])[H])C([H])([H])c2c([H])c(OC([H])([H])C([H])([H])N3C(=O)C(C(=O)C([H])([H])C([H])([H])N([H])C(=O)N4C([H])([H])C([H])([H])C([H])([H])C([H])(n5nc(-c6c([H])c([H])c(Oc7c([H])c([H])c(F)c([H])c7F)c([H])c6[H])c(C(=O)N([H])[H])c5N([H])[H])C4([H])[H])(C([H])([H])[H])C3([H])[H])c([H])c([H])c2C1([H])[H]

>  <smiles>  (12) 
[H]c1c([H])c([H])c2c(c1[H])C([H])([H])C([H])([H])C([H])([H])C2([H])N([H])C(=O)C1([H])N(C(=O)C([H])(N([H])C(=O)C([H])(N([H])C([H])([H])[H])C([H])([H])[H])C(C([H])([H])[H])(C([H])([H])[H])C([H])([H])[H])C([H])([H])c2c([H])c(OC([H])([H])C([H])([H])N3C(=O)C(C(=O)C([H])([H])C([H])([H])N([H])C(=O)N4C([H])([H])C([H])([H])C([H])([H])C([H])(n5nc(-c6c([H])c([H])c(Oc7c([H])c([H])c(F)c([H])c7F)c([H])c6[H])c(C(=O)N([H])[H])c5N([H])[H])C4([H])[H])(C([H])([H])[H])C3([H])[H])c([H])c([H])c2C1([H])[H]

$$$$
12:0:0
     RDKit          3D

 88 97  0  0  1  0  0  0  0  0999 V2000
  -28.7210  -20.4260   19.5050 C   0  0  0  0  0  3  0  0  0  0  0  0
  -29.7260  -20.6030   21.1850 C   0  0  0  0  0  3  0  0  0  0  0  0
  -29.0890  -19.2530   20.5630 C   0  0  0  0  0  3  0  0  0  0  0  0
  -28.6920  -21.5540   20.5460 N   0  0  1  0  0  4  0  0  0  0  0  0
  -27.8330  -21.4910   21.0720 H   0  0  0  0  0  0  0  0  0  0  0  0
  -29.9240  -17.7660   20.2120 C   0  0  0  0  0  0  0  0  0  0  0  0
  -29.6940  -16.4460   20.5900 N   0  0  0  0  0  0  0  0  0  0  0  0
  -30.4920  -15.1880   20.2880 C   0  0  0  0  0  0  0  0  0  0  0  0
  -30.4160  -12.7920   19.3720 C   0  0  0  0  0  2  0  0  0  0  0  0
  -29.4960  -12.7270   18.1280 C   0  0  0  0  0  2  0  0  0  0  0  0
  -28.0310  -12.4820   18.5380 C   0  0  0  0  0  2  0  0  0  0  0  0
  -27.6060  -13.3940   19.7180 C   0  0  0  0  0  3  0  0  0  0  0  0
  -28.6550  -13.4350   20.8460 C   0  0  0  0  0  2  0  0  0  0  0  0
  -29.9220  -13.8980   20.2600 N   0  0  0  0  0  0  0  0  0  0  0  0
  -31.6820  -15.1860   19.9480 O   0  0  0  0  0  0  0  0  0  0  0  0
  -25.2390  -13.9350   20.5090 C   0  0  0  0  0  0  0  0  0  0  0  0
  -24.1840  -13.1490   20.8830 C   0  0  0  0  0  0  0  0  0  0  0  0
  -24.6570  -11.8030   20.8310 C   0  0  0  0  0  0  0  0  0  0  0  0
  -26.2810  -13.0690   20.2330 N   0  0  0  0  0  0  0  0  0  0  0  0
  -25.9450  -11.7790   20.4970 N   0  0  0  0  0  0  0  0  0  0  0  0
  -23.9430  -10.5340   21.0190 C   0  0  0  0  0  0  0  0  0  0  0  0
  -24.3820   -9.5670   21.9510 C   0  0  0  0  0  3  0  0  0  0  0  0
  -23.6620   -8.3650   22.1300 C   0  0  0  0  0  3  0  0  0  0  0  0
  -22.4880   -8.1230   21.3770 C   0  0  0  0  0  0  0  0  0  0  0  0
  -22.0710   -9.0760   20.4320 C   0  0  0  0  0  3  0  0  0  0  0  0
  -22.7920  -10.2670   20.2510 C   0  0  0  0  0  3  0  0  0  0  0  0
  -21.7380   -6.9750   21.4650 O   0  0  0  0  0  0  0  0  0  0  0  0
  -21.6730   -6.2440   22.6230 C   0  0  0  0  0  0  0  0  0  0  0  0
  -21.2030   -6.7990   23.8330 C   0  0  0  0  0  3  0  0  0  0  0  0
  -21.0920   -5.9900   24.9820 C   0  0  0  0  0  3  0  0  0  0  0  0
  -21.4390   -4.6270   24.9190 C   0  0  0  0  0  0  0  0  0  0  0  0
  -21.9040   -4.0710   23.7130 C   0  0  0  0  0  3  0  0  0  0  0  0
  -22.0190   -4.8770   22.5680 C   0  0  0  0  0  0  0  0  0  0  0  0
  -22.4480   -4.3360   21.4030 F   0  0  0  0  0  0  0  0  0  0  0  0
  -21.3240   -3.8470   26.0180 F   0  0  0  0  0  0  0  0  0  0  0  0
  -22.7890  -13.6170   21.1730 C   0  0  0  0  0  0  0  0  0  0  0  0
  -22.0730  -12.9160   22.0430 N   0  0  0  0  0  0  0  0  0  0  0  0
  -22.3430  -14.6420   20.6580 O   0  0  0  0  0  0  0  0  0  0  0  0
  -22.4490  -12.0880   22.4810 H   0  0  0  0  0  0  0  0  0  0  0  0
  -21.1330  -13.2060   22.2720 H   0  0  0  0  0  0  0  0  0  0  0  0
  -25.3970  -15.3080   20.3560 N   0  0  0  0  0  0  0  0  0  0  0  0
  -24.6400  -15.9670   20.5100 H   0  0  0  0  0  0  0  0  0  0  0  0
  -26.2680  -15.7530   20.0950 H   0  0  0  0  0  0  0  0  0  0  0  0
  -30.6600  -17.8330   17.7870 C   0  0  0  0  0  1  0  0  0  0  0  0
  -31.0610  -18.0880   19.2480 C   0  0  0  0  0  2  0  0  0  0  0  0
  -29.0100  -23.1260   20.2260 C   0  0  0  0  0  3  0  0  0  0  0  0
  -27.9450  -24.4970   20.3800 C   0  0  0  0  0  3  0  0  0  0  0  0
  -28.2120  -26.0820   20.2450 O   0  0  0  0  0  0  0  0  0  0  0  0
  -24.6260  -31.9100   23.2380 C   0  0  0  0  0  0  0  0  0  0  0  0
  -27.1680  -27.1130   20.2080 C   0  0  0  0  0  0  0  0  0  0  0  0
  -23.4170  -30.5040   21.6190 C   0  0  0  0  0  3  0  0  0  0  0  0
  -24.8520  -28.9200   20.1790 C   0  0  0  0  0  0  0  0  0  0  0  0
  -25.9740  -30.7500   21.4360 C   0  0  0  0  0  2  0  0  0  0  0  0
  -26.0400  -29.3490   20.7850 C   0  0  0  0  0  0  0  0  0  0  0  0
  -27.1950  -28.4640   20.7780 C   0  0  0  0  0  3  0  0  0  0  0  0
  -25.9530  -26.8130   19.5540 C   0  0  0  0  0  3  0  0  0  0  0  0
  -24.8280  -27.6700   19.5430 C   0  0  0  0  0  3  0  0  0  0  0  0
  -23.6280  -29.8270   20.2380 C   0  0  0  0  0  2  0  0  0  0  0  0
  -24.6950  -31.0810   22.1510 N   0  0  0  0  0  0  0  0  0  0  0  0
  -23.5430  -32.1960   23.7710 O   0  0  0  0  0  0  0  0  0  0  0  0
  -22.7470  -29.5000   22.5920 C   0  0  0  0  0  0  0  0  0  0  0  0
  -21.4200  -29.3120   22.4670 N   0  0  0  0  0  0  0  0  0  0  0  0
  -23.4240  -28.8920   23.4250 O   0  0  0  0  0  0  0  0  0  0  0  0
  -20.9300  -29.8610   21.7730 H   0  0  0  0  0  0  0  0  0  0  0  0
  -18.0520  -28.0550   22.9630 C   0  0  0  0  0  0  0  0  0  0  0  0
  -20.6060  -28.3690   23.2400 C   0  0  0  0  0  3  0  0  0  0  0  0
  -20.7370  -26.9330   22.6820 C   0  0  0  0  0  2  0  0  0  0  0  0
  -19.6490  -26.5780   21.6650 C   0  0  0  0  0  2  0  0  0  0  0  0
  -18.2600  -26.7030   22.2980 C   0  0  0  0  0  2  0  0  0  0  0  0
  -19.1550  -28.8430   23.3880 C   0  0  0  0  0  0  0  0  0  0  0  0
  -18.9080  -30.1070   23.9670 C   0  0  0  0  0  3  0  0  0  0  0  0
  -17.5920  -30.5820   24.1260 C   0  0  0  0  0  3  0  0  0  0  0  0
  -16.5060  -29.7910   23.7160 C   0  0  0  0  0  3  0  0  0  0  0  0
  -16.7360  -28.5280   23.1390 C   0  0  0  0  0  3  0  0  0  0  0  0
  -25.9060  -32.5500   23.8590 C   0  0  0  0  0  3  0  0  0  0  0  0
  -26.4170  -31.7920   25.1460 C   0  0  1  0  0  0  0  0  0  0  0  0
  -25.3180  -31.5710   26.2120 C   0  0  0  0  0  1  0  0  0  0  0  0
  -27.0030  -30.4110   24.7740 C   0  0  0  0  0  1  0  0  0  0  0  0
  -27.5720  -32.5890   25.7970 C   0  0  0  0  0  1  0  0  0  0  0  0
  -25.5950  -33.9520   24.1870 N   0  0  0  0  0  0  0  0  0  0  0  0
  -25.9080  -35.0070   23.4220 C   0  0  0  0  0  0  0  0  0  0  0  0
  -26.5560  -34.9010   22.3780 O   0  0  0  0  0  0  0  0  0  0  0  0
  -25.0160  -34.1070   24.9990 H   0  0  0  0  0  0  0  0  0  0  0  0
  -24.1660  -36.7960   23.1030 C   0  0  0  0  0  1  0  0  0  0  0  0
  -25.4260  -36.3970   23.8860 C   0  0  0  0  0  3  0  0  0  0  0  0
  -27.5730  -37.2960   24.6690 C   0  0  0  0  0  1  0  0  0  0  0  0
  -26.4530  -37.4530   23.7430 N   0  0  0  0  0  0  0  0  0  0  0  0
  -26.0500  -38.3740   23.8870 H   0  0  0  0  0  0  0  0  0  0  0  0
  1  4  1  0
  1  3  1  0
  1  2  1  0
  2  4  1  0
  3  6  1  0
  3  2  1  0
  4  5  1  1
  6  7  2  0
  8  7  1  0
  9 14  1  0
 10 11  1  0
 10  9  1  0
 12 11  1  0
 12 19  1  0
 12 13  1  0
 14  8  1  0
 14 13  1  0
 15  8  2  0
 16 17  2  0
 17 36  1  0
 18 17  1  0
 18 21  1  0
 19 20  1  0
 19 16  1  0
 20 18  2  0
 21 22  1  0
 22 23  2  0
 24 27  1  0
 24 23  1  0
 25 24  2  0
 26 25  1  0
 26 21  2  0
 27 28  1  0
 28 29  1  0
 29 30  2  0
 31 30  1  0
 31 35  1  0
 32 31  2  0
 33 28  2  0
 33 32  1  0
 34 33  1  0
 36 37  1  0
 37 40  1  0
 37 39  1  0
 38 36  2  0
 41 16  1  0
 41 42  1  0
 43 41  1  0
 44 45  1  0
 45  6  1  0
 46 47  2  0
 46  4  1  0
 48 47  1  0
 49 60  2  0
 50 48  1  0
 50 55  1  0
 51 59  1  0
 51 61  1  0
 52 58  1  0
 52 54  1  0
 53 59  1  0
 54 53  1  0
 55 54  2  0
 56 50  2  0
 57 56  1  0
 57 52  2  0
 58 51  1  0
 59 49  1  0
 61 63  2  0
 62 61  1  0
 64 62  1  0
 65 74  2  0
 65 70  1  0
 66 62  1  0
 66 70  1  0
 67 66  1  0
 68 69  1  0
 68 67  1  0
 69 65  1  0
 70 71  2  0
 71 72  1  0
 73 72  2  0
 74 73  1  0
 75 49  1  0
 75 80  1  0
 75 76  1  0
 76 79  1  1
 76 77  1  0
 78 76  1  0
 80 83  1  0
 81 85  1  0
 81 80  1  0
 82 81  2  0
 85 84  1  0
 87 85  1  0
 87 88  1  0
 87 86  1  0
M  ISO  4   7 100   8 100  47 101  48 101
M  END
>  <TORSDO>  (13) 
F 20

>  <SCORE>  (13) 
-14.988

>  <name>  (13) 
12

>  <ligand_id>  (13) 
12

>  <original_smiles>  (13) 
[H]c1c([H])c([H])c2c(c1[H])C([H])([H])C([H])([H])C([H])([H])C2([H])N([H])C(=O)C1([H])N(C(=O)C([H])(N([H])C(=O)C([H])(N([H])C([H])([H])[H])C([H])([H])[H])C(C([H])([H])[H])(C([H])([H])[H])C([H])([H])[H])C([H])([H])c2c([H])c(OC([H])([H])C([H])([H])[N+]3([H])C([H])([H])C([H])(C(=NC(=O)N4C([H])([H])C([H])([H])C([H])([H])C([H])(n5nc(-c6c([H])c([H])c(Oc7c([H])c([H])c(F)c([H])c7F)c([H])c6[H])c(C(=O)N([H])[H])c5N([H])[H])C4([H])[H])C([H])([H])C([H])([H])[H])C3([H])[H])c([H])c([H])c2C1([H])[H]

>  <smiles>  (13) 
[H]c1c([H])c([H])c2c(c1[H])C([H])([H])C([H])([H])C([H])([H])C2([H])N([H])C(=O)C1([H])N(C(=O)C([H])(N([H])C(=O)C([H])(N([H])C([H])([H])[H])C([H])([H])[H])C(C([H])([H])[H])(C([H])([H])[H])C([H])([H])[H])C([H])([H])c2c([H])c(OC([H])([H])C([H])([H])[N+]3([H])C([H])([H])C([H])(C(=NC(=O)N4C([H])([H])C([H])([H])C([H])([H])C([H])(n5nc(-c6c([H])c([H])c(Oc7c([H])c([H])c(F)c([H])c7F)c([H])c6[H])c(C(=O)N([H])[H])c5N([H])[H])C4([H])[H])C([H])([H])C([H])([H])[H])C3([H])[H])c([H])c([H])c2C1([H])[H]

$$$$
13:0:0
     RDKit          3D

 92100  0  0  1  0  0  0  0  0999 V2000
  -28.4470  -20.8320   21.5780 C   0  0  0  0  0  2  0  0  0  0  0  0
  -27.9030  -22.2530   21.8040 C   0  0  0  0  0  2  0  0  0  0  0  0
  -29.2160  -22.2610   19.8310 C   0  0  0  0  0  2  0  0  0  0  0  0
  -28.8290  -20.7850   20.0970 C   0  0  0  0  0  3  0  0  0  0  0  0
  -28.2030  -23.0520   20.5850 N   0  0  2  0  0  4  0  0  0  0  0  0
  -27.3530  -23.0120   20.0380 H   0  0  0  0  0  0  0  0  0  0  0  0
  -29.8540  -19.6790   19.7640 C   0  0  0  0  0  0  0  0  0  0  0  0
  -30.9160  -19.9000   19.1060 N   0  0  0  0  0  0  0  0  0  0  0  0
  -31.0300  -20.8610   18.8010 H   0  0  0  0  0  0  0  0  0  0  0  0
  -29.4800  -18.2710   20.2800 C   0  0  0  0  0  2  0  0  0  0  0  0
  -30.4490  -17.1200   19.8720 C   0  0  0  0  0  2  0  0  0  0  0  0
  -30.8430  -14.6890   20.1840 C   0  0  0  0  0  0  0  0  0  0  0  0
  -30.5400  -12.4980   19.1400 C   0  0  0  0  0  2  0  0  0  0  0  0
  -29.5910  -12.7110   17.9390 C   0  0  0  0  0  2  0  0  0  0  0  0
  -28.1170  -12.5770   18.3760 C   0  0  0  0  0  2  0  0  0  0  0  0
  -27.7910  -13.4170   19.6400 C   0  0  0  0  0  3  0  0  0  0  0  0
  -28.8650  -13.2300   20.7390 C   0  0  0  0  0  2  0  0  0  0  0  0
  -30.1810  -13.5050   20.1440 N   0  0  0  0  0  0  0  0  0  0  0  0
  -32.0090  -14.8150   19.8020 O   0  0  0  0  0  0  0  0  0  0  0  0
  -30.0750  -15.7820   20.3780 N   0  0  0  0  0  0  0  0  0  0  0  0
  -29.1250  -15.6330   20.6840 H   0  0  0  0  0  0  0  0  0  0  0  0
  -25.4020  -14.0220   20.3790 C   0  0  0  0  0  0  0  0  0  0  0  0
  -24.3440  -13.2490   20.7650 C   0  0  0  0  0  0  0  0  0  0  0  0
  -24.8070  -11.8980   20.7360 C   0  0  0  0  0  0  0  0  0  0  0  0
  -26.4470  -13.1420   20.1410 N   0  0  0  0  0  0  0  0  0  0  0  0
  -26.0930  -11.8600   20.4140 N   0  0  0  0  0  0  0  0  0  0  0  0
  -24.0880  -10.6350   20.9370 C   0  0  0  0  0  0  0  0  0  0  0  0
  -24.5180   -9.6860   21.8900 C   0  0  0  0  0  3  0  0  0  0  0  0
  -23.8010   -8.4850   22.0790 C   0  0  0  0  0  3  0  0  0  0  0  0
  -22.6360   -8.2270   21.3180 C   0  0  0  0  0  0  0  0  0  0  0  0
  -22.2270   -9.1640   20.3520 C   0  0  0  0  0  3  0  0  0  0  0  0
  -22.9450  -10.3550   20.1610 C   0  0  0  0  0  3  0  0  0  0  0  0
  -21.8890   -7.0780   21.4150 O   0  0  0  0  0  0  0  0  0  0  0  0
  -21.8190   -6.3640   22.5840 C   0  0  0  0  0  0  0  0  0  0  0  0
  -21.3290   -6.9350   23.7770 C   0  0  0  0  0  3  0  0  0  0  0  0
  -21.2090   -6.1430   24.9380 C   0  0  0  0  0  3  0  0  0  0  0  0
  -21.5670   -4.7820   24.9030 C   0  0  0  0  0  0  0  0  0  0  0  0
  -22.0540   -4.2120   23.7130 C   0  0  0  0  0  3  0  0  0  0  0  0
  -22.1750   -5.0010   22.5550 C   0  0  0  0  0  0  0  0  0  0  0  0
  -22.6230   -4.4410   21.4050 F   0  0  0  0  0  0  0  0  0  0  0  0
  -21.4460   -4.0190   26.0150 F   0  0  0  0  0  0  0  0  0  0  0  0
  -22.9480  -13.7230   21.0520 C   0  0  0  0  0  0  0  0  0  0  0  0
  -22.2310  -13.0230   21.9220 N   0  0  0  0  0  0  0  0  0  0  0  0
  -22.5010  -14.7470   20.5310 O   0  0  0  0  0  0  0  0  0  0  0  0
  -22.6060  -12.1960   22.3630 H   0  0  0  0  0  0  0  0  0  0  0  0
  -21.2940  -13.3190   22.1560 H   0  0  0  0  0  0  0  0  0  0  0  0
  -25.5590  -15.3940   20.1930 N   0  0  0  0  0  0  0  0  0  0  0  0
  -24.7720  -16.0320   20.2590 H   0  0  0  0  0  0  0  0  0  0  0  0
  -26.3780  -15.8250   19.7900 H   0  0  0  0  0  0  0  0  0  0  0  0
  -28.4710  -24.4990   20.8930 C   0  0  0  0  0  2  0  0  0  0  0  0
  -28.6060  -25.4720   19.6860 C   0  0  0  0  0  2  0  0  0  0  0  0
  -28.5420  -26.8690   20.0870 O   0  0  0  0  0  0  0  0  0  0  0  0
  -24.6300  -31.9560   23.2400 C   0  0  0  0  0  0  0  0  0  0  0  0
  -27.3420  -27.5690   20.0940 C   0  0  0  0  0  0  0  0  0  0  0  0
  -23.4510  -30.5710   21.5700 C   0  0  0  0  0  3  0  0  0  0  0  0
  -24.9300  -29.0790   20.1270 C   0  0  0  0  0  0  0  0  0  0  0  0
  -25.9800  -30.9570   21.3920 C   0  0  0  0  0  2  0  0  0  0  0  0
  -26.0820  -29.5960   20.7240 C   0  0  0  0  0  0  0  0  0  0  0  0
  -27.2890  -28.8530   20.7010 C   0  0  0  0  0  3  0  0  0  0  0  0
  -26.1530  -27.0710   19.5080 C   0  0  0  0  0  3  0  0  0  0  0  0
  -24.9610  -27.8150   19.5180 C   0  0  0  0  0  3  0  0  0  0  0  0
  -23.6760  -29.9250   20.1780 C   0  0  0  0  0  2  0  0  0  0  0  0
  -24.7060  -31.1770   22.1230 N   0  0  0  0  0  0  0  0  0  0  0  0
  -23.5420  -32.2020   23.7810 O   0  0  0  0  0  0  0  0  0  0  0  0
  -22.8130  -29.5190   22.5080 C   0  0  0  0  0  0  0  0  0  0  0  0
  -21.4900  -29.3230   22.3780 N   0  0  0  0  0  0  0  0  0  0  0  0
  -23.5030  -28.8830   23.3080 O   0  0  0  0  0  0  0  0  0  0  0  0
  -20.9920  -29.8850   21.7040 H   0  0  0  0  0  0  0  0  0  0  0  0
  -18.1250  -28.1080   22.8840 C   0  0  0  0  0  0  0  0  0  0  0  0
  -20.6870  -28.3630   23.1350 C   0  0  0  0  0  3  0  0  0  0  0  0
  -20.7860  -26.9490   22.5180 C   0  0  0  0  0  2  0  0  0  0  0  0
  -19.6720  -26.6510   21.5080 C   0  0  0  0  0  2  0  0  0  0  0  0
  -18.2950  -26.7790   22.1680 C   0  0  0  0  0  2  0  0  0  0  0  0
  -19.2470  -28.8570   23.3260 C   0  0  0  0  0  0  0  0  0  0  0  0
  -19.0320  -30.1040   23.9530 C   0  0  0  0  0  3  0  0  0  0  0  0
  -17.7280  -30.5980   24.1450 C   0  0  0  0  0  3  0  0  0  0  0  0
  -16.6220  -29.8440   23.7210 C   0  0  0  0  0  3  0  0  0  0  0  0
  -16.8200  -28.5990   23.0970 C   0  0  0  0  0  3  0  0  0  0  0  0
  -25.9040  -32.5950   23.8720 C   0  0  0  0  0  3  0  0  0  0  0  0
  -25.5840  -33.9940   24.1880 N   0  0  0  0  0  0  0  0  0  0  0  0
  -25.9210  -35.0410   23.4240 C   0  0  0  0  0  0  0  0  0  0  0  0
  -26.6050  -34.9340   22.4020 O   0  0  0  0  0  0  0  0  0  0  0  0
  -24.9800  -34.1500   24.9810 H   0  0  0  0  0  0  0  0  0  0  0  0
  -24.1960  -36.8230   23.0170 C   0  0  0  0  0  1  0  0  0  0  0  0
  -25.4190  -36.4300   23.8600 C   0  0  0  0  0  3  0  0  0  0  0  0
  -27.5270  -37.3300   24.7390 C   0  0  0  0  0  1  0  0  0  0  0  0
  -26.4500  -37.4850   23.7650 N   0  0  0  0  0  0  0  0  0  0  0  0
  -26.0390  -38.4050   23.8880 H   0  0  0  0  0  0  0  0  0  0  0  0
  -26.4080  -31.8320   25.1580 C   0  0  1  0  0  0  0  0  0  0  0  0
  -25.2990  -31.5940   26.2090 C   0  0  0  0  0  1  0  0  0  0  0  0
  -27.0090  -30.4560   24.7840 C   0  0  0  0  0  1  0  0  0  0  0  0
  -27.5430  -32.6380   25.8330 C   0  0  0  0  0  1  0  0  0  0  0  0
  1  2  1  0
  3  4  1  0
  3  5  1  0
  4  7  1  0
  4  1  1  0
  5 50  1  0
  5  2  1  0
  5  6  1  6
  7 10  1  0
  8  7  2  0
  9  8  1  0
 11 10  1  0
 11 20  1  0
 12 20  1  0
 13 18  1  0
 14 15  1  0
 14 13  1  0
 16 15  1  0
 16 25  1  0
 16 17  1  0
 18 12  1  0
 18 17  1  0
 19 12  2  0
 20 21  1  0
 22 23  2  0
 23 42  1  0
 24 23  1  0
 24 27  1  0
 25 22  1  0
 25 26  1  0
 26 24  2  0
 27 28  1  0
 28 29  2  0
 30 33  1  0
 30 29  1  0
 31 30  2  0
 32 31  1  0
 32 27  2  0
 33 34  1  0
 34 35  1  0
 35 36  2  0
 37 36  1  0
 37 41  1  0
 38 37  2  0
 39 34  2  0
 39 38  1  0
 40 39  1  0
 42 43  1  0
 43 46  1  0
 43 45  1  0
 44 42  2  0
 47 48  1  0
 47 22  1  0
 49 47  1  0
 51 52  1  0
 51 50  1  0
 52 54  1  0
 53 64  2  0
 54 59  1  0
 55 63  1  0
 55 65  1  0
 56 62  1  0
 56 58  1  0
 57 63  1  0
 58 57  1  0
 59 58  2  0
 60 61  1  0
 60 54  2  0
 61 56  2  0
 62 55  1  0
 63 53  1  0
 65 67  2  0
 66 65  1  0
 68 66  1  0
 69 78  2  0
 69 74  1  0
 70 66  1  0
 70 74  1  0
 71 70  1  0
 72 73  1  0
 72 71  1  0
 73 69  1  0
 74 75  2  0
 75 76  1  0
 77 76  2  0
 78 77  1  0
 79 53  1  0
 79 80  1  0
 79 89  1  0
 80 83  1  0
 81 85  1  0
 81 80  1  0
 82 81  2  0
 85 84  1  0
 87 85  1  0
 87 88  1  0
 87 86  1  0
 89 92  1  1
 89 90  1  0
 91 89  1  0
M  ISO  4  12 100  20 100  51 101  52 101
M  END
>  <TORSDO>  (14) 
F 21

>  <SCORE>  (14) 
-12.950

>  <name>  (14) 
13

>  <ligand_id>  (14) 
13

>  <original_smiles>  (14) 
[H]N=C(C([H])([H])C([H])([H])N([H])C(=O)N1C([H])([H])C([H])([H])C([H])([H])C([H])(n2nc(-c3c([H])c([H])c(Oc4c([H])c([H])c(F)c([H])c4F)c([H])c3[H])c(C(=O)N([H])[H])c2N([H])[H])C1([H])[H])C1([H])C([H])([H])C([H])([H])[N+]([H])(C([H])([H])C([H])([H])Oc2c([H])c([H])c3c(c2[H])C([H])([H])N(C(=O)C([H])(N([H])C(=O)C([H])(N([H])C([H])([H])[H])C([H])([H])[H])C(C([H])([H])[H])(C([H])([H])[H])C([H])([H])[H])C([H])(C(=O)N([H])C2([H])c4c([H])c([H])c([H])c([H])c4C([H])([H])C([H])([H])C2([H])[H])C3([H])[H])C1([H])[H]

>  <smiles>  (14) 
[H]N=C(C([H])([H])C([H])([H])N([H])C(=O)N1C([H])([H])C([H])([H])C([H])([H])C([H])(n2nc(-c3c([H])c([H])c(Oc4c([H])c([H])c(F)c([H])c4F)c([H])c3[H])c(C(=O)N([H])[H])c2N([H])[H])C1([H])[H])C1([H])C([H])([H])C([H])([H])[N+]([H])(C([H])([H])C([H])([H])Oc2c([H])c([H])c3c(c2[H])C([H])([H])N(C(=O)C([H])(N([H])C(=O)C([H])(N([H])C([H])([H])[H])C([H])([H])[H])C(C([H])([H])[H])(C([H])([H])[H])C([H])([H])[H])C([H])(C(=O)N([H])C2([H])c4c([H])c([H])c([H])c([H])c4C([H])([H])C([H])([H])C2([H])[H])C3([H])[H])C1([H])[H]

$$$$
14:0:0
     RDKit          3D

 93101  0  0  1  0  0  0  0  0999 V2000
  -27.8150  -20.2980   20.2550 C   0  0  0  0  0  3  0  0  0  0  0  0
  -29.8030  -21.3500   19.9190 C   0  0  0  0  0  3  0  0  0  0  0  0
  -29.1550  -20.1470   19.8030 C   0  0  0  0  0  0  0  0  0  0  0  0
  -27.7140  -21.5850   20.6980 C   0  0  0  0  0  0  0  0  0  0  0  0
  -28.9160  -22.2550   20.4960 N   0  0  0  0  0  0  0  0  0  0  0  0
  -26.6530  -22.2150   21.2740 O   0  0  0  0  0  0  0  0  0  0  0  0
  -25.9360  -21.5900   21.3280 H   0  0  0  0  0  0  0  0  0  0  0  0
  -29.7300  -18.9760   19.2900 N   0  0  0  0  0  0  0  0  0  0  0  0
  -30.6700  -19.0390   18.9080 H   0  0  0  0  0  0  0  0  0  0  0  0
  -29.2950  -17.6720   19.7930 C   0  0  0  0  0  2  0  0  0  0  0  0
  -30.4050  -16.9770   20.6020 C   0  0  0  0  0  2  0  0  0  0  0  0
  -30.8200  -14.5440   20.2450 C   0  0  0  0  0  0  0  0  0  0  0  0
  -30.4620  -12.4340   19.0400 C   0  0  0  0  0  2  0  0  0  0  0  0
  -29.4690  -12.7130   17.8910 C   0  0  0  0  0  2  0  0  0  0  0  0
  -28.0130  -12.5820   18.3800 C   0  0  0  0  0  2  0  0  0  0  0  0
  -27.7480  -13.3590   19.7000 C   0  0  0  0  0  3  0  0  0  0  0  0
  -28.8490  -13.0520   20.7420 C   0  0  0  0  0  2  0  0  0  0  0  0
  -30.1500  -13.3690   20.1270 N   0  0  0  0  0  0  0  0  0  0  0  0
  -31.9300  -14.7410   19.7450 O   0  0  0  0  0  0  0  0  0  0  0  0
  -30.1020  -15.5500   20.7640 N   0  0  0  0  0  0  0  0  0  0  0  0
  -29.1960  -15.3040   21.1370 H   0  0  0  0  0  0  0  0  0  0  0  0
  -25.3770  -13.9640   20.5120 C   0  0  0  0  0  0  0  0  0  0  0  0
  -24.3210  -13.1860   20.9040 C   0  0  0  0  0  0  0  0  0  0  0  0
  -24.7740  -11.8350   20.8200 C   0  0  0  0  0  0  0  0  0  0  0  0
  -26.4100  -13.0850   20.2210 N   0  0  0  0  0  0  0  0  0  0  0  0
  -26.0530  -11.8000   20.4640 N   0  0  0  0  0  0  0  0  0  0  0  0
  -24.0550  -10.5710   21.0100 C   0  0  0  0  0  0  0  0  0  0  0  0
  -24.5000   -9.6010   21.9350 C   0  0  0  0  0  3  0  0  0  0  0  0
  -23.7820   -8.3990   22.1110 C   0  0  0  0  0  3  0  0  0  0  0  0
  -22.6060   -8.1590   21.3600 C   0  0  0  0  0  0  0  0  0  0  0  0
  -22.1800   -9.1180   20.4240 C   0  0  0  0  0  3  0  0  0  0  0  0
  -22.8980  -10.3130   20.2490 C   0  0  0  0  0  3  0  0  0  0  0  0
  -21.8570   -7.0080   21.4510 O   0  0  0  0  0  0  0  0  0  0  0  0
  -21.7980   -6.2740   22.6060 C   0  0  0  0  0  0  0  0  0  0  0  0
  -21.3060   -6.8190   23.8150 C   0  0  0  0  0  3  0  0  0  0  0  0
  -21.2010   -6.0070   24.9610 C   0  0  0  0  0  3  0  0  0  0  0  0
  -21.5750   -4.6530   24.9010 C   0  0  0  0  0  0  0  0  0  0  0  0
  -22.0570   -4.1050   23.6990 C   0  0  0  0  0  3  0  0  0  0  0  0
  -22.1670   -4.9150   22.5550 C   0  0  0  0  0  0  0  0  0  0  0  0
  -22.6140   -4.3770   21.3940 F   0  0  0  0  0  0  0  0  0  0  0  0
  -21.4630   -3.8700   26.0000 F   0  0  0  0  0  0  0  0  0  0  0  0
  -22.9350  -13.6600   21.2460 C   0  0  0  0  0  0  0  0  0  0  0  0
  -22.2410  -12.9410   22.1170 N   0  0  0  0  0  0  0  0  0  0  0  0
  -22.4810  -14.7020   20.7760 O   0  0  0  0  0  0  0  0  0  0  0  0
  -22.6190  -12.0950   22.5170 H   0  0  0  0  0  0  0  0  0  0  0  0
  -21.3150  -13.2400   22.3900 H   0  0  0  0  0  0  0  0  0  0  0  0
  -25.5410  -15.3390   20.3610 N   0  0  0  0  0  0  0  0  0  0  0  0
  -24.7860  -16.0000   20.5140 H   0  0  0  0  0  0  0  0  0  0  0  0
  -26.3860  -15.7730   20.0120 H   0  0  0  0  0  0  0  0  0  0  0  0
  -29.2130  -23.6410   20.8670 C   0  0  0  0  0  2  0  0  0  0  0  0
  -28.3080  -24.6690   20.1490 C   0  0  0  0  0  2  0  0  0  0  0  0
  -29.0480  -25.7380   19.3060 C   0  0  0  0  0  2  0  0  0  0  0  0
  -28.9250  -27.0680   19.8400 O   0  0  0  0  0  0  0  0  0  0  0  0
  -24.6120  -31.6870   23.1140 C   0  0  0  0  0  0  0  0  0  0  0  0
  -27.6860  -27.6800   19.8270 C   0  0  0  0  0  0  0  0  0  0  0  0
  -23.5640  -30.2910   21.3630 C   0  0  0  0  0  3  0  0  0  0  0  0
  -25.1720  -28.9750   19.8880 C   0  0  0  0  0  0  0  0  0  0  0  0
  -26.0550  -30.8730   21.2490 C   0  0  0  0  0  2  0  0  0  0  0  0
  -26.2690  -29.5550   20.5330 C   0  0  0  0  0  0  0  0  0  0  0  0
  -27.5260  -28.9100   20.5090 C   0  0  0  0  0  3  0  0  0  0  0  0
  -26.5590  -27.1180   19.1760 C   0  0  0  0  0  3  0  0  0  0  0  0
  -25.3080  -27.7550   19.2130 C   0  0  0  0  0  3  0  0  0  0  0  0
  -23.8610  -29.7230   19.9520 C   0  0  0  0  0  2  0  0  0  0  0  0
  -24.7610  -30.9620   21.9700 N   0  0  0  0  0  0  0  0  0  0  0  0
  -23.5000  -31.8340   23.6390 O   0  0  0  0  0  0  0  0  0  0  0  0
  -22.9870  -29.1560   22.2420 C   0  0  0  0  0  0  0  0  0  0  0  0
  -21.6850  -28.8740   22.0790 N   0  0  0  0  0  0  0  0  0  0  0  0
  -23.7110  -28.5380   23.0280 O   0  0  0  0  0  0  0  0  0  0  0  0
  -21.1600  -29.4380   21.4250 H   0  0  0  0  0  0  0  0  0  0  0  0
  -18.4120  -27.3870   22.4470 C   0  0  0  0  0  0  0  0  0  0  0  0
  -20.9380  -27.8250   22.7730 C   0  0  0  0  0  3  0  0  0  0  0  0
  -21.1590  -26.4480   22.1050 C   0  0  0  0  0  2  0  0  0  0  0  0
  -20.0970  -26.1080   21.0560 C   0  0  0  0  0  2  0  0  0  0  0  0
  -18.7020  -26.1020   21.6890 C   0  0  0  0  0  2  0  0  0  0  0  0
  -19.4630  -28.2030   22.9440 C   0  0  0  0  0  0  0  0  0  0  0  0
  -19.1440  -29.4020   23.6150 C   0  0  0  0  0  3  0  0  0  0  0  0
  -17.8040  -29.7920   23.7930 C   0  0  0  0  0  3  0  0  0  0  0  0
  -16.7650  -28.9740   23.3130 C   0  0  0  0  0  3  0  0  0  0  0  0
  -17.0700  -27.7720   22.6490 C   0  0  0  0  0  3  0  0  0  0  0  0
  -25.8270  -32.3890   23.7980 C   0  0  0  0  0  3  0  0  0  0  0  0
  -25.4140  -33.7580   24.1320 N   0  0  0  0  0  0  0  0  0  0  0  0
  -25.6950  -34.8390   23.3920 C   0  0  0  0  0  0  0  0  0  0  0  0
  -26.4040  -34.7940   22.3840 O   0  0  0  0  0  0  0  0  0  0  0  0
  -24.7840  -33.8640   24.9140 H   0  0  0  0  0  0  0  0  0  0  0  0
  -23.8570  -36.5120   22.9990 C   0  0  0  0  0  1  0  0  0  0  0  0
  -25.0970  -36.1850   23.8460 C   0  0  0  0  0  3  0  0  0  0  0  0
  -27.1300  -37.2150   24.7580 C   0  0  0  0  0  1  0  0  0  0  0  0
  -26.0550  -37.3110   23.7740 N   0  0  0  0  0  0  0  0  0  0  0  0
  -25.5760  -38.1970   23.9140 H   0  0  0  0  0  0  0  0  0  0  0  0
  -26.3390  -31.6320   25.0840 C   0  0  1  0  0  0  0  0  0  0  0  0
  -25.2210  -31.3070   26.1020 C   0  0  0  0  0  1  0  0  0  0  0  0
  -27.0280  -30.3030   24.6960 C   0  0  0  0  0  1  0  0  0  0  0  0
  -27.4020  -32.4890   25.8100 C   0  0  0  0  0  1  0  0  0  0  0  0
  1  4  2  0
  2  5  1  0
  3  2  2  0
  3  1  1  0
  4  6  1  0
  5  4  1  0
  5 50  1  0
  6  7  1  0
  8 10  1  0
  8  3  1  0
  9  8  1  0
 10 11  1  0
 11 20  1  0
 12 20  1  0
 13 18  1  0
 14 15  1  0
 14 13  1  0
 16 15  1  0
 16 25  1  0
 16 17  1  0
 18 12  1  0
 18 17  1  0
 19 12  2  0
 20 21  1  0
 22 23  2  0
 23 42  1  0
 24 23  1  0
 24 27  1  0
 25 26  1  0
 25 22  1  0
 26 24  2  0
 27 28  1  0
 28 29  2  0
 30 33  1  0
 30 29  1  0
 31 30  2  0
 32 31  1  0
 32 27  2  0
 33 34  1  0
 34 35  1  0
 35 36  2  0
 37 36  1  0
 37 41  1  0
 38 37  2  0
 39 34  2  0
 39 38  1  0
 40 39  1  0
 42 43  1  0
 43 46  1  0
 43 45  1  0
 44 42  2  0
 47 22  1  0
 47 48  1  0
 49 47  1  0
 51 50  1  0
 52 53  1  0
 52 51  1  0
 54 65  2  0
 55 53  1  0
 55 60  1  0
 56 64  1  0
 56 66  1  0
 57 63  1  0
 57 59  1  0
 58 64  1  0
 59 58  1  0
 60 59  2  0
 61 62  1  0
 61 55  2  0
 62 57  2  0
 63 56  1  0
 64 54  1  0
 66 68  2  0
 67 66  1  0
 69 67  1  0
 70 79  2  0
 70 75  1  0
 71 67  1  0
 71 75  1  0
 72 71  1  0
 73 74  1  0
 73 72  1  0
 74 70  1  0
 75 76  2  0
 76 77  1  0
 78 77  2  0
 79 78  1  0
 80 54  1  0
 80 81  1  0
 80 90  1  0
 81 84  1  0
 82 86  1  0
 82 81  1  0
 83 82  2  0
 86 85  1  0
 88 86  1  0
 88 89  1  0
 88 87  1  0
 90 93  1  1
 90 91  1  0
 92 90  1  0
M  ISO  4  12 100  20 100  52 101  53 101
M  END
>  <TORSDO>  (15) 
F 23

>  <SCORE>  (15) 
-11.956

>  <name>  (15) 
14

>  <ligand_id>  (15) 
14

>  <original_smiles>  (15) 
[H]Oc1c([H])c(N([H])C([H])([H])C([H])([H])N([H])C(=O)N2C([H])([H])C([H])([H])C([H])([H])C([H])(n3nc(-c4c([H])c([H])c(Oc5c([H])c([H])c(F)c([H])c5F)c([H])c4[H])c(C(=O)N([H])[H])c3N([H])[H])C2([H])[H])c([H])n1C([H])([H])C([H])([H])C([H])([H])Oc1c([H])c([H])c2c(c1[H])C([H])([H])N(C(=O)C([H])(N([H])C(=O)C([H])(N([H])C([H])([H])[H])C([H])([H])[H])C(C([H])([H])[H])(C([H])([H])[H])C([H])([H])[H])C([H])(C(=O)N([H])C1([H])c3c([H])c([H])c([H])c([H])c3C([H])([H])C([H])([H])C1([H])[H])C2([H])[H]

>  <smiles>  (15) 
[H]Oc1c([H])c(N([H])C([H])([H])C([H])([H])N([H])C(=O)N2C([H])([H])C([H])([H])C([H])([H])C([H])(n3nc(-c4c([H])c([H])c(Oc5c([H])c([H])c(F)c([H])c5F)c([H])c4[H])c(C(=O)N([H])[H])c3N([H])[H])C2([H])[H])c([H])n1C([H])([H])C([H])([H])C([H])([H])Oc1c([H])c([H])c2c(c1[H])C([H])([H])N(C(=O)C([H])(N([H])C(=O)C([H])(N([H])C([H])([H])[H])C([H])([H])[H])C(C([H])([H])[H])(C([H])([H])[H])C([H])([H])[H])C([H])(C(=O)N([H])C1([H])c3c([H])c([H])c([H])c([H])c3C([H])([H])C([H])([H])C1([H])[H])C2([H])[H]

$$$$
15:0:0
     RDKit          3D

 94103  0  0  1  0  0  0  0  0999 V2000
  -30.5540  -15.0950   20.3840 C   0  0  0  0  0  0  0  0  0  0  0  0
  -30.3560  -12.7320   19.4450 C   0  0  0  0  0  2  0  0  0  0  0  0
  -29.4410  -12.6510   18.2040 C   0  0  0  0  0  2  0  0  0  0  0  0
  -27.9830  -12.4280   18.6370 C   0  0  0  0  0  2  0  0  0  0  0  0
  -27.5640  -13.3660   19.7980 C   0  0  0  0  0  3  0  0  0  0  0  0
  -28.6150  -13.4470   20.9260 C   0  0  0  0  0  2  0  0  0  0  0  0
  -29.8740  -13.8680   20.3010 N   0  0  0  0  0  0  0  0  0  0  0  0
  -31.7670  -14.9960   20.1730 O   0  0  0  0  0  0  0  0  0  0  0  0
  -28.9120  -17.3280   20.0260 C   0  0  0  0  0  2  0  0  0  0  0  0
  -29.4440  -18.6350   20.8110 C   0  0  0  0  0  3  0  0  0  0  0  0
  -30.7630  -17.7400   20.8250 C   0  0  0  0  0  3  0  0  0  0  0  0
  -29.9910  -16.4180   20.6340 N   0  0  0  0  0  0  0  0  0  0  0  0
  -25.1880  -13.9330   20.5320 C   0  0  0  0  0  0  0  0  0  0  0  0
  -24.1230  -13.1580   20.8960 C   0  0  0  0  0  0  0  0  0  0  0  0
  -24.5900  -11.8070   20.8750 C   0  0  0  0  0  0  0  0  0  0  0  0
  -26.2320  -13.0570   20.3010 N   0  0  0  0  0  0  0  0  0  0  0  0
  -25.8840  -11.7730   20.5780 N   0  0  0  0  0  0  0  0  0  0  0  0
  -23.8610  -10.5450   21.0640 C   0  0  0  0  0  0  0  0  0  0  0  0
  -24.2950   -9.5710   21.9910 C   0  0  0  0  0  3  0  0  0  0  0  0
  -23.5630   -8.3780   22.1690 C   0  0  0  0  0  3  0  0  0  0  0  0
  -22.3840   -8.1470   21.4200 C   0  0  0  0  0  0  0  0  0  0  0  0
  -21.9700   -9.1100   20.4820 C   0  0  0  0  0  3  0  0  0  0  0  0
  -22.7030  -10.2950   20.3030 C   0  0  0  0  0  3  0  0  0  0  0  0
  -21.6250   -7.0060   21.5090 O   0  0  0  0  0  0  0  0  0  0  0  0
  -21.5890   -6.2520   22.6550 C   0  0  0  0  0  0  0  0  0  0  0  0
  -21.1980   -6.8010   23.8970 C   0  0  0  0  0  3  0  0  0  0  0  0
  -21.1090   -5.9740   25.0330 C   0  0  0  0  0  3  0  0  0  0  0  0
  -21.3990   -4.6010   24.9310 C   0  0  0  0  0  0  0  0  0  0  0  0
  -21.7810   -4.0510   23.6950 C   0  0  0  0  0  3  0  0  0  0  0  0
  -21.8730   -4.8740   22.5590 C   0  0  0  0  0  0  0  0  0  0  0  0
  -22.2210   -4.3370   21.3660 F   0  0  0  0  0  0  0  0  0  0  0  0
  -21.3050   -3.8040   26.0220 F   0  0  0  0  0  0  0  0  0  0  0  0
  -22.7230  -13.6360   21.1470 C   0  0  0  0  0  0  0  0  0  0  0  0
  -21.9880  -12.9500   22.0150 N   0  0  0  0  0  0  0  0  0  0  0  0
  -22.2910  -14.6550   20.6100 O   0  0  0  0  0  0  0  0  0  0  0  0
  -22.3510  -12.1260   22.4720 H   0  0  0  0  0  0  0  0  0  0  0  0
  -21.0480  -13.2520   22.2270 H   0  0  0  0  0  0  0  0  0  0  0  0
  -25.3510  -15.3030   20.3490 N   0  0  0  0  0  0  0  0  0  0  0  0
  -24.5840  -15.9580   20.4510 H   0  0  0  0  0  0  0  0  0  0  0  0
  -26.2030  -15.7360   20.0190 H   0  0  0  0  0  0  0  0  0  0  0  0
  -29.5000  -20.1760   20.2910 N   0  0  0  0  0  4  0  0  0  0  0  0
  -30.4090  -20.4880   20.5890 H   0  0  0  0  0  0  0  0  0  0  0  0
  -29.5350  -20.1480   19.2860 H   0  0  0  0  0  0  0  0  0  0  0  0
  -28.5820  -21.4460   20.6760 C   0  0  0  0  0  2  0  0  0  0  0  0
  -28.9700  -23.1110   20.3670 C   0  0  0  0  0  3  0  0  0  0  0  0
  -27.9550  -24.5070   20.4580 C   0  0  0  0  0  3  0  0  0  0  0  0
  -28.2650  -26.0690   20.3600 O   0  0  0  0  0  0  0  0  0  0  0  0
  -24.6630  -31.9110   23.2430 C   0  0  0  0  0  0  0  0  0  0  0  0
  -27.2300  -27.0980   20.2930 C   0  0  0  0  0  0  0  0  0  0  0  0
  -23.4710  -30.4960   21.6190 C   0  0  0  0  0  3  0  0  0  0  0  0
  -24.9220  -28.8970   20.2190 C   0  0  0  0  0  0  0  0  0  0  0  0
  -26.0300  -30.7400   21.4650 C   0  0  0  0  0  2  0  0  0  0  0  0
  -26.1040  -29.3340   20.8300 C   0  0  0  0  0  0  0  0  0  0  0  0
  -27.2590  -28.4530   20.8430 C   0  0  0  0  0  3  0  0  0  0  0  0
  -26.0210  -26.7840   19.6350 C   0  0  0  0  0  3  0  0  0  0  0  0
  -24.8980  -27.6390   19.6020 C   0  0  0  0  0  3  0  0  0  0  0  0
  -23.6990  -29.8040   20.2500 C   0  0  0  0  0  2  0  0  0  0  0  0
  -24.7420  -31.0740   22.1630 N   0  0  0  0  0  0  0  0  0  0  0  0
  -23.5740  -32.2030   23.7620 O   0  0  0  0  0  0  0  0  0  0  0  0
  -22.7840  -29.5020   22.5920 C   0  0  0  0  0  0  0  0  0  0  0  0
  -21.4550  -29.3350   22.4650 N   0  0  0  0  0  0  0  0  0  0  0  0
  -23.4510  -28.8850   23.4260 O   0  0  0  0  0  0  0  0  0  0  0  0
  -20.9720  -29.8840   21.7680 H   0  0  0  0  0  0  0  0  0  0  0  0
  -18.0710  -28.1390   22.9740 C   0  0  0  0  0  0  0  0  0  0  0  0
  -20.6300  -28.4080   23.2460 C   0  0  0  0  0  3  0  0  0  0  0  0
  -20.7330  -26.9680   22.6920 C   0  0  0  0  0  2  0  0  0  0  0  0
  -19.6350  -26.6300   21.6780 C   0  0  0  0  0  2  0  0  0  0  0  0
  -18.2520  -26.7820   22.3150 C   0  0  0  0  0  2  0  0  0  0  0  0
  -19.1880  -28.9100   23.3970 C   0  0  0  0  0  0  0  0  0  0  0  0
  -18.9630  -30.1770   23.9740 C   0  0  0  0  0  3  0  0  0  0  0  0
  -17.6570  -30.6770   24.1330 C   0  0  0  0  0  3  0  0  0  0  0  0
  -16.5550  -29.9040   23.7250 C   0  0  0  0  0  3  0  0  0  0  0  0
  -16.7630  -28.6380   23.1520 C   0  0  0  0  0  3  0  0  0  0  0  0
  -25.9360  -32.5580   23.8680 C   0  0  0  0  0  3  0  0  0  0  0  0
  -25.6140  -33.9560   24.1980 N   0  0  0  0  0  0  0  0  0  0  0  0
  -25.9310  -35.0150   23.4420 C   0  0  0  0  0  0  0  0  0  0  0  0
  -26.5920  -34.9170   22.4040 O   0  0  0  0  0  0  0  0  0  0  0  0
  -25.0260  -34.1050   25.0060 H   0  0  0  0  0  0  0  0  0  0  0  0
  -24.1810  -36.7960   23.1210 C   0  0  0  0  0  1  0  0  0  0  0  0
  -25.4420  -36.4010   23.9070 C   0  0  0  0  0  3  0  0  0  0  0  0
  -27.5840  -37.3060   24.6950 C   0  0  0  0  0  1  0  0  0  0  0  0
  -26.4620  -37.4630   23.7730 N   0  0  0  0  0  0  0  0  0  0  0  0
  -26.0510  -38.3800   23.9280 H   0  0  0  0  0  0  0  0  0  0  0  0
  -26.4490  -31.7980   25.1530 C   0  0  1  0  0  0  0  0  0  0  0  0
  -25.3530  -31.5660   26.2210 C   0  0  0  0  0  1  0  0  0  0  0  0
  -27.0360  -30.4170   24.7780 C   0  0  0  0  0  1  0  0  0  0  0  0
  -27.5960  -32.5990   25.8120 C   0  0  0  0  0  1  0  0  0  0  0  0
  -31.8910  -17.9830   19.7890 C   0  0  0  0  0  2  0  0  0  0  0  0
  -32.3310  -17.5840   17.3880 C   0  0  0  0  0  3  0  0  0  0  0  0
  -31.5600  -18.8730   17.3990 C   0  0  1  0  0  0  0  0  0  0  0  0
  -32.3320  -20.1420   17.7400 C   0  0  0  0  0  1  0  0  0  0  0  0
  -30.3370  -18.9570   16.5070 C   0  0  0  0  0  1  0  0  0  0  0  0
  -31.4060  -17.8200   18.4100 N   0  0  0  0  0  0  0  0  0  0  0  0
  -33.5110  -17.3200   17.6370 O   0  0  0  0  0  1  0  0  0  0  0  0
  1 12  1  0
  2  7  1  0
  3  4  1  0
  3  2  1  0
  5  4  1  0
  5 16  1  0
  5  6  1  0
  7  1  1  0
  7  6  1  0
  8  1  2  0
  9 12  1  0
  9 10  1  0
 10 41  1  0
 10 11  1  0
 11 88  1  0
 12 11  1  0
 13 14  2  0
 14 33  1  0
 15 14  1  0
 15 18  1  0
 16 13  1  0
 16 17  1  0
 17 15  2  0
 18 19  1  0
 19 20  2  0
 21 24  1  0
 21 20  1  0
 22 21  2  0
 23 22  1  0
 23 18  2  0
 24 25  1  0
 25 26  1  0
 26 27  2  0
 28 27  1  0
 28 32  1  0
 29 28  2  0
 30 25  2  0
 30 29  1  0
 31 30  1  0
 33 34  1  0
 34 37  1  0
 34 36  1  0
 35 33  2  0
 38 39  1  0
 38 13  1  0
 40 38  1  0
 41 42  1  0
 41 44  1  0
 43 41  1  0
 45 46  2  0
 45 44  1  0
 47 46  1  0
 48 59  2  0
 49 47  1  0
 49 54  1  0
 50 58  1  0
 50 60  1  0
 51 57  1  0
 51 53  1  0
 52 58  1  0
 53 54  2  0
 53 52  1  0
 55 49  2  0
 56 55  1  0
 56 51  2  0
 57 50  1  0
 58 48  1  0
 60 62  2  0
 61 60  1  0
 63 61  1  0
 64 73  2  0
 64 69  1  0
 65 61  1  0
 65 69  1  0
 66 65  1  0
 67 68  1  0
 67 66  1  0
 68 64  1  0
 69 70  2  0
 70 71  1  0
 72 71  2  0
 73 72  1  0
 74 48  1  0
 74 75  1  0
 74 84  1  0
 75 78  1  0
 76 80  1  0
 76 75  1  0
 77 76  2  0
 80 79  1  0
 82 80  1  0
 82 83  1  0
 82 81  1  0
 84 87  1  1
 84 85  1  0
 86 84  1  0
 89 90  1  0
 89 94  1  0
 89 93  1  0
 90 91  1  1
 90 93  1  0
 92 90  1  0
 93 88  1  0
M  ISO  4   1 100  12 100  46 101  47 101
M  END
>  <TORSDO>  (16) 
F 21

>  <SCORE>  (16) 
-14.782

>  <name>  (16) 
15

>  <ligand_id>  (16) 
15

>  <original_smiles>  (16) 
[H]c1c([H])c([H])c2c(c1[H])C([H])([H])C([H])([H])C([H])([H])C2([H])N([H])C(=O)C1([H])N(C(=O)C([H])(N([H])C(=O)C([H])(N([H])C([H])([H])[H])C([H])([H])[H])C(C([H])([H])[H])(C([H])([H])[H])C([H])([H])[H])C([H])([H])c2c([H])c(OC([H])([H])C([H])([H])C([H])([H])[N+]([H])([H])C3([H])C([H])([H])N(C(=O)N4C([H])([H])C([H])([H])C([H])([H])C([H])(n5nc(-c6c([H])c([H])c(Oc7c([H])c([H])c(F)c([H])c7F)c([H])c6[H])c(C(=O)N([H])[H])c5N([H])[H])C4([H])[H])C3([H])C([H])([H])N3C(=O)C3(C([H])([H])[H])C([H])([H])[H])c([H])c([H])c2C1([H])[H]

>  <smiles>  (16) 
[H]c1c([H])c([H])c2c(c1[H])C([H])([H])C([H])([H])C([H])([H])C2([H])N([H])C(=O)C1([H])N(C(=O)C([H])(N([H])C(=O)C([H])(N([H])C([H])([H])[H])C([H])([H])[H])C(C([H])([H])[H])(C([H])([H])[H])C([H])([H])[H])C([H])([H])c2c([H])c(OC([H])([H])C([H])([H])C([H])([H])[N+]([H])([H])C3([H])C([H])([H])N(C(=O)N4C([H])([H])C([H])([H])C([H])([H])C([H])(n5nc(-c6c([H])c([H])c(Oc7c([H])c([H])c(F)c([H])c7F)c([H])c6[H])c(C(=O)N([H])[H])c5N([H])[H])C4([H])[H])C3([H])C([H])([H])N3C(=O)C3(C([H])([H])[H])C([H])([H])[H])c([H])c([H])c2C1([H])[H]

$$$$
16:0:0
     RDKit          3D

 95103  0  0  1  0  0  0  0  0999 V2000
  -30.2330  -21.4020   22.0370 C   0  0  0  0  0  0  0  0  0  0  0  0
  -29.1770  -22.2260   21.9820 N   0  0  0  0  0  0  0  0  0  0  0  0
  -31.0200  -21.2680   21.0970 O   0  0  0  0  0  0  0  0  0  0  0  0
  -28.6240  -22.3080   22.8250 H   0  0  0  0  0  0  0  0  0  0  0  0
  -26.8230  -23.8450   21.1660 C   0  0  0  0  0  0  0  0  0  0  0  0
  -27.2280  -22.5200   20.4920 C   0  0  0  0  0  2  0  0  0  0  0  0
  -28.2670  -24.3890   21.0110 C   0  0  0  0  0  3  0  0  0  0  0  0
  -28.6980  -22.9100   20.7690 C   0  0  0  0  0  3  0  0  0  0  0  0
  -25.7910  -24.2590   21.6980 O   0  0  0  0  0  0  0  0  0  0  0  0
  -28.3980  -25.4020   19.8540 C   0  0  0  0  0  2  0  0  0  0  0  0
  -28.3120  -26.7750   20.2620 O   0  0  0  0  0  0  0  0  0  0  0  0
  -24.5890  -31.9960   23.2900 C   0  0  0  0  0  0  0  0  0  0  0  0
  -27.1190  -27.4680   20.2410 C   0  0  0  0  0  0  0  0  0  0  0  0
  -23.3370  -30.5950   21.6800 C   0  0  0  0  0  3  0  0  0  0  0  0
  -24.7460  -29.0140   20.2590 C   0  0  0  0  0  0  0  0  0  0  0  0
  -25.8640  -30.9100   21.4460 C   0  0  0  0  0  2  0  0  0  0  0  0
  -25.9170  -29.5270   20.8280 C   0  0  0  0  0  0  0  0  0  0  0  0
  -27.1010  -28.7580   20.8180 C   0  0  0  0  0  3  0  0  0  0  0  0
  -25.9270  -26.9730   19.6590 C   0  0  0  0  0  3  0  0  0  0  0  0
  -24.7460  -27.7380   19.6750 C   0  0  0  0  0  3  0  0  0  0  0  0
  -23.5200  -29.8950   20.3040 C   0  0  0  0  0  2  0  0  0  0  0  0
  -24.6170  -31.1820   22.1980 N   0  0  0  0  0  0  0  0  0  0  0  0
  -23.5210  -32.2910   23.8440 O   0  0  0  0  0  0  0  0  0  0  0  0
  -22.6830  -29.5970   22.6620 C   0  0  0  0  0  0  0  0  0  0  0  0
  -21.3610  -29.4000   22.5250 N   0  0  0  0  0  0  0  0  0  0  0  0
  -23.3610  -29.0000   23.5030 O   0  0  0  0  0  0  0  0  0  0  0  0
  -20.8770  -29.9320   21.8160 H   0  0  0  0  0  0  0  0  0  0  0  0
  -18.0010  -28.1570   22.9820 C   0  0  0  0  0  0  0  0  0  0  0  0
  -20.5440  -28.4810   23.3150 C   0  0  0  0  0  3  0  0  0  0  0  0
  -20.6930  -27.0280   22.8060 C   0  0  0  0  0  2  0  0  0  0  0  0
  -19.6280  -26.6380   21.7780 C   0  0  0  0  0  2  0  0  0  0  0  0
  -18.2240  -26.7830   22.3730 C   0  0  0  0  0  2  0  0  0  0  0  0
  -19.0910  -28.9600   23.4100 C   0  0  0  0  0  0  0  0  0  0  0  0
  -18.8280  -30.2440   23.9380 C   0  0  0  0  0  3  0  0  0  0  0  0
  -17.5100  -30.7250   24.0420 C   0  0  0  0  0  3  0  0  0  0  0  0
  -16.4340  -29.9190   23.6300 C   0  0  0  0  0  3  0  0  0  0  0  0
  -16.6800  -28.6370   23.1050 C   0  0  0  0  0  3  0  0  0  0  0  0
  -25.8960  -32.6130   23.8790 C   0  0  0  0  0  3  0  0  0  0  0  0
  -25.6170  -34.0180   24.2040 N   0  0  0  0  0  0  0  0  0  0  0  0
  -25.9320  -35.0560   23.4170 C   0  0  0  0  0  0  0  0  0  0  0  0
  -26.5610  -34.9300   22.3620 O   0  0  0  0  0  0  0  0  0  0  0  0
  -25.0600  -34.1900   25.0280 H   0  0  0  0  0  0  0  0  0  0  0  0
  -24.2020  -36.8530   23.1050 C   0  0  0  0  0  1  0  0  0  0  0  0
  -25.4750  -36.4550   23.8710 C   0  0  0  0  0  3  0  0  0  0  0  0
  -27.6470  -37.3390   24.5970 C   0  0  0  0  0  1  0  0  0  0  0  0
  -26.5080  -37.4990   23.6960 N   0  0  0  0  0  0  0  0  0  0  0  0
  -26.1130  -38.4220   23.8470 H   0  0  0  0  0  0  0  0  0  0  0  0
  -26.4310  -31.8420   25.1480 C   0  0  1  0  0  0  0  0  0  0  0  0
  -25.3510  -31.6030   26.2290 C   0  0  0  0  0  1  0  0  0  0  0  0
  -27.0100  -30.4640   24.7480 C   0  0  0  0  0  1  0  0  0  0  0  0
  -27.5900  -32.6360   25.7960 C   0  0  0  0  0  1  0  0  0  0  0  0
  -30.4280  -20.6140   23.3390 C   0  0  0  0  0  2  0  0  0  0  0  0
  -31.1290  -18.5430   24.5900 C   0  0  0  0  0  1  0  0  0  0  0  0
  -30.9670  -19.1620   23.1890 C   0  0  0  0  0  3  0  0  0  0  0  0
  -30.1020  -18.2320   22.2870 C   0  0  0  0  0  2  0  0  0  0  0  0
  -30.7210  -17.8950   20.9130 C   0  0  0  0  0  2  0  0  0  0  0  0
  -31.7220  -16.7190   20.9120 C   0  0  0  0  0  2  0  0  0  0  0  0
  -31.6120  -14.3610   20.1510 C   0  0  0  0  0  0  0  0  0  0  0  0
  -31.0720  -12.2710   18.9630 C   0  0  0  0  0  2  0  0  0  0  0  0
  -30.1300  -12.5850   17.7860 C   0  0  0  0  0  2  0  0  0  0  0  0
  -28.6620  -12.5710   18.2500 C   0  0  0  0  0  2  0  0  0  0  0  0
  -28.4290  -13.4140   19.5330 C   0  0  0  0  0  3  0  0  0  0  0  0
  -29.4850  -13.0870   20.6130 C   0  0  0  0  0  2  0  0  0  0  0  0
  -30.8190  -13.2680   20.0160 N   0  0  0  0  0  0  0  0  0  0  0  0
  -32.7190  -14.4550   19.6100 O   0  0  0  0  0  0  0  0  0  0  0  0
  -31.0810  -15.4020   20.8110 N   0  0  0  0  0  0  0  0  0  0  0  0
  -30.1580  -15.2860   21.2040 H   0  0  0  0  0  0  0  0  0  0  0  0
  -26.1200  -14.2140   20.3360 C   0  0  0  0  0  0  0  0  0  0  0  0
  -24.9930  -13.5310   20.7090 C   0  0  0  0  0  0  0  0  0  0  0  0
  -25.3210  -12.1440   20.6080 C   0  0  0  0  0  0  0  0  0  0  0  0
  -27.0690  -13.2480   20.0400 N   0  0  0  0  0  0  0  0  0  0  0  0
  -26.5930  -11.9960   20.2570 N   0  0  0  0  0  0  0  0  0  0  0  0
  -24.4820  -10.9490   20.7700 C   0  0  0  0  0  0  0  0  0  0  0  0
  -24.8450   -9.9050   21.6510 C   0  0  0  0  0  3  0  0  0  0  0  0
  -24.0120   -8.7760   21.8020 C   0  0  0  0  0  3  0  0  0  0  0  0
  -22.8040   -8.6820   21.0730 C   0  0  0  0  0  0  0  0  0  0  0  0
  -22.4590   -9.7120   20.1800 C   0  0  0  0  0  3  0  0  0  0  0  0
  -23.2920  -10.8340   20.0250 C   0  0  0  0  0  3  0  0  0  0  0  0
  -21.9460   -7.6100   21.1370 O   0  0  0  0  0  0  0  0  0  0  0  0
  -21.8270   -6.8490   22.2730 C   0  0  0  0  0  0  0  0  0  0  0  0
  -21.4530   -7.4130   23.5110 C   0  0  0  0  0  3  0  0  0  0  0  0
  -21.2740   -6.5830   24.6370 C   0  0  0  0  0  3  0  0  0  0  0  0
  -21.4610   -5.1930   24.5250 C   0  0  0  0  0  0  0  0  0  0  0  0
  -21.8300   -4.6290   23.2910 C   0  0  0  0  0  3  0  0  0  0  0  0
  -22.0090   -5.4550   22.1670 C   0  0  0  0  0  0  0  0  0  0  0  0
  -22.3430   -4.9040   20.9750 F   0  0  0  0  0  0  0  0  0  0  0  0
  -21.2840   -4.3950   25.6040 F   0  0  0  0  0  0  0  0  0  0  0  0
  -23.6550  -14.1260   21.0440 C   0  0  0  0  0  0  0  0  0  0  0  0
  -22.8950  -13.4770   21.9200 N   0  0  0  0  0  0  0  0  0  0  0  0
  -23.2970  -15.2010   20.5660 O   0  0  0  0  0  0  0  0  0  0  0  0
  -23.1970  -12.6040   22.3290 H   0  0  0  0  0  0  0  0  0  0  0  0
  -21.9990  -13.8580   22.1870 H   0  0  0  0  0  0  0  0  0  0  0  0
  -26.4070  -15.5690   20.2070 N   0  0  0  0  0  0  0  0  0  0  0  0
  -25.7020  -16.2830   20.3560 H   0  0  0  0  0  0  0  0  0  0  0  0
  -27.2810  -15.9420   19.8610 H   0  0  0  0  0  0  0  0  0  0  0  0
  1 52  1  0
  2  1  1  0
  2  4  1  0
  3  1  2  0
  5  9  2  0
  6  8  1  0
  6  5  1  0
  7 10  1  0
  7  5  1  0
  8  7  1  0
  8  2  1  0
 10 11  1  0
 12 23  2  0
 13 11  1  0
 13 18  1  0
 14 22  1  0
 14 24  1  0
 15 21  1  0
 15 17  1  0
 16 22  1  0
 17 16  1  0
 18 17  2  0
 19 20  1  0
 19 13  2  0
 20 15  2  0
 21 14  1  0
 22 12  1  0
 24 26  2  0
 25 24  1  0
 27 25  1  0
 28 37  2  0
 28 33  1  0
 29 25  1  0
 29 33  1  0
 30 29  1  0
 31 32  1  0
 31 30  1  0
 32 28  1  0
 33 34  2  0
 34 35  1  0
 36 35  2  0
 37 36  1  0
 38 12  1  0
 38 39  1  0
 38 48  1  0
 39 42  1  0
 40 44  1  0
 40 39  1  0
 41 40  2  0
 44 43  1  0
 46 47  1  0
 46 44  1  0
 46 45  1  0
 48 51  1  1
 48 49  1  0
 50 48  1  0
 54 52  1  0
 54 53  1  0
 55 54  1  0
 56 55  1  0
 57 56  1  0
 58 66  1  0
 59 64  1  0
 60 61  1  0
 60 59  1  0
 62 61  1  0
 62 71  1  0
 62 63  1  0
 64 58  1  0
 64 63  1  0
 65 58  2  0
 66 57  1  0
 66 67  1  0
 68 69  2  0
 69 88  1  0
 70 69  1  0
 70 73  1  0
 71 72  1  0
 71 68  1  0
 72 70  2  0
 73 74  1  0
 74 75  2  0
 76 79  1  0
 76 75  1  0
 77 76  2  0
 78 77  1  0
 78 73  2  0
 79 80  1  0
 80 81  1  0
 81 82  2  0
 83 82  1  0
 83 87  1  0
 84 83  2  0
 85 80  2  0
 85 84  1  0
 86 85  1  0
 88 89  1  0
 89 92  1  0
 89 91  1  0
 90 88  2  0
 93 68  1  0
 93 94  1  0
 95 93  1  0
M  ISO  4  10 101  11 101  58 100  66 100
M  END
>  <TORSDO>  (17) 
F 23

>  <SCORE>  (17) 
-10.337

>  <name>  (17) 
16

>  <ligand_id>  (17) 
16

>  <original_smiles>  (17) 
[H]c1c([H])c([H])c2c(c1[H])C([H])([H])C([H])([H])C([H])([H])C2([H])N([H])C(=O)C1([H])N(C(=O)C([H])(N([H])C(=O)C([H])(N([H])C([H])([H])[H])C([H])([H])[H])C(C([H])([H])[H])(C([H])([H])[H])C([H])([H])[H])C([H])([H])c2c([H])c(OC([H])([H])C3([H])C(=O)C([H])([H])C3([H])N([H])C(=O)C([H])([H])C([H])(C([H])([H])[H])C([H])([H])C([H])([H])C([H])([H])N([H])C(=O)N3C([H])([H])C([H])([H])C([H])([H])C([H])(n4nc(-c5c([H])c([H])c(Oc6c([H])c([H])c(F)c([H])c6F)c([H])c5[H])c(C(=O)N([H])[H])c4N([H])[H])C3([H])[H])c([H])c([H])c2C1([H])[H]

>  <smiles>  (17) 
[H]c1c([H])c([H])c2c(c1[H])C([H])([H])C([H])([H])C([H])([H])C2([H])N([H])C(=O)C1([H])N(C(=O)C([H])(N([H])C(=O)C([H])(N([H])C([H])([H])[H])C([H])([H])[H])C(C([H])([H])[H])(C([H])([H])[H])C([H])([H])[H])C([H])([H])c2c([H])c(OC([H])([H])C3([H])C(=O)C([H])([H])C3([H])N([H])C(=O)C([H])([H])C([H])(C([H])([H])[H])C([H])([H])C([H])([H])C([H])([H])N([H])C(=O)N3C([H])([H])C([H])([H])C([H])([H])C([H])(n4nc(-c5c([H])c([H])c(Oc6c([H])c([H])c(F)c([H])c6F)c([H])c5[H])c(C(=O)N([H])[H])c4N([H])[H])C3([H])[H])c([H])c([H])c2C1([H])[H]

$$$$
17:0:0
     RDKit          3D

 89 97  0  0  1  0  0  0  0  0999 V2000
  -26.8690  -21.3770   18.9950 C   0  0  0  0  0  2  0  0  0  0  0  0
  -28.1060  -21.7190   18.6130 C   0  0  0  0  0  2  0  0  0  0  0  0
  -27.1570  -21.6310   20.4610 C   0  0  0  0  0  2  0  0  0  0  0  0
  -28.6160  -21.9410   20.0340 C   0  0  1  0  0  0  0  0  0  0  0  0
  -29.6470  -20.6820   20.3440 C   0  0  0  0  0  0  0  0  0  0  0  0
  -30.8090  -20.8950   20.6990 O   0  0  0  0  0  0  0  0  0  0  0  0
  -29.2350  -19.0840   20.2360 C   0  0  0  0  0  3  0  0  0  0  0  0
  -30.3070  -17.8030   20.4310 C   0  0  0  0  0  3  0  0  0  0  0  0
  -30.6920  -15.1000   20.3200 C   0  0  0  0  0  0  0  0  0  0  0  0
  -30.5650  -12.7630   19.3710 C   0  0  0  0  0  2  0  0  0  0  0  0
  -29.6280  -12.7350   18.1420 C   0  0  0  0  0  2  0  0  0  0  0  0
  -28.1660  -12.5200   18.5800 C   0  0  0  0  0  2  0  0  0  0  0  0
  -27.7610  -13.4360   19.7650 C   0  0  0  0  0  3  0  0  0  0  0  0
  -28.8210  -13.4430   20.8870 C   0  0  0  0  0  2  0  0  0  0  0  0
  -30.0910  -13.8470   20.2730 N   0  0  0  0  0  0  0  0  0  0  0  0
  -31.8910  -15.1740   20.0390 O   0  0  0  0  0  0  0  0  0  0  0  0
  -29.9160  -16.2760   20.4740 N   0  0  0  0  0  0  0  0  0  0  0  0
  -28.9390  -16.0940   20.6480 H   0  0  0  0  0  0  0  0  0  0  0  0
  -25.3800  -13.9950   20.5200 C   0  0  0  0  0  0  0  0  0  0  0  0
  -24.3230  -13.2110   20.8870 C   0  0  0  0  0  0  0  0  0  0  0  0
  -24.7950  -11.8630   20.8420 C   0  0  0  0  0  0  0  0  0  0  0  0
  -26.4280  -13.1260   20.2670 N   0  0  0  0  0  0  0  0  0  0  0  0
  -26.0850  -11.8380   20.5260 N   0  0  0  0  0  0  0  0  0  0  0  0
  -24.0760  -10.5940   21.0220 C   0  0  0  0  0  0  0  0  0  0  0  0
  -24.5000   -9.6320   21.9640 C   0  0  0  0  0  3  0  0  0  0  0  0
  -23.7800   -8.4290   22.1320 C   0  0  0  0  0  3  0  0  0  0  0  0
  -22.6220   -8.1800   21.3570 C   0  0  0  0  0  0  0  0  0  0  0  0
  -22.2180   -9.1320   20.4040 C   0  0  0  0  0  3  0  0  0  0  0  0
  -22.9380  -10.3260   20.2340 C   0  0  0  0  0  3  0  0  0  0  0  0
  -21.8740   -7.0300   21.4340 O   0  0  0  0  0  0  0  0  0  0  0  0
  -21.7810   -6.3100   22.5980 C   0  0  0  0  0  0  0  0  0  0  0  0
  -21.2410   -6.8660   23.7770 C   0  0  0  0  0  3  0  0  0  0  0  0
  -21.0990   -6.0690   24.9310 C   0  0  0  0  0  3  0  0  0  0  0  0
  -21.4870   -4.7150   24.9040 C   0  0  0  0  0  0  0  0  0  0  0  0
  -22.0180   -4.1580   23.7280 C   0  0  0  0  0  3  0  0  0  0  0  0
  -22.1620   -4.9530   22.5770 C   0  0  0  0  0  0  0  0  0  0  0  0
  -22.6560   -4.4050   21.4410 F   0  0  0  0  0  0  0  0  0  0  0  0
  -21.3430   -3.9470   26.0100 F   0  0  0  0  0  0  0  0  0  0  0  0
  -22.9230  -13.6770   21.1660 C   0  0  0  0  0  0  0  0  0  0  0  0
  -22.2040  -12.9730   22.0340 N   0  0  0  0  0  0  0  0  0  0  0  0
  -22.4760  -14.7010   20.6520 O   0  0  0  0  0  0  0  0  0  0  0  0
  -22.5780  -12.1440   22.4710 H   0  0  0  0  0  0  0  0  0  0  0  0
  -21.2660  -13.2680   22.2640 H   0  0  0  0  0  0  0  0  0  0  0  0
  -25.5330  -15.3680   20.3520 N   0  0  0  0  0  0  0  0  0  0  0  0
  -24.7570  -16.0120   20.4600 H   0  0  0  0  0  0  0  0  0  0  0  0
  -26.3630  -15.8120   19.9810 H   0  0  0  0  0  0  0  0  0  0  0  0
  -29.0820  -23.5460   20.1940 C   0  0  0  0  0  3  0  0  0  0  0  0
  -28.0600  -24.8490   19.9140 C   0  0  0  0  0  3  0  0  0  0  0  0
  -28.3260  -26.3610   20.1300 O   0  0  0  0  0  0  0  0  0  0  0  0
  -24.6140  -31.9040   23.2310 C   0  0  0  0  0  0  0  0  0  0  0  0
  -27.2550  -27.3230   20.0810 C   0  0  0  0  0  0  0  0  0  0  0  0
  -23.4340  -30.5400   21.5520 C   0  0  0  0  0  3  0  0  0  0  0  0
  -24.9030  -29.0250   20.0900 C   0  0  0  0  0  0  0  0  0  0  0  0
  -25.9830  -30.8450   21.4010 C   0  0  0  0  0  2  0  0  0  0  0  0
  -26.0750  -29.4730   20.7110 C   0  0  0  0  0  0  0  0  0  0  0  0
  -27.2520  -28.6390   20.6920 C   0  0  0  0  0  3  0  0  0  0  0  0
  -26.0550  -26.9730   19.4230 C   0  0  0  0  0  3  0  0  0  0  0  0
  -24.9050  -27.7880   19.4310 C   0  0  0  0  0  3  0  0  0  0  0  0
  -23.6640  -29.9030   20.1570 C   0  0  0  0  0  2  0  0  0  0  0  0
  -24.6970  -31.1160   22.1170 N   0  0  0  0  0  0  0  0  0  0  0  0
  -23.5240  -32.1620   23.7640 O   0  0  0  0  0  0  0  0  0  0  0  0
  -22.7650  -29.4980   22.4850 C   0  0  0  0  0  0  0  0  0  0  0  0
  -21.4460  -29.2910   22.3250 N   0  0  0  0  0  0  0  0  0  0  0  0
  -23.4360  -28.8800   23.3140 O   0  0  0  0  0  0  0  0  0  0  0  0
  -20.9600  -29.8440   21.6320 H   0  0  0  0  0  0  0  0  0  0  0  0
  -18.0930  -27.9760   22.7190 C   0  0  0  0  0  0  0  0  0  0  0  0
  -20.6330  -28.3220   23.0650 C   0  0  0  0  0  3  0  0  0  0  0  0
  -20.8000  -26.8970   22.4840 C   0  0  0  0  0  2  0  0  0  0  0  0
  -19.7400  -26.5450   21.4360 C   0  0  0  0  0  2  0  0  0  0  0  0
  -18.3350  -26.6390   22.0380 C   0  0  0  0  0  2  0  0  0  0  0  0
  -19.1730  -28.7730   23.1860 C   0  0  0  0  0  0  0  0  0  0  0  0
  -18.8930  -30.0220   23.7830 C   0  0  0  0  0  3  0  0  0  0  0  0
  -17.5660  -30.4760   23.9150 C   0  0  0  0  0  3  0  0  0  0  0  0
  -16.5020  -29.6770   23.4620 C   0  0  0  0  0  3  0  0  0  0  0  0
  -16.7660  -28.4290   22.8710 C   0  0  0  0  0  3  0  0  0  0  0  0
  -25.8830  -32.5370   23.8780 C   0  0  0  0  0  3  0  0  0  0  0  0
  -25.5700  -33.9370   24.2050 N   0  0  0  0  0  0  0  0  0  0  0  0
  -25.8950  -34.9910   23.4420 C   0  0  0  0  0  0  0  0  0  0  0  0
  -26.5590  -34.8850   22.4080 O   0  0  0  0  0  0  0  0  0  0  0  0
  -24.9820  -34.0920   25.0100 H   0  0  0  0  0  0  0  0  0  0  0  0
  -24.1610  -36.7800   23.1000 C   0  0  0  0  0  1  0  0  0  0  0  0
  -25.4110  -36.3800   23.9010 C   0  0  0  0  0  3  0  0  0  0  0  0
  -27.5440  -37.2800   24.7210 C   0  0  0  0  0  1  0  0  0  0  0  0
  -26.4400  -37.4340   23.7760 N   0  0  0  0  0  0  0  0  0  0  0  0
  -26.0320  -38.3550   23.9140 H   0  0  0  0  0  0  0  0  0  0  0  0
  -26.3700  -31.7680   25.1690 C   0  0  1  0  0  0  0  0  0  0  0  0
  -25.2520  -31.5360   26.2130 C   0  0  0  0  0  1  0  0  0  0  0  0
  -26.9570  -30.3880   24.7970 C   0  0  0  0  0  1  0  0  0  0  0  0
  -27.5070  -32.5610   25.8540 C   0  0  0  0  0  1  0  0  0  0  0  0
  1  3  1  0
  2  1  1  0
  2  4  1  0
  4 47  1  6
  4  5  1  0
  4  3  1  0
  5  6  2  0
  7  5  1  0
  7  8  2  0
  8 17  1  0
  9 17  1  0
 10 15  1  0
 11 12  1  0
 11 10  1  0
 13 12  1  0
 13 22  1  0
 13 14  1  0
 15  9  1  0
 15 14  1  0
 16  9  2  0
 17 18  1  0
 19 20  2  0
 20 39  1  0
 21 20  1  0
 21 24  1  0
 22 19  1  0
 22 23  1  0
 23 21  2  0
 24 25  1  0
 25 26  2  0
 27 30  1  0
 27 26  1  0
 28 27  2  0
 29 28  1  0
 29 24  2  0
 30 31  1  0
 31 32  1  0
 32 33  2  0
 34 33  1  0
 34 38  1  0
 35 34  2  0
 36 31  2  0
 36 35  1  0
 37 36  1  0
 39 40  1  0
 40 43  1  0
 40 42  1  0
 41 39  2  0
 44 45  1  0
 44 19  1  0
 46 44  1  0
 48 49  1  0
 48 47  2  0
 50 61  2  0
 51 49  1  0
 51 56  1  0
 52 60  1  0
 52 62  1  0
 53 59  1  0
 53 55  1  0
 54 60  1  0
 55 54  1  0
 56 55  2  0
 57 58  1  0
 57 51  2  0
 58 53  2  0
 59 52  1  0
 60 50  1  0
 62 64  2  0
 63 62  1  0
 65 63  1  0
 66 75  2  0
 66 71  1  0
 67 63  1  0
 67 71  1  0
 68 67  1  0
 69 70  1  0
 69 68  1  0
 70 66  1  0
 71 72  2  0
 72 73  1  0
 74 73  2  0
 75 74  1  0
 76 50  1  0
 76 77  1  0
 76 86  1  0
 77 80  1  0
 78 82  1  0
 78 77  1  0
 79 78  2  0
 82 81  1  0
 84 82  1  0
 84 85  1  0
 84 83  1  0
 86 89  1  1
 86 87  1  0
 88 86  1  0
M  ISO  4   9 100  17 100  48 101  49 101
M  END
>  <TORSDO>  (18) 
F 21

>  <SCORE>  (18) 
-13.033

>  <name>  (18) 
17

>  <ligand_id>  (18) 
17

>  <original_smiles>  (18) 
[H]C1=C([H])C(C(=O)C([H])([H])C([H])([H])N([H])C(=O)N2C([H])([H])C([H])([H])C([H])([H])C([H])(n3nc(-c4c([H])c([H])c(Oc5c([H])c([H])c(F)c([H])c5F)c([H])c4[H])c(C(=O)N([H])[H])c3N([H])[H])C2([H])[H])(C([H])([H])C([H])([H])Oc2c([H])c([H])c3c(c2[H])C([H])([H])N(C(=O)C([H])(N([H])C(=O)C([H])(N([H])C([H])([H])[H])C([H])([H])[H])C(C([H])([H])[H])(C([H])([H])[H])C([H])([H])[H])C([H])(C(=O)N([H])C2([H])c4c([H])c([H])c([H])c([H])c4C([H])([H])C([H])([H])C2([H])[H])C3([H])[H])C1([H])[H]

>  <smiles>  (18) 
[H]C1=C([H])C(C(=O)C([H])([H])C([H])([H])N([H])C(=O)N2C([H])([H])C([H])([H])C([H])([H])C([H])(n3nc(-c4c([H])c([H])c(Oc5c([H])c([H])c(F)c([H])c5F)c([H])c4[H])c(C(=O)N([H])[H])c3N([H])[H])C2([H])[H])(C([H])([H])C([H])([H])Oc2c([H])c([H])c3c(c2[H])C([H])([H])N(C(=O)C([H])(N([H])C(=O)C([H])(N([H])C([H])([H])[H])C([H])([H])[H])C(C([H])([H])[H])(C([H])([H])[H])C([H])([H])[H])C([H])(C(=O)N([H])C2([H])c4c([H])c([H])c([H])c([H])c4C([H])([H])C([H])([H])C2([H])[H])C3([H])[H])C1([H])[H]

$$$$
18:0:0
     RDKit          3D

 89 97  0  0  1  0  0  0  0  0999 V2000
  -30.9540  -18.5690   20.1940 C   0  0  0  0  0  3  0  0  0  0  0  0
  -28.7660  -18.8080   20.3790 C   0  0  0  0  0  3  0  0  0  0  0  0
  -29.7620  -17.7860   20.3500 C   0  0  0  0  0  0  0  0  0  0  0  0
  -30.6320  -19.9270   20.1410 C   0  0  0  0  0  0  0  0  0  0  0  0
  -29.2590  -20.1820   20.2490 N   0  0  0  0  0  0  0  0  0  0  0  0
  -30.4520  -15.0710   20.3000 C   0  0  0  0  0  0  0  0  0  0  0  0
  -30.3660  -12.7000   19.3680 C   0  0  0  0  0  2  0  0  0  0  0  0
  -29.4160  -12.6350   18.1480 C   0  0  0  0  0  2  0  0  0  0  0  0
  -27.9610  -12.4080   18.5970 C   0  0  0  0  0  2  0  0  0  0  0  0
  -27.5590  -13.3220   19.7830 C   0  0  0  0  0  3  0  0  0  0  0  0
  -28.6310  -13.3500   20.8930 C   0  0  0  0  0  2  0  0  0  0  0  0
  -29.8840  -13.7920   20.2670 N   0  0  0  0  0  0  0  0  0  0  0  0
  -31.6550  -15.1460   20.0200 O   0  0  0  0  0  0  0  0  0  0  0  0
  -29.6250  -16.2380   20.4500 N   0  0  0  0  0  0  0  0  0  0  0  0
  -28.6740  -15.9510   20.6280 H   0  0  0  0  0  0  0  0  0  0  0  0
  -25.1890  -13.8800   20.5620 C   0  0  0  0  0  0  0  0  0  0  0  0
  -24.1330  -13.0970   20.9390 C   0  0  0  0  0  0  0  0  0  0  0  0
  -24.6030  -11.7480   20.8900 C   0  0  0  0  0  0  0  0  0  0  0  0
  -26.2320  -13.0090   20.2980 N   0  0  0  0  0  0  0  0  0  0  0  0
  -25.8900  -11.7210   20.5610 N   0  0  0  0  0  0  0  0  0  0  0  0
  -23.8840  -10.4810   21.0750 C   0  0  0  0  0  0  0  0  0  0  0  0
  -24.3280   -9.5050   21.9940 C   0  0  0  0  0  3  0  0  0  0  0  0
  -23.6070   -8.3040   22.1680 C   0  0  0  0  0  3  0  0  0  0  0  0
  -22.4260   -8.0720   21.4230 C   0  0  0  0  0  0  0  0  0  0  0  0
  -22.0000   -9.0360   20.4930 C   0  0  0  0  0  3  0  0  0  0  0  0
  -22.7230  -10.2290   20.3170 C   0  0  0  0  0  3  0  0  0  0  0  0
  -21.6750   -6.9240   21.5080 O   0  0  0  0  0  0  0  0  0  0  0  0
  -21.6370   -6.1720   22.6550 C   0  0  0  0  0  0  0  0  0  0  0  0
  -21.2000   -6.7090   23.8850 C   0  0  0  0  0  3  0  0  0  0  0  0
  -21.1110   -5.8830   25.0230 C   0  0  0  0  0  3  0  0  0  0  0  0
  -21.4490   -4.5190   24.9310 C   0  0  0  0  0  0  0  0  0  0  0  0
  -21.8790   -3.9810   23.7060 C   0  0  0  0  0  3  0  0  0  0  0  0
  -21.9700   -4.8050   22.5700 C   0  0  0  0  0  0  0  0  0  0  0  0
  -22.3660   -4.2760   21.3880 F   0  0  0  0  0  0  0  0  0  0  0  0
  -21.3560   -3.7220   26.0220 F   0  0  0  0  0  0  0  0  0  0  0  0
  -22.7370  -13.5670   21.2260 C   0  0  0  0  0  0  0  0  0  0  0  0
  -22.0190  -12.8620   22.0930 N   0  0  0  0  0  0  0  0  0  0  0  0
  -22.2910  -14.5950   20.7190 O   0  0  0  0  0  0  0  0  0  0  0  0
  -22.3910  -12.0310   22.5280 H   0  0  0  0  0  0  0  0  0  0  0  0
  -21.0830  -13.1610   22.3290 H   0  0  0  0  0  0  0  0  0  0  0  0
  -25.3420  -15.2540   20.3940 N   0  0  0  0  0  0  0  0  0  0  0  0
  -24.5650  -15.8970   20.5070 H   0  0  0  0  0  0  0  0  0  0  0  0
  -26.1620  -15.6930   19.9960 H   0  0  0  0  0  0  0  0  0  0  0  0
  -31.4910  -20.9680   19.9770 O   0  0  0  0  0  0  0  0  0  0  0  0
  -30.9820  -21.7710   20.0000 H   0  0  0  0  0  0  0  0  0  0  0  0
  -28.4380  -21.5690   20.1150 C   0  0  0  0  0  2  0  0  0  0  0  0
  -28.9060  -23.1960   20.3880 C   0  0  0  0  0  3  0  0  0  0  0  0
  -27.9280  -24.5850   20.1260 C   0  0  0  0  0  3  0  0  0  0  0  0
  -28.2100  -26.1240   20.3500 O   0  0  0  0  0  0  0  0  0  0  0  0
  -24.6300  -31.9250   23.2810 C   0  0  0  0  0  0  0  0  0  0  0  0
  -27.1730  -27.1430   20.2760 C   0  0  0  0  0  0  0  0  0  0  0  0
  -23.4270  -30.5310   21.6450 C   0  0  0  0  0  3  0  0  0  0  0  0
  -24.8680  -28.9370   20.2290 C   0  0  0  0  0  0  0  0  0  0  0  0
  -25.9870  -30.7640   21.4920 C   0  0  0  0  0  2  0  0  0  0  0  0
  -26.0510  -29.3650   20.8430 C   0  0  0  0  0  0  0  0  0  0  0  0
  -27.2040  -28.4870   20.8470 C   0  0  0  0  0  3  0  0  0  0  0  0
  -25.9620  -26.8280   19.6220 C   0  0  0  0  0  3  0  0  0  0  0  0
  -24.8380  -27.6830   19.6020 C   0  0  0  0  0  3  0  0  0  0  0  0
  -23.6490  -29.8490   20.2700 C   0  0  0  0  0  2  0  0  0  0  0  0
  -24.7020  -31.0970   22.1940 N   0  0  0  0  0  0  0  0  0  0  0  0
  -23.5440  -32.2230   23.8020 O   0  0  0  0  0  0  0  0  0  0  0  0
  -22.7330  -29.5360   22.6090 C   0  0  0  0  0  0  0  0  0  0  0  0
  -21.4050  -29.3750   22.4760 N   0  0  0  0  0  0  0  0  0  0  0  0
  -23.3950  -28.9110   23.4430 O   0  0  0  0  0  0  0  0  0  0  0  0
  -20.9270  -29.9290   21.7800 H   0  0  0  0  0  0  0  0  0  0  0  0
  -18.0130  -28.1940   22.9630 C   0  0  0  0  0  0  0  0  0  0  0  0
  -20.5720  -28.4480   23.2480 C   0  0  0  0  0  3  0  0  0  0  0  0
  -20.6720  -27.0100   22.6860 C   0  0  0  0  0  2  0  0  0  0  0  0
  -19.5760  -26.6840   21.6660 C   0  0  0  0  0  2  0  0  0  0  0  0
  -18.1900  -26.8390   22.2970 C   0  0  0  0  0  2  0  0  0  0  0  0
  -19.1320  -28.9550   23.3950 C   0  0  0  0  0  0  0  0  0  0  0  0
  -18.9110  -30.2220   23.9790 C   0  0  0  0  0  3  0  0  0  0  0  0
  -17.6060  -30.7270   24.1330 C   0  0  0  0  0  3  0  0  0  0  0  0
  -16.5030  -29.9620   23.7160 C   0  0  0  0  0  3  0  0  0  0  0  0
  -16.7070  -28.6970   23.1370 C   0  0  0  0  0  3  0  0  0  0  0  0
  -25.9090  -32.5550   23.9120 C   0  0  0  0  0  3  0  0  0  0  0  0
  -26.4040  -31.7890   25.2010 C   0  0  1  0  0  0  0  0  0  0  0  0
  -25.3000  -31.5720   26.2610 C   0  0  0  0  0  1  0  0  0  0  0  0
  -26.9790  -30.4020   24.8320 C   0  0  0  0  0  1  0  0  0  0  0  0
  -27.5560  -32.5800   25.8680 C   0  0  0  0  0  1  0  0  0  0  0  0
  -25.6060  -33.9580   24.2360 N   0  0  0  0  0  0  0  0  0  0  0  0
  -25.9280  -35.0080   23.4680 C   0  0  0  0  0  0  0  0  0  0  0  0
  -26.5770  -34.8960   22.4250 O   0  0  0  0  0  0  0  0  0  0  0  0
  -25.0260  -34.1190   25.0460 H   0  0  0  0  0  0  0  0  0  0  0  0
  -24.1920  -36.8030   23.1570 C   0  0  0  0  0  1  0  0  0  0  0  0
  -25.4580  -36.4020   23.9300 C   0  0  0  0  0  3  0  0  0  0  0  0
  -27.6170  -37.2990   24.6850 C   0  0  0  0  0  1  0  0  0  0  0  0
  -26.4870  -37.4530   23.7720 N   0  0  0  0  0  0  0  0  0  0  0  0
  -26.0850  -38.3760   23.9180 H   0  0  0  0  0  0  0  0  0  0  0  0
  1  3  1  0
  3  2  2  0
  3 14  1  0
  4  1  2  0
  4  5  1  0
  5  2  1  0
  6 14  1  0
  7 12  1  0
  8  9  1  0
  8  7  1  0
 10  9  1  0
 10 19  1  0
 10 11  1  0
 12  6  1  0
 12 11  1  0
 13  6  2  0
 14 15  1  0
 16 17  2  0
 17 36  1  0
 18 17  1  0
 18 21  1  0
 19 20  1  0
 19 16  1  0
 20 18  2  0
 21 22  1  0
 22 23  2  0
 24 27  1  0
 24 23  1  0
 25 24  2  0
 26 25  1  0
 26 21  2  0
 27 28  1  0
 28 29  1  0
 29 30  2  0
 31 30  1  0
 31 35  1  0
 32 31  2  0
 33 28  2  0
 33 32  1  0
 34 33  1  0
 36 37  1  0
 37 40  1  0
 37 39  1  0
 38 36  2  0
 41 42  1  0
 41 16  1  0
 43 41  1  0
 44 45  1  0
 44  4  1  0
 46  5  1  0
 46 47  1  0
 48 49  1  0
 48 47  2  0
 50 61  2  0
 51 49  1  0
 51 56  1  0
 52 60  1  0
 52 62  1  0
 53 59  1  0
 53 55  1  0
 54 60  1  0
 55 56  2  0
 55 54  1  0
 57 51  2  0
 58 57  1  0
 58 53  2  0
 59 52  1  0
 60 50  1  0
 62 64  2  0
 63 62  1  0
 65 63  1  0
 66 75  2  0
 66 71  1  0
 67 63  1  0
 67 71  1  0
 68 67  1  0
 69 70  1  0
 69 68  1  0
 70 66  1  0
 71 72  2  0
 72 73  1  0
 74 73  2  0
 75 74  1  0
 76 50  1  0
 76 81  1  0
 76 77  1  0
 77 80  1  1
 77 78  1  0
 79 77  1  0
 81 84  1  0
 82 86  1  0
 82 81  1  0
 83 82  2  0
 86 85  1  0
 88 89  1  0
 88 86  1  0
 88 87  1  0
M  ISO  4   6 100  14 100  48 101  49 101
M  END
>  <TORSDO>  (19) 
F 20

>  <SCORE>  (19) 
-15.257

>  <name>  (19) 
18

>  <ligand_id>  (19) 
18

>  <original_smiles>  (19) 
[H]Oc1c([H])c(N([H])C(=O)N2C([H])([H])C([H])([H])C([H])([H])C([H])(n3nc(-c4c([H])c([H])c(Oc5c([H])c([H])c(F)c([H])c5F)c([H])c4[H])c(C(=O)N([H])[H])c3N([H])[H])C2([H])[H])c([H])n1C([H])([H])C([H])([H])C([H])([H])Oc1c([H])c([H])c2c(c1[H])C([H])([H])N(C(=O)C([H])(N([H])C(=O)C([H])(N([H])C([H])([H])[H])C([H])([H])[H])C(C([H])([H])[H])(C([H])([H])[H])C([H])([H])[H])C([H])(C(=O)N([H])C1([H])c3c([H])c([H])c([H])c([H])c3C([H])([H])C([H])([H])C1([H])[H])C2([H])[H]

>  <smiles>  (19) 
[H]Oc1c([H])c(N([H])C(=O)N2C([H])([H])C([H])([H])C([H])([H])C([H])(n3nc(-c4c([H])c([H])c(Oc5c([H])c([H])c(F)c([H])c5F)c([H])c4[H])c(C(=O)N([H])[H])c3N([H])[H])C2([H])[H])c([H])n1C([H])([H])C([H])([H])C([H])([H])Oc1c([H])c([H])c2c(c1[H])C([H])([H])N(C(=O)C([H])(N([H])C(=O)C([H])(N([H])C([H])([H])[H])C([H])([H])[H])C(C([H])([H])[H])(C([H])([H])[H])C([H])([H])[H])C([H])(C(=O)N([H])C1([H])c3c([H])c([H])c([H])c([H])c3C([H])([H])C([H])([H])C1([H])[H])C2([H])[H]

$$$$
19:0:0
     RDKit          3D

 91101  0  0  1  0  0  0  0  0999 V2000
  -30.6540  -22.0310   20.8780 C   0  0  0  0  0  2  0  0  0  0  0  0
  -29.2360  -20.4820   20.8290 C   0  0  0  0  0  3  0  0  0  0  0  0
  -30.2890  -20.8870   21.8550 C   0  0  0  0  0  3  0  0  0  0  0  0
  -29.8380  -21.1580   23.2910 C   0  0  0  0  0  1  0  0  0  0  0  0
  -29.2980  -22.0090   20.3080 N   0  0  1  0  0  4  0  0  0  0  0  0
  -29.3280  -22.0240   19.2980 H   0  0  0  0  0  0  0  0  0  0  0  0
  -30.6760  -15.2060   20.4570 C   0  0  0  0  0  0  0  0  0  0  0  0
  -30.6890  -12.8050   19.6080 C   0  0  0  0  0  2  0  0  0  0  0  0
  -29.8000  -12.6150   18.3560 C   0  0  0  0  0  2  0  0  0  0  0  0
  -28.3110  -12.4350   18.7310 C   0  0  0  0  0  2  0  0  0  0  0  0
  -27.8370  -13.3700   19.8750 C   0  0  0  0  0  3  0  0  0  0  0  0
  -28.8600  -13.4520   21.0250 C   0  0  0  0  0  2  0  0  0  0  0  0
  -30.1280  -13.9160   20.4370 N   0  0  0  0  0  0  0  0  0  0  0  0
  -31.9110  -15.2610   20.3450 O   0  0  0  0  0  0  0  0  0  0  0  0
  -30.0590  -17.8180   19.7620 C   0  0  1  0  0  0  0  0  0  0  0  0
  -29.8130  -19.2330   19.9160 C   0  0  0  0  0  2  0  0  0  0  0  0
  -29.2620  -16.3150   18.9140 C   0  0  0  0  0  3  0  0  0  0  0  0
  -30.3660  -17.2560   18.4020 C   0  0  0  0  0  3  0  0  0  0  0  0
  -30.0680  -18.0970   17.1640 C   0  0  0  0  0  1  0  0  0  0  0  0
  -29.8440  -16.3940   20.2830 N   0  0  0  0  0  0  0  0  0  0  0  0
  -25.4290  -13.9450   20.5140 C   0  0  0  0  0  0  0  0  0  0  0  0
  -24.3570  -13.1660   20.8460 C   0  0  0  0  0  0  0  0  0  0  0  0
  -24.8370  -11.8180   20.8550 C   0  0  0  0  0  0  0  0  0  0  0  0
  -26.4880  -13.0700   20.3290 N   0  0  0  0  0  0  0  0  0  0  0  0
  -26.1380  -11.7880   20.5980 N   0  0  0  0  0  0  0  0  0  0  0  0
  -24.1240  -10.5490   21.0330 C   0  0  0  0  0  0  0  0  0  0  0  0
  -24.5310   -9.5970   21.9930 C   0  0  0  0  0  3  0  0  0  0  0  0
  -23.8100   -8.3940   22.1580 C   0  0  0  0  0  3  0  0  0  0  0  0
  -22.6690   -8.1350   21.3610 C   0  0  0  0  0  0  0  0  0  0  0  0
  -22.2820   -9.0760   20.3910 C   0  0  0  0  0  3  0  0  0  0  0  0
  -23.0050  -10.2690   20.2230 C   0  0  0  0  0  3  0  0  0  0  0  0
  -21.9270   -6.9800   21.4320 O   0  0  0  0  0  0  0  0  0  0  0  0
  -21.8450   -6.2480   22.5880 C   0  0  0  0  0  0  0  0  0  0  0  0
  -21.3590   -6.8080   23.7900 C   0  0  0  0  0  3  0  0  0  0  0  0
  -21.2270   -6.0040   24.9390 C   0  0  0  0  0  3  0  0  0  0  0  0
  -21.5720   -4.6400   24.8870 C   0  0  0  0  0  0  0  0  0  0  0  0
  -22.0530   -4.0790   23.6910 C   0  0  0  0  0  3  0  0  0  0  0  0
  -22.1870   -4.8800   22.5450 C   0  0  0  0  0  0  0  0  0  0  0  0
  -22.6300   -4.3340   21.3870 F   0  0  0  0  0  0  0  0  0  0  0  0
  -21.4380   -3.8640   25.9880 F   0  0  0  0  0  0  0  0  0  0  0  0
  -22.9460  -13.6320   21.0490 C   0  0  0  0  0  0  0  0  0  0  0  0
  -22.1800  -12.9460   21.8920 N   0  0  0  0  0  0  0  0  0  0  0  0
  -22.5240  -14.6470   20.4950 O   0  0  0  0  0  0  0  0  0  0  0  0
  -22.5280  -12.1330   22.3780 H   0  0  0  0  0  0  0  0  0  0  0  0
  -21.2310  -13.2510   22.0660 H   0  0  0  0  0  0  0  0  0  0  0  0
  -25.5870  -15.3160   20.3290 N   0  0  0  0  0  0  0  0  0  0  0  0
  -24.8250  -15.9770   20.4420 H   0  0  0  0  0  0  0  0  0  0  0  0
  -26.4600  -15.7580   20.0690 H   0  0  0  0  0  0  0  0  0  0  0  0
  -28.4360  -23.2850   20.7740 C   0  0  0  0  0  2  0  0  0  0  0  0
  -28.4150  -24.7780   19.9440 C   0  0  0  0  0  2  0  0  0  0  0  0
  -28.2820  -26.2690   20.4340 O   0  0  0  0  0  0  0  0  0  0  0  0
  -24.5430  -31.9180   23.2610 C   0  0  0  0  0  0  0  0  0  0  0  0
  -27.1910  -27.2080   20.2810 C   0  0  0  0  0  0  0  0  0  0  0  0
  -23.3620  -30.5000   21.6230 C   0  0  0  0  0  3  0  0  0  0  0  0
  -24.8350  -28.9300   20.2060 C   0  0  0  0  0  0  0  0  0  0  0  0
  -25.9070  -30.7980   21.4610 C   0  0  0  0  0  2  0  0  0  0  0  0
  -26.0010  -29.3980   20.8220 C   0  0  0  0  0  0  0  0  0  0  0  0
  -27.1750  -28.5570   20.8360 C   0  0  0  0  0  3  0  0  0  0  0  0
  -26.0030  -26.8410   19.6180 C   0  0  0  0  0  3  0  0  0  0  0  0
  -24.8540  -27.6700   19.5790 C   0  0  0  0  0  3  0  0  0  0  0  0
  -23.5930  -29.8080   20.2500 C   0  0  0  0  0  2  0  0  0  0  0  0
  -24.6240  -31.0950   22.1700 N   0  0  0  0  0  0  0  0  0  0  0  0
  -23.4530  -32.1960   23.7830 O   0  0  0  0  0  0  0  0  0  0  0  0
  -22.6880  -29.4960   22.5930 C   0  0  0  0  0  0  0  0  0  0  0  0
  -21.3600  -29.3190   22.4650 N   0  0  0  0  0  0  0  0  0  0  0  0
  -23.3650  -28.8810   23.4210 O   0  0  0  0  0  0  0  0  0  0  0  0
  -20.8720  -29.8680   21.7710 H   0  0  0  0  0  0  0  0  0  0  0  0
  -17.9890  -28.1030   22.9630 C   0  0  0  0  0  0  0  0  0  0  0  0
  -20.5430  -28.3810   23.2390 C   0  0  0  0  0  3  0  0  0  0  0  0
  -20.6550  -26.9450   22.6710 C   0  0  0  0  0  2  0  0  0  0  0  0
  -19.5610  -26.6120   21.6530 C   0  0  0  0  0  2  0  0  0  0  0  0
  -18.1750  -26.7530   22.2900 C   0  0  0  0  0  2  0  0  0  0  0  0
  -19.1000  -28.8740   23.3930 C   0  0  0  0  0  0  0  0  0  0  0  0
  -18.8660  -30.1380   23.9800 C   0  0  0  0  0  3  0  0  0  0  0  0
  -17.5550  -30.6260   24.1430 C   0  0  0  0  0  3  0  0  0  0  0  0
  -16.4600  -29.8500   23.7290 C   0  0  0  0  0  3  0  0  0  0  0  0
  -16.6770  -28.5900   23.1420 C   0  0  0  0  0  3  0  0  0  0  0  0
  -25.8170  -32.5680   23.8880 C   0  0  0  0  0  3  0  0  0  0  0  0
  -25.5000  -33.9720   24.1910 N   0  0  0  0  0  0  0  0  0  0  0  0
  -25.8530  -35.0180   23.4310 C   0  0  0  0  0  0  0  0  0  0  0  0
  -26.5420  -34.8990   22.4150 O   0  0  0  0  0  0  0  0  0  0  0  0
  -24.8870  -34.1350   24.9760 H   0  0  0  0  0  0  0  0  0  0  0  0
  -24.1440  -36.8210   23.0180 C   0  0  0  0  0  1  0  0  0  0  0  0
  -25.3620  -36.4100   23.8640 C   0  0  0  0  0  3  0  0  0  0  0  0
  -27.4770  -37.2930   24.7490 C   0  0  0  0  0  1  0  0  0  0  0  0
  -26.4020  -37.4570   23.7750 N   0  0  0  0  0  0  0  0  0  0  0  0
  -25.9950  -38.3800   23.9040 H   0  0  0  0  0  0  0  0  0  0  0  0
  -26.3100  -31.8270   25.1920 C   0  0  1  0  0  0  0  0  0  0  0  0
  -25.1970  -31.6230   26.2460 C   0  0  0  0  0  1  0  0  0  0  0  0
  -26.8960  -30.4400   24.8460 C   0  0  0  0  0  1  0  0  0  0  0  0
  -27.4510  -32.6340   25.8580 C   0  0  0  0  0  1  0  0  0  0  0  0
  1  3  1  0
  2 16  1  0
  2  3  1  0
  3  4  1  0
  5 49  1  0
  5  2  1  0
  5  1  1  0
  5  6  1  6
  8 13  1  0
  9 10  1  0
  9  8  1  0
 11 10  1  0
 11 24  1  0
 11 12  1  0
 13  7  1  0
 13 12  1  0
 14  7  2  0
 15 16  1  1
 15 20  1  0
 17 15  1  0
 17 20  1  0
 18 19  1  0
 18 17  1  0
 18 15  1  0
 20  7  1  0
 21 22  2  0
 22 23  1  0
 22 41  1  0
 23 26  1  0
 24 21  1  0
 24 25  1  0
 25 23  2  0
 26 27  1  0
 27 28  2  0
 29 32  1  0
 29 28  1  0
 30 29  2  0
 31 30  1  0
 31 26  2  0
 32 33  1  0
 33 34  1  0
 34 35  2  0
 36 35  1  0
 36 40  1  0
 37 36  2  0
 38 33  2  0
 38 37  1  0
 39 38  1  0
 41 42  1  0
 42 45  1  0
 42 44  1  0
 43 41  2  0
 46 47  1  0
 46 21  1  0
 48 46  1  0
 50 51  1  0
 50 49  1  0
 52 63  2  0
 53 51  1  0
 53 58  1  0
 54 62  1  0
 54 64  1  0
 55 61  1  0
 55 57  1  0
 56 62  1  0
 57 58  2  0
 57 56  1  0
 59 53  2  0
 60 59  1  0
 60 55  2  0
 61 54  1  0
 62 52  1  0
 64 66  2  0
 65 64  1  0
 67 65  1  0
 68 77  2  0
 68 73  1  0
 69 65  1  0
 69 73  1  0
 70 69  1  0
 71 72  1  0
 71 70  1  0
 72 68  1  0
 73 74  2  0
 74 75  1  0
 76 75  2  0
 77 76  1  0
 78 52  1  0
 78 79  1  0
 78 88  1  0
 79 82  1  0
 80 84  1  0
 80 79  1  0
 81 80  2  0
 84 83  1  0
 86 84  1  0
 86 87  1  0
 86 85  1  0
 88 91  1  1
 88 89  1  0
 90 88  1  0
M  ISO  4   7 100  20 100  50 101  51 101
M  END
>  <TORSDO>  (20) 
F 18

>  <SCORE>  (20) 
-14.923

>  <name>  (20) 
19

>  <ligand_id>  (20) 
19

>  <original_smiles>  (20) 
[H]C(=C1N(C(=O)N2C([H])([H])C([H])([H])C([H])([H])C([H])(n3nc(-c4c([H])c([H])c(Oc5c([H])c([H])c(F)c([H])c5F)c([H])c4[H])c(C(=O)N([H])[H])c3N([H])[H])C2([H])[H])C([H])([H])C1([H])C([H])([H])[H])C1([H])C([H])(C([H])([H])[H])C([H])([H])[N+]1([H])C([H])([H])C([H])([H])Oc1c([H])c([H])c2c(c1[H])C([H])([H])N(C(=O)C([H])(N([H])C(=O)C([H])(N([H])C([H])([H])[H])C([H])([H])[H])C(C([H])([H])[H])(C([H])([H])[H])C([H])([H])[H])C([H])(C(=O)N([H])C1([H])c3c([H])c([H])c([H])c([H])c3C([H])([H])C([H])([H])C1([H])[H])C2([H])[H]

>  <smiles>  (20) 
[H]C(=C1N(C(=O)N2C([H])([H])C([H])([H])C([H])([H])C([H])(n3nc(-c4c([H])c([H])c(Oc5c([H])c([H])c(F)c([H])c5F)c([H])c4[H])c(C(=O)N([H])[H])c3N([H])[H])C2([H])[H])C([H])([H])C1([H])C([H])([H])[H])C1([H])C([H])(C([H])([H])[H])C([H])([H])[N+]1([H])C([H])([H])C([H])([H])Oc1c([H])c([H])c2c(c1[H])C([H])([H])N(C(=O)C([H])(N([H])C(=O)C([H])(N([H])C([H])([H])[H])C([H])([H])[H])C(C([H])([H])[H])(C([H])([H])[H])C([H])([H])[H])C([H])(C(=O)N([H])C1([H])c3c([H])c([H])c([H])c([H])c3C([H])([H])C([H])([H])C1([H])[H])C2([H])[H]

$$$$
20:0:0
     RDKit          3D

 93102  0  0  1  0  0  0  0  0999 V2000
  -27.1570  -21.2920   20.5270 C   0  0  0  0  0  2  0  0  0  0  0  0
  -26.7020  -22.7360   20.3470 C   0  0  0  0  0  2  0  0  0  0  0  0
  -28.5740  -21.8170   20.2730 C   0  0  0  0  0  3  0  0  0  0  0  0
  -27.9230  -22.9420   19.5570 N   0  0  2  0  0  4  0  0  0  0  0  0
  -27.7300  -22.6300   18.6150 H   0  0  0  0  0  0  0  0  0  0  0  0
  -29.5470  -20.9690   19.4240 C   0  0  0  0  0  2  0  0  0  0  0  0
  -30.7420  -14.5320   20.3910 C   0  0  0  0  0  0  0  0  0  0  0  0
  -30.4460  -12.3830   19.2100 C   0  0  0  0  0  2  0  0  0  0  0  0
  -29.5000  -12.6130   18.0110 C   0  0  0  0  0  2  0  0  0  0  0  0
  -28.0260  -12.4760   18.4410 C   0  0  0  0  0  2  0  0  0  0  0  0
  -27.6960  -13.2940   19.7190 C   0  0  0  0  0  3  0  0  0  0  0  0
  -28.7520  -13.0410   20.8210 C   0  0  0  0  0  2  0  0  0  0  0  0
  -30.0820  -13.3470   20.2630 N   0  0  0  0  0  0  0  0  0  0  0  0
  -31.8490  -14.7380   19.8830 O   0  0  0  0  0  0  0  0  0  0  0  0
  -29.1610  -18.4750   18.9870 C   0  0  0  0  0  3  0  0  0  0  0  0
  -29.3310  -17.1310   19.3790 C   0  0  0  0  0  3  0  0  0  0  0  0
  -29.6600  -19.4880   19.8310 C   0  0  0  0  0  0  0  0  0  0  0  0
  -29.9910  -16.8590   20.5990 C   0  0  0  0  0  0  0  0  0  0  0  0
  -30.2910  -19.1750   20.9950 N   0  0  0  0  0  0  0  0  0  0  0  0
  -30.4370  -17.8900   21.3720 N   0  0  0  0  0  0  0  0  0  0  0  0
  -30.0670  -15.5060   21.0300 N   0  0  0  0  0  0  0  0  0  0  0  0
  -29.2620  -15.1840   21.5440 H   0  0  0  0  0  0  0  0  0  0  0  0
  -25.2920  -13.9030   20.4070 C   0  0  0  0  0  0  0  0  0  0  0  0
  -24.2240  -13.1320   20.7800 C   0  0  0  0  0  0  0  0  0  0  0  0
  -24.6910  -11.7820   20.7710 C   0  0  0  0  0  0  0  0  0  0  0  0
  -26.3410  -13.0230   20.1940 N   0  0  0  0  0  0  0  0  0  0  0  0
  -25.9820  -11.7420   20.4690 N   0  0  0  0  0  0  0  0  0  0  0  0
  -23.9680  -10.5200   20.9760 C   0  0  0  0  0  0  0  0  0  0  0  0
  -24.4010   -9.5670   21.9250 C   0  0  0  0  0  3  0  0  0  0  0  0
  -23.6810   -8.3690   22.1180 C   0  0  0  0  0  3  0  0  0  0  0  0
  -22.5110   -8.1150   21.3610 C   0  0  0  0  0  0  0  0  0  0  0  0
  -22.0960   -9.0560   20.4040 C   0  0  0  0  0  3  0  0  0  0  0  0
  -22.8180  -10.2460   20.2100 C   0  0  0  0  0  3  0  0  0  0  0  0
  -21.7630   -6.9670   21.4620 O   0  0  0  0  0  0  0  0  0  0  0  0
  -21.7170   -6.2380   22.6220 C   0  0  0  0  0  0  0  0  0  0  0  0
  -21.2840   -6.8040   23.8420 C   0  0  0  0  0  3  0  0  0  0  0  0
  -21.1850   -5.9990   24.9950 C   0  0  0  0  0  3  0  0  0  0  0  0
  -21.5110   -4.6310   24.9300 C   0  0  0  0  0  0  0  0  0  0  0  0
  -21.9370   -4.0650   23.7150 C   0  0  0  0  0  3  0  0  0  0  0  0
  -22.0380   -4.8670   22.5650 C   0  0  0  0  0  0  0  0  0  0  0  0
  -22.4290   -4.3130   21.3920 F   0  0  0  0  0  0  0  0  0  0  0  0
  -21.4080   -3.8570   26.0340 F   0  0  0  0  0  0  0  0  0  0  0  0
  -22.8250  -13.6080   21.0400 C   0  0  0  0  0  0  0  0  0  0  0  0
  -22.0970  -12.9210   21.9140 N   0  0  0  0  0  0  0  0  0  0  0  0
  -22.3840  -14.6250   20.5060 O   0  0  0  0  0  0  0  0  0  0  0  0
  -22.4640  -12.0990   22.3690 H   0  0  0  0  0  0  0  0  0  0  0  0
  -21.1590  -13.2250   22.1320 H   0  0  0  0  0  0  0  0  0  0  0  0
  -25.4530  -15.2710   20.2150 N   0  0  0  0  0  0  0  0  0  0  0  0
  -24.6820  -15.9210   20.3150 H   0  0  0  0  0  0  0  0  0  0  0  0
  -26.3020  -15.7140   19.8850 H   0  0  0  0  0  0  0  0  0  0  0  0
  -28.5330  -24.3160   19.4670 C   0  0  0  0  0  2  0  0  0  0  0  0
  -28.2960  -25.3320   20.6270 C   0  0  0  0  0  2  0  0  0  0  0  0
  -28.4550  -26.7160   20.2200 O   0  0  0  0  0  0  0  0  0  0  0  0
  -24.5970  -31.9140   23.2230 C   0  0  0  0  0  0  0  0  0  0  0  0
  -27.2980  -27.4740   20.1740 C   0  0  0  0  0  0  0  0  0  0  0  0
  -23.4200  -30.5110   21.5600 C   0  0  0  0  0  3  0  0  0  0  0  0
  -24.9010  -28.9850   20.1500 C   0  0  0  0  0  0  0  0  0  0  0  0
  -25.9480  -30.8790   21.3990 C   0  0  0  0  0  2  0  0  0  0  0  0
  -26.0500  -29.5100   20.7530 C   0  0  0  0  0  0  0  0  0  0  0  0
  -27.2550  -28.7650   20.7560 C   0  0  0  0  0  3  0  0  0  0  0  0
  -26.1310  -26.9720   19.5550 C   0  0  0  0  0  3  0  0  0  0  0  0
  -24.9390  -27.7170   19.5440 C   0  0  0  0  0  3  0  0  0  0  0  0
  -23.6510  -29.8360   20.1820 C   0  0  0  0  0  2  0  0  0  0  0  0
  -24.6730  -31.1170   22.1180 N   0  0  0  0  0  0  0  0  0  0  0  0
  -23.5070  -32.1800   23.7490 O   0  0  0  0  0  0  0  0  0  0  0  0
  -22.7590  -29.4850   22.5100 C   0  0  0  0  0  0  0  0  0  0  0  0
  -21.4360  -29.3010   22.3670 N   0  0  0  0  0  0  0  0  0  0  0  0
  -23.4350  -28.8600   23.3310 O   0  0  0  0  0  0  0  0  0  0  0  0
  -20.9540  -29.8560   21.6750 H   0  0  0  0  0  0  0  0  0  0  0  0
  -18.0620  -28.0880   22.8110 C   0  0  0  0  0  0  0  0  0  0  0  0
  -20.6150  -28.3540   23.1210 C   0  0  0  0  0  3  0  0  0  0  0  0
  -20.7330  -26.9270   22.5360 C   0  0  0  0  0  2  0  0  0  0  0  0
  -19.6450  -26.6070   21.5060 C   0  0  0  0  0  2  0  0  0  0  0  0
  -18.2540  -26.7430   22.1310 C   0  0  0  0  0  2  0  0  0  0  0  0
  -19.1720  -28.8520   23.2610 C   0  0  0  0  0  0  0  0  0  0  0  0
  -18.9390  -30.1130   23.8540 C   0  0  0  0  0  3  0  0  0  0  0  0
  -17.6300  -30.6080   24.0000 C   0  0  0  0  0  3  0  0  0  0  0  0
  -16.5340  -29.8410   23.5660 C   0  0  0  0  0  3  0  0  0  0  0  0
  -16.7510  -28.5820   22.9790 C   0  0  0  0  0  3  0  0  0  0  0  0
  -25.8710  -32.5480   23.8640 C   0  0  0  0  0  3  0  0  0  0  0  0
  -26.3700  -31.7790   25.1480 C   0  0  1  0  0  0  0  0  0  0  0  0
  -25.2630  -31.5420   26.2010 C   0  0  0  0  0  1  0  0  0  0  0  0
  -26.9640  -30.4040   24.7660 C   0  0  0  0  0  1  0  0  0  0  0  0
  -27.5100  -32.5760   25.8270 C   0  0  0  0  0  1  0  0  0  0  0  0
  -25.5550  -33.9460   24.1850 N   0  0  0  0  0  0  0  0  0  0  0  0
  -25.8970  -34.9970   23.4270 C   0  0  0  0  0  0  0  0  0  0  0  0
  -26.5840  -34.8910   22.4070 O   0  0  0  0  0  0  0  0  0  0  0  0
  -24.9480  -34.1020   24.9760 H   0  0  0  0  0  0  0  0  0  0  0  0
  -24.1720  -36.7850   23.0370 C   0  0  0  0  0  1  0  0  0  0  0  0
  -25.3990  -36.3850   23.8720 C   0  0  0  0  0  3  0  0  0  0  0  0
  -27.5150  -37.2770   24.7410 C   0  0  0  0  0  1  0  0  0  0  0  0
  -26.4310  -37.4390   23.7750 N   0  0  0  0  0  0  0  0  0  0  0  0
  -26.0220  -38.3590   23.9100 H   0  0  0  0  0  0  0  0  0  0  0  0
  2  1  1  0
  3  6  1  0
  3  1  1  0
  4  3  1  0
  4  2  1  0
  4  5  1  6
  6 17  1  0
  7 21  1  0
  8 13  1  0
  9 10  1  0
  9  8  1  0
 11 10  1  0
 11 26  1  0
 11 12  1  0
 13  7  1  0
 13 12  1  0
 14  7  2  0
 15 16  2  0
 15 17  1  0
 16 18  1  0
 17 19  2  0
 18 21  1  0
 18 20  2  0
 19 20  1  0
 21 22  1  0
 23 24  2  0
 24 43  1  0
 25 24  1  0
 25 28  1  0
 26 23  1  0
 26 27  1  0
 27 25  2  0
 28 29  1  0
 29 30  2  0
 31 34  1  0
 31 30  1  0
 32 31  2  0
 33 32  1  0
 33 28  2  0
 34 35  1  0
 35 36  1  0
 36 37  2  0
 38 37  1  0
 38 42  1  0
 39 38  2  0
 40 35  2  0
 40 39  1  0
 41 40  1  0
 43 44  1  0
 44 47  1  0
 44 46  1  0
 45 43  2  0
 48 49  1  0
 48 23  1  0
 50 48  1  0
 51  4  1  0
 51 52  1  0
 53 52  1  0
 54 65  2  0
 55 53  1  0
 55 60  1  0
 56 64  1  0
 56 66  1  0
 57 63  1  0
 57 59  1  0
 58 64  1  0
 59 60  2  0
 59 58  1  0
 61 55  2  0
 62 61  1  0
 62 57  2  0
 63 56  1  0
 64 54  1  0
 66 68  2  0
 67 66  1  0
 69 67  1  0
 70 79  2  0
 70 75  1  0
 71 67  1  0
 71 75  1  0
 72 71  1  0
 73 74  1  0
 73 72  1  0
 74 70  1  0
 75 76  2  0
 76 77  1  0
 78 77  2  0
 79 78  1  0
 80 54  1  0
 80 85  1  0
 80 81  1  0
 81 84  1  1
 81 82  1  0
 83 81  1  0
 85 88  1  0
 86 90  1  0
 86 85  1  0
 87 86  2  0
 90 89  1  0
 92 90  1  0
 92 93  1  0
 92 91  1  0
M  ISO  4   7 100  21 100  52 101  53 101
M  END
>  <TORSDO>  (21) 
F 19

>  <SCORE>  (21) 
-13.888

>  <name>  (21) 
20

>  <ligand_id>  (21) 
20

>  <original_smiles>  (21) 
[H]c1c(N([H])C(=O)N2C([H])([H])C([H])([H])C([H])([H])C([H])(n3nc(-c4c([H])c([H])c(Oc5c([H])c([H])c(F)c([H])c5F)c([H])c4[H])c(C(=O)N([H])[H])c3N([H])[H])C2([H])[H])nnc(C([H])([H])C2([H])C([H])([H])C([H])([H])[N+]2([H])C([H])([H])C([H])([H])Oc2c([H])c([H])c3c(c2[H])C([H])([H])N(C(=O)C([H])(N([H])C(=O)C([H])(N([H])C([H])([H])[H])C([H])([H])[H])C(C([H])([H])[H])(C([H])([H])[H])C([H])([H])[H])C([H])(C(=O)N([H])C2([H])c4c([H])c([H])c([H])c([H])c4C([H])([H])C([H])([H])C2([H])[H])C3([H])[H])c1[H]

>  <smiles>  (21) 
[H]c1c(N([H])C(=O)N2C([H])([H])C([H])([H])C([H])([H])C([H])(n3nc(-c4c([H])c([H])c(Oc5c([H])c([H])c(F)c([H])c5F)c([H])c4[H])c(C(=O)N([H])[H])c3N([H])[H])C2([H])[H])nnc(C([H])([H])C2([H])C([H])([H])C([H])([H])[N+]2([H])C([H])([H])C([H])([H])Oc2c([H])c([H])c3c(c2[H])C([H])([H])N(C(=O)C([H])(N([H])C(=O)C([H])(N([H])C([H])([H])[H])C([H])([H])[H])C(C([H])([H])[H])(C([H])([H])[H])C([H])([H])[H])C([H])(C(=O)N([H])C2([H])c4c([H])c([H])c([H])c([H])c4C([H])([H])C([H])([H])C2([H])[H])C3([H])[H])c1[H]

$$$$
21:0:0
     RDKit          3D

 93102  0  0  1  0  0  0  0  0999 V2000
  -29.8910  -22.3800   21.5060 N   0  0  0  0  0  4  0  0  0  0  0  0
  -30.7000  -22.3730   20.9100 H   0  0  0  0  0  0  0  0  0  0  0  0
  -30.1790  -22.7570   22.3950 H   0  0  0  0  0  0  0  0  0  0  0  0
  -30.4950  -20.1920   22.5520 C   0  0  0  0  0  0  0  0  0  0  0  0
  -29.7510  -19.9690   20.6070 C   0  0  0  0  0  2  0  0  0  0  0  0
  -30.1720  -18.9400   21.6950 C   0  0  0  0  0  3  0  0  0  0  0  0
  -29.4530  -20.9870   21.7380 C   0  0  0  0  0  3  0  0  0  0  0  0
  -31.3360  -20.4790   23.4090 O   0  0  0  0  0  0  0  0  0  0  0  0
  -31.3350  -17.9460   21.5120 C   0  0  0  0  0  2  0  0  0  0  0  0
  -31.1990  -17.0620   20.2520 C   0  0  0  0  0  2  0  0  0  0  0  0
  -31.5610  -14.6110   19.9810 C   0  0  0  0  0  0  0  0  0  0  0  0
  -31.1490  -12.4070   18.9590 C   0  0  0  0  0  2  0  0  0  0  0  0
  -30.1850  -12.5690   17.7670 C   0  0  0  0  0  2  0  0  0  0  0  0
  -28.7130  -12.5300   18.2370 C   0  0  0  0  0  2  0  0  0  0  0  0
  -28.4420  -13.4530   19.4580 C   0  0  0  0  0  3  0  0  0  0  0  0
  -29.5160  -13.2470   20.5490 C   0  0  0  0  0  2  0  0  0  0  0  0
  -30.8420  -13.4570   19.9400 N   0  0  0  0  0  0  0  0  0  0  0  0
  -32.6470  -14.7520   19.4110 O   0  0  0  0  0  0  0  0  0  0  0  0
  -30.9310  -15.6500   20.5470 N   0  0  0  0  0  0  0  0  0  0  0  0
  -30.0540  -15.4370   20.9970 H   0  0  0  0  0  0  0  0  0  0  0  0
  -26.1140  -14.2060   20.2660 C   0  0  0  0  0  0  0  0  0  0  0  0
  -25.0130  -13.5000   20.6710 C   0  0  0  0  0  0  0  0  0  0  0  0
  -25.3830  -12.1220   20.6090 C   0  0  0  0  0  0  0  0  0  0  0  0
  -27.0910  -13.2630   19.9850 N   0  0  0  0  0  0  0  0  0  0  0  0
  -26.6560  -12.0040   20.2500 N   0  0  0  0  0  0  0  0  0  0  0  0
  -24.5860  -10.9050   20.8150 C   0  0  0  0  0  0  0  0  0  0  0  0
  -24.9430   -9.9460   21.7880 C   0  0  0  0  0  3  0  0  0  0  0  0
  -24.1500   -8.7930   21.9810 C   0  0  0  0  0  3  0  0  0  0  0  0
  -22.9870   -8.5930   21.2020 C   0  0  0  0  0  0  0  0  0  0  0  0
  -22.6480   -9.5410   20.2220 C   0  0  0  0  0  3  0  0  0  0  0  0
  -23.4400  -10.6850   20.0260 C   0  0  0  0  0  3  0  0  0  0  0  0
  -22.1690   -7.4950   21.3050 O   0  0  0  0  0  0  0  0  0  0  0  0
  -21.9730   -6.8520   22.5000 C   0  0  0  0  0  0  0  0  0  0  0  0
  -21.4480   -7.5190   23.6290 C   0  0  0  0  0  3  0  0  0  0  0  0
  -21.1980   -6.8020   24.8160 C   0  0  0  0  0  3  0  0  0  0  0  0
  -21.4620   -5.4200   24.8740 C   0  0  0  0  0  0  0  0  0  0  0  0
  -21.9780   -4.7540   23.7490 C   0  0  0  0  0  3  0  0  0  0  0  0
  -22.2310   -5.4680   22.5640 C   0  0  0  0  0  0  0  0  0  0  0  0
  -22.7080   -4.8160   21.4770 F   0  0  0  0  0  0  0  0  0  0  0  0
  -21.2140   -4.7290   26.0110 F   0  0  0  0  0  0  0  0  0  0  0  0
  -23.6600  -14.0620   21.0010 C   0  0  0  0  0  0  0  0  0  0  0  0
  -22.9260  -13.4140   21.9000 N   0  0  0  0  0  0  0  0  0  0  0  0
  -23.2630  -15.1100   20.4970 O   0  0  0  0  0  0  0  0  0  0  0  0
  -23.2600  -12.5670   22.3370 H   0  0  0  0  0  0  0  0  0  0  0  0
  -22.0150  -13.7700   22.1510 H   0  0  0  0  0  0  0  0  0  0  0  0
  -26.3570  -15.5670   20.0900 N   0  0  0  0  0  0  0  0  0  0  0  0
  -25.6370  -16.2660   20.2310 H   0  0  0  0  0  0  0  0  0  0  0  0
  -27.2170  -15.9510   19.7220 H   0  0  0  0  0  0  0  0  0  0  0  0
  -28.2970  -24.2640   21.8930 C   0  0  0  0  0  2  0  0  0  0  0  0
  -29.1270  -24.6840   20.6950 C   0  0  0  0  0  3  0  0  0  0  0  0
  -28.8090  -23.2170   20.9290 C   0  0  0  0  0  3  0  0  0  0  0  0
  -28.4550  -25.4630   19.5710 C   0  0  0  0  0  2  0  0  0  0  0  0
  -28.3190  -26.8360   19.9490 O   0  0  0  0  0  0  0  0  0  0  0  0
  -24.5660  -31.9060   23.1790 C   0  0  0  0  0  0  0  0  0  0  0  0
  -27.0970  -27.4820   19.9820 C   0  0  0  0  0  0  0  0  0  0  0  0
  -23.2970  -30.5250   21.5630 C   0  0  0  0  0  3  0  0  0  0  0  0
  -24.6970  -28.9860   20.0890 C   0  0  0  0  0  0  0  0  0  0  0  0
  -25.8150  -30.8710   21.2890 C   0  0  0  0  0  2  0  0  0  0  0  0
  -25.8720  -29.5040   20.6420 C   0  0  0  0  0  0  0  0  0  0  0  0
  -27.0670  -28.7570   20.5890 C   0  0  0  0  0  3  0  0  0  0  0  0
  -25.8940  -26.9700   19.4340 C   0  0  0  0  0  3  0  0  0  0  0  0
  -24.7010  -27.7150   19.4890 C   0  0  0  0  0  3  0  0  0  0  0  0
  -23.4600  -29.8480   20.1750 C   0  0  0  0  0  2  0  0  0  0  0  0
  -24.5800  -31.1150   22.0680 N   0  0  0  0  0  0  0  0  0  0  0  0
  -23.5040  -32.1830   23.7550 O   0  0  0  0  0  0  0  0  0  0  0  0
  -22.6700  -29.5010   22.5360 C   0  0  0  0  0  0  0  0  0  0  0  0
  -21.3480  -29.2980   22.4180 N   0  0  0  0  0  0  0  0  0  0  0  0
  -23.3690  -28.8950   23.3540 O   0  0  0  0  0  0  0  0  0  0  0  0
  -20.8460  -29.8410   21.7300 H   0  0  0  0  0  0  0  0  0  0  0  0
  -18.0070  -28.0140   22.9010 C   0  0  0  0  0  0  0  0  0  0  0  0
  -20.5510  -28.3520   23.1990 C   0  0  0  0  0  3  0  0  0  0  0  0
  -20.7040  -26.9130   22.6550 C   0  0  0  0  0  2  0  0  0  0  0  0
  -19.6240  -26.5370   21.6340 C   0  0  0  0  0  2  0  0  0  0  0  0
  -18.2310  -26.6580   22.2590 C   0  0  0  0  0  2  0  0  0  0  0  0
  -19.0970  -28.8180   23.3290 C   0  0  0  0  0  0  0  0  0  0  0  0
  -18.8360  -30.0880   23.8860 C   0  0  0  0  0  3  0  0  0  0  0  0
  -17.5160  -30.5550   24.0260 C   0  0  0  0  0  3  0  0  0  0  0  0
  -16.4390  -29.7500   23.6160 C   0  0  0  0  0  3  0  0  0  0  0  0
  -16.6850  -28.4810   23.0600 C   0  0  0  0  0  3  0  0  0  0  0  0
  -25.8770  -32.5210   23.7640 C   0  0  0  0  0  3  0  0  0  0  0  0
  -25.5890  -33.9180   24.1160 N   0  0  0  0  0  0  0  0  0  0  0  0
  -25.9310  -34.9750   23.3700 C   0  0  0  0  0  0  0  0  0  0  0  0
  -26.5920  -34.8780   22.3320 O   0  0  0  0  0  0  0  0  0  0  0  0
  -25.0060  -34.0700   24.9260 H   0  0  0  0  0  0  0  0  0  0  0  0
  -24.2320  -36.8010   23.0410 C   0  0  0  0  0  1  0  0  0  0  0  0
  -25.4640  -36.3620   23.8490 C   0  0  0  0  0  3  0  0  0  0  0  0
  -27.6080  -37.2020   24.7050 C   0  0  0  0  0  1  0  0  0  0  0  0
  -26.5140  -37.4010   23.7570 N   0  0  0  0  0  0  0  0  0  0  0  0
  -26.1210  -38.3260   23.9160 H   0  0  0  0  0  0  0  0  0  0  0  0
  -26.4330  -31.7320   25.0140 C   0  0  1  0  0  0  0  0  0  0  0  0
  -25.3730  -31.4890   26.1130 C   0  0  0  0  0  1  0  0  0  0  0  0
  -26.9970  -30.3580   24.5850 C   0  0  0  0  0  1  0  0  0  0  0  0
  -27.6080  -32.5140   25.6470 C   0  0  0  0  0  1  0  0  0  0  0  0
  1  3  1  0
  2  1  1  0
  4  8  2  0
  5  6  1  0
  5  7  1  0
  6  9  1  0
  6  4  1  0
  7  1  1  0
  7  4  1  0
 10 19  1  0
 10  9  1  0
 11 19  1  0
 12 17  1  0
 13 14  1  0
 13 12  1  0
 15 14  1  0
 15 24  1  0
 15 16  1  0
 17 11  1  0
 17 16  1  0
 18 11  2  0
 19 20  1  0
 21 22  2  0
 22 41  1  0
 23 22  1  0
 23 26  1  0
 24 25  1  0
 24 21  1  0
 25 23  2  0
 26 27  1  0
 27 28  2  0
 29 32  1  0
 29 28  1  0
 30 29  2  0
 31 30  1  0
 31 26  2  0
 32 33  1  0
 33 38  2  0
 33 34  1  0
 34 35  2  0
 35 36  1  0
 36 40  1  0
 37 36  2  0
 38 37  1  0
 39 38  1  0
 41 42  1  0
 42 45  1  0
 42 44  1  0
 43 41  2  0
 46 47  1  0
 46 21  1  0
 48 46  1  0
 50 52  1  0
 50 51  1  0
 50 49  1  0
 51  1  1  0
 51 49  1  0
 52 53  1  0
 53 55  1  0
 54 65  2  0
 55 60  1  0
 56 64  1  0
 56 66  1  0
 57 63  1  0
 57 59  1  0
 58 64  1  0
 59 58  1  0
 60 59  2  0
 61 62  1  0
 61 55  2  0
 62 57  2  0
 63 56  1  0
 64 54  1  0
 66 68  2  0
 67 66  1  0
 69 67  1  0
 70 79  2  0
 70 75  1  0
 71 67  1  0
 71 75  1  0
 72 71  1  0
 73 74  1  0
 73 72  1  0
 74 70  1  0
 75 76  2  0
 76 77  1  0
 78 77  2  0
 79 78  1  0
 80 54  1  0
 80 81  1  0
 80 90  1  0
 81 84  1  0
 82 86  1  0
 82 81  1  0
 83 82  2  0
 86 85  1  0
 88 86  1  0
 88 89  1  0
 88 87  1  0
 90 93  1  1
 90 91  1  0
 92 90  1  0
M  ISO  4  11 100  19 100  52 101  53 101
M  END
>  <TORSDO>  (22) 
F 21

>  <SCORE>  (22) 
-12.305

>  <name>  (22) 
21

>  <ligand_id>  (22) 
21

>  <original_smiles>  (22) 
[H]c1c([H])c([H])c2c(c1[H])C([H])([H])C([H])([H])C([H])([H])C2([H])N([H])C(=O)C1([H])N(C(=O)C([H])(N([H])C(=O)C([H])(N([H])C([H])([H])[H])C([H])([H])[H])C(C([H])([H])[H])(C([H])([H])[H])C([H])([H])[H])C([H])([H])c2c([H])c(OC([H])([H])C3([H])C([H])([H])C3([H])[N+]([H])([H])C3([H])C(=O)C([H])(C([H])([H])C([H])([H])N([H])C(=O)N4C([H])([H])C([H])([H])C([H])([H])C([H])(n5nc(-c6c([H])c([H])c(Oc7c([H])c([H])c(F)c([H])c7F)c([H])c6[H])c(C(=O)N([H])[H])c5N([H])[H])C4([H])[H])C3([H])[H])c([H])c([H])c2C1([H])[H]

>  <smiles>  (22) 
[H]c1c([H])c([H])c2c(c1[H])C([H])([H])C([H])([H])C([H])([H])C2([H])N([H])C(=O)C1([H])N(C(=O)C([H])(N([H])C(=O)C([H])(N([H])C([H])([H])[H])C([H])([H])[H])C(C([H])([H])[H])(C([H])([H])[H])C([H])([H])[H])C([H])([H])c2c([H])c(OC([H])([H])C3([H])C([H])([H])C3([H])[N+]([H])([H])C3([H])C(=O)C([H])(C([H])([H])C([H])([H])N([H])C(=O)N4C([H])([H])C([H])([H])C([H])([H])C([H])(n5nc(-c6c([H])c([H])c(Oc7c([H])c([H])c(F)c([H])c7F)c([H])c6[H])c(C(=O)N([H])[H])c5N([H])[H])C4([H])[H])C3([H])[H])c([H])c([H])c2C1([H])[H]

$$$$
22:0:0
     RDKit          3D

 98107  0  0  1  0  0  0  0  0999 V2000
  -27.7810  -19.6550   20.4060 C   0  0  0  0  0  2  0  0  0  0  0  0
  -27.5770  -20.6360   19.5080 C   0  0  0  0  0  2  0  0  0  0  0  0
  -29.3010  -19.7600   20.3640 C   0  0  0  0  0  3  0  0  0  0  0  0
  -28.9930  -21.1730   19.6180 C   0  0  0  0  0  3  0  0  0  0  0  0
  -28.9150  -22.4880   20.4160 N   0  0  0  0  0  4  0  0  0  0  0  0
  -29.7560  -22.5780   20.9670 H   0  0  0  0  0  0  0  0  0  0  0  0
  -28.1590  -22.3760   21.0730 H   0  0  0  0  0  0  0  0  0  0  0  0
  -28.7120  -23.8270   19.6840 C   0  0  0  0  0  3  0  0  0  0  0  0
  -28.2050  -25.0870   20.5550 C   0  0  0  0  0  3  0  0  0  0  0  0
  -28.3660  -26.4960   20.0780 O   0  0  0  0  0  0  0  0  0  0  0  0
  -24.6270  -31.8700   23.1900 C   0  0  0  0  0  0  0  0  0  0  0  0
  -27.2460  -27.3450   20.0880 C   0  0  0  0  0  0  0  0  0  0  0  0
  -23.4240  -30.4860   21.5380 C   0  0  0  0  0  3  0  0  0  0  0  0
  -24.8770  -28.9500   20.0970 C   0  0  0  0  0  0  0  0  0  0  0  0
  -25.9620  -30.8160   21.3500 C   0  0  0  0  0  2  0  0  0  0  0  0
  -26.0450  -29.4410   20.6920 C   0  0  0  0  0  0  0  0  0  0  0  0
  -27.2370  -28.6520   20.6720 C   0  0  0  0  0  3  0  0  0  0  0  0
  -26.0560  -26.9080   19.4690 C   0  0  0  0  0  3  0  0  0  0  0  0
  -24.8840  -27.6900   19.4750 C   0  0  0  0  0  3  0  0  0  0  0  0
  -23.6380  -29.8230   20.1510 C   0  0  0  0  0  2  0  0  0  0  0  0
  -24.6910  -31.0740   22.0820 N   0  0  0  0  0  0  0  0  0  0  0  0
  -23.5450  -32.1370   23.7320 O   0  0  0  0  0  0  0  0  0  0  0  0
  -22.7650  -29.4590   22.4890 C   0  0  0  0  0  0  0  0  0  0  0  0
  -21.4410  -29.2710   22.3580 N   0  0  0  0  0  0  0  0  0  0  0  0
  -23.4460  -28.8310   23.3050 O   0  0  0  0  0  0  0  0  0  0  0  0
  -20.9500  -29.8290   21.6740 H   0  0  0  0  0  0  0  0  0  0  0  0
  -18.0770  -28.0250   22.8200 C   0  0  0  0  0  0  0  0  0  0  0  0
  -20.6270  -28.3230   23.1200 C   0  0  0  0  0  3  0  0  0  0  0  0
  -20.7570  -26.8920   22.5460 C   0  0  0  0  0  2  0  0  0  0  0  0
  -19.6720  -26.5530   21.5190 C   0  0  0  0  0  2  0  0  0  0  0  0
  -18.2810  -26.6770   22.1470 C   0  0  0  0  0  2  0  0  0  0  0  0
  -19.1790  -28.8030   23.2630 C   0  0  0  0  0  0  0  0  0  0  0  0
  -18.9330  -30.0630   23.8520 C   0  0  0  0  0  3  0  0  0  0  0  0
  -17.6200  -30.5440   24.0020 C   0  0  0  0  0  3  0  0  0  0  0  0
  -16.5320  -29.7630   23.5750 C   0  0  0  0  0  3  0  0  0  0  0  0
  -16.7610  -28.5050   22.9900 C   0  0  0  0  0  3  0  0  0  0  0  0
  -25.9090  -32.5010   23.8170 C   0  0  0  0  0  3  0  0  0  0  0  0
  -25.5960  -33.8960   24.1620 N   0  0  0  0  0  0  0  0  0  0  0  0
  -25.9190  -34.9570   23.4100 C   0  0  0  0  0  0  0  0  0  0  0  0
  -26.5800  -34.8640   22.3720 O   0  0  0  0  0  0  0  0  0  0  0  0
  -25.0070  -34.0400   24.9690 H   0  0  0  0  0  0  0  0  0  0  0  0
  -24.1810  -36.7470   23.0870 C   0  0  0  0  0  1  0  0  0  0  0  0
  -25.4320  -36.3400   23.8830 C   0  0  0  0  0  3  0  0  0  0  0  0
  -27.5690  -37.2270   24.7020 C   0  0  0  0  0  1  0  0  0  0  0  0
  -26.4580  -37.3980   23.7690 N   0  0  0  0  0  0  0  0  0  0  0  0
  -26.0510  -38.3150   23.9260 H   0  0  0  0  0  0  0  0  0  0  0  0
  -26.4270  -31.7210   25.0860 C   0  0  1  0  0  0  0  0  0  0  0  0
  -25.3350  -31.4730   26.1540 C   0  0  0  0  0  1  0  0  0  0  0  0
  -27.0120  -30.3480   24.6850 C   0  0  0  0  0  1  0  0  0  0  0  0
  -27.5770  -32.5110   25.7540 C   0  0  0  0  0  1  0  0  0  0  0  0
  -29.7970  -18.4470   19.5980 C   0  0  0  0  0  0  0  0  0  0  0  0
  -29.6160  -18.2850   18.3870 O   0  0  0  0  0  0  0  0  0  0  0  0
  -30.9130  -17.4500   21.7930 C   0  0  0  0  0  0  0  0  0  0  0  0
  -32.0270  -17.4200   20.7860 C   0  0  0  0  0  3  0  0  0  0  0  0
  -30.5570  -17.2660   20.3370 C   0  0  2  0  0  0  0  0  0  0  0  0
  -30.5530  -17.5410   22.9610 O   0  0  0  0  0  0  0  0  0  0  0  0
  -30.7840  -14.7410   19.7830 C   0  0  0  0  0  0  0  0  0  0  0  0
  -30.4970  -12.4450   18.8580 C   0  0  0  0  0  2  0  0  0  0  0  0
  -29.4750  -12.4710   17.7000 C   0  0  0  0  0  2  0  0  0  0  0  0
  -28.0380  -12.3280   18.2370 C   0  0  0  0  0  2  0  0  0  0  0  0
  -27.7490  -13.2720   19.4380 C   0  0  0  0  0  3  0  0  0  0  0  0
  -28.8800  -13.2180   20.4870 C   0  0  0  0  0  2  0  0  0  0  0  0
  -30.1350  -13.5320   19.7910 N   0  0  0  0  0  0  0  0  0  0  0  0
  -31.9370  -14.8280   19.3560 O   0  0  0  0  0  0  0  0  0  0  0  0
  -30.0670  -15.8710   20.1060 N   0  0  0  0  0  0  0  0  0  0  0  0
  -29.1010  -15.7100   20.3460 H   0  0  0  0  0  0  0  0  0  0  0  0
  -25.4520  -13.9130   20.3880 C   0  0  0  0  0  0  0  0  0  0  0  0
  -24.3950  -13.1590   20.8220 C   0  0  0  0  0  0  0  0  0  0  0  0
  -24.8070  -11.7960   20.7020 C   0  0  0  0  0  0  0  0  0  0  0  0
  -26.4400  -13.0110   20.0300 N   0  0  0  0  0  0  0  0  0  0  0  0
  -26.0650  -11.7310   20.2830 N   0  0  0  0  0  0  0  0  0  0  0  0
  -24.0550  -10.5500   20.9070 C   0  0  0  0  0  0  0  0  0  0  0  0
  -24.5120   -9.5500   21.7940 C   0  0  0  0  0  3  0  0  0  0  0  0
  -23.7620   -8.3700   21.9870 C   0  0  0  0  0  3  0  0  0  0  0  0
  -22.5420   -8.1830   21.2950 C   0  0  0  0  0  0  0  0  0  0  0  0
  -22.1040   -9.1720   20.3970 C   0  0  0  0  0  3  0  0  0  0  0  0
  -22.8540  -10.3430   20.2010 C   0  0  0  0  0  3  0  0  0  0  0  0
  -21.7570   -7.0590   21.4030 O   0  0  0  0  0  0  0  0  0  0  0  0
  -21.7290   -6.3080   22.5520 C   0  0  0  0  0  0  0  0  0  0  0  0
  -21.3490   -6.8620   23.7950 C   0  0  0  0  0  3  0  0  0  0  0  0
  -21.2660   -6.0370   24.9350 C   0  0  0  0  0  3  0  0  0  0  0  0
  -21.5520   -4.6620   24.8330 C   0  0  0  0  0  0  0  0  0  0  0  0
  -21.9270   -4.1110   23.5960 C   0  0  0  0  0  3  0  0  0  0  0  0
  -22.0110   -4.9310   22.4580 C   0  0  0  0  0  0  0  0  0  0  0  0
  -22.3510   -4.3890   21.2640 F   0  0  0  0  0  0  0  0  0  0  0  0
  -21.4640   -3.8700   25.9280 F   0  0  0  0  0  0  0  0  0  0  0  0
  -23.0420  -13.6690   21.2260 C   0  0  0  0  0  0  0  0  0  0  0  0
  -22.3660  -12.9670   22.1280 N   0  0  0  0  0  0  0  0  0  0  0  0
  -22.5980  -14.7250   20.7770 O   0  0  0  0  0  0  0  0  0  0  0  0
  -22.7380  -12.1140   22.5170 H   0  0  0  0  0  0  0  0  0  0  0  0
  -21.4610  -13.2910   22.4390 H   0  0  0  0  0  0  0  0  0  0  0  0
  -25.6430  -15.2840   20.2440 N   0  0  0  0  0  0  0  0  0  0  0  0
  -24.8940  -15.9430   20.4270 H   0  0  0  0  0  0  0  0  0  0  0  0
  -26.4440  -15.7080   19.7970 H   0  0  0  0  0  0  0  0  0  0  0  0
  -32.6860  -18.7410   20.7580 N   0  0  0  0  0  4  0  0  0  0  0  0
  -32.1980  -19.4260   21.3010 H   0  0  0  0  0  0  0  0  0  0  0  0
  -32.8170  -19.0730   19.8190 H   0  0  0  0  0  0  0  0  0  0  0  0
  -33.6010  -18.6530   21.1630 H   0  0  0  0  0  0  0  0  0  0  0  0
  2  4  1  0
  2  1  1  0
  3 51  1  0
  3  1  1  0
  4  3  1  0
  4  5  1  0
  5  6  1  0
  5  7  1  0
  8  5  1  0
  8  9  2  0
 10 12  1  0
 10  9  1  0
 11 22  2  0
 12 17  1  0
 13 21  1  0
 13 23  1  0
 14 20  1  0
 14 16  1  0
 15 21  1  0
 16 15  1  0
 17 16  2  0
 18 19  1  0
 18 12  2  0
 19 14  2  0
 20 13  1  0
 21 11  1  0
 23 25  2  0
 24 23  1  0
 26 24  1  0
 27 36  2  0
 27 32  1  0
 28 24  1  0
 28 32  1  0
 29 28  1  0
 30 31  1  0
 30 29  1  0
 31 27  1  0
 32 33  2  0
 33 34  1  0
 35 34  2  0
 36 35  1  0
 37 11  1  0
 37 38  1  0
 37 47  1  0
 38 41  1  0
 39 43  1  0
 39 38  1  0
 40 39  2  0
 43 42  1  0
 45 43  1  0
 45 46  1  0
 45 44  1  0
 47 50  1  1
 47 48  1  0
 49 47  1  0
 52 51  2  0
 53 56  2  0
 54 95  1  0
 54 53  1  0
 55 51  1  0
 55 54  1  0
 55 53  1  0
 57 63  1  0
 57 65  1  0
 58 63  1  0
 59 60  1  0
 59 58  1  0
 61 60  1  0
 61 70  1  0
 61 62  1  0
 63 62  1  0
 64 57  2  0
 55 65  1  1
 65 66  1  0
 67 68  2  0
 68 87  1  0
 69 68  1  0
 69 72  1  0
 70 71  1  0
 70 67  1  0
 71 69  2  0
 72 73  1  0
 73 74  2  0
 75 78  1  0
 75 74  1  0
 76 75  2  0
 77 76  1  0
 77 72  2  0
 78 79  1  0
 79 80  1  0
 80 81  2  0
 82 81  1  0
 82 86  1  0
 83 82  2  0
 84 79  2  0
 84 83  1  0
 85 84  1  0
 87 88  1  0
 88 91  1  0
 88 90  1  0
 89 87  2  0
 92 67  1  0
 92 93  1  0
 94 92  1  0
 95 98  1  0
 95 96  1  0
 97 95  1  0
M  ISO  4   9 101  10 101  57 100  65 100
M  END
>  <TORSDO>  (23) 
F 22

>  <SCORE>  (23) 
-13.091

>  <name>  (23) 
22

>  <ligand_id>  (23) 
22

>  <original_smiles>  (23) 
[H]C1=C([H])C([H])([N+]([H])([H])C([H])([H])C([H])([H])Oc2c([H])c([H])c3c(c2[H])C([H])([H])N(C(=O)C([H])(N([H])C(=O)C([H])(N([H])C([H])([H])[H])C([H])([H])[H])C(C([H])([H])[H])(C([H])([H])[H])C([H])([H])[H])C([H])(C(=O)N([H])C2([H])c4c([H])c([H])c([H])c([H])c4C([H])([H])C([H])([H])C2([H])[H])C3([H])[H])C1([H])C(=O)C1(N([H])C(=O)N2C([H])([H])C([H])([H])C([H])([H])C([H])(n3nc(-c4c([H])c([H])c(Oc5c([H])c([H])c(F)c([H])c5F)c([H])c4[H])c(C(=O)N([H])[H])c3N([H])[H])C2([H])[H])C(=O)C1([H])[N+]([H])([H])[H]

>  <smiles>  (23) 
[H]C1=C([H])C([H])([N+]([H])([H])C([H])([H])C([H])([H])Oc2c([H])c([H])c3c(c2[H])C([H])([H])N(C(=O)C([H])(N([H])C(=O)C([H])(N([H])C([H])([H])[H])C([H])([H])[H])C(C([H])([H])[H])(C([H])([H])[H])C([H])([H])[H])C([H])(C(=O)N([H])C2([H])c4c([H])c([H])c([H])c([H])c4C([H])([H])C([H])([H])C2([H])[H])C3([H])[H])C1([H])C(=O)C1(N([H])C(=O)N2C([H])([H])C([H])([H])C([H])([H])C([H])(n3nc(-c4c([H])c([H])c(Oc5c([H])c([H])c(F)c([H])c5F)c([H])c4[H])c(C(=O)N([H])[H])c3N([H])[H])C2([H])[H])C(=O)C1([H])[N+]([H])([H])[H]

$$$$
23:0:0
     RDKit          3D

 97105  0  0  1  0  0  0  0  0999 V2000
  -28.4890  -20.2820   21.2850 C   0  0  0  0  0  2  0  0  0  0  0  0
  -29.9080  -22.4210   20.9270 C   0  0  0  0  0  3  0  0  0  0  0  0
  -27.5380  -22.6290   21.4270 C   0  0  0  0  0  3  0  0  0  0  0  0
  -30.0220  -23.8290   20.9320 C   0  0  0  0  0  3  0  0  0  0  0  0
  -27.6550  -24.0330   21.4280 C   0  0  0  0  0  3  0  0  0  0  0  0
  -28.6590  -21.8030   21.1870 C   0  0  0  0  0  0  0  0  0  0  0  0
  -28.9010  -24.6480   21.2040 C   0  0  0  0  0  0  0  0  0  0  0  0
  -29.0470  -26.1620   21.3240 C   0  0  0  0  0  2  0  0  0  0  0  0
  -28.6840  -26.8630   20.1380 O   0  0  0  0  0  0  0  0  0  0  0  0
  -24.6880  -31.9080   23.2740 C   0  0  0  0  0  0  0  0  0  0  0  0
  -27.5100  -27.5760   20.1970 C   0  0  0  0  0  0  0  0  0  0  0  0
  -23.5600  -30.5060   21.5780 C   0  0  0  0  0  3  0  0  0  0  0  0
  -25.0870  -29.0180   20.1750 C   0  0  0  0  0  0  0  0  0  0  0  0
  -26.0850  -30.9150   21.4640 C   0  0  0  0  0  2  0  0  0  0  0  0
  -26.2140  -29.5560   20.8100 C   0  0  0  0  0  0  0  0  0  0  0  0
  -27.4320  -28.8400   20.8230 C   0  0  0  0  0  3  0  0  0  0  0  0
  -26.3710  -27.0440   19.5600 C   0  0  0  0  0  3  0  0  0  0  0  0
  -25.1570  -27.7570   19.5520 C   0  0  0  0  0  3  0  0  0  0  0  0
  -23.8240  -29.8500   20.1960 C   0  0  0  0  0  2  0  0  0  0  0  0
  -24.7950  -31.1240   22.1640 N   0  0  0  0  0  0  0  0  0  0  0  0
  -23.5860  -32.1510   23.7840 O   0  0  0  0  0  0  0  0  0  0  0  0
  -22.9000  -29.4600   22.5020 C   0  0  0  0  0  0  0  0  0  0  0  0
  -21.5870  -29.2440   22.3210 N   0  0  0  0  0  0  0  0  0  0  0  0
  -23.5680  -28.8450   23.3360 O   0  0  0  0  0  0  0  0  0  0  0  0
  -21.1160  -29.7840   21.6100 H   0  0  0  0  0  0  0  0  0  0  0  0
  -18.2230  -27.9780   22.6900 C   0  0  0  0  0  0  0  0  0  0  0  0
  -20.7630  -28.2810   23.0510 C   0  0  0  0  0  3  0  0  0  0  0  0
  -20.9170  -26.8610   22.4570 C   0  0  0  0  0  2  0  0  0  0  0  0
  -19.8550  -26.5320   21.4040 C   0  0  0  0  0  2  0  0  0  0  0  0
  -18.4490  -26.6410   22.0010 C   0  0  0  0  0  2  0  0  0  0  0  0
  -19.3100  -28.7560   23.1660 C   0  0  0  0  0  0  0  0  0  0  0  0
  -19.0480  -30.0060   23.7660 C   0  0  0  0  0  3  0  0  0  0  0  0
  -17.7290  -30.4800   23.8920 C   0  0  0  0  0  3  0  0  0  0  0  0
  -16.6530  -29.7000   23.4330 C   0  0  0  0  0  3  0  0  0  0  0  0
  -16.9010  -28.4480   22.8400 C   0  0  0  0  0  3  0  0  0  0  0  0
  -25.9420  -32.5520   23.9430 C   0  0  0  0  0  3  0  0  0  0  0  0
  -25.6130  -33.9510   24.2430 N   0  0  0  0  0  0  0  0  0  0  0  0
  -25.9700  -34.9960   23.4840 C   0  0  0  0  0  0  0  0  0  0  0  0
  -26.6810  -34.8820   22.4810 O   0  0  0  0  0  0  0  0  0  0  0  0
  -24.9860  -34.1140   25.0180 H   0  0  0  0  0  0  0  0  0  0  0  0
  -24.2450  -36.7680   23.0340 C   0  0  0  0  0  1  0  0  0  0  0  0
  -25.4550  -36.3870   23.9020 C   0  0  0  0  0  3  0  0  0  0  0  0
  -27.5440  -37.2970   24.8120 C   0  0  0  0  0  1  0  0  0  0  0  0
  -26.4850  -37.4450   23.8180 N   0  0  0  0  0  0  0  0  0  0  0  0
  -26.0670  -38.3650   23.9370 H   0  0  0  0  0  0  0  0  0  0  0  0
  -26.4100  -31.7980   25.2470 C   0  0  1  0  0  0  0  0  0  0  0  0
  -25.2740  -31.5610   26.2660 C   0  0  0  0  0  1  0  0  0  0  0  0
  -27.0180  -30.4220   24.8910 C   0  0  0  0  0  1  0  0  0  0  0  0
  -27.5250  -32.6070   25.9500 C   0  0  0  0  0  1  0  0  0  0  0  0
  -29.3920  -19.3840   20.3940 C   0  0  0  0  0  3  0  0  0  0  0  0
  -29.1860  -19.6710   18.9210 C   0  0  0  0  0  0  0  0  0  0  0  0
  -30.1890  -19.4430   18.0580 N   0  0  0  0  0  4  0  0  0  0  0  0
  -27.9970  -20.0880   18.4510 N   0  0  0  0  0  0  0  0  0  0  0  0
  -31.0950  -19.1400   18.3860 H   0  0  0  0  0  0  0  0  0  0  0  0
  -30.1070  -19.5700   17.0590 H   0  0  0  0  0  0  0  0  0  0  0  0
  -27.2260  -20.2610   19.0820 H   0  0  0  0  0  0  0  0  0  0  0  0
  -27.8350  -20.3040   17.4770 H   0  0  0  0  0  0  0  0  0  0  0  0
  -29.1280  -17.8670   20.6240 C   0  0  0  0  0  2  0  0  0  0  0  0
  -30.4010  -16.9880   20.6730 C   0  0  0  0  0  2  0  0  0  0  0  0
  -30.7880  -14.5590   20.2180 C   0  0  0  0  0  0  0  0  0  0  0  0
  -30.4580  -12.4310   19.0290 C   0  0  0  0  0  2  0  0  0  0  0  0
  -29.4720  -12.6720   17.8660 C   0  0  0  0  0  2  0  0  0  0  0  0
  -28.0140  -12.5160   18.3440 C   0  0  0  0  0  2  0  0  0  0  0  0
  -27.7230  -13.3270   19.6350 C   0  0  0  0  0  3  0  0  0  0  0  0
  -28.8130  -13.0680   20.6990 C   0  0  0  0  0  2  0  0  0  0  0  0
  -30.1230  -13.3810   20.0990 N   0  0  0  0  0  0  0  0  0  0  0  0
  -31.8890  -14.7690   19.6980 O   0  0  0  0  0  0  0  0  0  0  0  0
  -30.0850  -15.5530   20.7830 N   0  0  0  0  0  0  0  0  0  0  0  0
  -29.2090  -15.2950   21.2140 H   0  0  0  0  0  0  0  0  0  0  0  0
  -25.3460  -13.9280   20.4280 C   0  0  0  0  0  0  0  0  0  0  0  0
  -24.2900  -13.1500   20.8210 C   0  0  0  0  0  0  0  0  0  0  0  0
  -24.7490  -11.8000   20.7590 C   0  0  0  0  0  0  0  0  0  0  0  0
  -26.3820  -13.0510   20.1510 N   0  0  0  0  0  0  0  0  0  0  0  0
  -26.0270  -11.7660   20.4050 N   0  0  0  0  0  0  0  0  0  0  0  0
  -24.0330  -10.5340   20.9580 C   0  0  0  0  0  0  0  0  0  0  0  0
  -24.4850   -9.5710   21.8880 C   0  0  0  0  0  3  0  0  0  0  0  0
  -23.7720   -8.3660   22.0740 C   0  0  0  0  0  3  0  0  0  0  0  0
  -22.5950   -8.1170   21.3280 C   0  0  0  0  0  0  0  0  0  0  0  0
  -22.1630   -9.0690   20.3880 C   0  0  0  0  0  3  0  0  0  0  0  0
  -22.8760  -10.2650   20.2010 C   0  0  0  0  0  3  0  0  0  0  0  0
  -21.8490   -6.9670   21.4250 O   0  0  0  0  0  0  0  0  0  0  0  0
  -21.8020   -6.2360   22.5850 C   0  0  0  0  0  0  0  0  0  0  0  0
  -21.3340   -6.7890   23.7950 C   0  0  0  0  0  3  0  0  0  0  0  0
  -21.2350   -5.9820   24.9450 C   0  0  0  0  0  3  0  0  0  0  0  0
  -21.5940   -4.6240   24.8870 C   0  0  0  0  0  0  0  0  0  0  0  0
  -22.0510   -4.0680   23.6800 C   0  0  0  0  0  3  0  0  0  0  0  0
  -22.1530   -4.8720   22.5310 C   0  0  0  0  0  0  0  0  0  0  0  0
  -22.5780   -4.3270   21.3650 F   0  0  0  0  0  0  0  0  0  0  0  0
  -21.4890   -3.8460   25.9900 F   0  0  0  0  0  0  0  0  0  0  0  0
  -22.9010  -13.6210   21.1460 C   0  0  0  0  0  0  0  0  0  0  0  0
  -22.2000  -12.9110   22.0230 N   0  0  0  0  0  0  0  0  0  0  0  0
  -22.4480  -14.6540   20.6540 O   0  0  0  0  0  0  0  0  0  0  0  0
  -22.5770  -12.0740   22.4420 H   0  0  0  0  0  0  0  0  0  0  0  0
  -21.2690  -13.2110   22.2800 H   0  0  0  0  0  0  0  0  0  0  0  0
  -25.5030  -15.3010   20.2620 N   0  0  0  0  0  0  0  0  0  0  0  0
  -24.7410  -15.9510   20.4190 H   0  0  0  0  0  0  0  0  0  0  0  0
  -26.3270  -15.7480   19.8810 H   0  0  0  0  0  0  0  0  0  0  0  0
  2  4  2  0
  2  6  1  0
  3  5  1  0
  4  7  1  0
  6  1  1  0
  6  3  2  0
  7  8  1  0
  7  5  2  0
  9 11  1  0
  9  8  1  0
 10 21  2  0
 11 16  1  0
 12 20  1  0
 12 22  1  0
 13 19  1  0
 13 15  1  0
 14 20  1  0
 15 16  2  0
 15 14  1  0
 17 11  2  0
 18 17  1  0
 18 13  2  0
 19 12  1  0
 20 10  1  0
 22 24  2  0
 23 22  1  0
 25 23  1  0
 26 35  2  0
 26 31  1  0
 27 23  1  0
 27 31  1  0
 28 27  1  0
 29 30  1  0
 29 28  1  0
 30 26  1  0
 31 32  2  0
 32 33  1  0
 34 33  2  0
 35 34  1  0
 36 10  1  0
 36 37  1  0
 36 46  1  0
 37 40  1  0
 38 42  1  0
 38 37  1  0
 39 38  2  0
 42 41  1  0
 44 42  1  0
 44 45  1  0
 44 43  1  0
 46 49  1  1
 46 47  1  0
 48 46  1  0
 50 58  1  0
 50  1  1  0
 51 50  1  0
 52 54  1  0
 52 51  2  0
 53 51  1  0
 53 56  1  0
 55 52  1  0
 57 53  1  0
 58 59  1  0
 59 68  1  0
 60 68  1  0
 61 66  1  0
 62 63  1  0
 62 61  1  0
 64 63  1  0
 64 73  1  0
 64 65  1  0
 66 60  1  0
 66 65  1  0
 67 60  2  0
 68 69  1  0
 70 71  2  0
 71 90  1  0
 72 71  1  0
 72 75  1  0
 73 74  1  0
 73 70  1  0
 74 72  2  0
 75 76  1  0
 76 77  2  0
 78 81  1  0
 78 77  1  0
 79 78  2  0
 80 79  1  0
 80 75  2  0
 81 82  1  0
 82 83  1  0
 83 84  2  0
 85 84  1  0
 85 89  1  0
 86 85  2  0
 87 82  2  0
 87 86  1  0
 88 87  1  0
 90 91  1  0
 91 94  1  0
 91 93  1  0
 92 90  2  0
 95 96  1  0
 95 70  1  0
 97 95  1  0
M  ISO  4   8 101   9 101  60 100  68 100
M  END
>  <TORSDO>  (24) 
F 22

>  <SCORE>  (24) 
-12.994

>  <name>  (24) 
23

>  <ligand_id>  (24) 
23

>  <original_smiles>  (24) 
[H]c1c([H])c([H])c2c(c1[H])C([H])([H])C([H])([H])C([H])([H])C2([H])N([H])C(=O)C1([H])N(C(=O)C([H])(N([H])C(=O)C([H])(N([H])C([H])([H])[H])C([H])([H])[H])C(C([H])([H])[H])(C([H])([H])[H])C([H])([H])[H])C([H])([H])c2c([H])c(OC([H])([H])c3c([H])c([H])c(C([H])([H])C([H])(C(N([H])[H])=[N+]([H])[H])C([H])([H])C([H])([H])N([H])C(=O)N4C([H])([H])C([H])([H])C([H])([H])C([H])(n5nc(-c6c([H])c([H])c(Oc7c([H])c([H])c(F)c([H])c7F)c([H])c6[H])c(C(=O)N([H])[H])c5N([H])[H])C4([H])[H])c([H])c3[H])c([H])c([H])c2C1([H])[H]

>  <smiles>  (24) 
[H]c1c([H])c([H])c2c(c1[H])C([H])([H])C([H])([H])C([H])([H])C2([H])N([H])C(=O)C1([H])N(C(=O)C([H])(N([H])C(=O)C([H])(N([H])C([H])([H])[H])C([H])([H])[H])C(C([H])([H])[H])(C([H])([H])[H])C([H])([H])[H])C([H])([H])c2c([H])c(OC([H])([H])c3c([H])c([H])c(C([H])([H])C([H])(C(N([H])[H])=[N+]([H])[H])C([H])([H])C([H])([H])N([H])C(=O)N4C([H])([H])C([H])([H])C([H])([H])C([H])(n5nc(-c6c([H])c([H])c(Oc7c([H])c([H])c(F)c([H])c7F)c([H])c6[H])c(C(=O)N([H])[H])c5N([H])[H])C4([H])[H])c([H])c3[H])c([H])c([H])c2C1([H])[H]

$$$$
24:0:0
     RDKit          3D

 95103  0  0  1  0  0  0  0  0999 V2000
  -31.7200  -21.7620   19.4060 C   0  0  0  0  0  1  0  0  0  0  0  0
  -30.5940  -20.3430   17.7010 C   0  0  0  0  0  1  0  0  0  0  0  0
  -30.3480  -21.1660   18.9960 C   0  0  2  0  0  0  0  0  0  0  0  0
  -29.3830  -22.3240   18.6320 C   0  0  0  0  0  2  0  0  0  0  0  0
  -29.2300  -23.3010   19.7280 N   0  0  0  0  0  4  0  0  0  0  0  0
  -28.6980  -22.8960   20.4840 H   0  0  0  0  0  0  0  0  0  0  0  0
  -30.1500  -23.5170   20.0800 H   0  0  0  0  0  0  0  0  0  0  0  0
  -28.5930  -24.5710   19.3310 C   0  0  0  0  0  2  0  0  0  0  0  0
  -28.4180  -25.4800   20.5490 C   0  0  0  0  0  2  0  0  0  0  0  0
  -28.4210  -26.8300   20.1230 O   0  0  0  0  0  0  0  0  0  0  0  0
  -24.5930  -31.8750   23.2390 C   0  0  0  0  0  0  0  0  0  0  0  0
  -27.2180  -27.4800   20.1410 C   0  0  0  0  0  0  0  0  0  0  0  0
  -23.3720  -30.4730   21.6030 C   0  0  0  0  0  3  0  0  0  0  0  0
  -24.8110  -28.9360   20.1710 C   0  0  0  0  0  0  0  0  0  0  0  0
  -25.8850  -30.8510   21.3730 C   0  0  0  0  0  2  0  0  0  0  0  0
  -25.9670  -29.4820   20.7410 C   0  0  0  0  0  0  0  0  0  0  0  0
  -27.1750  -28.7600   20.7200 C   0  0  0  0  0  3  0  0  0  0  0  0
  -26.0480  -26.9340   19.5680 C   0  0  0  0  0  3  0  0  0  0  0  0
  -24.8430  -27.6610   19.5800 C   0  0  0  0  0  3  0  0  0  0  0  0
  -23.5670  -29.7910   20.2210 C   0  0  0  0  0  2  0  0  0  0  0  0
  -24.6370  -31.0800   22.1310 N   0  0  0  0  0  0  0  0  0  0  0  0
  -23.5170  -32.1400   23.7920 O   0  0  0  0  0  0  0  0  0  0  0  0
  -22.7310  -29.4520   22.5690 C   0  0  0  0  0  0  0  0  0  0  0  0
  -21.4030  -29.2720   22.4520 N   0  0  0  0  0  0  0  0  0  0  0  0
  -23.4210  -28.8210   23.3730 O   0  0  0  0  0  0  0  0  0  0  0  0
  -20.9060  -29.8420   21.7830 H   0  0  0  0  0  0  0  0  0  0  0  0
  -18.0310  -28.0830   22.9650 C   0  0  0  0  0  0  0  0  0  0  0  0
  -20.5910  -28.3340   23.2280 C   0  0  0  0  0  3  0  0  0  0  0  0
  -20.6870  -26.9020   22.6510 C   0  0  0  0  0  2  0  0  0  0  0  0
  -19.5850  -26.5810   21.6400 C   0  0  0  0  0  2  0  0  0  0  0  0
  -18.2030  -26.7330   22.2860 C   0  0  0  0  0  2  0  0  0  0  0  0
  -19.1550  -28.8400   23.3920 C   0  0  0  0  0  0  0  0  0  0  0  0
  -18.9430  -30.1040   23.9840 C   0  0  0  0  0  3  0  0  0  0  0  0
  -17.6410  -30.6150   24.1470 C   0  0  0  0  0  3  0  0  0  0  0  0
  -16.5320  -29.8530   23.7390 C   0  0  0  0  0  3  0  0  0  0  0  0
  -16.7290  -28.5890   23.1570 C   0  0  0  0  0  3  0  0  0  0  0  0
  -25.8840  -32.5030   23.8500 C   0  0  0  0  0  3  0  0  0  0  0  0
  -25.5820  -33.9000   24.1880 N   0  0  0  0  0  0  0  0  0  0  0  0
  -25.9110  -34.9530   23.4290 C   0  0  0  0  0  0  0  0  0  0  0  0
  -26.5720  -34.8510   22.3910 O   0  0  0  0  0  0  0  0  0  0  0  0
  -25.0070  -34.0570   25.0030 H   0  0  0  0  0  0  0  0  0  0  0  0
  -24.1810  -36.7450   23.0870 C   0  0  0  0  0  1  0  0  0  0  0  0
  -25.4250  -36.3420   23.8940 C   0  0  0  0  0  3  0  0  0  0  0  0
  -27.5650  -37.2190   24.7120 C   0  0  0  0  0  1  0  0  0  0  0  0
  -26.4560  -37.3940   23.7780 N   0  0  0  0  0  0  0  0  0  0  0  0
  -26.0540  -38.3150   23.9310 H   0  0  0  0  0  0  0  0  0  0  0  0
  -26.4160  -31.7280   25.1180 C   0  0  1  0  0  0  0  0  0  0  0  0
  -25.3390  -31.4930   26.2020 C   0  0  0  0  0  1  0  0  0  0  0  0
  -26.9820  -30.3520   24.7040 C   0  0  0  0  0  1  0  0  0  0  0  0
  -27.5790  -32.5130   25.7680 C   0  0  0  0  0  1  0  0  0  0  0  0
  -29.7730  -20.3140   20.1860 C   0  0  0  0  0  2  0  0  0  0  0  0
  -27.8960  -18.9370   19.3120 C   0  0  0  0  0  1  0  0  0  0  0  0
  -29.2960  -18.9580   19.8050 N   0  0  2  0  0  4  0  0  0  0  0  0
  -29.8850  -18.6820   19.0350 H   0  0  0  0  0  0  0  0  0  0  0  0
  -30.9560  -17.6750   21.2020 C   0  0  0  0  0  2  0  0  0  0  0  0
  -30.2230  -16.7130   20.2990 C   0  0  0  0  0  3  0  0  0  0  0  0
  -29.5010  -17.9240   20.8480 C   0  0  0  0  0  3  0  0  0  0  0  0
  -30.6820  -14.3630   20.3760 C   0  0  0  0  0  0  0  0  0  0  0  0
  -30.3160  -12.2470   19.2110 C   0  0  0  0  0  2  0  0  0  0  0  0
  -29.3580  -12.5160   18.0320 C   0  0  0  0  0  2  0  0  0  0  0  0
  -27.8900  -12.4030   18.4860 C   0  0  0  0  0  2  0  0  0  0  0  0
  -27.5940  -13.2130   19.7760 C   0  0  0  0  0  3  0  0  0  0  0  0
  -28.6640  -12.9350   20.8570 C   0  0  0  0  0  2  0  0  0  0  0  0
  -29.9880  -13.2030   20.2760 N   0  0  0  0  0  0  0  0  0  0  0  0
  -31.7970  -14.5360   19.8790 O   0  0  0  0  0  0  0  0  0  0  0  0
  -29.9730  -15.4080   20.8110 N   0  0  0  0  0  0  0  0  0  0  0  0
  -29.0640  -15.2100   21.2000 H   0  0  0  0  0  0  0  0  0  0  0  0
  -25.2080  -13.8450   20.5230 C   0  0  0  0  0  0  0  0  0  0  0  0
  -24.1400  -13.0790   20.9090 C   0  0  0  0  0  0  0  0  0  0  0  0
  -24.5900  -11.7250   20.8670 C   0  0  0  0  0  0  0  0  0  0  0  0
  -26.2430  -12.9550   20.2720 N   0  0  0  0  0  0  0  0  0  0  0  0
  -25.8730  -11.6770   20.5340 N   0  0  0  0  0  0  0  0  0  0  0  0
  -23.8650  -10.4630   21.0670 C   0  0  0  0  0  0  0  0  0  0  0  0
  -24.3220   -9.4810   21.9720 C   0  0  0  0  0  3  0  0  0  0  0  0
  -23.5930   -8.2870   22.1600 C   0  0  0  0  0  3  0  0  0  0  0  0
  -22.3960   -8.0650   21.4420 C   0  0  0  0  0  0  0  0  0  0  0  0
  -21.9590   -9.0370   20.5240 C   0  0  0  0  0  3  0  0  0  0  0  0
  -22.6870  -10.2220   20.3320 C   0  0  0  0  0  3  0  0  0  0  0  0
  -21.6380   -6.9230   21.5390 O   0  0  0  0  0  0  0  0  0  0  0  0
  -21.6380   -6.1520   22.6760 C   0  0  0  0  0  0  0  0  0  0  0  0
  -21.2900   -6.6850   23.9350 C   0  0  0  0  0  3  0  0  0  0  0  0
  -21.2350   -5.8450   25.0650 C   0  0  0  0  0  3  0  0  0  0  0  0
  -21.5210   -4.4720   24.9360 C   0  0  0  0  0  0  0  0  0  0  0  0
  -21.8650   -3.9390   23.6820 C   0  0  0  0  0  3  0  0  0  0  0  0
  -21.9200   -4.7770   22.5530 C   0  0  0  0  0  0  0  0  0  0  0  0
  -22.2310   -4.2540   21.3430 F   0  0  0  0  0  0  0  0  0  0  0  0
  -21.4610   -3.6620   26.0190 F   0  0  0  0  0  0  0  0  0  0  0  0
  -22.7500  -13.5620   21.2070 C   0  0  0  0  0  0  0  0  0  0  0  0
  -22.0370  -12.8630   22.0850 N   0  0  0  0  0  0  0  0  0  0  0  0
  -22.3070  -14.5900   20.6970 O   0  0  0  0  0  0  0  0  0  0  0  0
  -22.4100  -12.0290   22.5100 H   0  0  0  0  0  0  0  0  0  0  0  0
  -21.1040  -13.1660   22.3310 H   0  0  0  0  0  0  0  0  0  0  0  0
  -25.3920  -15.2140   20.3440 N   0  0  0  0  0  0  0  0  0  0  0  0
  -24.6430  -15.8890   20.4520 H   0  0  0  0  0  0  0  0  0  0  0  0
  -26.2390  -15.6200   19.9680 H   0  0  0  0  0  0  0  0  0  0  0  0
  3  2  1  6
  3  1  1  0
  3 51  1  0
  4  3  1  0
  4  5  1  0
  5  7  1  0
  5  6  1  0
  8  5  1  0
  8  9  1  0
 10 12  1  0
 10  9  1  0
 11 22  2  0
 12 17  1  0
 13 21  1  0
 13 23  1  0
 14 20  1  0
 14 16  1  0
 15 21  1  0
 16 15  1  0
 17 16  2  0
 18 19  1  0
 18 12  2  0
 19 14  2  0
 20 13  1  0
 21 11  1  0
 23 25  2  0
 24 23  1  0
 26 24  1  0
 27 36  2  0
 27 32  1  0
 28 24  1  0
 28 32  1  0
 29 28  1  0
 30 31  1  0
 30 29  1  0
 31 27  1  0
 32 33  2  0
 33 34  1  0
 35 34  2  0
 36 35  1  0
 37 11  1  0
 37 38  1  0
 37 47  1  0
 38 41  1  0
 39 43  1  0
 39 38  1  0
 40 39  2  0
 43 42  1  0
 45 43  1  0
 45 46  1  0
 45 44  1  0
 47 50  1  1
 47 48  1  0
 49 47  1  0
 52 53  1  0
 53 51  1  0
 53 54  1  6
 56 66  1  0
 56 57  1  0
 56 55  1  0
 57 53  1  0
 57 55  1  0
 58 66  1  0
 59 64  1  0
 60 61  1  0
 60 59  1  0
 62 61  1  0
 62 71  1  0
 62 63  1  0
 64 58  1  0
 64 63  1  0
 65 58  2  0
 66 67  1  0
 68 69  2  0
 69 88  1  0
 70 69  1  0
 70 73  1  0
 71 68  1  0
 71 72  1  0
 72 70  2  0
 73 74  1  0
 74 75  2  0
 76 79  1  0
 76 75  1  0
 77 76  2  0
 78 77  1  0
 78 73  2  0
 79 80  1  0
 80 81  1  0
 81 82  2  0
 83 82  1  0
 83 87  1  0
 84 83  2  0
 85 80  2  0
 85 84  1  0
 86 85  1  0
 88 89  1  0
 89 92  1  0
 89 91  1  0
 90 88  2  0
 93 94  1  0
 93 68  1  0
 95 93  1  0
M  ISO  4   9 101  10 101  58 100  66 100
M  END
>  <TORSDO>  (25) 
F 23

>  <SCORE>  (25) 
-12.843

>  <name>  (25) 
24

>  <ligand_id>  (25) 
24

>  <original_smiles>  (25) 
[H]c1c([H])c([H])c2c(c1[H])C([H])([H])C([H])([H])C([H])([H])C2([H])N([H])C(=O)C1([H])N(C(=O)C([H])(N([H])C(=O)C([H])(N([H])C([H])([H])[H])C([H])([H])[H])C(C([H])([H])[H])(C([H])([H])[H])C([H])([H])[H])C([H])([H])c2c([H])c(OC([H])([H])C([H])([H])[N+]([H])([H])C([H])([H])C(C([H])([H])[H])(C([H])([H])[H])C([H])([H])[N+]([H])(C([H])([H])[H])C3([H])C([H])([H])C3([H])N([H])C(=O)N3C([H])([H])C([H])([H])C([H])([H])C([H])(n4nc(-c5c([H])c([H])c(Oc6c([H])c([H])c(F)c([H])c6F)c([H])c5[H])c(C(=O)N([H])[H])c4N([H])[H])C3([H])[H])c([H])c([H])c2C1([H])[H]

>  <smiles>  (25) 
[H]c1c([H])c([H])c2c(c1[H])C([H])([H])C([H])([H])C([H])([H])C2([H])N([H])C(=O)C1([H])N(C(=O)C([H])(N([H])C(=O)C([H])(N([H])C([H])([H])[H])C([H])([H])[H])C(C([H])([H])[H])(C([H])([H])[H])C([H])([H])[H])C([H])([H])c2c([H])c(OC([H])([H])C([H])([H])[N+]([H])([H])C([H])([H])C(C([H])([H])[H])(C([H])([H])[H])C([H])([H])[N+]([H])(C([H])([H])[H])C3([H])C([H])([H])C3([H])N([H])C(=O)N3C([H])([H])C([H])([H])C([H])([H])C([H])(n4nc(-c5c([H])c([H])c(Oc6c([H])c([H])c(F)c([H])c6F)c([H])c5[H])c(C(=O)N([H])[H])c4N([H])[H])C3([H])[H])c([H])c([H])c2C1([H])[H]

$$$$
25:0:0
     RDKit          3D

 96104  0  0  1  0  0  0  0  0999 V2000
  -29.4140  -22.1910   18.6440 C   0  0  0  0  0  3  0  0  0  0  0  0
  -29.5550  -21.3890   17.4150 N   0  0  0  0  0  4  0  0  0  0  0  0
  -28.7570  -20.7990   17.2750 H   0  0  0  0  0  0  0  0  0  0  0  0
  -30.3740  -20.8120   17.4780 H   0  0  0  0  0  0  0  0  0  0  0  0
  -29.6590  -21.9880   16.6150 H   0  0  0  0  0  0  0  0  0  0  0  0
  -28.4750  -21.0580   20.7300 C   0  0  0  0  0  2  0  0  0  0  0  0
  -29.4800  -21.2140   19.8470 C   0  0  0  0  0  0  0  0  0  0  0  0
  -30.7940  -20.4190   19.9650 C   0  0  0  0  0  2  0  0  0  0  0  0
  -30.7170  -14.5270   20.4820 C   0  0  0  0  0  0  0  0  0  0  0  0
  -30.4290  -12.3440   19.3700 C   0  0  0  0  0  2  0  0  0  0  0  0
  -29.5080  -12.5310   18.1500 C   0  0  0  0  0  2  0  0  0  0  0  0
  -28.0260  -12.3830   18.5600 C   0  0  0  0  0  2  0  0  0  0  0  0
  -27.6580  -13.2170   19.8160 C   0  0  0  0  0  3  0  0  0  0  0  0
  -28.7110  -13.0640   20.9380 C   0  0  0  0  0  2  0  0  0  0  0  0
  -30.0360  -13.3540   20.3650 N   0  0  0  0  0  0  0  0  0  0  0  0
  -31.9020  -14.6420   20.1490 O   0  0  0  0  0  0  0  0  0  0  0  0
  -30.4190  -18.0130   20.6960 C   0  0  0  0  0  0  0  0  0  0  0  0
  -30.8290  -19.2710   20.9870 C   0  0  0  0  0  0  0  0  0  0  0  0
  -29.7540  -17.6110   19.4180 C   0  0  0  0  0  2  0  0  0  0  0  0
  -30.5440  -16.7660   21.5610 C   0  0  0  0  0  2  0  0  0  0  0  0
  -29.1790  -16.2330   19.7180 C   0  0  0  0  0  2  0  0  0  0  0  0
  -31.4960  -19.6290   22.3050 C   0  0  0  0  0  1  0  0  0  0  0  0
  -29.9840  -15.6310   20.7930 N   0  0  0  0  0  0  0  0  0  0  0  0
  -25.2630  -13.8270   20.5130 C   0  0  0  0  0  0  0  0  0  0  0  0
  -24.1950  -13.0550   20.8770 C   0  0  0  0  0  0  0  0  0  0  0  0
  -24.6640  -11.7050   20.8600 C   0  0  0  0  0  0  0  0  0  0  0  0
  -26.3100  -12.9440   20.2930 N   0  0  0  0  0  0  0  0  0  0  0  0
  -25.9550  -11.6660   20.5600 N   0  0  0  0  0  0  0  0  0  0  0  0
  -23.9470  -10.4420   21.0530 C   0  0  0  0  0  0  0  0  0  0  0  0
  -24.3820   -9.4830   21.9940 C   0  0  0  0  0  3  0  0  0  0  0  0
  -23.6630   -8.2810   22.1720 C   0  0  0  0  0  3  0  0  0  0  0  0
  -22.4970   -8.0340   21.4110 C   0  0  0  0  0  0  0  0  0  0  0  0
  -22.0830   -8.9820   20.4590 C   0  0  0  0  0  3  0  0  0  0  0  0
  -22.8010  -10.1740   20.2790 C   0  0  0  0  0  3  0  0  0  0  0  0
  -21.7500   -6.8840   21.5030 O   0  0  0  0  0  0  0  0  0  0  0  0
  -21.7070   -6.1440   22.6590 C   0  0  0  0  0  0  0  0  0  0  0  0
  -21.2770   -6.6960   23.8840 C   0  0  0  0  0  3  0  0  0  0  0  0
  -21.1740   -5.8790   25.0280 C   0  0  0  0  0  3  0  0  0  0  0  0
  -21.5010   -4.5130   24.9480 C   0  0  0  0  0  0  0  0  0  0  0  0
  -21.9280   -3.9600   23.7280 C   0  0  0  0  0  3  0  0  0  0  0  0
  -22.0260   -4.7730   22.5850 C   0  0  0  0  0  0  0  0  0  0  0  0
  -22.4160   -4.2310   21.4060 F   0  0  0  0  0  0  0  0  0  0  0  0
  -21.4000   -3.7250   26.0450 F   0  0  0  0  0  0  0  0  0  0  0  0
  -22.7920  -13.5270   21.1300 C   0  0  0  0  0  0  0  0  0  0  0  0
  -22.0620  -12.8340   21.9950 N   0  0  0  0  0  0  0  0  0  0  0  0
  -22.3540  -14.5450   20.5970 O   0  0  0  0  0  0  0  0  0  0  0  0
  -22.4290  -12.0130   22.4500 H   0  0  0  0  0  0  0  0  0  0  0  0
  -21.1170  -13.1280   22.2010 H   0  0  0  0  0  0  0  0  0  0  0  0
  -25.4220  -15.1980   20.3320 N   0  0  0  0  0  0  0  0  0  0  0  0
  -24.6550  -15.8530   20.4320 H   0  0  0  0  0  0  0  0  0  0  0  0
  -26.2900  -15.6370   20.0550 H   0  0  0  0  0  0  0  0  0  0  0  0
  -27.9270  -23.7130   17.1360 C   0  0  0  0  0  1  0  0  0  0  0  0
  -28.1480  -23.1270   18.5550 C   0  0  0  0  0  3  0  0  0  0  0  0
  -28.0700  -24.2490   19.6480 C   0  0  0  0  0  3  0  0  0  0  0  0
  -28.6350  -25.6480   19.2510 C   0  0  0  0  0  3  0  0  0  0  0  0
  -28.4250  -26.7130   20.1970 O   0  0  0  0  0  0  0  0  0  0  0  0
  -24.5920  -31.8970   23.2690 C   0  0  0  0  0  0  0  0  0  0  0  0
  -27.2410  -27.4310   20.1810 C   0  0  0  0  0  0  0  0  0  0  0  0
  -23.3910  -30.4910   21.6310 C   0  0  0  0  0  3  0  0  0  0  0  0
  -24.8440  -28.9520   20.2110 C   0  0  0  0  0  0  0  0  0  0  0  0
  -25.9200  -30.8390   21.4420 C   0  0  0  0  0  2  0  0  0  0  0  0
  -26.0040  -29.4660   20.8030 C   0  0  0  0  0  0  0  0  0  0  0  0
  -27.2000  -28.7070   20.7950 C   0  0  0  0  0  3  0  0  0  0  0  0
  -26.0570  -26.9400   19.5820 C   0  0  0  0  0  3  0  0  0  0  0  0
  -24.8650  -27.6850   19.6050 C   0  0  0  0  0  3  0  0  0  0  0  0
  -23.6040  -29.8150   20.2520 C   0  0  0  0  0  2  0  0  0  0  0  0
  -24.6530  -31.0890   22.1740 N   0  0  0  0  0  0  0  0  0  0  0  0
  -23.5080  -32.1740   23.8030 O   0  0  0  0  0  0  0  0  0  0  0  0
  -22.7330  -29.4730   22.5900 C   0  0  0  0  0  0  0  0  0  0  0  0
  -21.4090  -29.2820   22.4530 N   0  0  0  0  0  0  0  0  0  0  0  0
  -23.4120  -28.8550   23.4140 O   0  0  0  0  0  0  0  0  0  0  0  0
  -20.9170  -29.8340   21.7640 H   0  0  0  0  0  0  0  0  0  0  0  0
  -18.0450  -28.0560   22.9250 C   0  0  0  0  0  0  0  0  0  0  0  0
  -20.5950  -28.3440   23.2260 C   0  0  0  0  0  3  0  0  0  0  0  0
  -20.7210  -26.9080   22.6690 C   0  0  0  0  0  2  0  0  0  0  0  0
  -19.6370  -26.5590   21.6430 C   0  0  0  0  0  2  0  0  0  0  0  0
  -18.2460  -26.7000   22.2690 C   0  0  0  0  0  2  0  0  0  0  0  0
  -19.1500  -28.8350   23.3620 C   0  0  0  0  0  0  0  0  0  0  0  0
  -18.9110  -30.1020   23.9350 C   0  0  0  0  0  3  0  0  0  0  0  0
  -17.6010  -30.5940   24.0750 C   0  0  0  0  0  3  0  0  0  0  0  0
  -16.5090  -29.8150   23.6550 C   0  0  0  0  0  3  0  0  0  0  0  0
  -16.7330  -28.5460   23.0880 C   0  0  0  0  0  3  0  0  0  0  0  0
  -25.8750  -32.5340   23.8870 C   0  0  0  0  0  3  0  0  0  0  0  0
  -26.3880  -31.7770   25.1720 C   0  0  1  0  0  0  0  0  0  0  0  0
  -25.2920  -31.5510   26.2390 C   0  0  0  0  0  1  0  0  0  0  0  0
  -26.9710  -30.3960   24.7970 C   0  0  0  0  0  1  0  0  0  0  0  0
  -27.5390  -32.5770   25.8290 C   0  0  0  0  0  1  0  0  0  0  0  0
  -25.5720  -33.9370   24.1970 N   0  0  0  0  0  0  0  0  0  0  0  0
  -25.9070  -34.9780   23.4230 C   0  0  0  0  0  0  0  0  0  0  0  0
  -26.5780  -34.8590   22.3940 O   0  0  0  0  0  0  0  0  0  0  0  0
  -24.9790  -34.1070   24.9970 H   0  0  0  0  0  0  0  0  0  0  0  0
  -24.1850  -36.7680   23.0390 C   0  0  0  0  0  1  0  0  0  0  0  0
  -25.4190  -36.3710   23.8620 C   0  0  0  0  0  3  0  0  0  0  0  0
  -27.5510  -37.2570   24.6950 C   0  0  0  0  0  1  0  0  0  0  0  0
  -26.4550  -37.4210   23.7430 N   0  0  0  0  0  0  0  0  0  0  0  0
  -26.0490  -38.3430   23.8830 H   0  0  0  0  0  0  0  0  0  0  0  0
  1  7  1  0
  2  4  1  0
  2  1  1  0
  3  2  1  0
  5  2  1  0
  7  8  1  0
  7  6  2  0
  8 18  1  0
  9 23  1  0
 10 15  1  0
 11 12  1  0
 11 10  1  0
 13 12  1  0
 13 27  1  0
 13 14  1  0
 15  9  1  0
 15 14  1  0
 16  9  2  0
 17 18  2  0
 17 20  1  0
 18 22  1  0
 19 21  1  0
 19 17  1  0
 21 23  1  0
 23 20  1  0
 24 25  2  0
 25 44  1  0
 26 25  1  0
 26 29  1  0
 27 24  1  0
 27 28  1  0
 28 26  2  0
 29 30  1  0
 30 31  2  0
 32 35  1  0
 32 31  1  0
 33 32  2  0
 34 33  1  0
 34 29  2  0
 35 36  1  0
 36 37  1  0
 37 38  2  0
 39 38  1  0
 39 43  1  0
 40 39  2  0
 41 36  2  0
 41 40  1  0
 42 41  1  0
 44 45  1  0
 45 48  1  0
 45 47  1  0
 46 44  2  0
 49 50  1  0
 49 24  1  0
 51 49  1  0
 53 52  1  0
 53  1  1  0
 53 54  1  0
 55 54  2  0
 55 56  1  0
 57 68  2  0
 58 56  1  0
 58 63  1  0
 59 67  1  0
 59 69  1  0
 60 66  1  0
 60 62  1  0
 61 67  1  0
 62 61  1  0
 63 62  2  0
 64 65  1  0
 64 58  2  0
 65 60  2  0
 66 59  1  0
 67 57  1  0
 69 71  2  0
 70 69  1  0
 72 70  1  0
 73 82  2  0
 73 78  1  0
 74 70  1  0
 74 78  1  0
 75 74  1  0
 76 77  1  0
 76 75  1  0
 77 73  1  0
 78 79  2  0
 79 80  1  0
 81 80  2  0
 82 81  1  0
 83 57  1  0
 83 88  1  0
 83 84  1  0
 84 87  1  1
 84 85  1  0
 86 84  1  0
 88 91  1  0
 89 93  1  0
 89 88  1  0
 90 89  2  0
 93 92  1  0
 95 93  1  0
 95 96  1  0
 95 94  1  0
M  ISO  4   9 100  23 100  55 101  56 101
M  END
>  <TORSDO>  (26) 
F 22

>  <SCORE>  (26) 
-13.559

>  <name>  (26) 
25

>  <ligand_id>  (26) 
25

>  <original_smiles>  (26) 
[H]C([H])=C(C([H])([H])C(=C1C([H])([H])N(C(=O)N2C([H])([H])C([H])([H])C([H])([H])C([H])(n3nc(-c4c([H])c([H])c(Oc5c([H])c([H])c(F)c([H])c5F)c([H])c4[H])c(C(=O)N([H])[H])c3N([H])[H])C2([H])[H])C([H])([H])C1([H])[H])C([H])([H])[H])C([H])(C([H])(C([H])([H])[H])C([H])([H])C([H])([H])Oc1c([H])c([H])c2c(c1[H])C([H])([H])N(C(=O)C([H])(N([H])C(=O)C([H])(N([H])C([H])([H])[H])C([H])([H])[H])C(C([H])([H])[H])(C([H])([H])[H])C([H])([H])[H])C([H])(C(=O)N([H])C1([H])c3c([H])c([H])c([H])c([H])c3C([H])([H])C([H])([H])C1([H])[H])C2([H])[H])[N+]([H])([H])[H]

>  <smiles>  (26) 
[H]C([H])=C(C([H])([H])C(=C1C([H])([H])N(C(=O)N2C([H])([H])C([H])([H])C([H])([H])C([H])(n3nc(-c4c([H])c([H])c(Oc5c([H])c([H])c(F)c([H])c5F)c([H])c4[H])c(C(=O)N([H])[H])c3N([H])[H])C2([H])[H])C([H])([H])C1([H])[H])C([H])([H])[H])C([H])(C([H])(C([H])([H])[H])C([H])([H])C([H])([H])Oc1c([H])c([H])c2c(c1[H])C([H])([H])N(C(=O)C([H])(N([H])C(=O)C([H])(N([H])C([H])([H])[H])C([H])([H])[H])C(C([H])([H])[H])(C([H])([H])[H])C([H])([H])[H])C([H])(C(=O)N([H])C1([H])c3c([H])c([H])c([H])c([H])c3C([H])([H])C([H])([H])C1([H])[H])C2([H])[H])[N+]([H])([H])[H]

$$$$
26:0:0
     RDKit          3D

 93101  0  0  1  0  0  0  0  0999 V2000
  -29.6790  -19.4840   20.3020 C   0  0  0  0  0  0  0  0  0  0  0  0
  -28.8690  -20.1500   19.6760 C   0  0  0  0  0  0  0  0  0  0  0  0
  -29.4660  -20.8130   20.6530 C   0  0  0  0  0  3  0  0  0  0  0  0
  -28.7750  -21.9480   20.5490 N   0  0  0  0  0  2  0  0  0  0  0  0
  -27.9950  -20.1180   18.6090 N   0  0  0  0  0  0  0  0  0  0  0  0
  -28.0160  -19.3350   17.9650 H   0  0  0  0  0  0  0  0  0  0  0  0
  -27.7030  -20.9720   18.1490 H   0  0  0  0  0  0  0  0  0  0  0  0
  -31.7010  -18.0930   21.2350 C   0  0  0  0  0  1  0  0  0  0  0  0
  -30.4540  -18.0220   20.3350 C   0  0  0  0  0  3  0  0  0  0  0  0
  -29.7420  -16.4910   20.4100 C   0  0  0  0  0  3  0  0  0  0  0  0
  -30.5280  -15.0400   20.1070 C   0  0  0  0  0  0  0  0  0  0  0  0
  -30.3880  -12.7170   19.1170 C   0  0  0  0  0  2  0  0  0  0  0  0
  -29.4140  -12.7630   17.9110 C   0  0  0  0  0  2  0  0  0  0  0  0
  -27.9480  -12.5430   18.3500 C   0  0  0  0  0  2  0  0  0  0  0  0
  -27.5810  -13.3810   19.6010 C   0  0  0  0  0  3  0  0  0  0  0  0
  -28.6770  -13.3140   20.6820 C   0  0  0  0  0  2  0  0  0  0  0  0
  -29.9470  -13.7630   20.0860 N   0  0  0  0  0  0  0  0  0  0  0  0
  -31.7090  -15.0870   19.7480 O   0  0  0  0  0  0  0  0  0  0  0  0
  -25.2330  -13.9130   20.4760 C   0  0  0  0  0  0  0  0  0  0  0  0
  -24.1910  -13.1180   20.8730 C   0  0  0  0  0  0  0  0  0  0  0  0
  -24.6640  -11.7740   20.7790 C   0  0  0  0  0  0  0  0  0  0  0  0
  -26.2650  -13.0510   20.1450 N   0  0  0  0  0  0  0  0  0  0  0  0
  -25.9390  -11.7570   20.3990 N   0  0  0  0  0  0  0  0  0  0  0  0
  -23.9510  -10.5000   20.9680 C   0  0  0  0  0  0  0  0  0  0  0  0
  -24.3910   -9.5330   21.9010 C   0  0  0  0  0  3  0  0  0  0  0  0
  -23.6770   -8.3300   22.0810 C   0  0  0  0  0  3  0  0  0  0  0  0
  -22.5050   -8.0810   21.3270 C   0  0  0  0  0  0  0  0  0  0  0  0
  -22.0800   -9.0330   20.3840 C   0  0  0  0  0  3  0  0  0  0  0  0
  -22.7960  -10.2300   20.2030 C   0  0  0  0  0  3  0  0  0  0  0  0
  -21.7610   -6.9270   21.4150 O   0  0  0  0  0  0  0  0  0  0  0  0
  -21.6740   -6.2160   22.5830 C   0  0  0  0  0  0  0  0  0  0  0  0
  -21.1710   -6.7910   23.7710 C   0  0  0  0  0  3  0  0  0  0  0  0
  -21.0310   -6.0040   24.9310 C   0  0  0  0  0  3  0  0  0  0  0  0
  -21.3850   -4.6420   24.9040 C   0  0  0  0  0  0  0  0  0  0  0  0
  -21.8820   -4.0650   23.7230 C   0  0  0  0  0  3  0  0  0  0  0  0
  -22.0230   -4.8510   22.5630 C   0  0  0  0  0  0  0  0  0  0  0  0
  -22.4840   -4.2850   21.4230 F   0  0  0  0  0  0  0  0  0  0  0  0
  -21.2410   -3.8830   26.0170 F   0  0  0  0  0  0  0  0  0  0  0  0
  -22.8040  -13.5790   21.2130 C   0  0  0  0  0  0  0  0  0  0  0  0
  -22.1090  -12.8650   22.0930 N   0  0  0  0  0  0  0  0  0  0  0  0
  -22.3410  -14.6100   20.7290 O   0  0  0  0  0  0  0  0  0  0  0  0
  -22.4910  -12.0320   22.5160 H   0  0  0  0  0  0  0  0  0  0  0  0
  -21.1780  -13.1600   22.3470 H   0  0  0  0  0  0  0  0  0  0  0  0
  -25.3720  -15.2890   20.3440 N   0  0  0  0  0  0  0  0  0  0  0  0
  -24.5450  -15.8720   20.4420 H   0  0  0  0  0  0  0  0  0  0  0  0
  -26.0860  -15.7320   19.7800 H   0  0  0  0  0  0  0  0  0  0  0  0
  -28.9380  -16.4310   21.6370 N   0  0  0  0  0  4  0  0  0  0  0  0
  -28.3760  -17.2590   21.7100 H   0  0  0  0  0  0  0  0  0  0  0  0
  -29.5370  -16.3780   22.4440 H   0  0  0  0  0  0  0  0  0  0  0  0
  -28.3420  -15.6250   21.6320 H   0  0  0  0  0  0  0  0  0  0  0  0
  -29.2250  -23.4590   20.5170 C   0  0  0  0  0  3  0  0  0  0  0  0
  -28.0980  -24.7280   20.5620 C   0  0  0  0  0  3  0  0  0  0  0  0
  -28.3440  -26.2680   20.4530 O   0  0  0  0  0  0  0  0  0  0  0  0
  -24.6290  -31.9540   23.2990 C   0  0  0  0  0  0  0  0  0  0  0  0
  -27.2670  -27.2280   20.3690 C   0  0  0  0  0  0  0  0  0  0  0  0
  -23.4490  -30.5460   21.6530 C   0  0  0  0  0  3  0  0  0  0  0  0
  -24.9240  -28.9580   20.2640 C   0  0  0  0  0  0  0  0  0  0  0  0
  -26.0030  -30.8200   21.5160 C   0  0  0  0  0  2  0  0  0  0  0  0
  -26.0930  -29.4210   20.8800 C   0  0  0  0  0  0  0  0  0  0  0  0
  -27.2650  -28.5790   20.9090 C   0  0  0  0  0  3  0  0  0  0  0  0
  -26.0710  -26.8650   19.7070 C   0  0  0  0  0  3  0  0  0  0  0  0
  -24.9280  -27.6950   19.6540 C   0  0  0  0  0  3  0  0  0  0  0  0
  -23.6920  -29.8530   20.2840 C   0  0  0  0  0  2  0  0  0  0  0  0
  -24.7110  -31.1320   22.2080 N   0  0  0  0  0  0  0  0  0  0  0  0
  -23.5360  -32.2420   23.8080 O   0  0  0  0  0  0  0  0  0  0  0  0
  -22.7550  -29.5490   22.6160 C   0  0  0  0  0  0  0  0  0  0  0  0
  -21.4280  -29.3910   22.4740 N   0  0  0  0  0  0  0  0  0  0  0  0
  -23.4130  -28.9300   23.4550 O   0  0  0  0  0  0  0  0  0  0  0  0
  -20.9490  -29.9520   21.7820 H   0  0  0  0  0  0  0  0  0  0  0  0
  -18.0340  -28.2150   22.9590 C   0  0  0  0  0  0  0  0  0  0  0  0
  -20.5950  -28.4600   23.2420 C   0  0  0  0  0  3  0  0  0  0  0  0
  -20.6920  -27.0270   22.6710 C   0  0  0  0  0  2  0  0  0  0  0  0
  -19.5890  -26.7010   21.6570 C   0  0  0  0  0  2  0  0  0  0  0  0
  -18.2030  -26.8600   22.2910 C   0  0  0  0  0  2  0  0  0  0  0  0
  -19.1560  -28.9720   23.3920 C   0  0  0  0  0  0  0  0  0  0  0  0
  -18.9410  -30.2390   23.9720 C   0  0  0  0  0  3  0  0  0  0  0  0
  -17.6370  -30.7520   24.1250 C   0  0  0  0  0  3  0  0  0  0  0  0
  -16.5310  -29.9900   23.7120 C   0  0  0  0  0  3  0  0  0  0  0  0
  -16.7300  -28.7220   23.1340 C   0  0  0  0  0  3  0  0  0  0  0  0
  -25.8980  -32.5950   23.9430 C   0  0  0  0  0  3  0  0  0  0  0  0
  -25.5810  -33.9990   24.2550 N   0  0  0  0  0  0  0  0  0  0  0  0
  -25.9030  -35.0450   23.4840 C   0  0  0  0  0  0  0  0  0  0  0  0
  -26.5620  -34.9300   22.4480 O   0  0  0  0  0  0  0  0  0  0  0  0
  -24.9900  -34.1540   25.0600 H   0  0  0  0  0  0  0  0  0  0  0  0
  -24.1540  -36.8230   23.1560 C   0  0  0  0  0  1  0  0  0  0  0  0
  -25.4200  -36.4380   23.9360 C   0  0  0  0  0  3  0  0  0  0  0  0
  -27.5720  -37.3520   24.6930 C   0  0  0  0  0  1  0  0  0  0  0  0
  -26.4430  -37.4930   23.7780 N   0  0  0  0  0  0  0  0  0  0  0  0
  -26.0360  -38.4160   23.9130 H   0  0  0  0  0  0  0  0  0  0  0  0
  -26.3860  -31.8330   25.2360 C   0  0  1  0  0  0  0  0  0  0  0  0
  -25.2720  -31.6070   26.2880 C   0  0  0  0  0  1  0  0  0  0  0  0
  -26.9770  -30.4520   24.8720 C   0  0  0  0  0  1  0  0  0  0  0  0
  -27.5250  -32.6340   25.9120 C   0  0  0  0  0  1  0  0  0  0  0  0
  1  9  1  0
  1  3  1  0
  2  1  2  0
  2  3  1  0
  3  4  1  0
  5  2  1  0
  6  5  1  0
  7  5  1  0
  9 10  1  0
  9  8  1  0
 10 11  1  0
 10 47  1  0
 12 17  1  0
 13 14  1  0
 13 12  1  0
 15 14  1  0
 15 22  1  0
 15 16  1  0
 17 11  1  0
 17 16  1  0
 18 11  2  0
 19 20  2  0
 20 39  1  0
 21 20  1  0
 21 24  1  0
 22 23  1  0
 22 19  1  0
 23 21  2  0
 24 25  1  0
 25 26  2  0
 27 30  1  0
 27 26  1  0
 28 27  2  0
 29 28  1  0
 29 24  2  0
 30 31  1  0
 31 32  1  0
 32 33  2  0
 34 33  1  0
 34 38  1  0
 35 34  2  0
 36 31  2  0
 36 35  1  0
 37 36  1  0
 39 40  1  0
 40 43  1  0
 40 42  1  0
 41 39  2  0
 44 45  1  0
 44 19  1  0
 46 44  1  0
 47 48  1  0
 47 49  1  0
 50 47  1  0
 51  4  1  0
 51 52  2  0
 53 52  1  0
 54 65  2  0
 55 53  1  0
 55 60  1  0
 56 64  1  0
 56 66  1  0
 57 63  1  0
 57 59  1  0
 58 64  1  0
 59 60  2  0
 59 58  1  0
 61 55  2  0
 62 61  1  0
 62 57  2  0
 63 56  1  0
 64 54  1  0
 66 68  2  0
 67 66  1  0
 69 67  1  0
 70 79  2  0
 70 75  1  0
 71 67  1  0
 71 75  1  0
 72 71  1  0
 73 74  1  0
 73 72  1  0
 74 70  1  0
 75 76  2  0
 76 77  1  0
 78 77  2  0
 79 78  1  0
 80 54  1  0
 80 81  1  0
 80 90  1  0
 81 84  1  0
 82 86  1  0
 82 81  1  0
 83 82  2  0
 86 85  1  0
 88 89  1  0
 88 86  1  0
 88 87  1  0
 90 93  1  1
 90 91  1  0
 92 90  1  0
M  ISO  4  10 100  11 100  52 101  53 101
M  END
>  <TORSDO>  (27) 
F 22

>  <SCORE>  (27) 
-13.934

>  <name>  (27) 
26

>  <ligand_id>  (27) 
26

>  <original_smiles>  (27) 
[H]c1c([H])c([H])c2c(c1[H])C([H])([H])C([H])([H])C([H])([H])C2([H])N([H])C(=O)C1([H])N(C(=O)C([H])(N([H])C(=O)C([H])(N([H])C([H])([H])[H])C([H])([H])[H])C(C([H])([H])[H])(C([H])([H])[H])C([H])([H])[H])C([H])([H])c2c([H])c(OC([H])([H])C([H])([H])N=c3c(N([H])[H])c3C([H])(C([H])([H])[H])C([H])(C(=O)N3C([H])([H])C([H])([H])C([H])([H])C([H])(n4nc(-c5c([H])c([H])c(Oc6c([H])c([H])c(F)c([H])c6F)c([H])c5[H])c(C(=O)N([H])[H])c4N([H])[H])C3([H])[H])[N+]([H])([H])[H])c([H])c([H])c2C1([H])[H]

>  <smiles>  (27) 
[H]c1c([H])c([H])c2c(c1[H])C([H])([H])C([H])([H])C([H])([H])C2([H])N([H])C(=O)C1([H])N(C(=O)C([H])(N([H])C(=O)C([H])(N([H])C([H])([H])[H])C([H])([H])[H])C(C([H])([H])[H])(C([H])([H])[H])C([H])([H])[H])C([H])([H])c2c([H])c(OC([H])([H])C([H])([H])N=c3c(N([H])[H])c3C([H])(C([H])([H])[H])C([H])(C(=O)N3C([H])([H])C([H])([H])C([H])([H])C([H])(n4nc(-c5c([H])c([H])c(Oc6c([H])c([H])c(F)c([H])c6F)c([H])c5[H])c(C(=O)N([H])[H])c4N([H])[H])C3([H])[H])[N+]([H])([H])[H])c([H])c([H])c2C1([H])[H]

$$$$
27:0:0
     RDKit          3D

100108  0  0  1  0  0  0  0  0999 V2000
  -28.3070  -21.2650   19.3320 C   0  0  0  0  0  2  0  0  0  0  0  0
  -28.6050  -23.6840   20.1510 C   0  0  0  0  0  0  0  0  0  0  0  0
  -29.6250  -23.4270   18.3370 C   0  0  0  0  0  2  0  0  0  0  0  0
  -29.2670  -22.4570   19.4840 C   0  0  0  0  0  3  0  0  0  0  0  0
  -29.4780  -24.6390   19.2980 C   0  0  0  0  0  3  0  0  0  0  0  0
  -27.6850  -23.8270   20.9600 O   0  0  0  0  0  0  0  0  0  0  0  0
  -28.7670  -25.9290   18.8550 C   0  0  0  0  0  3  0  0  0  0  0  0
  -30.2790  -26.2350   16.7520 C   0  0  0  0  0  1  0  0  0  0  0  0
  -29.6500  -26.8670   18.0000 C   0  0  0  0  0  2  0  0  0  0  0  0
  -28.4220  -26.7010   20.0160 O   0  0  0  0  0  0  0  0  0  0  0  0
  -24.6240  -31.8200   23.2050 C   0  0  0  0  0  0  0  0  0  0  0  0
  -27.2370  -27.4080   20.0330 C   0  0  0  0  0  0  0  0  0  0  0  0
  -23.4040  -30.4490   21.5480 C   0  0  0  0  0  3  0  0  0  0  0  0
  -24.8420  -28.9180   20.1050 C   0  0  0  0  0  0  0  0  0  0  0  0
  -25.9320  -30.7890   21.3500 C   0  0  0  0  0  2  0  0  0  0  0  0
  -26.0060  -29.4240   20.6950 C   0  0  0  0  0  0  0  0  0  0  0  0
  -27.2020  -28.6720   20.6680 C   0  0  0  0  0  3  0  0  0  0  0  0
  -26.0400  -26.8980   19.4790 C   0  0  0  0  0  3  0  0  0  0  0  0
  -24.8510  -27.6480   19.5050 C   0  0  0  0  0  3  0  0  0  0  0  0
  -23.6100  -29.7920   20.1580 C   0  0  0  0  0  2  0  0  0  0  0  0
  -24.6720  -31.0320   22.0940 N   0  0  0  0  0  0  0  0  0  0  0  0
  -23.5460  -32.0950   23.7490 O   0  0  0  0  0  0  0  0  0  0  0  0
  -22.7470  -29.4180   22.4920 C   0  0  0  0  0  0  0  0  0  0  0  0
  -21.4210  -29.2520   22.3690 N   0  0  0  0  0  0  0  0  0  0  0  0
  -23.4260  -28.7750   23.2970 O   0  0  0  0  0  0  0  0  0  0  0  0
  -20.9330  -29.8260   21.6950 H   0  0  0  0  0  0  0  0  0  0  0  0
  -18.0390  -28.0810   22.8680 C   0  0  0  0  0  0  0  0  0  0  0  0
  -20.6000  -28.3110   23.1310 C   0  0  0  0  0  3  0  0  0  0  0  0
  -20.6870  -26.8850   22.5350 C   0  0  0  0  0  2  0  0  0  0  0  0
  -19.5760  -26.5850   21.5240 C   0  0  0  0  0  2  0  0  0  0  0  0
  -18.1990  -26.7390   22.1740 C   0  0  0  0  0  2  0  0  0  0  0  0
  -19.1670  -28.8260   23.3030 C   0  0  0  0  0  0  0  0  0  0  0  0
  -18.9630  -30.0850   23.9060 C   0  0  0  0  0  3  0  0  0  0  0  0
  -17.6650  -30.5980   24.0860 C   0  0  0  0  0  3  0  0  0  0  0  0
  -16.5500  -29.8500   23.6650 C   0  0  0  0  0  3  0  0  0  0  0  0
  -16.7390  -28.5940   23.0620 C   0  0  0  0  0  3  0  0  0  0  0  0
  -25.9180  -32.4330   23.8280 C   0  0  0  0  0  3  0  0  0  0  0  0
  -26.4400  -31.6360   25.0850 C   0  0  1  0  0  0  0  0  0  0  0  0
  -25.3550  -31.3840   26.1580 C   0  0  0  0  0  1  0  0  0  0  0  0
  -27.0190  -30.2660   24.6630 C   0  0  0  0  0  1  0  0  0  0  0  0
  -27.5980  -32.4160   25.7520 C   0  0  0  0  0  1  0  0  0  0  0  0
  -25.6210  -33.8270   24.1820 N   0  0  0  0  0  0  0  0  0  0  0  0
  -25.9460  -34.8870   23.4290 C   0  0  0  0  0  0  0  0  0  0  0  0
  -26.6000  -34.7930   22.3880 O   0  0  0  0  0  0  0  0  0  0  0  0
  -25.0490  -33.9750   25.0010 H   0  0  0  0  0  0  0  0  0  0  0  0
  -24.2200  -36.6890   23.1200 C   0  0  0  0  0  1  0  0  0  0  0  0
  -25.4700  -36.2700   23.9100 C   0  0  0  0  0  3  0  0  0  0  0  0
  -27.6160  -37.1420   24.7250 C   0  0  0  0  0  1  0  0  0  0  0  0
  -26.5040  -37.3220   23.7950 N   0  0  0  0  0  0  0  0  0  0  0  0
  -26.1020  -38.2420   23.9600 H   0  0  0  0  0  0  0  0  0  0  0  0
  -27.8640  -18.8960   18.6280 C   0  0  0  0  0  1  0  0  0  0  0  0
  -28.2330  -20.6350   16.8960 C   0  0  0  0  0  1  0  0  0  0  0  0
  -28.6880  -20.1570   18.2980 C   0  0  1  0  0  0  0  0  0  0  0  0
  -30.8800  -19.5450   17.1640 C   0  0  0  0  0  2  0  0  0  0  0  0
  -30.1860  -19.7510   18.3030 C   0  0  0  0  0  0  0  0  0  0  0  0
  -32.2330  -20.3560   19.6430 C   0  0  0  0  0  1  0  0  0  0  0  0
  -30.9000  -19.5690   19.6510 C   0  0  0  0  0  3  0  0  0  0  0  0
  -31.1230  -18.0660   19.9910 C   0  0  0  0  0  2  0  0  0  0  0  0
  -29.4320  -17.6050   21.8360 C   0  0  0  0  0  1  0  0  0  0  0  0
  -31.6560  -18.5620   22.4600 C   0  0  0  0  0  1  0  0  0  0  0  0
  -30.9330  -17.6200   21.4750 C   0  0  2  0  0  0  0  0  0  0  0  0
  -31.5450  -16.2070   21.6830 C   0  0  0  0  0  2  0  0  0  0  0  0
  -31.1410  -14.3130   20.0950 C   0  0  0  0  0  0  0  0  0  0  0  0
  -30.6910  -12.1890   18.9150 C   0  0  0  0  0  2  0  0  0  0  0  0
  -29.7280  -12.3670   17.7270 C   0  0  0  0  0  2  0  0  0  0  0  0
  -28.2640  -12.2810   18.1940 C   0  0  0  0  0  2  0  0  0  0  0  0
  -27.9760  -13.1900   19.4190 C   0  0  0  0  0  3  0  0  0  0  0  0
  -29.0380  -12.9790   20.5190 C   0  0  0  0  0  2  0  0  0  0  0  0
  -30.3720  -13.2050   19.9290 N   0  0  0  0  0  0  0  0  0  0  0  0
  -32.1540  -14.5400   19.4270 O   0  0  0  0  0  0  0  0  0  0  0  0
  -30.7660  -15.1160   21.0980 N   0  0  0  0  0  0  0  0  0  0  0  0
  -29.9150  -14.8660   21.5760 H   0  0  0  0  0  0  0  0  0  0  0  0
  -25.6190  -13.9030   20.1690 C   0  0  0  0  0  0  0  0  0  0  0  0
  -24.5300  -13.1780   20.5760 C   0  0  0  0  0  0  0  0  0  0  0  0
  -24.9370  -11.8100   20.5570 C   0  0  0  0  0  0  0  0  0  0  0  0
  -26.6220  -12.9770   19.9290 N   0  0  0  0  0  0  0  0  0  0  0  0
  -26.2160  -11.7140   20.2190 N   0  0  0  0  0  0  0  0  0  0  0  0
  -24.1680  -10.5790   20.7860 C   0  0  0  0  0  0  0  0  0  0  0  0
  -24.5670   -9.6260   21.7470 C   0  0  0  0  0  3  0  0  0  0  0  0
  -23.8000   -8.4600   21.9620 C   0  0  0  0  0  3  0  0  0  0  0  0
  -22.6200   -8.2400   21.2120 C   0  0  0  0  0  0  0  0  0  0  0  0
  -22.2390   -9.1820   20.2410 C   0  0  0  0  0  3  0  0  0  0  0  0
  -23.0060  -10.3400   20.0250 C   0  0  0  0  0  3  0  0  0  0  0  0
  -21.8260   -7.1250   21.3340 O   0  0  0  0  0  0  0  0  0  0  0  0
  -21.7290   -6.4350   22.5150 C   0  0  0  0  0  0  0  0  0  0  0  0
  -21.3060   -7.0580   23.7100 C   0  0  0  0  0  3  0  0  0  0  0  0
  -21.1540   -6.2960   24.8860 C   0  0  0  0  0  3  0  0  0  0  0  0
  -21.4160   -4.9120   24.8680 C   0  0  0  0  0  0  0  0  0  0  0  0
  -21.8340   -4.2890   23.6780 C   0  0  0  0  0  3  0  0  0  0  0  0
  -21.9870   -5.0490   22.5050 C   0  0  0  0  0  0  0  0  0  0  0  0
  -22.3690   -4.4400   21.3570 F   0  0  0  0  0  0  0  0  0  0  0  0
  -21.2630   -4.1790   25.9950 F   0  0  0  0  0  0  0  0  0  0  0  0
  -23.1590  -13.7140   20.8730 C   0  0  0  0  0  0  0  0  0  0  0  0
  -22.4330  -13.0700   21.7800 N   0  0  0  0  0  0  0  0  0  0  0  0
  -22.7420  -14.7380   20.3340 O   0  0  0  0  0  0  0  0  0  0  0  0
  -22.7840  -12.2410   22.2360 H   0  0  0  0  0  0  0  0  0  0  0  0
  -21.5150  -13.4130   22.0220 H   0  0  0  0  0  0  0  0  0  0  0  0
  -25.8330  -15.2630   19.9650 N   0  0  0  0  0  0  0  0  0  0  0  0
  -25.1020  -15.9530   20.0950 H   0  0  0  0  0  0  0  0  0  0  0  0
  -26.6960  -15.6600   19.6140 H   0  0  0  0  0  0  0  0  0  0  0  0
  2  6  2  0
  3  5  1  0
  3  4  1  0
  4  1  1  0
  4  2  1  0
  5  7  1  0
  5  2  1  0
  7  9  1  0
  7 10  1  0
  8  9  1  0
 10 12  1  0
 11 22  2  0
 12 17  1  0
 13 21  1  0
 13 23  1  0
 14 20  1  0
 14 16  1  0
 15 21  1  0
 16 15  1  0
 17 16  2  0
 18 19  1  0
 18 12  2  0
 19 14  2  0
 20 13  1  0
 21 11  1  0
 23 25  2  0
 24 23  1  0
 26 24  1  0
 27 36  2  0
 27 32  1  0
 28 24  1  0
 28 32  1  0
 29 28  1  0
 30 31  1  0
 30 29  1  0
 31 27  1  0
 32 33  2  0
 33 34  1  0
 35 34  2  0
 36 35  1  0
 37 11  1  0
 37 42  1  0
 37 38  1  0
 38 41  1  1
 38 39  1  0
 40 38  1  0
 42 45  1  0
 43 47  1  0
 43 42  1  0
 44 43  2  0
 47 46  1  0
 49 47  1  0
 49 50  1  0
 49 48  1  0
 53 52  1  6
 53 55  1  0
 53 51  1  0
 53  1  1  0
 54 55  2  0
 55 57  1  0
 57 56  1  0
 57 58  1  0
 58 61  1  0
 61 62  1  0
 61 59  1  1
 61 60  1  0
 63 71  1  0
 64 69  1  0
 65 66  1  0
 65 64  1  0
 67 66  1  0
 67 76  1  0
 67 68  1  0
 69 63  1  0
 69 68  1  0
 70 63  2  0
 71 72  1  0
 71 62  1  0
 73 74  2  0
 74 93  1  0
 75 74  1  0
 75 78  1  0
 76 73  1  0
 76 77  1  0
 77 75  2  0
 78 79  1  0
 79 80  2  0
 81 84  1  0
 81 80  1  0
 82 81  2  0
 83 82  1  0
 83 78  2  0
 84 85  1  0
 85 86  1  0
 86 87  2  0
 88 87  1  0
 88 92  1  0
 89 88  2  0
 90 85  2  0
 90 89  1  0
 91 90  1  0
 93 94  1  0
 94 97  1  0
 94 96  1  0
 95 93  2  0
 98 99  1  0
 98 73  1  0
100 98  1  0
M  ISO  4   7 101  10 101  63 100  71 100
M  END
>  <TORSDO>  (28) 
F 25

>  <SCORE>  (28) 
-11.440

>  <name>  (28) 
27

>  <ligand_id>  (28) 
27

>  <original_smiles>  (28) 
[H]C([H])=C(C([H])(C([H])([H])[H])C([H])([H])C(C([H])([H])[H])(C([H])([H])[H])C([H])([H])N([H])C(=O)N1C([H])([H])C([H])([H])C([H])([H])C([H])(n2nc(-c3c([H])c([H])c(Oc4c([H])c([H])c(F)c([H])c4F)c([H])c3[H])c(C(=O)N([H])[H])c2N([H])[H])C1([H])[H])C(C([H])([H])[H])(C([H])([H])[H])C([H])([H])C1([H])C(=O)C([H])(C([H])(Oc2c([H])c([H])c3c(c2[H])C([H])([H])N(C(=O)C([H])(N([H])C(=O)C([H])(N([H])C([H])([H])[H])C([H])([H])[H])C(C([H])([H])[H])(C([H])([H])[H])C([H])([H])[H])C([H])(C(=O)N([H])C2([H])c4c([H])c([H])c([H])c([H])c4C([H])([H])C([H])([H])C2([H])[H])C3([H])[H])C([H])([H])C([H])([H])[H])C1([H])[H]

>  <smiles>  (28) 
[H]C([H])=C(C([H])(C([H])([H])[H])C([H])([H])C(C([H])([H])[H])(C([H])([H])[H])C([H])([H])N([H])C(=O)N1C([H])([H])C([H])([H])C([H])([H])C([H])(n2nc(-c3c([H])c([H])c(Oc4c([H])c([H])c(F)c([H])c4F)c([H])c3[H])c(C(=O)N([H])[H])c2N([H])[H])C1([H])[H])C(C([H])([H])[H])(C([H])([H])[H])C([H])([H])C1([H])C(=O)C([H])(C([H])(Oc2c([H])c([H])c3c(c2[H])C([H])([H])N(C(=O)C([H])(N([H])C(=O)C([H])(N([H])C([H])([H])[H])C([H])([H])[H])C(C([H])([H])[H])(C([H])([H])[H])C([H])([H])[H])C([H])(C(=O)N([H])C2([H])c4c([H])c([H])c([H])c([H])c4C([H])([H])C([H])([H])C2([H])[H])C3([H])[H])C([H])([H])C([H])([H])[H])C1([H])[H]

$$$$
28:0:0
     RDKit          3D

 90 98  0  0  1  0  0  0  0  0999 V2000
  -29.6560  -21.1170   20.7260 C   0  0  0  0  0  0  0  0  0  0  0  0
  -29.0920  -22.1200   19.8590 C   0  0  0  0  0  0  0  0  0  0  0  0
  -30.3600  -22.1950   21.5040 C   0  0  0  0  0  2  0  0  0  0  0  0
  -29.6050  -19.8660   20.8850 N   0  0  0  0  0  0  0  0  0  0  0  0
  -29.6500  -23.1460   20.6060 N   0  0  0  0  0  0  0  0  0  0  0  0
  -28.3910  -22.0160   18.8760 O   0  0  0  0  0  0  0  0  0  0  0  0
  -30.5590  -19.2270   21.7780 C   0  0  0  0  0  2  0  0  0  0  0  0
  -30.2180  -17.7290   21.9960 C   0  0  0  0  0  2  0  0  0  0  0  0
  -30.4340  -16.8520   20.7420 C   0  0  0  0  0  2  0  0  0  0  0  0
  -30.7750  -14.4340   20.2860 C   0  0  0  0  0  0  0  0  0  0  0  0
  -30.3840  -12.3330   19.0580 C   0  0  0  0  0  2  0  0  0  0  0  0
  -29.4170  -12.6320   17.8960 C   0  0  0  0  0  2  0  0  0  0  0  0
  -27.9530  -12.5120   18.3600 C   0  0  0  0  0  2  0  0  0  0  0  0
  -27.6770  -13.2910   19.6750 C   0  0  0  0  0  3  0  0  0  0  0  0
  -28.7580  -12.9820   20.7350 C   0  0  0  0  0  2  0  0  0  0  0  0
  -30.0770  -13.2750   20.1470 N   0  0  0  0  0  0  0  0  0  0  0  0
  -31.8540  -14.6350   19.7250 O   0  0  0  0  0  0  0  0  0  0  0  0
  -30.1400  -15.4230   20.9400 N   0  0  0  0  0  0  0  0  0  0  0  0
  -29.2630  -15.1810   21.3790 H   0  0  0  0  0  0  0  0  0  0  0  0
  -25.2910  -13.9090   20.4180 C   0  0  0  0  0  0  0  0  0  0  0  0
  -24.2270  -13.1410   20.8100 C   0  0  0  0  0  0  0  0  0  0  0  0
  -24.6820  -11.7870   20.7760 C   0  0  0  0  0  0  0  0  0  0  0  0
  -26.3290  -13.0220   20.1750 N   0  0  0  0  0  0  0  0  0  0  0  0
  -25.9650  -11.7420   20.4420 N   0  0  0  0  0  0  0  0  0  0  0  0
  -23.9540  -10.5280   20.9870 C   0  0  0  0  0  0  0  0  0  0  0  0
  -24.4020   -9.5630   21.9160 C   0  0  0  0  0  3  0  0  0  0  0  0
  -23.6750   -8.3700   22.1150 C   0  0  0  0  0  3  0  0  0  0  0  0
  -22.4870   -8.1310   21.3830 C   0  0  0  0  0  0  0  0  0  0  0  0
  -22.0590   -9.0840   20.4440 C   0  0  0  0  0  3  0  0  0  0  0  0
  -22.7860  -10.2690   20.2430 C   0  0  0  0  0  3  0  0  0  0  0  0
  -21.7340   -6.9870   21.4900 O   0  0  0  0  0  0  0  0  0  0  0  0
  -21.6990   -6.2530   22.6480 C   0  0  0  0  0  0  0  0  0  0  0  0
  -21.2990   -6.8200   23.8790 C   0  0  0  0  0  3  0  0  0  0  0  0
  -21.2140   -6.0140   25.0310 C   0  0  0  0  0  3  0  0  0  0  0  0
  -21.5170   -4.6410   24.9540 C   0  0  0  0  0  0  0  0  0  0  0  0
  -21.9110   -4.0730   23.7300 C   0  0  0  0  0  3  0  0  0  0  0  0
  -21.9990   -4.8770   22.5790 C   0  0  0  0  0  0  0  0  0  0  0  0
  -22.3590   -4.3210   21.3960 F   0  0  0  0  0  0  0  0  0  0  0  0
  -21.4260   -3.8640   26.0580 F   0  0  0  0  0  0  0  0  0  0  0  0
  -22.8390  -13.6260   21.1110 C   0  0  0  0  0  0  0  0  0  0  0  0
  -22.1260  -12.9360   21.9970 N   0  0  0  0  0  0  0  0  0  0  0  0
  -22.3910  -14.6510   20.5960 O   0  0  0  0  0  0  0  0  0  0  0  0
  -22.4980  -12.1070   22.4340 H   0  0  0  0  0  0  0  0  0  0  0  0
  -21.1980  -13.2480   22.2460 H   0  0  0  0  0  0  0  0  0  0  0  0
  -25.4610  -15.2780   20.2350 N   0  0  0  0  0  0  0  0  0  0  0  0
  -24.7060  -15.9430   20.3610 H   0  0  0  0  0  0  0  0  0  0  0  0
  -26.3210  -15.7060   19.9130 H   0  0  0  0  0  0  0  0  0  0  0  0
  -29.6520  -24.6140   20.5160 C   0  0  0  0  0  2  0  0  0  0  0  0
  -28.3160  -25.2540   20.0610 C   0  0  0  0  0  2  0  0  0  0  0  0
  -28.3800  -26.6840   20.2250 O   0  0  0  0  0  0  0  0  0  0  0  0
  -24.5580  -31.8850   23.2530 C   0  0  0  0  0  0  0  0  0  0  0  0
  -27.2000  -27.4070   20.2050 C   0  0  0  0  0  0  0  0  0  0  0  0
  -23.3550  -30.4840   21.6090 C   0  0  0  0  0  3  0  0  0  0  0  0
  -24.8090  -28.9330   20.1990 C   0  0  0  0  0  0  0  0  0  0  0  0
  -25.8850  -30.8270   21.4250 C   0  0  0  0  0  2  0  0  0  0  0  0
  -25.9680  -29.4510   20.7910 C   0  0  0  0  0  0  0  0  0  0  0  0
  -27.1650  -28.6950   20.7880 C   0  0  0  0  0  3  0  0  0  0  0  0
  -26.0170  -26.9030   19.6150 C   0  0  0  0  0  3  0  0  0  0  0  0
  -24.8290  -27.6580   19.6090 C   0  0  0  0  0  3  0  0  0  0  0  0
  -23.5710  -29.8000   20.2330 C   0  0  0  0  0  2  0  0  0  0  0  0
  -24.6180  -31.0800   22.1540 N   0  0  0  0  0  0  0  0  0  0  0  0
  -23.4730  -32.1610   23.7860 O   0  0  0  0  0  0  0  0  0  0  0  0
  -22.6960  -29.4660   22.5670 C   0  0  0  0  0  0  0  0  0  0  0  0
  -21.3730  -29.2790   22.4240 N   0  0  0  0  0  0  0  0  0  0  0  0
  -23.3710  -28.8500   23.3950 O   0  0  0  0  0  0  0  0  0  0  0  0
  -20.8890  -29.8320   21.7290 H   0  0  0  0  0  0  0  0  0  0  0  0
  -17.9980  -28.0660   22.8760 C   0  0  0  0  0  0  0  0  0  0  0  0
  -20.5490  -28.3440   23.1890 C   0  0  0  0  0  3  0  0  0  0  0  0
  -20.6700  -26.9070   22.6310 C   0  0  0  0  0  2  0  0  0  0  0  0
  -19.5890  -26.5660   21.6020 C   0  0  0  0  0  2  0  0  0  0  0  0
  -18.1950  -26.7100   22.2200 C   0  0  0  0  0  2  0  0  0  0  0  0
  -19.1040  -28.8410   23.3180 C   0  0  0  0  0  0  0  0  0  0  0  0
  -18.8670  -30.1090   23.8890 C   0  0  0  0  0  3  0  0  0  0  0  0
  -17.5560  -30.6050   24.0240 C   0  0  0  0  0  3  0  0  0  0  0  0
  -16.4640  -29.8280   23.6000 C   0  0  0  0  0  3  0  0  0  0  0  0
  -16.6860  -28.5600   23.0310 C   0  0  0  0  0  3  0  0  0  0  0  0
  -25.8420  -32.5120   23.8790 C   0  0  0  0  0  3  0  0  0  0  0  0
  -25.5350  -33.9120   24.2070 N   0  0  0  0  0  0  0  0  0  0  0  0
  -25.8780  -34.9630   23.4500 C   0  0  0  0  0  0  0  0  0  0  0  0
  -26.5590  -34.8570   22.4260 O   0  0  0  0  0  0  0  0  0  0  0  0
  -24.9330  -34.0700   25.0020 H   0  0  0  0  0  0  0  0  0  0  0  0
  -24.1650  -36.7650   23.0710 C   0  0  0  0  0  1  0  0  0  0  0  0
  -25.3900  -36.3530   23.9020 C   0  0  0  0  0  3  0  0  0  0  0  0
  -27.5160  -37.2250   24.7690 C   0  0  0  0  0  1  0  0  0  0  0  0
  -26.4290  -37.4000   23.8070 N   0  0  0  0  0  0  0  0  0  0  0  0
  -26.0260  -38.3220   23.9500 H   0  0  0  0  0  0  0  0  0  0  0  0
  -26.3550  -31.7390   25.1550 C   0  0  1  0  0  0  0  0  0  0  0  0
  -25.2580  -31.5000   26.2190 C   0  0  0  0  0  1  0  0  0  0  0  0
  -26.9390  -30.3620   24.7620 C   0  0  0  0  0  1  0  0  0  0  0  0
  -27.5080  -32.5290   25.8220 C   0  0  0  0  0  1  0  0  0  0  0  0
  1  4  2  0
  1  3  1  0
  2  5  1  0
  2  1  1  0
  4  7  1  0
  5  3  1  0
  6  2  2  0
  7  8  1  0
  9 18  1  0
  9  8  1  0
 10 18  1  0
 11 16  1  0
 12 13  1  0
 12 11  1  0
 14 13  1  0
 14 23  1  0
 14 15  1  0
 16 10  1  0
 16 15  1  0
 17 10  2  0
 18 19  1  0
 20 21  2  0
 21 40  1  0
 22 21  1  0
 22 25  1  0
 23 20  1  0
 23 24  1  0
 24 22  2  0
 25 26  1  0
 26 27  2  0
 28 31  1  0
 28 27  1  0
 29 28  2  0
 30 29  1  0
 30 25  2  0
 31 32  1  0
 32 33  1  0
 33 34  2  0
 35 34  1  0
 35 39  1  0
 36 35  2  0
 37 32  2  0
 37 36  1  0
 38 37  1  0
 40 41  1  0
 41 44  1  0
 41 43  1  0
 42 40  2  0
 45 46  1  0
 45 20  1  0
 47 45  1  0
 48  5  1  0
 49 50  1  0
 49 48  1  0
 51 62  2  0
 52 50  1  0
 52 57  1  0
 53 61  1  0
 53 63  1  0
 54 60  1  0
 54 56  1  0
 55 61  1  0
 56 55  1  0
 57 56  2  0
 58 52  2  0
 59 58  1  0
 59 54  2  0
 60 53  1  0
 61 51  1  0
 63 65  2  0
 64 63  1  0
 66 64  1  0
 67 76  2  0
 67 72  1  0
 68 64  1  0
 68 72  1  0
 69 68  1  0
 70 71  1  0
 70 69  1  0
 71 67  1  0
 72 73  2  0
 73 74  1  0
 75 74  2  0
 76 75  1  0
 77 51  1  0
 77 78  1  0
 77 87  1  0
 78 81  1  0
 79 83  1  0
 79 78  1  0
 80 79  2  0
 83 82  1  0
 85 83  1  0
 85 86  1  0
 85 84  1  0
 87 90  1  1
 87 88  1  0
 89 87  1  0
M  ISO  4  10 100  18 100  49 101  50 101
M  END
>  <TORSDO>  (29) 
F 21

>  <SCORE>  (29) 
-13.275

>  <name>  (29) 
28

>  <ligand_id>  (29) 
28

>  <original_smiles>  (29) 
[H]c1c([H])c([H])c2c(c1[H])C([H])([H])C([H])([H])C([H])([H])C2([H])N([H])C(=O)C1([H])N(C(=O)C([H])(N([H])C(=O)C([H])(N([H])C([H])([H])[H])C([H])([H])[H])C(C([H])([H])[H])(C([H])([H])[H])C([H])([H])[H])C([H])([H])c2c([H])c(OC([H])([H])C([H])([H])N3C(=O)C(=NC([H])([H])C([H])([H])C([H])([H])N([H])C(=O)N4C([H])([H])C([H])([H])C([H])([H])C([H])(n5nc(-c6c([H])c([H])c(Oc7c([H])c([H])c(F)c([H])c7F)c([H])c6[H])c(C(=O)N([H])[H])c5N([H])[H])C4([H])[H])C3([H])[H])c([H])c([H])c2C1([H])[H]

>  <smiles>  (29) 
[H]c1c([H])c([H])c2c(c1[H])C([H])([H])C([H])([H])C([H])([H])C2([H])N([H])C(=O)C1([H])N(C(=O)C([H])(N([H])C(=O)C([H])(N([H])C([H])([H])[H])C([H])([H])[H])C(C([H])([H])[H])(C([H])([H])[H])C([H])([H])[H])C([H])([H])c2c([H])c(OC([H])([H])C([H])([H])N3C(=O)C(=NC([H])([H])C([H])([H])C([H])([H])N([H])C(=O)N4C([H])([H])C([H])([H])C([H])([H])C([H])(n5nc(-c6c([H])c([H])c(Oc7c([H])c([H])c(F)c([H])c7F)c([H])c6[H])c(C(=O)N([H])[H])c5N([H])[H])C4([H])[H])C3([H])[H])c([H])c([H])c2C1([H])[H]

$$$$
29:0:0
     RDKit          3D

 89 97  0  0  1  0  0  0  0  0999 V2000
  -29.3610  -21.6970   20.0470 N   0  0  0  0  0  4  0  0  0  0  0  0
  -29.8550  -21.9950   19.2200 H   0  0  0  0  0  0  0  0  0  0  0  0
  -30.0690  -21.7020   20.7620 H   0  0  0  0  0  0  0  0  0  0  0  0
  -30.3500  -19.0950   19.4750 C   0  0  0  0  0  0  0  0  0  0  0  0
  -28.7160  -18.9000   20.7070 C   0  0  0  0  0  2  0  0  0  0  0  0
  -29.4670  -17.7560   19.7930 C   0  0  0  0  0  3  0  0  0  0  0  0
  -29.0760  -20.1260   19.7110 C   0  0  0  0  0  3  0  0  0  0  0  0
  -31.5450  -19.2820   19.2260 O   0  0  0  0  0  0  0  0  0  0  0  0
  -30.6220  -15.1080   19.9350 C   0  0  0  0  0  0  0  0  0  0  0  0
  -30.4600  -12.7370   18.9640 C   0  0  0  0  0  2  0  0  0  0  0  0
  -29.4610  -12.6720   17.7820 C   0  0  0  0  0  2  0  0  0  0  0  0
  -28.0260  -12.4380   18.2880 C   0  0  0  0  0  2  0  0  0  0  0  0
  -27.6830  -13.3420   19.5010 C   0  0  0  0  0  3  0  0  0  0  0  0
  -28.7990  -13.3500   20.5650 C   0  0  0  0  0  2  0  0  0  0  0  0
  -30.0250  -13.8270   19.9050 N   0  0  0  0  0  0  0  0  0  0  0  0
  -31.7580  -15.1630   19.4460 O   0  0  0  0  0  0  0  0  0  0  0  0
  -29.7400  -16.3130   21.8500 C   0  0  0  0  0  1  0  0  0  0  0  0
  -29.9530  -16.3130   20.4000 N   0  0  0  0  0  0  0  0  0  0  0  0
  -25.3540  -13.9160   20.3810 C   0  0  0  0  0  0  0  0  0  0  0  0
  -24.3020  -13.1390   20.7840 C   0  0  0  0  0  0  0  0  0  0  0  0
  -24.7540  -11.7870   20.7030 C   0  0  0  0  0  0  0  0  0  0  0  0
  -26.3760  -13.0360   20.0690 N   0  0  0  0  0  0  0  0  0  0  0  0
  -26.0280  -11.7480   20.3270 N   0  0  0  0  0  0  0  0  0  0  0  0
  -24.0260  -10.5260   20.9040 C   0  0  0  0  0  0  0  0  0  0  0  0
  -24.4480   -9.5700   21.8540 C   0  0  0  0  0  3  0  0  0  0  0  0
  -23.7200   -8.3750   22.0390 C   0  0  0  0  0  3  0  0  0  0  0  0
  -22.5560   -8.1280   21.2740 C   0  0  0  0  0  0  0  0  0  0  0  0
  -22.1500   -9.0730   20.3160 C   0  0  0  0  0  3  0  0  0  0  0  0
  -22.8800  -10.2590   20.1290 C   0  0  0  0  0  3  0  0  0  0  0  0
  -21.7970   -6.9860   21.3700 O   0  0  0  0  0  0  0  0  0  0  0  0
  -21.6780   -6.3000   22.5520 C   0  0  0  0  0  0  0  0  0  0  0  0
  -21.1680   -6.9100   23.7190 C   0  0  0  0  0  3  0  0  0  0  0  0
  -20.9960   -6.1510   24.8940 C   0  0  0  0  0  3  0  0  0  0  0  0
  -21.3270   -4.7820   24.9020 C   0  0  0  0  0  0  0  0  0  0  0  0
  -21.8300   -4.1710   23.7400 C   0  0  0  0  0  3  0  0  0  0  0  0
  -22.0020   -4.9280   22.5680 C   0  0  0  0  0  0  0  0  0  0  0  0
  -22.4690   -4.3310   21.4450 F   0  0  0  0  0  0  0  0  0  0  0  0
  -21.1540   -4.0500   26.0270 F   0  0  0  0  0  0  0  0  0  0  0  0
  -22.9240  -13.6220   21.1310 C   0  0  0  0  0  0  0  0  0  0  0  0
  -22.2330  -12.9180   22.0220 N   0  0  0  0  0  0  0  0  0  0  0  0
  -22.4710  -14.6590   20.6500 O   0  0  0  0  0  0  0  0  0  0  0  0
  -22.6140  -12.0820   22.4360 H   0  0  0  0  0  0  0  0  0  0  0  0
  -21.3090  -13.2230   22.2930 H   0  0  0  0  0  0  0  0  0  0  0  0
  -25.5210  -15.2890   20.2320 N   0  0  0  0  0  0  0  0  0  0  0  0
  -24.7550  -15.9390   20.3720 H   0  0  0  0  0  0  0  0  0  0  0  0
  -26.3750  -15.7410   19.9320 H   0  0  0  0  0  0  0  0  0  0  0  0
  -28.3520  -22.9440   20.3670 C   0  0  0  0  0  2  0  0  0  0  0  0
  -28.4030  -24.5650   19.7160 C   0  0  0  0  0  2  0  0  0  0  0  0
  -28.2510  -26.0500   20.3080 O   0  0  0  0  0  0  0  0  0  0  0  0
  -24.6220  -31.8500   23.1980 C   0  0  0  0  0  0  0  0  0  0  0  0
  -27.1910  -27.0530   20.1770 C   0  0  0  0  0  0  0  0  0  0  0  0
  -23.4230  -30.4460   21.5690 C   0  0  0  0  0  3  0  0  0  0  0  0
  -24.8670  -28.8520   20.1390 C   0  0  0  0  0  0  0  0  0  0  0  0
  -25.9800  -30.6860   21.4050 C   0  0  0  0  0  2  0  0  0  0  0  0
  -26.0500  -29.2860   20.7490 C   0  0  0  0  0  0  0  0  0  0  0  0
  -27.2050  -28.4030   20.7480 C   0  0  0  0  0  3  0  0  0  0  0  0
  -25.9790  -26.7360   19.5230 C   0  0  0  0  0  3  0  0  0  0  0  0
  -24.8510  -27.5970   19.5070 C   0  0  0  0  0  3  0  0  0  0  0  0
  -23.6400  -29.7580   20.1930 C   0  0  0  0  0  2  0  0  0  0  0  0
  -24.6970  -31.0190   22.1110 N   0  0  0  0  0  0  0  0  0  0  0  0
  -23.5350  -32.1390   23.7220 O   0  0  0  0  0  0  0  0  0  0  0  0
  -22.7430  -29.4470   22.5390 C   0  0  0  0  0  0  0  0  0  0  0  0
  -21.4140  -29.2820   22.4170 N   0  0  0  0  0  0  0  0  0  0  0  0
  -23.4150  -28.8210   23.3640 O   0  0  0  0  0  0  0  0  0  0  0  0
  -20.9300  -29.8290   21.7190 H   0  0  0  0  0  0  0  0  0  0  0  0
  -18.0290  -28.0960   22.9490 C   0  0  0  0  0  0  0  0  0  0  0  0
  -20.5910  -28.3490   23.1940 C   0  0  0  0  0  3  0  0  0  0  0  0
  -20.6840  -26.9170   22.6190 C   0  0  0  0  0  2  0  0  0  0  0  0
  -19.5740  -26.5980   21.6140 C   0  0  0  0  0  2  0  0  0  0  0  0
  -18.1970  -26.7480   22.2680 C   0  0  0  0  0  2  0  0  0  0  0  0
  -19.1540  -28.8560   23.3680 C   0  0  0  0  0  0  0  0  0  0  0  0
  -18.9410  -30.1160   23.9660 C   0  0  0  0  0  3  0  0  0  0  0  0
  -17.6390  -30.6180   24.1490 C   0  0  0  0  0  3  0  0  0  0  0  0
  -16.5300  -29.8550   23.7440 C   0  0  0  0  0  3  0  0  0  0  0  0
  -16.7250  -28.5960   23.1480 C   0  0  0  0  0  3  0  0  0  0  0  0
  -25.8970  -32.4920   23.8250 C   0  0  0  0  0  3  0  0  0  0  0  0
  -26.4030  -31.7360   25.1150 C   0  0  1  0  0  0  0  0  0  0  0  0
  -25.3010  -31.5110   26.1800 C   0  0  0  0  0  1  0  0  0  0  0  0
  -26.9890  -30.3520   24.7510 C   0  0  0  0  0  1  0  0  0  0  0  0
  -27.5480  -32.5400   25.7770 C   0  0  0  0  0  1  0  0  0  0  0  0
  -25.5830  -33.8940   24.1470 N   0  0  0  0  0  0  0  0  0  0  0  0
  -25.9190  -34.9490   23.3930 C   0  0  0  0  0  0  0  0  0  0  0  0
  -26.5970  -34.8440   22.3680 O   0  0  0  0  0  0  0  0  0  0  0  0
  -24.9790  -34.0480   24.9410 H   0  0  0  0  0  0  0  0  0  0  0  0
  -24.2040  -36.7560   23.0310 C   0  0  0  0  0  1  0  0  0  0  0  0
  -25.4360  -36.3400   23.8510 C   0  0  0  0  0  3  0  0  0  0  0  0
  -27.5650  -37.2160   24.7070 C   0  0  0  0  0  1  0  0  0  0  0  0
  -26.4750  -37.3880   23.7500 N   0  0  0  0  0  0  0  0  0  0  0  0
  -26.0720  -38.3100   23.8930 H   0  0  0  0  0  0  0  0  0  0  0  0
  1 47  1  0
  1  3  1  0
  2  1  1  0
  4  7  1  0
  4  6  1  0
  6 18  1  0
  6  5  1  0
  7  1  1  0
  7  5  1  0
  8  4  2  0
  9 18  1  0
 10 15  1  0
 11 12  1  0
 11 10  1  0
 13 12  1  0
 13 22  1  0
 13 14  1  0
 15  9  1  0
 15 14  1  0
 16  9  2  0
 18 17  1  0
 19 20  2  0
 20 39  1  0
 21 20  1  0
 21 24  1  0
 22 23  1  0
 22 19  1  0
 23 21  2  0
 24 25  1  0
 25 26  2  0
 27 30  1  0
 27 26  1  0
 28 27  2  0
 29 28  1  0
 29 24  2  0
 30 31  1  0
 31 36  2  0
 31 32  1  0
 32 33  2  0
 33 34  1  0
 34 38  1  0
 35 34  2  0
 36 35  1  0
 37 36  1  0
 39 40  1  0
 40 43  1  0
 40 42  1  0
 41 39  2  0
 44 45  1  0
 44 19  1  0
 46 44  1  0
 48 49  1  0
 48 47  1  0
 50 61  2  0
 51 49  1  0
 51 56  1  0
 52 60  1  0
 52 62  1  0
 53 59  1  0
 53 55  1  0
 54 60  1  0
 55 54  1  0
 56 55  2  0
 57 51  2  0
 58 57  1  0
 58 53  2  0
 59 52  1  0
 60 50  1  0
 62 64  2  0
 63 62  1  0
 65 63  1  0
 66 75  2  0
 66 71  1  0
 67 63  1  0
 67 71  1  0
 68 67  1  0
 69 70  1  0
 69 68  1  0
 70 66  1  0
 71 72  2  0
 72 73  1  0
 74 73  2  0
 75 74  1  0
 76 50  1  0
 76 81  1  0
 76 77  1  0
 77 80  1  1
 77 78  1  0
 79 77  1  0
 81 84  1  0
 82 86  1  0
 82 81  1  0
 83 82  2  0
 86 85  1  0
 88 86  1  0
 88 89  1  0
 88 87  1  0
M  ISO  4   9 100  18 100  48 101  49 101
M  END
>  <TORSDO>  (30) 
F 19

>  <SCORE>  (30) 
-14.399

>  <name>  (30) 
29

>  <ligand_id>  (30) 
29

>  <original_smiles>  (30) 
[H]c1c([H])c([H])c2c(c1[H])C([H])([H])C([H])([H])C([H])([H])C2([H])N([H])C(=O)C1([H])N(C(=O)C([H])(N([H])C(=O)C([H])(N([H])C([H])([H])[H])C([H])([H])[H])C(C([H])([H])[H])(C([H])([H])[H])C([H])([H])[H])C([H])([H])c2c([H])c(OC([H])([H])C([H])([H])[N+]([H])([H])C3([H])C(=O)C([H])(N(C(=O)N4C([H])([H])C([H])([H])C([H])([H])C([H])(n5nc(-c6c([H])c([H])c(Oc7c([H])c([H])c(F)c([H])c7F)c([H])c6[H])c(C(=O)N([H])[H])c5N([H])[H])C4([H])[H])C([H])([H])[H])C3([H])[H])c([H])c([H])c2C1([H])[H]

>  <smiles>  (30) 
[H]c1c([H])c([H])c2c(c1[H])C([H])([H])C([H])([H])C([H])([H])C2([H])N([H])C(=O)C1([H])N(C(=O)C([H])(N([H])C(=O)C([H])(N([H])C([H])([H])[H])C([H])([H])[H])C(C([H])([H])[H])(C([H])([H])[H])C([H])([H])[H])C([H])([H])c2c([H])c(OC([H])([H])C([H])([H])[N+]([H])([H])C3([H])C(=O)C([H])(N(C(=O)N4C([H])([H])C([H])([H])C([H])([H])C([H])(n5nc(-c6c([H])c([H])c(Oc7c([H])c([H])c(F)c([H])c7F)c([H])c6[H])c(C(=O)N([H])[H])c5N([H])[H])C4([H])[H])C([H])([H])[H])C3([H])[H])c([H])c([H])c2C1([H])[H]

$$$$
30:0:0
     RDKit          3D

 90 98  0  0  1  0  0  0  0  0999 V2000
  -28.9490  -21.2530   20.6500 N   0  0  0  0  0  4  0  0  0  0  0  0
  -29.7530  -21.3660   21.2460 H   0  0  0  0  0  0  0  0  0  0  0  0
  -28.1750  -21.1710   21.2900 H   0  0  0  0  0  0  0  0  0  0  0  0
  -31.0050  -18.6140   19.5320 C   0  0  0  0  0  0  0  0  0  0  0  0
  -30.2280  -19.8020   18.9690 C   0  0  0  0  0  0  0  0  0  0  0  0
  -29.9120  -18.2020   20.5640 C   0  0  0  0  0  3  0  0  0  0  0  0
  -29.0730  -19.7110   20.0010 C   0  0  0  0  0  3  0  0  0  0  0  0
  -32.1170  -18.2060   19.1750 O   0  0  0  0  0  0  0  0  0  0  0  0
  -30.5480  -20.5400   18.0290 O   0  0  0  0  0  0  0  0  0  0  0  0
  -30.4180  -15.2920   20.2560 C   0  0  0  0  0  0  0  0  0  0  0  0
  -30.3890  -12.8580   19.3530 C   0  0  0  0  0  2  0  0  0  0  0  0
  -29.4520  -12.6450   18.1380 C   0  0  0  0  0  2  0  0  0  0  0  0
  -28.0100  -12.3680   18.6000 C   0  0  0  0  0  2  0  0  0  0  0  0
  -27.5690  -13.3270   19.7340 C   0  0  0  0  0  3  0  0  0  0  0  0
  -28.6330  -13.4800   20.8400 C   0  0  0  0  0  2  0  0  0  0  0  0
  -29.8460  -13.9930   20.1820 N   0  0  0  0  0  0  0  0  0  0  0  0
  -31.6440  -15.2840   20.0800 O   0  0  0  0  0  0  0  0  0  0  0  0
  -29.6500  -16.5590   20.3310 N   0  0  0  0  0  0  0  0  0  0  0  0
  -28.6620  -16.3540   20.3390 H   0  0  0  0  0  0  0  0  0  0  0  0
  -25.2060  -13.8690   20.5230 C   0  0  0  0  0  0  0  0  0  0  0  0
  -24.1540  -13.0850   20.9030 C   0  0  0  0  0  0  0  0  0  0  0  0
  -24.6300  -11.7380   20.8630 C   0  0  0  0  0  0  0  0  0  0  0  0
  -26.2510  -13.0020   20.2630 N   0  0  0  0  0  0  0  0  0  0  0  0
  -25.9190  -11.7130   20.5370 N   0  0  0  0  0  0  0  0  0  0  0  0
  -23.9130  -10.4700   21.0550 C   0  0  0  0  0  0  0  0  0  0  0  0
  -24.3570   -9.5030   21.9840 C   0  0  0  0  0  3  0  0  0  0  0  0
  -23.6370   -8.3020   22.1650 C   0  0  0  0  0  3  0  0  0  0  0  0
  -22.4580   -8.0610   21.4190 C   0  0  0  0  0  0  0  0  0  0  0  0
  -22.0350   -9.0160   20.4810 C   0  0  0  0  0  3  0  0  0  0  0  0
  -22.7550  -10.2080   20.2960 C   0  0  0  0  0  3  0  0  0  0  0  0
  -21.7090   -6.9130   21.5120 O   0  0  0  0  0  0  0  0  0  0  0  0
  -21.6730   -6.1680   22.6640 C   0  0  0  0  0  0  0  0  0  0  0  0
  -21.2470   -6.7170   23.8930 C   0  0  0  0  0  3  0  0  0  0  0  0
  -21.1590   -5.8980   25.0360 C   0  0  0  0  0  3  0  0  0  0  0  0
  -21.4840   -4.5320   24.9520 C   0  0  0  0  0  0  0  0  0  0  0  0
  -21.9020   -3.9820   23.7270 C   0  0  0  0  0  3  0  0  0  0  0  0
  -21.9930   -4.7970   22.5850 C   0  0  0  0  0  0  0  0  0  0  0  0
  -22.3750   -4.2580   21.4030 F   0  0  0  0  0  0  0  0  0  0  0  0
  -21.3920   -3.7430   26.0480 F   0  0  0  0  0  0  0  0  0  0  0  0
  -22.7560  -13.5520   21.1840 C   0  0  0  0  0  0  0  0  0  0  0  0
  -22.0370  -12.8480   22.0510 N   0  0  0  0  0  0  0  0  0  0  0  0
  -22.3120  -14.5780   20.6710 O   0  0  0  0  0  0  0  0  0  0  0  0
  -22.4110  -12.0190   22.4870 H   0  0  0  0  0  0  0  0  0  0  0  0
  -21.0990  -13.1420   22.2820 H   0  0  0  0  0  0  0  0  0  0  0  0
  -25.3540  -15.2420   20.3450 N   0  0  0  0  0  0  0  0  0  0  0  0
  -24.5750  -15.8820   20.4580 H   0  0  0  0  0  0  0  0  0  0  0  0
  -26.1740  -15.6860   19.9550 H   0  0  0  0  0  0  0  0  0  0  0  0
  -28.7390  -22.7530   19.9370 C   0  0  0  0  0  2  0  0  0  0  0  0
  -28.0830  -24.2960   20.5960 C   0  0  0  0  0  2  0  0  0  0  0  0
  -28.2380  -25.9090   20.2700 O   0  0  0  0  0  0  0  0  0  0  0  0
  -24.6120  -31.8560   23.2340 C   0  0  0  0  0  0  0  0  0  0  0  0
  -27.1970  -26.9750   20.2710 C   0  0  0  0  0  0  0  0  0  0  0  0
  -23.4300  -30.4450   21.5990 C   0  0  0  0  0  3  0  0  0  0  0  0
  -24.8880  -28.8350   20.2000 C   0  0  0  0  0  0  0  0  0  0  0  0
  -25.9950  -30.6690   21.4600 C   0  0  0  0  0  2  0  0  0  0  0  0
  -26.0740  -29.2540   20.8180 C   0  0  0  0  0  0  0  0  0  0  0  0
  -27.2250  -28.3480   20.8220 C   0  0  0  0  0  3  0  0  0  0  0  0
  -25.9790  -26.6980   19.6130 C   0  0  0  0  0  3  0  0  0  0  0  0
  -24.8660  -27.5760   19.5770 C   0  0  0  0  0  3  0  0  0  0  0  0
  -23.6680  -29.7510   20.2300 C   0  0  0  0  0  2  0  0  0  0  0  0
  -24.7000  -31.0170   22.1510 N   0  0  0  0  0  0  0  0  0  0  0  0
  -23.5190  -32.1450   23.7480 O   0  0  0  0  0  0  0  0  0  0  0  0
  -22.7350  -29.4540   22.5680 C   0  0  0  0  0  0  0  0  0  0  0  0
  -21.4050  -29.2880   22.4410 N   0  0  0  0  0  0  0  0  0  0  0  0
  -23.3980  -28.8320   23.4000 O   0  0  0  0  0  0  0  0  0  0  0  0
  -20.9220  -29.8400   21.7450 H   0  0  0  0  0  0  0  0  0  0  0  0
  -18.0210  -28.0820   22.9500 C   0  0  0  0  0  0  0  0  0  0  0  0
  -20.5800  -28.3530   23.2140 C   0  0  0  0  0  3  0  0  0  0  0  0
  -20.6840  -26.9190   22.6460 C   0  0  0  0  0  2  0  0  0  0  0  0
  -19.5830  -26.5900   21.6320 C   0  0  0  0  0  2  0  0  0  0  0  0
  -18.2010  -26.7320   22.2750 C   0  0  0  0  0  2  0  0  0  0  0  0
  -19.1370  -28.8500   23.3770 C   0  0  0  0  0  0  0  0  0  0  0  0
  -18.9130  -30.1110   23.9700 C   0  0  0  0  0  3  0  0  0  0  0  0
  -17.6050  -30.6050   24.1390 C   0  0  0  0  0  3  0  0  0  0  0  0
  -16.5050  -29.8350   23.7270 C   0  0  0  0  0  3  0  0  0  0  0  0
  -16.7120  -28.5760   23.1380 C   0  0  0  0  0  3  0  0  0  0  0  0
  -25.8770  -32.5060   23.8690 C   0  0  0  0  0  3  0  0  0  0  0  0
  -26.3730  -31.7580   25.1680 C   0  0  1  0  0  0  0  0  0  0  0  0
  -25.2640  -31.5410   26.2240 C   0  0  0  0  0  1  0  0  0  0  0  0
  -26.9590  -30.3710   24.8170 C   0  0  0  0  0  1  0  0  0  0  0  0
  -27.5150  -32.5610   25.8320 C   0  0  0  0  0  1  0  0  0  0  0  0
  -25.5570  -33.9090   24.1860 N   0  0  0  0  0  0  0  0  0  0  0  0
  -25.8960  -34.9630   23.4320 C   0  0  0  0  0  0  0  0  0  0  0  0
  -26.5750  -34.8580   22.4080 O   0  0  0  0  0  0  0  0  0  0  0  0
  -24.9520  -34.0640   24.9790 H   0  0  0  0  0  0  0  0  0  0  0  0
  -24.1730  -36.7650   23.0650 C   0  0  0  0  0  1  0  0  0  0  0  0
  -25.4080  -36.3560   23.8850 C   0  0  0  0  0  3  0  0  0  0  0  0
  -27.5370  -37.2430   24.7310 C   0  0  0  0  0  1  0  0  0  0  0  0
  -26.4430  -37.4080   23.7770 N   0  0  0  0  0  0  0  0  0  0  0  0
  -26.0370  -38.3290   23.9160 H   0  0  0  0  0  0  0  0  0  0  0  0
  1  2  1  0
  1  3  1  0
  4  6  1  0
  5  4  1  0
  5  7  1  0
  6 18  1  0
  7  6  1  0
  7  1  1  0
  8  4  2  0
  9  5  2  0
 10 18  1  0
 11 16  1  0
 12 13  1  0
 12 11  1  0
 14 13  1  0
 14 23  1  0
 14 15  1  0
 16 10  1  0
 16 15  1  0
 17 10  2  0
 18 19  1  0
 20 21  2  0
 21 40  1  0
 22 21  1  0
 22 25  1  0
 23 20  1  0
 23 24  1  0
 24 22  2  0
 25 26  1  0
 26 27  2  0
 28 31  1  0
 28 27  1  0
 29 28  2  0
 30 29  1  0
 30 25  2  0
 31 32  1  0
 32 33  1  0
 33 34  2  0
 35 34  1  0
 35 39  1  0
 36 35  2  0
 37 32  2  0
 37 36  1  0
 38 37  1  0
 40 41  1  0
 41 44  1  0
 41 43  1  0
 42 40  2  0
 45 46  1  0
 45 20  1  0
 47 45  1  0
 48 49  1  0
 48  1  1  0
 50 52  1  0
 50 49  1  0
 51 62  2  0
 52 57  1  0
 53 61  1  0
 53 63  1  0
 54 60  1  0
 54 56  1  0
 55 61  1  0
 56 57  2  0
 56 55  1  0
 58 52  2  0
 59 58  1  0
 59 54  2  0
 60 53  1  0
 61 51  1  0
 63 65  2  0
 64 63  1  0
 66 64  1  0
 67 76  2  0
 67 72  1  0
 68 64  1  0
 68 72  1  0
 69 68  1  0
 70 71  1  0
 70 69  1  0
 71 67  1  0
 72 73  2  0
 73 74  1  0
 75 74  2  0
 76 75  1  0
 77 51  1  0
 77 82  1  0
 77 78  1  0
 78 81  1  1
 78 79  1  0
 80 78  1  0
 82 85  1  0
 83 87  1  0
 83 82  1  0
 84 83  2  0
 87 86  1  0
 89 87  1  0
 89 90  1  0
 89 88  1  0
M  ISO  4  10 100  18 100  49 101  50 101
M  END
>  <TORSDO>  (31) 
F 19

>  <SCORE>  (31) 
-16.673

>  <name>  (31) 
30

>  <ligand_id>  (31) 
30

>  <original_smiles>  (31) 
[H]c1c([H])c([H])c2c(c1[H])C([H])([H])C([H])([H])C([H])([H])C2([H])N([H])C(=O)C1([H])N(C(=O)C([H])(N([H])C(=O)C([H])(N([H])C([H])([H])[H])C([H])([H])[H])C(C([H])([H])[H])(C([H])([H])[H])C([H])([H])[H])C([H])([H])c2c([H])c(OC([H])([H])C([H])([H])[N+]([H])([H])C3([H])C(=O)C(=O)C3([H])N([H])C(=O)N3C([H])([H])C([H])([H])C([H])([H])C([H])(n4nc(-c5c([H])c([H])c(Oc6c([H])c([H])c(F)c([H])c6F)c([H])c5[H])c(C(=O)N([H])[H])c4N([H])[H])C3([H])[H])c([H])c([H])c2C1([H])[H]

>  <smiles>  (31) 
[H]c1c([H])c([H])c2c(c1[H])C([H])([H])C([H])([H])C([H])([H])C2([H])N([H])C(=O)C1([H])N(C(=O)C([H])(N([H])C(=O)C([H])(N([H])C([H])([H])[H])C([H])([H])[H])C(C([H])([H])[H])(C([H])([H])[H])C([H])([H])[H])C([H])([H])c2c([H])c(OC([H])([H])C([H])([H])[N+]([H])([H])C3([H])C(=O)C(=O)C3([H])N([H])C(=O)N3C([H])([H])C([H])([H])C([H])([H])C([H])(n4nc(-c5c([H])c([H])c(Oc6c([H])c([H])c(F)c([H])c6F)c([H])c5[H])c(C(=O)N([H])[H])c4N([H])[H])C3([H])[H])c([H])c([H])c2C1([H])[H]

$$$$
31:0:0
     RDKit          3D

 89 98  0  0  1  0  0  0  0  0999 V2000
  -29.4120  -22.2580   19.3370 C   0  0  0  0  0  2  0  0  0  0  0  0
  -28.6160  -22.1220   21.2050 C   0  0  0  0  0  2  0  0  0  0  0  0
  -29.0490  -23.4250   20.3770 C   0  0  0  0  0  3  0  0  0  0  0  0
  -29.7310  -21.2450   20.5090 C   0  0  0  0  0  3  0  0  0  0  0  0
  -30.1220  -18.6520   21.2200 C   0  0  0  0  0  0  0  0  0  0  0  0
  -29.4210  -18.6270   19.2990 C   0  0  0  0  0  2  0  0  0  0  0  0
  -30.3460  -17.5940   20.0590 C   0  0  0  0  0  3  0  0  0  0  0  0
  -29.6510  -19.6790   20.3700 N   0  0  0  0  0  0  0  0  0  0  0  0
  -30.3680  -18.6750   22.4080 O   0  0  0  0  0  0  0  0  0  0  0  0
  -30.7180  -14.9240   20.0440 C   0  0  0  0  0  0  0  0  0  0  0  0
  -30.5660  -12.5860   19.1120 C   0  0  0  0  0  2  0  0  0  0  0  0
  -29.5810  -12.5500   17.9220 C   0  0  0  0  0  2  0  0  0  0  0  0
  -28.1400  -12.3270   18.4190 C   0  0  0  0  0  2  0  0  0  0  0  0
  -27.7760  -13.2440   19.6160 C   0  0  0  0  0  3  0  0  0  0  0  0
  -28.8800  -13.2620   20.6940 C   0  0  0  0  0  2  0  0  0  0  0  0
  -30.1250  -13.6700   20.0310 N   0  0  0  0  0  0  0  0  0  0  0  0
  -31.8980  -15.0100   19.6920 O   0  0  0  0  0  0  0  0  0  0  0  0
  -29.9490  -16.0890   20.2330 N   0  0  0  0  0  0  0  0  0  0  0  0
  -28.9900  -15.9340   20.5020 H   0  0  0  0  0  0  0  0  0  0  0  0
  -25.4400  -13.7890   20.5130 C   0  0  0  0  0  0  0  0  0  0  0  0
  -24.3970  -12.9960   20.9080 C   0  0  0  0  0  0  0  0  0  0  0  0
  -24.8580  -11.6490   20.7890 C   0  0  0  0  0  0  0  0  0  0  0  0
  -26.4660  -12.9240   20.1730 N   0  0  0  0  0  0  0  0  0  0  0  0
  -26.1290  -11.6280   20.4050 N   0  0  0  0  0  0  0  0  0  0  0  0
  -24.1430  -10.3780   20.9610 C   0  0  0  0  0  0  0  0  0  0  0  0
  -24.5660   -9.4110   21.8980 C   0  0  0  0  0  3  0  0  0  0  0  0
  -23.8490   -8.2060   22.0590 C   0  0  0  0  0  3  0  0  0  0  0  0
  -22.6920   -7.9590   21.2810 C   0  0  0  0  0  0  0  0  0  0  0  0
  -22.2870   -8.9150   20.3330 C   0  0  0  0  0  3  0  0  0  0  0  0
  -23.0060  -10.1120   20.1700 C   0  0  0  0  0  3  0  0  0  0  0  0
  -21.9470   -6.8070   21.3500 O   0  0  0  0  0  0  0  0  0  0  0  0
  -21.7960   -6.1180   22.5270 C   0  0  0  0  0  0  0  0  0  0  0  0
  -21.2060   -6.7090   23.6660 C   0  0  0  0  0  3  0  0  0  0  0  0
  -21.0070   -5.9430   24.8330 C   0  0  0  0  0  3  0  0  0  0  0  0
  -21.3840   -4.5880   24.8590 C   0  0  0  0  0  0  0  0  0  0  0  0
  -21.9660   -3.9960   23.7240 C   0  0  0  0  0  3  0  0  0  0  0  0
  -22.1670   -4.7580   22.5610 C   0  0  0  0  0  0  0  0  0  0  0  0
  -22.7080   -4.1780   21.4630 F   0  0  0  0  0  0  0  0  0  0  0  0
  -21.1860   -3.8500   25.9760 F   0  0  0  0  0  0  0  0  0  0  0  0
  -23.0180  -13.4580   21.2770 C   0  0  0  0  0  0  0  0  0  0  0  0
  -22.3430  -12.7300   22.1590 N   0  0  0  0  0  0  0  0  0  0  0  0
  -22.5500  -14.5000   20.8200 O   0  0  0  0  0  0  0  0  0  0  0  0
  -22.7350  -11.8870   22.5500 H   0  0  0  0  0  0  0  0  0  0  0  0
  -21.4190  -13.0210   22.4480 H   0  0  0  0  0  0  0  0  0  0  0  0
  -25.5930  -15.1670   20.3870 N   0  0  0  0  0  0  0  0  0  0  0  0
  -24.8260  -15.8080   20.5610 H   0  0  0  0  0  0  0  0  0  0  0  0
  -26.4010  -15.6190   19.9830 H   0  0  0  0  0  0  0  0  0  0  0  0
  -28.0770  -24.7430   20.0780 C   0  0  0  0  0  2  0  0  0  0  0  0
  -28.3530  -26.2330   20.3730 O   0  0  0  0  0  0  0  0  0  0  0  0
  -24.7080  -31.8720   23.3390 C   0  0  0  0  0  0  0  0  0  0  0  0
  -27.3000  -27.2070   20.2890 C   0  0  0  0  0  0  0  0  0  0  0  0
  -23.5200  -30.5030   21.6680 C   0  0  0  0  0  3  0  0  0  0  0  0
  -24.9770  -28.9420   20.2450 C   0  0  0  0  0  0  0  0  0  0  0  0
  -26.0740  -30.7640   21.5370 C   0  0  0  0  0  2  0  0  0  0  0  0
  -26.1490  -29.3820   20.8720 C   0  0  0  0  0  0  0  0  0  0  0  0
  -27.3120  -28.5290   20.8800 C   0  0  0  0  0  3  0  0  0  0  0  0
  -26.1030  -26.8650   19.6180 C   0  0  0  0  0  3  0  0  0  0  0  0
  -24.9660  -27.6960   19.6050 C   0  0  0  0  0  3  0  0  0  0  0  0
  -23.7530  -29.8410   20.2850 C   0  0  0  0  0  2  0  0  0  0  0  0
  -24.7880  -31.0670   22.2370 N   0  0  0  0  0  0  0  0  0  0  0  0
  -23.6180  -32.1570   23.8560 O   0  0  0  0  0  0  0  0  0  0  0  0
  -22.8250  -29.4880   22.6100 C   0  0  0  0  0  0  0  0  0  0  0  0
  -21.5020  -29.3060   22.4440 N   0  0  0  0  0  0  0  0  0  0  0  0
  -23.4780  -28.8660   23.4520 O   0  0  0  0  0  0  0  0  0  0  0  0
  -21.0340  -29.8580   21.7400 H   0  0  0  0  0  0  0  0  0  0  0  0
  -18.1170  -28.0850   22.8480 C   0  0  0  0  0  0  0  0  0  0  0  0
  -20.6650  -28.3640   23.1910 C   0  0  0  0  0  3  0  0  0  0  0  0
  -20.7930  -26.9320   22.6220 C   0  0  0  0  0  2  0  0  0  0  0  0
  -19.7250  -26.6020   21.5750 C   0  0  0  0  0  2  0  0  0  0  0  0
  -18.3230  -26.7360   22.1780 C   0  0  0  0  0  2  0  0  0  0  0  0
  -19.2180  -28.8560   23.3090 C   0  0  0  0  0  0  0  0  0  0  0  0
  -18.9710  -30.1160   23.8960 C   0  0  0  0  0  3  0  0  0  0  0  0
  -17.6570  -30.6070   24.0240 C   0  0  0  0  0  3  0  0  0  0  0  0
  -16.5730  -29.8330   23.5770 C   0  0  0  0  0  3  0  0  0  0  0  0
  -16.8020  -28.5740   22.9950 C   0  0  0  0  0  3  0  0  0  0  0  0
  -25.9830  -32.4910   23.9880 C   0  0  0  0  0  3  0  0  0  0  0  0
  -25.6900  -33.9000   24.2940 N   0  0  0  0  0  0  0  0  0  0  0  0
  -26.0200  -34.9360   23.5110 C   0  0  0  0  0  0  0  0  0  0  0  0
  -26.6710  -34.8060   22.4720 O   0  0  0  0  0  0  0  0  0  0  0  0
  -25.1100  -34.0750   25.1010 H   0  0  0  0  0  0  0  0  0  0  0  0
  -24.2840  -36.7270   23.1810 C   0  0  0  0  0  1  0  0  0  0  0  0
  -25.5560  -36.3390   23.9510 C   0  0  0  0  0  3  0  0  0  0  0  0
  -27.7200  -37.2460   24.6790 C   0  0  0  0  0  1  0  0  0  0  0  0
  -26.5870  -37.3850   23.7670 N   0  0  0  0  0  0  0  0  0  0  0  0
  -26.1870  -38.3110   23.8970 H   0  0  0  0  0  0  0  0  0  0  0  0
  -26.4460  -31.7300   25.2900 C   0  0  1  0  0  0  0  0  0  0  0  0
  -25.3160  -31.5240   26.3260 C   0  0  0  0  0  1  0  0  0  0  0  0
  -27.0190  -30.3370   24.9400 C   0  0  0  0  0  1  0  0  0  0  0  0
  -27.5880  -32.5140   25.9770 C   0  0  0  0  0  1  0  0  0  0  0  0
  1  3  1  0
  3 48  1  0
  3  2  1  0
  4  1  1  0
  4  2  1  0
  5  9  2  0
  6  7  1  0
  6  8  1  0
  7 18  1  0
  7  5  1  0
  8  4  1  0
  8  5  1  0
 10 18  1  0
 11 16  1  0
 12 13  1  0
 12 11  1  0
 14 13  1  0
 14 23  1  0
 14 15  1  0
 16 10  1  0
 16 15  1  0
 17 10  2  0
 18 19  1  0
 20 21  2  0
 21 40  1  0
 22 21  1  0
 22 25  1  0
 23 24  1  0
 23 20  1  0
 24 22  2  0
 25 26  1  0
 26 27  2  0
 28 31  1  0
 28 27  1  0
 29 28  2  0
 30 29  1  0
 30 25  2  0
 31 32  1  0
 32 37  2  0
 32 33  1  0
 33 34  2  0
 34 35  1  0
 35 39  1  0
 36 35  2  0
 37 36  1  0
 38 37  1  0
 40 41  1  0
 41 44  1  0
 41 43  1  0
 42 40  2  0
 45 20  1  0
 45 46  1  0
 47 45  1  0
 48 49  1  0
 50 61  2  0
 51 49  1  0
 51 56  1  0
 52 60  1  0
 52 62  1  0
 53 59  1  0
 53 55  1  0
 54 60  1  0
 55 56  2  0
 55 54  1  0
 57 51  2  0
 58 57  1  0
 58 53  2  0
 59 52  1  0
 60 50  1  0
 62 64  2  0
 63 62  1  0
 65 63  1  0
 66 75  2  0
 66 71  1  0
 67 63  1  0
 67 71  1  0
 68 67  1  0
 69 70  1  0
 69 68  1  0
 70 66  1  0
 71 72  2  0
 72 73  1  0
 74 73  2  0
 75 74  1  0
 76 50  1  0
 76 77  1  0
 76 86  1  0
 77 80  1  0
 78 82  1  0
 78 77  1  0
 79 78  2  0
 82 81  1  0
 84 85  1  0
 84 82  1  0
 84 83  1  0
 86 89  1  1
 86 87  1  0
 88 86  1  0
M  ISO  4  10 100  18 100  48 101  49 101
M  END
>  <TORSDO>  (32) 
F 18

>  <SCORE>  (32) 
-13.908

>  <name>  (32) 
31

>  <ligand_id>  (32) 
31

>  <original_smiles>  (32) 
[H]c1c([H])c([H])c2c(c1[H])C([H])([H])C([H])([H])C([H])([H])C2([H])N([H])C(=O)C1([H])N(C(=O)C([H])(N([H])C(=O)C([H])(N([H])C([H])([H])[H])C([H])([H])[H])C(C([H])([H])[H])(C([H])([H])[H])C([H])([H])[H])C([H])([H])c2c([H])c(OC([H])([H])C3([H])C([H])([H])C([H])(N4C(=O)C([H])(N([H])C(=O)N5C([H])([H])C([H])([H])C([H])([H])C([H])(n6nc(-c7c([H])c([H])c(Oc8c([H])c([H])c(F)c([H])c8F)c([H])c7[H])c(C(=O)N([H])[H])c6N([H])[H])C5([H])[H])C4([H])[H])C3([H])[H])c([H])c([H])c2C1([H])[H]

>  <smiles>  (32) 
[H]c1c([H])c([H])c2c(c1[H])C([H])([H])C([H])([H])C([H])([H])C2([H])N([H])C(=O)C1([H])N(C(=O)C([H])(N([H])C(=O)C([H])(N([H])C([H])([H])[H])C([H])([H])[H])C(C([H])([H])[H])(C([H])([H])[H])C([H])([H])[H])C([H])([H])c2c([H])c(OC([H])([H])C3([H])C([H])([H])C([H])(N4C(=O)C([H])(N([H])C(=O)N5C([H])([H])C([H])([H])C([H])([H])C([H])(n6nc(-c7c([H])c([H])c(Oc8c([H])c([H])c(F)c([H])c8F)c([H])c7[H])c(C(=O)N([H])[H])c6N([H])[H])C5([H])[H])C4([H])[H])C3([H])[H])c([H])c([H])c2C1([H])[H]

$$$$
32:0:0
     RDKit          3D

 90 98  0  0  1  0  0  0  0  0999 V2000
  -30.2930  -21.3050   18.0660 C   0  0  0  0  0  3  0  0  0  0  0  0
  -30.1500  -20.0290   18.6440 C   0  0  0  0  0  3  0  0  0  0  0  0
  -29.7130  -22.4470   18.6480 C   0  0  0  0  0  3  0  0  0  0  0  0
  -28.8200  -21.0320   20.4120 C   0  0  0  0  0  3  0  0  0  0  0  0
  -29.4090  -19.8320   19.8330 C   0  0  0  0  0  0  0  0  0  0  0  0
  -28.9680  -22.3630   19.8440 C   0  0  0  0  0  0  0  0  0  0  0  0
  -29.2210  -18.3780   20.3710 C   0  0  0  0  0  0  0  0  0  0  0  0
  -28.2890  -18.1030   21.1330 O   0  0  0  0  0  0  0  0  0  0  0  0
  -30.2200  -17.1910   19.9950 C   0  0  0  0  0  2  0  0  0  0  0  0
  -30.5580  -14.6270   20.0100 C   0  0  0  0  0  0  0  0  0  0  0  0
  -30.2750  -12.3910   18.9550 C   0  0  0  0  0  2  0  0  0  0  0  0
  -29.2710  -12.5270   17.7880 C   0  0  0  0  0  2  0  0  0  0  0  0
  -27.8250  -12.3610   18.2950 C   0  0  0  0  0  2  0  0  0  0  0  0
  -27.5340  -13.2010   19.5670 C   0  0  0  0  0  3  0  0  0  0  0  0
  -28.6550  -13.0600   20.6210 C   0  0  0  0  0  2  0  0  0  0  0  0
  -29.9180  -13.4130   19.9640 N   0  0  0  0  0  0  0  0  0  0  0  0
  -31.7100  -14.7400   19.5840 O   0  0  0  0  0  0  0  0  0  0  0  0
  -29.8240  -15.7550   20.3120 N   0  0  0  0  0  0  0  0  0  0  0  0
  -28.8820  -15.6240   20.6510 H   0  0  0  0  0  0  0  0  0  0  0  0
  -25.1890  -13.7740   20.4380 C   0  0  0  0  0  0  0  0  0  0  0  0
  -24.1470  -12.9910   20.8550 C   0  0  0  0  0  0  0  0  0  0  0  0
  -24.6090  -11.6410   20.7720 C   0  0  0  0  0  0  0  0  0  0  0  0
  -26.2200  -12.9010   20.1260 N   0  0  0  0  0  0  0  0  0  0  0  0
  -25.8800  -11.6130   20.3880 N   0  0  0  0  0  0  0  0  0  0  0  0
  -23.8940  -10.3750   20.9800 C   0  0  0  0  0  0  0  0  0  0  0  0
  -24.3610   -9.4050   21.8920 C   0  0  0  0  0  3  0  0  0  0  0  0
  -23.6470   -8.2030   22.0890 C   0  0  0  0  0  3  0  0  0  0  0  0
  -22.4500   -7.9640   21.3730 C   0  0  0  0  0  0  0  0  0  0  0  0
  -22.0000   -8.9250   20.4500 C   0  0  0  0  0  3  0  0  0  0  0  0
  -22.7150  -10.1170   20.2510 C   0  0  0  0  0  3  0  0  0  0  0  0
  -21.7020   -6.8180   21.4820 O   0  0  0  0  0  0  0  0  0  0  0  0
  -21.6810   -6.0780   22.6360 C   0  0  0  0  0  0  0  0  0  0  0  0
  -21.2450   -6.6240   23.8640 C   0  0  0  0  0  3  0  0  0  0  0  0
  -21.1720   -5.8090   25.0110 C   0  0  0  0  0  3  0  0  0  0  0  0
  -21.5270   -4.4500   24.9320 C   0  0  0  0  0  0  0  0  0  0  0  0
  -21.9550   -3.9020   23.7120 C   0  0  0  0  0  3  0  0  0  0  0  0
  -22.0300   -4.7140   22.5650 C   0  0  0  0  0  0  0  0  0  0  0  0
  -22.4240   -4.1760   21.3860 F   0  0  0  0  0  0  0  0  0  0  0  0
  -21.4490   -3.6650   26.0330 F   0  0  0  0  0  0  0  0  0  0  0  0
  -22.7680  -13.4630   21.2160 C   0  0  0  0  0  0  0  0  0  0  0  0
  -22.0910  -12.7510   22.1090 N   0  0  0  0  0  0  0  0  0  0  0  0
  -22.3020  -14.4980   20.7410 O   0  0  0  0  0  0  0  0  0  0  0  0
  -22.4810  -11.9140   22.5170 H   0  0  0  0  0  0  0  0  0  0  0  0
  -21.1680  -13.0500   22.3920 H   0  0  0  0  0  0  0  0  0  0  0  0
  -25.3390  -15.1480   20.2760 N   0  0  0  0  0  0  0  0  0  0  0  0
  -24.5740  -15.7930   20.4430 H   0  0  0  0  0  0  0  0  0  0  0  0
  -26.1590  -15.6000   19.8940 H   0  0  0  0  0  0  0  0  0  0  0  0
  -28.3790  -23.7000   20.4790 C   0  0  0  0  0  3  0  0  0  0  0  0
  -28.5610  -25.1070   19.7080 C   0  0  0  0  0  3  0  0  0  0  0  0
  -28.3860  -26.4290   20.3640 O   0  0  0  0  0  0  0  0  0  0  0  0
  -24.6000  -31.8080   23.2790 C   0  0  0  0  0  0  0  0  0  0  0  0
  -27.2480  -27.2450   20.2520 C   0  0  0  0  0  0  0  0  0  0  0  0
  -23.4220  -30.4320   21.5990 C   0  0  0  0  0  3  0  0  0  0  0  0
  -24.8920  -28.8740   20.1920 C   0  0  0  0  0  0  0  0  0  0  0  0
  -25.9650  -30.7310   21.4750 C   0  0  0  0  0  2  0  0  0  0  0  0
  -26.0470  -29.3540   20.8220 C   0  0  0  0  0  0  0  0  0  0  0  0
  -27.2220  -28.5470   20.8450 C   0  0  0  0  0  3  0  0  0  0  0  0
  -26.0720  -26.8130   19.6030 C   0  0  0  0  0  3  0  0  0  0  0  0
  -24.9070  -27.6110   19.5750 C   0  0  0  0  0  3  0  0  0  0  0  0
  -23.6610  -29.7600   20.2190 C   0  0  0  0  0  2  0  0  0  0  0  0
  -24.6800  -31.0080   22.1750 N   0  0  0  0  0  0  0  0  0  0  0  0
  -23.5060  -32.0930   23.7900 O   0  0  0  0  0  0  0  0  0  0  0  0
  -22.7280  -29.4170   22.5370 C   0  0  0  0  0  0  0  0  0  0  0  0
  -21.4020  -29.2650   22.3880 N   0  0  0  0  0  0  0  0  0  0  0  0
  -23.3830  -28.7690   23.3580 O   0  0  0  0  0  0  0  0  0  0  0  0
  -20.9370  -29.8370   21.6980 H   0  0  0  0  0  0  0  0  0  0  0  0
  -17.9920  -28.1490   22.8390 C   0  0  0  0  0  0  0  0  0  0  0  0
  -20.5540  -28.3330   23.1310 C   0  0  0  0  0  3  0  0  0  0  0  0
  -20.6220  -26.9140   22.5220 C   0  0  0  0  0  2  0  0  0  0  0  0
  -19.5190  -26.6440   21.4930 C   0  0  0  0  0  2  0  0  0  0  0  0
  -18.1370  -26.8120   22.1320 C   0  0  0  0  0  2  0  0  0  0  0  0
  -19.1280  -28.8700   23.2930 C   0  0  0  0  0  0  0  0  0  0  0  0
  -18.9380  -30.1240   23.9140 C   0  0  0  0  0  3  0  0  0  0  0  0
  -17.6460  -30.6560   24.0840 C   0  0  0  0  0  3  0  0  0  0  0  0
  -16.5240  -29.9310   23.6460 C   0  0  0  0  0  3  0  0  0  0  0  0
  -16.6980  -28.6790   23.0300 C   0  0  0  0  0  3  0  0  0  0  0  0
  -25.8720  -32.4230   23.9400 C   0  0  0  0  0  3  0  0  0  0  0  0
  -26.3420  -31.6430   25.2300 C   0  0  1  0  0  0  0  0  0  0  0  0
  -25.2160  -31.4140   26.2650 C   0  0  0  0  0  1  0  0  0  0  0  0
  -26.9220  -30.2620   24.8470 C   0  0  0  0  0  1  0  0  0  0  0  0
  -27.4840  -32.4210   25.9270 C   0  0  0  0  0  1  0  0  0  0  0  0
  -25.5720  -33.8240   24.2690 N   0  0  0  0  0  0  0  0  0  0  0  0
  -25.9290  -34.8750   23.5190 C   0  0  0  0  0  0  0  0  0  0  0  0
  -26.6170  -34.7660   22.5010 O   0  0  0  0  0  0  0  0  0  0  0  0
  -24.9610  -33.9820   25.0570 H   0  0  0  0  0  0  0  0  0  0  0  0
  -24.2310  -36.6910   23.1360 C   0  0  0  0  0  1  0  0  0  0  0  0
  -25.4490  -36.2680   23.9720 C   0  0  0  0  0  3  0  0  0  0  0  0
  -27.5730  -37.1280   24.8550 C   0  0  0  0  0  1  0  0  0  0  0  0
  -26.4970  -37.3080   23.8840 N   0  0  0  0  0  0  0  0  0  0  0  0
  -26.1000  -38.2330   24.0210 H   0  0  0  0  0  0  0  0  0  0  0  0
  1  2  2  0
  1  3  1  0
  2  5  1  0
  3  6  2  0
  5  7  1  0
  5  4  2  0
  6  4  1  0
  6 48  1  0
  7  8  2  0
  9 18  1  0
  9  7  1  0
 10 18  1  0
 11 16  1  0
 12 13  1  0
 12 11  1  0
 14 13  1  0
 14 23  1  0
 14 15  1  0
 16 10  1  0
 16 15  1  0
 17 10  2  0
 18 19  1  0
 20 21  2  0
 21 40  1  0
 22 21  1  0
 22 25  1  0
 23 24  1  0
 23 20  1  0
 24 22  2  0
 25 26  1  0
 26 27  2  0
 28 31  1  0
 28 27  1  0
 29 28  2  0
 30 29  1  0
 30 25  2  0
 31 32  1  0
 32 33  1  0
 33 34  2  0
 35 34  1  0
 35 39  1  0
 36 35  2  0
 37 32  2  0
 37 36  1  0
 38 37  1  0
 40 41  1  0
 41 44  1  0
 41 43  1  0
 42 40  2  0
 45 20  1  0
 45 46  1  0
 47 45  1  0
 49 50  1  0
 49 48  2  0
 51 62  2  0
 52 50  1  0
 52 57  1  0
 53 61  1  0
 53 63  1  0
 54 60  1  0
 54 56  1  0
 55 61  1  0
 56 57  2  0
 56 55  1  0
 58 52  2  0
 59 58  1  0
 59 54  2  0
 60 53  1  0
 61 51  1  0
 63 65  2  0
 64 63  1  0
 66 64  1  0
 67 76  2  0
 67 72  1  0
 68 64  1  0
 68 72  1  0
 69 68  1  0
 70 71  1  0
 70 69  1  0
 71 67  1  0
 72 73  2  0
 73 74  1  0
 75 74  2  0
 76 75  1  0
 77 51  1  0
 77 82  1  0
 77 78  1  0
 78 81  1  1
 78 79  1  0
 80 78  1  0
 82 85  1  0
 83 87  1  0
 83 82  1  0
 84 83  2  0
 87 86  1  0
 89 87  1  0
 89 90  1  0
 89 88  1  0
M  ISO  4  10 100  18 100  49 101  50 101
M  END
>  <TORSDO>  (33) 
F 20

>  <SCORE>  (33) 
-13.403

>  <name>  (33) 
32

>  <ligand_id>  (33) 
32

>  <original_smiles>  (33) 
[H]c1c([H])c(C(=O)C([H])([H])N([H])C(=O)N2C([H])([H])C([H])([H])C([H])([H])C([H])(n3nc(-c4c([H])c([H])c(Oc5c([H])c([H])c(F)c([H])c5F)c([H])c4[H])c(C(=O)N([H])[H])c3N([H])[H])C2([H])[H])c([H])c(C([H])([H])C([H])([H])Oc2c([H])c([H])c3c(c2[H])C([H])([H])N(C(=O)C([H])(N([H])C(=O)C([H])(N([H])C([H])([H])[H])C([H])([H])[H])C(C([H])([H])[H])(C([H])([H])[H])C([H])([H])[H])C([H])(C(=O)N([H])C2([H])c4c([H])c([H])c([H])c([H])c4C([H])([H])C([H])([H])C2([H])[H])C3([H])[H])c1[H]

>  <smiles>  (33) 
[H]c1c([H])c(C(=O)C([H])([H])N([H])C(=O)N2C([H])([H])C([H])([H])C([H])([H])C([H])(n3nc(-c4c([H])c([H])c(Oc5c([H])c([H])c(F)c([H])c5F)c([H])c4[H])c(C(=O)N([H])[H])c3N([H])[H])C2([H])[H])c([H])c(C([H])([H])C([H])([H])Oc2c([H])c([H])c3c(c2[H])C([H])([H])N(C(=O)C([H])(N([H])C(=O)C([H])(N([H])C([H])([H])[H])C([H])([H])[H])C(C([H])([H])[H])(C([H])([H])[H])C([H])([H])[H])C([H])(C(=O)N([H])C2([H])c4c([H])c([H])c([H])c([H])c4C([H])([H])C([H])([H])C2([H])[H])C3([H])[H])c1[H]

$$$$
33:0:0
     RDKit          3D

 91 99  0  0  1  0  0  0  0  0999 V2000
  -29.0020  -21.4080   21.0530 C   0  0  0  0  0  0  0  0  0  0  0  0
  -29.1490  -22.5770   20.3440 N   0  0  0  0  0  0  0  0  0  0  0  0
  -28.3190  -21.3980   22.0790 O   0  0  0  0  0  0  0  0  0  0  0  0
  -29.6540  -22.4870   19.4710 H   0  0  0  0  0  0  0  0  0  0  0  0
  -30.6800  -19.6840   21.7380 C   0  0  0  0  0  2  0  0  0  0  0  0
  -29.6510  -18.6590   21.2790 C   0  0  0  0  0  3  0  0  0  0  0  0
  -29.7930  -20.1320   20.6220 C   0  0  0  0  0  3  0  0  0  0  0  0
  -29.8870  -16.2440   20.0800 C   0  0  0  0  0  0  0  0  0  0  0  0
  -30.2430  -17.2150   21.0150 C   0  0  0  0  0  0  0  0  0  0  0  0
  -31.3290  -16.9110   22.0500 C   0  0  0  0  0  1  0  0  0  0  0  0
  -30.5980  -14.8930   19.9340 C   0  0  0  0  0  0  0  0  0  0  0  0
  -30.2770  -12.5910   19.0000 C   0  0  0  0  0  2  0  0  0  0  0  0
  -29.2890  -12.6290   17.8160 C   0  0  0  0  0  2  0  0  0  0  0  0
  -27.8490  -12.4300   18.3240 C   0  0  0  0  0  2  0  0  0  0  0  0
  -27.5150  -13.3480   19.5260 C   0  0  0  0  0  3  0  0  0  0  0  0
  -28.6370  -13.3720   20.5890 C   0  0  0  0  0  2  0  0  0  0  0  0
  -29.9040  -13.6930   19.9220 N   0  0  0  0  0  0  0  0  0  0  0  0
  -31.7820  -14.8670   19.5850 O   0  0  0  0  0  0  0  0  0  0  0  0
  -25.2020  -13.9660   20.4380 C   0  0  0  0  0  0  0  0  0  0  0  0
  -24.1520  -13.2010   20.8590 C   0  0  0  0  0  0  0  0  0  0  0  0
  -24.5910  -11.8430   20.7650 C   0  0  0  0  0  0  0  0  0  0  0  0
  -26.2110  -13.0730   20.1080 N   0  0  0  0  0  0  0  0  0  0  0  0
  -25.8570  -11.7910   20.3720 N   0  0  0  0  0  0  0  0  0  0  0  0
  -23.8630  -10.5870   20.9720 C   0  0  0  0  0  0  0  0  0  0  0  0
  -24.3270   -9.6080   21.8790 C   0  0  0  0  0  3  0  0  0  0  0  0
  -23.6010   -8.4150   22.0750 C   0  0  0  0  0  3  0  0  0  0  0  0
  -22.3980   -8.1930   21.3630 C   0  0  0  0  0  0  0  0  0  0  0  0
  -21.9520   -9.1610   20.4450 C   0  0  0  0  0  3  0  0  0  0  0  0
  -22.6790  -10.3450   20.2470 C   0  0  0  0  0  3  0  0  0  0  0  0
  -21.6370   -7.0540   21.4690 O   0  0  0  0  0  0  0  0  0  0  0  0
  -21.6170   -6.3060   22.6180 C   0  0  0  0  0  0  0  0  0  0  0  0
  -21.2150   -6.8530   23.8570 C   0  0  0  0  0  3  0  0  0  0  0  0
  -21.1460   -6.0310   25.0000 C   0  0  0  0  0  3  0  0  0  0  0  0
  -21.4640   -4.6630   24.9050 C   0  0  0  0  0  0  0  0  0  0  0  0
  -21.8600   -4.1160   23.6710 C   0  0  0  0  0  3  0  0  0  0  0  0
  -21.9300   -4.9350   22.5300 C   0  0  0  0  0  0  0  0  0  0  0  0
  -22.2930   -4.3990   21.3390 F   0  0  0  0  0  0  0  0  0  0  0  0
  -21.3860   -3.8720   25.9990 F   0  0  0  0  0  0  0  0  0  0  0  0
  -22.7820  -13.6860   21.2310 C   0  0  0  0  0  0  0  0  0  0  0  0
  -22.1020  -12.9660   22.1170 N   0  0  0  0  0  0  0  0  0  0  0  0
  -22.3260  -14.7340   20.7740 O   0  0  0  0  0  0  0  0  0  0  0  0
  -22.4890  -12.1160   22.5010 H   0  0  0  0  0  0  0  0  0  0  0  0
  -21.1830  -13.2600   22.4130 H   0  0  0  0  0  0  0  0  0  0  0  0
  -25.3750  -15.3370   20.2810 N   0  0  0  0  0  0  0  0  0  0  0  0
  -24.6420  -16.0110   20.4730 H   0  0  0  0  0  0  0  0  0  0  0  0
  -26.2110  -15.7580   19.9000 H   0  0  0  0  0  0  0  0  0  0  0  0
  -28.8490  -17.9240   18.3360 C   0  0  0  0  0  1  0  0  0  0  0  0
  -28.8200  -16.5470   19.0230 C   0  0  0  0  0  2  0  0  0  0  0  0
  -28.9420  -24.0080   20.8270 C   0  0  0  0  0  3  0  0  0  0  0  0
  -28.2600  -25.0900   19.8640 C   0  0  0  0  0  3  0  0  0  0  0  0
  -28.2990  -26.5390   20.2410 O   0  0  0  0  0  0  0  0  0  0  0  0
  -24.5500  -31.9380   23.2290 C   0  0  0  0  0  0  0  0  0  0  0  0
  -27.1680  -27.3770   20.1570 C   0  0  0  0  0  0  0  0  0  0  0  0
  -23.3450  -30.5380   21.5940 C   0  0  0  0  0  3  0  0  0  0  0  0
  -24.7980  -29.0000   20.1490 C   0  0  0  0  0  0  0  0  0  0  0  0
  -25.8810  -30.8700   21.3900 C   0  0  0  0  0  2  0  0  0  0  0  0
  -25.9670  -29.4880   20.7450 C   0  0  0  0  0  0  0  0  0  0  0  0
  -27.1490  -28.6850   20.7450 C   0  0  0  0  0  3  0  0  0  0  0  0
  -25.9780  -26.9610   19.5150 C   0  0  0  0  0  3  0  0  0  0  0  0
  -24.8070  -27.7460   19.5230 C   0  0  0  0  0  3  0  0  0  0  0  0
  -23.5530  -29.8670   20.2090 C   0  0  0  0  0  2  0  0  0  0  0  0
  -24.6120  -31.1320   22.1280 N   0  0  0  0  0  0  0  0  0  0  0  0
  -23.4680  -32.2070   23.7730 O   0  0  0  0  0  0  0  0  0  0  0  0
  -22.6970  -29.5110   22.5530 C   0  0  0  0  0  0  0  0  0  0  0  0
  -21.3750  -29.3080   22.4230 N   0  0  0  0  0  0  0  0  0  0  0  0
  -23.3820  -28.8980   23.3750 O   0  0  0  0  0  0  0  0  0  0  0  0
  -20.8740  -29.8560   21.7380 H   0  0  0  0  0  0  0  0  0  0  0  0
  -18.0210  -28.0470   22.9000 C   0  0  0  0  0  0  0  0  0  0  0  0
  -20.5710  -28.3590   23.1970 C   0  0  0  0  0  3  0  0  0  0  0  0
  -20.7070  -26.9230   22.6380 C   0  0  0  0  0  2  0  0  0  0  0  0
  -19.6250  -26.5700   21.6140 C   0  0  0  0  0  2  0  0  0  0  0  0
  -18.2330  -26.6940   22.2420 C   0  0  0  0  0  2  0  0  0  0  0  0
  -19.1190  -28.8350   23.3350 C   0  0  0  0  0  0  0  0  0  0  0  0
  -18.8690  -30.1000   23.9080 C   0  0  0  0  0  3  0  0  0  0  0  0
  -17.5530  -30.5760   24.0580 C   0  0  0  0  0  3  0  0  0  0  0  0
  -16.4680  -29.7830   23.6450 C   0  0  0  0  0  3  0  0  0  0  0  0
  -16.7030  -28.5210   23.0680 C   0  0  0  0  0  3  0  0  0  0  0  0
  -25.8300  -32.5800   23.8420 C   0  0  0  0  0  3  0  0  0  0  0  0
  -25.5230  -33.9850   24.1510 N   0  0  0  0  0  0  0  0  0  0  0  0
  -25.8530  -35.0250   23.3760 C   0  0  0  0  0  0  0  0  0  0  0  0
  -26.5170  -34.9040   22.3410 O   0  0  0  0  0  0  0  0  0  0  0  0
  -24.9320  -34.1540   24.9530 H   0  0  0  0  0  0  0  0  0  0  0  0
  -24.1170  -36.8110   23.0080 C   0  0  0  0  0  1  0  0  0  0  0  0
  -25.3670  -36.4230   23.8140 C   0  0  0  0  0  3  0  0  0  0  0  0
  -27.5080  -37.3260   24.6080 C   0  0  0  0  0  1  0  0  0  0  0  0
  -26.3950  -37.4770   23.6730 N   0  0  0  0  0  0  0  0  0  0  0  0
  -25.9870  -38.3970   23.8140 H   0  0  0  0  0  0  0  0  0  0  0  0
  -26.3460  -31.8300   25.1310 C   0  0  1  0  0  0  0  0  0  0  0  0
  -25.2530  -31.6060   26.2030 C   0  0  0  0  0  1  0  0  0  0  0  0
  -26.9290  -30.4490   24.7560 C   0  0  0  0  0  1  0  0  0  0  0  0
  -27.4940  -32.6350   25.7830 C   0  0  0  0  0  1  0  0  0  0  0  0
  1  3  2  0
  2 49  1  0
  2  1  1  0
  4  2  1  0
  6  9  1  0
  6  5  1  0
  7  1  1  0
  7  6  1  0
  7  5  1  0
  8  9  2  0
  9 10  1  0
 11  8  1  0
 12 17  1  0
 13 14  1  0
 13 12  1  0
 15 14  1  0
 15 22  1  0
 15 16  1  0
 17 11  1  0
 17 16  1  0
 18 11  2  0
 19 20  2  0
 20 39  1  0
 21 20  1  0
 21 24  1  0
 22 23  1  0
 22 19  1  0
 23 21  2  0
 24 25  1  0
 25 26  2  0
 27 30  1  0
 27 26  1  0
 28 27  2  0
 29 28  1  0
 29 24  2  0
 30 31  1  0
 31 32  1  0
 32 33  2  0
 34 33  1  0
 34 38  1  0
 35 34  2  0
 36 31  2  0
 36 35  1  0
 37 36  1  0
 39 40  1  0
 40 43  1  0
 40 42  1  0
 41 39  2  0
 44 19  1  0
 44 45  1  0
 46 44  1  0
 47 48  1  0
 48  8  1  0
 50 51  1  0
 50 49  2  0
 52 63  2  0
 53 51  1  0
 53 58  1  0
 54 62  1  0
 54 64  1  0
 55 61  1  0
 55 57  1  0
 56 62  1  0
 57 56  1  0
 58 57  2  0
 59 60  1  0
 59 53  2  0
 60 55  2  0
 61 54  1  0
 62 52  1  0
 64 66  2  0
 65 64  1  0
 67 65  1  0
 68 77  2  0
 68 73  1  0
 69 65  1  0
 69 73  1  0
 70 69  1  0
 71 72  1  0
 71 70  1  0
 72 68  1  0
 73 74  2  0
 74 75  1  0
 76 75  2  0
 77 76  1  0
 78 52  1  0
 78 79  1  0
 78 88  1  0
 79 82  1  0
 80 84  1  0
 80 79  1  0
 81 80  2  0
 84 83  1  0
 86 84  1  0
 86 87  1  0
 86 85  1  0
 88 91  1  1
 88 89  1  0
 90 88  1  0
M  ISO  4   8 100  11 100  50 101  51 101
M  END
>  <TORSDO>  (34) 
F 21

>  <SCORE>  (34) 
-13.003

>  <name>  (34) 
33

>  <ligand_id>  (34) 
33

>  <original_smiles>  (34) 
[H]c1c([H])c([H])c2c(c1[H])C([H])([H])C([H])([H])C([H])([H])C2([H])N([H])C(=O)C1([H])N(C(=O)C([H])(N([H])C(=O)C([H])(N([H])C([H])([H])[H])C([H])([H])[H])C(C([H])([H])[H])(C([H])([H])[H])C([H])([H])[H])C([H])([H])c2c([H])c(OC([H])([H])C([H])([H])N([H])C(=O)C3([H])C([H])([H])C3([H])C(=C(C(=O)N3C([H])([H])C([H])([H])C([H])([H])C([H])(n4nc(-c5c([H])c([H])c(Oc6c([H])c([H])c(F)c([H])c6F)c([H])c5[H])c(C(=O)N([H])[H])c4N([H])[H])C3([H])[H])C([H])([H])C([H])([H])[H])C([H])([H])[H])c([H])c([H])c2C1([H])[H]

>  <smiles>  (34) 
[H]c1c([H])c([H])c2c(c1[H])C([H])([H])C([H])([H])C([H])([H])C2([H])N([H])C(=O)C1([H])N(C(=O)C([H])(N([H])C(=O)C([H])(N([H])C([H])([H])[H])C([H])([H])[H])C(C([H])([H])[H])(C([H])([H])[H])C([H])([H])[H])C([H])([H])c2c([H])c(OC([H])([H])C([H])([H])N([H])C(=O)C3([H])C([H])([H])C3([H])C(=C(C(=O)N3C([H])([H])C([H])([H])C([H])([H])C([H])(n4nc(-c5c([H])c([H])c(Oc6c([H])c([H])c(F)c([H])c6F)c([H])c5[H])c(C(=O)N([H])[H])c4N([H])[H])C3([H])[H])C([H])([H])C([H])([H])[H])C([H])([H])[H])c([H])c([H])c2C1([H])[H]

$$$$
34:0:0
     RDKit          3D

 96104  0  0  1  0  0  0  0  0999 V2000
  -28.9250  -21.4930   20.0730 C   0  0  0  0  0  0  0  0  0  0  0  0
  -28.5470  -21.9800   21.1430 O   0  0  0  0  0  0  0  0  0  0  0  0
  -31.0630  -22.2490   18.7990 C   0  0  0  0  0  2  0  0  0  0  0  0
  -30.9370  -23.7450   18.5310 C   0  0  0  0  0  2  0  0  0  0  0  0
  -29.5410  -22.2880   18.9440 C   0  0  0  0  0  3  0  0  0  0  0  0
  -29.7000  -23.7030   19.3240 N   0  0  2  0  0  4  0  0  0  0  0  0
  -29.9030  -23.7470   20.3140 H   0  0  0  0  0  0  0  0  0  0  0  0
  -28.6030  -24.6330   18.9270 C   0  0  0  0  0  2  0  0  0  0  0  0
  -28.9650  -26.1340   19.0690 C   0  0  0  0  0  2  0  0  0  0  0  0
  -28.4690  -26.7630   20.2570 O   0  0  0  0  0  0  0  0  0  0  0  0
  -24.5380  -31.8990   23.2140 C   0  0  0  0  0  0  0  0  0  0  0  0
  -27.2800  -27.4630   20.1960 C   0  0  0  0  0  0  0  0  0  0  0  0
  -23.3720  -30.4830   21.5540 C   0  0  0  0  0  3  0  0  0  0  0  0
  -24.8640  -28.9420   20.1640 C   0  0  0  0  0  0  0  0  0  0  0  0
  -25.8960  -30.8500   21.4100 C   0  0  0  0  0  2  0  0  0  0  0  0
  -26.0020  -29.4730   20.7830 C   0  0  0  0  0  0  0  0  0  0  0  0
  -27.2040  -28.7320   20.8110 C   0  0  0  0  0  3  0  0  0  0  0  0
  -26.1210  -26.9390   19.5800 C   0  0  0  0  0  3  0  0  0  0  0  0
  -24.9170  -27.6710   19.5640 C   0  0  0  0  0  3  0  0  0  0  0  0
  -23.6120  -29.7900   20.1840 C   0  0  0  0  0  2  0  0  0  0  0  0
  -24.6180  -31.0930   22.1180 N   0  0  0  0  0  0  0  0  0  0  0  0
  -23.4470  -32.1700   23.7320 O   0  0  0  0  0  0  0  0  0  0  0  0
  -22.7020  -29.4680   22.5080 C   0  0  0  0  0  0  0  0  0  0  0  0
  -21.3780  -29.2960   22.3660 N   0  0  0  0  0  0  0  0  0  0  0  0
  -23.3710  -28.8340   23.3290 O   0  0  0  0  0  0  0  0  0  0  0  0
  -20.9000  -29.8580   21.6760 H   0  0  0  0  0  0  0  0  0  0  0  0
  -17.9790  -28.1900   22.8890 C   0  0  0  0  0  0  0  0  0  0  0  0
  -20.5450  -28.3650   23.1280 C   0  0  0  0  0  3  0  0  0  0  0  0
  -20.5970  -26.9470   22.5180 C   0  0  0  0  0  2  0  0  0  0  0  0
  -19.4710  -26.6810   21.5120 C   0  0  0  0  0  2  0  0  0  0  0  0
  -18.1040  -26.8520   22.1800 C   0  0  0  0  0  2  0  0  0  0  0  0
  -19.1250  -28.9080   23.3210 C   0  0  0  0  0  0  0  0  0  0  0  0
  -18.9530  -30.1610   23.9450 C   0  0  0  0  0  3  0  0  0  0  0  0
  -17.6660  -30.6980   24.1410 C   0  0  0  0  0  3  0  0  0  0  0  0
  -16.5340  -29.9760   23.7240 C   0  0  0  0  0  3  0  0  0  0  0  0
  -16.6910  -28.7240   23.1050 C   0  0  0  0  0  3  0  0  0  0  0  0
  -25.8100  -32.5350   23.8590 C   0  0  0  0  0  3  0  0  0  0  0  0
  -26.3020  -31.7760   25.1530 C   0  0  1  0  0  0  0  0  0  0  0  0
  -25.1860  -31.5410   26.1940 C   0  0  0  0  0  1  0  0  0  0  0  0
  -26.9040  -30.3990   24.7840 C   0  0  0  0  0  1  0  0  0  0  0  0
  -27.4320  -32.5820   25.8370 C   0  0  0  0  0  1  0  0  0  0  0  0
  -25.4970  -33.9370   24.1670 N   0  0  0  0  0  0  0  0  0  0  0  0
  -25.8660  -34.9820   23.4150 C   0  0  0  0  0  0  0  0  0  0  0  0
  -26.5790  -34.8680   22.4140 O   0  0  0  0  0  0  0  0  0  0  0  0
  -24.8690  -34.1020   24.9410 H   0  0  0  0  0  0  0  0  0  0  0  0
  -24.1880  -36.7950   22.9480 C   0  0  0  0  0  1  0  0  0  0  0  0
  -25.3670  -36.3740   23.8410 C   0  0  0  0  0  3  0  0  0  0  0  0
  -27.4490  -37.2360   24.8180 C   0  0  0  0  0  1  0  0  0  0  0  0
  -26.4180  -37.4160   23.7980 N   0  0  0  0  0  0  0  0  0  0  0  0
  -26.0150  -38.3420   23.9160 H   0  0  0  0  0  0  0  0  0  0  0  0
  -28.7520  -19.9810   19.8110 C   0  0  0  0  0  3  0  0  0  0  0  0
  -27.3190  -19.6880   20.0240 N   0  0  0  0  0  4  0  0  0  0  0  0
  -27.0300  -20.0860   20.9020 H   0  0  0  0  0  0  0  0  0  0  0  0
  -27.1350  -18.7020   20.0290 H   0  0  0  0  0  0  0  0  0  0  0  0
  -26.7630  -20.1050   19.2980 H   0  0  0  0  0  0  0  0  0  0  0  0
  -29.6600  -19.1380   20.7480 C   0  0  0  0  0  2  0  0  0  0  0  0
  -29.6130  -17.6220   20.4540 C   0  0  0  0  0  2  0  0  0  0  0  0
  -30.5410  -16.7740   21.3490 C   0  0  0  0  0  2  0  0  0  0  0  0
  -30.9090  -14.4140   20.5540 C   0  0  0  0  0  0  0  0  0  0  0  0
  -30.6350  -12.2700   19.3630 C   0  0  0  0  0  2  0  0  0  0  0  0
  -29.7060  -12.4830   18.1490 C   0  0  0  0  0  2  0  0  0  0  0  0
  -28.2230  -12.3690   18.5560 C   0  0  0  0  0  2  0  0  0  0  0  0
  -27.8740  -13.2040   19.8140 C   0  0  0  0  0  3  0  0  0  0  0  0
  -28.9030  -12.9410   20.9370 C   0  0  0  0  0  2  0  0  0  0  0  0
  -30.2440  -13.2390   20.3970 N   0  0  0  0  0  0  0  0  0  0  0  0
  -32.0090  -14.6490   20.0420 O   0  0  0  0  0  0  0  0  0  0  0  0
  -30.2180  -15.3540   21.2130 N   0  0  0  0  0  0  0  0  0  0  0  0
  -29.3220  -15.0550   21.5740 H   0  0  0  0  0  0  0  0  0  0  0  0
  -25.4690  -13.8560   20.4720 C   0  0  0  0  0  0  0  0  0  0  0  0
  -24.3840  -13.1010   20.8230 C   0  0  0  0  0  0  0  0  0  0  0  0
  -24.8240  -11.7440   20.8020 C   0  0  0  0  0  0  0  0  0  0  0  0
  -26.5060  -12.9570   20.2650 N   0  0  0  0  0  0  0  0  0  0  0  0
  -26.1170  -11.6810   20.5130 N   0  0  0  0  0  0  0  0  0  0  0  0
  -24.0750  -10.4950   20.9860 C   0  0  0  0  0  0  0  0  0  0  0  0
  -24.4610   -9.5420   21.9530 C   0  0  0  0  0  3  0  0  0  0  0  0
  -23.7190   -8.3520   22.1240 C   0  0  0  0  0  3  0  0  0  0  0  0
  -22.5740   -8.1110   21.3270 C   0  0  0  0  0  0  0  0  0  0  0  0
  -22.2060   -9.0540   20.3490 C   0  0  0  0  0  3  0  0  0  0  0  0
  -22.9500  -10.2340   20.1800 C   0  0  0  0  0  3  0  0  0  0  0  0
  -21.8060   -6.9760   21.4030 O   0  0  0  0  0  0  0  0  0  0  0  0
  -21.6840   -6.2670   22.5710 C   0  0  0  0  0  0  0  0  0  0  0  0
  -21.1460   -6.8450   23.7410 C   0  0  0  0  0  3  0  0  0  0  0  0
  -20.9770   -6.0600   24.8990 C   0  0  0  0  0  3  0  0  0  0  0  0
  -21.3370   -4.6970   24.8840 C   0  0  0  0  0  0  0  0  0  0  0  0
  -21.8650   -4.1200   23.7160 C   0  0  0  0  0  3  0  0  0  0  0  0
  -22.0370   -4.9030   22.5620 C   0  0  0  0  0  0  0  0  0  0  0  0
  -22.5300   -4.3380   21.4330 F   0  0  0  0  0  0  0  0  0  0  0  0
  -21.1640   -3.9380   25.9930 F   0  0  0  0  0  0  0  0  0  0  0  0
  -22.9900  -13.6030   21.0740 C   0  0  0  0  0  0  0  0  0  0  0  0
  -22.2390  -12.9170   21.9260 N   0  0  0  0  0  0  0  0  0  0  0  0
  -22.5800  -14.6370   20.5520 O   0  0  0  0  0  0  0  0  0  0  0  0
  -22.5850  -12.0790   22.3700 H   0  0  0  0  0  0  0  0  0  0  0  0
  -21.3010  -13.2300   22.1350 H   0  0  0  0  0  0  0  0  0  0  0  0
  -25.6590  -15.2240   20.2920 N   0  0  0  0  0  0  0  0  0  0  0  0
  -24.8880  -15.8800   20.3580 H   0  0  0  0  0  0  0  0  0  0  0  0
  -26.5170  -15.6330   19.9410 H   0  0  0  0  0  0  0  0  0  0  0  0
  1  2  2  0
  3  5  1  0
  4  3  1  0
  4  6  1  0
  5  6  1  0
  5  1  1  0
  6  7  1  1
  8  9  1  0
  8  6  1  0
  9 10  1  0
 11 22  2  0
 12 10  1  0
 12 17  1  0
 13 21  1  0
 13 23  1  0
 14 20  1  0
 14 16  1  0
 15 21  1  0
 16 17  2  0
 16 15  1  0
 18 12  2  0
 19 18  1  0
 19 14  2  0
 20 13  1  0
 21 11  1  0
 23 25  2  0
 24 23  1  0
 26 24  1  0
 27 36  2  0
 27 32  1  0
 28 24  1  0
 28 32  1  0
 29 28  1  0
 30 31  1  0
 30 29  1  0
 31 27  1  0
 32 33  2  0
 33 34  1  0
 35 34  2  0
 36 35  1  0
 37 11  1  0
 37 42  1  0
 37 38  1  0
 38 41  1  1
 38 39  1  0
 40 38  1  0
 42 45  1  0
 43 47  1  0
 43 42  1  0
 44 43  2  0
 47 46  1  0
 49 47  1  0
 49 50  1  0
 49 48  1  0
 51 52  1  0
 51  1  1  0
 51 56  1  0
 52 54  1  0
 52 53  1  0
 55 52  1  0
 57 56  1  0
 57 58  1  0
 59 67  1  0
 60 65  1  0
 61 62  1  0
 61 60  1  0
 63 62  1  0
 63 72  1  0
 63 64  1  0
 65 59  1  0
 65 64  1  0
 66 59  2  0
 67 58  1  0
 67 68  1  0
 69 70  2  0
 70 89  1  0
 71 70  1  0
 71 74  1  0
 72 69  1  0
 72 73  1  0
 73 71  2  0
 74 75  1  0
 75 76  2  0
 77 80  1  0
 77 76  1  0
 78 77  2  0
 79 78  1  0
 79 74  2  0
 80 81  1  0
 81 82  1  0
 82 83  2  0
 84 83  1  0
 84 88  1  0
 85 84  2  0
 86 81  2  0
 86 85  1  0
 87 86  1  0
 89 90  1  0
 90 93  1  0
 90 92  1  0
 91 89  2  0
 94 95  1  0
 94 69  1  0
 96 94  1  0
M  ISO  4   9 101  10 101  59 100  67 100
M  END
>  <TORSDO>  (35) 
F 24

>  <SCORE>  (35) 
-12.713

>  <name>  (35) 
34

>  <ligand_id>  (35) 
34

>  <original_smiles>  (35) 
[H]c1c([H])c([H])c2c(c1[H])C([H])([H])C([H])([H])C([H])([H])C2([H])N([H])C(=O)C1([H])N(C(=O)C([H])(N([H])C(=O)C([H])(N([H])C([H])([H])[H])C([H])([H])[H])C(C([H])([H])[H])(C([H])([H])[H])C([H])([H])[H])C([H])([H])c2c([H])c(OC([H])([H])C([H])([H])[N+]3([H])C([H])([H])C([H])([H])C3([H])C(=O)C([H])(C([H])([H])C([H])([H])C([H])([H])N([H])C(=O)N3C([H])([H])C([H])([H])C([H])([H])C([H])(n4nc(-c5c([H])c([H])c(Oc6c([H])c([H])c(F)c([H])c6F)c([H])c5[H])c(C(=O)N([H])[H])c4N([H])[H])C3([H])[H])[N+]([H])([H])[H])c([H])c([H])c2C1([H])[H]

>  <smiles>  (35) 
[H]c1c([H])c([H])c2c(c1[H])C([H])([H])C([H])([H])C([H])([H])C2([H])N([H])C(=O)C1([H])N(C(=O)C([H])(N([H])C(=O)C([H])(N([H])C([H])([H])[H])C([H])([H])[H])C(C([H])([H])[H])(C([H])([H])[H])C([H])([H])[H])C([H])([H])c2c([H])c(OC([H])([H])C([H])([H])[N+]3([H])C([H])([H])C([H])([H])C3([H])C(=O)C([H])(C([H])([H])C([H])([H])C([H])([H])N([H])C(=O)N3C([H])([H])C([H])([H])C([H])([H])C([H])(n4nc(-c5c([H])c([H])c(Oc6c([H])c([H])c(F)c([H])c6F)c([H])c5[H])c(C(=O)N([H])[H])c4N([H])[H])C3([H])[H])[N+]([H])([H])[H])c([H])c([H])c2C1([H])[H]

$$$$
35:0:0
     RDKit          3D

100108  0  0  1  0  0  0  0  0999 V2000
  -27.6200  -22.4790   22.3950 C   0  0  0  0  0  2  0  0  0  0  0  0
  -27.7930  -22.4980   20.3060 C   0  0  0  0  0  3  0  0  0  0  0  0
  -27.1390  -23.4680   21.3300 C   0  0  0  0  0  3  0  0  0  0  0  0
  -28.6400  -22.0640   21.4290 N   0  0  0  0  0  0  0  0  0  0  0  0
  -25.6620  -23.5650   21.2350 N   0  0  0  0  0  4  0  0  0  0  0  0
  -25.2400  -22.6990   20.9530 H   0  0  0  0  0  0  0  0  0  0  0  0
  -25.3940  -24.2780   20.5780 H   0  0  0  0  0  0  0  0  0  0  0  0
  -25.2680  -23.8200   22.1230 H   0  0  0  0  0  0  0  0  0  0  0  0
  -28.5030  -23.0700   19.0900 C   0  0  0  0  0  0  0  0  0  0  0  0
  -28.6640  -22.4630   18.0270 O   0  0  0  0  0  0  0  0  0  0  0  0
  -29.0520  -24.4990   19.2440 C   0  0  0  0  0  2  0  0  0  0  0  0
  -29.3290  -25.2630   17.9330 C   0  0  0  0  0  2  0  0  0  0  0  0
  -29.3290  -26.6770   18.1730 O   0  0  0  0  0  0  0  0  0  0  0  0
  -25.8220  -29.3330   23.7700 C   0  0  0  0  0  0  0  0  0  0  0  0
  -28.1700  -27.2910   18.6140 C   0  0  0  0  0  0  0  0  0  0  0  0
  -24.5190  -29.1470   21.6750 C   0  0  0  0  0  3  0  0  0  0  0  0
  -25.8630  -28.6230   19.5760 C   0  0  0  0  0  0  0  0  0  0  0  0
  -27.0590  -29.4510   21.6060 C   0  0  0  0  0  2  0  0  0  0  0  0
  -27.0550  -28.6730   20.3060 C   0  0  0  0  0  0  0  0  0  0  0  0
  -28.2120  -28.0130   19.8270 C   0  0  0  0  0  3  0  0  0  0  0  0
  -26.9520  -27.2520   17.8920 C   0  0  0  0  0  3  0  0  0  0  0  0
  -25.8050  -27.9140   18.3660 C   0  0  0  0  0  3  0  0  0  0  0  0
  -24.6730  -29.3580   20.1470 C   0  0  0  0  0  2  0  0  0  0  0  0
  -25.8220  -29.2870   22.4050 N   0  0  0  0  0  0  0  0  0  0  0  0
  -24.7640  -29.2990   24.4110 O   0  0  0  0  0  0  0  0  0  0  0  0
  -23.8240  -27.7920   21.9200 C   0  0  0  0  0  0  0  0  0  0  0  0
  -22.5260  -27.7140   21.5820 N   0  0  0  0  0  0  0  0  0  0  0  0
  -24.4510  -26.8330   22.3780 O   0  0  0  0  0  0  0  0  0  0  0  0
  -22.0840  -28.5460   21.2180 H   0  0  0  0  0  0  0  0  0  0  0  0
  -19.2320  -26.4240   20.8580 C   0  0  0  0  0  0  0  0  0  0  0  0
  -21.6750  -26.5310   21.6910 C   0  0  0  0  0  3  0  0  0  0  0  0
  -21.9970  -25.5140   20.5720 C   0  0  0  0  0  2  0  0  0  0  0  0
  -21.1090  -25.6830   19.3340 C   0  0  0  0  0  2  0  0  0  0  0  0
  -19.6330  -25.5230   19.7040 C   0  0  0  0  0  2  0  0  0  0  0  0
  -20.1940  -26.9110   21.7840 C   0  0  0  0  0  0  0  0  0  0  0  0
  -19.7720  -27.7750   22.8170 C   0  0  0  0  0  3  0  0  0  0  0  0
  -18.4200  -28.1480   22.9380 C   0  0  0  0  0  3  0  0  0  0  0  0
  -17.4690  -27.6500   22.0280 C   0  0  0  0  0  3  0  0  0  0  0  0
  -17.8760  -26.7890   20.9950 C   0  0  0  0  0  3  0  0  0  0  0  0
  -27.1480  -29.4500   24.5820 C   0  0  0  0  0  3  0  0  0  0  0  0
  -27.4710  -28.1590   25.4310 C   0  0  1  0  0  0  0  0  0  0  0  0
  -26.2630  -27.6250   26.2350 C   0  0  0  0  0  1  0  0  0  0  0  0
  -27.9720  -27.0190   24.5150 C   0  0  0  0  0  1  0  0  0  0  0  0
  -28.6170  -28.4610   26.4280 C   0  0  0  0  0  1  0  0  0  0  0  0
  -27.0310  -30.6310   25.4490 N   0  0  0  0  0  0  0  0  0  0  0  0
  -27.5930  -31.8190   25.1940 C   0  0  0  0  0  0  0  0  0  0  0  0
  -28.3320  -32.0180   24.2220 O   0  0  0  0  0  0  0  0  0  0  0  0
  -26.3980  -30.5600   26.2320 H   0  0  0  0  0  0  0  0  0  0  0  0
  -26.2240  -33.8970   25.5510 C   0  0  0  0  0  1  0  0  0  0  0  0
  -27.2870  -32.9740   26.1650 C   0  0  0  0  0  3  0  0  0  0  0  0
  -29.4510  -33.0100   27.3270 C   0  0  0  0  0  1  0  0  0  0  0  0
  -28.4820  -33.7640   26.5340 N   0  0  0  0  0  0  0  0  0  0  0  0
  -28.2160  -34.5900   27.0620 H   0  0  0  0  0  0  0  0  0  0  0  0
  -28.9020  -20.6180   21.5200 C   0  0  0  0  0  2  0  0  0  0  0  0
  -30.1560  -20.1750   20.7240 C   0  0  0  0  0  2  0  0  0  0  0  0
  -30.9280  -18.9700   21.3490 C   0  0  0  0  0  3  0  0  0  0  0  0
  -31.9540  -19.4590   22.3020 N   0  0  0  0  0  4  0  0  0  0  0  0
  -32.6130  -20.0740   21.8570 H   0  0  0  0  0  0  0  0  0  0  0  0
  -32.4630  -18.6910   22.7050 H   0  0  0  0  0  0  0  0  0  0  0  0
  -31.5300  -19.9530   23.0660 H   0  0  0  0  0  0  0  0  0  0  0  0
  -31.5710  -18.0870   20.2390 C   0  0  0  0  0  2  0  0  0  0  0  0
  -32.4390  -16.8800   20.6950 C   0  0  0  0  0  2  0  0  0  0  0  0
  -32.2440  -14.4190   20.3040 C   0  0  0  0  0  0  0  0  0  0  0  0
  -31.9340  -11.9770   20.0930 C   0  0  0  0  0  2  0  0  0  0  0  0
  -31.0360  -11.6550   18.8840 C   0  0  0  0  0  2  0  0  0  0  0  0
  -29.5530  -11.6590   19.3050 C   0  0  0  0  0  2  0  0  0  0  0  0
  -29.1700  -12.9490   20.0800 C   0  0  0  0  0  3  0  0  0  0  0  0
  -30.1870  -13.2610   21.2000 C   0  0  0  0  0  2  0  0  0  0  0  0
  -31.5380  -13.2980   20.6100 N   0  0  0  0  0  0  0  0  0  0  0  0
  -33.3000  -14.3900   19.6600 O   0  0  0  0  0  0  0  0  0  0  0  0
  -31.7420  -15.5850   20.7530 N   0  0  0  0  0  0  0  0  0  0  0  0
  -30.8720  -15.5380   21.2660 H   0  0  0  0  0  0  0  0  0  0  0  0
  -26.9850  -13.9010   21.0460 C   0  0  0  0  0  0  0  0  0  0  0  0
  -25.7900  -13.3120   21.3580 C   0  0  0  0  0  0  0  0  0  0  0  0
  -25.9460  -11.9220   21.0690 C   0  0  0  0  0  0  0  0  0  0  0  0
  -27.8070  -12.8790   20.6000 N   0  0  0  0  0  0  0  0  0  0  0  0
  -27.1870  -11.6720   20.6700 N   0  0  0  0  0  0  0  0  0  0  0  0
  -24.9720  -10.8250   21.0990 C   0  0  0  0  0  0  0  0  0  0  0  0
  -25.1860   -9.6740   21.8890 C   0  0  0  0  0  3  0  0  0  0  0  0
  -24.2300   -8.6370   21.9160 C   0  0  0  0  0  3  0  0  0  0  0  0
  -23.0430   -8.7450   21.1530 C   0  0  0  0  0  0  0  0  0  0  0  0
  -22.8460   -9.8820   20.3500 C   0  0  0  0  0  3  0  0  0  0  0  0
  -23.8000  -10.9110   20.3200 C   0  0  0  0  0  3  0  0  0  0  0  0
  -22.0700   -7.7780   21.0970 O   0  0  0  0  0  0  0  0  0  0  0  0
  -21.6510   -7.1100   22.2220 C   0  0  0  0  0  0  0  0  0  0  0  0
  -21.1380   -7.7910   23.3470 C   0  0  0  0  0  3  0  0  0  0  0  0
  -20.6590   -7.0600   24.4530 C   0  0  0  0  0  3  0  0  0  0  0  0
  -20.6790   -5.6520   24.4290 C   0  0  0  0  0  0  0  0  0  0  0  0
  -21.1850   -4.9740   23.3060 C   0  0  0  0  0  3  0  0  0  0  0  0
  -21.6680   -5.7010   22.2060 C   0  0  0  0  0  0  0  0  0  0  0  0
  -22.1340   -5.0430   21.1160 F   0  0  0  0  0  0  0  0  0  0  0  0
  -20.2140   -4.9490   25.4860 F   0  0  0  0  0  0  0  0  0  0  0  0
  -24.5370  -14.0120   21.8060 C   0  0  0  0  0  0  0  0  0  0  0  0
  -23.7190  -13.3460   22.6120 N   0  0  0  0  0  0  0  0  0  0  0  0
  -24.3010  -15.1730   21.4770 O   0  0  0  0  0  0  0  0  0  0  0  0
  -23.9240  -12.4000   22.8980 H   0  0  0  0  0  0  0  0  0  0  0  0
  -22.8680  -13.7820   22.9390 H   0  0  0  0  0  0  0  0  0  0  0  0
  -27.4310  -15.2200   21.0810 N   0  0  0  0  0  0  0  0  0  0  0  0
  -26.7960  -15.9820   21.2890 H   0  0  0  0  0  0  0  0  0  0  0  0
  -28.3330  -15.5380   20.7490 H   0  0  0  0  0  0  0  0  0  0  0  0
  2  9  1  0
  2  3  1  0
  2  4  1  0
  3  5  1  0
  3  1  1  0
  4 54  1  0
  4  1  1  0
  5  8  1  0
  6  5  1  0
  7  5  1  0
  9 11  1  0
 10  9  2  0
 12 13  1  0
 12 11  1  0
 13 15  1  0
 14 25  2  0
 15 20  1  0
 16 26  1  0
 16 24  1  0
 17 23  1  0
 17 19  1  0
 18 24  1  0
 19 18  1  0
 20 19  2  0
 21 22  1  0
 21 15  2  0
 22 17  2  0
 23 16  1  0
 24 14  1  0
 26 28  2  0
 27 26  1  0
 29 27  1  0
 30 39  2  0
 30 35  1  0
 31 27  1  0
 31 35  1  0
 32 31  1  0
 33 34  1  0
 33 32  1  0
 34 30  1  0
 35 36  2  0
 36 37  1  0
 38 37  2  0
 39 38  1  0
 40 14  1  0
 40 41  1  0
 40 45  1  0
 41 42  1  1
 41 44  1  0
 43 41  1  0
 45 48  1  0
 46 45  1  0
 46 50  1  0
 47 46  2  0
 50 49  1  0
 50 52  1  0
 52 53  1  0
 52 51  1  0
 55 56  1  0
 55 54  1  0
 56 61  1  0
 56 57  1  0
 57 59  1  0
 57 60  1  0
 58 57  1  0
 61 62  1  0
 62 71  1  0
 63 69  1  0
 63 71  1  0
 64 69  1  0
 65 66  1  0
 65 64  1  0
 67 66  1  0
 67 76  1  0
 67 68  1  0
 69 68  1  0
 70 63  2  0
 71 72  1  0
 73 98  1  0
 73 74  2  0
 74 93  1  0
 75 78  1  0
 75 74  1  0
 76 77  1  0
 76 73  1  0
 77 75  2  0
 78 79  1  0
 79 80  2  0
 81 80  1  0
 82 81  2  0
 83 82  1  0
 83 78  2  0
 84 81  1  0
 84 85  1  0
 85 86  1  0
 86 87  2  0
 88 87  1  0
 88 92  1  0
 89 88  2  0
 90 85  2  0
 90 89  1  0
 91 90  1  0
 93 94  1  0
 94 96  1  0
 94 97  1  0
 95 93  2  0
 98 99  1  0
100 98  1  0
M  ISO  4  12 101  13 101  63 100  71 100
M  END
>  <TORSDO>  (36) 
F 26

>  <SCORE>  (36) 
-6.974

>  <name>  (36) 
35

>  <ligand_id>  (36) 
35

>  <original_smiles>  (36) 
[H]c1c([H])c([H])c2c(c1[H])C([H])([H])C([H])([H])C([H])([H])C2([H])N([H])C(=O)C1([H])N(C(=O)C([H])(N([H])C(=O)C([H])(N([H])C([H])([H])[H])C([H])([H])[H])C(C([H])([H])[H])(C([H])([H])[H])C([H])([H])[H])C([H])([H])c2c([H])c(OC([H])([H])C([H])([H])C(=O)C3([H])N(C([H])([H])C([H])([H])C([H])(C([H])([H])C([H])([H])N([H])C(=O)N4C([H])([H])C([H])([H])C([H])([H])C([H])(n5nc(-c6c([H])c([H])c(Oc7c([H])c([H])c(F)c([H])c7F)c([H])c6[H])c(C(=O)N([H])[H])c5N([H])[H])C4([H])[H])[N+]([H])([H])[H])C([H])([H])C3([H])[N+]([H])([H])[H])c([H])c([H])c2C1([H])[H]

>  <smiles>  (36) 
[H]c1c([H])c([H])c2c(c1[H])C([H])([H])C([H])([H])C([H])([H])C2([H])N([H])C(=O)C1([H])N(C(=O)C([H])(N([H])C(=O)C([H])(N([H])C([H])([H])[H])C([H])([H])[H])C(C([H])([H])[H])(C([H])([H])[H])C([H])([H])[H])C([H])([H])c2c([H])c(OC([H])([H])C([H])([H])C(=O)C3([H])N(C([H])([H])C([H])([H])C([H])(C([H])([H])C([H])([H])N([H])C(=O)N4C([H])([H])C([H])([H])C([H])([H])C([H])(n5nc(-c6c([H])c([H])c(Oc7c([H])c([H])c(F)c([H])c7F)c([H])c6[H])c(C(=O)N([H])[H])c5N([H])[H])C4([H])[H])[N+]([H])([H])[H])C([H])([H])C3([H])[N+]([H])([H])[H])c([H])c([H])c2C1([H])[H]

$$$$
36:0:0
     RDKit          3D

100109  0  0  1  0  0  0  0  0999 V2000
  -30.5030  -19.5300   20.5440 C   0  0  0  0  0  0  0  0  0  0  0  0
  -31.6650  -19.6950   20.1690 O   0  0  0  0  0  0  0  0  0  0  0  0
  -29.1240  -21.6650   19.6570 C   0  0  0  0  0  2  0  0  0  0  0  0
  -29.5530  -20.7120   20.8060 C   0  0  0  0  0  3  0  0  0  0  0  0
  -29.2070  -22.7540   20.7430 C   0  0  0  0  0  3  0  0  0  0  0  0
  -30.2860  -21.8940   21.2780 N   0  0  0  0  0  4  0  0  0  0  0  0
  -31.1580  -21.9600   20.7750 H   0  0  0  0  0  0  0  0  0  0  0  0
  -30.4200  -21.9170   22.2760 H   0  0  0  0  0  0  0  0  0  0  0  0
  -29.8370  -24.9250   21.9010 C   0  0  0  0  0  1  0  0  0  0  0  0
  -29.5670  -24.2660   20.5310 C   0  0  0  0  0  3  0  0  0  0  0  0
  -28.4430  -25.0660   19.7900 C   0  0  0  0  0  2  0  0  0  0  0  0
  -28.5590  -26.5170   19.8530 O   0  0  0  0  0  0  0  0  0  0  0  0
  -24.6190  -31.5820   23.0130 C   0  0  0  0  0  0  0  0  0  0  0  0
  -27.3800  -27.2550   19.8300 C   0  0  0  0  0  0  0  0  0  0  0  0
  -23.4540  -30.1900   21.3330 C   0  0  0  0  0  3  0  0  0  0  0  0
  -24.9480  -28.7280   19.8710 C   0  0  0  0  0  0  0  0  0  0  0  0
  -25.9730  -30.6130   21.1520 C   0  0  0  0  0  2  0  0  0  0  0  0
  -26.0950  -29.2610   20.4710 C   0  0  0  0  0  0  0  0  0  0  0  0
  -27.3140  -28.5340   20.4430 C   0  0  0  0  0  3  0  0  0  0  0  0
  -26.2110  -26.7560   19.2090 C   0  0  0  0  0  3  0  0  0  0  0  0
  -25.0030  -27.4800   19.2310 C   0  0  0  0  0  3  0  0  0  0  0  0
  -23.6820  -29.5510   19.9380 C   0  0  0  0  0  2  0  0  0  0  0  0
  -24.7000  -30.8100   21.8900 N   0  0  0  0  0  0  0  0  0  0  0  0
  -23.5300  -31.8070   23.5590 O   0  0  0  0  0  0  0  0  0  0  0  0
  -22.8250  -29.1320   22.2710 C   0  0  0  0  0  0  0  0  0  0  0  0
  -21.5010  -28.9300   22.1490 N   0  0  0  0  0  0  0  0  0  0  0  0
  -23.5250  -28.4930   23.0600 O   0  0  0  0  0  0  0  0  0  0  0  0
  -20.9960  -29.4910   21.4770 H   0  0  0  0  0  0  0  0  0  0  0  0
  -18.1440  -27.6990   22.6970 C   0  0  0  0  0  0  0  0  0  0  0  0
  -20.7070  -27.9600   22.9040 C   0  0  0  0  0  3  0  0  0  0  0  0
  -20.7940  -26.5530   22.2700 C   0  0  0  0  0  2  0  0  0  0  0  0
  -19.6690  -26.2780   21.2690 C   0  0  0  0  0  2  0  0  0  0  0  0
  -18.3080  -26.3830   21.9560 C   0  0  0  0  0  2  0  0  0  0  0  0
  -19.2720  -28.4500   23.1270 C   0  0  0  0  0  0  0  0  0  0  0  0
  -19.0630  -29.6830   23.7800 C   0  0  0  0  0  3  0  0  0  0  0  0
  -17.7590  -30.1670   24.0080 C   0  0  0  0  0  3  0  0  0  0  0  0
  -16.6490  -29.4150   23.5930 C   0  0  0  0  0  3  0  0  0  0  0  0
  -16.8430  -28.1830   22.9420 C   0  0  0  0  0  3  0  0  0  0  0  0
  -25.8840  -32.2330   23.6540 C   0  0  0  0  0  3  0  0  0  0  0  0
  -26.4390  -31.4300   24.8940 C   0  0  1  0  0  0  0  0  0  0  0  0
  -25.3650  -31.1080   25.9580 C   0  0  0  0  0  1  0  0  0  0  0  0
  -27.0680  -30.0910   24.4410 C   0  0  0  0  0  1  0  0  0  0  0  0
  -27.5660  -32.2380   25.5800 C   0  0  0  0  0  1  0  0  0  0  0  0
  -25.5320  -33.6060   24.0380 N   0  0  0  0  0  0  0  0  0  0  0  0
  -25.8210  -34.6960   23.3140 C   0  0  0  0  0  0  0  0  0  0  0  0
  -26.4850  -34.6540   22.2740 O   0  0  0  0  0  0  0  0  0  0  0  0
  -24.9400  -33.7100   24.8490 H   0  0  0  0  0  0  0  0  0  0  0  0
  -24.0360  -36.4460   23.0310 C   0  0  0  0  0  1  0  0  0  0  0  0
  -25.2900  -36.0500   23.8270 C   0  0  0  0  0  3  0  0  0  0  0  0
  -27.3910  -36.9730   24.7010 C   0  0  0  0  0  1  0  0  0  0  0  0
  -26.2900  -37.1380   23.7550 N   0  0  0  0  0  0  0  0  0  0  0  0
  -25.8550  -38.0390   23.9290 H   0  0  0  0  0  0  0  0  0  0  0  0
  -28.6100  -17.8210   21.3410 C   0  0  0  0  0  2  0  0  0  0  0  0
  -29.8020  -17.7370   22.2490 C   0  0  0  0  0  2  0  0  0  0  0  0
  -30.0080  -18.0660   20.7740 C   0  0  2  0  0  0  0  0  0  0  0  0
  -30.5920  -16.9820   19.7950 C   0  0  0  0  0  3  0  0  0  0  0  0
  -31.2160  -14.4770   19.8860 C   0  0  0  0  0  0  0  0  0  0  0  0
  -30.8250  -12.2980   18.8030 C   0  0  0  0  0  2  0  0  0  0  0  0
  -29.8200  -12.5560   17.6570 C   0  0  0  0  0  2  0  0  0  0  0  0
  -28.3710  -12.4460   18.1720 C   0  0  0  0  0  2  0  0  0  0  0  0
  -28.1420  -13.2790   19.4600 C   0  0  0  0  0  3  0  0  0  0  0  0
  -29.2530  -13.0210   20.5050 C   0  0  0  0  0  2  0  0  0  0  0  0
  -30.5470  -13.2890   19.8550 N   0  0  0  0  0  0  0  0  0  0  0  0
  -32.3470  -14.6100   19.4040 O   0  0  0  0  0  0  0  0  0  0  0  0
  -30.4550  -15.5510   20.2280 N   0  0  0  0  0  0  0  0  0  0  0  0
  -29.5660  -15.3050   20.6390 H   0  0  0  0  0  0  0  0  0  0  0  0
  -25.8380  -13.9890   20.3530 C   0  0  0  0  0  0  0  0  0  0  0  0
  -24.7560  -13.2640   20.7690 C   0  0  0  0  0  0  0  0  0  0  0  0
  -25.1390  -11.8930   20.6670 C   0  0  0  0  0  0  0  0  0  0  0  0
  -26.8120  -13.0630   20.0210 N   0  0  0  0  0  0  0  0  0  0  0  0
  -26.4020  -11.7940   20.2710 N   0  0  0  0  0  0  0  0  0  0  0  0
  -24.3630  -10.6660   20.8680 C   0  0  0  0  0  0  0  0  0  0  0  0
  -24.7440   -9.6960   21.8220 C   0  0  0  0  0  3  0  0  0  0  0  0
  -23.9680   -8.5320   22.0080 C   0  0  0  0  0  3  0  0  0  0  0  0
  -22.7970   -8.3300   21.2380 C   0  0  0  0  0  0  0  0  0  0  0  0
  -22.4360   -9.2870   20.2720 C   0  0  0  0  0  3  0  0  0  0  0  0
  -23.2140  -10.4420   20.0860 C   0  0  0  0  0  3  0  0  0  0  0  0
  -21.9960   -7.2190   21.3290 O   0  0  0  0  0  0  0  0  0  0  0  0
  -21.8050   -6.5670   22.5190 C   0  0  0  0  0  0  0  0  0  0  0  0
  -21.2630   -7.2170   23.6500 C   0  0  0  0  0  3  0  0  0  0  0  0
  -21.0280   -6.4900   24.8330 C   0  0  0  0  0  3  0  0  0  0  0  0
  -21.3210   -5.1140   24.8860 C   0  0  0  0  0  0  0  0  0  0  0  0
  -21.8540   -4.4630   23.7580 C   0  0  0  0  0  3  0  0  0  0  0  0
  -22.0960   -5.1890   22.5780 C   0  0  0  0  0  0  0  0  0  0  0  0
  -22.5920   -4.5540   21.4890 F   0  0  0  0  0  0  0  0  0  0  0  0
  -21.0880   -4.4120   26.0190 F   0  0  0  0  0  0  0  0  0  0  0  0
  -23.4090  -13.8070   21.1530 C   0  0  0  0  0  0  0  0  0  0  0  0
  -22.7120  -13.1330   22.0600 N   0  0  0  0  0  0  0  0  0  0  0  0
  -22.9890  -14.8640   20.6790 O   0  0  0  0  0  0  0  0  0  0  0  0
  -23.0630  -12.2780   22.4660 H   0  0  0  0  0  0  0  0  0  0  0  0
  -21.8130  -13.4850   22.3640 H   0  0  0  0  0  0  0  0  0  0  0  0
  -26.0730  -15.3540   20.2140 N   0  0  0  0  0  0  0  0  0  0  0  0
  -25.3620  -16.0460   20.4220 H   0  0  0  0  0  0  0  0  0  0  0  0
  -26.9300  -15.7510   19.8550 H   0  0  0  0  0  0  0  0  0  0  0  0
  -29.9150  -17.1200   18.3930 C   0  0  0  0  0  2  0  0  0  0  0  0
  -30.4870  -18.2070   17.4510 C   0  0  0  0  0  2  0  0  0  0  0  0
  -29.6400  -18.4410   16.2620 N   0  0  0  0  0  4  0  0  0  0  0  0
  -29.5310  -17.6050   15.7140 H   0  0  0  0  0  0  0  0  0  0  0  0
  -30.0650  -19.1390   15.6740 H   0  0  0  0  0  0  0  0  0  0  0  0
  -28.7270  -18.7730   16.5170 H   0  0  0  0  0  0  0  0  0  0  0  0
  1 55  1  0
  2  1  2  0
  3  5  1  0
  3  4  1  0
  4  1  1  0
  4  6  1  0
  5 10  1  0
  5  6  1  0
  6  8  1  0
  7  6  1  0
 10  9  1  0
 11 12  1  0
 11 10  1  0
 13 24  2  0
 14 12  1  0
 14 19  1  0
 15 23  1  0
 15 25  1  0
 16 22  1  0
 16 18  1  0
 17 23  1  0
 18 17  1  0
 19 18  2  0
 20 21  1  0
 20 14  2  0
 21 16  2  0
 22 15  1  0
 23 13  1  0
 25 27  2  0
 26 25  1  0
 28 26  1  0
 29 38  2  0
 29 34  1  0
 30 26  1  0
 30 34  1  0
 31 30  1  0
 32 33  1  0
 32 31  1  0
 33 29  1  0
 34 35  2  0
 35 36  1  0
 37 36  2  0
 38 37  1  0
 39 13  1  0
 39 44  1  0
 39 40  1  0
 40 43  1  1
 40 41  1  0
 42 40  1  0
 44 47  1  0
 45 49  1  0
 45 44  1  0
 46 45  2  0
 49 48  1  0
 51 49  1  0
 51 52  1  0
 51 50  1  0
 53 54  1  0
 55 53  1  0
 55 54  1  0
 56 95  1  0
 56 65  1  0
 55 56  1  6
 57 65  1  0
 58 63  1  0
 59 60  1  0
 59 58  1  0
 61 60  1  0
 61 70  1  0
 61 62  1  0
 63 57  1  0
 63 62  1  0
 64 57  2  0
 65 66  1  0
 67 68  2  0
 68 87  1  0
 69 68  1  0
 69 72  1  0
 70 71  1  0
 70 67  1  0
 71 69  2  0
 72 73  1  0
 73 74  2  0
 75 78  1  0
 75 74  1  0
 76 75  2  0
 77 76  1  0
 77 72  2  0
 78 79  1  0
 79 84  2  0
 79 80  1  0
 80 81  2  0
 81 82  1  0
 82 86  1  0
 83 82  2  0
 84 83  1  0
 85 84  1  0
 87 88  1  0
 88 91  1  0
 88 90  1  0
 89 87  2  0
 92 67  1  0
 92 93  1  0
 94 92  1  0
 96 95  1  0
 97100  1  0
 97 96  1  0
 98 97  1  0
 99 97  1  0
M  ISO  4  11 101  12 101  57 100  65 100
M  END
>  <TORSDO>  (37) 
F 24

>  <SCORE>  (37) 
-10.756

>  <name>  (37) 
36

>  <ligand_id>  (37) 
36

>  <original_smiles>  (37) 
[H]c1c([H])c([H])c2c(c1[H])C([H])([H])C([H])([H])C([H])([H])C2([H])N([H])C(=O)C1([H])N(C(=O)C([H])(N([H])C(=O)C([H])(N([H])C([H])([H])[H])C([H])([H])[H])C(C([H])([H])[H])(C([H])([H])[H])C([H])([H])[H])C([H])([H])c2c([H])c(OC([H])([H])C([H])(C([H])([H])[H])C3([H])C([H])([H])C([H])(C(=O)C4(C([H])(N([H])C(=O)N5C([H])([H])C([H])([H])C([H])([H])C([H])(n6nc(-c7c([H])c([H])c(Oc8c([H])c([H])c(F)c([H])c8F)c([H])c7[H])c(C(=O)N([H])[H])c6N([H])[H])C5([H])[H])C([H])([H])C([H])([H])[N+]([H])([H])[H])C([H])([H])C4([H])[H])[N+]3([H])[H])c([H])c([H])c2C1([H])[H]

>  <smiles>  (37) 
[H]c1c([H])c([H])c2c(c1[H])C([H])([H])C([H])([H])C([H])([H])C2([H])N([H])C(=O)C1([H])N(C(=O)C([H])(N([H])C(=O)C([H])(N([H])C([H])([H])[H])C([H])([H])[H])C(C([H])([H])[H])(C([H])([H])[H])C([H])([H])[H])C([H])([H])c2c([H])c(OC([H])([H])C([H])(C([H])([H])[H])C3([H])C([H])([H])C([H])(C(=O)C4(C([H])(N([H])C(=O)N5C([H])([H])C([H])([H])C([H])([H])C([H])(n6nc(-c7c([H])c([H])c(Oc8c([H])c([H])c(F)c([H])c8F)c([H])c7[H])c(C(=O)N([H])[H])c6N([H])[H])C5([H])[H])C([H])([H])C([H])([H])[N+]([H])([H])[H])C([H])([H])C4([H])[H])[N+]3([H])[H])c([H])c([H])c2C1([H])[H]

$$$$
37:0:0
     RDKit          3D

103111  0  0  1  0  0  0  0  0999 V2000
  -29.7700  -21.8650   20.6840 C   0  0  0  0  0  2  0  0  0  0  0  0
  -28.2820  -22.4740   19.0210 C   0  0  0  0  0  2  0  0  0  0  0  0
  -29.0020  -20.5620   20.3610 C   0  0  0  0  0  3  0  0  0  0  0  0
  -28.2030  -20.9380   19.0860 C   0  0  0  0  0  3  0  0  0  0  0  0
  -28.8070  -22.9070   20.3170 N   0  0  0  0  0  0  0  0  0  0  0  0
  -28.7290  -20.3380   17.8460 N   0  0  0  0  0  4  0  0  0  0  0  0
  -29.6960  -20.5750   17.7130 H   0  0  0  0  0  0  0  0  0  0  0  0
  -28.2080  -20.6750   17.0550 H   0  0  0  0  0  0  0  0  0  0  0  0
  -28.6280  -19.3420   17.8750 H   0  0  0  0  0  0  0  0  0  0  0  0
  -29.4610  -18.0890   20.3950 C   0  0  0  0  0  0  0  0  0  0  0  0
  -29.8610  -19.3670   20.2360 N   0  0  0  0  0  0  0  0  0  0  0  0
  -28.3190  -17.7920   20.7530 O   0  0  0  0  0  0  0  0  0  0  0  0
  -30.8330  -19.5220   19.9990 H   0  0  0  0  0  0  0  0  0  0  0  0
  -30.4480  -16.9730   19.9920 C   0  0  0  0  0  3  0  0  0  0  0  0
  -30.7330  -14.5210   20.4650 C   0  0  0  0  0  0  0  0  0  0  0  0
  -30.4170  -12.3560   19.3720 C   0  0  0  0  0  2  0  0  0  0  0  0
  -29.5060  -12.5810   18.1480 C   0  0  0  0  0  2  0  0  0  0  0  0
  -28.0200  -12.4640   18.5460 C   0  0  0  0  0  2  0  0  0  0  0  0
  -27.6610  -13.2990   19.8070 C   0  0  0  0  0  3  0  0  0  0  0  0
  -28.7020  -13.1050   20.9340 C   0  0  0  0  0  2  0  0  0  0  0  0
  -30.0350  -13.3600   20.3740 N   0  0  0  0  0  0  0  0  0  0  0  0
  -31.9400  -14.5900   20.2500 O   0  0  0  0  0  0  0  0  0  0  0  0
  -29.9870  -15.6400   20.4400 N   0  0  0  0  0  0  0  0  0  0  0  0
  -28.9960  -15.5590   20.6130 H   0  0  0  0  0  0  0  0  0  0  0  0
  -25.2480  -13.9070   20.4510 C   0  0  0  0  0  0  0  0  0  0  0  0
  -24.1740  -13.1380   20.8070 C   0  0  0  0  0  0  0  0  0  0  0  0
  -24.6400  -11.7870   20.8130 C   0  0  0  0  0  0  0  0  0  0  0  0
  -26.3020  -13.0260   20.2640 N   0  0  0  0  0  0  0  0  0  0  0  0
  -25.9380  -11.7470   20.5400 N   0  0  0  0  0  0  0  0  0  0  0  0
  -23.9120  -10.5260   21.0050 C   0  0  0  0  0  0  0  0  0  0  0  0
  -24.3260   -9.5720   21.9610 C   0  0  0  0  0  3  0  0  0  0  0  0
  -23.6010   -8.3760   22.1400 C   0  0  0  0  0  3  0  0  0  0  0  0
  -22.4440   -8.1240   21.3630 C   0  0  0  0  0  0  0  0  0  0  0  0
  -22.0480   -9.0660   20.3990 C   0  0  0  0  0  3  0  0  0  0  0  0
  -22.7740  -10.2560   20.2190 C   0  0  0  0  0  3  0  0  0  0  0  0
  -21.6910   -6.9790   21.4500 O   0  0  0  0  0  0  0  0  0  0  0  0
  -21.6210   -6.2500   22.6100 C   0  0  0  0  0  0  0  0  0  0  0  0
  -21.1720   -6.8180   23.8210 C   0  0  0  0  0  3  0  0  0  0  0  0
  -21.0500   -6.0150   24.9730 C   0  0  0  0  0  3  0  0  0  0  0  0
  -21.3670   -4.6460   24.9150 C   0  0  0  0  0  0  0  0  0  0  0  0
  -21.8100   -4.0770   23.7060 C   0  0  0  0  0  3  0  0  0  0  0  0
  -21.9330   -4.8770   22.5570 C   0  0  0  0  0  0  0  0  0  0  0  0
  -22.3400   -4.3200   21.3920 F   0  0  0  0  0  0  0  0  0  0  0  0
  -21.2430   -3.8720   26.0190 F   0  0  0  0  0  0  0  0  0  0  0  0
  -22.7690  -13.6160   21.0320 C   0  0  0  0  0  0  0  0  0  0  0  0
  -22.0180  -12.9370   21.8930 N   0  0  0  0  0  0  0  0  0  0  0  0
  -22.3400  -14.6280   20.4790 O   0  0  0  0  0  0  0  0  0  0  0  0
  -22.3680  -12.1170   22.3680 H   0  0  0  0  0  0  0  0  0  0  0  0
  -21.0730  -13.2420   22.0830 H   0  0  0  0  0  0  0  0  0  0  0  0
  -25.4090  -15.2770   20.2510 N   0  0  0  0  0  0  0  0  0  0  0  0
  -24.6340  -15.9230   20.3430 H   0  0  0  0  0  0  0  0  0  0  0  0
  -26.2680  -15.7340   19.9710 H   0  0  0  0  0  0  0  0  0  0  0  0
  -30.6710  -17.0060   18.4480 C   0  0  0  0  0  2  0  0  0  0  0  0
  -32.0180  -16.4630   17.9300 C   0  0  0  0  0  2  0  0  0  0  0  0
  -32.3430  -16.9370   16.5010 C   0  0  0  0  0  2  0  0  0  0  0  0
  -33.7270  -16.4860   15.9920 C   0  0  0  0  0  2  0  0  0  0  0  0
  -33.8130  -15.0290   15.7850 N   0  0  0  0  0  4  0  0  0  0  0  0
  -33.6910  -14.5330   16.6490 H   0  0  0  0  0  0  0  0  0  0  0  0
  -34.7180  -14.7930   15.4210 H   0  0  0  0  0  0  0  0  0  0  0  0
  -33.1210  -14.7170   15.1270 H   0  0  0  0  0  0  0  0  0  0  0  0
  -29.2990  -24.3000   20.3480 C   0  0  0  0  0  2  0  0  0  0  0  0
  -28.1780  -25.2760   19.8990 C   0  0  0  0  0  2  0  0  0  0  0  0
  -28.3600  -26.6820   20.1520 O   0  0  0  0  0  0  0  0  0  0  0  0
  -24.5810  -31.8920   23.2260 C   0  0  0  0  0  0  0  0  0  0  0  0
  -27.2010  -27.4470   20.1140 C   0  0  0  0  0  0  0  0  0  0  0  0
  -23.3620  -30.4920   21.5970 C   0  0  0  0  0  3  0  0  0  0  0  0
  -24.8060  -28.9690   20.1510 C   0  0  0  0  0  0  0  0  0  0  0  0
  -25.8890  -30.8520   21.3770 C   0  0  0  0  0  2  0  0  0  0  0  0
  -25.9700  -29.4830   20.7320 C   0  0  0  0  0  0  0  0  0  0  0  0
  -27.1700  -28.7290   20.7160 C   0  0  0  0  0  3  0  0  0  0  0  0
  -26.0130  -26.9720   19.5030 C   0  0  0  0  0  3  0  0  0  0  0  0
  -24.8220  -27.7130   19.5320 C   0  0  0  0  0  3  0  0  0  0  0  0
  -23.5580  -29.8210   20.2130 C   0  0  0  0  0  2  0  0  0  0  0  0
  -24.6310  -31.0920   22.1250 N   0  0  0  0  0  0  0  0  0  0  0  0
  -23.5050  -32.1630   23.7740 O   0  0  0  0  0  0  0  0  0  0  0  0
  -22.7230  -29.4650   22.5600 C   0  0  0  0  0  0  0  0  0  0  0  0
  -21.3980  -29.2780   22.4430 N   0  0  0  0  0  0  0  0  0  0  0  0
  -23.4140  -28.8400   23.3680 O   0  0  0  0  0  0  0  0  0  0  0  0
  -20.8990  -29.8340   21.7630 H   0  0  0  0  0  0  0  0  0  0  0  0
  -18.0330  -28.0720   22.9660 C   0  0  0  0  0  0  0  0  0  0  0  0
  -20.5910  -28.3380   23.2200 C   0  0  0  0  0  3  0  0  0  0  0  0
  -20.6940  -26.9060   22.6440 C   0  0  0  0  0  2  0  0  0  0  0  0
  -19.5840  -26.5810   21.6380 C   0  0  0  0  0  2  0  0  0  0  0  0
  -18.2070  -26.7230   22.2910 C   0  0  0  0  0  2  0  0  0  0  0  0
  -19.1520  -28.8370   23.3890 C   0  0  0  0  0  0  0  0  0  0  0  0
  -18.9340  -30.1020   23.9790 C   0  0  0  0  0  3  0  0  0  0  0  0
  -17.6290  -30.6000   24.1510 C   0  0  0  0  0  3  0  0  0  0  0  0
  -16.5230  -29.8320   23.7460 C   0  0  0  0  0  3  0  0  0  0  0  0
  -16.7260  -28.5690   23.1610 C   0  0  0  0  0  3  0  0  0  0  0  0
  -25.8700  -32.5270   23.8330 C   0  0  0  0  0  3  0  0  0  0  0  0
  -26.4040  -31.7540   25.0990 C   0  0  1  0  0  0  0  0  0  0  0  0
  -25.3230  -31.5090   26.1780 C   0  0  0  0  0  1  0  0  0  0  0  0
  -26.9860  -30.3790   24.6970 C   0  0  0  0  0  1  0  0  0  0  0  0
  -27.5600  -32.5500   25.7490 C   0  0  0  0  0  1  0  0  0  0  0  0
  -25.5590  -33.9240   24.1650 N   0  0  0  0  0  0  0  0  0  0  0  0
  -25.8840  -34.9760   23.4030 C   0  0  0  0  0  0  0  0  0  0  0  0
  -26.5460  -34.8740   22.3670 O   0  0  0  0  0  0  0  0  0  0  0  0
  -24.9670  -34.0760   24.9670 H   0  0  0  0  0  0  0  0  0  0  0  0
  -24.1500  -36.7630   23.0580 C   0  0  0  0  0  1  0  0  0  0  0  0
  -25.3960  -36.3620   23.8640 C   0  0  0  0  0  3  0  0  0  0  0  0
  -27.5350  -37.2470   24.6830 C   0  0  0  0  0  1  0  0  0  0  0  0
  -26.4250  -37.4180   23.7500 N   0  0  0  0  0  0  0  0  0  0  0  0
  -26.0180  -38.3350   23.9070 H   0  0  0  0  0  0  0  0  0  0  0  0
  2  4  1  0
  2  5  1  0
  3 11  1  0
  3  1  1  0
  4  6  1  0
  4  3  1  0
  5 61  1  0
  5  1  1  0
  6  9  1  0
  7  6  1  0
  8  6  1  0
 10 12  2  0
 11 10  1  0
 13 11  1  0
 14 53  1  0
 14 10  1  0
 14 23  1  0
 16 21  1  0
 17 18  1  0
 17 16  1  0
 19 18  1  0
 19 28  1  0
 19 20  1  0
 21 15  1  0
 21 20  1  0
 22 15  2  0
 23 15  1  0
 23 24  1  0
 25 26  2  0
 26 27  1  0
 26 45  1  0
 27 30  1  0
 28 25  1  0
 28 29  1  0
 29 27  2  0
 30 31  1  0
 31 32  2  0
 33 36  1  0
 33 32  1  0
 34 33  2  0
 35 34  1  0
 35 30  2  0
 36 37  1  0
 37 38  1  0
 38 39  2  0
 40 39  1  0
 40 44  1  0
 41 40  2  0
 42 37  2  0
 42 41  1  0
 43 42  1  0
 45 46  1  0
 46 49  1  0
 46 48  1  0
 47 45  2  0
 50 51  1  0
 50 25  1  0
 52 50  1  0
 54 53  1  0
 55 54  1  0
 56 55  1  0
 57 56  1  0
 57 58  1  0
 59 57  1  0
 60 57  1  0
 62 63  1  0
 62 61  1  0
 64 75  2  0
 65 63  1  0
 65 70  1  0
 66 74  1  0
 66 76  1  0
 67 73  1  0
 67 69  1  0
 68 74  1  0
 69 68  1  0
 70 69  2  0
 71 72  1  0
 71 65  2  0
 72 67  2  0
 73 66  1  0
 74 64  1  0
 76 78  2  0
 77 76  1  0
 79 77  1  0
 80 89  2  0
 80 85  1  0
 81 77  1  0
 81 85  1  0
 82 81  1  0
 83 84  1  0
 83 82  1  0
 84 80  1  0
 85 86  2  0
 86 87  1  0
 88 87  2  0
 89 88  1  0
 90 64  1  0
 90 95  1  0
 90 91  1  0
 91 94  1  1
 91 92  1  0
 93 91  1  0
 95 98  1  0
 96100  1  0
 96 95  1  0
 97 96  2  0
100 99  1  0
102100  1  0
102103  1  0
102101  1  0
M  ISO  4  15 100  23 100  62 101  63 101
M  END
>  <TORSDO>  (38) 
F 26

>  <SCORE>  (38) 
-12.436

>  <name>  (38) 
37

>  <ligand_id>  (38) 
37

>  <original_smiles>  (38) 
[H]c1c([H])c([H])c2c(c1[H])C([H])([H])C([H])([H])C([H])([H])C2([H])N([H])C(=O)C1([H])N(C(=O)C([H])(N([H])C(=O)C([H])(N([H])C([H])([H])[H])C([H])([H])[H])C(C([H])([H])[H])(C([H])([H])[H])C([H])([H])[H])C([H])([H])c2c([H])c(OC([H])([H])C([H])([H])N3C([H])([H])C([H])(N([H])C(=O)C([H])(N([H])C(=O)N4C([H])([H])C([H])([H])C([H])([H])C([H])(n5nc(-c6c([H])c([H])c(Oc7c([H])c([H])c(F)c([H])c7F)c([H])c6[H])c(C(=O)N([H])[H])c5N([H])[H])C4([H])[H])C([H])([H])C([H])([H])C([H])([H])C([H])([H])[N+]([H])([H])[H])C([H])([N+]([H])([H])[H])C3([H])[H])c([H])c([H])c2C1([H])[H]

>  <smiles>  (38) 
[H]c1c([H])c([H])c2c(c1[H])C([H])([H])C([H])([H])C([H])([H])C2([H])N([H])C(=O)C1([H])N(C(=O)C([H])(N([H])C(=O)C([H])(N([H])C([H])([H])[H])C([H])([H])[H])C(C([H])([H])[H])(C([H])([H])[H])C([H])([H])[H])C([H])([H])c2c([H])c(OC([H])([H])C([H])([H])N3C([H])([H])C([H])(N([H])C(=O)C([H])(N([H])C(=O)N4C([H])([H])C([H])([H])C([H])([H])C([H])(n5nc(-c6c([H])c([H])c(Oc7c([H])c([H])c(F)c([H])c7F)c([H])c6[H])c(C(=O)N([H])[H])c5N([H])[H])C4([H])[H])C([H])([H])C([H])([H])C([H])([H])C([H])([H])[N+]([H])([H])[H])C([H])([N+]([H])([H])[H])C3([H])[H])c([H])c([H])c2C1([H])[H]

$$$$
38:0:0
     RDKit          3D

 93101  0  0  1  0  0  0  0  0999 V2000
  -29.8200  -21.4400   20.8210 C   0  0  0  0  0  3  0  0  0  0  0  0
  -29.4080  -18.5720   20.8900 C   0  0  0  0  0  0  0  0  0  0  0  0
  -30.9260  -18.9610   19.5450 C   0  0  0  0  0  2  0  0  0  0  0  0
  -30.3300  -19.8610   20.7060 C   0  0  0  0  0  3  0  0  0  0  0  0
  -30.5940  -17.6350   20.4020 C   0  0  0  0  0  3  0  0  0  0  0  0
  -28.2240  -18.3770   21.1690 O   0  0  0  0  0  0  0  0  0  0  0  0
  -30.9790  -15.0780   19.8620 C   0  0  0  0  0  0  0  0  0  0  0  0
  -30.7280  -12.7530   18.9550 C   0  0  0  0  0  2  0  0  0  0  0  0
  -29.7350  -12.7330   17.7730 C   0  0  0  0  0  2  0  0  0  0  0  0
  -28.2810  -12.6080   18.2740 C   0  0  0  0  0  2  0  0  0  0  0  0
  -27.9580  -13.5350   19.4770 C   0  0  0  0  0  3  0  0  0  0  0  0
  -29.0740  -13.5210   20.5420 C   0  0  0  0  0  2  0  0  0  0  0  0
  -30.3270  -13.8590   19.8550 N   0  0  0  0  0  0  0  0  0  0  0  0
  -32.1980  -15.1040   19.6730 O   0  0  0  0  0  0  0  0  0  0  0  0
  -29.6370  -16.5140   18.4430 C   0  0  0  0  0  1  0  0  0  0  0  0
  -30.2370  -16.2690   19.7630 N   0  0  0  0  0  0  0  0  0  0  0  0
  -25.6480  -14.1730   20.3760 C   0  0  0  0  0  0  0  0  0  0  0  0
  -24.5750  -13.4180   20.7640 C   0  0  0  0  0  0  0  0  0  0  0  0
  -24.9870  -12.0560   20.6490 C   0  0  0  0  0  0  0  0  0  0  0  0
  -26.6430  -13.2670   20.0430 N   0  0  0  0  0  0  0  0  0  0  0  0
  -26.2580  -11.9870   20.2720 N   0  0  0  0  0  0  0  0  0  0  0  0
  -24.2280  -10.8120   20.8180 C   0  0  0  0  0  0  0  0  0  0  0  0
  -24.6360   -9.8180   21.7340 C   0  0  0  0  0  3  0  0  0  0  0  0
  -23.8780   -8.6380   21.8950 C   0  0  0  0  0  3  0  0  0  0  0  0
  -22.6980   -8.4450   21.1380 C   0  0  0  0  0  0  0  0  0  0  0  0
  -22.3090   -9.4270   20.2110 C   0  0  0  0  0  3  0  0  0  0  0  0
  -23.0670  -10.5990   20.0480 C   0  0  0  0  0  3  0  0  0  0  0  0
  -21.9120   -7.3200   21.2090 O   0  0  0  0  0  0  0  0  0  0  0  0
  -21.7880   -6.6020   22.3710 C   0  0  0  0  0  0  0  0  0  0  0  0
  -21.3010   -7.1870   23.5610 C   0  0  0  0  0  3  0  0  0  0  0  0
  -21.1240   -6.3940   24.7130 C   0  0  0  0  0  3  0  0  0  0  0  0
  -21.4230   -5.0190   24.6760 C   0  0  0  0  0  0  0  0  0  0  0  0
  -21.9040   -4.4350   23.4900 C   0  0  0  0  0  3  0  0  0  0  0  0
  -22.0830   -5.2240   22.3400 C   0  0  0  0  0  0  0  0  0  0  0  0
  -22.5250   -4.6520   21.1950 F   0  0  0  0  0  0  0  0  0  0  0  0
  -21.2470   -4.2560   25.7790 F   0  0  0  0  0  0  0  0  0  0  0  0
  -23.2120  -13.9300   21.1290 C   0  0  0  0  0  0  0  0  0  0  0  0
  -22.5110  -13.2290   22.0120 N   0  0  0  0  0  0  0  0  0  0  0  0
  -22.7800  -14.9860   20.6670 O   0  0  0  0  0  0  0  0  0  0  0  0
  -22.8730  -12.3750   22.4070 H   0  0  0  0  0  0  0  0  0  0  0  0
  -21.5980  -13.5540   22.2990 H   0  0  0  0  0  0  0  0  0  0  0  0
  -25.8560  -15.5430   20.2580 N   0  0  0  0  0  0  0  0  0  0  0  0
  -25.1360  -16.2220   20.4830 H   0  0  0  0  0  0  0  0  0  0  0  0
  -26.7340  -15.9730   19.9960 H   0  0  0  0  0  0  0  0  0  0  0  0
  -30.4930  -21.5240   23.3310 C   0  0  0  0  0  1  0  0  0  0  0  0
  -28.9570  -23.2510   22.5030 C   0  0  0  0  0  1  0  0  0  0  0  0
  -29.3740  -21.7830   22.2890 C   0  0  0  0  0  3  0  0  0  0  0  0
  -29.1130  -22.2510   19.5840 C   0  0  0  0  0  2  0  0  0  0  0  0
  -26.7530  -23.2350   19.8460 C   0  0  0  0  0  1  0  0  0  0  0  0
  -28.2050  -23.9790   17.9770 C   0  0  0  0  0  1  0  0  0  0  0  0
  -28.2010  -23.6510   19.4880 C   0  0  2  0  0  0  0  0  0  0  0  0
  -28.5470  -25.1090   20.1770 C   0  0  0  0  0  2  0  0  0  0  0  0
  -28.4020  -26.4750   19.5300 O   0  0  0  0  0  0  0  0  0  0  0  0
  -24.6610  -31.6940   23.0210 C   0  0  0  0  0  0  0  0  0  0  0  0
  -27.2590  -27.3010   19.6610 C   0  0  0  0  0  0  0  0  0  0  0  0
  -23.4330  -30.3500   21.3550 C   0  0  0  0  0  3  0  0  0  0  0  0
  -24.8650  -28.8950   19.8070 C   0  0  0  0  0  0  0  0  0  0  0  0
  -25.9600  -30.7230   21.1020 C   0  0  0  0  0  2  0  0  0  0  0  0
  -26.0460  -29.3720   20.3900 C   0  0  0  0  0  0  0  0  0  0  0  0
  -27.2450  -28.5900   20.3000 C   0  0  0  0  0  3  0  0  0  0  0  0
  -26.0550  -26.8990   19.0490 C   0  0  0  0  0  3  0  0  0  0  0  0
  -24.8740  -27.6680   19.1250 C   0  0  0  0  0  3  0  0  0  0  0  0
  -23.6140  -29.7460   19.9370 C   0  0  0  0  0  2  0  0  0  0  0  0
  -24.7050  -30.9400   21.8830 N   0  0  0  0  0  0  0  0  0  0  0  0
  -23.5900  -31.9180   23.6060 O   0  0  0  0  0  0  0  0  0  0  0  0
  -22.8240  -29.2740   22.2860 C   0  0  0  0  0  0  0  0  0  0  0  0
  -21.5020  -29.0580   22.1830 N   0  0  0  0  0  0  0  0  0  0  0  0
  -23.5420  -28.6370   23.0620 O   0  0  0  0  0  0  0  0  0  0  0  0
  -20.9780  -29.6250   21.5310 H   0  0  0  0  0  0  0  0  0  0  0  0
  -18.1850  -27.7020   22.6890 C   0  0  0  0  0  0  0  0  0  0  0  0
  -20.7340  -28.0580   22.9310 C   0  0  0  0  0  3  0  0  0  0  0  0
  -20.8860  -26.6550   22.3000 C   0  0  0  0  0  2  0  0  0  0  0  0
  -19.7810  -26.3240   21.2920 C   0  0  0  0  0  2  0  0  0  0  0  0
  -18.4050  -26.3870   21.9600 C   0  0  0  0  0  2  0  0  0  0  0  0
  -19.2780  -28.4930   23.1310 C   0  0  0  0  0  0  0  0  0  0  0  0
  -19.0160  -29.7220   23.7750 C   0  0  0  0  0  3  0  0  0  0  0  0
  -17.6940  -30.1610   23.9800 C   0  0  0  0  0  3  0  0  0  0  0  0
  -16.6160  -29.3660   23.5550 C   0  0  0  0  0  3  0  0  0  0  0  0
  -16.8620  -28.1380   22.9160 C   0  0  0  0  0  3  0  0  0  0  0  0
  -25.9490  -32.3270   23.6320 C   0  0  0  0  0  3  0  0  0  0  0  0
  -25.6200  -33.7010   24.0390 N   0  0  0  0  0  0  0  0  0  0  0  0
  -25.9220  -34.7980   23.3330 C   0  0  0  0  0  0  0  0  0  0  0  0
  -26.5760  -34.7610   22.2860 O   0  0  0  0  0  0  0  0  0  0  0  0
  -25.0380  -33.8030   24.8570 H   0  0  0  0  0  0  0  0  0  0  0  0
  -24.1610  -36.5810   23.1040 C   0  0  0  0  0  1  0  0  0  0  0  0
  -25.4210  -36.1530   23.8720 C   0  0  0  0  0  3  0  0  0  0  0  0
  -27.5510  -37.0310   24.7210 C   0  0  0  0  0  1  0  0  0  0  0  0
  -26.4350  -37.2280   23.8000 N   0  0  0  0  0  0  0  0  0  0  0  0
  -26.0160  -38.1330   23.9990 H   0  0  0  0  0  0  0  0  0  0  0  0
  -26.5220  -31.5100   24.8560 C   0  0  1  0  0  0  0  0  0  0  0  0
  -25.4700  -31.2050   25.9480 C   0  0  0  0  0  1  0  0  0  0  0  0
  -27.1160  -30.1620   24.3860 C   0  0  0  0  0  1  0  0  0  0  0  0
  -27.6810  -32.2970   25.5140 C   0  0  0  0  0  1  0  0  0  0  0  0
  1 48  1  0
  1 47  1  0
  2  6  2  0
  3  5  1  0
  3  4  1  0
  4  1  1  0
  4  2  1  0
  5 16  1  0
  5  2  1  0
  8 13  1  0
  9 10  1  0
  9  8  1  0
 11 10  1  0
 11 20  1  0
 11 12  1  0
 13  7  1  0
 13 12  1  0
 14  7  2  0
 15 16  1  0
 16  7  1  0
 17 18  2  0
 18 37  1  0
 19 18  1  0
 19 22  1  0
 20 21  1  0
 20 17  1  0
 21 19  2  0
 22 23  1  0
 23 24  2  0
 25 28  1  0
 25 24  1  0
 26 25  2  0
 27 26  1  0
 27 22  2  0
 28 29  1  0
 29 30  1  0
 30 31  2  0
 32 31  1  0
 32 36  1  0
 33 32  2  0
 34 29  2  0
 34 33  1  0
 35 34  1  0
 37 38  1  0
 38 41  1  0
 38 40  1  0
 39 37  2  0
 42 17  1  0
 42 43  1  0
 44 42  1  0
 47 46  1  0
 47 45  1  0
 51 50  1  6
 51 48  1  0
 51 49  1  0
 51 52  1  0
 53 55  1  0
 53 52  1  0
 54 65  2  0
 55 60  1  0
 56 64  1  0
 56 66  1  0
 57 63  1  0
 57 59  1  0
 58 64  1  0
 59 58  1  0
 60 59  2  0
 61 62  1  0
 61 55  2  0
 62 57  2  0
 63 56  1  0
 64 54  1  0
 66 68  2  0
 67 66  1  0
 69 67  1  0
 70 79  2  0
 70 75  1  0
 71 67  1  0
 71 75  1  0
 72 71  1  0
 73 74  1  0
 73 72  1  0
 74 70  1  0
 75 76  2  0
 76 77  1  0
 78 77  2  0
 79 78  1  0
 80 54  1  0
 80 81  1  0
 80 90  1  0
 81 84  1  0
 82 86  1  0
 82 81  1  0
 83 82  2  0
 86 85  1  0
 88 86  1  0
 88 89  1  0
 88 87  1  0
 90 93  1  1
 90 91  1  0
 92 90  1  0
M  ISO  4   7 100  16 100  52 101  53 101
M  END
>  <TORSDO>  (39) 
F 21

>  <SCORE>  (39) 
-12.306

>  <name>  (39) 
38

>  <ligand_id>  (39) 
38

>  <original_smiles>  (39) 
[H]c1c([H])c([H])c2c(c1[H])C([H])([H])C([H])([H])C([H])([H])C2([H])N([H])C(=O)C1([H])N(C(=O)C([H])(N([H])C(=O)C([H])(N([H])C([H])([H])[H])C([H])([H])[H])C(C([H])([H])[H])(C([H])([H])[H])C([H])([H])[H])C([H])([H])c2c([H])c(OC([H])([H])C(C([H])([H])[H])(C([H])([H])[H])C([H])([H])C([H])(C3([H])C(=O)C([H])(N(C(=O)N4C([H])([H])C([H])([H])C([H])([H])C([H])(n5nc(-c6c([H])c([H])c(Oc7c([H])c([H])c(F)c([H])c7F)c([H])c6[H])c(C(=O)N([H])[H])c5N([H])[H])C4([H])[H])C([H])([H])[H])C3([H])[H])C([H])(C([H])([H])[H])C([H])([H])[H])c([H])c([H])c2C1([H])[H]

>  <smiles>  (39) 
[H]c1c([H])c([H])c2c(c1[H])C([H])([H])C([H])([H])C([H])([H])C2([H])N([H])C(=O)C1([H])N(C(=O)C([H])(N([H])C(=O)C([H])(N([H])C([H])([H])[H])C([H])([H])[H])C(C([H])([H])[H])(C([H])([H])[H])C([H])([H])[H])C([H])([H])c2c([H])c(OC([H])([H])C(C([H])([H])[H])(C([H])([H])[H])C([H])([H])C([H])(C3([H])C(=O)C([H])(N(C(=O)N4C([H])([H])C([H])([H])C([H])([H])C([H])(n5nc(-c6c([H])c([H])c(Oc7c([H])c([H])c(F)c([H])c7F)c([H])c6[H])c(C(=O)N([H])[H])c5N([H])[H])C4([H])[H])C([H])([H])[H])C3([H])[H])C([H])(C([H])([H])[H])C([H])([H])[H])c([H])c([H])c2C1([H])[H]

$$$$
39:0:0
     RDKit          3D

 94102  0  0  1  0  0  0  0  0999 V2000
  -30.1440  -21.7740   23.9450 C   0  0  0  0  0  0  0  0  0  0  0  0
  -29.6370  -20.3340   23.8630 C   0  0  0  0  0  2  0  0  0  0  0  0
  -30.2220  -21.8190   22.4160 C   0  0  0  0  0  3  0  0  0  0  0  0
  -29.8530  -20.3890   22.3950 N   0  0  1  0  0  4  0  0  0  0  0  0
  -30.3960  -22.5660   24.8590 O   0  0  0  0  0  0  0  0  0  0  0  0
  -28.9910  -20.2830   21.8820 H   0  0  0  0  0  0  0  0  0  0  0  0
  -29.4960  -24.0870   21.7030 C   0  0  0  0  0  3  0  0  0  0  0  0
  -29.1870  -22.7780   21.8150 C   0  0  0  0  0  0  0  0  0  0  0  0
  -27.8610  -22.1760   21.3470 C   0  0  0  0  0  1  0  0  0  0  0  0
  -28.6590  -25.2100   21.1100 C   0  0  0  0  0  2  0  0  0  0  0  0
  -29.4540  -26.0550   20.0900 C   0  0  0  0  0  2  0  0  0  0  0  0
  -29.2460  -27.4480   20.3000 O   0  0  0  0  0  0  0  0  0  0  0  0
  -24.6070  -31.8630   23.3220 C   0  0  0  0  0  0  0  0  0  0  0  0
  -27.9680  -27.9590   20.2380 C   0  0  0  0  0  0  0  0  0  0  0  0
  -23.6840  -30.4170   21.5410 C   0  0  0  0  0  3  0  0  0  0  0  0
  -25.4020  -29.1410   20.1540 C   0  0  0  0  0  0  0  0  0  0  0  0
  -26.1490  -31.0990   21.5190 C   0  0  0  0  0  2  0  0  0  0  0  0
  -26.4430  -29.7800   20.8370 C   0  0  0  0  0  0  0  0  0  0  0  0
  -27.7250  -29.1930   20.8780 C   0  0  0  0  0  3  0  0  0  0  0  0
  -26.9030  -27.3180   19.5610 C   0  0  0  0  0  3  0  0  0  0  0  0
  -25.6250  -27.9080   19.5180 C   0  0  0  0  0  3  0  0  0  0  0  0
  -24.0600  -29.8370   20.1490 C   0  0  0  0  0  2  0  0  0  0  0  0
  -24.8290  -31.1370   22.1910 N   0  0  0  0  0  0  0  0  0  0  0  0
  -23.4700  -31.9720   23.8010 O   0  0  0  0  0  0  0  0  0  0  0  0
  -23.1070  -29.2760   22.4070 C   0  0  0  0  0  0  0  0  0  0  0  0
  -21.8220  -28.9530   22.1910 N   0  0  0  0  0  0  0  0  0  0  0  0
  -23.8150  -28.6870   23.2260 O   0  0  0  0  0  0  0  0  0  0  0  0
  -21.3090  -29.4920   21.5080 H   0  0  0  0  0  0  0  0  0  0  0  0
  -18.5710  -27.3970   22.4430 C   0  0  0  0  0  0  0  0  0  0  0  0
  -21.0750  -27.8860   22.8600 C   0  0  0  0  0  3  0  0  0  0  0  0
  -21.3500  -26.5140   22.2020 C   0  0  0  0  0  2  0  0  0  0  0  0
  -20.3310  -26.1550   21.1150 C   0  0  0  0  0  2  0  0  0  0  0  0
  -18.9140  -26.1180   21.6970 C   0  0  0  0  0  2  0  0  0  0  0  0
  -19.5850  -28.2350   22.9760 C   0  0  0  0  0  0  0  0  0  0  0  0
  -19.2150  -29.4290   23.6300 C   0  0  0  0  0  3  0  0  0  0  0  0
  -17.8620  -29.7890   23.7590 C   0  0  0  0  0  3  0  0  0  0  0  0
  -16.8580  -28.9470   23.2470 C   0  0  0  0  0  3  0  0  0  0  0  0
  -17.2130  -27.7530   22.5940 C   0  0  0  0  0  3  0  0  0  0  0  0
  -25.7640  -32.6120   24.0560 C   0  0  0  0  0  3  0  0  0  0  0  0
  -25.3130  -33.9880   24.3110 N   0  0  0  0  0  0  0  0  0  0  0  0
  -25.6440  -35.0450   23.5580 C   0  0  0  0  0  0  0  0  0  0  0  0
  -26.4290  -34.9720   22.6060 O   0  0  0  0  0  0  0  0  0  0  0  0
  -24.6230  -34.1120   25.0360 H   0  0  0  0  0  0  0  0  0  0  0  0
  -23.8250  -36.6780   22.9650 C   0  0  0  0  0  1  0  0  0  0  0  0
  -25.0030  -36.4010   23.9140 C   0  0  0  0  0  3  0  0  0  0  0  0
  -26.9670  -37.4730   24.9230 C   0  0  0  0  0  1  0  0  0  0  0  0
  -25.9550  -37.5320   23.8710 N   0  0  0  0  0  0  0  0  0  0  0  0
  -25.4660  -38.4190   23.9500 H   0  0  0  0  0  0  0  0  0  0  0  0
  -26.2020  -31.9110   25.4000 C   0  0  1  0  0  0  0  0  0  0  0  0
  -25.0210  -31.5810   26.3440 C   0  0  0  0  0  1  0  0  0  0  0  0
  -26.9530  -30.5940   25.1000 C   0  0  0  0  0  1  0  0  0  0  0  0
  -27.1930  -32.8160   26.1670 C   0  0  0  0  0  1  0  0  0  0  0  0
  -30.9190  -19.4950   21.8720 C   0  0  0  0  0  2  0  0  0  0  0  0
  -30.4120  -18.1480   21.2870 C   0  0  0  0  0  2  0  0  0  0  0  0
  -32.7110  -17.4790   20.3230 C   0  0  0  0  0  1  0  0  0  0  0  0
  -31.5170  -17.0550   21.2180 C   0  0  0  0  0  3  0  0  0  0  0  0
  -31.3770  -14.7490   20.0850 C   0  0  0  0  0  0  0  0  0  0  0  0
  -30.9190  -12.5820   19.0120 C   0  0  0  0  0  2  0  0  0  0  0  0
  -29.9630  -12.7690   17.8210 C   0  0  0  0  0  2  0  0  0  0  0  0
  -28.5020  -12.6780   18.2900 C   0  0  0  0  0  2  0  0  0  0  0  0
  -28.2170  -13.5900   19.5130 C   0  0  0  0  0  3  0  0  0  0  0  0
  -29.2900  -13.4140   20.6140 C   0  0  0  0  0  2  0  0  0  0  0  0
  -30.6160  -13.6240   20.0080 N   0  0  0  0  0  0  0  0  0  0  0  0
  -32.4020  -14.8750   19.4140 O   0  0  0  0  0  0  0  0  0  0  0  0
  -30.9390  -15.7200   20.9160 N   0  0  0  0  0  0  0  0  0  0  0  0
  -30.1170  -15.4670   21.4450 H   0  0  0  0  0  0  0  0  0  0  0  0
  -25.8840  -14.3010   20.3380 C   0  0  0  0  0  0  0  0  0  0  0  0
  -24.7860  -13.5760   20.7120 C   0  0  0  0  0  0  0  0  0  0  0  0
  -25.1640  -12.2010   20.6010 C   0  0  0  0  0  0  0  0  0  0  0  0
  -26.8680  -13.3730   20.0310 N   0  0  0  0  0  0  0  0  0  0  0  0
  -26.4390  -12.1020   20.2430 N   0  0  0  0  0  0  0  0  0  0  0  0
  -24.3730  -10.9760   20.7610 C   0  0  0  0  0  0  0  0  0  0  0  0
  -24.7500   -9.9660   21.6750 C   0  0  0  0  0  3  0  0  0  0  0  0
  -23.9610   -8.8060   21.8240 C   0  0  0  0  0  3  0  0  0  0  0  0
  -22.7820   -8.6460   21.0590 C   0  0  0  0  0  0  0  0  0  0  0  0
  -22.4240   -9.6430   20.1340 C   0  0  0  0  0  3  0  0  0  0  0  0
  -23.2130  -10.7950   19.9810 C   0  0  0  0  0  3  0  0  0  0  0  0
  -21.9680   -7.5400   21.1180 O   0  0  0  0  0  0  0  0  0  0  0  0
  -21.8220   -6.8140   22.2740 C   0  0  0  0  0  0  0  0  0  0  0  0
  -21.3610   -7.4050   23.4700 C   0  0  0  0  0  3  0  0  0  0  0  0
  -21.1560   -6.6090   24.6150 C   0  0  0  0  0  3  0  0  0  0  0  0
  -21.4080   -5.2250   24.5660 C   0  0  0  0  0  0  0  0  0  0  0  0
  -21.8620   -4.6340   23.3740 C   0  0  0  0  0  3  0  0  0  0  0  0
  -22.0670   -5.4270   22.2300 C   0  0  0  0  0  0  0  0  0  0  0  0
  -22.4840   -4.8480   21.0780 F   0  0  0  0  0  0  0  0  0  0  0  0
  -21.2060   -4.4590   25.6640 F   0  0  0  0  0  0  0  0  0  0  0  0
  -23.4310  -14.1180   21.0620 C   0  0  0  0  0  0  0  0  0  0  0  0
  -22.7030  -13.4350   21.9380 N   0  0  0  0  0  0  0  0  0  0  0  0
  -23.0290  -15.1840   20.5960 O   0  0  0  0  0  0  0  0  0  0  0  0
  -23.0410  -12.5720   22.3390 H   0  0  0  0  0  0  0  0  0  0  0  0
  -21.7960  -13.7810   22.2150 H   0  0  0  0  0  0  0  0  0  0  0  0
  -26.1220  -15.6690   20.2170 N   0  0  0  0  0  0  0  0  0  0  0  0
  -25.3940  -16.3580   20.3740 H   0  0  0  0  0  0  0  0  0  0  0  0
  -26.9900  -16.0800   19.8970 H   0  0  0  0  0  0  0  0  0  0  0  0
  1  5  2  0
  2  1  1  0
  3  8  1  0
  3  1  1  0
  4  3  1  0
  4  2  1  0
  4  6  1  6
  7  8  2  0
  9  8  1  0
 10  7  1  0
 11 12  1  0
 11 10  1  0
 13 24  2  0
 14 12  1  0
 14 19  1  0
 15 23  1  0
 15 25  1  0
 16 18  1  0
 17 23  1  0
 18 19  2  0
 18 17  1  0
 20 14  2  0
 21 20  1  0
 21 16  2  0
 22 16  1  0
 22 15  1  0
 23 13  1  0
 25 27  2  0
 26 25  1  0
 28 26  1  0
 29 38  2  0
 29 34  1  0
 30 26  1  0
 30 34  1  0
 31 30  1  0
 32 33  1  0
 32 31  1  0
 33 29  1  0
 34 35  2  0
 35 36  1  0
 37 36  2  0
 38 37  1  0
 39 13  1  0
 39 40  1  0
 39 49  1  0
 40 43  1  0
 41 45  1  0
 41 40  1  0
 42 41  2  0
 45 44  1  0
 47 45  1  0
 47 48  1  0
 47 46  1  0
 49 52  1  1
 49 50  1  0
 51 49  1  0
 53  4  1  0
 54 53  1  0
 56 55  1  0
 56 54  1  0
 57 65  1  0
 58 63  1  0
 59 60  1  0
 59 58  1  0
 61 60  1  0
 61 70  1  0
 61 62  1  0
 63 57  1  0
 63 62  1  0
 64 57  2  0
 65 56  1  0
 65 66  1  0
 67 68  2  0
 68 87  1  0
 69 68  1  0
 69 72  1  0
 70 71  1  0
 70 67  1  0
 71 69  2  0
 72 73  1  0
 73 74  2  0
 75 78  1  0
 75 74  1  0
 76 75  2  0
 77 76  1  0
 77 72  2  0
 78 79  1  0
 79 80  1  0
 80 81  2  0
 82 81  1  0
 82 86  1  0
 83 82  2  0
 84 79  2  0
 84 83  1  0
 85 84  1  0
 87 88  1  0
 88 91  1  0
 88 90  1  0
 89 87  2  0
 92 67  1  0
 92 93  1  0
 94 92  1  0
M  ISO  4  11 101  12 101  57 100  65 100
M  END
>  <TORSDO>  (40) 
F 22

>  <SCORE>  (40) 
-10.682

>  <name>  (40) 
39

>  <ligand_id>  (40) 
39

>  <original_smiles>  (40) 
[H]C(=C(C([H])([H])[H])C1([H])C(=O)C([H])([H])[N+]1([H])C([H])([H])C([H])([H])C([H])(N([H])C(=O)N1C([H])([H])C([H])([H])C([H])([H])C([H])(n2nc(-c3c([H])c([H])c(Oc4c([H])c([H])c(F)c([H])c4F)c([H])c3[H])c(C(=O)N([H])[H])c2N([H])[H])C1([H])[H])C([H])([H])[H])C([H])([H])C([H])([H])Oc1c([H])c([H])c2c(c1[H])C([H])([H])N(C(=O)C([H])(N([H])C(=O)C([H])(N([H])C([H])([H])[H])C([H])([H])[H])C(C([H])([H])[H])(C([H])([H])[H])C([H])([H])[H])C([H])(C(=O)N([H])C1([H])c3c([H])c([H])c([H])c([H])c3C([H])([H])C([H])([H])C1([H])[H])C2([H])[H]

>  <smiles>  (40) 
[H]C(=C(C([H])([H])[H])C1([H])C(=O)C([H])([H])[N+]1([H])C([H])([H])C([H])([H])C([H])(N([H])C(=O)N1C([H])([H])C([H])([H])C([H])([H])C([H])(n2nc(-c3c([H])c([H])c(Oc4c([H])c([H])c(F)c([H])c4F)c([H])c3[H])c(C(=O)N([H])[H])c2N([H])[H])C1([H])[H])C([H])([H])[H])C([H])([H])C([H])([H])Oc1c([H])c([H])c2c(c1[H])C([H])([H])N(C(=O)C([H])(N([H])C(=O)C([H])(N([H])C([H])([H])[H])C([H])([H])[H])C(C([H])([H])[H])(C([H])([H])[H])C([H])([H])[H])C([H])(C(=O)N([H])C1([H])c3c([H])c([H])c([H])c([H])c3C([H])([H])C([H])([H])C1([H])[H])C2([H])[H]

$$$$
40:0:0
     RDKit          3D

 93101  0  0  1  0  0  0  0  0999 V2000
  -29.1500  -22.2570   19.9130 C   0  0  0  0  0  3  0  0  0  0  0  0
  -30.5680  -22.6030   20.1080 N   0  0  0  0  0  4  0  0  0  0  0  0
  -30.7370  -22.8970   21.0530 H   0  0  0  0  0  0  0  0  0  0  0  0
  -30.8630  -23.3190   19.4700 H   0  0  0  0  0  0  0  0  0  0  0  0
  -31.1300  -21.7860   19.9410 H   0  0  0  0  0  0  0  0  0  0  0  0
  -28.8550  -20.8340   20.6440 C   0  0  0  0  0  0  0  0  0  0  0  0
  -29.3900  -19.6180   20.1920 N   0  0  0  0  0  0  0  0  0  0  0  0
  -28.1940  -20.8520   21.6830 O   0  0  0  0  0  0  0  0  0  0  0  0
  -29.8320  -19.6490   19.2840 H   0  0  0  0  0  0  0  0  0  0  0  0
  -30.6840  -14.9150   20.1330 C   0  0  0  0  0  0  0  0  0  0  0  0
  -30.3920  -12.6470   19.0740 C   0  0  0  0  0  2  0  0  0  0  0  0
  -29.4220  -12.6650   17.8790 C   0  0  0  0  0  2  0  0  0  0  0  0
  -27.9740  -12.4660   18.3620 C   0  0  0  0  0  2  0  0  0  0  0  0
  -27.6280  -13.3620   19.5790 C   0  0  0  0  0  3  0  0  0  0  0  0
  -28.7240  -13.3550   20.6640 C   0  0  0  0  0  2  0  0  0  0  0  0
  -29.9750  -13.7320   20.0030 N   0  0  0  0  0  0  0  0  0  0  0  0
  -31.8750  -14.8970   19.8130 O   0  0  0  0  0  0  0  0  0  0  0  0
  -29.0540  -16.9180   20.1110 C   0  0  0  0  0  0  0  0  0  0  0  0
  -30.8110  -17.4560   20.8340 C   0  0  0  0  0  2  0  0  0  0  0  0
  -29.4320  -18.2170   20.8580 C   0  0  0  0  0  3  0  0  0  0  0  0
  -30.1280  -16.1600   20.4850 N   0  0  0  0  0  0  0  0  0  0  0  0
  -28.0740  -16.7050   19.3930 O   0  0  0  0  0  0  0  0  0  0  0  0
  -25.2860  -13.9440   20.4220 C   0  0  0  0  0  0  0  0  0  0  0  0
  -24.2360  -13.1680   20.8240 C   0  0  0  0  0  0  0  0  0  0  0  0
  -24.6980  -11.8160   20.7590 C   0  0  0  0  0  0  0  0  0  0  0  0
  -26.3140  -13.0650   20.1270 N   0  0  0  0  0  0  0  0  0  0  0  0
  -25.9750  -11.7810   20.3990 N   0  0  0  0  0  0  0  0  0  0  0  0
  -23.9790  -10.5520   20.9590 C   0  0  0  0  0  0  0  0  0  0  0  0
  -24.4260   -9.5850   21.8860 C   0  0  0  0  0  3  0  0  0  0  0  0
  -23.7070   -8.3850   22.0740 C   0  0  0  0  0  3  0  0  0  0  0  0
  -22.5260   -8.1420   21.3330 C   0  0  0  0  0  0  0  0  0  0  0  0
  -22.0990   -9.0980   20.3930 C   0  0  0  0  0  3  0  0  0  0  0  0
  -22.8190  -10.2900   20.2050 C   0  0  0  0  0  3  0  0  0  0  0  0
  -21.7780   -6.9950   21.4290 O   0  0  0  0  0  0  0  0  0  0  0  0
  -21.7270   -6.2650   22.5900 C   0  0  0  0  0  0  0  0  0  0  0  0
  -21.2650   -6.8230   23.8030 C   0  0  0  0  0  3  0  0  0  0  0  0
  -21.1640   -6.0160   24.9530 C   0  0  0  0  0  3  0  0  0  0  0  0
  -21.5130   -4.6540   24.8920 C   0  0  0  0  0  0  0  0  0  0  0  0
  -21.9660   -4.0960   23.6840 C   0  0  0  0  0  3  0  0  0  0  0  0
  -22.0700   -4.8990   22.5340 C   0  0  0  0  0  0  0  0  0  0  0  0
  -22.4860   -4.3520   21.3680 F   0  0  0  0  0  0  0  0  0  0  0  0
  -21.4080   -3.8760   25.9960 F   0  0  0  0  0  0  0  0  0  0  0  0
  -22.8500  -13.6420   21.1460 C   0  0  0  0  0  0  0  0  0  0  0  0
  -22.1490  -12.9330   22.0240 N   0  0  0  0  0  0  0  0  0  0  0  0
  -22.3960  -14.6750   20.6560 O   0  0  0  0  0  0  0  0  0  0  0  0
  -22.5270  -12.0980   22.4470 H   0  0  0  0  0  0  0  0  0  0  0  0
  -21.2200  -13.2320   22.2800 H   0  0  0  0  0  0  0  0  0  0  0  0
  -25.4480  -15.3160   20.2510 N   0  0  0  0  0  0  0  0  0  0  0  0
  -24.6930  -15.9760   20.4030 H   0  0  0  0  0  0  0  0  0  0  0  0
  -26.2740  -15.7430   19.8390 H   0  0  0  0  0  0  0  0  0  0  0  0
  -28.1660  -23.6030   19.9450 C   0  0  0  0  0  2  0  0  0  0  0  0
  -28.4230  -25.0330   20.7220 C   0  0  0  0  0  2  0  0  0  0  0  0
  -28.3850  -26.4410   20.1380 O   0  0  0  0  0  0  0  0  0  0  0  0
  -24.6170  -31.9110   23.2110 C   0  0  0  0  0  0  0  0  0  0  0  0
  -27.2560  -27.2960   20.1870 C   0  0  0  0  0  0  0  0  0  0  0  0
  -23.4290  -30.5020   21.5700 C   0  0  0  0  0  3  0  0  0  0  0  0
  -24.8910  -28.9410   20.1560 C   0  0  0  0  0  0  0  0  0  0  0  0
  -25.9720  -30.8180   21.3940 C   0  0  0  0  0  2  0  0  0  0  0  0
  -26.0610  -29.4300   20.7530 C   0  0  0  0  0  0  0  0  0  0  0  0
  -27.2470  -28.6240   20.7450 C   0  0  0  0  0  3  0  0  0  0  0  0
  -26.0610  -26.8690   19.5740 C   0  0  0  0  0  3  0  0  0  0  0  0
  -24.8990  -27.6710   19.5530 C   0  0  0  0  0  3  0  0  0  0  0  0
  -23.6530  -29.8180   20.1940 C   0  0  0  0  0  2  0  0  0  0  0  0
  -24.6930  -31.0980   22.1140 N   0  0  0  0  0  0  0  0  0  0  0  0
  -23.5290  -32.1790   23.7420 O   0  0  0  0  0  0  0  0  0  0  0  0
  -22.7660  -29.4870   22.5320 C   0  0  0  0  0  0  0  0  0  0  0  0
  -21.4390  -29.3110   22.4110 N   0  0  0  0  0  0  0  0  0  0  0  0
  -23.4480  -28.8600   23.3460 O   0  0  0  0  0  0  0  0  0  0  0  0
  -20.9500  -29.8710   21.7280 H   0  0  0  0  0  0  0  0  0  0  0  0
  -18.0610  -28.1170   22.9310 C   0  0  0  0  0  0  0  0  0  0  0  0
  -20.6230  -28.3680   23.1790 C   0  0  0  0  0  3  0  0  0  0  0  0
  -20.7150  -26.9420   22.5880 C   0  0  0  0  0  2  0  0  0  0  0  0
  -19.6040  -26.6320   21.5810 C   0  0  0  0  0  2  0  0  0  0  0  0
  -18.2280  -26.7740   22.2390 C   0  0  0  0  0  2  0  0  0  0  0  0
  -19.1860  -28.8730   23.3570 C   0  0  0  0  0  0  0  0  0  0  0  0
  -18.9730  -30.1300   23.9630 C   0  0  0  0  0  3  0  0  0  0  0  0
  -17.6710  -30.6300   24.1480 C   0  0  0  0  0  3  0  0  0  0  0  0
  -16.5620  -29.8700   23.7390 C   0  0  0  0  0  3  0  0  0  0  0  0
  -16.7580  -28.6160   23.1350 C   0  0  0  0  0  3  0  0  0  0  0  0
  -25.8910  -32.5560   23.8390 C   0  0  0  0  0  3  0  0  0  0  0  0
  -26.3980  -31.7990   25.1280 C   0  0  1  0  0  0  0  0  0  0  0  0
  -25.2980  -31.5660   26.1890 C   0  0  0  0  0  1  0  0  0  0  0  0
  -26.9900  -30.4200   24.7560 C   0  0  0  0  0  1  0  0  0  0  0  0
  -27.5400  -32.6040   25.7940 C   0  0  0  0  0  1  0  0  0  0  0  0
  -25.5720  -33.9560   24.1580 N   0  0  0  0  0  0  0  0  0  0  0  0
  -25.9040  -35.0060   23.3950 C   0  0  0  0  0  0  0  0  0  0  0  0
  -26.5780  -34.8990   22.3670 O   0  0  0  0  0  0  0  0  0  0  0  0
  -24.9720  -34.1110   24.9550 H   0  0  0  0  0  0  0  0  0  0  0  0
  -24.1760  -36.7980   23.0210 C   0  0  0  0  0  1  0  0  0  0  0  0
  -25.4130  -36.3980   23.8420 C   0  0  0  0  0  3  0  0  0  0  0  0
  -27.5390  -37.2920   24.6880 C   0  0  0  0  0  1  0  0  0  0  0  0
  -26.4450  -37.4520   23.7330 N   0  0  0  0  0  0  0  0  0  0  0  0
  -26.0360  -38.3730   23.8700 H   0  0  0  0  0  0  0  0  0  0  0  0
  1 51  1  0
  1  2  1  0
  1  6  1  0
  2  3  1  0
  4  2  1  0
  5  2  1  0
  6  8  2  0
  7  6  1  0
  9  7  1  0
 10 21  1  0
 11 16  1  0
 12 13  1  0
 12 11  1  0
 14 13  1  0
 14 26  1  0
 14 15  1  0
 16 10  1  0
 16 15  1  0
 17 10  2  0
 18 21  1  0
 18 20  1  0
 19 20  1  0
 20  7  1  0
 21 19  1  0
 22 18  2  0
 23 24  2  0
 24 43  1  0
 25 24  1  0
 25 28  1  0
 26 27  1  0
 26 23  1  0
 27 25  2  0
 28 29  1  0
 29 30  2  0
 31 34  1  0
 31 30  1  0
 32 31  2  0
 33 32  1  0
 33 28  2  0
 34 35  1  0
 35 36  1  0
 36 37  2  0
 38 37  1  0
 38 42  1  0
 39 38  2  0
 40 35  2  0
 40 39  1  0
 41 40  1  0
 43 44  1  0
 44 47  1  0
 44 46  1  0
 45 43  2  0
 48 49  1  0
 48 23  1  0
 50 48  1  0
 51 52  1  0
 53 55  1  0
 53 52  1  0
 54 65  2  0
 55 60  1  0
 56 64  1  0
 56 66  1  0
 57 63  1  0
 57 59  1  0
 58 64  1  0
 59 58  1  0
 60 59  2  0
 61 55  2  0
 62 61  1  0
 62 57  2  0
 63 56  1  0
 64 54  1  0
 66 68  2  0
 67 66  1  0
 69 67  1  0
 70 79  2  0
 70 75  1  0
 71 67  1  0
 71 75  1  0
 72 71  1  0
 73 74  1  0
 73 72  1  0
 74 70  1  0
 75 76  2  0
 76 77  1  0
 78 77  2  0
 79 78  1  0
 80 54  1  0
 80 85  1  0
 80 81  1  0
 81 84  1  1
 81 82  1  0
 83 81  1  0
 85 88  1  0
 86 90  1  0
 86 85  1  0
 87 86  2  0
 90 89  1  0
 92 90  1  0
 92 93  1  0
 92 91  1  0
M  ISO  4  10 100  21 100  52 101  53 101
M  END
>  <TORSDO>  (41) 
F 20

>  <SCORE>  (41) 
-13.815

>  <name>  (41) 
40

>  <ligand_id>  (41) 
40

>  <original_smiles>  (41) 
[H]c1c([H])c([H])c2c(c1[H])C([H])([H])C([H])([H])C([H])([H])C2([H])N([H])C(=O)C1([H])N(C(=O)C([H])(N([H])C(=O)C([H])(N([H])C([H])([H])[H])C([H])([H])[H])C(C([H])([H])[H])(C([H])([H])[H])C([H])([H])[H])C([H])([H])c2c([H])c(OC([H])([H])C([H])([H])C([H])(C(=O)N([H])C3([H])C(=O)N(C(=O)N4C([H])([H])C([H])([H])C([H])([H])C([H])(n5nc(-c6c([H])c([H])c(Oc7c([H])c([H])c(F)c([H])c7F)c([H])c6[H])c(C(=O)N([H])[H])c5N([H])[H])C4([H])[H])C3([H])[H])[N+]([H])([H])[H])c([H])c([H])c2C1([H])[H]

>  <smiles>  (41) 
[H]c1c([H])c([H])c2c(c1[H])C([H])([H])C([H])([H])C([H])([H])C2([H])N([H])C(=O)C1([H])N(C(=O)C([H])(N([H])C(=O)C([H])(N([H])C([H])([H])[H])C([H])([H])[H])C(C([H])([H])[H])(C([H])([H])[H])C([H])([H])[H])C([H])([H])c2c([H])c(OC([H])([H])C([H])([H])C([H])(C(=O)N([H])C3([H])C(=O)N(C(=O)N4C([H])([H])C([H])([H])C([H])([H])C([H])(n5nc(-c6c([H])c([H])c(Oc7c([H])c([H])c(F)c([H])c7F)c([H])c6[H])c(C(=O)N([H])[H])c5N([H])[H])C4([H])[H])C3([H])[H])[N+]([H])([H])[H])c([H])c([H])c2C1([H])[H]

$$$$
41:0:0
     RDKit          3D

 94102  0  0  1  0  0  0  0  0999 V2000
  -28.9830  -23.2390   21.1510 C   0  0  0  0  0  0  0  0  0  0  0  0
  -29.4710  -22.3130   22.2800 C   0  0  0  0  0  3  0  0  0  0  0  0
  -29.2750  -24.4570   22.0480 C   0  0  0  0  0  3  0  0  0  0  0  0
  -30.0390  -23.5240   22.8950 N   0  0  0  0  0  4  0  0  0  0  0  0
  -28.5740  -23.0640   19.9980 O   0  0  0  0  0  0  0  0  0  0  0  0
  -31.0290  -23.5950   22.7320 H   0  0  0  0  0  0  0  0  0  0  0  0
  -29.8200  -23.6140   23.8740 H   0  0  0  0  0  0  0  0  0  0  0  0
  -30.5380  -21.2800   21.8750 C   0  0  0  0  0  2  0  0  0  0  0  0
  -29.9720  -19.9780   21.2770 C   0  0  0  0  0  2  0  0  0  0  0  0
  -31.0840  -19.0370   20.7940 C   0  0  0  0  0  0  0  0  0  0  0  0
  -31.9250  -19.4150   19.9760 O   0  0  0  0  0  0  0  0  0  0  0  0
  -31.1200  -17.6140   21.3590 C   0  0  0  0  0  2  0  0  0  0  0  0
  -29.8990  -16.7920   20.9070 C   0  0  0  0  0  2  0  0  0  0  0  0
  -30.6360  -14.4710   20.3700 C   0  0  0  0  0  0  0  0  0  0  0  0
  -30.3290  -12.3750   19.1130 C   0  0  0  0  0  2  0  0  0  0  0  0
  -29.3500  -12.6270   17.9480 C   0  0  0  0  0  2  0  0  0  0  0  0
  -27.8820  -12.5050   18.4030 C   0  0  0  0  0  2  0  0  0  0  0  0
  -27.5880  -13.2930   19.7060 C   0  0  0  0  0  3  0  0  0  0  0  0
  -28.6570  -12.9720   20.7740 C   0  0  0  0  0  2  0  0  0  0  0  0
  -29.9820  -13.2920   20.2090 N   0  0  0  0  0  0  0  0  0  0  0  0
  -31.6680  -14.7670   19.7570 O   0  0  0  0  0  0  0  0  0  0  0  0
  -29.9960  -15.3520   21.1590 N   0  0  0  0  0  0  0  0  0  0  0  0
  -29.2420  -14.9600   21.7050 H   0  0  0  0  0  0  0  0  0  0  0  0
  -25.1980  -13.9110   20.4420 C   0  0  0  0  0  0  0  0  0  0  0  0
  -24.1350  -13.1400   20.8320 C   0  0  0  0  0  0  0  0  0  0  0  0
  -24.5950  -11.7880   20.7950 C   0  0  0  0  0  0  0  0  0  0  0  0
  -26.2390  -13.0270   20.1970 N   0  0  0  0  0  0  0  0  0  0  0  0
  -25.8770  -11.7470   20.4620 N   0  0  0  0  0  0  0  0  0  0  0  0
  -23.8700  -10.5270   21.0030 C   0  0  0  0  0  0  0  0  0  0  0  0
  -24.3230   -9.5590   21.9250 C   0  0  0  0  0  3  0  0  0  0  0  0
  -23.5990   -8.3630   22.1190 C   0  0  0  0  0  3  0  0  0  0  0  0
  -22.4090   -8.1260   21.3930 C   0  0  0  0  0  0  0  0  0  0  0  0
  -21.9730   -9.0840   20.4610 C   0  0  0  0  0  3  0  0  0  0  0  0
  -22.6970  -10.2720   20.2650 C   0  0  0  0  0  3  0  0  0  0  0  0
  -21.6560   -6.9820   21.5000 O   0  0  0  0  0  0  0  0  0  0  0  0
  -21.6450   -6.2320   22.6490 C   0  0  0  0  0  0  0  0  0  0  0  0
  -21.2670   -6.7800   23.8930 C   0  0  0  0  0  3  0  0  0  0  0  0
  -21.2000   -5.9570   25.0330 C   0  0  0  0  0  3  0  0  0  0  0  0
  -21.5020   -4.5860   24.9330 C   0  0  0  0  0  0  0  0  0  0  0  0
  -21.8740   -4.0380   23.6940 C   0  0  0  0  0  3  0  0  0  0  0  0
  -21.9440   -4.8580   22.5550 C   0  0  0  0  0  0  0  0  0  0  0  0
  -22.2830   -4.3200   21.3590 F   0  0  0  0  0  0  0  0  0  0  0  0
  -21.4310   -3.7940   26.0290 F   0  0  0  0  0  0  0  0  0  0  0  0
  -22.7440  -13.6170   21.1370 C   0  0  0  0  0  0  0  0  0  0  0  0
  -22.0400  -12.9180   22.0190 N   0  0  0  0  0  0  0  0  0  0  0  0
  -22.2920  -14.6420   20.6270 O   0  0  0  0  0  0  0  0  0  0  0  0
  -22.4210  -12.0840   22.4410 H   0  0  0  0  0  0  0  0  0  0  0  0
  -21.1100  -13.2140   22.2740 H   0  0  0  0  0  0  0  0  0  0  0  0
  -25.3630  -15.2800   20.2610 N   0  0  0  0  0  0  0  0  0  0  0  0
  -24.6090  -15.9460   20.3970 H   0  0  0  0  0  0  0  0  0  0  0  0
  -26.2140  -15.7110   19.9180 H   0  0  0  0  0  0  0  0  0  0  0  0
  -30.1330  -25.5590   21.3950 C   0  0  0  0  0  2  0  0  0  0  0  0
  -29.3740  -26.8660   21.0920 C   0  0  0  0  0  2  0  0  0  0  0  0
  -28.3590  -26.6570   20.1180 O   0  0  0  0  0  0  0  0  0  0  0  0
  -24.5890  -31.8800   23.2530 C   0  0  0  0  0  0  0  0  0  0  0  0
  -27.2380  -27.4580   20.1640 C   0  0  0  0  0  0  0  0  0  0  0  0
  -23.3760  -30.4780   21.6120 C   0  0  0  0  0  3  0  0  0  0  0  0
  -24.8290  -28.9400   20.1850 C   0  0  0  0  0  0  0  0  0  0  0  0
  -25.8970  -30.8470   21.4000 C   0  0  0  0  0  2  0  0  0  0  0  0
  -25.9850  -29.4750   20.7680 C   0  0  0  0  0  0  0  0  0  0  0  0
  -27.1930  -28.7450   20.7530 C   0  0  0  0  0  3  0  0  0  0  0  0
  -26.0670  -26.9400   19.5720 C   0  0  0  0  0  3  0  0  0  0  0  0
  -24.8630  -27.6690   19.5860 C   0  0  0  0  0  3  0  0  0  0  0  0
  -23.5820  -29.7930   20.2340 C   0  0  0  0  0  2  0  0  0  0  0  0
  -24.6400  -31.0820   22.1490 N   0  0  0  0  0  0  0  0  0  0  0  0
  -23.5120  -32.1490   23.8010 O   0  0  0  0  0  0  0  0  0  0  0  0
  -22.7280  -29.4590   22.5770 C   0  0  0  0  0  0  0  0  0  0  0  0
  -21.4040  -29.2740   22.4510 N   0  0  0  0  0  0  0  0  0  0  0  0
  -23.4130  -28.8330   23.3900 O   0  0  0  0  0  0  0  0  0  0  0  0
  -20.9130  -29.8300   21.7650 H   0  0  0  0  0  0  0  0  0  0  0  0
  -18.0350  -28.0680   22.9420 C   0  0  0  0  0  0  0  0  0  0  0  0
  -20.5900  -28.3380   23.2230 C   0  0  0  0  0  3  0  0  0  0  0  0
  -20.7010  -26.9030   22.6560 C   0  0  0  0  0  2  0  0  0  0  0  0
  -19.6050  -26.5710   21.6370 C   0  0  0  0  0  2  0  0  0  0  0  0
  -18.2200  -26.7140   22.2740 C   0  0  0  0  0  2  0  0  0  0  0  0
  -19.1490  -28.8350   23.3730 C   0  0  0  0  0  0  0  0  0  0  0  0
  -18.9220  -30.1020   23.9560 C   0  0  0  0  0  3  0  0  0  0  0  0
  -17.6150  -30.5990   24.1130 C   0  0  0  0  0  3  0  0  0  0  0  0
  -16.5160  -29.8280   23.6980 C   0  0  0  0  0  3  0  0  0  0  0  0
  -16.7260  -28.5640   23.1180 C   0  0  0  0  0  3  0  0  0  0  0  0
  -25.8790  -32.5110   23.8660 C   0  0  0  0  0  3  0  0  0  0  0  0
  -25.5770  -33.9100   24.1920 N   0  0  0  0  0  0  0  0  0  0  0  0
  -25.9120  -34.9590   23.4290 C   0  0  0  0  0  0  0  0  0  0  0  0
  -26.5820  -34.8510   22.3980 O   0  0  0  0  0  0  0  0  0  0  0  0
  -24.9870  -34.0700   24.9950 H   0  0  0  0  0  0  0  0  0  0  0  0
  -24.1900  -36.7560   23.0640 C   0  0  0  0  0  1  0  0  0  0  0  0
  -25.4270  -36.3490   23.8820 C   0  0  0  0  0  3  0  0  0  0  0  0
  -27.5650  -37.2240   24.7120 C   0  0  0  0  0  1  0  0  0  0  0  0
  -26.4610  -37.4010   23.7730 N   0  0  0  0  0  0  0  0  0  0  0  0
  -26.0560  -38.3200   23.9350 H   0  0  0  0  0  0  0  0  0  0  0  0
  -26.4030  -31.7390   25.1390 C   0  0  1  0  0  0  0  0  0  0  0  0
  -25.3160  -31.5070   26.2140 C   0  0  0  0  0  1  0  0  0  0  0  0
  -26.9750  -30.3590   24.7380 C   0  0  0  0  0  1  0  0  0  0  0  0
  -27.5570  -32.5330   25.7970 C   0  0  0  0  0  1  0  0  0  0  0  0
  1  3  1  0
  1  2  1  0
  2  8  1  0
  2  4  1  0
  3 52  1  0
  3  4  1  0
  4  7  1  0
  5  1  2  0
  6  4  1  0
  9  8  1  0
 10  9  1  0
 10 12  1  0
 11 10  2  0
 13 22  1  0
 13 12  1  0
 14 22  1  0
 15 20  1  0
 16 17  1  0
 16 15  1  0
 18 17  1  0
 18 27  1  0
 18 19  1  0
 20 14  1  0
 20 19  1  0
 21 14  2  0
 22 23  1  0
 24 25  2  0
 25 44  1  0
 26 25  1  0
 26 29  1  0
 27 24  1  0
 27 28  1  0
 28 26  2  0
 29 30  1  0
 30 31  2  0
 32 35  1  0
 32 31  1  0
 33 32  2  0
 34 33  1  0
 34 29  2  0
 35 36  1  0
 36 37  1  0
 37 38  2  0
 39 38  1  0
 39 43  1  0
 40 39  2  0
 41 36  2  0
 41 40  1  0
 42 41  1  0
 44 45  1  0
 45 48  1  0
 45 47  1  0
 46 44  2  0
 49 50  1  0
 49 24  1  0
 51 49  1  0
 53 52  1  0
 54 56  1  0
 54 53  1  0
 55 66  2  0
 56 61  1  0
 57 65  1  0
 57 67  1  0
 58 64  1  0
 58 60  1  0
 59 65  1  0
 60 59  1  0
 61 60  2  0
 62 63  1  0
 62 56  2  0
 63 58  2  0
 64 57  1  0
 65 55  1  0
 67 69  2  0
 68 67  1  0
 70 68  1  0
 71 80  2  0
 71 76  1  0
 72 68  1  0
 72 76  1  0
 73 72  1  0
 74 75  1  0
 74 73  1  0
 75 71  1  0
 76 77  2  0
 77 78  1  0
 79 78  2  0
 80 79  1  0
 81 55  1  0
 81 82  1  0
 81 91  1  0
 82 85  1  0
 83 87  1  0
 83 82  1  0
 84 83  2  0
 87 86  1  0
 89 87  1  0
 89 90  1  0
 89 88  1  0
 91 94  1  1
 91 92  1  0
 93 91  1  0
M  ISO  4  14 100  22 100  53 101  54 101
M  END
>  <TORSDO>  (42) 
F 23

>  <SCORE>  (42) 
-13.227

>  <name>  (42) 
41

>  <ligand_id>  (42) 
41

>  <original_smiles>  (42) 
[H]c1c([H])c([H])c2c(c1[H])C([H])([H])C([H])([H])C([H])([H])C2([H])N([H])C(=O)C1([H])N(C(=O)C([H])(N([H])C(=O)C([H])(N([H])C([H])([H])[H])C([H])([H])[H])C(C([H])([H])[H])(C([H])([H])[H])C([H])([H])[H])C([H])([H])c2c([H])c(OC([H])([H])C([H])([H])C3([H])C(=O)C([H])(C([H])([H])C([H])([H])C(=O)C([H])([H])C([H])([H])N([H])C(=O)N4C([H])([H])C([H])([H])C([H])([H])C([H])(n5nc(-c6c([H])c([H])c(Oc7c([H])c([H])c(F)c([H])c7F)c([H])c6[H])c(C(=O)N([H])[H])c5N([H])[H])C4([H])[H])[N+]3([H])[H])c([H])c([H])c2C1([H])[H]

>  <smiles>  (42) 
[H]c1c([H])c([H])c2c(c1[H])C([H])([H])C([H])([H])C([H])([H])C2([H])N([H])C(=O)C1([H])N(C(=O)C([H])(N([H])C(=O)C([H])(N([H])C([H])([H])[H])C([H])([H])[H])C(C([H])([H])[H])(C([H])([H])[H])C([H])([H])[H])C([H])([H])c2c([H])c(OC([H])([H])C([H])([H])C3([H])C(=O)C([H])(C([H])([H])C([H])([H])C(=O)C([H])([H])C([H])([H])N([H])C(=O)N4C([H])([H])C([H])([H])C([H])([H])C([H])(n5nc(-c6c([H])c([H])c(Oc7c([H])c([H])c(F)c([H])c7F)c([H])c6[H])c(C(=O)N([H])[H])c5N([H])[H])C4([H])[H])[N+]3([H])[H])c([H])c([H])c2C1([H])[H]

$$$$
42:0:0
     RDKit          3D

 93102  0  0  1  0  0  0  0  0999 V2000
  -30.5400  -24.0740   20.5450 C   0  0  0  0  0  2  0  0  0  0  0  0
  -31.0590  -23.4370   19.2550 C   0  0  0  0  0  2  0  0  0  0  0  0
  -29.0660  -23.6640   20.5950 C   0  0  0  0  0  3  0  0  0  0  0  0
  -29.1450  -22.1510   19.9520 C   0  0  0  0  0  3  0  0  0  0  0  0
  -30.3600  -22.1450   19.1170 N   0  0  0  0  0  4  0  0  0  0  0  0
  -30.9530  -21.3980   19.4420 H   0  0  0  0  0  0  0  0  0  0  0  0
  -30.1350  -21.9670   18.1520 H   0  0  0  0  0  0  0  0  0  0  0  0
  -28.1450  -24.8470   19.9440 C   0  0  0  0  0  2  0  0  0  0  0  0
  -28.3090  -26.3170   20.2840 O   0  0  0  0  0  0  0  0  0  0  0  0
  -24.6010  -31.8490   23.2030 C   0  0  0  0  0  0  0  0  0  0  0  0
  -27.2170  -27.2240   20.1820 C   0  0  0  0  0  0  0  0  0  0  0  0
  -23.4090  -30.4450   21.5630 C   0  0  0  0  0  3  0  0  0  0  0  0
  -24.8670  -28.8890   20.1420 C   0  0  0  0  0  0  0  0  0  0  0  0
  -25.9540  -30.7460   21.3980 C   0  0  0  0  0  2  0  0  0  0  0  0
  -26.0350  -29.3610   20.7520 C   0  0  0  0  0  0  0  0  0  0  0  0
  -27.2110  -28.5400   20.7630 C   0  0  0  0  0  3  0  0  0  0  0  0
  -26.0300  -26.8350   19.5210 C   0  0  0  0  0  3  0  0  0  0  0  0
  -24.8700  -27.6360   19.5140 C   0  0  0  0  0  3  0  0  0  0  0  0
  -23.6330  -29.7700   20.1850 C   0  0  0  0  0  2  0  0  0  0  0  0
  -24.6740  -31.0340   22.1100 N   0  0  0  0  0  0  0  0  0  0  0  0
  -23.5140  -32.1290   23.7310 O   0  0  0  0  0  0  0  0  0  0  0  0
  -22.7390  -29.4310   22.5240 C   0  0  0  0  0  0  0  0  0  0  0  0
  -21.4100  -29.2660   22.4040 N   0  0  0  0  0  0  0  0  0  0  0  0
  -23.4160  -28.7980   23.3390 O   0  0  0  0  0  0  0  0  0  0  0  0
  -20.9240  -29.8260   21.7190 H   0  0  0  0  0  0  0  0  0  0  0  0
  -18.0230  -28.1060   22.9370 C   0  0  0  0  0  0  0  0  0  0  0  0
  -20.5880  -28.3330   23.1780 C   0  0  0  0  0  3  0  0  0  0  0  0
  -20.6660  -26.9050   22.5900 C   0  0  0  0  0  2  0  0  0  0  0  0
  -19.5480  -26.6040   21.5870 C   0  0  0  0  0  2  0  0  0  0  0  0
  -18.1760  -26.7610   22.2470 C   0  0  0  0  0  2  0  0  0  0  0  0
  -19.1560  -28.8510   23.3590 C   0  0  0  0  0  0  0  0  0  0  0  0
  -18.9590  -30.1110   23.9640 C   0  0  0  0  0  3  0  0  0  0  0  0
  -17.6610  -30.6260   24.1500 C   0  0  0  0  0  3  0  0  0  0  0  0
  -16.5440  -29.8780   23.7430 C   0  0  0  0  0  3  0  0  0  0  0  0
  -16.7250  -28.6200   23.1430 C   0  0  0  0  0  3  0  0  0  0  0  0
  -25.8780  -32.4890   23.8290 C   0  0  0  0  0  3  0  0  0  0  0  0
  -26.3950  -31.7180   25.1060 C   0  0  1  0  0  0  0  0  0  0  0  0
  -25.2990  -31.4750   26.1710 C   0  0  0  0  0  1  0  0  0  0  0  0
  -26.9860  -30.3440   24.7170 C   0  0  0  0  0  1  0  0  0  0  0  0
  -27.5400  -32.5170   25.7720 C   0  0  0  0  0  1  0  0  0  0  0  0
  -25.5610  -33.8850   24.1630 N   0  0  0  0  0  0  0  0  0  0  0  0
  -25.8830  -34.9430   23.4070 C   0  0  0  0  0  0  0  0  0  0  0  0
  -26.5470  -34.8450   22.3710 O   0  0  0  0  0  0  0  0  0  0  0  0
  -24.9690  -34.0330   24.9680 H   0  0  0  0  0  0  0  0  0  0  0  0
  -24.1440  -36.7290   23.0680 C   0  0  0  0  0  1  0  0  0  0  0  0
  -25.3920  -36.3280   23.8710 C   0  0  0  0  0  3  0  0  0  0  0  0
  -27.5230  -37.2250   24.6960 C   0  0  0  0  0  1  0  0  0  0  0  0
  -26.4180  -37.3860   23.7550 N   0  0  0  0  0  0  0  0  0  0  0  0
  -26.0080  -38.3040   23.9020 H   0  0  0  0  0  0  0  0  0  0  0  0
  -29.1860  -20.8250   20.8990 C   0  0  0  0  0  2  0  0  0  0  0  0
  -30.3070  -18.4090   21.1380 C   0  0  0  0  0  0  0  0  0  0  0  0
  -29.1850  -18.3850   19.4270 C   0  0  0  0  0  2  0  0  0  0  0  0
  -30.2670  -17.3790   19.9570 C   0  0  0  0  0  3  0  0  0  0  0  0
  -29.6250  -19.4160   20.4330 N   0  0  0  0  0  0  0  0  0  0  0  0
  -30.7550  -18.4110   22.2650 O   0  0  0  0  0  0  0  0  0  0  0  0
  -30.6160  -14.7690   19.9940 C   0  0  0  0  0  0  0  0  0  0  0  0
  -30.3600  -12.4920   18.9870 C   0  0  0  0  0  2  0  0  0  0  0  0
  -29.3620  -12.5660   17.8110 C   0  0  0  0  0  2  0  0  0  0  0  0
  -27.9170  -12.3860   18.3160 C   0  0  0  0  0  2  0  0  0  0  0  0
  -27.6050  -13.2690   19.5520 C   0  0  0  0  0  3  0  0  0  0  0  0
  -28.7180  -13.1860   20.6190 C   0  0  0  0  0  2  0  0  0  0  0  0
  -29.9810  -13.5450   19.9610 N   0  0  0  0  0  0  0  0  0  0  0  0
  -31.7830  -14.8570   19.6030 O   0  0  0  0  0  0  0  0  0  0  0  0
  -29.8720  -15.9170   20.2360 N   0  0  0  0  0  0  0  0  0  0  0  0
  -28.9250  -15.7740   20.5490 H   0  0  0  0  0  0  0  0  0  0  0  0
  -25.2650  -13.8550   20.4250 C   0  0  0  0  0  0  0  0  0  0  0  0
  -24.2160  -13.0780   20.8360 C   0  0  0  0  0  0  0  0  0  0  0  0
  -24.6680  -11.7270   20.7500 C   0  0  0  0  0  0  0  0  0  0  0  0
  -26.2880  -12.9760   20.1110 N   0  0  0  0  0  0  0  0  0  0  0  0
  -25.9400  -11.6890   20.3700 N   0  0  0  0  0  0  0  0  0  0  0  0
  -23.9440  -10.4630   20.9510 C   0  0  0  0  0  0  0  0  0  0  0  0
  -24.3850   -9.4970   21.8820 C   0  0  0  0  0  3  0  0  0  0  0  0
  -23.6590   -8.3010   22.0720 C   0  0  0  0  0  3  0  0  0  0  0  0
  -22.4790   -8.0630   21.3280 C   0  0  0  0  0  0  0  0  0  0  0  0
  -22.0570   -9.0170   20.3840 C   0  0  0  0  0  3  0  0  0  0  0  0
  -22.7840  -10.2040   20.1930 C   0  0  0  0  0  3  0  0  0  0  0  0
  -21.7250   -6.9180   21.4250 O   0  0  0  0  0  0  0  0  0  0  0  0
  -21.6460   -6.2060   22.5950 C   0  0  0  0  0  0  0  0  0  0  0  0
  -21.1690   -6.7860   23.7910 C   0  0  0  0  0  3  0  0  0  0  0  0
  -21.0380   -5.9990   24.9530 C   0  0  0  0  0  3  0  0  0  0  0  0
  -21.3760   -4.6330   24.9190 C   0  0  0  0  0  0  0  0  0  0  0  0
  -21.8480   -4.0520   23.7290 C   0  0  0  0  0  3  0  0  0  0  0  0
  -21.9790   -4.8370   22.5700 C   0  0  0  0  0  0  0  0  0  0  0  0
  -22.4130   -4.2660   21.4200 F   0  0  0  0  0  0  0  0  0  0  0  0
  -21.2430   -3.8750   26.0330 F   0  0  0  0  0  0  0  0  0  0  0  0
  -22.8380  -13.5570   21.1900 C   0  0  0  0  0  0  0  0  0  0  0  0
  -22.1500  -12.8460   22.0760 N   0  0  0  0  0  0  0  0  0  0  0  0
  -22.3810  -14.5980   20.7180 O   0  0  0  0  0  0  0  0  0  0  0  0
  -22.5310  -12.0040   22.4810 H   0  0  0  0  0  0  0  0  0  0  0  0
  -21.2270  -13.1500   22.3550 H   0  0  0  0  0  0  0  0  0  0  0  0
  -25.4260  -15.2290   20.2680 N   0  0  0  0  0  0  0  0  0  0  0  0
  -24.6640  -15.8780   20.4270 H   0  0  0  0  0  0  0  0  0  0  0  0
  -26.2400  -15.6690   19.8580 H   0  0  0  0  0  0  0  0  0  0  0  0
  1  3  1  0
  2  1  1  0
  3  8  1  0
  4  3  1  0
  4 50  1  0
  5  2  1  0
  5  6  1  0
  5  4  1  0
  7  5  1  0
  8  9  1  0
 10 21  2  0
 11  9  1  0
 11 16  1  0
 12 20  1  0
 12 22  1  0
 13 19  1  0
 13 15  1  0
 14 20  1  0
 15 16  2  0
 15 14  1  0
 17 11  2  0
 18 17  1  0
 18 13  2  0
 19 12  1  0
 20 10  1  0
 22 24  2  0
 23 22  1  0
 25 23  1  0
 26 35  2  0
 26 31  1  0
 27 23  1  0
 27 31  1  0
 28 27  1  0
 29 30  1  0
 29 28  1  0
 30 26  1  0
 31 32  2  0
 32 33  1  0
 34 33  2  0
 35 34  1  0
 36 10  1  0
 36 41  1  0
 36 37  1  0
 37 40  1  1
 37 38  1  0
 39 37  1  0
 41 44  1  0
 42 46  1  0
 42 41  1  0
 43 42  2  0
 46 45  1  0
 48 46  1  0
 48 49  1  0
 48 47  1  0
 51 55  2  0
 52 53  1  0
 52 54  1  0
 53 64  1  0
 53 51  1  0
 54 50  1  0
 54 51  1  0
 56 64  1  0
 57 62  1  0
 58 59  1  0
 58 57  1  0
 60 59  1  0
 60 69  1  0
 60 61  1  0
 62 56  1  0
 62 61  1  0
 63 56  2  0
 64 65  1  0
 66 67  2  0
 67 86  1  0
 68 67  1  0
 68 71  1  0
 69 70  1  0
 69 66  1  0
 70 68  2  0
 71 72  1  0
 72 73  2  0
 74 77  1  0
 74 73  1  0
 75 74  2  0
 76 75  1  0
 76 71  2  0
 77 78  1  0
 78 79  1  0
 79 80  2  0
 81 80  1  0
 81 85  1  0
 82 81  2  0
 83 78  2  0
 83 82  1  0
 84 83  1  0
 86 87  1  0
 87 90  1  0
 87 89  1  0
 88 86  2  0
 91 66  1  0
 91 92  1  0
 93 91  1  0
M  ISO  4   8 101   9 101  56 100  64 100
M  END
>  <TORSDO>  (43) 
F 19

>  <SCORE>  (43) 
-14.170

>  <name>  (43) 
42

>  <ligand_id>  (43) 
42

>  <original_smiles>  (43) 
[H]c1c([H])c([H])c2c(c1[H])C([H])([H])C([H])([H])C([H])([H])C2([H])N([H])C(=O)C1([H])N(C(=O)C([H])(N([H])C(=O)C([H])(N([H])C([H])([H])[H])C([H])([H])[H])C(C([H])([H])[H])(C([H])([H])[H])C([H])([H])[H])C([H])([H])c2c([H])c(OC([H])([H])C3([H])C([H])([H])C([H])([H])[N+]([H])([H])C3([H])C([H])([H])N3C(=O)C([H])(N([H])C(=O)N4C([H])([H])C([H])([H])C([H])([H])C([H])(n5nc(-c6c([H])c([H])c(Oc7c([H])c([H])c(F)c([H])c7F)c([H])c6[H])c(C(=O)N([H])[H])c5N([H])[H])C4([H])[H])C3([H])[H])c([H])c([H])c2C1([H])[H]

>  <smiles>  (43) 
[H]c1c([H])c([H])c2c(c1[H])C([H])([H])C([H])([H])C([H])([H])C2([H])N([H])C(=O)C1([H])N(C(=O)C([H])(N([H])C(=O)C([H])(N([H])C([H])([H])[H])C([H])([H])[H])C(C([H])([H])[H])(C([H])([H])[H])C([H])([H])[H])C([H])([H])c2c([H])c(OC([H])([H])C3([H])C([H])([H])C([H])([H])[N+]([H])([H])C3([H])C([H])([H])N3C(=O)C([H])(N([H])C(=O)N4C([H])([H])C([H])([H])C([H])([H])C([H])(n5nc(-c6c([H])c([H])c(Oc7c([H])c([H])c(F)c([H])c7F)c([H])c6[H])c(C(=O)N([H])[H])c5N([H])[H])C4([H])[H])C3([H])[H])c([H])c([H])c2C1([H])[H]

$$$$
43:0:0
     RDKit          3D

 95104  0  0  1  0  0  0  0  0999 V2000
  -28.8560  -21.7800   18.2900 C   0  0  0  0  0  2  0  0  0  0  0  0
  -30.2070  -21.0760   18.0810 C   0  0  0  0  0  3  0  0  0  0  0  0
  -30.2490  -20.8890   19.5980 C   0  0  0  0  0  3  0  0  0  0  0  0
  -31.3590  -21.7820   17.3600 C   0  0  0  0  0  1  0  0  0  0  0  0
  -29.2080  -22.0910   19.6770 N   0  0  1  0  0  4  0  0  0  0  0  0
  -28.4530  -21.8280   20.2960 H   0  0  0  0  0  0  0  0  0  0  0  0
  -29.5450  -23.6410   19.8620 C   0  0  0  0  0  3  0  0  0  0  0  0
  -28.4050  -24.8660   19.6470 C   0  0  0  0  0  3  0  0  0  0  0  0
  -28.5840  -26.4030   19.8570 O   0  0  0  0  0  0  0  0  0  0  0  0
  -24.6440  -31.7540   23.0200 C   0  0  0  0  0  0  0  0  0  0  0  0
  -27.4780  -27.3280   19.8050 C   0  0  0  0  0  0  0  0  0  0  0  0
  -23.5290  -30.3850   21.2990 C   0  0  0  0  0  3  0  0  0  0  0  0
  -25.0670  -28.9540   19.8180 C   0  0  0  0  0  0  0  0  0  0  0  0
  -26.0670  -30.7840   21.1770 C   0  0  0  0  0  2  0  0  0  0  0  0
  -26.2160  -29.4300   20.4630 C   0  0  0  0  0  0  0  0  0  0  0  0
  -27.4200  -28.6340   20.4380 C   0  0  0  0  0  3  0  0  0  0  0  0
  -26.2980  -26.9540   19.1230 C   0  0  0  0  0  3  0  0  0  0  0  0
  -25.1200  -27.7310   19.1340 C   0  0  0  0  0  3  0  0  0  0  0  0
  -23.7950  -29.7850   19.8920 C   0  0  0  0  0  2  0  0  0  0  0  0
  -24.7650  -30.9960   21.8880 N   0  0  0  0  0  0  0  0  0  0  0  0
  -23.5410  -31.9600   23.5470 O   0  0  0  0  0  0  0  0  0  0  0  0
  -22.8900  -29.3020   22.2030 C   0  0  0  0  0  0  0  0  0  0  0  0
  -21.5640  -29.1120   22.0870 N   0  0  0  0  0  0  0  0  0  0  0  0
  -23.5890  -28.6370   22.9700 O   0  0  0  0  0  0  0  0  0  0  0  0
  -21.0560  -29.7020   21.4430 H   0  0  0  0  0  0  0  0  0  0  0  0
  -18.2040  -27.8700   22.6280 C   0  0  0  0  0  0  0  0  0  0  0  0
  -20.7730  -28.1090   22.8050 C   0  0  0  0  0  3  0  0  0  0  0  0
  -20.8440  -26.7350   22.1000 C   0  0  0  0  0  2  0  0  0  0  0  0
  -19.6980  -26.5040   21.1090 C   0  0  0  0  0  2  0  0  0  0  0  0
  -18.3460  -26.5890   21.8240 C   0  0  0  0  0  2  0  0  0  0  0  0
  -19.3430  -28.5930   23.0740 C   0  0  0  0  0  0  0  0  0  0  0  0
  -19.1530  -29.7950   23.7880 C   0  0  0  0  0  3  0  0  0  0  0  0
  -17.8570  -30.2760   24.0580 C   0  0  0  0  0  3  0  0  0  0  0  0
  -16.7350  -29.5500   23.6260 C   0  0  0  0  0  3  0  0  0  0  0  0
  -16.9080  -28.3480   22.9170 C   0  0  0  0  0  3  0  0  0  0  0  0
  -25.8850  -32.4150   23.6950 C   0  0  0  0  0  3  0  0  0  0  0  0
  -25.5130  -33.7900   24.0630 N   0  0  0  0  0  0  0  0  0  0  0  0
  -25.7920  -34.8800   23.3360 C   0  0  0  0  0  0  0  0  0  0  0  0
  -26.4570  -34.8350   22.2970 O   0  0  0  0  0  0  0  0  0  0  0  0
  -24.9130  -33.8940   24.8690 H   0  0  0  0  0  0  0  0  0  0  0  0
  -23.9820  -36.6070   23.0540 C   0  0  0  0  0  1  0  0  0  0  0  0
  -25.2510  -36.2330   23.8370 C   0  0  0  0  0  3  0  0  0  0  0  0
  -27.3490  -37.1980   24.6750 C   0  0  0  0  0  1  0  0  0  0  0  0
  -26.2350  -37.3340   23.7410 N   0  0  0  0  0  0  0  0  0  0  0  0
  -25.7880  -38.2320   23.9070 H   0  0  0  0  0  0  0  0  0  0  0  0
  -26.3960  -31.6250   24.9630 C   0  0  1  0  0  0  0  0  0  0  0  0
  -25.2860  -31.3190   25.9960 C   0  0  0  0  0  1  0  0  0  0  0  0
  -27.0360  -30.2790   24.5500 C   0  0  0  0  0  1  0  0  0  0  0  0
  -27.5010  -32.4390   25.6760 C   0  0  0  0  0  1  0  0  0  0  0  0
  -29.9690  -19.3250   20.1700 C   0  0  0  0  0  3  0  0  0  0  0  0
  -28.6090  -19.0230   19.9150 O   0  0  0  0  0  0  0  0  0  0  0  0
  -28.5390  -18.7070   19.0200 H   0  0  0  0  0  0  0  0  0  0  0  0
  -30.8140  -17.9420   19.6650 C   0  0  0  0  0  2  0  0  0  0  0  0
  -31.1810  -15.2500   19.6320 C   0  0  0  0  0  0  0  0  0  0  0  0
  -30.9000  -12.9740   18.5260 C   0  0  0  0  0  2  0  0  0  0  0  0
  -29.8130  -12.9970   17.4230 C   0  0  0  0  0  2  0  0  0  0  0  0
  -28.4130  -12.7650   18.0220 C   0  0  0  0  0  2  0  0  0  0  0  0
  -28.1730  -13.6210   19.2900 C   0  0  0  0  0  3  0  0  0  0  0  0
  -29.3570  -13.4950   20.2700 C   0  0  0  0  0  2  0  0  0  0  0  0
  -30.5500  -13.9970   19.5620 N   0  0  0  0  0  0  0  0  0  0  0  0
  -32.2770  -15.3360   19.0640 O   0  0  0  0  0  0  0  0  0  0  0  0
  -30.5350  -16.4380   20.1100 N   0  0  0  0  0  0  0  0  0  0  0  0
  -25.9130  -14.1950   20.3510 C   0  0  0  0  0  0  0  0  0  0  0  0
  -24.8800  -13.4140   20.7900 C   0  0  0  0  0  0  0  0  0  0  0  0
  -25.3010  -12.0610   20.6050 C   0  0  0  0  0  0  0  0  0  0  0  0
  -26.8950  -13.3170   19.9230 N   0  0  0  0  0  0  0  0  0  0  0  0
  -26.5430  -12.0240   20.1370 N   0  0  0  0  0  0  0  0  0  0  0  0
  -24.5700  -10.8000   20.7920 C   0  0  0  0  0  0  0  0  0  0  0  0
  -24.9770   -9.8460   21.7520 C   0  0  0  0  0  3  0  0  0  0  0  0
  -24.2450   -8.6510   21.9260 C   0  0  0  0  0  3  0  0  0  0  0  0
  -23.0950   -8.4020   21.1400 C   0  0  0  0  0  0  0  0  0  0  0  0
  -22.7100   -9.3440   20.1700 C   0  0  0  0  0  3  0  0  0  0  0  0
  -23.4410  -10.5300   19.9940 C   0  0  0  0  0  3  0  0  0  0  0  0
  -22.3380   -7.2580   21.2210 O   0  0  0  0  0  0  0  0  0  0  0  0
  -22.1020   -6.6350   22.4210 C   0  0  0  0  0  0  0  0  0  0  0  0
  -21.5030   -7.3110   23.5070 C   0  0  0  0  0  3  0  0  0  0  0  0
  -21.2170   -6.6140   24.6970 C   0  0  0  0  0  3  0  0  0  0  0  0
  -21.5190   -5.2430   24.8020 C   0  0  0  0  0  0  0  0  0  0  0  0
  -22.1120   -4.5680   23.7200 C   0  0  0  0  0  3  0  0  0  0  0  0
  -22.4000   -5.2630   22.5320 C   0  0  0  0  0  0  0  0  0  0  0  0
  -22.9500   -4.6020   21.4850 F   0  0  0  0  0  0  0  0  0  0  0  0
  -21.2380   -4.5710   25.9430 F   0  0  0  0  0  0  0  0  0  0  0  0
  -23.5400  -13.8930   21.2660 C   0  0  0  0  0  0  0  0  0  0  0  0
  -22.9260  -13.1700   22.1950 N   0  0  0  0  0  0  0  0  0  0  0  0
  -23.0520  -14.9430   20.8490 O   0  0  0  0  0  0  0  0  0  0  0  0
  -23.3380  -12.3200   22.5530 H   0  0  0  0  0  0  0  0  0  0  0  0
  -22.0320  -13.4690   22.5580 H   0  0  0  0  0  0  0  0  0  0  0  0
  -26.0930  -15.5710   20.2560 N   0  0  0  0  0  0  0  0  0  0  0  0
  -25.3690  -16.2330   20.5150 H   0  0  0  0  0  0  0  0  0  0  0  0
  -26.9160  -16.0200   19.8750 H   0  0  0  0  0  0  0  0  0  0  0  0
  -28.9800  -16.8240   22.0290 C   0  0  0  0  0  2  0  0  0  0  0  0
  -30.0220  -16.3030   21.4020 C   0  0  0  0  0  3  0  0  0  0  0  0
  -30.1840  -16.9830   22.4530 C   0  0  0  0  0  3  0  0  0  0  0  0
  -30.9730  -17.6770   23.1490 N   0  0  0  0  0  2  0  0  0  0  0  0
  -31.1570  -17.2550   24.0530 H   0  0  0  0  0  0  0  0  0  0  0  0
  1  5  1  0
  2  4  1  0
  2  1  1  0
  2  3  1  0
  3  5  1  0
  3 50  1  0
  5  7  1  0
  5  6  1  1
  8  9  1  0
  8  7  2  0
 10 21  2  0
 11  9  1  0
 11 16  1  0
 12 20  1  0
 12 22  1  0
 13 19  1  0
 13 15  1  0
 14 20  1  0
 15 14  1  0
 16 15  2  0
 17 18  1  0
 17 11  2  0
 18 13  2  0
 19 12  1  0
 20 10  1  0
 22 24  2  0
 23 22  1  0
 25 23  1  0
 26 35  2  0
 26 31  1  0
 27 23  1  0
 27 31  1  0
 28 27  1  0
 29 30  1  0
 29 28  1  0
 30 26  1  0
 31 32  2  0
 32 33  1  0
 34 33  2  0
 35 34  1  0
 36 10  1  0
 36 37  1  0
 36 46  1  0
 37 40  1  0
 38 42  1  0
 38 37  1  0
 39 38  2  0
 42 41  1  0
 44 42  1  0
 44 45  1  0
 44 43  1  0
 46 49  1  1
 46 47  1  0
 48 46  1  0
 50 53  1  0
 51 50  1  0
 52 51  1  0
 53 62  1  0
 54 62  1  0
 55 60  1  0
 56 57  1  0
 56 55  1  0
 58 57  1  0
 58 66  1  0
 58 59  1  0
 60 54  1  0
 60 59  1  0
 61 54  2  0
 63 64  2  0
 64 83  1  0
 65 64  1  0
 65 68  1  0
 66 67  1  0
 66 63  1  0
 67 65  2  0
 68 69  1  0
 69 70  2  0
 71 74  1  0
 71 70  1  0
 72 71  2  0
 73 72  1  0
 73 68  2  0
 74 75  1  0
 75 80  2  0
 75 76  1  0
 76 77  2  0
 77 78  1  0
 78 82  1  0
 79 78  2  0
 80 79  1  0
 81 80  1  0
 83 84  1  0
 84 86  1  0
 84 87  1  0
 85 83  2  0
 88 63  1  0
 88 89  1  0
 90 88  1  0
 91 93  1  0
 92 62  1  0
 92 91  1  0
 92 93  1  0
 93 94  1  0
 94 95  1  0
M  ISO  4   8 101   9 101  54 100  62 100
M  END
>  <TORSDO>  (44) 
F 22

>  <SCORE>  (44) 
-10.616

>  <name>  (44) 
43

>  <ligand_id>  (44) 
43

>  <original_smiles>  (44) 
[H]N=c1c([H])c1N(C(=O)N1C([H])([H])C([H])([H])C([H])([H])C([H])(n2nc(-c3c([H])c([H])c(Oc4c([H])c([H])c(F)c([H])c4F)c([H])c3[H])c(C(=O)N([H])[H])c2N([H])[H])C1([H])[H])C([H])([H])C([H])(O[H])C1([H])C([H])(C([H])([H])[H])C([H])([H])[N+]1([H])C([H])([H])C([H])([H])Oc1c([H])c([H])c2c(c1[H])C([H])([H])N(C(=O)C([H])(N([H])C(=O)C([H])(N([H])C([H])([H])[H])C([H])([H])[H])C(C([H])([H])[H])(C([H])([H])[H])C([H])([H])[H])C([H])(C(=O)N([H])C1([H])c3c([H])c([H])c([H])c([H])c3C([H])([H])C([H])([H])C1([H])[H])C2([H])[H]

>  <smiles>  (44) 
[H]N=c1c([H])c1N(C(=O)N1C([H])([H])C([H])([H])C([H])([H])C([H])(n2nc(-c3c([H])c([H])c(Oc4c([H])c([H])c(F)c([H])c4F)c([H])c3[H])c(C(=O)N([H])[H])c2N([H])[H])C1([H])[H])C([H])([H])C([H])(O[H])C1([H])C([H])(C([H])([H])[H])C([H])([H])[N+]1([H])C([H])([H])C([H])([H])Oc1c([H])c([H])c2c(c1[H])C([H])([H])N(C(=O)C([H])(N([H])C(=O)C([H])(N([H])C([H])([H])[H])C([H])([H])[H])C(C([H])([H])[H])(C([H])([H])[H])C([H])([H])[H])C([H])(C(=O)N([H])C1([H])c3c([H])c([H])c([H])c([H])c3C([H])([H])C([H])([H])C1([H])[H])C2([H])[H]

$$$$
44:0:0
     RDKit          3D

 94102  0  0  1  0  0  0  0  0999 V2000
  -27.2770  -19.9250   20.3620 C   0  0  0  0  0  0  0  0  0  0  0  0
  -27.2150  -21.1530   19.4570 C   0  0  0  0  0  2  0  0  0  0  0  0
  -28.7410  -20.2530   20.7030 C   0  0  0  0  0  3  0  0  0  0  0  0
  -28.5860  -21.5040   19.8840 N   0  0  2  0  0  4  0  0  0  0  0  0
  -26.4790  -19.0340   20.6750 O   0  0  0  0  0  0  0  0  0  0  0  0
  -29.2240  -21.4890   19.1020 H   0  0  0  0  0  0  0  0  0  0  0  0
  -29.6850  -18.7950   18.7310 C   0  0  0  0  0  1  0  0  0  0  0  0
  -29.7820  -19.1610   20.2340 C   0  0  0  0  0  3  0  0  0  0  0  0
  -29.6920  -17.8620   21.1210 C   0  0  0  0  0  2  0  0  0  0  0  0
  -31.0820  -16.4520   22.6800 C   0  0  0  0  0  1  0  0  0  0  0  0
  -32.2140  -17.3540   20.6700 C   0  0  0  0  0  1  0  0  0  0  0  0
  -30.8670  -16.8050   21.1920 C   0  0  2  0  0  0  0  0  0  0  0  0
  -31.1270  -14.5070   19.9840 C   0  0  0  0  0  0  0  0  0  0  0  0
  -30.7860  -12.2790   18.9530 C   0  0  0  0  0  2  0  0  0  0  0  0
  -29.8060  -12.3960   17.7700 C   0  0  0  0  0  2  0  0  0  0  0  0
  -28.3440  -12.3020   18.2520 C   0  0  0  0  0  2  0  0  0  0  0  0
  -28.0510  -13.2360   19.4580 C   0  0  0  0  0  3  0  0  0  0  0  0
  -29.1330  -13.0640   20.5460 C   0  0  0  0  0  2  0  0  0  0  0  0
  -30.4400  -13.3340   19.9200 N   0  0  0  0  0  0  0  0  0  0  0  0
  -32.2360  -14.6530   19.4630 O   0  0  0  0  0  0  0  0  0  0  0  0
  -30.4540  -15.5130   20.5900 N   0  0  0  0  0  0  0  0  0  0  0  0
  -29.5210  -15.2290   20.8440 H   0  0  0  0  0  0  0  0  0  0  0  0
  -25.7110  -13.9560   20.2510 C   0  0  0  0  0  0  0  0  0  0  0  0
  -24.6220  -13.2330   20.6600 C   0  0  0  0  0  0  0  0  0  0  0  0
  -25.0200  -11.8610   20.6150 C   0  0  0  0  0  0  0  0  0  0  0  0
  -26.7060  -13.0260   19.9870 N   0  0  0  0  0  0  0  0  0  0  0  0
  -26.2940  -11.7620   20.2610 N   0  0  0  0  0  0  0  0  0  0  0  0
  -24.2450  -10.6330   20.8330 C   0  0  0  0  0  0  0  0  0  0  0  0
  -24.6450   -9.6670   21.7830 C   0  0  0  0  0  3  0  0  0  0  0  0
  -23.8750   -8.5030   21.9870 C   0  0  0  0  0  3  0  0  0  0  0  0
  -22.6900   -8.2960   21.2430 C   0  0  0  0  0  0  0  0  0  0  0  0
  -22.3080   -9.2500   20.2830 C   0  0  0  0  0  3  0  0  0  0  0  0
  -23.0790  -10.4060   20.0770 C   0  0  0  0  0  3  0  0  0  0  0  0
  -21.8930   -7.1830   21.3560 O   0  0  0  0  0  0  0  0  0  0  0  0
  -21.7860   -6.4910   22.5350 C   0  0  0  0  0  0  0  0  0  0  0  0
  -21.3660   -7.1150   23.7300 C   0  0  0  0  0  3  0  0  0  0  0  0
  -21.2030   -6.3510   24.9030 C   0  0  0  0  0  3  0  0  0  0  0  0
  -21.4520   -4.9650   24.8820 C   0  0  0  0  0  0  0  0  0  0  0  0
  -21.8640   -4.3420   23.6910 C   0  0  0  0  0  3  0  0  0  0  0  0
  -22.0280   -5.1030   22.5210 C   0  0  0  0  0  0  0  0  0  0  0  0
  -22.4060   -4.4930   21.3720 F   0  0  0  0  0  0  0  0  0  0  0  0
  -21.2880   -4.2300   26.0070 F   0  0  0  0  0  0  0  0  0  0  0  0
  -23.2590  -13.7740   20.9830 C   0  0  0  0  0  0  0  0  0  0  0  0
  -22.5390  -13.1220   21.8870 N   0  0  0  0  0  0  0  0  0  0  0  0
  -22.8430  -14.8100   20.4660 O   0  0  0  0  0  0  0  0  0  0  0  0
  -22.8900  -12.2850   22.3310 H   0  0  0  0  0  0  0  0  0  0  0  0
  -21.6250  -13.4680   22.1460 H   0  0  0  0  0  0  0  0  0  0  0  0
  -25.9370  -15.3160   20.0650 N   0  0  0  0  0  0  0  0  0  0  0  0
  -25.2150  -16.0130   20.2070 H   0  0  0  0  0  0  0  0  0  0  0  0
  -26.7980  -15.7090   19.7030 H   0  0  0  0  0  0  0  0  0  0  0  0
  -28.6690  -22.8130   20.6230 C   0  0  0  0  0  2  0  0  0  0  0  0
  -28.3850  -24.1070   19.7730 C   0  0  0  0  0  2  0  0  0  0  0  0
  -28.2260  -25.4040   20.6300 C   0  0  0  0  0  2  0  0  0  0  0  0
  -28.3240  -26.6650   19.9200 O   0  0  0  0  0  0  0  0  0  0  0  0
  -24.6290  -31.8490   23.1860 C   0  0  0  0  0  0  0  0  0  0  0  0
  -27.1870  -27.4500   19.9490 C   0  0  0  0  0  0  0  0  0  0  0  0
  -23.3890  -30.4890   21.5380 C   0  0  0  0  0  3  0  0  0  0  0  0
  -24.8100  -28.9840   20.0420 C   0  0  0  0  0  0  0  0  0  0  0  0
  -25.9150  -30.8390   21.3010 C   0  0  0  0  0  2  0  0  0  0  0  0
  -25.9830  -29.4850   20.6180 C   0  0  0  0  0  0  0  0  0  0  0  0
  -27.1810  -28.7280   20.5600 C   0  0  0  0  0  3  0  0  0  0  0  0
  -25.9990  -26.9710   19.3630 C   0  0  0  0  0  3  0  0  0  0  0  0
  -24.8140  -27.7290   19.4070 C   0  0  0  0  0  3  0  0  0  0  0  0
  -23.5680  -29.8450   20.1380 C   0  0  0  0  0  2  0  0  0  0  0  0
  -24.6640  -31.0730   22.0660 N   0  0  0  0  0  0  0  0  0  0  0  0
  -23.5590  -32.1110   23.7520 O   0  0  0  0  0  0  0  0  0  0  0  0
  -22.7540  -29.4450   22.4850 C   0  0  0  0  0  0  0  0  0  0  0  0
  -21.4280  -29.2650   22.3730 N   0  0  0  0  0  0  0  0  0  0  0  0
  -23.4490  -28.8030   23.2760 O   0  0  0  0  0  0  0  0  0  0  0  0
  -20.9270  -29.8340   21.7050 H   0  0  0  0  0  0  0  0  0  0  0  0
  -18.0660  -28.0370   22.8780 C   0  0  0  0  0  0  0  0  0  0  0  0
  -20.6230  -28.3090   23.1360 C   0  0  0  0  0  3  0  0  0  0  0  0
  -20.7320  -26.8880   22.5370 C   0  0  0  0  0  2  0  0  0  0  0  0
  -19.6270  -26.5730   21.5240 C   0  0  0  0  0  2  0  0  0  0  0  0
  -18.2460  -26.7020   22.1750 C   0  0  0  0  0  2  0  0  0  0  0  0
  -19.1810  -28.8010   23.3120 C   0  0  0  0  0  0  0  0  0  0  0  0
  -18.9590  -30.0520   23.9250 C   0  0  0  0  0  3  0  0  0  0  0  0
  -17.6530  -30.5420   24.1070 C   0  0  0  0  0  3  0  0  0  0  0  0
  -16.5510  -29.7760   23.6910 C   0  0  0  0  0  3  0  0  0  0  0  0
  -16.7580  -28.5240   23.0820 C   0  0  0  0  0  3  0  0  0  0  0  0
  -25.9270  -32.4650   23.7950 C   0  0  0  0  0  3  0  0  0  0  0  0
  -25.6270  -33.8550   24.1640 N   0  0  0  0  0  0  0  0  0  0  0  0
  -25.9470  -34.9250   23.4230 C   0  0  0  0  0  0  0  0  0  0  0  0
  -26.5960  -34.8440   22.3770 O   0  0  0  0  0  0  0  0  0  0  0  0
  -25.0530  -33.9920   24.9830 H   0  0  0  0  0  0  0  0  0  0  0  0
  -24.2120  -36.7240   23.1420 C   0  0  0  0  0  1  0  0  0  0  0  0
  -25.4680  -36.3020   23.9220 C   0  0  0  0  0  3  0  0  0  0  0  0
  -27.6220  -37.1620   24.7310 C   0  0  0  0  0  1  0  0  0  0  0  0
  -26.5000  -37.3570   23.8160 N   0  0  0  0  0  0  0  0  0  0  0  0
  -26.0980  -38.2730   23.9950 H   0  0  0  0  0  0  0  0  0  0  0  0
  -26.4690  -31.6650   25.0420 C   0  0  1  0  0  0  0  0  0  0  0  0
  -25.3980  -31.4080   26.1280 C   0  0  0  0  0  1  0  0  0  0  0  0
  -27.0390  -30.2940   24.6070 C   0  0  0  0  0  1  0  0  0  0  0  0
  -27.6390  -32.4400   25.6940 C   0  0  0  0  0  1  0  0  0  0  0  0
  1  5  2  0
  1  3  1  0
  2  4  1  0
  2  1  1  0
  3  8  1  0
  4 51  1  0
  4  3  1  0
  4  6  1  6
  8  7  1  0
  8  9  1  0
  9 12  1  0
 12 11  1  6
 12 10  1  0
 13 21  1  0
 14 19  1  0
 15 16  1  0
 15 14  1  0
 17 16  1  0
 17 26  1  0
 17 18  1  0
 19 13  1  0
 19 18  1  0
 20 13  2  0
 21 22  1  0
 21 12  1  0
 23 24  2  0
 24 43  1  0
 25 24  1  0
 25 28  1  0
 26 23  1  0
 26 27  1  0
 27 25  2  0
 28 29  1  0
 29 30  2  0
 31 34  1  0
 31 30  1  0
 32 31  2  0
 33 32  1  0
 33 28  2  0
 34 35  1  0
 35 36  1  0
 36 37  2  0
 38 37  1  0
 38 42  1  0
 39 38  2  0
 40 35  2  0
 40 39  1  0
 41 40  1  0
 43 44  1  0
 44 47  1  0
 44 46  1  0
 45 43  2  0
 48 49  1  0
 48 23  1  0
 50 48  1  0
 52 51  1  0
 52 53  1  0
 54 56  1  0
 54 53  1  0
 55 66  2  0
 56 61  1  0
 57 65  1  0
 57 67  1  0
 58 64  1  0
 58 60  1  0
 59 65  1  0
 60 59  1  0
 61 60  2  0
 62 63  1  0
 62 56  2  0
 63 58  2  0
 64 57  1  0
 65 55  1  0
 67 69  2  0
 68 67  1  0
 70 68  1  0
 71 80  2  0
 71 76  1  0
 72 68  1  0
 72 76  1  0
 73 72  1  0
 74 75  1  0
 74 73  1  0
 75 71  1  0
 76 77  2  0
 77 78  1  0
 79 78  2  0
 80 79  1  0
 81 55  1  0
 81 82  1  0
 81 91  1  0
 82 85  1  0
 83 87  1  0
 83 82  1  0
 84 83  2  0
 87 86  1  0
 89 87  1  0
 89 90  1  0
 89 88  1  0
 91 94  1  1
 91 92  1  0
 93 91  1  0
M  ISO  4  13 100  21 100  53 101  54 101
M  END
>  <TORSDO>  (45) 
F 22

>  <SCORE>  (45) 
-11.137

>  <name>  (45) 
44

>  <ligand_id>  (45) 
44

>  <original_smiles>  (45) 
[H]c1c([H])c([H])c2c(c1[H])C([H])([H])C([H])([H])C([H])([H])C2([H])N([H])C(=O)C1([H])N(C(=O)C([H])(N([H])C(=O)C([H])(N([H])C([H])([H])[H])C([H])([H])[H])C(C([H])([H])[H])(C([H])([H])[H])C([H])([H])[H])C([H])([H])c2c([H])c(OC([H])([H])C([H])([H])C([H])([H])[N+]3([H])C([H])([H])C(=O)C3([H])C([H])(C([H])([H])[H])C([H])([H])C(N([H])C(=O)N3C([H])([H])C([H])([H])C([H])([H])C([H])(n4nc(-c5c([H])c([H])c(Oc6c([H])c([H])c(F)c([H])c6F)c([H])c5[H])c(C(=O)N([H])[H])c4N([H])[H])C3([H])[H])(C([H])([H])[H])C([H])([H])[H])c([H])c([H])c2C1([H])[H]

>  <smiles>  (45) 
[H]c1c([H])c([H])c2c(c1[H])C([H])([H])C([H])([H])C([H])([H])C2([H])N([H])C(=O)C1([H])N(C(=O)C([H])(N([H])C(=O)C([H])(N([H])C([H])([H])[H])C([H])([H])[H])C(C([H])([H])[H])(C([H])([H])[H])C([H])([H])[H])C([H])([H])c2c([H])c(OC([H])([H])C([H])([H])C([H])([H])[N+]3([H])C([H])([H])C(=O)C3([H])C([H])(C([H])([H])[H])C([H])([H])C(N([H])C(=O)N3C([H])([H])C([H])([H])C([H])([H])C([H])(n4nc(-c5c([H])c([H])c(Oc6c([H])c([H])c(F)c([H])c6F)c([H])c5[H])c(C(=O)N([H])[H])c4N([H])[H])C3([H])[H])(C([H])([H])[H])C([H])([H])[H])c([H])c([H])c2C1([H])[H]

$$$$
45:0:0
     RDKit          3D

 91 99  0  0  1  0  0  0  0  0999 V2000
  -30.2250  -20.6290   18.1350 C   0  0  0  0  0  3  0  0  0  0  0  0
  -30.0480  -19.3650   18.7290 C   0  0  0  0  0  3  0  0  0  0  0  0
  -29.8750  -21.8010   18.8330 C   0  0  0  0  0  3  0  0  0  0  0  0
  -29.2190  -20.4440   20.7470 C   0  0  0  0  0  3  0  0  0  0  0  0
  -29.5300  -19.2590   20.0360 C   0  0  0  0  0  0  0  0  0  0  0  0
  -29.3710  -21.7260   20.1510 C   0  0  0  0  0  0  0  0  0  0  0  0
  -29.1900  -17.8690   20.5880 C   0  0  0  0  0  2  0  0  0  0  0  0
  -30.3950  -16.9170   20.7710 C   0  0  0  0  0  2  0  0  0  0  0  0
  -30.6860  -14.4610   20.4000 C   0  0  0  0  0  0  0  0  0  0  0  0
  -30.3500  -12.3140   19.2460 C   0  0  0  0  0  2  0  0  0  0  0  0
  -29.4040  -12.5430   18.0500 C   0  0  0  0  0  2  0  0  0  0  0  0
  -27.9330  -12.4100   18.4930 C   0  0  0  0  0  2  0  0  0  0  0  0
  -27.6090  -13.2370   19.7660 C   0  0  0  0  0  3  0  0  0  0  0  0
  -28.6760  -13.0120   20.8630 C   0  0  0  0  0  2  0  0  0  0  0  0
  -29.9980  -13.2960   20.2790 N   0  0  0  0  0  0  0  0  0  0  0  0
  -31.8250  -14.6220   19.9510 O   0  0  0  0  0  0  0  0  0  0  0  0
  -29.9830  -15.5070   20.8660 N   0  0  0  0  0  0  0  0  0  0  0  0
  -29.0410  -15.3150   21.1730 H   0  0  0  0  0  0  0  0  0  0  0  0
  -25.2140  -13.8390   20.4990 C   0  0  0  0  0  0  0  0  0  0  0  0
  -24.1500  -13.0650   20.8760 C   0  0  0  0  0  0  0  0  0  0  0  0
  -24.6140  -11.7140   20.8370 C   0  0  0  0  0  0  0  0  0  0  0  0
  -26.2590  -12.9610   20.2560 N   0  0  0  0  0  0  0  0  0  0  0  0
  -25.9020  -11.6770   20.5180 N   0  0  0  0  0  0  0  0  0  0  0  0
  -23.8900  -10.4500   21.0290 C   0  0  0  0  0  0  0  0  0  0  0  0
  -24.3220   -9.4870   21.9660 C   0  0  0  0  0  3  0  0  0  0  0  0
  -23.6010   -8.2860   22.1440 C   0  0  0  0  0  3  0  0  0  0  0  0
  -22.4310   -8.0420   21.3870 C   0  0  0  0  0  0  0  0  0  0  0  0
  -22.0200   -8.9940   20.4370 C   0  0  0  0  0  3  0  0  0  0  0  0
  -22.7420  -10.1860   20.2580 C   0  0  0  0  0  3  0  0  0  0  0  0
  -21.6810   -6.8950   21.4740 O   0  0  0  0  0  0  0  0  0  0  0  0
  -21.6260   -6.1570   22.6290 C   0  0  0  0  0  0  0  0  0  0  0  0
  -21.1690   -6.7090   23.8470 C   0  0  0  0  0  3  0  0  0  0  0  0
  -21.0670   -5.8960   24.9930 C   0  0  0  0  0  3  0  0  0  0  0  0
  -21.4080   -4.5310   24.9230 C   0  0  0  0  0  0  0  0  0  0  0  0
  -21.8570   -3.9810   23.7100 C   0  0  0  0  0  3  0  0  0  0  0  0
  -21.9640   -4.7900   22.5670 C   0  0  0  0  0  0  0  0  0  0  0  0
  -22.3760   -4.2490   21.3940 F   0  0  0  0  0  0  0  0  0  0  0  0
  -21.3020   -3.7470   26.0220 F   0  0  0  0  0  0  0  0  0  0  0  0
  -22.7530  -13.5380   21.1580 C   0  0  0  0  0  0  0  0  0  0  0  0
  -22.0300  -12.8380   22.0250 N   0  0  0  0  0  0  0  0  0  0  0  0
  -22.3110  -14.5640   20.6430 O   0  0  0  0  0  0  0  0  0  0  0  0
  -22.3990  -12.0060   22.4630 H   0  0  0  0  0  0  0  0  0  0  0  0
  -21.0940  -13.1380   22.2550 H   0  0  0  0  0  0  0  0  0  0  0  0
  -25.3760  -15.2110   20.3230 N   0  0  0  0  0  0  0  0  0  0  0  0
  -24.6060  -15.8620   20.4380 H   0  0  0  0  0  0  0  0  0  0  0  0
  -26.2140  -15.6520   19.9660 H   0  0  0  0  0  0  0  0  0  0  0  0
  -28.8840  -22.9660   20.9200 C   0  0  0  0  0  2  0  0  0  0  0  0
  -30.7600  -24.7050   20.8440 C   0  0  0  0  0  1  0  0  0  0  0  0
  -29.3180  -24.3800   20.4280 C   0  0  0  0  0  3  0  0  0  0  0  0
  -28.3500  -25.4630   20.9580 C   0  0  0  0  0  2  0  0  0  0  0  0
  -28.4830  -26.7100   20.2610 O   0  0  0  0  0  0  0  0  0  0  0  0
  -24.6000  -31.8660   23.2410 C   0  0  0  0  0  0  0  0  0  0  0  0
  -27.3220  -27.4450   20.2220 C   0  0  0  0  0  0  0  0  0  0  0  0
  -23.4270  -30.4500   21.5870 C   0  0  0  0  0  3  0  0  0  0  0  0
  -24.9150  -28.9200   20.1870 C   0  0  0  0  0  0  0  0  0  0  0  0
  -25.9540  -30.8310   21.4250 C   0  0  0  0  0  2  0  0  0  0  0  0
  -26.0610  -29.4600   20.7880 C   0  0  0  0  0  0  0  0  0  0  0  0
  -27.2710  -28.7340   20.7940 C   0  0  0  0  0  3  0  0  0  0  0  0
  -26.1670  -26.9190   19.6030 C   0  0  0  0  0  3  0  0  0  0  0  0
  -24.9630  -27.6480   19.5920 C   0  0  0  0  0  3  0  0  0  0  0  0
  -23.6590  -29.7630   20.2150 C   0  0  0  0  0  2  0  0  0  0  0  0
  -24.6770  -31.0640   22.1420 N   0  0  0  0  0  0  0  0  0  0  0  0
  -23.5100  -32.1330   23.7640 O   0  0  0  0  0  0  0  0  0  0  0  0
  -22.7670  -29.4290   22.5410 C   0  0  0  0  0  0  0  0  0  0  0  0
  -21.4430  -29.2520   22.4040 N   0  0  0  0  0  0  0  0  0  0  0  0
  -23.4430  -28.8000   23.3600 O   0  0  0  0  0  0  0  0  0  0  0  0
  -20.9600  -29.8090   21.7140 H   0  0  0  0  0  0  0  0  0  0  0  0
  -18.0530  -28.1050   22.8960 C   0  0  0  0  0  0  0  0  0  0  0  0
  -20.6160  -28.3170   23.1650 C   0  0  0  0  0  3  0  0  0  0  0  0
  -20.6920  -26.8910   22.5690 C   0  0  0  0  0  2  0  0  0  0  0  0
  -19.5820  -26.6020   21.5540 C   0  0  0  0  0  2  0  0  0  0  0  0
  -18.2050  -26.7610   22.2050 C   0  0  0  0  0  2  0  0  0  0  0  0
  -19.1840  -28.8430   23.3320 C   0  0  0  0  0  0  0  0  0  0  0  0
  -18.9850  -30.1060   23.9340 C   0  0  0  0  0  3  0  0  0  0  0  0
  -17.6890  -30.6260   24.1040 C   0  0  0  0  0  3  0  0  0  0  0  0
  -16.5730  -29.8820   23.6860 C   0  0  0  0  0  3  0  0  0  0  0  0
  -16.7560  -28.6230   23.0870 C   0  0  0  0  0  3  0  0  0  0  0  0
  -25.8730  -32.5060   23.8780 C   0  0  0  0  0  3  0  0  0  0  0  0
  -25.5520  -33.9040   24.1930 N   0  0  0  0  0  0  0  0  0  0  0  0
  -25.9020  -34.9510   23.4350 C   0  0  0  0  0  0  0  0  0  0  0  0
  -26.5970  -34.8420   22.4220 O   0  0  0  0  0  0  0  0  0  0  0  0
  -24.9300  -34.0620   24.9730 H   0  0  0  0  0  0  0  0  0  0  0  0
  -24.1870  -36.7410   23.0220 C   0  0  0  0  0  1  0  0  0  0  0  0
  -25.4030  -36.3410   23.8720 C   0  0  0  0  0  3  0  0  0  0  0  0
  -27.5100  -37.2270   24.7660 C   0  0  0  0  0  1  0  0  0  0  0  0
  -26.4390  -37.3910   23.7860 N   0  0  0  0  0  0  0  0  0  0  0  0
  -26.0310  -38.3130   23.9140 H   0  0  0  0  0  0  0  0  0  0  0  0
  -26.3710  -31.7430   25.1660 C   0  0  1  0  0  0  0  0  0  0  0  0
  -25.2580  -31.5060   26.2170 C   0  0  0  0  0  1  0  0  0  0  0  0
  -26.9650  -30.3670   24.7890 C   0  0  0  0  0  1  0  0  0  0  0  0
  -27.5070  -32.5460   25.8400 C   0  0  0  0  0  1  0  0  0  0  0  0
  1  2  2  0
  1  3  1  0
  2  5  1  0
  3  6  2  0
  5  7  1  0
  5  4  2  0
  6  4  1  0
  6 47  1  0
  7  8  1  0
  8 17  1  0
  9 17  1  0
 10 15  1  0
 11 12  1  0
 11 10  1  0
 13 12  1  0
 13 22  1  0
 13 14  1  0
 15  9  1  0
 15 14  1  0
 16  9  2  0
 17 18  1  0
 19 20  2  0
 20 39  1  0
 21 20  1  0
 21 24  1  0
 22 19  1  0
 22 23  1  0
 23 21  2  0
 24 25  1  0
 25 26  2  0
 27 30  1  0
 27 26  1  0
 28 27  2  0
 29 28  1  0
 29 24  2  0
 30 31  1  0
 31 32  1  0
 32 33  2  0
 34 33  1  0
 34 38  1  0
 35 34  2  0
 36 31  2  0
 36 35  1  0
 37 36  1  0
 39 40  1  0
 40 43  1  0
 40 42  1  0
 41 39  2  0
 44 45  1  0
 44 19  1  0
 46 44  1  0
 49 48  1  0
 49 47  1  0
 49 50  1  0
 51 50  1  0
 52 63  2  0
 53 51  1  0
 53 58  1  0
 54 62  1  0
 54 64  1  0
 55 61  1  0
 55 57  1  0
 56 62  1  0
 57 58  2  0
 57 56  1  0
 59 53  2  0
 60 59  1  0
 60 55  2  0
 61 54  1  0
 62 52  1  0
 64 66  2  0
 65 64  1  0
 67 65  1  0
 68 77  2  0
 68 73  1  0
 69 65  1  0
 69 73  1  0
 70 69  1  0
 71 72  1  0
 71 70  1  0
 72 68  1  0
 73 74  2  0
 74 75  1  0
 76 75  2  0
 77 76  1  0
 78 52  1  0
 78 79  1  0
 78 88  1  0
 79 82  1  0
 80 84  1  0
 80 79  1  0
 81 80  2  0
 84 83  1  0
 86 84  1  0
 86 87  1  0
 86 85  1  0
 88 91  1  1
 88 89  1  0
 90 88  1  0
M  ISO  4   9 100  17 100  50 101  51 101
M  END
>  <TORSDO>  (46) 
F 21

>  <SCORE>  (46) 
-13.620

>  <name>  (46) 
45

>  <ligand_id>  (46) 
45

>  <original_smiles>  (46) 
[H]c1c([H])c([H])c2c(c1[H])C([H])([H])C([H])([H])C([H])([H])C2([H])N([H])C(=O)C1([H])N(C(=O)C([H])(N([H])C(=O)C([H])(N([H])C([H])([H])[H])C([H])([H])[H])C(C([H])([H])[H])(C([H])([H])[H])C([H])([H])[H])C([H])([H])c2c([H])c(OC([H])([H])C([H])(C([H])([H])[H])C([H])([H])c3c([H])c([H])c([H])c(C([H])([H])C([H])([H])N([H])C(=O)N4C([H])([H])C([H])([H])C([H])([H])C([H])(n5nc(-c6c([H])c([H])c(Oc7c([H])c([H])c(F)c([H])c7F)c([H])c6[H])c(C(=O)N([H])[H])c5N([H])[H])C4([H])[H])c3[H])c([H])c([H])c2C1([H])[H]

>  <smiles>  (46) 
[H]c1c([H])c([H])c2c(c1[H])C([H])([H])C([H])([H])C([H])([H])C2([H])N([H])C(=O)C1([H])N(C(=O)C([H])(N([H])C(=O)C([H])(N([H])C([H])([H])[H])C([H])([H])[H])C(C([H])([H])[H])(C([H])([H])[H])C([H])([H])[H])C([H])([H])c2c([H])c(OC([H])([H])C([H])(C([H])([H])[H])C([H])([H])c3c([H])c([H])c([H])c(C([H])([H])C([H])([H])N([H])C(=O)N4C([H])([H])C([H])([H])C([H])([H])C([H])(n5nc(-c6c([H])c([H])c(Oc7c([H])c([H])c(F)c([H])c7F)c([H])c6[H])c(C(=O)N([H])[H])c5N([H])[H])C4([H])[H])c3[H])c([H])c([H])c2C1([H])[H]

$$$$
46:0:0
     RDKit          3D

 96104  0  0  1  0  0  0  0  0999 V2000
  -29.3230  -18.3460   20.1440 C   0  0  0  0  0  0  0  0  0  0  0  0
  -28.2660  -17.8410   19.7620 O   0  0  0  0  0  0  0  0  0  0  0  0
  -29.3390  -19.8770   20.5880 C   0  0  0  0  0  2  0  0  0  0  0  0
  -28.8480  -21.0540   18.2840 C   0  0  0  0  0  2  0  0  0  0  0  0
  -27.4730  -20.7820   18.8380 C   0  0  0  0  0  2  0  0  0  0  0  0
  -28.6350  -21.0560   19.7850 C   0  0  1  0  0  0  0  0  0  0  0  0
  -28.5400  -22.4330   20.5840 C   0  0  0  0  0  2  0  0  0  0  0  0
  -28.5440  -23.8540   19.8170 C   0  0  0  0  0  3  0  0  0  0  0  0
  -28.1180  -25.1680   20.6390 C   0  0  0  0  0  3  0  0  0  0  0  0
  -28.2850  -26.5400   20.0820 O   0  0  0  0  0  0  0  0  0  0  0  0
  -24.5520  -31.9250   23.1590 C   0  0  0  0  0  0  0  0  0  0  0  0
  -27.1690  -27.3920   20.0740 C   0  0  0  0  0  0  0  0  0  0  0  0
  -23.3490  -30.5310   21.5150 C   0  0  0  0  0  3  0  0  0  0  0  0
  -24.7980  -28.9910   20.0760 C   0  0  0  0  0  0  0  0  0  0  0  0
  -25.8870  -30.8590   21.3290 C   0  0  0  0  0  2  0  0  0  0  0  0
  -25.9700  -29.4870   20.6680 C   0  0  0  0  0  0  0  0  0  0  0  0
  -27.1630  -28.7020   20.6470 C   0  0  0  0  0  3  0  0  0  0  0  0
  -25.9770  -26.9460   19.4660 C   0  0  0  0  0  3  0  0  0  0  0  0
  -24.8030  -27.7250   19.4670 C   0  0  0  0  0  3  0  0  0  0  0  0
  -23.5600  -29.8630   20.1310 C   0  0  0  0  0  2  0  0  0  0  0  0
  -24.6140  -31.1240   22.0570 N   0  0  0  0  0  0  0  0  0  0  0  0
  -23.4700  -32.1980   23.6970 O   0  0  0  0  0  0  0  0  0  0  0  0
  -22.6930  -29.5080   22.4710 C   0  0  0  0  0  0  0  0  0  0  0  0
  -21.3690  -29.3180   22.3380 N   0  0  0  0  0  0  0  0  0  0  0  0
  -23.3740  -28.8910   23.2950 O   0  0  0  0  0  0  0  0  0  0  0  0
  -20.8780  -29.8620   21.6430 H   0  0  0  0  0  0  0  0  0  0  0  0
  -18.0020  -28.0850   22.8130 C   0  0  0  0  0  0  0  0  0  0  0  0
  -20.5560  -28.3720   23.1050 C   0  0  0  0  0  3  0  0  0  0  0  0
  -20.6800  -26.9440   22.5270 C   0  0  0  0  0  2  0  0  0  0  0  0
  -19.5880  -26.6100   21.5050 C   0  0  0  0  0  2  0  0  0  0  0  0
  -18.2000  -26.7400   22.1360 C   0  0  0  0  0  2  0  0  0  0  0  0
  -19.1100  -28.8580   23.2540 C   0  0  0  0  0  0  0  0  0  0  0  0
  -18.8720  -30.1180   23.8460 C   0  0  0  0  0  3  0  0  0  0  0  0
  -17.5630  -30.6040   24.0000 C   0  0  0  0  0  3  0  0  0  0  0  0
  -16.4690  -29.8280   23.5790 C   0  0  0  0  0  3  0  0  0  0  0  0
  -16.6900  -28.5690   22.9920 C   0  0  0  0  0  3  0  0  0  0  0  0
  -25.8370  -32.5540   23.7850 C   0  0  0  0  0  3  0  0  0  0  0  0
  -26.3640  -31.7680   25.0470 C   0  0  1  0  0  0  0  0  0  0  0  0
  -25.2770  -31.5100   26.1150 C   0  0  0  0  0  1  0  0  0  0  0  0
  -26.9540  -30.3990   24.6370 C   0  0  0  0  0  1  0  0  0  0  0  0
  -27.5130  -32.5600   25.7160 C   0  0  0  0  0  1  0  0  0  0  0  0
  -25.5230  -33.9450   24.1420 N   0  0  0  0  0  0  0  0  0  0  0  0
  -25.8360  -35.0120   23.3950 C   0  0  0  0  0  0  0  0  0  0  0  0
  -26.4940  -34.9310   22.3530 O   0  0  0  0  0  0  0  0  0  0  0  0
  -24.9400  -34.0840   24.9540 H   0  0  0  0  0  0  0  0  0  0  0  0
  -24.0900  -36.7930   23.0940 C   0  0  0  0  0  1  0  0  0  0  0  0
  -25.3450  -36.3890   23.8820 C   0  0  0  0  0  3  0  0  0  0  0  0
  -27.4820  -37.2780   24.7000 C   0  0  0  0  0  1  0  0  0  0  0  0
  -26.3700  -37.4510   23.7690 N   0  0  0  0  0  0  0  0  0  0  0  0
  -25.9570  -38.3650   23.9370 H   0  0  0  0  0  0  0  0  0  0  0  0
  -30.6080  -17.3990   20.3300 C   0  0  0  0  0  3  0  0  0  0  0  0
  -31.1800  -14.8580   19.9960 C   0  0  0  0  0  0  0  0  0  0  0  0
  -30.9990  -12.4680   19.3170 C   0  0  0  0  0  2  0  0  0  0  0  0
  -30.0580  -12.3750   18.0940 C   0  0  0  0  0  2  0  0  0  0  0  0
  -28.5820  -12.2880   18.5430 C   0  0  0  0  0  2  0  0  0  0  0  0
  -28.2220  -13.3510   19.6130 C   0  0  0  0  0  3  0  0  0  0  0  0
  -29.2770  -13.3860   20.7410 C   0  0  0  0  0  2  0  0  0  0  0  0
  -30.5780  -13.6370   20.1090 N   0  0  0  0  0  0  0  0  0  0  0  0
  -32.3570  -14.9720   19.6480 O   0  0  0  0  0  0  0  0  0  0  0  0
  -30.3400  -15.9340   20.1240 N   0  0  0  0  0  0  0  0  0  0  0  0
  -29.3640  -15.6980   20.1860 H   0  0  0  0  0  0  0  0  0  0  0  0
  -25.9280  -14.1320   20.4660 C   0  0  0  0  0  0  0  0  0  0  0  0
  -24.8110  -13.4430   20.8480 C   0  0  0  0  0  0  0  0  0  0  0  0
  -25.1470  -12.0560   20.7410 C   0  0  0  0  0  0  0  0  0  0  0  0
  -26.8750  -13.1730   20.1410 N   0  0  0  0  0  0  0  0  0  0  0  0
  -26.4160  -11.9170   20.3730 N   0  0  0  0  0  0  0  0  0  0  0  0
  -24.3200  -10.8580   20.9080 C   0  0  0  0  0  0  0  0  0  0  0  0
  -24.7000   -9.8210   21.7890 C   0  0  0  0  0  3  0  0  0  0  0  0
  -23.8820   -8.6800   21.9440 C   0  0  0  0  0  3  0  0  0  0  0  0
  -22.6680   -8.5760   21.2230 C   0  0  0  0  0  0  0  0  0  0  0  0
  -22.3120   -9.6000   20.3270 C   0  0  0  0  0  3  0  0  0  0  0  0
  -23.1280  -10.7300   20.1690 C   0  0  0  0  0  3  0  0  0  0  0  0
  -21.8250   -7.4920   21.2920 O   0  0  0  0  0  0  0  0  0  0  0  0
  -21.7300   -6.7220   22.4240 C   0  0  0  0  0  0  0  0  0  0  0  0
  -21.3510   -7.2700   23.6690 C   0  0  0  0  0  3  0  0  0  0  0  0
  -21.2000   -6.4300   24.7910 C   0  0  0  0  0  3  0  0  0  0  0  0
  -21.4120   -5.0460   24.6680 C   0  0  0  0  0  0  0  0  0  0  0  0
  -21.7820   -4.4950   23.4280 C   0  0  0  0  0  3  0  0  0  0  0  0
  -21.9360   -5.3320   22.3080 C   0  0  0  0  0  0  0  0  0  0  0  0
  -22.2730   -4.7960   21.1100 F   0  0  0  0  0  0  0  0  0  0  0  0
  -21.2570   -4.2390   25.7430 F   0  0  0  0  0  0  0  0  0  0  0  0
  -23.4720  -14.0260   21.2000 C   0  0  0  0  0  0  0  0  0  0  0  0
  -22.7270  -13.3690   22.0780 N   0  0  0  0  0  0  0  0  0  0  0  0
  -23.1020  -15.1020   20.7290 O   0  0  0  0  0  0  0  0  0  0  0  0
  -23.0410  -12.5020   22.4880 H   0  0  0  0  0  0  0  0  0  0  0  0
  -21.8250  -13.7380   22.3490 H   0  0  0  0  0  0  0  0  0  0  0  0
  -26.2080  -15.4930   20.3480 N   0  0  0  0  0  0  0  0  0  0  0  0
  -25.4820  -16.1860   20.4980 H   0  0  0  0  0  0  0  0  0  0  0  0
  -27.0510  -15.8910   19.9550 H   0  0  0  0  0  0  0  0  0  0  0  0
  -32.4670  -18.5600   21.7050 C   0  0  0  0  0  1  0  0  0  0  0  0
  -31.3090  -17.5450   21.7250 C   0  0  0  0  0  3  0  0  0  0  0  0
  -30.3180  -17.8450   22.8950 C   0  0  0  0  0  2  0  0  0  0  0  0
  -30.9590  -17.9170   24.2200 N   0  0  0  0  0  4  0  0  0  0  0  0
  -31.3730  -17.0370   24.4700 H   0  0  0  0  0  0  0  0  0  0  0  0
  -30.2560  -18.1400   24.9040 H   0  0  0  0  0  0  0  0  0  0  0  0
  -31.6650  -18.6340   24.2530 H   0  0  0  0  0  0  0  0  0  0  0  0
  1  3  1  0
  2  1  2  0
  4  5  1  0
  4  6  1  0
  5  6  1  0
  6  7  1  1
  6  3  1  0
  8  7  1  0
  8  9  2  0
 10  9  1  0
 11 22  2  0
 12 10  1  0
 12 17  1  0
 13 21  1  0
 13 23  1  0
 14 20  1  0
 14 16  1  0
 15 21  1  0
 16 15  1  0
 17 16  2  0
 18 19  1  0
 18 12  2  0
 19 14  2  0
 20 13  1  0
 21 11  1  0
 23 25  2  0
 24 23  1  0
 26 24  1  0
 27 36  2  0
 27 32  1  0
 28 24  1  0
 28 32  1  0
 29 28  1  0
 30 31  1  0
 30 29  1  0
 31 27  1  0
 32 33  2  0
 33 34  1  0
 35 34  2  0
 36 35  1  0
 37 11  1  0
 37 42  1  0
 37 38  1  0
 38 41  1  1
 38 39  1  0
 40 38  1  0
 42 45  1  0
 43 47  1  0
 43 42  1  0
 44 43  2  0
 47 46  1  0
 49 47  1  0
 49 50  1  0
 49 48  1  0
 51  1  1  0
 51 91  1  0
 52 58  1  0
 52 60  1  0
 53 58  1  0
 54 55  1  0
 54 53  1  0
 56 55  1  0
 56 65  1  0
 56 57  1  0
 58 57  1  0
 59 52  2  0
 60 61  1  0
 60 51  1  0
 62 63  2  0
 63 82  1  0
 64 63  1  0
 64 67  1  0
 65 66  1  0
 65 62  1  0
 66 64  2  0
 67 68  1  0
 68 69  2  0
 70 73  1  0
 70 69  1  0
 71 70  2  0
 72 71  1  0
 72 67  2  0
 73 74  1  0
 74 75  1  0
 75 76  2  0
 77 76  1  0
 77 81  1  0
 78 77  2  0
 79 74  2  0
 79 78  1  0
 80 79  1  0
 82 83  1  0
 83 86  1  0
 83 85  1  0
 84 82  2  0
 87 62  1  0
 87 88  1  0
 89 87  1  0
 91 90  1  0
 91 92  1  0
 92 93  1  0
 93 96  1  0
 93 94  1  0
 93 95  1  0
M  ISO  4   9 101  10 101  52 100  60 100
M  END
>  <TORSDO>  (47) 
F 25

>  <SCORE>  (47) 
-11.269

>  <name>  (47) 
46

>  <ligand_id>  (47) 
46

>  <original_smiles>  (47) 
[H]c1c([H])c([H])c2c(c1[H])C([H])([H])C([H])([H])C([H])([H])C2([H])N([H])C(=O)C1([H])N(C(=O)C([H])(N([H])C(=O)C([H])(N([H])C([H])([H])[H])C([H])([H])[H])C(C([H])([H])[H])(C([H])([H])[H])C([H])([H])[H])C([H])([H])c2c([H])c(OC([H])([H])C([H])([H])C([H])([H])C3(C([H])([H])C(=O)C([H])(N([H])C(=O)N4C([H])([H])C([H])([H])C([H])([H])C([H])(n5nc(-c6c([H])c([H])c(Oc7c([H])c([H])c(F)c([H])c7F)c([H])c6[H])c(C(=O)N([H])[H])c5N([H])[H])C4([H])[H])C([H])(C([H])([H])[H])C([H])([H])[N+]([H])([H])[H])C([H])([H])C3([H])[H])c([H])c([H])c2C1([H])[H]

>  <smiles>  (47) 
[H]c1c([H])c([H])c2c(c1[H])C([H])([H])C([H])([H])C([H])([H])C2([H])N([H])C(=O)C1([H])N(C(=O)C([H])(N([H])C(=O)C([H])(N([H])C([H])([H])[H])C([H])([H])[H])C(C([H])([H])[H])(C([H])([H])[H])C([H])([H])[H])C([H])([H])c2c([H])c(OC([H])([H])C([H])([H])C([H])([H])C3(C([H])([H])C(=O)C([H])(N([H])C(=O)N4C([H])([H])C([H])([H])C([H])([H])C([H])(n5nc(-c6c([H])c([H])c(Oc7c([H])c([H])c(F)c([H])c7F)c([H])c6[H])c(C(=O)N([H])[H])c5N([H])[H])C4([H])[H])C([H])(C([H])([H])[H])C([H])([H])[N+]([H])([H])[H])C([H])([H])C3([H])[H])c([H])c([H])c2C1([H])[H]

$$$$
47:0:0
     RDKit          3D

 92100  0  0  1  0  0  0  0  0999 V2000
  -29.1210  -20.0340   20.3980 C   0  0  0  0  0  0  0  0  0  0  0  0
  -29.1700  -18.6510   20.6260 C   0  0  0  0  0  3  0  0  0  0  0  0
  -28.0450  -21.1210   20.6870 C   0  0  0  0  0  2  0  0  0  0  0  0
  -29.9900  -21.1120   19.7170 C   0  0  0  0  0  2  0  0  0  0  0  0
  -29.1930  -22.2140   20.5690 C   0  0  2  0  0  0  0  0  0  0  0  0
  -29.8730  -22.3490   21.8870 N   0  0  0  0  0  4  0  0  0  0  0  0
  -30.0950  -21.4420   22.2630 H   0  0  0  0  0  0  0  0  0  0  0  0
  -29.2980  -22.8180   22.5640 H   0  0  0  0  0  0  0  0  0  0  0  0
  -30.7370  -22.8590   21.8080 H   0  0  0  0  0  0  0  0  0  0  0  0
  -30.6740  -17.7110   18.7860 C   0  0  0  0  0  1  0  0  0  0  0  0
  -30.2170  -17.4970   20.2410 C   0  0  0  0  0  3  0  0  0  0  0  0
  -30.6200  -14.8490   20.3090 C   0  0  0  0  0  0  0  0  0  0  0  0
  -30.4330  -12.5580   19.3180 C   0  0  0  0  0  2  0  0  0  0  0  0
  -29.4940  -12.6080   18.0930 C   0  0  0  0  0  2  0  0  0  0  0  0
  -28.0270  -12.4230   18.5290 C   0  0  0  0  0  2  0  0  0  0  0  0
  -27.6470  -13.3160   19.7410 C   0  0  0  0  0  3  0  0  0  0  0  0
  -28.7090  -13.2550   20.8600 C   0  0  0  0  0  2  0  0  0  0  0  0
  -29.9950  -13.6200   20.2560 N   0  0  0  0  0  0  0  0  0  0  0  0
  -31.8160  -14.9240   20.0130 O   0  0  0  0  0  0  0  0  0  0  0  0
  -29.8510  -16.0080   20.4630 N   0  0  0  0  0  0  0  0  0  0  0  0
  -28.8820  -15.8300   20.6830 H   0  0  0  0  0  0  0  0  0  0  0  0
  -25.2600  -13.8910   20.4770 C   0  0  0  0  0  0  0  0  0  0  0  0
  -24.2010  -13.1120   20.8520 C   0  0  0  0  0  0  0  0  0  0  0  0
  -24.6720  -11.7630   20.8230 C   0  0  0  0  0  0  0  0  0  0  0  0
  -26.3090  -13.0180   20.2370 N   0  0  0  0  0  0  0  0  0  0  0  0
  -25.9620  -11.7330   20.5110 N   0  0  0  0  0  0  0  0  0  0  0  0
  -23.9530  -10.4980   21.0170 C   0  0  0  0  0  0  0  0  0  0  0  0
  -24.3780   -9.5430   21.9680 C   0  0  0  0  0  3  0  0  0  0  0  0
  -23.6580   -8.3430   22.1490 C   0  0  0  0  0  3  0  0  0  0  0  0
  -22.4980   -8.0880   21.3780 C   0  0  0  0  0  0  0  0  0  0  0  0
  -22.0920   -9.0310   20.4180 C   0  0  0  0  0  3  0  0  0  0  0  0
  -22.8130  -10.2220   20.2350 C   0  0  0  0  0  3  0  0  0  0  0  0
  -21.7500   -6.9380   21.4680 O   0  0  0  0  0  0  0  0  0  0  0  0
  -21.6750   -6.2180   22.6330 C   0  0  0  0  0  0  0  0  0  0  0  0
  -21.1920   -6.7870   23.8320 C   0  0  0  0  0  3  0  0  0  0  0  0
  -21.0660   -5.9910   24.9880 C   0  0  0  0  0  3  0  0  0  0  0  0
  -21.4120   -4.6270   24.9460 C   0  0  0  0  0  0  0  0  0  0  0  0
  -21.8880   -4.0580   23.7520 C   0  0  0  0  0  3  0  0  0  0  0  0
  -22.0160   -4.8500   22.5990 C   0  0  0  0  0  0  0  0  0  0  0  0
  -22.4540   -4.2920   21.4450 F   0  0  0  0  0  0  0  0  0  0  0  0
  -21.2840   -3.8610   26.0540 F   0  0  0  0  0  0  0  0  0  0  0  0
  -22.8020  -13.5820   21.1240 C   0  0  0  0  0  0  0  0  0  0  0  0
  -22.0740  -12.8790   21.9850 N   0  0  0  0  0  0  0  0  0  0  0  0
  -22.3610  -14.6090   20.6070 O   0  0  0  0  0  0  0  0  0  0  0  0
  -22.4440  -12.0490   22.4240 H   0  0  0  0  0  0  0  0  0  0  0  0
  -21.1360  -13.1760   22.2090 H   0  0  0  0  0  0  0  0  0  0  0  0
  -25.4150  -15.2630   20.2940 N   0  0  0  0  0  0  0  0  0  0  0  0
  -24.6400  -15.9090   20.3980 H   0  0  0  0  0  0  0  0  0  0  0  0
  -26.2450  -15.7010   19.9180 H   0  0  0  0  0  0  0  0  0  0  0  0
  -28.9780  -23.7290   19.9430 C   0  0  0  0  0  3  0  0  0  0  0  0
  -28.1850  -24.9550   20.6800 C   0  0  0  0  0  3  0  0  0  0  0  0
  -28.3730  -26.4110   20.2870 O   0  0  0  0  0  0  0  0  0  0  0  0
  -24.6150  -31.9160   23.2540 C   0  0  0  0  0  0  0  0  0  0  0  0
  -27.2680  -27.2980   20.2630 C   0  0  0  0  0  0  0  0  0  0  0  0
  -23.4360  -30.5020   21.6110 C   0  0  0  0  0  3  0  0  0  0  0  0
  -24.9070  -28.9430   20.2080 C   0  0  0  0  0  0  0  0  0  0  0  0
  -25.9790  -30.8180   21.4520 C   0  0  0  0  0  2  0  0  0  0  0  0
  -26.0720  -29.4310   20.8150 C   0  0  0  0  0  0  0  0  0  0  0  0
  -27.2580  -28.6220   20.8240 C   0  0  0  0  0  3  0  0  0  0  0  0
  -26.0800  -26.8800   19.6250 C   0  0  0  0  0  3  0  0  0  0  0  0
  -24.9170  -27.6770   19.6010 C   0  0  0  0  0  3  0  0  0  0  0  0
  -23.6680  -29.8190   20.2380 C   0  0  0  0  0  2  0  0  0  0  0  0
  -24.6960  -31.0980   22.1630 N   0  0  0  0  0  0  0  0  0  0  0  0
  -23.5250  -32.1920   23.7770 O   0  0  0  0  0  0  0  0  0  0  0  0
  -22.7650  -29.4910   22.5720 C   0  0  0  0  0  0  0  0  0  0  0  0
  -21.4400  -29.3100   22.4390 N   0  0  0  0  0  0  0  0  0  0  0  0
  -23.4390  -28.8690   23.3990 O   0  0  0  0  0  0  0  0  0  0  0  0
  -20.9550  -29.8630   21.7470 H   0  0  0  0  0  0  0  0  0  0  0  0
  -18.0580  -28.1210   22.9410 C   0  0  0  0  0  0  0  0  0  0  0  0
  -20.6180  -28.3740   23.2090 C   0  0  0  0  0  3  0  0  0  0  0  0
  -20.7160  -26.9440   22.6300 C   0  0  0  0  0  2  0  0  0  0  0  0
  -19.6120  -26.6260   21.6150 C   0  0  0  0  0  2  0  0  0  0  0  0
  -18.2310  -26.7730   22.2620 C   0  0  0  0  0  2  0  0  0  0  0  0
  -19.1800  -28.8790   23.3720 C   0  0  0  0  0  0  0  0  0  0  0  0
  -18.9640  -30.1400   23.9690 C   0  0  0  0  0  3  0  0  0  0  0  0
  -17.6610  -30.6440   24.1380 C   0  0  0  0  0  3  0  0  0  0  0  0
  -16.5540  -29.8820   23.7230 C   0  0  0  0  0  3  0  0  0  0  0  0
  -16.7540  -28.6220   23.1310 C   0  0  0  0  0  3  0  0  0  0  0  0
  -25.8880  -32.5610   23.8860 C   0  0  0  0  0  3  0  0  0  0  0  0
  -26.3830  -31.8120   25.1830 C   0  0  1  0  0  0  0  0  0  0  0  0
  -25.2730  -31.5910   26.2380 C   0  0  0  0  0  1  0  0  0  0  0  0
  -26.9750  -30.4290   24.8270 C   0  0  0  0  0  1  0  0  0  0  0  0
  -27.5220  -32.6190   25.8510 C   0  0  0  0  0  1  0  0  0  0  0  0
  -25.5710  -33.9640   24.1910 N   0  0  0  0  0  0  0  0  0  0  0  0
  -25.9150  -35.0070   23.4250 C   0  0  0  0  0  0  0  0  0  0  0  0
  -26.6010  -34.8910   22.4050 O   0  0  0  0  0  0  0  0  0  0  0  0
  -24.9630  -34.1300   24.9800 H   0  0  0  0  0  0  0  0  0  0  0  0
  -24.2020  -36.8040   23.0130 C   0  0  0  0  0  1  0  0  0  0  0  0
  -25.4230  -36.4030   23.8560 C   0  0  0  0  0  3  0  0  0  0  0  0
  -27.5380  -37.2940   24.7290 C   0  0  0  0  0  1  0  0  0  0  0  0
  -26.4620  -37.4510   23.7560 N   0  0  0  0  0  0  0  0  0  0  0  0
  -26.0550  -38.3750   23.8800 H   0  0  0  0  0  0  0  0  0  0  0  0
  1  2  2  0
  1  3  1  0
  4  1  1  0
  4  5  1  0
  5 50  1  0
  5  3  1  0
  5  6  1  1
  6  7  1  0
  6  8  1  0
  9  6  1  0
 11 10  1  0
 11 20  1  0
 11  2  1  0
 12 20  1  0
 13 18  1  0
 14 15  1  0
 14 13  1  0
 16 15  1  0
 16 25  1  0
 16 17  1  0
 18 12  1  0
 18 17  1  0
 19 12  2  0
 20 21  1  0
 22 23  2  0
 23 42  1  0
 24 23  1  0
 24 27  1  0
 25 22  1  0
 25 26  1  0
 26 24  2  0
 27 28  1  0
 28 29  2  0
 30 33  1  0
 30 29  1  0
 31 30  2  0
 32 31  1  0
 32 27  2  0
 33 34  1  0
 34 35  1  0
 35 36  2  0
 37 36  1  0
 37 41  1  0
 38 37  2  0
 39 34  2  0
 39 38  1  0
 40 39  1  0
 42 43  1  0
 43 46  1  0
 43 45  1  0
 44 42  2  0
 47 48  1  0
 47 22  1  0
 49 47  1  0
 50 51  2  0
 52 51  1  0
 53 64  2  0
 54 52  1  0
 54 59  1  0
 55 63  1  0
 55 65  1  0
 56 62  1  0
 56 58  1  0
 57 63  1  0
 58 59  2  0
 58 57  1  0
 60 54  2  0
 61 60  1  0
 61 56  2  0
 62 55  1  0
 63 53  1  0
 65 67  2  0
 66 65  1  0
 68 66  1  0
 69 78  2  0
 69 74  1  0
 70 66  1  0
 70 74  1  0
 71 70  1  0
 72 73  1  0
 72 71  1  0
 73 69  1  0
 74 75  2  0
 75 76  1  0
 77 76  2  0
 78 77  1  0
 79 53  1  0
 79 84  1  0
 79 80  1  0
 80 83  1  1
 80 81  1  0
 82 80  1  0
 84 87  1  0
 85 89  1  0
 85 84  1  0
 86 85  2  0
 89 88  1  0
 91 89  1  0
 91 92  1  0
 91 90  1  0
M  ISO  4  12 100  20 100  51 101  52 101
M  END
>  <TORSDO>  (48) 
F 20

>  <SCORE>  (48) 
-14.019

>  <name>  (48) 
47

>  <ligand_id>  (48) 
47

>  <original_smiles>  (48) 
[H]C(=C1C([H])([H])C(C([H])([H])C([H])([H])Oc2c([H])c([H])c3c(c2[H])C([H])([H])N(C(=O)C([H])(N([H])C(=O)C([H])(N([H])C([H])([H])[H])C([H])([H])[H])C(C([H])([H])[H])(C([H])([H])[H])C([H])([H])[H])C([H])(C(=O)N([H])C2([H])c4c([H])c([H])c([H])c([H])c4C([H])([H])C([H])([H])C2([H])[H])C3([H])[H])([N+]([H])([H])[H])C1([H])[H])C([H])(N([H])C(=O)N1C([H])([H])C([H])([H])C([H])([H])C([H])(n2nc(-c3c([H])c([H])c(Oc4c([H])c([H])c(F)c([H])c4F)c([H])c3[H])c(C(=O)N([H])[H])c2N([H])[H])C1([H])[H])C([H])([H])[H]

>  <smiles>  (48) 
[H]C(=C1C([H])([H])C(C([H])([H])C([H])([H])Oc2c([H])c([H])c3c(c2[H])C([H])([H])N(C(=O)C([H])(N([H])C(=O)C([H])(N([H])C([H])([H])[H])C([H])([H])[H])C(C([H])([H])[H])(C([H])([H])[H])C([H])([H])[H])C([H])(C(=O)N([H])C2([H])c4c([H])c([H])c([H])c([H])c4C([H])([H])C([H])([H])C2([H])[H])C3([H])[H])([N+]([H])([H])[H])C1([H])[H])C([H])(N([H])C(=O)N1C([H])([H])C([H])([H])C([H])([H])C([H])(n2nc(-c3c([H])c([H])c(Oc4c([H])c([H])c(F)c([H])c4F)c([H])c3[H])c(C(=O)N([H])[H])c2N([H])[H])C1([H])[H])C([H])([H])[H]

$$$$
48:0:0
     RDKit          3D

 97105  0  0  1  0  0  0  0  0999 V2000
  -29.8800  -20.7040   21.3000 C   0  0  0  0  0  3  0  0  0  0  0  0
  -29.5520  -20.4110   22.7080 N   0  0  0  0  0  4  0  0  0  0  0  0
  -28.5600  -20.3130   22.8370 H   0  0  0  0  0  0  0  0  0  0  0  0
  -29.9150  -21.1010   23.3420 H   0  0  0  0  0  0  0  0  0  0  0  0
  -29.9570  -19.5090   22.9250 H   0  0  0  0  0  0  0  0  0  0  0  0
  -28.1240  -19.0350   20.3760 C   0  0  0  0  0  1  0  0  0  0  0  0
  -29.6330  -19.4010   20.4580 C   0  0  0  0  0  3  0  0  0  0  0  0
  -30.5090  -18.1730   20.9090 C   0  0  0  0  0  3  0  0  0  0  0  0
  -30.1230  -17.7500   22.2030 O   0  0  0  0  0  0  0  0  0  0  0  0
  -30.4460  -16.8540   22.2760 H   0  0  0  0  0  0  0  0  0  0  0  0
  -30.4940  -16.9440   19.9500 C   0  0  0  0  0  2  0  0  0  0  0  0
  -31.1610  -14.5520   20.2630 C   0  0  0  0  0  0  0  0  0  0  0  0
  -30.8550  -12.3340   19.2390 C   0  0  0  0  0  2  0  0  0  0  0  0
  -29.9190  -12.5070   18.0250 C   0  0  0  0  0  2  0  0  0  0  0  0
  -28.4390  -12.4170   18.4480 C   0  0  0  0  0  2  0  0  0  0  0  0
  -28.1160  -13.2990   19.6840 C   0  0  0  0  0  3  0  0  0  0  0  0
  -29.1650  -13.0930   20.8020 C   0  0  0  0  0  2  0  0  0  0  0  0
  -30.4960  -13.3600   20.2300 N   0  0  0  0  0  0  0  0  0  0  0  0
  -32.2910  -14.7030   19.7900 O   0  0  0  0  0  0  0  0  0  0  0  0
  -30.4060  -15.6140   20.6130 N   0  0  0  0  0  0  0  0  0  0  0  0
  -29.5010  -15.3730   20.9900 H   0  0  0  0  0  0  0  0  0  0  0  0
  -25.7420  -13.9920   20.3900 C   0  0  0  0  0  0  0  0  0  0  0  0
  -24.6480  -13.2610   20.7670 C   0  0  0  0  0  0  0  0  0  0  0  0
  -25.0580  -11.8940   20.7350 C   0  0  0  0  0  0  0  0  0  0  0  0
  -26.7550  -13.0720   20.1600 N   0  0  0  0  0  0  0  0  0  0  0  0
  -26.3450  -11.8050   20.4230 N   0  0  0  0  0  0  0  0  0  0  0  0
  -24.2860  -10.6600   20.9220 C   0  0  0  0  0  0  0  0  0  0  0  0
  -24.6520   -9.7050   21.8970 C   0  0  0  0  0  3  0  0  0  0  0  0
  -23.8860   -8.5340   22.0750 C   0  0  0  0  0  3  0  0  0  0  0  0
  -22.7370   -8.3090   21.2800 C   0  0  0  0  0  0  0  0  0  0  0  0
  -22.3920   -9.2490   20.2950 C   0  0  0  0  0  3  0  0  0  0  0  0
  -23.1590  -10.4120   20.1140 C   0  0  0  0  0  3  0  0  0  0  0  0
  -21.9460   -7.1870   21.3690 O   0  0  0  0  0  0  0  0  0  0  0  0
  -21.7720   -6.5190   22.5540 C   0  0  0  0  0  0  0  0  0  0  0  0
  -21.2310   -7.1520   23.6950 C   0  0  0  0  0  3  0  0  0  0  0  0
  -21.0050   -6.4070   24.8710 C   0  0  0  0  0  3  0  0  0  0  0  0
  -21.3080   -5.0330   24.9030 C   0  0  0  0  0  0  0  0  0  0  0  0
  -21.8410   -4.4010   23.7660 C   0  0  0  0  0  3  0  0  0  0  0  0
  -22.0670   -5.1410   22.5950 C   0  0  0  0  0  0  0  0  0  0  0  0
  -22.5610   -4.5230   21.4930 F   0  0  0  0  0  0  0  0  0  0  0  0
  -21.0830   -4.3160   26.0290 F   0  0  0  0  0  0  0  0  0  0  0  0
  -23.2700  -13.7920   21.0410 C   0  0  0  0  0  0  0  0  0  0  0  0
  -22.5200  -13.1310   21.9190 N   0  0  0  0  0  0  0  0  0  0  0  0
  -22.8650  -14.8260   20.5140 O   0  0  0  0  0  0  0  0  0  0  0  0
  -22.8590  -12.2960   22.3730 H   0  0  0  0  0  0  0  0  0  0  0  0
  -21.5940  -13.4640   22.1410 H   0  0  0  0  0  0  0  0  0  0  0  0
  -25.9560  -15.3550   20.2000 N   0  0  0  0  0  0  0  0  0  0  0  0
  -25.2180  -16.0380   20.3050 H   0  0  0  0  0  0  0  0  0  0  0  0
  -26.8150  -15.7500   19.8360 H   0  0  0  0  0  0  0  0  0  0  0  0
  -29.1310  -21.9860   20.7560 C   0  0  0  0  0  2  0  0  0  0  0  0
  -29.6930  -23.7630   22.6940 C   0  0  0  0  0  2  0  0  0  0  0  0
  -30.9240  -23.6520   21.8320 C   0  0  0  0  0  2  0  0  0  0  0  0
  -29.5510  -23.4210   21.2200 C   0  0  1  0  0  0  0  0  0  0  0  0
  -28.9760  -24.4880   20.2420 C   0  0  0  0  0  2  0  0  0  0  0  0
  -30.0680  -26.7640   20.9380 C   0  0  0  0  0  1  0  0  0  0  0  0
  -28.7660  -25.9770   20.6910 C   0  0  0  0  0  3  0  0  0  0  0  0
  -28.1320  -26.6470   19.6000 O   0  0  0  0  0  0  0  0  0  0  0  0
  -24.5300  -31.7900   23.1120 C   0  0  0  0  0  0  0  0  0  0  0  0
  -26.9820  -27.3740   19.8230 C   0  0  0  0  0  0  0  0  0  0  0  0
  -23.2340  -30.4460   21.4880 C   0  0  0  0  0  3  0  0  0  0  0  0
  -24.6080  -28.9080   19.9810 C   0  0  0  0  0  0  0  0  0  0  0  0
  -25.7620  -30.7540   21.2130 C   0  0  0  0  0  2  0  0  0  0  0  0
  -25.7960  -29.3970   20.5400 C   0  0  0  0  0  0  0  0  0  0  0  0
  -26.9880  -28.6340   20.4650 C   0  0  0  0  0  3  0  0  0  0  0  0
  -25.7800  -26.8990   19.2630 C   0  0  0  0  0  3  0  0  0  0  0  0
  -24.5930  -27.6540   19.3450 C   0  0  0  0  0  3  0  0  0  0  0  0
  -23.3810  -29.7910   20.0890 C   0  0  0  0  0  2  0  0  0  0  0  0
  -24.5280  -31.0080   21.9940 N   0  0  0  0  0  0  0  0  0  0  0  0
  -23.4770  -32.0750   23.6960 O   0  0  0  0  0  0  0  0  0  0  0  0
  -22.5990  -29.4180   22.4510 C   0  0  0  0  0  0  0  0  0  0  0  0
  -21.2720  -29.2460   22.3550 N   0  0  0  0  0  0  0  0  0  0  0  0
  -23.3000  -28.7760   23.2420 O   0  0  0  0  0  0  0  0  0  0  0  0
  -20.7680  -29.8100   21.6830 H   0  0  0  0  0  0  0  0  0  0  0  0
  -17.9040  -28.0630   22.9120 C   0  0  0  0  0  0  0  0  0  0  0  0
  -20.4670  -28.3080   23.1380 C   0  0  0  0  0  3  0  0  0  0  0  0
  -20.5550  -26.8810   22.5510 C   0  0  0  0  0  2  0  0  0  0  0  0
  -19.4330  -26.5700   21.5560 C   0  0  0  0  0  2  0  0  0  0  0  0
  -18.0630  -26.7170   22.2240 C   0  0  0  0  0  2  0  0  0  0  0  0
  -19.0340  -28.8170   23.3260 C   0  0  0  0  0  0  0  0  0  0  0  0
  -18.8330  -30.0780   23.9290 C   0  0  0  0  0  3  0  0  0  0  0  0
  -17.5360  -30.5860   24.1210 C   0  0  0  0  0  3  0  0  0  0  0  0
  -16.4200  -29.8290   23.7250 C   0  0  0  0  0  3  0  0  0  0  0  0
  -16.6050  -28.5690   23.1270 C   0  0  0  0  0  3  0  0  0  0  0  0
  -25.8560  -32.3810   23.6890 C   0  0  0  0  0  3  0  0  0  0  0  0
  -26.4400  -31.5430   24.8940 C   0  0  1  0  0  0  0  0  0  0  0  0
  -25.4040  -31.2570   26.0070 C   0  0  0  0  0  1  0  0  0  0  0  0
  -26.9940  -30.1830   24.4090 C   0  0  0  0  0  1  0  0  0  0  0  0
  -27.6310  -32.3020   25.5290 C   0  0  0  0  0  1  0  0  0  0  0  0
  -25.5790  -33.7640   24.1010 N   0  0  0  0  0  0  0  0  0  0  0  0
  -25.9010  -34.8490   23.3830 C   0  0  0  0  0  0  0  0  0  0  0  0
  -26.5330  -34.7890   22.3260 O   0  0  0  0  0  0  0  0  0  0  0  0
  -25.0110  -33.8870   24.9270 H   0  0  0  0  0  0  0  0  0  0  0  0
  -24.1930  -36.6830   23.1650 C   0  0  0  0  0  1  0  0  0  0  0  0
  -25.4470  -36.2190   23.9240 C   0  0  0  0  0  3  0  0  0  0  0  0
  -27.6120  -37.0220   24.7570 C   0  0  0  0  0  1  0  0  0  0  0  0
  -26.4960  -37.2590   23.8430 N   0  0  0  0  0  0  0  0  0  0  0  0
  -26.1090  -38.1780   24.0490 H   0  0  0  0  0  0  0  0  0  0  0  0
  1 50  1  0
  1  2  1  0
  2  3  1  0
  2  5  1  0
  2  4  1  0
  7  6  1  0
  7  8  1  0
  7  1  1  0
  8 11  1  0
  8  9  1  0
  9 10  1  0
 11 20  1  0
 12 20  1  0
 13 18  1  0
 14 15  1  0
 14 13  1  0
 16 15  1  0
 16 25  1  0
 16 17  1  0
 18 12  1  0
 18 17  1  0
 19 12  2  0
 20 21  1  0
 22 23  2  0
 23 42  1  0
 24 23  1  0
 24 27  1  0
 25 22  1  0
 25 26  1  0
 26 24  2  0
 27 28  1  0
 28 29  2  0
 30 33  1  0
 30 29  1  0
 31 30  2  0
 32 31  1  0
 32 27  2  0
 33 34  1  0
 34 39  2  0
 34 35  1  0
 35 36  2  0
 36 37  1  0
 37 41  1  0
 38 37  2  0
 39 38  1  0
 40 39  1  0
 42 43  1  0
 43 46  1  0
 43 45  1  0
 44 42  2  0
 47 48  1  0
 47 22  1  0
 49 47  1  0
 53 50  1  1
 52 51  1  0
 53 52  1  0
 53 51  1  0
 54 56  1  0
 54 53  1  0
 56 55  1  0
 57 59  1  0
 57 56  1  0
 58 69  2  0
 59 64  1  0
 60 68  1  0
 60 70  1  0
 61 67  1  0
 61 63  1  0
 62 68  1  0
 63 62  1  0
 64 63  2  0
 65 66  1  0
 65 59  2  0
 66 61  2  0
 67 60  1  0
 68 58  1  0
 70 72  2  0
 71 70  1  0
 73 71  1  0
 74 83  2  0
 74 79  1  0
 75 71  1  0
 75 79  1  0
 76 75  1  0
 77 78  1  0
 77 76  1  0
 78 74  1  0
 79 80  2  0
 80 81  1  0
 82 81  2  0
 83 82  1  0
 84 58  1  0
 84 89  1  0
 84 85  1  0
 85 88  1  1
 85 86  1  0
 87 85  1  0
 89 92  1  0
 90 94  1  0
 90 89  1  0
 91 90  2  0
 94 93  1  0
 96 94  1  0
 96 97  1  0
 96 95  1  0
M  ISO  4  12 100  20 100  56 101  57 101
M  END
>  <TORSDO>  (49) 
F 25

>  <SCORE>  (49) 
-11.785

>  <name>  (49) 
48

>  <ligand_id>  (49) 
48

>  <original_smiles>  (49) 
[H]OC([H])(C([H])([H])N([H])C(=O)N1C([H])([H])C([H])([H])C([H])([H])C([H])(n2nc(-c3c([H])c([H])c(Oc4c([H])c([H])c(F)c([H])c4F)c([H])c3[H])c(C(=O)N([H])[H])c2N([H])[H])C1([H])[H])C([H])(C([H])([H])[H])C([H])(C([H])([H])C1(C([H])([H])C([H])(Oc2c([H])c([H])c3c(c2[H])C([H])([H])N(C(=O)C([H])(N([H])C(=O)C([H])(N([H])C([H])([H])[H])C([H])([H])[H])C(C([H])([H])[H])(C([H])([H])[H])C([H])([H])[H])C([H])(C(=O)N([H])C2([H])c4c([H])c([H])c([H])c([H])c4C([H])([H])C([H])([H])C2([H])[H])C3([H])[H])C([H])([H])[H])C([H])([H])C1([H])[H])[N+]([H])([H])[H]

>  <smiles>  (49) 
[H]OC([H])(C([H])([H])N([H])C(=O)N1C([H])([H])C([H])([H])C([H])([H])C([H])(n2nc(-c3c([H])c([H])c(Oc4c([H])c([H])c(F)c([H])c4F)c([H])c3[H])c(C(=O)N([H])[H])c2N([H])[H])C1([H])[H])C([H])(C([H])([H])[H])C([H])(C([H])([H])C1(C([H])([H])C([H])(Oc2c([H])c([H])c3c(c2[H])C([H])([H])N(C(=O)C([H])(N([H])C(=O)C([H])(N([H])C([H])([H])[H])C([H])([H])[H])C(C([H])([H])[H])(C([H])([H])[H])C([H])([H])[H])C([H])(C(=O)N([H])C2([H])c4c([H])c([H])c([H])c([H])c4C([H])([H])C([H])([H])C2([H])[H])C3([H])[H])C([H])([H])[H])C([H])([H])C1([H])[H])[N+]([H])([H])[H]

$$$$
49:0:0
     RDKit          3D

 89 97  0  0  1  0  0  0  0  0999 V2000
  -29.5870  -19.5410   20.6650 C   0  0  0  0  0  0  0  0  0  0  0  0
  -29.7030  -18.2320   21.0340 C   0  0  0  0  0  3  0  0  0  0  0  0
  -28.9230  -20.7440   21.2960 C   0  0  0  0  0  2  0  0  0  0  0  0
  -30.0810  -20.4160   19.5390 C   0  0  0  0  0  2  0  0  0  0  0  0
  -29.7420  -21.5930   20.3920 N   0  0  1  0  0  4  0  0  0  0  0  0
  -30.5820  -21.8940   20.8620 H   0  0  0  0  0  0  0  0  0  0  0  0
  -30.4760  -17.0940   20.3160 C   0  0  0  0  0  2  0  0  0  0  0  0
  -30.8580  -14.6410   20.1160 C   0  0  0  0  0  0  0  0  0  0  0  0
  -30.4650  -12.5250   18.8740 C   0  0  0  0  0  2  0  0  0  0  0  0
  -29.4620  -12.7550   17.7240 C   0  0  0  0  0  2  0  0  0  0  0  0
  -28.0150  -12.5860   18.2220 C   0  0  0  0  0  2  0  0  0  0  0  0
  -27.7420  -13.3770   19.5290 C   0  0  0  0  0  3  0  0  0  0  0  0
  -28.8520  -13.1270   20.5710 C   0  0  0  0  0  2  0  0  0  0  0  0
  -30.1450  -13.4780   19.9590 N   0  0  0  0  0  0  0  0  0  0  0  0
  -31.9100  -14.8260   19.4940 O   0  0  0  0  0  0  0  0  0  0  0  0
  -30.1700  -15.5540   22.2600 C   0  0  0  0  0  1  0  0  0  0  0  0
  -30.2830  -15.6810   20.8000 N   0  0  0  0  0  0  0  0  0  0  0  0
  -25.3820  -13.9530   20.3710 C   0  0  0  0  0  0  0  0  0  0  0  0
  -24.3360  -13.1670   20.7760 C   0  0  0  0  0  0  0  0  0  0  0  0
  -24.8010  -11.8190   20.6980 C   0  0  0  0  0  0  0  0  0  0  0  0
  -26.4170  -13.0820   20.0700 N   0  0  0  0  0  0  0  0  0  0  0  0
  -26.0750  -11.7930   20.3250 N   0  0  0  0  0  0  0  0  0  0  0  0
  -24.0920  -10.5490   20.9000 C   0  0  0  0  0  0  0  0  0  0  0  0
  -24.5390   -9.5950   21.8410 C   0  0  0  0  0  3  0  0  0  0  0  0
  -23.8280   -8.3900   22.0290 C   0  0  0  0  0  3  0  0  0  0  0  0
  -22.6590   -8.1300   21.2770 C   0  0  0  0  0  0  0  0  0  0  0  0
  -22.2320   -9.0720   20.3250 C   0  0  0  0  0  3  0  0  0  0  0  0
  -22.9430  -10.2690   20.1350 C   0  0  0  0  0  3  0  0  0  0  0  0
  -21.9200   -6.9760   21.3750 O   0  0  0  0  0  0  0  0  0  0  0  0
  -21.8270   -6.2780   22.5520 C   0  0  0  0  0  0  0  0  0  0  0  0
  -21.3330   -6.8710   23.7340 C   0  0  0  0  0  3  0  0  0  0  0  0
  -21.1900   -6.0990   24.9030 C   0  0  0  0  0  3  0  0  0  0  0  0
  -21.5290   -4.7330   24.8910 C   0  0  0  0  0  0  0  0  0  0  0  0
  -22.0170   -4.1380   23.7140 C   0  0  0  0  0  3  0  0  0  0  0  0
  -22.1620   -4.9090   22.5470 C   0  0  0  0  0  0  0  0  0  0  0  0
  -22.6120   -4.3260   21.4100 F   0  0  0  0  0  0  0  0  0  0  0  0
  -21.3850   -3.9870   26.0130 F   0  0  0  0  0  0  0  0  0  0  0  0
  -22.9510  -13.6310   21.1260 C   0  0  0  0  0  0  0  0  0  0  0  0
  -22.2740  -12.9190   22.0200 N   0  0  0  0  0  0  0  0  0  0  0  0
  -22.4800  -14.6590   20.6440 O   0  0  0  0  0  0  0  0  0  0  0  0
  -22.6690  -12.0850   22.4320 H   0  0  0  0  0  0  0  0  0  0  0  0
  -21.3460  -13.2090   22.2950 H   0  0  0  0  0  0  0  0  0  0  0  0
  -25.5340  -15.3280   20.2140 N   0  0  0  0  0  0  0  0  0  0  0  0
  -24.7770  -15.9830   20.3750 H   0  0  0  0  0  0  0  0  0  0  0  0
  -26.3830  -15.7740   19.8920 H   0  0  0  0  0  0  0  0  0  0  0  0
  -29.0520  -22.7480   19.7100 C   0  0  0  0  0  2  0  0  0  0  0  0
  -29.1460  -24.1620   20.4020 C   0  0  0  0  0  2  0  0  0  0  0  0
  -28.1670  -25.2180   19.7830 C   0  0  0  0  0  2  0  0  0  0  0  0
  -28.2880  -26.6190   20.1880 O   0  0  0  0  0  0  0  0  0  0  0  0
  -24.5350  -31.9180   23.2270 C   0  0  0  0  0  0  0  0  0  0  0  0
  -27.1440  -27.4210   20.1300 C   0  0  0  0  0  0  0  0  0  0  0  0
  -23.3200  -30.5180   21.5970 C   0  0  0  0  0  3  0  0  0  0  0  0
  -24.7610  -28.9870   20.1520 C   0  0  0  0  0  0  0  0  0  0  0  0
  -25.8510  -30.8600   21.3860 C   0  0  0  0  0  2  0  0  0  0  0  0
  -25.9300  -29.4870   20.7410 C   0  0  0  0  0  0  0  0  0  0  0  0
  -27.1200  -28.7110   20.7310 C   0  0  0  0  0  3  0  0  0  0  0  0
  -25.9560  -26.9750   19.4990 C   0  0  0  0  0  3  0  0  0  0  0  0
  -24.7730  -27.7330   19.5260 C   0  0  0  0  0  3  0  0  0  0  0  0
  -23.5210  -29.8490   20.2120 C   0  0  0  0  0  2  0  0  0  0  0  0
  -24.5870  -31.1150   22.1270 N   0  0  0  0  0  0  0  0  0  0  0  0
  -23.4570  -32.1900   23.7740 O   0  0  0  0  0  0  0  0  0  0  0  0
  -22.6740  -29.4920   22.5590 C   0  0  0  0  0  0  0  0  0  0  0  0
  -21.3540  -29.2880   22.4230 N   0  0  0  0  0  0  0  0  0  0  0  0
  -23.3600  -28.8880   23.3880 O   0  0  0  0  0  0  0  0  0  0  0  0
  -20.8620  -29.8290   21.7270 H   0  0  0  0  0  0  0  0  0  0  0  0
  -18.0010  -28.0130   22.8790 C   0  0  0  0  0  0  0  0  0  0  0  0
  -20.5460  -28.3430   23.1950 C   0  0  0  0  0  3  0  0  0  0  0  0
  -20.6960  -26.9050   22.6500 C   0  0  0  0  0  2  0  0  0  0  0  0
  -19.6240  -26.5340   21.6210 C   0  0  0  0  0  2  0  0  0  0  0  0
  -18.2260  -26.6560   22.2350 C   0  0  0  0  0  2  0  0  0  0  0  0
  -19.0900  -28.8130   23.3150 C   0  0  0  0  0  0  0  0  0  0  0  0
  -18.8280  -30.0810   23.8760 C   0  0  0  0  0  3  0  0  0  0  0  0
  -17.5070  -30.5510   24.0070 C   0  0  0  0  0  3  0  0  0  0  0  0
  -16.4320  -29.7490   23.5870 C   0  0  0  0  0  3  0  0  0  0  0  0
  -16.6790  -28.4820   23.0280 C   0  0  0  0  0  3  0  0  0  0  0  0
  -25.8230  -32.5520   23.8370 C   0  0  0  0  0  3  0  0  0  0  0  0
  -26.3520  -31.7810   25.1080 C   0  0  1  0  0  0  0  0  0  0  0  0
  -25.2680  -31.5320   26.1820 C   0  0  0  0  0  1  0  0  0  0  0  0
  -26.9430  -30.4090   24.7070 C   0  0  0  0  0  1  0  0  0  0  0  0
  -27.5020  -32.5810   25.7650 C   0  0  0  0  0  1  0  0  0  0  0  0
  -25.5140  -33.9490   24.1700 N   0  0  0  0  0  0  0  0  0  0  0  0
  -25.8280  -35.0010   23.4030 C   0  0  0  0  0  0  0  0  0  0  0  0
  -26.4800  -34.8980   22.3590 O   0  0  0  0  0  0  0  0  0  0  0  0
  -24.9320  -34.1030   24.9790 H   0  0  0  0  0  0  0  0  0  0  0  0
  -24.0790  -36.7800   23.0820 C   0  0  0  0  0  1  0  0  0  0  0  0
  -25.3420  -36.3880   23.8650 C   0  0  0  0  0  3  0  0  0  0  0  0
  -27.4900  -37.2920   24.6390 C   0  0  0  0  0  1  0  0  0  0  0  0
  -26.3640  -37.4480   23.7210 N   0  0  0  0  0  0  0  0  0  0  0  0
  -25.9560  -38.3670   23.8730 H   0  0  0  0  0  0  0  0  0  0  0  0
  1  2  2  0
  1  3  1  0
  4  5  1  0
  4  1  1  0
  5  6  1  1
  5  3  1  0
  7 17  1  0
  7  2  1  0
  8 17  1  0
  9 14  1  0
 10 11  1  0
 10  9  1  0
 12 11  1  0
 12 21  1  0
 12 13  1  0
 14  8  1  0
 14 13  1  0
 15  8  2  0
 17 16  1  0
 18 19  2  0
 19 38  1  0
 20 19  1  0
 20 23  1  0
 21 22  1  0
 21 18  1  0
 22 20  2  0
 23 24  1  0
 24 25  2  0
 26 29  1  0
 26 25  1  0
 27 26  2  0
 28 27  1  0
 28 23  2  0
 29 30  1  0
 30 31  1  0
 31 32  2  0
 33 32  1  0
 33 37  1  0
 34 33  2  0
 35 30  2  0
 35 34  1  0
 36 35  1  0
 38 39  1  0
 39 42  1  0
 39 41  1  0
 40 38  2  0
 43 18  1  0
 43 44  1  0
 45 43  1  0
 46  5  1  0
 46 47  1  0
 48 49  1  0
 48 47  1  0
 50 61  2  0
 51 49  1  0
 51 56  1  0
 52 60  1  0
 52 62  1  0
 53 59  1  0
 53 55  1  0
 54 60  1  0
 55 54  1  0
 56 55  2  0
 57 58  1  0
 57 51  2  0
 58 53  2  0
 59 52  1  0
 60 50  1  0
 62 64  2  0
 63 62  1  0
 65 63  1  0
 66 75  2  0
 66 71  1  0
 67 63  1  0
 67 71  1  0
 68 67  1  0
 69 70  1  0
 69 68  1  0
 70 66  1  0
 71 72  2  0
 72 73  1  0
 74 73  2  0
 75 74  1  0
 76 50  1  0
 76 81  1  0
 76 77  1  0
 77 80  1  1
 77 78  1  0
 79 77  1  0
 81 84  1  0
 82 86  1  0
 82 81  1  0
 83 82  2  0
 86 85  1  0
 88 86  1  0
 88 89  1  0
 88 87  1  0
M  ISO  4   8 100  17 100  48 101  49 101
M  END
>  <TORSDO>  (50) 
F 20

>  <SCORE>  (50) 
-12.768

>  <name>  (50) 
49

>  <ligand_id>  (50) 
49

>  <original_smiles>  (50) 
[H]C(=C1C([H])([H])[N+]([H])(C([H])([H])C([H])([H])C([H])([H])Oc2c([H])c([H])c3c(c2[H])C([H])([H])N(C(=O)C([H])(N([H])C(=O)C([H])(N([H])C([H])([H])[H])C([H])([H])[H])C(C([H])([H])[H])(C([H])([H])[H])C([H])([H])[H])C([H])(C(=O)N([H])C2([H])c4c([H])c([H])c([H])c([H])c4C([H])([H])C([H])([H])C2([H])[H])C3([H])[H])C1([H])[H])C([H])([H])N(C(=O)N1C([H])([H])C([H])([H])C([H])([H])C([H])(n2nc(-c3c([H])c([H])c(Oc4c([H])c([H])c(F)c([H])c4F)c([H])c3[H])c(C(=O)N([H])[H])c2N([H])[H])C1([H])[H])C([H])([H])[H]

>  <smiles>  (50) 
[H]C(=C1C([H])([H])[N+]([H])(C([H])([H])C([H])([H])C([H])([H])Oc2c([H])c([H])c3c(c2[H])C([H])([H])N(C(=O)C([H])(N([H])C(=O)C([H])(N([H])C([H])([H])[H])C([H])([H])[H])C(C([H])([H])[H])(C([H])([H])[H])C([H])([H])[H])C([H])(C(=O)N([H])C2([H])c4c([H])c([H])c([H])c([H])c4C([H])([H])C([H])([H])C2([H])[H])C3([H])[H])C1([H])[H])C([H])([H])N(C(=O)N1C([H])([H])C([H])([H])C([H])([H])C([H])(n2nc(-c3c([H])c([H])c(Oc4c([H])c([H])c(F)c([H])c4F)c([H])c3[H])c(C(=O)N([H])[H])c2N([H])[H])C1([H])[H])C([H])([H])[H]

$$$$
50:0:0
     RDKit          3D

 94103  0  0  1  0  0  0  0  0999 V2000
  -27.2800  -20.2570   20.2570 C   0  0  0  0  0  3  0  0  0  0  0  0
  -28.1950  -19.1840   20.3850 C   0  0  0  0  0  3  0  0  0  0  0  0
  -27.6780  -21.6130   20.2010 C   0  0  0  0  0  3  0  0  0  0  0  0
  -29.9660  -20.8290   20.3870 C   0  0  0  0  0  3  0  0  0  0  0  0
  -29.5950  -19.3790   20.4180 C   0  0  0  0  0  0  0  0  0  0  0  0
  -29.0310  -21.9900   20.2800 C   0  0  0  0  0  0  0  0  0  0  0  0
  -30.8720  -15.2950   20.7670 C   0  0  0  0  0  0  0  0  0  0  0  0
  -30.8730  -12.8650   20.0510 C   0  0  0  0  0  2  0  0  0  0  0  0
  -30.0750  -12.6620   18.7420 C   0  0  0  0  0  2  0  0  0  0  0  0
  -28.5800  -12.4420   19.0570 C   0  0  0  0  0  2  0  0  0  0  0  0
  -28.0240  -13.4450   20.1040 C   0  0  0  0  0  3  0  0  0  0  0  0
  -28.9680  -13.6390   21.3090 C   0  0  0  0  0  2  0  0  0  0  0  0
  -30.2790  -14.0270   20.7680 N   0  0  0  0  0  0  0  0  0  0  0  0
  -32.1120  -15.3210   20.7600 O   0  0  0  0  0  0  0  0  0  0  0  0
  -30.6300  -17.2190   18.1850 C   0  0  0  0  0  2  0  0  0  0  0  0
  -29.6100  -16.4840   19.0650 C   0  0  0  0  0  2  0  0  0  0  0  0
  -30.6010  -18.0430   20.4540 C   0  0  0  0  0  3  0  0  0  0  0  0
  -31.4330  -18.1080   19.1470 C   0  0  0  0  0  3  0  0  0  0  0  0
  -30.1490  -16.5060   20.4350 N   0  0  0  0  0  0  0  0  0  0  0  0
  -25.5930  -14.0270   20.6130 C   0  0  0  0  0  0  0  0  0  0  0  0
  -24.5020  -13.2540   20.9040 C   0  0  0  0  0  0  0  0  0  0  0  0
  -24.9770  -11.9080   20.9590 C   0  0  0  0  0  0  0  0  0  0  0  0
  -26.6570  -13.1500   20.5020 N   0  0  0  0  0  0  0  0  0  0  0  0
  -26.2920  -11.8720   20.7760 N   0  0  0  0  0  0  0  0  0  0  0  0
  -24.2480  -10.6460   21.1090 C   0  0  0  0  0  0  0  0  0  0  0  0
  -24.6060   -9.7050   22.0990 C   0  0  0  0  0  3  0  0  0  0  0  0
  -23.8760   -8.5040   22.2400 C   0  0  0  0  0  3  0  0  0  0  0  0
  -22.7730   -8.2410   21.3920 C   0  0  0  0  0  0  0  0  0  0  0  0
  -22.4400   -9.1690   20.3880 C   0  0  0  0  0  3  0  0  0  0  0  0
  -23.1720  -10.3620   20.2460 C   0  0  0  0  0  3  0  0  0  0  0  0
  -22.0260   -7.0890   21.4370 O   0  0  0  0  0  0  0  0  0  0  0  0
  -21.8560   -6.3840   22.6020 C   0  0  0  0  0  0  0  0  0  0  0  0
  -21.2310   -6.9530   23.7310 C   0  0  0  0  0  3  0  0  0  0  0  0
  -21.0240   -6.1730   24.8860 C   0  0  0  0  0  3  0  0  0  0  0  0
  -21.4230   -4.8250   24.9080 C   0  0  0  0  0  0  0  0  0  0  0  0
  -22.0320   -4.2520   23.7780 C   0  0  0  0  0  3  0  0  0  0  0  0
  -22.2470   -5.0290   22.6270 C   0  0  0  0  0  0  0  0  0  0  0  0
  -22.8220   -4.4690   21.5360 F   0  0  0  0  0  0  0  0  0  0  0  0
  -21.2120   -4.0720   26.0140 F   0  0  0  0  0  0  0  0  0  0  0  0
  -23.0840  -13.7270   21.0200 C   0  0  0  0  0  0  0  0  0  0  0  0
  -22.2800  -13.0630   21.8440 N   0  0  0  0  0  0  0  0  0  0  0  0
  -22.6930  -14.7190   20.4090 O   0  0  0  0  0  0  0  0  0  0  0  0
  -22.6070  -12.2680   22.3710 H   0  0  0  0  0  0  0  0  0  0  0  0
  -21.3210  -13.3600   21.9470 H   0  0  0  0  0  0  0  0  0  0  0  0
  -25.7600  -15.3930   20.4110 N   0  0  0  0  0  0  0  0  0  0  0  0
  -24.9750  -16.0360   20.4320 H   0  0  0  0  0  0  0  0  0  0  0  0
  -26.6320  -15.8420   20.1650 H   0  0  0  0  0  0  0  0  0  0  0  0
  -32.8010  -17.5800   19.3300 N   0  0  0  0  0  4  0  0  0  0  0  0
  -32.7610  -16.6710   19.7830 H   0  0  0  0  0  0  0  0  0  0  0  0
  -33.3390  -18.2000   19.9110 H   0  0  0  0  0  0  0  0  0  0  0  0
  -33.2690  -17.4920   18.4440 H   0  0  0  0  0  0  0  0  0  0  0  0
  -29.3750  -23.6100   20.3270 C   0  0  0  0  0  3  0  0  0  0  0  0
  -28.3280  -24.8890   19.9730 C   0  0  0  0  0  3  0  0  0  0  0  0
  -28.5300  -26.4070   20.2560 O   0  0  0  0  0  0  0  0  0  0  0  0
  -24.7080  -31.9660   23.2600 C   0  0  0  0  0  0  0  0  0  0  0  0
  -27.4400  -27.3520   20.2030 C   0  0  0  0  0  0  0  0  0  0  0  0
  -23.5620  -30.5610   21.5900 C   0  0  0  0  0  3  0  0  0  0  0  0
  -25.0620  -29.0300   20.1740 C   0  0  0  0  0  0  0  0  0  0  0  0
  -26.1090  -30.8820   21.4640 C   0  0  0  0  0  2  0  0  0  0  0  0
  -26.2230  -29.4990   20.8000 C   0  0  0  0  0  0  0  0  0  0  0  0
  -27.4110  -28.6760   20.8000 C   0  0  0  0  0  3  0  0  0  0  0  0
  -26.2430  -26.9790   19.5490 C   0  0  0  0  0  3  0  0  0  0  0  0
  -25.0830  -27.7800   19.5380 C   0  0  0  0  0  3  0  0  0  0  0  0
  -23.8160  -29.9000   20.2100 C   0  0  0  0  0  2  0  0  0  0  0  0
  -24.8110  -31.1580   22.1600 N   0  0  0  0  0  0  0  0  0  0  0  0
  -23.6090  -32.2260   23.7740 O   0  0  0  0  0  0  0  0  0  0  0  0
  -22.8880  -29.5340   22.5330 C   0  0  0  0  0  0  0  0  0  0  0  0
  -21.5680  -29.3350   22.3800 N   0  0  0  0  0  0  0  0  0  0  0  0
  -23.5570  -28.9180   23.3670 O   0  0  0  0  0  0  0  0  0  0  0  0
  -21.0860  -29.8820   21.6830 H   0  0  0  0  0  0  0  0  0  0  0  0
  -18.1970  -28.0830   22.8340 C   0  0  0  0  0  0  0  0  0  0  0  0
  -20.7510  -28.3740   23.1280 C   0  0  0  0  0  3  0  0  0  0  0  0
  -20.8760  -26.9550   22.5290 C   0  0  0  0  0  2  0  0  0  0  0  0
  -19.7860  -26.6340   21.5020 C   0  0  0  0  0  2  0  0  0  0  0  0
  -18.3980  -26.7480   22.1360 C   0  0  0  0  0  2  0  0  0  0  0  0
  -19.3030  -28.8540   23.2840 C   0  0  0  0  0  0  0  0  0  0  0  0
  -19.0600  -30.1020   23.8990 C   0  0  0  0  0  3  0  0  0  0  0  0
  -17.7460  -30.5790   24.0680 C   0  0  0  0  0  3  0  0  0  0  0  0
  -16.6570  -29.8060   23.6310 C   0  0  0  0  0  3  0  0  0  0  0  0
  -16.8830  -28.5600   23.0200 C   0  0  0  0  0  3  0  0  0  0  0  0
  -25.9640  -32.6180   23.9140 C   0  0  0  0  0  3  0  0  0  0  0  0
  -26.4490  -31.8650   25.2120 C   0  0  1  0  0  0  0  0  0  0  0  0
  -25.3230  -31.6100   26.2420 C   0  0  0  0  0  1  0  0  0  0  0  0
  -27.0780  -30.4980   24.8550 C   0  0  0  0  0  1  0  0  0  0  0  0
  -27.5590  -32.6860   25.9090 C   0  0  0  0  0  1  0  0  0  0  0  0
  -25.6290  -34.0170   24.2290 N   0  0  0  0  0  0  0  0  0  0  0  0
  -25.9590  -35.0720   23.4720 C   0  0  0  0  0  0  0  0  0  0  0  0
  -26.6430  -34.9710   22.4500 O   0  0  0  0  0  0  0  0  0  0  0  0
  -25.0220  -34.1660   25.0230 H   0  0  0  0  0  0  0  0  0  0  0  0
  -24.2230  -36.8520   23.0750 C   0  0  0  0  0  1  0  0  0  0  0  0
  -25.4500  -36.4600   23.9150 C   0  0  0  0  0  3  0  0  0  0  0  0
  -27.5520  -37.3750   24.7960 C   0  0  0  0  0  1  0  0  0  0  0  0
  -26.4760  -37.5210   23.8180 N   0  0  0  0  0  0  0  0  0  0  0  0
  -26.0600  -38.4390   23.9400 H   0  0  0  0  0  0  0  0  0  0  0  0
  1  2  1  0
  2  5  2  0
  3  1  2  0
  3  6  1  0
  4  5  1  0
  6 52  1  0
  6  4  2  0
  7 13  1  0
  8 13  1  0
  9 10  1  0
  9  8  1  0
 11 10  1  0
 11 23  1  0
 11 12  1  0
 13 12  1  0
 14  7  2  0
 15 16  1  0
 15 18  1  0
 16 19  1  0
 17  5  1  0
 18 48  1  0
 18 17  1  0
 19 17  1  0
 19  7  1  0
 20 21  2  0
 21 22  1  0
 21 40  1  0
 22 25  1  0
 23 20  1  0
 23 24  1  0
 24 22  2  0
 25 26  1  0
 26 27  2  0
 28 31  1  0
 28 27  1  0
 29 28  2  0
 30 29  1  0
 30 25  2  0
 31 32  1  0
 32 37  2  0
 32 33  1  0
 33 34  2  0
 34 35  1  0
 35 39  1  0
 36 35  2  0
 37 36  1  0
 38 37  1  0
 40 41  1  0
 41 44  1  0
 41 43  1  0
 42 40  2  0
 45 46  1  0
 45 20  1  0
 47 45  1  0
 48 49  1  0
 48 50  1  0
 51 48  1  0
 53 54  1  0
 53 52  2  0
 55 66  2  0
 56 54  1  0
 56 61  1  0
 57 65  1  0
 57 67  1  0
 58 64  1  0
 58 60  1  0
 59 65  1  0
 60 61  2  0
 60 59  1  0
 62 56  2  0
 63 62  1  0
 63 58  2  0
 64 57  1  0
 65 55  1  0
 67 69  2  0
 68 67  1  0
 70 68  1  0
 71 80  2  0
 71 76  1  0
 72 68  1  0
 72 76  1  0
 73 72  1  0
 74 75  1  0
 74 73  1  0
 75 71  1  0
 76 77  2  0
 77 78  1  0
 79 78  2  0
 80 79  1  0
 81 55  1  0
 81 86  1  0
 81 82  1  0
 82 85  1  1
 82 83  1  0
 84 82  1  0
 86 89  1  0
 87 91  1  0
 87 86  1  0
 88 87  2  0
 91 90  1  0
 93 91  1  0
 93 94  1  0
 93 92  1  0
M  ISO  4   7 100  19 100  53 101  54 101
M  END
>  <TORSDO>  (51) 
F 19

>  <SCORE>  (51) 
-13.495

>  <name>  (51) 
50

>  <ligand_id>  (51) 
50

>  <original_smiles>  (51) 
[H]c1c([H])c([H])c2c(c1[H])C([H])([H])C([H])([H])C([H])([H])C2([H])N([H])C(=O)C1([H])N(C(=O)C([H])(N([H])C(=O)C([H])(N([H])C([H])([H])[H])C([H])([H])[H])C(C([H])([H])[H])(C([H])([H])[H])C([H])([H])[H])C([H])([H])c2c([H])c(OC([H])([H])C([H])([H])c3c([H])c([H])c([H])c(C4([H])N(C(=O)N5C([H])([H])C([H])([H])C([H])([H])C([H])(n6nc(-c7c([H])c([H])c(Oc8c([H])c([H])c(F)c([H])c8F)c([H])c7[H])c(C(=O)N([H])[H])c6N([H])[H])C5([H])[H])C([H])([H])C([H])([H])C4([H])[N+]([H])([H])[H])c3[H])c([H])c([H])c2C1([H])[H]

>  <smiles>  (51) 
[H]c1c([H])c([H])c2c(c1[H])C([H])([H])C([H])([H])C([H])([H])C2([H])N([H])C(=O)C1([H])N(C(=O)C([H])(N([H])C(=O)C([H])(N([H])C([H])([H])[H])C([H])([H])[H])C(C([H])([H])[H])(C([H])([H])[H])C([H])([H])[H])C([H])([H])c2c([H])c(OC([H])([H])C([H])([H])c3c([H])c([H])c([H])c(C4([H])N(C(=O)N5C([H])([H])C([H])([H])C([H])([H])C([H])(n6nc(-c7c([H])c([H])c(Oc8c([H])c([H])c(F)c([H])c8F)c([H])c7[H])c(C(=O)N([H])[H])c6N([H])[H])C5([H])[H])C([H])([H])C([H])([H])C4([H])[N+]([H])([H])[H])c3[H])c([H])c([H])c2C1([H])[H]

$$$$
51:0:0
     RDKit          3D

 95104  0  0  1  0  0  0  0  0999 V2000
  -29.8390  -22.8680   22.7090 C   0  0  0  0  0  0  0  0  0  0  0  0
  -30.4030  -22.4770   21.3960 C   0  0  0  0  0  0  0  0  0  0  0  0
  -29.3530  -24.2930   22.5250 C   0  0  0  0  0  2  0  0  0  0  0  0
  -29.6380  -24.5750   21.0150 C   0  0  0  0  0  3  0  0  0  0  0  0
  -30.2220  -23.3290   20.4690 N   0  0  0  0  0  0  0  0  0  0  0  0
  -29.7950  -22.2200   23.7630 O   0  0  0  0  0  0  0  0  0  0  0  0
  -28.7650  -24.9100   18.6360 C   0  0  0  0  0  1  0  0  0  0  0  0
  -27.1580  -24.3970   20.5370 C   0  0  0  0  0  1  0  0  0  0  0  0
  -28.4550  -25.1550   20.1290 C   0  0  1  0  0  0  0  0  0  0  0  0
  -28.4360  -26.6230   20.2750 O   0  0  0  0  0  0  0  0  0  0  0  0
  -24.6180  -31.8400   23.2550 C   0  0  0  0  0  0  0  0  0  0  0  0
  -27.2930  -27.4110   20.1420 C   0  0  0  0  0  0  0  0  0  0  0  0
  -23.4330  -30.4710   21.5750 C   0  0  0  0  0  3  0  0  0  0  0  0
  -24.9060  -28.9710   20.1200 C   0  0  0  0  0  0  0  0  0  0  0  0
  -25.9610  -30.8290   21.4070 C   0  0  0  0  0  2  0  0  0  0  0  0
  -26.0560  -29.4650   20.7460 C   0  0  0  0  0  0  0  0  0  0  0  0
  -27.2450  -28.6880   20.7650 C   0  0  0  0  0  3  0  0  0  0  0  0
  -26.1460  -26.9940   19.4290 C   0  0  0  0  0  3  0  0  0  0  0  0
  -24.9510  -27.7380   19.4540 C   0  0  0  0  0  3  0  0  0  0  0  0
  -23.6580  -29.8280   20.1790 C   0  0  0  0  0  2  0  0  0  0  0  0
  -24.6900  -31.0600   22.1390 N   0  0  0  0  0  0  0  0  0  0  0  0
  -23.5310  -32.0940   23.7940 O   0  0  0  0  0  0  0  0  0  0  0  0
  -22.7820  -29.4230   22.5080 C   0  0  0  0  0  0  0  0  0  0  0  0
  -21.4620  -29.2260   22.3590 N   0  0  0  0  0  0  0  0  0  0  0  0
  -23.4640  -28.7970   23.3240 O   0  0  0  0  0  0  0  0  0  0  0  0
  -20.9720  -29.7900   21.6790 H   0  0  0  0  0  0  0  0  0  0  0  0
  -18.1020  -27.9610   22.7790 C   0  0  0  0  0  0  0  0  0  0  0  0
  -20.6490  -28.2610   23.1010 C   0  0  0  0  0  3  0  0  0  0  0  0
  -20.7870  -26.8390   22.5080 C   0  0  0  0  0  2  0  0  0  0  0  0
  -19.7090  -26.5080   21.4720 C   0  0  0  0  0  2  0  0  0  0  0  0
  -18.3130  -26.6220   22.0910 C   0  0  0  0  0  2  0  0  0  0  0  0
  -19.2000  -28.7350   23.2400 C   0  0  0  0  0  0  0  0  0  0  0  0
  -18.9530  -29.9860   23.8450 C   0  0  0  0  0  3  0  0  0  0  0  0
  -17.6390  -30.4650   23.9980 C   0  0  0  0  0  3  0  0  0  0  0  0
  -16.5550  -29.6880   23.5530 C   0  0  0  0  0  3  0  0  0  0  0  0
  -16.7860  -28.4390   22.9480 C   0  0  0  0  0  3  0  0  0  0  0  0
  -25.8960  -32.4680   23.8920 C   0  0  0  0  0  3  0  0  0  0  0  0
  -26.3900  -31.6970   25.1750 C   0  0  1  0  0  0  0  0  0  0  0  0
  -25.2770  -31.4600   26.2260 C   0  0  0  0  0  1  0  0  0  0  0  0
  -26.9840  -30.3220   24.7870 C   0  0  0  0  0  1  0  0  0  0  0  0
  -27.5260  -32.4940   25.8580 C   0  0  0  0  0  1  0  0  0  0  0  0
  -25.5840  -33.8650   24.2170 N   0  0  0  0  0  0  0  0  0  0  0  0
  -25.9040  -34.9160   23.4510 C   0  0  0  0  0  0  0  0  0  0  0  0
  -26.5660  -34.8110   22.4140 O   0  0  0  0  0  0  0  0  0  0  0  0
  -24.9920  -34.0170   25.0220 H   0  0  0  0  0  0  0  0  0  0  0  0
  -24.1550  -36.6930   23.1180 C   0  0  0  0  0  1  0  0  0  0  0  0
  -25.4160  -36.3050   23.9060 C   0  0  0  0  0  3  0  0  0  0  0  0
  -27.5560  -37.2230   24.6840 C   0  0  0  0  0  1  0  0  0  0  0  0
  -26.4370  -37.3650   23.7580 N   0  0  0  0  0  0  0  0  0  0  0  0
  -26.0250  -38.2830   23.9020 H   0  0  0  0  0  0  0  0  0  0  0  0
  -31.3460  -21.2680   21.2720 C   0  0  0  0  0  2  0  0  0  0  0  0
  -29.6020  -19.2810   21.2730 C   0  0  0  0  0  3  0  0  0  0  0  0
  -31.9400  -18.8840   20.7990 C   0  0  0  0  0  3  0  0  0  0  0  0
  -29.3670  -17.8780   21.1980 C   0  0  0  0  0  3  0  0  0  0  0  0
  -31.7110  -17.4970   20.7270 C   0  0  0  0  0  3  0  0  0  0  0  0
  -30.9060  -19.7990   21.0840 C   0  0  0  0  0  0  0  0  0  0  0  0
  -30.4170  -16.9570   20.9240 C   0  0  0  0  0  0  0  0  0  0  0  0
  -30.7340  -14.5670   20.1440 C   0  0  0  0  0  0  0  0  0  0  0  0
  -30.3440  -12.4590   18.9110 C   0  0  0  0  0  2  0  0  0  0  0  0
  -29.3450  -12.7230   17.7650 C   0  0  0  0  0  2  0  0  0  0  0  0
  -27.8930  -12.5890   18.2630 C   0  0  0  0  0  2  0  0  0  0  0  0
  -27.6360  -13.3630   19.5830 C   0  0  0  0  0  3  0  0  0  0  0  0
  -28.7430  -13.0790   20.6230 C   0  0  0  0  0  2  0  0  0  0  0  0
  -30.0400  -13.4010   20.0040 N   0  0  0  0  0  0  0  0  0  0  0  0
  -31.8050  -14.7430   19.5570 O   0  0  0  0  0  0  0  0  0  0  0  0
  -30.1380  -15.5410   20.8800 N   0  0  0  0  0  0  0  0  0  0  0  0
  -29.2950  -15.2430   21.3500 H   0  0  0  0  0  0  0  0  0  0  0  0
  -25.2750  -13.9590   20.4090 C   0  0  0  0  0  0  0  0  0  0  0  0
  -24.2230  -13.1840   20.8130 C   0  0  0  0  0  0  0  0  0  0  0  0
  -24.6750  -11.8290   20.7290 C   0  0  0  0  0  0  0  0  0  0  0  0
  -26.3050  -13.0800   20.1140 N   0  0  0  0  0  0  0  0  0  0  0  0
  -25.9490  -11.7930   20.3590 N   0  0  0  0  0  0  0  0  0  0  0  0
  -23.9520  -10.5670   20.9270 C   0  0  0  0  0  0  0  0  0  0  0  0
  -24.3830   -9.6070   21.8700 C   0  0  0  0  0  3  0  0  0  0  0  0
  -23.6600   -8.4090   22.0550 C   0  0  0  0  0  3  0  0  0  0  0  0
  -22.4920   -8.1610   21.2960 C   0  0  0  0  0  0  0  0  0  0  0  0
  -22.0790   -9.1090   20.3430 C   0  0  0  0  0  3  0  0  0  0  0  0
  -22.8020  -10.2990   20.1560 C   0  0  0  0  0  3  0  0  0  0  0  0
  -21.7410   -7.0150   21.3890 O   0  0  0  0  0  0  0  0  0  0  0  0
  -21.6230   -6.3250   22.5680 C   0  0  0  0  0  0  0  0  0  0  0  0
  -21.1040   -6.9260   23.7340 C   0  0  0  0  0  3  0  0  0  0  0  0
  -20.9370   -6.1620   24.9070 C   0  0  0  0  0  3  0  0  0  0  0  0
  -21.2800   -4.7970   24.9120 C   0  0  0  0  0  0  0  0  0  0  0  0
  -21.7930   -4.1950   23.7500 C   0  0  0  0  0  3  0  0  0  0  0  0
  -21.9630   -4.9570   22.5810 C   0  0  0  0  0  0  0  0  0  0  0  0
  -22.4370   -4.3660   21.4570 F   0  0  0  0  0  0  0  0  0  0  0  0
  -21.1130   -4.0600   26.0360 F   0  0  0  0  0  0  0  0  0  0  0  0
  -22.8440  -13.6600   21.1660 C   0  0  0  0  0  0  0  0  0  0  0  0
  -22.1590  -12.9510   22.0560 N   0  0  0  0  0  0  0  0  0  0  0  0
  -22.3830  -14.6980   20.6900 O   0  0  0  0  0  0  0  0  0  0  0  0
  -22.5450  -12.1110   22.4620 H   0  0  0  0  0  0  0  0  0  0  0  0
  -21.2370  -13.2520   22.3370 H   0  0  0  0  0  0  0  0  0  0  0  0
  -25.4410  -15.3330   20.2520 N   0  0  0  0  0  0  0  0  0  0  0  0
  -24.6840  -15.9910   20.3910 H   0  0  0  0  0  0  0  0  0  0  0  0
  -26.2790  -15.7660   19.8820 H   0  0  0  0  0  0  0  0  0  0  0  0
  1  6  2  0
  2  1  1  0
  3  1  1  0
  4  9  1  0
  4  3  1  0
  5  4  1  0
  5  2  2  0
  9  7  1  6
  9 10  1  0
  9  8  1  0
 11 22  2  0
 12 10  1  0
 12 17  1  0
 13 21  1  0
 13 23  1  0
 14 20  1  0
 14 16  1  0
 15 21  1  0
 16 17  2  0
 16 15  1  0
 18 19  1  0
 18 12  2  0
 19 14  2  0
 20 13  1  0
 21 11  1  0
 23 25  2  0
 24 23  1  0
 26 24  1  0
 27 36  2  0
 27 32  1  0
 28 24  1  0
 28 32  1  0
 29 28  1  0
 30 31  1  0
 30 29  1  0
 31 27  1  0
 32 33  2  0
 33 34  1  0
 35 34  2  0
 36 35  1  0
 37 11  1  0
 37 42  1  0
 37 38  1  0
 38 41  1  1
 38 39  1  0
 40 38  1  0
 42 45  1  0
 43 47  1  0
 43 42  1  0
 44 43  2  0
 47 46  1  0
 49 50  1  0
 49 47  1  0
 49 48  1  0
 51  2  1  0
 53 56  1  0
 54 52  1  0
 55 53  2  0
 55 57  1  0
 56 51  1  0
 56 52  2  0
 57 54  2  0
 58 66  1  0
 59 64  1  0
 60 61  1  0
 60 59  1  0
 62 61  1  0
 62 71  1  0
 62 63  1  0
 64 58  1  0
 64 63  1  0
 65 58  2  0
 66 57  1  0
 66 67  1  0
 68 69  2  0
 69 88  1  0
 70 69  1  0
 70 73  1  0
 71 72  1  0
 71 68  1  0
 72 70  2  0
 73 74  1  0
 74 75  2  0
 76 79  1  0
 76 75  1  0
 77 76  2  0
 78 77  1  0
 78 73  2  0
 79 80  1  0
 80 85  2  0
 80 81  1  0
 81 82  2  0
 82 83  1  0
 83 87  1  0
 84 83  2  0
 85 84  1  0
 86 85  1  0
 88 89  1  0
 89 92  1  0
 89 91  1  0
 90 88  2  0
 93 94  1  0
 93 68  1  0
 95 93  1  0
M  ISO  4   9 101  10 101  58 100  66 100
M  END
>  <TORSDO>  (52) 
F 19

>  <SCORE>  (52) 
-14.337

>  <name>  (52) 
51

>  <ligand_id>  (52) 
51

>  <original_smiles>  (52) 
[H]c1c([H])c([H])c2c(c1[H])C([H])([H])C([H])([H])C([H])([H])C2([H])N([H])C(=O)C1([H])N(C(=O)C([H])(N([H])C(=O)C([H])(N([H])C([H])([H])[H])C([H])([H])[H])C(C([H])([H])[H])(C([H])([H])[H])C([H])([H])[H])C([H])([H])c2c([H])c(OC(C([H])([H])[H])(C([H])([H])[H])C3([H])N=C(C([H])([H])c4c([H])c([H])c(N([H])C(=O)N5C([H])([H])C([H])([H])C([H])([H])C([H])(n6nc(-c7c([H])c([H])c(Oc8c([H])c([H])c(F)c([H])c8F)c([H])c7[H])c(C(=O)N([H])[H])c6N([H])[H])C5([H])[H])c([H])c4[H])C(=O)C3([H])[H])c([H])c([H])c2C1([H])[H]

>  <smiles>  (52) 
[H]c1c([H])c([H])c2c(c1[H])C([H])([H])C([H])([H])C([H])([H])C2([H])N([H])C(=O)C1([H])N(C(=O)C([H])(N([H])C(=O)C([H])(N([H])C([H])([H])[H])C([H])([H])[H])C(C([H])([H])[H])(C([H])([H])[H])C([H])([H])[H])C([H])([H])c2c([H])c(OC(C([H])([H])[H])(C([H])([H])[H])C3([H])N=C(C([H])([H])c4c([H])c([H])c(N([H])C(=O)N5C([H])([H])C([H])([H])C([H])([H])C([H])(n6nc(-c7c([H])c([H])c(Oc8c([H])c([H])c(F)c([H])c8F)c([H])c7[H])c(C(=O)N([H])[H])c6N([H])[H])C5([H])[H])c([H])c4[H])C(=O)C3([H])[H])c([H])c([H])c2C1([H])[H]

$$$$
52:0:0
     RDKit          3D

 91 99  0  0  1  0  0  0  0  0999 V2000
  -29.0660  -22.4760   19.6540 C   0  0  0  0  0  2  0  0  0  0  0  0
  -30.4430  -24.2890   20.8340 C   0  0  0  0  0  1  0  0  0  0  0  0
  -28.1530  -23.7130   21.7220 C   0  0  0  0  0  1  0  0  0  0  0  0
  -29.0100  -23.8790   20.4520 C   0  0  2  0  0  0  0  0  0  0  0  0
  -28.3520  -25.0770   19.6200 C   0  0  0  0  0  2  0  0  0  0  0  0
  -28.3500  -26.4630   20.1740 O   0  0  0  0  0  0  0  0  0  0  0  0
  -24.6290  -31.8790   23.1970 C   0  0  0  0  0  0  0  0  0  0  0  0
  -27.2130  -27.2960   20.1220 C   0  0  0  0  0  0  0  0  0  0  0  0
  -23.4120  -30.4770   21.5700 C   0  0  0  0  0  3  0  0  0  0  0  0
  -24.8490  -28.9210   20.1450 C   0  0  0  0  0  0  0  0  0  0  0  0
  -25.9570  -30.7790   21.3790 C   0  0  0  0  0  2  0  0  0  0  0  0
  -26.0240  -29.4010   20.7340 C   0  0  0  0  0  0  0  0  0  0  0  0
  -27.2050  -28.5970   20.7210 C   0  0  0  0  0  3  0  0  0  0  0  0
  -26.0090  -26.8800   19.5050 C   0  0  0  0  0  3  0  0  0  0  0  0
  -24.8420  -27.6620   19.5310 C   0  0  0  0  0  3  0  0  0  0  0  0
  -23.6190  -29.8010   20.1900 C   0  0  0  0  0  2  0  0  0  0  0  0
  -24.6860  -31.0640   22.1030 N   0  0  0  0  0  0  0  0  0  0  0  0
  -23.5480  -32.1590   23.7350 O   0  0  0  0  0  0  0  0  0  0  0  0
  -22.7550  -29.4640   22.5370 C   0  0  0  0  0  0  0  0  0  0  0  0
  -21.4300  -29.2780   22.4120 N   0  0  0  0  0  0  0  0  0  0  0  0
  -23.4370  -28.8490   23.3610 O   0  0  0  0  0  0  0  0  0  0  0  0
  -20.9370  -29.8230   21.7180 H   0  0  0  0  0  0  0  0  0  0  0  0
  -18.0590  -28.0670   22.9270 C   0  0  0  0  0  0  0  0  0  0  0  0
  -20.6170  -28.3430   23.1920 C   0  0  0  0  0  3  0  0  0  0  0  0
  -20.7270  -26.9060   22.6330 C   0  0  0  0  0  2  0  0  0  0  0  0
  -19.6280  -26.5660   21.6220 C   0  0  0  0  0  2  0  0  0  0  0  0
  -18.2450  -26.7120   22.2630 C   0  0  0  0  0  2  0  0  0  0  0  0
  -19.1760  -28.8400   23.3500 C   0  0  0  0  0  0  0  0  0  0  0  0
  -18.9510  -30.1070   23.9290 C   0  0  0  0  0  3  0  0  0  0  0  0
  -17.6440  -30.6030   24.0920 C   0  0  0  0  0  3  0  0  0  0  0  0
  -16.5420  -29.8290   23.6840 C   0  0  0  0  0  3  0  0  0  0  0  0
  -16.7500  -28.5620   23.1100 C   0  0  0  0  0  3  0  0  0  0  0  0
  -25.9170  -32.5140   23.8090 C   0  0  0  0  0  3  0  0  0  0  0  0
  -25.6020  -33.9080   24.1540 N   0  0  0  0  0  0  0  0  0  0  0  0
  -25.9180  -34.9700   23.4010 C   0  0  0  0  0  0  0  0  0  0  0  0
  -26.5790  -34.8770   22.3620 O   0  0  0  0  0  0  0  0  0  0  0  0
  -25.0240  -34.0530   24.9690 H   0  0  0  0  0  0  0  0  0  0  0  0
  -24.1880  -36.7620   23.0710 C   0  0  0  0  0  1  0  0  0  0  0  0
  -25.4310  -36.3520   23.8750 C   0  0  0  0  0  3  0  0  0  0  0  0
  -27.5620  -37.2360   24.7150 C   0  0  0  0  0  1  0  0  0  0  0  0
  -26.4590  -37.4090   23.7730 N   0  0  0  0  0  0  0  0  0  0  0  0
  -26.0510  -38.3260   23.9290 H   0  0  0  0  0  0  0  0  0  0  0  0
  -26.4520  -31.7380   25.0760 C   0  0  1  0  0  0  0  0  0  0  0  0
  -25.3700  -31.4840   26.1520 C   0  0  0  0  0  1  0  0  0  0  0  0
  -27.0430  -30.3670   24.6710 C   0  0  0  0  0  1  0  0  0  0  0  0
  -27.6030  -32.5340   25.7310 C   0  0  0  0  0  1  0  0  0  0  0  0
  -29.6620  -21.2600   20.3540 N   0  0  0  0  0  4  0  0  0  0  0  0
  -30.5980  -21.4960   20.6480 H   0  0  0  0  0  0  0  0  0  0  0  0
  -29.1210  -21.0910   21.1850 H   0  0  0  0  0  0  0  0  0  0  0  0
  -29.7400  -19.9450   19.5890 C   0  0  0  0  0  2  0  0  0  0  0  0
  -31.4910  -18.1150   20.4240 C   0  0  0  0  0  2  0  0  0  0  0  0
  -30.0650  -18.6310   20.4140 C   0  0  0  0  0  3  0  0  0  0  0  0
  -30.4450  -17.1890   19.8460 C   0  0  0  0  0  3  0  0  0  0  0  0
  -30.9050  -14.6960   20.0680 C   0  0  0  0  0  0  0  0  0  0  0  0
  -30.5430  -12.5050   18.9350 C   0  0  0  0  0  2  0  0  0  0  0  0
  -29.5410  -12.6750   17.7740 C   0  0  0  0  0  2  0  0  0  0  0  0
  -28.0930  -12.5120   18.2730 C   0  0  0  0  0  2  0  0  0  0  0  0
  -27.8150  -13.3220   19.5680 C   0  0  0  0  0  3  0  0  0  0  0  0
  -28.9360  -13.1130   20.6080 C   0  0  0  0  0  2  0  0  0  0  0  0
  -30.2090  -13.5060   19.9760 N   0  0  0  0  0  0  0  0  0  0  0  0
  -32.0000  -14.8020   19.5100 O   0  0  0  0  0  0  0  0  0  0  0  0
  -29.7130  -15.9110   21.8600 C   0  0  0  0  0  1  0  0  0  0  0  0
  -30.2760  -15.8550   20.5080 N   0  0  0  0  0  0  0  0  0  0  0  0
  -25.4650  -13.9090   20.4300 C   0  0  0  0  0  0  0  0  0  0  0  0
  -24.4180  -13.1300   20.8420 C   0  0  0  0  0  0  0  0  0  0  0  0
  -24.8710  -11.7780   20.7550 C   0  0  0  0  0  0  0  0  0  0  0  0
  -26.4930  -13.0310   20.1200 N   0  0  0  0  0  0  0  0  0  0  0  0
  -26.1440  -11.7430   20.3740 N   0  0  0  0  0  0  0  0  0  0  0  0
  -24.1490  -10.5140   20.9530 C   0  0  0  0  0  0  0  0  0  0  0  0
  -24.5880   -9.5550   21.8920 C   0  0  0  0  0  3  0  0  0  0  0  0
  -23.8670   -8.3550   22.0780 C   0  0  0  0  0  3  0  0  0  0  0  0
  -22.6950   -8.1070   21.3270 C   0  0  0  0  0  0  0  0  0  0  0  0
  -22.2750   -9.0560   20.3780 C   0  0  0  0  0  3  0  0  0  0  0  0
  -22.9950  -10.2480   20.1900 C   0  0  0  0  0  3  0  0  0  0  0  0
  -21.9440   -6.9600   21.4230 O   0  0  0  0  0  0  0  0  0  0  0  0
  -21.8420   -6.2630   22.6000 C   0  0  0  0  0  0  0  0  0  0  0  0
  -21.3420   -6.8590   23.7780 C   0  0  0  0  0  3  0  0  0  0  0  0
  -21.1910   -6.0860   24.9480 C   0  0  0  0  0  3  0  0  0  0  0  0
  -21.5290   -4.7200   24.9380 C   0  0  0  0  0  0  0  0  0  0  0  0
  -22.0200   -4.1240   23.7640 C   0  0  0  0  0  3  0  0  0  0  0  0
  -22.1740   -4.8930   22.5970 C   0  0  0  0  0  0  0  0  0  0  0  0
  -22.6280   -4.3090   21.4620 F   0  0  0  0  0  0  0  0  0  0  0  0
  -21.3760   -3.9760   26.0580 F   0  0  0  0  0  0  0  0  0  0  0  0
  -23.0390  -13.6060   21.2000 C   0  0  0  0  0  0  0  0  0  0  0  0
  -22.3570  -12.8940   22.0890 N   0  0  0  0  0  0  0  0  0  0  0  0
  -22.5780  -14.6440   20.7250 O   0  0  0  0  0  0  0  0  0  0  0  0
  -22.7440  -12.0550   22.4950 H   0  0  0  0  0  0  0  0  0  0  0  0
  -21.4320  -13.1930   22.3620 H   0  0  0  0  0  0  0  0  0  0  0  0
  -25.6240  -15.2830   20.2750 N   0  0  0  0  0  0  0  0  0  0  0  0
  -24.8660  -15.9360   20.4440 H   0  0  0  0  0  0  0  0  0  0  0  0
  -26.4570  -15.7290   19.9120 H   0  0  0  0  0  0  0  0  0  0  0  0
  1 47  1  0
  1  4  1  0
  4  2  1  1
  4  3  1  0
  5  6  1  0
  5  4  1  0
  7 18  2  0
  8  6  1  0
  8 13  1  0
  9 17  1  0
  9 19  1  0
 10 16  1  0
 10 12  1  0
 11 17  1  0
 12 11  1  0
 13 12  2  0
 14 15  1  0
 14  8  2  0
 15 10  2  0
 16  9  1  0
 17  7  1  0
 19 21  2  0
 20 19  1  0
 22 20  1  0
 23 32  2  0
 23 28  1  0
 24 20  1  0
 24 28  1  0
 25 24  1  0
 26 27  1  0
 26 25  1  0
 27 23  1  0
 28 29  2  0
 29 30  1  0
 31 30  2  0
 32 31  1  0
 33  7  1  0
 33 34  1  0
 33 43  1  0
 34 37  1  0
 35 39  1  0
 35 34  1  0
 36 35  2  0
 39 38  1  0
 41 39  1  0
 41 42  1  0
 41 40  1  0
 43 46  1  1
 43 44  1  0
 45 43  1  0
 47 48  1  0
 47 49  1  0
 50 47  1  0
 52 50  1  0
 52 51  1  0
 53 52  1  0
 53 51  1  0
 53 63  1  0
 54 63  1  0
 55 60  1  0
 56 57  1  0
 56 55  1  0
 58 57  1  0
 58 67  1  0
 58 59  1  0
 60 54  1  0
 60 59  1  0
 61 54  2  0
 63 62  1  0
 64 65  2  0
 65 84  1  0
 66 65  1  0
 66 69  1  0
 67 68  1  0
 67 64  1  0
 68 66  2  0
 69 70  1  0
 70 71  2  0
 72 75  1  0
 72 71  1  0
 73 72  2  0
 74 73  1  0
 74 69  2  0
 75 76  1  0
 76 77  1  0
 77 78  2  0
 79 78  1  0
 79 83  1  0
 80 79  2  0
 81 76  2  0
 81 80  1  0
 82 81  1  0
 84 85  1  0
 85 88  1  0
 85 87  1  0
 86 84  2  0
 89 64  1  0
 89 90  1  0
 91 89  1  0
M  ISO  4   5 101   6 101  54 100  63 100
M  END
>  <TORSDO>  (53) 
F 21

>  <SCORE>  (53) 
-12.901

>  <name>  (53) 
52

>  <ligand_id>  (53) 
52

>  <original_smiles>  (53) 
[H]c1c([H])c([H])c2c(c1[H])C([H])([H])C([H])([H])C([H])([H])C2([H])N([H])C(=O)C1([H])N(C(=O)C([H])(N([H])C(=O)C([H])(N([H])C([H])([H])[H])C([H])([H])[H])C(C([H])([H])[H])(C([H])([H])[H])C([H])([H])[H])C([H])([H])c2c([H])c(OC([H])([H])C(C([H])([H])[H])(C([H])([H])[H])C([H])([H])[N+]([H])([H])C([H])([H])C3([H])C([H])([H])C3([H])N(C(=O)N3C([H])([H])C([H])([H])C([H])([H])C([H])(n4nc(-c5c([H])c([H])c(Oc6c([H])c([H])c(F)c([H])c6F)c([H])c5[H])c(C(=O)N([H])[H])c4N([H])[H])C3([H])[H])C([H])([H])[H])c([H])c([H])c2C1([H])[H]

>  <smiles>  (53) 
[H]c1c([H])c([H])c2c(c1[H])C([H])([H])C([H])([H])C([H])([H])C2([H])N([H])C(=O)C1([H])N(C(=O)C([H])(N([H])C(=O)C([H])(N([H])C([H])([H])[H])C([H])([H])[H])C(C([H])([H])[H])(C([H])([H])[H])C([H])([H])[H])C([H])([H])c2c([H])c(OC([H])([H])C(C([H])([H])[H])(C([H])([H])[H])C([H])([H])[N+]([H])([H])C([H])([H])C3([H])C([H])([H])C3([H])N(C(=O)N3C([H])([H])C([H])([H])C([H])([H])C([H])(n4nc(-c5c([H])c([H])c(Oc6c([H])c([H])c(F)c([H])c6F)c([H])c5[H])c(C(=O)N([H])[H])c4N([H])[H])C3([H])[H])C([H])([H])[H])c([H])c([H])c2C1([H])[H]

$$$$
53:0:0
     RDKit          3D

 91 99  0  0  1  0  0  0  0  0999 V2000
  -30.3730  -21.3750   20.2560 C   0  0  0  0  0  0  0  0  0  0  0  0
  -29.8650  -22.1340   21.3660 C   0  0  0  0  0  0  0  0  0  0  0  0
  -30.8260  -20.1070   20.0980 C   0  0  0  0  0  0  0  0  0  0  0  0
  -30.2950  -22.5830   19.3720 C   0  0  0  0  0  2  0  0  0  0  0  0
  -31.3860  -19.6580   18.7590 C   0  0  0  0  0  1  0  0  0  0  0  0
  -29.8310  -23.2910   20.5930 N   0  0  0  0  0  0  0  0  0  0  0  0
  -29.6340  -21.8290   22.5150 O   0  0  0  0  0  0  0  0  0  0  0  0
  -30.8830  -19.0410   21.1980 C   0  0  0  0  0  2  0  0  0  0  0  0
  -30.3640  -17.6460   20.7730 C   0  0  0  0  0  2  0  0  0  0  0  0
  -30.6560  -16.5570   21.8270 C   0  0  0  0  0  2  0  0  0  0  0  0
  -30.6870  -14.3950   20.5590 C   0  0  0  0  0  0  0  0  0  0  0  0
  -30.3310  -12.3100   19.2780 C   0  0  0  0  0  2  0  0  0  0  0  0
  -29.3860  -12.5670   18.0880 C   0  0  0  0  0  2  0  0  0  0  0  0
  -27.9100  -12.4380   18.5210 C   0  0  0  0  0  2  0  0  0  0  0  0
  -27.5970  -13.2550   19.8030 C   0  0  0  0  0  3  0  0  0  0  0  0
  -28.6460  -12.9570   20.8970 C   0  0  0  0  0  2  0  0  0  0  0  0
  -29.9810  -13.2560   20.3480 N   0  0  0  0  0  0  0  0  0  0  0  0
  -31.7400  -14.6580   19.9730 O   0  0  0  0  0  0  0  0  0  0  0  0
  -30.1410  -15.2420   21.4420 N   0  0  0  0  0  0  0  0  0  0  0  0
  -29.2980  -14.9270   21.9020 H   0  0  0  0  0  0  0  0  0  0  0  0
  -25.1960  -13.8930   20.4950 C   0  0  0  0  0  0  0  0  0  0  0  0
  -24.1200  -13.1340   20.8670 C   0  0  0  0  0  0  0  0  0  0  0  0
  -24.5700  -11.7790   20.8430 C   0  0  0  0  0  0  0  0  0  0  0  0
  -26.2380  -13.0020   20.2770 N   0  0  0  0  0  0  0  0  0  0  0  0
  -25.8610  -11.7250   20.5420 N   0  0  0  0  0  0  0  0  0  0  0  0
  -23.8340  -10.5220   21.0350 C   0  0  0  0  0  0  0  0  0  0  0  0
  -24.2710   -9.5430   21.9560 C   0  0  0  0  0  3  0  0  0  0  0  0
  -23.5360   -8.3510   22.1350 C   0  0  0  0  0  3  0  0  0  0  0  0
  -22.3500   -8.1310   21.3960 C   0  0  0  0  0  0  0  0  0  0  0  0
  -21.9330   -9.0960   20.4630 C   0  0  0  0  0  3  0  0  0  0  0  0
  -22.6670  -10.2800   20.2810 C   0  0  0  0  0  3  0  0  0  0  0  0
  -21.5860   -6.9910   21.4870 O   0  0  0  0  0  0  0  0  0  0  0  0
  -21.5590   -6.2320   22.6290 C   0  0  0  0  0  0  0  0  0  0  0  0
  -21.1890   -6.7750   23.8790 C   0  0  0  0  0  3  0  0  0  0  0  0
  -21.1120   -5.9430   25.0130 C   0  0  0  0  0  3  0  0  0  0  0  0
  -21.3940   -4.5680   24.8970 C   0  0  0  0  0  0  0  0  0  0  0  0
  -21.7560   -4.0250   23.6510 C   0  0  0  0  0  3  0  0  0  0  0  0
  -21.8370   -4.8550   22.5200 C   0  0  0  0  0  0  0  0  0  0  0  0
  -22.1680   -4.3220   21.3190 F   0  0  0  0  0  0  0  0  0  0  0  0
  -21.3100   -3.7660   25.9840 F   0  0  0  0  0  0  0  0  0  0  0  0
  -22.7260  -13.6230   21.1330 C   0  0  0  0  0  0  0  0  0  0  0  0
  -21.9910  -12.9360   22.0000 N   0  0  0  0  0  0  0  0  0  0  0  0
  -22.2970  -14.6500   20.6050 O   0  0  0  0  0  0  0  0  0  0  0  0
  -22.3440  -12.0980   22.4410 H   0  0  0  0  0  0  0  0  0  0  0  0
  -21.0580  -13.2490   22.2300 H   0  0  0  0  0  0  0  0  0  0  0  0
  -25.3800  -15.2610   20.3040 N   0  0  0  0  0  0  0  0  0  0  0  0
  -24.6340  -15.9360   20.4110 H   0  0  0  0  0  0  0  0  0  0  0  0
  -26.2470  -15.6780   19.9800 H   0  0  0  0  0  0  0  0  0  0  0  0
  -29.5890  -24.7060   20.8920 C   0  0  0  0  0  2  0  0  0  0  0  0
  -28.3730  -25.2970   20.1420 C   0  0  0  0  0  2  0  0  0  0  0  0
  -28.3930  -26.7320   20.2240 O   0  0  0  0  0  0  0  0  0  0  0  0
  -24.5610  -31.8800   23.2450 C   0  0  0  0  0  0  0  0  0  0  0  0
  -27.2000  -27.4300   20.1790 C   0  0  0  0  0  0  0  0  0  0  0  0
  -23.3480  -30.4840   21.6020 C   0  0  0  0  0  3  0  0  0  0  0  0
  -24.7990  -28.9380   20.1750 C   0  0  0  0  0  0  0  0  0  0  0  0
  -25.8770  -30.8330   21.4070 C   0  0  0  0  0  2  0  0  0  0  0  0
  -25.9570  -29.4660   20.7580 C   0  0  0  0  0  0  0  0  0  0  0  0
  -27.1590  -28.7250   20.7440 C   0  0  0  0  0  3  0  0  0  0  0  0
  -26.0230  -26.9100   19.5920 C   0  0  0  0  0  3  0  0  0  0  0  0
  -24.8280  -27.6590   19.5870 C   0  0  0  0  0  3  0  0  0  0  0  0
  -23.5540  -29.7970   20.2250 C   0  0  0  0  0  2  0  0  0  0  0  0
  -24.6130  -31.0810   22.1400 N   0  0  0  0  0  0  0  0  0  0  0  0
  -23.4810  -32.1540   23.7860 O   0  0  0  0  0  0  0  0  0  0  0  0
  -22.6950  -29.4650   22.5630 C   0  0  0  0  0  0  0  0  0  0  0  0
  -21.3700  -29.2830   22.4340 N   0  0  0  0  0  0  0  0  0  0  0  0
  -23.3760  -28.8400   23.3800 O   0  0  0  0  0  0  0  0  0  0  0  0
  -20.8780  -29.8370   21.7470 H   0  0  0  0  0  0  0  0  0  0  0  0
  -17.9950  -28.0910   22.9310 C   0  0  0  0  0  0  0  0  0  0  0  0
  -20.5530  -28.3480   23.2070 C   0  0  0  0  0  3  0  0  0  0  0  0
  -20.6530  -26.9140   22.6370 C   0  0  0  0  0  2  0  0  0  0  0  0
  -19.5530  -26.5910   21.6220 C   0  0  0  0  0  2  0  0  0  0  0  0
  -18.1700  -26.7390   22.2620 C   0  0  0  0  0  2  0  0  0  0  0  0
  -19.1140  -28.8540   23.3610 C   0  0  0  0  0  0  0  0  0  0  0  0
  -18.8950  -30.1210   23.9430 C   0  0  0  0  0  3  0  0  0  0  0  0
  -17.5910  -30.6250   24.1040 C   0  0  0  0  0  3  0  0  0  0  0  0
  -16.4860  -29.8600   23.6890 C   0  0  0  0  0  3  0  0  0  0  0  0
  -16.6900  -28.5960   23.1090 C   0  0  0  0  0  3  0  0  0  0  0  0
  -25.8480  -32.5080   23.8630 C   0  0  0  0  0  3  0  0  0  0  0  0
  -25.5420  -33.9060   24.1950 N   0  0  0  0  0  0  0  0  0  0  0  0
  -25.8720  -34.9600   23.4370 C   0  0  0  0  0  0  0  0  0  0  0  0
  -26.5370  -34.8570   22.4030 O   0  0  0  0  0  0  0  0  0  0  0  0
  -24.9510  -34.0600   24.9990 H   0  0  0  0  0  0  0  0  0  0  0  0
  -24.1380  -36.7520   23.0950 C   0  0  0  0  0  1  0  0  0  0  0  0
  -25.3850  -36.3470   23.8980 C   0  0  0  0  0  3  0  0  0  0  0  0
  -27.5280  -37.2320   24.7120 C   0  0  0  0  0  1  0  0  0  0  0  0
  -26.4170  -37.4020   23.7790 N   0  0  0  0  0  0  0  0  0  0  0  0
  -26.0100  -38.3200   23.9310 H   0  0  0  0  0  0  0  0  0  0  0  0
  -26.3690  -31.7330   25.1350 C   0  0  1  0  0  0  0  0  0  0  0  0
  -25.2840  -31.5000   26.2120 C   0  0  0  0  0  1  0  0  0  0  0  0
  -26.9500  -30.3540   24.7390 C   0  0  0  0  0  1  0  0  0  0  0  0
  -27.5200  -32.5280   25.7940 C   0  0  0  0  0  1  0  0  0  0  0  0
  1  2  1  0
  2  7  2  0
  3  1  2  0
  3  8  1  0
  4  1  1  0
  4  6  1  0
  5  3  1  0
  6 49  1  0
  6  2  1  0
  9  8  1  0
  9 10  1  0
 11 19  1  0
 12 17  1  0
 13 14  1  0
 13 12  1  0
 15 14  1  0
 15 24  1  0
 15 16  1  0
 17 11  1  0
 17 16  1  0
 18 11  2  0
 19 10  1  0
 19 20  1  0
 21 22  2  0
 22 41  1  0
 23 22  1  0
 23 26  1  0
 24 21  1  0
 24 25  1  0
 25 23  2  0
 26 27  1  0
 27 28  2  0
 29 32  1  0
 29 28  1  0
 30 29  2  0
 31 30  1  0
 31 26  2  0
 32 33  1  0
 33 34  1  0
 34 35  2  0
 36 35  1  0
 36 40  1  0
 37 36  2  0
 38 33  2  0
 38 37  1  0
 39 38  1  0
 41 42  1  0
 42 45  1  0
 42 44  1  0
 43 41  2  0
 46 47  1  0
 46 21  1  0
 48 46  1  0
 50 51  1  0
 50 49  1  0
 52 63  2  0
 53 51  1  0
 53 58  1  0
 54 62  1  0
 54 64  1  0
 55 61  1  0
 55 57  1  0
 56 62  1  0
 57 56  1  0
 58 57  2  0
 59 53  2  0
 60 59  1  0
 60 55  2  0
 61 54  1  0
 62 52  1  0
 64 66  2  0
 65 64  1  0
 67 65  1  0
 68 77  2  0
 68 73  1  0
 69 65  1  0
 69 73  1  0
 70 69  1  0
 71 72  1  0
 71 70  1  0
 72 68  1  0
 73 74  2  0
 74 75  1  0
 76 75  2  0
 77 76  1  0
 78 52  1  0
 78 79  1  0
 78 88  1  0
 79 82  1  0
 80 84  1  0
 80 79  1  0
 81 80  2  0
 84 83  1  0
 86 84  1  0
 86 87  1  0
 86 85  1  0
 88 91  1  1
 88 89  1  0
 90 88  1  0
M  ISO  4  11 100  19 100  50 101  51 101
M  END
>  <TORSDO>  (54) 
F 21

>  <SCORE>  (54) 
-13.668

>  <name>  (54) 
53

>  <ligand_id>  (54) 
53

>  <original_smiles>  (54) 
[H]c1c([H])c([H])c2c(c1[H])C([H])([H])C([H])([H])C([H])([H])C2([H])N([H])C(=O)C1([H])N(C(=O)C([H])(N([H])C(=O)C([H])(N([H])C([H])([H])[H])C([H])([H])[H])C(C([H])([H])[H])(C([H])([H])[H])C([H])([H])[H])C([H])([H])c2c([H])c(OC([H])([H])C([H])([H])N3C(=O)C(=C(C([H])([H])[H])C([H])([H])C([H])([H])C([H])([H])N([H])C(=O)N4C([H])([H])C([H])([H])C([H])([H])C([H])(n5nc(-c6c([H])c([H])c(Oc7c([H])c([H])c(F)c([H])c7F)c([H])c6[H])c(C(=O)N([H])[H])c5N([H])[H])C4([H])[H])C3([H])[H])c([H])c([H])c2C1([H])[H]

>  <smiles>  (54) 
[H]c1c([H])c([H])c2c(c1[H])C([H])([H])C([H])([H])C([H])([H])C2([H])N([H])C(=O)C1([H])N(C(=O)C([H])(N([H])C(=O)C([H])(N([H])C([H])([H])[H])C([H])([H])[H])C(C([H])([H])[H])(C([H])([H])[H])C([H])([H])[H])C([H])([H])c2c([H])c(OC([H])([H])C([H])([H])N3C(=O)C(=C(C([H])([H])[H])C([H])([H])C([H])([H])C([H])([H])N([H])C(=O)N4C([H])([H])C([H])([H])C([H])([H])C([H])(n5nc(-c6c([H])c([H])c(Oc7c([H])c([H])c(F)c([H])c7F)c([H])c6[H])c(C(=O)N([H])[H])c5N([H])[H])C4([H])[H])C3([H])[H])c([H])c([H])c2C1([H])[H]

$$$$
54:0:0
     RDKit          3D

 93101  0  0  1  0  0  0  0  0999 V2000
  -28.7000  -20.4000   18.5760 C   0  0  0  0  0  1  0  0  0  0  0  0
  -29.6300  -20.5840   19.7900 C   0  0  0  0  0  3  0  0  0  0  0  0
  -30.4510  -15.1260   20.4440 C   0  0  0  0  0  0  0  0  0  0  0  0
  -30.4200  -12.7130   19.5500 C   0  0  0  0  0  2  0  0  0  0  0  0
  -29.4900  -12.5340   18.3230 C   0  0  0  0  0  2  0  0  0  0  0  0
  -28.0410  -12.2330   18.7600 C   0  0  0  0  0  2  0  0  0  0  0  0
  -27.5770  -13.1910   19.8750 C   0  0  0  0  0  3  0  0  0  0  0  0
  -28.6350  -13.3260   21.0070 C   0  0  0  0  0  2  0  0  0  0  0  0
  -29.8840  -13.8280   20.3950 N   0  0  0  0  0  0  0  0  0  0  0  0
  -31.6710  -15.1750   20.2460 O   0  0  0  0  0  0  0  0  0  0  0  0
  -29.5040  -17.8340   20.3420 C   0  0  0  0  0  3  0  0  0  0  0  0
  -30.1860  -19.0800   20.3450 C   0  0  0  0  0  3  0  0  0  0  0  0
  -28.0190  -17.7990   20.2470 C   0  0  0  0  0  2  0  0  0  0  0  0
  -28.1860  -16.2910   20.2270 C   0  0  0  0  0  2  0  0  0  0  0  0
  -29.6180  -16.3210   20.5110 N   0  0  0  0  0  0  0  0  0  0  0  0
  -25.1780  -13.8230   20.5520 C   0  0  0  0  0  0  0  0  0  0  0  0
  -24.1120  -13.0610   20.9280 C   0  0  0  0  0  0  0  0  0  0  0  0
  -24.5770  -11.7130   20.9250 C   0  0  0  0  0  0  0  0  0  0  0  0
  -26.2320  -12.9350   20.3610 N   0  0  0  0  0  0  0  0  0  0  0  0
  -25.8720  -11.6620   20.6480 N   0  0  0  0  0  0  0  0  0  0  0  0
  -23.8460  -10.4590   21.1070 C   0  0  0  0  0  0  0  0  0  0  0  0
  -24.2830   -9.4840   22.0270 C   0  0  0  0  0  3  0  0  0  0  0  0
  -23.5530   -8.2890   22.1990 C   0  0  0  0  0  3  0  0  0  0  0  0
  -22.3740   -8.0670   21.4480 C   0  0  0  0  0  0  0  0  0  0  0  0
  -21.9580   -9.0320   20.5150 C   0  0  0  0  0  3  0  0  0  0  0  0
  -22.6890  -10.2170   20.3410 C   0  0  0  0  0  3  0  0  0  0  0  0
  -21.6130   -6.9270   21.5340 O   0  0  0  0  0  0  0  0  0  0  0  0
  -21.5930   -6.1620   22.6720 C   0  0  0  0  0  0  0  0  0  0  0  0
  -21.2330   -6.7010   23.9260 C   0  0  0  0  0  3  0  0  0  0  0  0
  -21.1590   -5.8630   25.0570 C   0  0  0  0  0  3  0  0  0  0  0  0
  -21.4330   -4.4880   24.9330 C   0  0  0  0  0  0  0  0  0  0  0  0
  -21.7870   -3.9490   23.6830 C   0  0  0  0  0  3  0  0  0  0  0  0
  -21.8640   -4.7850   22.5560 C   0  0  0  0  0  0  0  0  0  0  0  0
  -22.1860   -4.2570   21.3490 F   0  0  0  0  0  0  0  0  0  0  0  0
  -21.3530   -3.6800   26.0160 F   0  0  0  0  0  0  0  0  0  0  0  0
  -22.7110  -13.5490   21.1620 C   0  0  0  0  0  0  0  0  0  0  0  0
  -21.9650  -12.8720   22.0260 N   0  0  0  0  0  0  0  0  0  0  0  0
  -22.2870  -14.5690   20.6180 O   0  0  0  0  0  0  0  0  0  0  0  0
  -22.3210  -12.0480   22.4890 H   0  0  0  0  0  0  0  0  0  0  0  0
  -21.0250  -13.1800   22.2290 H   0  0  0  0  0  0  0  0  0  0  0  0
  -25.3000  -15.1870   20.3240 N   0  0  0  0  0  0  0  0  0  0  0  0
  -24.4960  -15.8020   20.3870 H   0  0  0  0  0  0  0  0  0  0  0  0
  -26.1100  -15.6350   19.9240 H   0  0  0  0  0  0  0  0  0  0  0  0
  -32.5660  -19.1310   19.4230 C   0  0  0  0  0  1  0  0  0  0  0  0
  -31.6790  -19.0430   20.6800 C   0  0  0  0  0  3  0  0  0  0  0  0
  -31.3620  -19.8910   23.0890 C   0  0  0  0  0  1  0  0  0  0  0  0
  -32.0940  -20.0730   21.7500 C   0  0  0  0  0  2  0  0  0  0  0  0
  -29.1400  -21.8730   20.5970 N   0  0  0  0  0  4  0  0  0  0  0  0
  -28.2110  -21.6650   20.9270 H   0  0  0  0  0  0  0  0  0  0  0  0
  -29.7090  -21.9400   21.4270 H   0  0  0  0  0  0  0  0  0  0  0  0
  -29.1000  -23.3500   19.9570 C   0  0  0  0  0  3  0  0  0  0  0  0
  -28.1560  -24.6580   20.5030 C   0  0  0  0  0  3  0  0  0  0  0  0
  -28.2970  -26.1840   20.1500 O   0  0  0  0  0  0  0  0  0  0  0  0
  -24.6390  -31.8690   23.1730 C   0  0  0  0  0  0  0  0  0  0  0  0
  -27.2040  -27.1350   20.1500 C   0  0  0  0  0  0  0  0  0  0  0  0
  -23.4230  -30.4690   21.5480 C   0  0  0  0  0  3  0  0  0  0  0  0
  -24.8600  -28.8770   20.1250 C   0  0  0  0  0  0  0  0  0  0  0  0
  -25.9750  -30.7310   21.3610 C   0  0  0  0  0  2  0  0  0  0  0  0
  -26.0450  -29.3310   20.7190 C   0  0  0  0  0  0  0  0  0  0  0  0
  -27.2150  -28.4800   20.7060 C   0  0  0  0  0  3  0  0  0  0  0  0
  -25.9870  -26.7790   19.5250 C   0  0  0  0  0  3  0  0  0  0  0  0
  -24.8440  -27.6130   19.5120 C   0  0  0  0  0  3  0  0  0  0  0  0
  -23.6340  -29.7780   20.1730 C   0  0  0  0  0  2  0  0  0  0  0  0
  -24.6990  -31.0450   22.0820 N   0  0  0  0  0  0  0  0  0  0  0  0
  -23.5580  -32.1590   23.7090 O   0  0  0  0  0  0  0  0  0  0  0  0
  -22.7450  -29.4730   22.5210 C   0  0  0  0  0  0  0  0  0  0  0  0
  -21.4170  -29.3020   22.4000 N   0  0  0  0  0  0  0  0  0  0  0  0
  -23.4190  -28.8530   23.3480 O   0  0  0  0  0  0  0  0  0  0  0  0
  -20.9290  -29.8530   21.7070 H   0  0  0  0  0  0  0  0  0  0  0  0
  -18.0410  -28.0830   22.9020 C   0  0  0  0  0  0  0  0  0  0  0  0
  -20.5970  -28.3690   23.1790 C   0  0  0  0  0  3  0  0  0  0  0  0
  -20.7130  -26.9300   22.6260 C   0  0  0  0  0  2  0  0  0  0  0  0
  -19.6190  -26.5840   21.6100 C   0  0  0  0  0  2  0  0  0  0  0  0
  -18.2330  -26.7270   22.2440 C   0  0  0  0  0  2  0  0  0  0  0  0
  -19.1510  -28.8610   23.3270 C   0  0  0  0  0  0  0  0  0  0  0  0
  -18.9180  -30.1280   23.9030 C   0  0  0  0  0  3  0  0  0  0  0  0
  -17.6070  -30.6180   24.0580 C   0  0  0  0  0  3  0  0  0  0  0  0
  -16.5120  -29.8380   23.6480 C   0  0  0  0  0  3  0  0  0  0  0  0
  -16.7300  -28.5720   23.0760 C   0  0  0  0  0  3  0  0  0  0  0  0
  -25.9240  -32.5030   23.7900 C   0  0  0  0  0  3  0  0  0  0  0  0
  -25.6100  -33.8970   24.1460 N   0  0  0  0  0  0  0  0  0  0  0  0
  -25.9300  -34.9650   23.4050 C   0  0  0  0  0  0  0  0  0  0  0  0
  -26.5860  -34.8820   22.3620 O   0  0  0  0  0  0  0  0  0  0  0  0
  -25.0270  -34.0350   24.9580 H   0  0  0  0  0  0  0  0  0  0  0  0
  -24.1900  -36.7610   23.1180 C   0  0  0  0  0  1  0  0  0  0  0  0
  -25.4490  -36.3460   23.8950 C   0  0  0  0  0  3  0  0  0  0  0  0
  -27.6020  -37.2230   24.6910 C   0  0  0  0  0  1  0  0  0  0  0  0
  -26.4770  -37.4040   23.7770 N   0  0  0  0  0  0  0  0  0  0  0  0
  -26.0710  -38.3210   23.9510 H   0  0  0  0  0  0  0  0  0  0  0  0
  -26.4560  -31.7200   25.0530 C   0  0  1  0  0  0  0  0  0  0  0  0
  -25.3770  -31.4760   26.1360 C   0  0  0  0  0  1  0  0  0  0  0  0
  -27.0310  -30.3440   24.6470 C   0  0  0  0  0  1  0  0  0  0  0  0
  -27.6170  -32.5070   25.7070 C   0  0  0  0  0  1  0  0  0  0  0  0
  2  1  1  0
  2 48  1  0
  3 15  1  0
  4  9  1  0
  5  6  1  0
  5  4  1  0
  7  6  1  0
  7 19  1  0
  7  8  1  0
  9  3  1  0
  9  8  1  0
 10  3  2  0
 11 12  1  0
 11 15  1  0
 12  2  1  0
 12 45  1  0
 13 11  1  0
 14 13  1  0
 14 15  1  0
 16 17  2  0
 17 36  1  0
 18 17  1  0
 18 21  1  0
 19 16  1  0
 19 20  1  0
 20 18  2  0
 21 22  1  0
 22 23  2  0
 24 27  1  0
 24 23  1  0
 25 24  2  0
 26 25  1  0
 26 21  2  0
 27 28  1  0
 28 29  1  0
 29 30  2  0
 31 30  1  0
 31 35  1  0
 32 31  2  0
 33 28  2  0
 33 32  1  0
 34 33  1  0
 36 37  1  0
 37 40  1  0
 37 39  1  0
 38 36  2  0
 41 42  1  0
 41 16  1  0
 43 41  1  0
 45 44  1  0
 45 47  1  0
 47 46  1  0
 48 49  1  0
 48 50  1  0
 51 52  2  0
 51 48  1  0
 53 52  1  0
 54 65  2  0
 55 53  1  0
 55 60  1  0
 56 64  1  0
 56 66  1  0
 57 63  1  0
 57 59  1  0
 58 64  1  0
 59 58  1  0
 60 59  2  0
 61 55  2  0
 62 61  1  0
 62 57  2  0
 63 56  1  0
 64 54  1  0
 66 68  2  0
 67 66  1  0
 69 67  1  0
 70 79  2  0
 70 75  1  0
 71 67  1  0
 71 75  1  0
 72 71  1  0
 73 74  1  0
 73 72  1  0
 74 70  1  0
 75 76  2  0
 76 77  1  0
 78 77  2  0
 79 78  1  0
 80 54  1  0
 80 81  1  0
 80 90  1  0
 81 84  1  0
 82 86  1  0
 82 81  1  0
 83 82  2  0
 86 85  1  0
 88 86  1  0
 88 89  1  0
 88 87  1  0
 90 93  1  1
 90 91  1  0
 92 90  1  0
M  ISO  4   3 100  15 100  52 101  53 101
M  END
>  <TORSDO>  (55) 
F 21

>  <SCORE>  (55) 
-14.976

>  <name>  (55) 
54

>  <ligand_id>  (55) 
54

>  <original_smiles>  (55) 
[H]c1c([H])c([H])c2c(c1[H])C([H])([H])C([H])([H])C([H])([H])C2([H])N([H])C(=O)C1([H])N(C(=O)C([H])(N([H])C(=O)C([H])(N([H])C([H])([H])[H])C([H])([H])[H])C(C([H])([H])[H])(C([H])([H])[H])C([H])([H])[H])C([H])([H])c2c([H])c(OC([H])([H])C([H])([H])[N+]([H])([H])C([H])(C(=C3N(C(=O)N4C([H])([H])C([H])([H])C([H])([H])C([H])(n5nc(-c6c([H])c([H])c(Oc7c([H])c([H])c(F)c([H])c7F)c([H])c6[H])c(C(=O)N([H])[H])c5N([H])[H])C4([H])[H])C([H])([H])C3([H])[H])C([H])(C([H])([H])[H])C([H])([H])C([H])([H])[H])C([H])([H])[H])c([H])c([H])c2C1([H])[H]

>  <smiles>  (55) 
[H]c1c([H])c([H])c2c(c1[H])C([H])([H])C([H])([H])C([H])([H])C2([H])N([H])C(=O)C1([H])N(C(=O)C([H])(N([H])C(=O)C([H])(N([H])C([H])([H])[H])C([H])([H])[H])C(C([H])([H])[H])(C([H])([H])[H])C([H])([H])[H])C([H])([H])c2c([H])c(OC([H])([H])C([H])([H])[N+]([H])([H])C([H])(C(=C3N(C(=O)N4C([H])([H])C([H])([H])C([H])([H])C([H])(n5nc(-c6c([H])c([H])c(Oc7c([H])c([H])c(F)c([H])c7F)c([H])c6[H])c(C(=O)N([H])[H])c5N([H])[H])C4([H])[H])C([H])([H])C3([H])[H])C([H])(C([H])([H])[H])C([H])([H])C([H])([H])[H])C([H])([H])[H])c([H])c([H])c2C1([H])[H]

$$$$
55:0:0
     RDKit          3D

 90 98  0  0  1  0  0  0  0  0999 V2000
  -29.5960  -20.1290   20.4800 C   0  0  0  0  0  3  0  0  0  0  0  0
  -28.2940  -20.7760   20.8300 C   0  0  0  0  0  2  0  0  0  0  0  0
  -30.0220  -21.3350   19.6960 C   0  0  0  0  0  2  0  0  0  0  0  0
  -30.2370  -19.1530   20.9500 N   0  0  0  0  0  2  0  0  0  0  0  0
  -28.9450  -22.0450   20.4270 N   0  0  1  0  0  4  0  0  0  0  0  0
  -29.3240  -22.4820   21.2530 H   0  0  0  0  0  0  0  0  0  0  0  0
  -29.7510  -17.8180   20.6370 C   0  0  0  0  0  2  0  0  0  0  0  0
  -30.5450  -16.7570   21.4350 C   0  0  0  0  0  2  0  0  0  0  0  0
  -30.6970  -14.4630   20.4230 C   0  0  0  0  0  0  0  0  0  0  0  0
  -30.3570  -12.3670   19.1650 C   0  0  0  0  0  2  0  0  0  0  0  0
  -29.3900  -12.6200   17.9900 C   0  0  0  0  0  2  0  0  0  0  0  0
  -27.9240  -12.4760   18.4430 C   0  0  0  0  0  2  0  0  0  0  0  0
  -27.6180  -13.2680   19.7420 C   0  0  0  0  0  3  0  0  0  0  0  0
  -28.6900  -12.9860   20.8190 C   0  0  0  0  0  2  0  0  0  0  0  0
  -30.0090  -13.3040   20.2440 N   0  0  0  0  0  0  0  0  0  0  0  0
  -31.7740  -14.7000   19.8690 O   0  0  0  0  0  0  0  0  0  0  0  0
  -30.0810  -15.3870   21.1770 N   0  0  0  0  0  0  0  0  0  0  0  0
  -29.2010  -15.1130   21.5880 H   0  0  0  0  0  0  0  0  0  0  0  0
  -25.2220  -13.8640   20.4760 C   0  0  0  0  0  0  0  0  0  0  0  0
  -24.1620  -13.0860   20.8550 C   0  0  0  0  0  0  0  0  0  0  0  0
  -24.6300  -11.7370   20.8170 C   0  0  0  0  0  0  0  0  0  0  0  0
  -26.2700  -12.9880   20.2330 N   0  0  0  0  0  0  0  0  0  0  0  0
  -25.9160  -11.7040   20.4950 N   0  0  0  0  0  0  0  0  0  0  0  0
  -23.9120  -10.4700   21.0140 C   0  0  0  0  0  0  0  0  0  0  0  0
  -24.3590   -9.5060   21.9440 C   0  0  0  0  0  3  0  0  0  0  0  0
  -23.6420   -8.3030   22.1280 C   0  0  0  0  0  3  0  0  0  0  0  0
  -22.4650   -8.0580   21.3830 C   0  0  0  0  0  0  0  0  0  0  0  0
  -22.0380   -9.0110   20.4410 C   0  0  0  0  0  3  0  0  0  0  0  0
  -22.7560  -10.2040   20.2540 C   0  0  0  0  0  3  0  0  0  0  0  0
  -21.7190   -6.9080   21.4760 O   0  0  0  0  0  0  0  0  0  0  0  0
  -21.6810   -6.1670   22.6280 C   0  0  0  0  0  0  0  0  0  0  0  0
  -21.2500   -6.7180   23.8550 C   0  0  0  0  0  3  0  0  0  0  0  0
  -21.1610   -5.9020   25.0010 C   0  0  0  0  0  3  0  0  0  0  0  0
  -21.4910   -4.5360   24.9210 C   0  0  0  0  0  0  0  0  0  0  0  0
  -21.9150   -3.9840   23.7000 C   0  0  0  0  0  3  0  0  0  0  0  0
  -22.0070   -4.7960   22.5560 C   0  0  0  0  0  0  0  0  0  0  0  0
  -22.3950   -4.2550   21.3770 F   0  0  0  0  0  0  0  0  0  0  0  0
  -21.3980   -3.7500   26.0200 F   0  0  0  0  0  0  0  0  0  0  0  0
  -22.7650  -13.5550   21.1450 C   0  0  0  0  0  0  0  0  0  0  0  0
  -22.0510  -12.8520   22.0170 N   0  0  0  0  0  0  0  0  0  0  0  0
  -22.3160  -14.5800   20.6340 O   0  0  0  0  0  0  0  0  0  0  0  0
  -22.4260  -12.0210   22.4520 H   0  0  0  0  0  0  0  0  0  0  0  0
  -21.1140  -13.1480   22.2530 H   0  0  0  0  0  0  0  0  0  0  0  0
  -25.3780  -15.2350   20.2970 N   0  0  0  0  0  0  0  0  0  0  0  0
  -24.6090  -15.8860   20.4090 H   0  0  0  0  0  0  0  0  0  0  0  0
  -26.2230  -15.6760   19.9530 H   0  0  0  0  0  0  0  0  0  0  0  0
  -28.0820  -22.9730   19.6410 C   0  0  0  0  0  2  0  0  0  0  0  0
  -28.6410  -24.4100   19.4470 C   0  0  0  0  0  2  0  0  0  0  0  0
  -28.3560  -25.3810   20.6150 C   0  0  0  0  0  2  0  0  0  0  0  0
  -28.4590  -26.7590   20.2250 O   0  0  0  0  0  0  0  0  0  0  0  0
  -24.5900  -31.8990   23.2620 C   0  0  0  0  0  0  0  0  0  0  0  0
  -27.2810  -27.4760   20.2030 C   0  0  0  0  0  0  0  0  0  0  0  0
  -23.4000  -30.4880   21.6150 C   0  0  0  0  0  3  0  0  0  0  0  0
  -24.8710  -28.9570   20.1990 C   0  0  0  0  0  0  0  0  0  0  0  0
  -25.9230  -30.8660   21.4250 C   0  0  0  0  0  2  0  0  0  0  0  0
  -26.0220  -29.4960   20.7870 C   0  0  0  0  0  0  0  0  0  0  0  0
  -27.2320  -28.7660   20.7800 C   0  0  0  0  0  3  0  0  0  0  0  0
  -26.1120  -26.9490   19.6090 C   0  0  0  0  0  3  0  0  0  0  0  0
  -24.9110  -27.6830   19.6060 C   0  0  0  0  0  3  0  0  0  0  0  0
  -23.6200  -29.8060   20.2380 C   0  0  0  0  0  2  0  0  0  0  0  0
  -24.6550  -31.0980   22.1600 N   0  0  0  0  0  0  0  0  0  0  0  0
  -23.5040  -32.1640   23.7970 O   0  0  0  0  0  0  0  0  0  0  0  0
  -22.7500  -29.4640   22.5740 C   0  0  0  0  0  0  0  0  0  0  0  0
  -21.4270  -29.2780   22.4440 N   0  0  0  0  0  0  0  0  0  0  0  0
  -23.4350  -28.8380   23.3880 O   0  0  0  0  0  0  0  0  0  0  0  0
  -20.9370  -29.8340   21.7570 H   0  0  0  0  0  0  0  0  0  0  0  0
  -18.0520  -28.0900   22.9450 C   0  0  0  0  0  0  0  0  0  0  0  0
  -20.6110  -28.3380   23.2110 C   0  0  0  0  0  3  0  0  0  0  0  0
  -20.7080  -26.9110   22.6240 C   0  0  0  0  0  2  0  0  0  0  0  0
  -19.6020  -26.5990   21.6120 C   0  0  0  0  0  2  0  0  0  0  0  0
  -18.2220  -26.7440   22.2610 C   0  0  0  0  0  2  0  0  0  0  0  0
  -19.1740  -28.8450   23.3770 C   0  0  0  0  0  0  0  0  0  0  0  0
  -18.9620  -30.1070   23.9760 C   0  0  0  0  0  3  0  0  0  0  0  0
  -17.6600  -30.6120   24.1460 C   0  0  0  0  0  3  0  0  0  0  0  0
  -16.5510  -29.8540   23.7320 C   0  0  0  0  0  3  0  0  0  0  0  0
  -16.7490  -28.5940   23.1370 C   0  0  0  0  0  3  0  0  0  0  0  0
  -25.8700  -32.5370   23.8870 C   0  0  0  0  0  3  0  0  0  0  0  0
  -25.5580  -33.9370   24.2010 N   0  0  0  0  0  0  0  0  0  0  0  0
  -25.9020  -34.9820   23.4360 C   0  0  0  0  0  0  0  0  0  0  0  0
  -26.5860  -34.8680   22.4150 O   0  0  0  0  0  0  0  0  0  0  0  0
  -24.9540  -34.1010   24.9940 H   0  0  0  0  0  0  0  0  0  0  0  0
  -24.1850  -36.7730   23.0300 C   0  0  0  0  0  1  0  0  0  0  0  0
  -25.4070  -36.3740   23.8720 C   0  0  0  0  0  3  0  0  0  0  0  0
  -27.5230  -37.2620   24.7440 C   0  0  0  0  0  1  0  0  0  0  0  0
  -26.4430  -37.4250   23.7740 N   0  0  0  0  0  0  0  0  0  0  0  0
  -26.0350  -38.3460   23.9060 H   0  0  0  0  0  0  0  0  0  0  0  0
  -26.3800  -31.7770   25.1730 C   0  0  1  0  0  0  0  0  0  0  0  0
  -25.2800  -31.5430   26.2340 C   0  0  0  0  0  1  0  0  0  0  0  0
  -26.9700  -30.3990   24.7930 C   0  0  0  0  0  1  0  0  0  0  0  0
  -27.5240  -32.5780   25.8370 C   0  0  0  0  0  1  0  0  0  0  0  0
  1  2  1  0
  1  4  1  0
  3  5  1  0
  3  1  1  0
  5  2  1  0
  5  6  1  1
  7  4  1  0
  7  8  1  0
  9 17  1  0
 10 15  1  0
 11 12  1  0
 11 10  1  0
 13 12  1  0
 13 22  1  0
 13 14  1  0
 15  9  1  0
 15 14  1  0
 16  9  2  0
 17  8  1  0
 17 18  1  0
 19 20  2  0
 20 39  1  0
 21 20  1  0
 21 24  1  0
 22 19  1  0
 22 23  1  0
 23 21  2  0
 24 25  1  0
 25 26  2  0
 27 30  1  0
 27 26  1  0
 28 27  2  0
 29 28  1  0
 29 24  2  0
 30 31  1  0
 31 32  1  0
 32 33  2  0
 34 33  1  0
 34 38  1  0
 35 34  2  0
 36 31  2  0
 36 35  1  0
 37 36  1  0
 39 40  1  0
 40 43  1  0
 40 42  1  0
 41 39  2  0
 44 45  1  0
 44 19  1  0
 46 44  1  0
 47  5  1  0
 48 47  1  0
 48 49  1  0
 50 49  1  0
 51 62  2  0
 52 50  1  0
 52 57  1  0
 53 61  1  0
 53 63  1  0
 54 60  1  0
 54 56  1  0
 55 61  1  0
 56 55  1  0
 57 56  2  0
 58 52  2  0
 59 58  1  0
 59 54  2  0
 60 53  1  0
 61 51  1  0
 63 65  2  0
 64 63  1  0
 66 64  1  0
 67 76  2  0
 67 72  1  0
 68 64  1  0
 68 72  1  0
 69 68  1  0
 70 71  1  0
 70 69  1  0
 71 67  1  0
 72 73  2  0
 73 74  1  0
 75 74  2  0
 76 75  1  0
 77 51  1  0
 77 78  1  0
 77 87  1  0
 78 81  1  0
 79 83  1  0
 79 78  1  0
 80 79  2  0
 83 82  1  0
 85 83  1  0
 85 86  1  0
 85 84  1  0
 87 90  1  1
 87 88  1  0
 89 87  1  0
M  ISO  4   9 100  17 100  49 101  50 101
M  END
>  <TORSDO>  (56) 
F 21

>  <SCORE>  (56) 
-13.554

>  <name>  (56) 
55

>  <ligand_id>  (56) 
55

>  <original_smiles>  (56) 
[H]c1c([H])c([H])c2c(c1[H])C([H])([H])C([H])([H])C([H])([H])C2([H])N([H])C(=O)C1([H])N(C(=O)C([H])(N([H])C(=O)C([H])(N([H])C([H])([H])[H])C([H])([H])[H])C(C([H])([H])[H])(C([H])([H])[H])C([H])([H])[H])C([H])([H])c2c([H])c(OC([H])([H])C([H])([H])C([H])([H])[N+]3([H])C([H])([H])C(=NC([H])([H])C([H])([H])N([H])C(=O)N4C([H])([H])C([H])([H])C([H])([H])C([H])(n5nc(-c6c([H])c([H])c(Oc7c([H])c([H])c(F)c([H])c7F)c([H])c6[H])c(C(=O)N([H])[H])c5N([H])[H])C4([H])[H])C3([H])[H])c([H])c([H])c2C1([H])[H]

>  <smiles>  (56) 
[H]c1c([H])c([H])c2c(c1[H])C([H])([H])C([H])([H])C([H])([H])C2([H])N([H])C(=O)C1([H])N(C(=O)C([H])(N([H])C(=O)C([H])(N([H])C([H])([H])[H])C([H])([H])[H])C(C([H])([H])[H])(C([H])([H])[H])C([H])([H])[H])C([H])([H])c2c([H])c(OC([H])([H])C([H])([H])C([H])([H])[N+]3([H])C([H])([H])C(=NC([H])([H])C([H])([H])N([H])C(=O)N4C([H])([H])C([H])([H])C([H])([H])C([H])(n5nc(-c6c([H])c([H])c(Oc7c([H])c([H])c(F)c([H])c7F)c([H])c6[H])c(C(=O)N([H])[H])c5N([H])[H])C4([H])[H])C3([H])[H])c([H])c([H])c2C1([H])[H]

$$$$
56:0:0
     RDKit          3D

 94102  0  0  1  0  0  0  0  0999 V2000
  -28.4680  -21.8980   20.8640 C   0  0  0  0  0  3  0  0  0  0  0  0
  -30.6640  -22.0530   19.8970 C   0  0  0  0  0  3  0  0  0  0  0  0
  -28.7150  -20.5220   21.1720 C   0  0  0  0  0  3  0  0  0  0  0  0
  -30.9120  -20.6880   20.2040 C   0  0  0  0  0  3  0  0  0  0  0  0
  -29.4480  -22.7050   20.2240 C   0  0  0  0  0  0  0  0  0  0  0  0
  -29.9480  -19.8830   20.8580 C   0  0  0  0  0  0  0  0  0  0  0  0
  -29.2760  -24.2180   19.8260 C   0  0  0  0  0  3  0  0  0  0  0  0
  -28.2030  -25.1660   20.4950 C   0  0  0  0  0  3  0  0  0  0  0  0
  -28.3320  -26.6000   20.1530 O   0  0  0  0  0  0  0  0  0  0  0  0
  -24.5720  -31.9170   23.2470 C   0  0  0  0  0  0  0  0  0  0  0  0
  -27.1880  -27.4030   20.1550 C   0  0  0  0  0  0  0  0  0  0  0  0
  -23.3630  -30.5200   21.6080 C   0  0  0  0  0  3  0  0  0  0  0  0
  -24.8100  -28.9810   20.1680 C   0  0  0  0  0  0  0  0  0  0  0  0
  -25.8980  -30.8570   21.4090 C   0  0  0  0  0  2  0  0  0  0  0  0
  -25.9790  -29.4840   20.7550 C   0  0  0  0  0  0  0  0  0  0  0  0
  -27.1720  -28.7070   20.7360 C   0  0  0  0  0  3  0  0  0  0  0  0
  -25.9990  -26.9480   19.5420 C   0  0  0  0  0  3  0  0  0  0  0  0
  -24.8210  -27.7200   19.5510 C   0  0  0  0  0  3  0  0  0  0  0  0
  -23.5700  -29.8500   20.2230 C   0  0  0  0  0  2  0  0  0  0  0  0
  -24.6300  -31.1140   22.1450 N   0  0  0  0  0  0  0  0  0  0  0  0
  -23.4920  -32.1880   23.7920 O   0  0  0  0  0  0  0  0  0  0  0  0
  -22.7130  -29.4970   22.5680 C   0  0  0  0  0  0  0  0  0  0  0  0
  -21.3860  -29.3160   22.4510 N   0  0  0  0  0  0  0  0  0  0  0  0
  -23.4000  -28.8690   23.3780 O   0  0  0  0  0  0  0  0  0  0  0  0
  -20.8910  -29.8780   21.7750 H   0  0  0  0  0  0  0  0  0  0  0  0
  -18.0180  -28.1030   22.9600 C   0  0  0  0  0  0  0  0  0  0  0  0
  -20.5750  -28.3730   23.2240 C   0  0  0  0  0  3  0  0  0  0  0  0
  -20.6820  -26.9430   22.6470 C   0  0  0  0  0  2  0  0  0  0  0  0
  -19.5800  -26.6150   21.6350 C   0  0  0  0  0  2  0  0  0  0  0  0
  -18.1980  -26.7550   22.2840 C   0  0  0  0  0  2  0  0  0  0  0  0
  -19.1340  -28.8700   23.3870 C   0  0  0  0  0  0  0  0  0  0  0  0
  -18.9110  -30.1320   23.9820 C   0  0  0  0  0  3  0  0  0  0  0  0
  -17.6050  -30.6260   24.1540 C   0  0  0  0  0  3  0  0  0  0  0  0
  -16.5030  -29.8560   23.7450 C   0  0  0  0  0  3  0  0  0  0  0  0
  -16.7090  -28.5960   23.1520 C   0  0  0  0  0  3  0  0  0  0  0  0
  -25.8570  -32.5530   23.8620 C   0  0  0  0  0  3  0  0  0  0  0  0
  -25.5490  -33.9530   24.1850 N   0  0  0  0  0  0  0  0  0  0  0  0
  -25.8920  -35.0040   23.4290 C   0  0  0  0  0  0  0  0  0  0  0  0
  -26.5710  -34.8980   22.4030 O   0  0  0  0  0  0  0  0  0  0  0  0
  -24.9440  -34.1110   24.9790 H   0  0  0  0  0  0  0  0  0  0  0  0
  -24.1810  -36.8080   23.0530 C   0  0  0  0  0  1  0  0  0  0  0  0
  -25.4060  -36.3940   23.8810 C   0  0  0  0  0  3  0  0  0  0  0  0
  -27.5340  -37.2640   24.7460 C   0  0  0  0  0  1  0  0  0  0  0  0
  -26.4470  -37.4420   23.7870 N   0  0  0  0  0  0  0  0  0  0  0  0
  -26.0430  -38.3630   23.9360 H   0  0  0  0  0  0  0  0  0  0  0  0
  -26.3770  -31.7900   25.1430 C   0  0  1  0  0  0  0  0  0  0  0  0
  -25.2870  -31.5600   26.2170 C   0  0  0  0  0  1  0  0  0  0  0  0
  -26.9560  -30.4100   24.7580 C   0  0  0  0  0  1  0  0  0  0  0  0
  -27.5290  -32.5870   25.7960 C   0  0  0  0  0  1  0  0  0  0  0  0
  -30.3020  -18.4240   21.3260 C   0  0  0  0  0  2  0  0  0  0  0  0
  -29.9570  -17.1410   20.4560 C   0  0  0  0  0  3  0  0  0  0  0  0
  -30.9140  -14.7470   20.9270 C   0  0  0  0  0  0  0  0  0  0  0  0
  -30.7820  -12.4680   19.9610 C   0  0  0  0  0  2  0  0  0  0  0  0
  -29.9520  -12.5560   18.6610 C   0  0  0  0  0  2  0  0  0  0  0  0
  -28.4480  -12.4220   18.9660 C   0  0  0  0  0  2  0  0  0  0  0  0
  -27.9890  -13.3380   20.1340 C   0  0  0  0  0  3  0  0  0  0  0  0
  -28.9450  -13.2200   21.3440 C   0  0  0  0  0  2  0  0  0  0  0  0
  -30.3040  -13.5260   20.8750 N   0  0  0  0  0  0  0  0  0  0  0  0
  -32.0900  -14.8960   20.5860 O   0  0  0  0  0  0  0  0  0  0  0  0
  -30.0950  -15.8150   21.1750 N   0  0  0  0  0  0  0  0  0  0  0  0
  -29.2350  -15.5260   21.6140 H   0  0  0  0  0  0  0  0  0  0  0  0
  -25.5500  -13.9720   20.6350 C   0  0  0  0  0  0  0  0  0  0  0  0
  -24.4500  -13.2130   20.9350 C   0  0  0  0  0  0  0  0  0  0  0  0
  -24.9040  -11.8580   20.9750 C   0  0  0  0  0  0  0  0  0  0  0  0
  -26.6030  -13.0790   20.5090 N   0  0  0  0  0  0  0  0  0  0  0  0
  -26.2150  -11.8050   20.7720 N   0  0  0  0  0  0  0  0  0  0  0  0
  -24.1570  -10.6040   21.1360 C   0  0  0  0  0  0  0  0  0  0  0  0
  -24.5290   -9.6430   22.1020 C   0  0  0  0  0  3  0  0  0  0  0  0
  -23.7840   -8.4530   22.2510 C   0  0  0  0  0  3  0  0  0  0  0  0
  -22.6520   -8.2160   21.4340 C   0  0  0  0  0  0  0  0  0  0  0  0
  -22.3010   -9.1660   20.4590 C   0  0  0  0  0  3  0  0  0  0  0  0
  -23.0460  -10.3480   20.3090 C   0  0  0  0  0  3  0  0  0  0  0  0
  -21.8850   -7.0780   21.4900 O   0  0  0  0  0  0  0  0  0  0  0  0
  -21.7770   -6.3380   22.6400 C   0  0  0  0  0  0  0  0  0  0  0  0
  -21.2980   -6.9000   23.8440 C   0  0  0  0  0  3  0  0  0  0  0  0
  -21.1360   -6.0870   24.9840 C   0  0  0  0  0  3  0  0  0  0  0  0
  -21.4450   -4.7140   24.9190 C   0  0  0  0  0  0  0  0  0  0  0  0
  -21.9160   -4.1530   23.7200 C   0  0  0  0  0  3  0  0  0  0  0  0
  -22.0780   -4.9630   22.5830 C   0  0  0  0  0  0  0  0  0  0  0  0
  -22.5120   -4.4130   21.4230 F   0  0  0  0  0  0  0  0  0  0  0  0
  -21.2830   -3.9320   26.0110 F   0  0  0  0  0  0  0  0  0  0  0  0
  -23.0390  -13.7030   21.0850 C   0  0  0  0  0  0  0  0  0  0  0  0
  -22.2450  -13.0400   21.9180 N   0  0  0  0  0  0  0  0  0  0  0  0
  -22.6470  -14.7080   20.4940 O   0  0  0  0  0  0  0  0  0  0  0  0
  -22.5740  -12.2280   22.4210 H   0  0  0  0  0  0  0  0  0  0  0  0
  -21.2930  -13.3500   22.0590 H   0  0  0  0  0  0  0  0  0  0  0  0
  -25.7400  -15.3370   20.4430 N   0  0  0  0  0  0  0  0  0  0  0  0
  -24.9720  -15.9960   20.4790 H   0  0  0  0  0  0  0  0  0  0  0  0
  -26.6200  -15.7670   20.1940 H   0  0  0  0  0  0  0  0  0  0  0  0
  -30.6470  -17.1210   19.0810 C   0  0  0  0  0  0  0  0  0  0  0  0
  -30.0690  -16.3680   18.1510 N   0  0  0  0  0  0  0  0  0  0  0  0
  -31.7060  -17.7080   18.8660 O   0  0  0  0  0  0  0  0  0  0  0  0
  -29.1980  -15.9000   18.3470 H   0  0  0  0  0  0  0  0  0  0  0  0
  -30.4860  -16.2620   17.2350 H   0  0  0  0  0  0  0  0  0  0  0  0
  1  3  1  0
  2  4  2  0
  2  5  1  0
  4  6  1  0
  5  1  2  0
  6  3  2  0
  6 50  1  0
  7  5  1  0
  7  8  2  0
  9 11  1  0
  9  8  1  0
 10 21  2  0
 11 16  1  0
 12 20  1  0
 12 22  1  0
 13 19  1  0
 13 15  1  0
 14 20  1  0
 15 14  1  0
 16 15  2  0
 17 18  1  0
 17 11  2  0
 18 13  2  0
 19 12  1  0
 20 10  1  0
 22 24  2  0
 23 22  1  0
 25 23  1  0
 26 35  2  0
 26 31  1  0
 27 23  1  0
 27 31  1  0
 28 27  1  0
 29 30  1  0
 29 28  1  0
 30 26  1  0
 31 32  2  0
 32 33  1  0
 34 33  2  0
 35 34  1  0
 36 10  1  0
 36 37  1  0
 36 46  1  0
 37 40  1  0
 38 42  1  0
 38 37  1  0
 39 38  2  0
 42 41  1  0
 44 42  1  0
 44 45  1  0
 44 43  1  0
 46 49  1  1
 46 47  1  0
 48 46  1  0
 51 60  1  0
 51 50  1  0
 52 60  1  0
 53 58  1  0
 54 55  1  0
 54 53  1  0
 56 55  1  0
 56 65  1  0
 56 57  1  0
 58 52  1  0
 58 57  1  0
 59 52  2  0
 60 61  1  0
 62 63  2  0
 63 64  1  0
 63 82  1  0
 64 67  1  0
 65 62  1  0
 65 66  1  0
 66 64  2  0
 67 68  1  0
 68 69  2  0
 70 73  1  0
 70 69  1  0
 71 70  2  0
 72 71  1  0
 72 67  2  0
 73 74  1  0
 74 75  1  0
 75 76  2  0
 77 76  1  0
 77 81  1  0
 78 77  2  0
 79 74  2  0
 79 78  1  0
 80 79  1  0
 82 83  1  0
 83 86  1  0
 83 85  1  0
 84 82  2  0
 87 88  1  0
 87 62  1  0
 89 87  1  0
 90 51  1  0
 91 93  1  0
 91 90  1  0
 92 90  2  0
 94 91  1  0
M  ISO  4   8 101   9 101  52 100  60 100
M  END
>  <TORSDO>  (57) 
F 21

>  <SCORE>  (57) 
-13.130

>  <name>  (57) 
56

>  <ligand_id>  (57) 
56

>  <original_smiles>  (57) 
[H]c1c([H])c([H])c2c(c1[H])C([H])([H])C([H])([H])C([H])([H])C2([H])N([H])C(=O)C1([H])N(C(=O)C([H])(N([H])C(=O)C([H])(N([H])C([H])([H])[H])C([H])([H])[H])C(C([H])([H])[H])(C([H])([H])[H])C([H])([H])[H])C([H])([H])c2c([H])c(OC([H])([H])C([H])([H])c3c([H])c([H])c(C([H])([H])C([H])(C(=O)N([H])[H])N([H])C(=O)N4C([H])([H])C([H])([H])C([H])([H])C([H])(n5nc(-c6c([H])c([H])c(Oc7c([H])c([H])c(F)c([H])c7F)c([H])c6[H])c(C(=O)N([H])[H])c5N([H])[H])C4([H])[H])c([H])c3[H])c([H])c([H])c2C1([H])[H]

>  <smiles>  (57) 
[H]c1c([H])c([H])c2c(c1[H])C([H])([H])C([H])([H])C([H])([H])C2([H])N([H])C(=O)C1([H])N(C(=O)C([H])(N([H])C(=O)C([H])(N([H])C([H])([H])[H])C([H])([H])[H])C(C([H])([H])[H])(C([H])([H])[H])C([H])([H])[H])C([H])([H])c2c([H])c(OC([H])([H])C([H])([H])c3c([H])c([H])c(C([H])([H])C([H])(C(=O)N([H])[H])N([H])C(=O)N4C([H])([H])C([H])([H])C([H])([H])C([H])(n5nc(-c6c([H])c([H])c(Oc7c([H])c([H])c(F)c([H])c7F)c([H])c6[H])c(C(=O)N([H])[H])c5N([H])[H])C4([H])[H])c([H])c3[H])c([H])c([H])c2C1([H])[H]

$$$$
57:0:0
     RDKit          3D

 96104  0  0  1  0  0  0  0  0999 V2000
  -30.1740  -21.5950   20.9110 C   0  0  0  0  0  3  0  0  0  0  0  0
  -28.1480  -20.9950   19.7200 C   0  0  0  0  0  3  0  0  0  0  0  0
  -30.3210  -20.2530   21.3330 C   0  0  0  0  0  3  0  0  0  0  0  0
  -28.2820  -19.6580   20.1550 C   0  0  0  0  0  3  0  0  0  0  0  0
  -29.1100  -21.9720   20.0640 C   0  0  0  0  0  0  0  0  0  0  0  0
  -29.3870  -19.2650   20.9420 C   0  0  0  0  0  0  0  0  0  0  0  0
  -28.9920  -24.4740   20.1160 C   0  0  0  0  0  3  0  0  0  0  0  0
  -29.0860  -23.3110   19.4310 C   0  0  0  0  0  0  0  0  0  0  0  0
  -29.2780  -23.2780   17.9210 C   0  0  0  0  0  1  0  0  0  0  0  0
  -29.0600  -25.8650   19.4840 C   0  0  0  0  0  2  0  0  0  0  0  0
  -28.7010  -26.9310   20.3600 O   0  0  0  0  0  0  0  0  0  0  0  0
  -24.6880  -31.9620   23.2710 C   0  0  0  0  0  0  0  0  0  0  0  0
  -27.4750  -27.5620   20.2830 C   0  0  0  0  0  0  0  0  0  0  0  0
  -23.5260  -30.5250   21.6270 C   0  0  0  0  0  3  0  0  0  0  0  0
  -25.0320  -28.9990   20.2390 C   0  0  0  0  0  0  0  0  0  0  0  0
  -26.0360  -30.9550   21.4240 C   0  0  0  0  0  2  0  0  0  0  0  0
  -26.1670  -29.5720   20.8230 C   0  0  0  0  0  0  0  0  0  0  0  0
  -27.3810  -28.8550   20.8490 C   0  0  0  0  0  3  0  0  0  0  0  0
  -26.3150  -26.9930   19.7030 C   0  0  0  0  0  3  0  0  0  0  0  0
  -25.1020  -27.7120   19.6770 C   0  0  0  0  0  3  0  0  0  0  0  0
  -23.7620  -29.8200   20.2610 C   0  0  0  0  0  2  0  0  0  0  0  0
  -24.7700  -31.1570   22.1720 N   0  0  0  0  0  0  0  0  0  0  0  0
  -23.5960  -32.2090   23.8020 O   0  0  0  0  0  0  0  0  0  0  0  0
  -22.8810  -29.5040   22.5950 C   0  0  0  0  0  0  0  0  0  0  0  0
  -21.5610  -29.2980   22.4570 N   0  0  0  0  0  0  0  0  0  0  0  0
  -23.5680  -28.9000   23.4240 O   0  0  0  0  0  0  0  0  0  0  0  0
  -21.0650  -29.8370   21.7590 H   0  0  0  0  0  0  0  0  0  0  0  0
  -18.2030  -28.0520   22.9370 C   0  0  0  0  0  0  0  0  0  0  0  0
  -20.7550  -28.3510   23.2280 C   0  0  0  0  0  3  0  0  0  0  0  0
  -20.8860  -26.9190   22.6610 C   0  0  0  0  0  2  0  0  0  0  0  0
  -19.7970  -26.5740   21.6430 C   0  0  0  0  0  2  0  0  0  0  0  0
  -18.4070  -26.7020   22.2710 C   0  0  0  0  0  2  0  0  0  0  0  0
  -19.3080  -28.8320   23.3740 C   0  0  0  0  0  0  0  0  0  0  0  0
  -19.0630  -30.0960   23.9550 C   0  0  0  0  0  3  0  0  0  0  0  0
  -17.7500  -30.5770   24.1080 C   0  0  0  0  0  3  0  0  0  0  0  0
  -16.6610  -29.7920   23.6880 C   0  0  0  0  0  3  0  0  0  0  0  0
  -16.8900  -28.5330   23.1080 C   0  0  0  0  0  3  0  0  0  0  0  0
  -25.9530  -32.6270   23.8980 C   0  0  0  0  0  3  0  0  0  0  0  0
  -25.6140  -34.0210   24.2180 N   0  0  0  0  0  0  0  0  0  0  0  0
  -25.9260  -35.0720   23.4470 C   0  0  0  0  0  0  0  0  0  0  0  0
  -26.6030  -34.9730   22.4210 O   0  0  0  0  0  0  0  0  0  0  0  0
  -25.0240  -34.1730   25.0220 H   0  0  0  0  0  0  0  0  0  0  0  0
  -24.1680  -36.8220   23.0600 C   0  0  0  0  0  1  0  0  0  0  0  0
  -25.4090  -36.4560   23.8880 C   0  0  0  0  0  3  0  0  0  0  0  0
  -27.5190  -37.3880   24.7230 C   0  0  0  0  0  1  0  0  0  0  0  0
  -26.4210  -37.5290   23.7700 N   0  0  0  0  0  0  0  0  0  0  0  0
  -25.9960  -38.4430   23.9100 H   0  0  0  0  0  0  0  0  0  0  0  0
  -26.4730  -31.8730   25.1810 C   0  0  1  0  0  0  0  0  0  0  0  0
  -25.3700  -31.5860   26.2250 C   0  0  0  0  0  1  0  0  0  0  0  0
  -27.1180  -30.5260   24.7850 C   0  0  0  0  0  1  0  0  0  0  0  0
  -27.5830  -32.7030   25.8660 C   0  0  0  0  0  1  0  0  0  0  0  0
  -29.5570  -17.7970   21.3610 C   0  0  0  0  0  2  0  0  0  0  0  0
  -30.2580  -16.8800   20.3120 C   0  0  0  0  0  3  0  0  0  0  0  0
  -30.4310  -14.4280   19.7290 C   0  0  0  0  0  0  0  0  0  0  0  0
  -30.0430  -12.2100   18.7030 C   0  0  0  0  0  2  0  0  0  0  0  0
  -28.9900  -12.3470   17.5850 C   0  0  0  0  0  2  0  0  0  0  0  0
  -27.5710  -12.1810   18.1590 C   0  0  0  0  0  2  0  0  0  0  0  0
  -27.3380  -13.0440   19.4290 C   0  0  0  0  0  3  0  0  0  0  0  0
  -28.5090  -12.9290   20.4330 C   0  0  0  0  0  2  0  0  0  0  0  0
  -29.7640  -13.2360   19.7270 N   0  0  0  0  0  0  0  0  0  0  0  0
  -31.4040  -14.6150   18.9960 O   0  0  0  0  0  0  0  0  0  0  0  0
  -29.9170  -15.4370   20.4740 N   0  0  0  0  0  0  0  0  0  0  0  0
  -29.1700  -15.2040   21.1080 H   0  0  0  0  0  0  0  0  0  0  0  0
  -25.0350  -13.5940   20.4320 C   0  0  0  0  0  0  0  0  0  0  0  0
  -24.0290  -12.7960   20.9110 C   0  0  0  0  0  0  0  0  0  0  0  0
  -24.4980  -11.4540   20.7870 C   0  0  0  0  0  0  0  0  0  0  0  0
  -26.0550  -12.7350   20.0550 N   0  0  0  0  0  0  0  0  0  0  0  0
  -25.7420  -11.4420   20.3220 N   0  0  0  0  0  0  0  0  0  0  0  0
  -23.8140  -10.1770   21.0360 C   0  0  0  0  0  0  0  0  0  0  0  0
  -24.3100   -9.2410   21.9700 C   0  0  0  0  0  3  0  0  0  0  0  0
  -23.6250   -8.0290   22.2040 C   0  0  0  0  0  3  0  0  0  0  0  0
  -22.4280   -7.7440   21.5060 C   0  0  0  0  0  0  0  0  0  0  0  0
  -21.9510   -8.6680   20.5590 C   0  0  0  0  0  3  0  0  0  0  0  0
  -22.6360   -9.8720   20.3240 C   0  0  0  0  0  3  0  0  0  0  0  0
  -21.7090   -6.5820   21.6480 O   0  0  0  0  0  0  0  0  0  0  0  0
  -21.6640   -5.9040   22.8390 C   0  0  0  0  0  0  0  0  0  0  0  0
  -21.1840   -6.5100   24.0200 C   0  0  0  0  0  3  0  0  0  0  0  0
  -21.0880   -5.7570   25.2080 C   0  0  0  0  0  3  0  0  0  0  0  0
  -21.4620   -4.4000   25.2140 C   0  0  0  0  0  0  0  0  0  0  0  0
  -21.9360   -3.7950   24.0370 C   0  0  0  0  0  3  0  0  0  0  0  0
  -22.0310   -4.5440   22.8520 C   0  0  0  0  0  0  0  0  0  0  0  0
  -22.4670   -3.9500   21.7150 F   0  0  0  0  0  0  0  0  0  0  0  0
  -21.3640   -3.6740   26.3520 F   0  0  0  0  0  0  0  0  0  0  0  0
  -22.6720  -13.2490   21.3670 C   0  0  0  0  0  0  0  0  0  0  0  0
  -22.0740  -12.5280   22.3100 N   0  0  0  0  0  0  0  0  0  0  0  0
  -22.1530  -14.2730   20.9220 O   0  0  0  0  0  0  0  0  0  0  0  0
  -22.5090  -11.6970   22.6840 H   0  0  0  0  0  0  0  0  0  0  0  0
  -21.1680  -12.8060   22.6580 H   0  0  0  0  0  0  0  0  0  0  0  0
  -25.1650  -14.9680   20.2740 N   0  0  0  0  0  0  0  0  0  0  0  0
  -24.4120  -15.6150   20.4830 H   0  0  0  0  0  0  0  0  0  0  0  0
  -25.9740  -15.4240   19.8680 H   0  0  0  0  0  0  0  0  0  0  0  0
  -31.7790  -17.1560   20.3270 C   0  0  0  0  0  0  0  0  0  0  0  0
  -32.2510  -18.0810   19.5010 N   0  0  0  0  0  0  0  0  0  0  0  0
  -32.5220  -16.5590   21.1050 O   0  0  0  0  0  0  0  0  0  0  0  0
  -31.6310  -18.5950   18.8890 H   0  0  0  0  0  0  0  0  0  0  0  0
  -33.2380  -18.3000   19.4920 H   0  0  0  0  0  0  0  0  0  0  0  0
  1  3  1  0
  2  5  1  0
  2  4  2  0
  4  6  1  0
  5  1  2  0
  6  3  2  0
  6 52  1  0
  8  5  1  0
  8  7  2  0
  9  8  1  0
 10  7  1  0
 10 11  1  0
 12 23  2  0
 13 11  1  0
 13 18  1  0
 14 22  1  0
 14 24  1  0
 15 21  1  0
 15 17  1  0
 16 22  1  0
 17 18  2  0
 17 16  1  0
 19 13  2  0
 20 19  1  0
 20 15  2  0
 21 14  1  0
 22 12  1  0
 24 26  2  0
 25 24  1  0
 27 25  1  0
 28 37  2  0
 28 33  1  0
 29 25  1  0
 29 33  1  0
 30 29  1  0
 31 32  1  0
 31 30  1  0
 32 28  1  0
 33 34  2  0
 34 35  1  0
 36 35  2  0
 37 36  1  0
 38 12  1  0
 38 39  1  0
 38 48  1  0
 39 42  1  0
 40 44  1  0
 40 39  1  0
 41 40  2  0
 44 43  1  0
 46 44  1  0
 46 47  1  0
 46 45  1  0
 48 51  1  1
 48 49  1  0
 50 48  1  0
 53 92  1  0
 53 62  1  0
 53 52  1  0
 54 62  1  0
 55 60  1  0
 56 57  1  0
 56 55  1  0
 58 57  1  0
 58 67  1  0
 58 59  1  0
 60 54  1  0
 60 59  1  0
 61 54  2  0
 62 63  1  0
 64 65  2  0
 65 84  1  0
 66 65  1  0
 66 69  1  0
 67 68  1  0
 67 64  1  0
 68 66  2  0
 69 70  1  0
 70 71  2  0
 72 75  1  0
 72 71  1  0
 73 72  2  0
 74 73  1  0
 74 69  2  0
 75 76  1  0
 76 81  2  0
 76 77  1  0
 77 78  2  0
 78 79  1  0
 79 83  1  0
 80 79  2  0
 81 80  1  0
 82 81  1  0
 84 85  1  0
 85 88  1  0
 85 87  1  0
 86 84  2  0
 89 64  1  0
 89 90  1  0
 91 89  1  0
 92 94  2  0
 93 92  1  0
 95 93  1  0
 96 93  1  0
M  ISO  4  10 101  11 101  54 100  62 100
M  END
>  <TORSDO>  (58) 
F 21

>  <SCORE>  (58) 
-12.574

>  <name>  (58) 
57

>  <ligand_id>  (58) 
57

>  <original_smiles>  (58) 
[H]C(=C(c1c([H])c([H])c(C([H])([H])C([H])(C(=O)N([H])[H])N([H])C(=O)N2C([H])([H])C([H])([H])C([H])([H])C([H])(n3nc(-c4c([H])c([H])c(Oc5c([H])c([H])c(F)c([H])c5F)c([H])c4[H])c(C(=O)N([H])[H])c3N([H])[H])C2([H])[H])c([H])c1[H])C([H])([H])[H])C([H])([H])Oc1c([H])c([H])c2c(c1[H])C([H])([H])N(C(=O)C([H])(N([H])C(=O)C([H])(N([H])C([H])([H])[H])C([H])([H])[H])C(C([H])([H])[H])(C([H])([H])[H])C([H])([H])[H])C([H])(C(=O)N([H])C1([H])c3c([H])c([H])c([H])c([H])c3C([H])([H])C([H])([H])C1([H])[H])C2([H])[H]

>  <smiles>  (58) 
[H]C(=C(c1c([H])c([H])c(C([H])([H])C([H])(C(=O)N([H])[H])N([H])C(=O)N2C([H])([H])C([H])([H])C([H])([H])C([H])(n3nc(-c4c([H])c([H])c(Oc5c([H])c([H])c(F)c([H])c5F)c([H])c4[H])c(C(=O)N([H])[H])c3N([H])[H])C2([H])[H])c([H])c1[H])C([H])([H])[H])C([H])([H])Oc1c([H])c([H])c2c(c1[H])C([H])([H])N(C(=O)C([H])(N([H])C(=O)C([H])(N([H])C([H])([H])[H])C([H])([H])[H])C(C([H])([H])[H])(C([H])([H])[H])C([H])([H])[H])C([H])(C(=O)N([H])C1([H])c3c([H])c([H])c([H])c([H])c3C([H])([H])C([H])([H])C1([H])[H])C2([H])[H]

$$$$
58:0:0
     RDKit          3D

 90 98  0  0  1  0  0  0  0  0999 V2000
  -29.9490  -21.3570   19.8820 C   0  0  0  0  0  2  0  0  0  0  0  0
  -28.0770  -21.2460   20.5640 C   0  0  0  0  0  2  0  0  0  0  0  0
  -29.2110  -20.1380   20.5570 C   0  0  0  0  0  3  0  0  0  0  0  0
  -29.0740  -22.3580   20.5790 N   0  0  2  0  0  4  0  0  0  0  0  0
  -29.4300  -22.4930   21.5140 H   0  0  0  0  0  0  0  0  0  0  0  0
  -28.7530  -18.7700   18.3990 C   0  0  0  0  0  1  0  0  0  0  0  0
  -28.9910  -18.6360   19.9120 C   0  0  0  0  0  3  0  0  0  0  0  0
  -29.9920  -17.3650   20.1330 C   0  0  0  0  0  0  0  0  0  0  0  0
  -29.6040  -16.0810   20.1100 N   0  0  0  0  0  0  0  0  0  0  0  0
  -30.4580  -14.9160   19.9200 C   0  0  0  0  0  0  0  0  0  0  0  0
  -30.2330  -12.6220   18.9320 C   0  0  0  0  0  2  0  0  0  0  0  0
  -29.2200  -12.7010   17.7670 C   0  0  0  0  0  2  0  0  0  0  0  0
  -27.7830  -12.4920   18.2840 C   0  0  0  0  0  2  0  0  0  0  0  0
  -27.4740  -13.3540   19.5360 C   0  0  0  0  0  3  0  0  0  0  0  0
  -28.6070  -13.2860   20.5790 C   0  0  0  0  0  2  0  0  0  0  0  0
  -29.8610  -13.6670   19.9190 N   0  0  0  0  0  0  0  0  0  0  0  0
  -31.6370  -14.9630   19.5680 O   0  0  0  0  0  0  0  0  0  0  0  0
  -25.1490  -13.8880   20.4700 C   0  0  0  0  0  0  0  0  0  0  0  0
  -24.1180  -13.0920   20.8890 C   0  0  0  0  0  0  0  0  0  0  0  0
  -24.5880  -11.7480   20.7790 C   0  0  0  0  0  0  0  0  0  0  0  0
  -26.1770  -13.0290   20.1210 N   0  0  0  0  0  0  0  0  0  0  0  0
  -25.8520  -11.7330   20.3710 N   0  0  0  0  0  0  0  0  0  0  0  0
  -23.8850  -10.4730   20.9810 C   0  0  0  0  0  0  0  0  0  0  0  0
  -24.3620   -9.5010   21.8870 C   0  0  0  0  0  3  0  0  0  0  0  0
  -23.6580   -8.2920   22.0770 C   0  0  0  0  0  3  0  0  0  0  0  0
  -22.4630   -8.0460   21.3610 C   0  0  0  0  0  0  0  0  0  0  0  0
  -22.0040   -9.0070   20.4430 C   0  0  0  0  0  3  0  0  0  0  0  0
  -22.7080  -10.2070   20.2520 C   0  0  0  0  0  3  0  0  0  0  0  0
  -21.7260   -6.8910   21.4620 O   0  0  0  0  0  0  0  0  0  0  0  0
  -21.7070   -6.1480   22.6150 C   0  0  0  0  0  0  0  0  0  0  0  0
  -21.2680   -6.6890   23.8430 C   0  0  0  0  0  3  0  0  0  0  0  0
  -21.2000   -5.8700   24.9890 C   0  0  0  0  0  3  0  0  0  0  0  0
  -21.5570   -4.5110   24.9070 C   0  0  0  0  0  0  0  0  0  0  0  0
  -21.9880   -3.9690   23.6830 C   0  0  0  0  0  3  0  0  0  0  0  0
  -22.0590   -4.7850   22.5410 C   0  0  0  0  0  0  0  0  0  0  0  0
  -22.4560   -4.2520   21.3590 F   0  0  0  0  0  0  0  0  0  0  0  0
  -21.4840   -3.7230   26.0040 F   0  0  0  0  0  0  0  0  0  0  0  0
  -22.7420  -13.5460   21.2780 C   0  0  0  0  0  0  0  0  0  0  0  0
  -22.0810  -12.8120   22.1660 N   0  0  0  0  0  0  0  0  0  0  0  0
  -22.2630  -14.5880   20.8310 O   0  0  0  0  0  0  0  0  0  0  0  0
  -22.4860  -11.9710   22.5510 H   0  0  0  0  0  0  0  0  0  0  0  0
  -21.1600  -13.0960   22.4660 H   0  0  0  0  0  0  0  0  0  0  0  0
  -25.2940  -15.2660   20.3330 N   0  0  0  0  0  0  0  0  0  0  0  0
  -24.5470  -15.9210   20.5380 H   0  0  0  0  0  0  0  0  0  0  0  0
  -26.1410  -15.7140   20.0050 H   0  0  0  0  0  0  0  0  0  0  0  0
  -31.9730  -17.7070   21.7110 C   0  0  0  0  0  1  0  0  0  0  0  0
  -31.4450  -17.8250   20.2710 C   0  0  0  0  0  2  0  0  0  0  0  0
  -28.8180  -23.7350   19.8870 C   0  0  0  0  0  2  0  0  0  0  0  0
  -28.1950  -25.0110   20.7020 C   0  0  0  0  0  2  0  0  0  0  0  0
  -28.3430  -26.4550   20.2480 O   0  0  0  0  0  0  0  0  0  0  0  0
  -24.5850  -31.9460   23.2400 C   0  0  0  0  0  0  0  0  0  0  0  0
  -27.2300  -27.3350   20.2350 C   0  0  0  0  0  0  0  0  0  0  0  0
  -23.3970  -30.5330   21.6010 C   0  0  0  0  0  3  0  0  0  0  0  0
  -24.8630  -28.9740   20.1900 C   0  0  0  0  0  0  0  0  0  0  0  0
  -25.9380  -30.8540   21.4260 C   0  0  0  0  0  2  0  0  0  0  0  0
  -26.0310  -29.4660   20.7890 C   0  0  0  0  0  0  0  0  0  0  0  0
  -27.2190  -28.6630   20.7910 C   0  0  0  0  0  3  0  0  0  0  0  0
  -26.0380  -26.9090   19.6100 C   0  0  0  0  0  3  0  0  0  0  0  0
  -24.8740  -27.7040   19.5890 C   0  0  0  0  0  3  0  0  0  0  0  0
  -23.6220  -29.8480   20.2260 C   0  0  0  0  0  2  0  0  0  0  0  0
  -24.6590  -31.1300   22.1460 N   0  0  0  0  0  0  0  0  0  0  0  0
  -23.4970  -32.2190   23.7680 O   0  0  0  0  0  0  0  0  0  0  0  0
  -22.7320  -29.5210   22.5650 C   0  0  0  0  0  0  0  0  0  0  0  0
  -21.4070  -29.3340   22.4340 N   0  0  0  0  0  0  0  0  0  0  0  0
  -23.4100  -28.9030   23.3900 O   0  0  0  0  0  0  0  0  0  0  0  0
  -20.9190  -29.8830   21.7400 H   0  0  0  0  0  0  0  0  0  0  0  0
  -18.0320  -28.1310   22.9460 C   0  0  0  0  0  0  0  0  0  0  0  0
  -20.5920  -28.3950   23.2060 C   0  0  0  0  0  3  0  0  0  0  0  0
  -20.6930  -26.9650   22.6280 C   0  0  0  0  0  2  0  0  0  0  0  0
  -19.5890  -26.6430   21.6170 C   0  0  0  0  0  2  0  0  0  0  0  0
  -18.2080  -26.7830   22.2660 C   0  0  0  0  0  2  0  0  0  0  0  0
  -19.1510  -28.8940   23.3730 C   0  0  0  0  0  0  0  0  0  0  0  0
  -18.9320  -30.1550   23.9700 C   0  0  0  0  0  3  0  0  0  0  0  0
  -17.6270  -30.6530   24.1410 C   0  0  0  0  0  3  0  0  0  0  0  0
  -16.5210  -29.8870   23.7300 C   0  0  0  0  0  3  0  0  0  0  0  0
  -16.7260  -28.6280   23.1390 C   0  0  0  0  0  3  0  0  0  0  0  0
  -25.8600  -32.5910   23.8660 C   0  0  0  0  0  3  0  0  0  0  0  0
  -25.5400  -33.9900   24.1840 N   0  0  0  0  0  0  0  0  0  0  0  0
  -25.8760  -35.0410   23.4230 C   0  0  0  0  0  0  0  0  0  0  0  0
  -26.5570  -34.9340   22.4000 O   0  0  0  0  0  0  0  0  0  0  0  0
  -24.9370  -34.1470   24.9790 H   0  0  0  0  0  0  0  0  0  0  0  0
  -24.1510  -36.8320   23.0400 C   0  0  0  0  0  1  0  0  0  0  0  0
  -25.3810  -36.4310   23.8690 C   0  0  0  0  0  3  0  0  0  0  0  0
  -27.5010  -37.3230   24.7310 C   0  0  0  0  0  1  0  0  0  0  0  0
  -26.4130  -37.4860   23.7690 N   0  0  0  0  0  0  0  0  0  0  0  0
  -26.0030  -38.4050   23.9080 H   0  0  0  0  0  0  0  0  0  0  0  0
  -26.3690  -31.8330   25.1540 C   0  0  1  0  0  0  0  0  0  0  0  0
  -25.2690  -31.5950   26.2140 C   0  0  0  0  0  1  0  0  0  0  0  0
  -26.9650  -30.4570   24.7790 C   0  0  0  0  0  1  0  0  0  0  0  0
  -27.5100  -32.6400   25.8170 C   0  0  0  0  0  1  0  0  0  0  0  0
  1  3  1  0
  1  4  1  0
  2  4  1  0
  3  7  1  0
  3  2  1  0
  4  5  1  1
  7  6  1  0
  7  8  1  0
  8 47  1  0
  9  8  2  0
 10  9  1  0
 11 16  1  0
 12 13  1  0
 12 11  1  0
 14 13  1  0
 14 21  1  0
 14 15  1  0
 16 10  1  0
 16 15  1  0
 17 10  2  0
 18 19  2  0
 19 38  1  0
 20 19  1  0
 20 23  1  0
 21 22  1  0
 21 18  1  0
 22 20  2  0
 23 24  1  0
 24 25  2  0
 26 29  1  0
 26 25  1  0
 27 26  2  0
 28 27  1  0
 28 23  2  0
 29 30  1  0
 30 31  1  0
 31 32  2  0
 33 32  1  0
 33 37  1  0
 34 33  2  0
 35 30  2  0
 35 34  1  0
 36 35  1  0
 38 39  1  0
 39 42  1  0
 39 41  1  0
 40 38  2  0
 43 18  1  0
 43 44  1  0
 45 43  1  0
 47 46  1  0
 48  4  1  0
 48 49  1  0
 50 49  1  0
 51 62  2  0
 52 50  1  0
 52 57  1  0
 53 61  1  0
 53 63  1  0
 54 60  1  0
 54 56  1  0
 55 61  1  0
 56 57  2  0
 56 55  1  0
 58 52  2  0
 59 58  1  0
 59 54  2  0
 60 53  1  0
 61 51  1  0
 63 65  2  0
 64 63  1  0
 66 64  1  0
 67 76  2  0
 67 72  1  0
 68 64  1  0
 68 72  1  0
 69 68  1  0
 70 71  1  0
 70 69  1  0
 71 67  1  0
 72 73  2  0
 73 74  1  0
 75 74  2  0
 76 75  1  0
 77 51  1  0
 77 78  1  0
 77 87  1  0
 78 81  1  0
 79 83  1  0
 79 78  1  0
 80 79  2  0
 83 82  1  0
 85 83  1  0
 85 86  1  0
 85 84  1  0
 87 90  1  1
 87 88  1  0
 89 87  1  0
M  ISO  4   9 100  10 100  49 101  50 101
M  END
>  <TORSDO>  (59) 
F 21

>  <SCORE>  (59) 
-13.088

>  <name>  (59) 
58

>  <ligand_id>  (59) 
58

>  <original_smiles>  (59) 
[H]c1c([H])c([H])c2c(c1[H])C([H])([H])C([H])([H])C([H])([H])C2([H])N([H])C(=O)C1([H])N(C(=O)C([H])(N([H])C(=O)C([H])(N([H])C([H])([H])[H])C([H])([H])[H])C(C([H])([H])[H])(C([H])([H])[H])C([H])([H])[H])C([H])([H])c2c([H])c(OC([H])([H])C([H])([H])[N+]3([H])C([H])([H])C([H])(C([H])(C(=NC(=O)N4C([H])([H])C([H])([H])C([H])([H])C([H])(n5nc(-c6c([H])c([H])c(Oc7c([H])c([H])c(F)c([H])c7F)c([H])c6[H])c(C(=O)N([H])[H])c5N([H])[H])C4([H])[H])C([H])([H])C([H])([H])[H])C([H])([H])[H])C3([H])[H])c([H])c([H])c2C1([H])[H]

>  <smiles>  (59) 
[H]c1c([H])c([H])c2c(c1[H])C([H])([H])C([H])([H])C([H])([H])C2([H])N([H])C(=O)C1([H])N(C(=O)C([H])(N([H])C(=O)C([H])(N([H])C([H])([H])[H])C([H])([H])[H])C(C([H])([H])[H])(C([H])([H])[H])C([H])([H])[H])C([H])([H])c2c([H])c(OC([H])([H])C([H])([H])[N+]3([H])C([H])([H])C([H])(C([H])(C(=NC(=O)N4C([H])([H])C([H])([H])C([H])([H])C([H])(n5nc(-c6c([H])c([H])c(Oc7c([H])c([H])c(F)c([H])c7F)c([H])c6[H])c(C(=O)N([H])[H])c5N([H])[H])C4([H])[H])C([H])([H])C([H])([H])[H])C([H])([H])[H])C3([H])[H])c([H])c([H])c2C1([H])[H]

$$$$
59:0:0
     RDKit          3D

 97105  0  0  1  0  0  0  0  0999 V2000
  -27.1340  -24.1070   22.2870 C   0  0  0  0  0  2  0  0  0  0  0  0
  -26.8650  -22.9980   21.2640 C   0  0  0  0  0  3  0  0  0  0  0  0
  -28.3420  -22.6440   21.4700 C   0  0  2  0  0  0  0  0  0  0  0  0
  -25.7880  -21.9370   21.4520 C   0  0  0  0  0  1  0  0  0  0  0  0
  -28.6780  -21.7360   22.6800 C   0  0  0  0  0  1  0  0  0  0  0  0
  -28.5350  -24.1000   21.8260 N   0  0  1  0  0  4  0  0  0  0  0  0
  -29.1900  -24.2090   22.5910 H   0  0  0  0  0  0  0  0  0  0  0  0
  -29.6090  -21.0990   19.6690 C   0  0  0  0  0  3  0  0  0  0  0  0
  -28.9510  -22.2000   20.1170 C   0  0  0  0  0  3  0  0  0  0  0  0
  -30.0020  -19.8420   20.3490 C   0  0  0  0  0  0  0  0  0  0  0  0
  -30.3870  -19.7580   21.5140 O   0  0  0  0  0  0  0  0  0  0  0  0
  -29.3330  -18.6270   18.1590 C   0  0  0  0  0  1  0  0  0  0  0  0
  -30.0340  -18.5330   19.5320 C   0  0  0  0  0  3  0  0  0  0  0  0
  -31.4040  -17.7690   19.4870 C   0  0  0  0  0  3  0  0  0  0  0  0
  -32.0140  -15.4810   20.3290 C   0  0  0  0  0  0  0  0  0  0  0  0
  -31.8300  -13.1110   19.8030 C   0  0  0  0  0  2  0  0  0  0  0  0
  -31.0510  -13.0300   18.4760 C   0  0  0  0  0  2  0  0  0  0  0  0
  -29.5340  -12.9860   18.7370 C   0  0  0  0  0  2  0  0  0  0  0  0
  -29.0480  -14.0650   19.7430 C   0  0  0  0  0  3  0  0  0  0  0  0
  -29.9730  -14.1420   20.9860 C   0  0  0  0  0  2  0  0  0  0  0  0
  -31.3590  -14.3040   20.5100 N   0  0  0  0  0  0  0  0  0  0  0  0
  -33.1920  -15.5520   19.9740 O   0  0  0  0  0  0  0  0  0  0  0  0
  -31.2150  -16.5480   20.2900 N   0  0  0  0  0  0  0  0  0  0  0  0
  -30.2660  -16.3670   20.5940 H   0  0  0  0  0  0  0  0  0  0  0  0
  -26.6310  -14.8030   20.2510 C   0  0  0  0  0  0  0  0  0  0  0  0
  -25.5010  -14.0880   20.5620 C   0  0  0  0  0  0  0  0  0  0  0  0
  -25.9020  -12.7210   20.6030 C   0  0  0  0  0  0  0  0  0  0  0  0
  -27.6490  -13.8680   20.1260 N   0  0  0  0  0  0  0  0  0  0  0  0
  -27.2100  -12.6130   20.3970 N   0  0  0  0  0  0  0  0  0  0  0  0
  -25.1020  -11.4990   20.7820 C   0  0  0  0  0  0  0  0  0  0  0  0
  -25.3550  -10.5940   21.8390 C   0  0  0  0  0  3  0  0  0  0  0  0
  -24.5630   -9.4350   21.9900 C   0  0  0  0  0  3  0  0  0  0  0  0
  -23.5020   -9.1760   21.0910 C   0  0  0  0  0  0  0  0  0  0  0  0
  -23.2740  -10.0630   20.0280 C   0  0  0  0  0  3  0  0  0  0  0  0
  -24.0630  -11.2150   19.8720 C   0  0  0  0  0  3  0  0  0  0  0  0
  -22.6940   -8.0670   21.1500 O   0  0  0  0  0  0  0  0  0  0  0  0
  -22.3520   -7.4910   22.3470 C   0  0  0  0  0  0  0  0  0  0  0  0
  -21.6860   -8.2180   23.3570 C   0  0  0  0  0  3  0  0  0  0  0  0
  -21.2920   -7.5690   24.5440 C   0  0  0  0  0  3  0  0  0  0  0  0
  -21.5480   -6.1970   24.7190 C   0  0  0  0  0  0  0  0  0  0  0  0
  -22.2000   -5.4710   23.7080 C   0  0  0  0  0  3  0  0  0  0  0  0
  -22.5970   -6.1150   22.5250 C   0  0  0  0  0  0  0  0  0  0  0  0
  -23.2120   -5.4070   21.5480 F   0  0  0  0  0  0  0  0  0  0  0  0
  -21.1560   -5.5710   25.8540 F   0  0  0  0  0  0  0  0  0  0  0  0
  -24.1120  -14.6400   20.7110 C   0  0  0  0  0  0  0  0  0  0  0  0
  -23.2920  -14.0220   21.5620 N   0  0  0  0  0  0  0  0  0  0  0  0
  -23.7600  -15.6490   20.1040 O   0  0  0  0  0  0  0  0  0  0  0  0
  -23.6000  -13.2080   22.0690 H   0  0  0  0  0  0  0  0  0  0  0  0
  -22.3520  -14.3620   21.7090 H   0  0  0  0  0  0  0  0  0  0  0  0
  -26.8630  -16.1590   20.0420 N   0  0  0  0  0  0  0  0  0  0  0  0
  -26.1080  -16.8360   20.0580 H   0  0  0  0  0  0  0  0  0  0  0  0
  -27.7240  -16.5470   19.6840 H   0  0  0  0  0  0  0  0  0  0  0  0
  -33.3160  -19.4560   18.8780 C   0  0  0  0  0  1  0  0  0  0  0  0
  -32.6890  -18.5380   19.9320 C   0  0  0  0  0  2  0  0  0  0  0  0
  -28.8350  -25.1110   20.7490 C   0  0  0  0  0  2  0  0  0  0  0  0
  -28.9410  -26.5970   21.2310 C   0  0  0  0  0  2  0  0  0  0  0  0
  -28.8670  -27.5120   20.0950 O   0  0  0  0  0  0  0  0  0  0  0  0
  -24.7680  -32.0480   23.5840 C   0  0  0  0  0  0  0  0  0  0  0  0
  -27.6870  -28.2200   20.0530 C   0  0  0  0  0  0  0  0  0  0  0  0
  -23.6440  -30.7760   21.7790 C   0  0  0  0  0  3  0  0  0  0  0  0
  -25.1930  -29.5360   20.1710 C   0  0  0  0  0  0  0  0  0  0  0  0
  -26.1300  -31.3660   21.6070 C   0  0  0  0  0  2  0  0  0  0  0  0
  -26.3090  -30.0900   20.8110 C   0  0  0  0  0  0  0  0  0  0  0  0
  -27.5610  -29.4470   20.7330 C   0  0  0  0  0  3  0  0  0  0  0  0
  -26.5630  -27.6830   19.3890 C   0  0  0  0  0  3  0  0  0  0  0  0
  -25.3170  -28.3390   19.4430 C   0  0  0  0  0  3  0  0  0  0  0  0
  -23.8840  -30.2790   20.3250 C   0  0  0  0  0  2  0  0  0  0  0  0
  -24.8660  -31.4070   22.3850 N   0  0  0  0  0  0  0  0  0  0  0  0
  -23.6780  -32.1690   24.1630 O   0  0  0  0  0  0  0  0  0  0  0  0
  -23.0730  -29.6080   22.6150 C   0  0  0  0  0  0  0  0  0  0  0  0
  -21.7740  -29.3170   22.4390 N   0  0  0  0  0  0  0  0  0  0  0  0
  -23.8020  -28.9580   23.3740 O   0  0  0  0  0  0  0  0  0  0  0  0
  -21.2310  -29.9350   21.8540 H   0  0  0  0  0  0  0  0  0  0  0  0
  -18.5830  -27.6280   22.5780 C   0  0  0  0  0  0  0  0  0  0  0  0
  -21.0540  -28.2090   23.0710 C   0  0  0  0  0  3  0  0  0  0  0  0
  -21.3910  -26.8470   22.4170 C   0  0  0  0  0  2  0  0  0  0  0  0
  -20.4160  -26.4660   21.2950 C   0  0  0  0  0  2  0  0  0  0  0  0
  -18.9950  -26.3590   21.8540 C   0  0  0  0  0  2  0  0  0  0  0  0
  -19.5550  -28.5010   23.1400 C   0  0  0  0  0  0  0  0  0  0  0  0
  -19.1270  -29.6860   23.7740 C   0  0  0  0  0  3  0  0  0  0  0  0
  -17.7580  -29.9920   23.8680 C   0  0  0  0  0  3  0  0  0  0  0  0
  -16.8000  -29.1130   23.3390 C   0  0  0  0  0  3  0  0  0  0  0  0
  -17.2120  -27.9330   22.6910 C   0  0  0  0  0  3  0  0  0  0  0  0
  -26.0130  -32.6940   24.2690 C   0  0  0  0  0  3  0  0  0  0  0  0
  -25.6620  -34.0770   24.6210 N   0  0  0  0  0  0  0  0  0  0  0  0
  -26.0180  -35.1560   23.9100 C   0  0  0  0  0  0  0  0  0  0  0  0
  -26.7490  -35.0920   22.9180 O   0  0  0  0  0  0  0  0  0  0  0  0
  -25.0110  -34.1950   25.3840 H   0  0  0  0  0  0  0  0  0  0  0  0
  -24.2860  -36.9330   23.5010 C   0  0  0  0  0  1  0  0  0  0  0  0
  -25.4810  -36.5240   24.3760 C   0  0  0  0  0  3  0  0  0  0  0  0
  -27.5510  -37.4100   25.3570 C   0  0  0  0  0  1  0  0  0  0  0  0
  -26.5010  -37.5950   24.3560 N   0  0  0  0  0  0  0  0  0  0  0  0
  -26.0740  -38.5030   24.5070 H   0  0  0  0  0  0  0  0  0  0  0  0
  -26.5000  -31.9040   25.5460 C   0  0  1  0  0  0  0  0  0  0  0  0
  -25.3660  -31.5870   26.5480 C   0  0  0  0  0  1  0  0  0  0  0  0
  -27.1580  -30.5650   25.1400 C   0  0  0  0  0  1  0  0  0  0  0  0
  -27.5830  -32.7190   26.2900 C   0  0  0  0  0  1  0  0  0  0  0  0
  2  4  1  0
  2  3  1  0
  2  1  1  0
  3  6  1  0
  3  5  1  1
  6  1  1  0
  6  7  1  1
  8  9  2  0
  8 10  1  0
  9  3  1  0
 10 11  2  0
 13 12  1  0
 13 10  1  0
 14 13  1  0
 14 54  1  0
 14 23  1  0
 15 21  1  0
 16 21  1  0
 17 18  1  0
 17 16  1  0
 19 18  1  0
 19 28  1  0
 19 20  1  0
 21 20  1  0
 22 15  2  0
 23 15  1  0
 23 24  1  0
 25 26  2  0
 26 27  1  0
 26 45  1  0
 27 30  1  0
 28 25  1  0
 28 29  1  0
 29 27  2  0
 30 31  1  0
 31 32  2  0
 33 36  1  0
 33 32  1  0
 34 33  2  0
 35 34  1  0
 35 30  2  0
 36 37  1  0
 37 42  2  0
 37 38  1  0
 38 39  2  0
 39 40  1  0
 40 44  1  0
 41 40  2  0
 42 41  1  0
 43 42  1  0
 45 46  1  0
 46 49  1  0
 46 48  1  0
 47 45  2  0
 50 51  1  0
 50 25  1  0
 52 50  1  0
 53 54  1  0
 55 56  1  0
 55  6  1  0
 57 56  1  0
 58 69  2  0
 59 57  1  0
 59 64  1  0
 60 68  1  0
 60 70  1  0
 61 67  1  0
 61 63  1  0
 62 68  1  0
 63 62  1  0
 64 63  2  0
 65 66  1  0
 65 59  2  0
 66 61  2  0
 67 60  1  0
 68 58  1  0
 70 72  2  0
 71 70  1  0
 73 71  1  0
 74 83  2  0
 74 79  1  0
 75 71  1  0
 75 79  1  0
 76 75  1  0
 77 78  1  0
 77 76  1  0
 78 74  1  0
 79 80  2  0
 80 81  1  0
 82 81  2  0
 83 82  1  0
 84 58  1  0
 84 85  1  0
 84 94  1  0
 85 88  1  0
 86 90  1  0
 86 85  1  0
 87 86  2  0
 90 89  1  0
 92 90  1  0
 92 93  1  0
 92 91  1  0
 94 97  1  1
 94 95  1  0
 96 94  1  0
M  ISO  4  15 100  23 100  56 101  57 101
M  END
>  <TORSDO>  (60) 
F 23

>  <SCORE>  (60) 
-6.940

>  <name>  (60) 
59

>  <ligand_id>  (60) 
59

>  <original_smiles>  (60) 
[H]C(C(=O)C([H])(C([H])([H])[H])C([H])(N([H])C(=O)N1C([H])([H])C([H])([H])C([H])([H])C([H])(n2nc(-c3c([H])c([H])c(Oc4c([H])c([H])c(F)c([H])c4F)c([H])c3[H])c(C(=O)N([H])[H])c2N([H])[H])C1([H])[H])C([H])([H])C([H])([H])[H])=C([H])C1(C([H])([H])[H])C([H])(C([H])([H])[H])C([H])([H])[N+]1([H])C([H])([H])C([H])([H])Oc1c([H])c([H])c2c(c1[H])C([H])([H])N(C(=O)C([H])(N([H])C(=O)C([H])(N([H])C([H])([H])[H])C([H])([H])[H])C(C([H])([H])[H])(C([H])([H])[H])C([H])([H])[H])C([H])(C(=O)N([H])C1([H])c3c([H])c([H])c([H])c([H])c3C([H])([H])C([H])([H])C1([H])[H])C2([H])[H]

>  <smiles>  (60) 
[H]C(C(=O)C([H])(C([H])([H])[H])C([H])(N([H])C(=O)N1C([H])([H])C([H])([H])C([H])([H])C([H])(n2nc(-c3c([H])c([H])c(Oc4c([H])c([H])c(F)c([H])c4F)c([H])c3[H])c(C(=O)N([H])[H])c2N([H])[H])C1([H])[H])C([H])([H])C([H])([H])[H])=C([H])C1(C([H])([H])[H])C([H])(C([H])([H])[H])C([H])([H])[N+]1([H])C([H])([H])C([H])([H])Oc1c([H])c([H])c2c(c1[H])C([H])([H])N(C(=O)C([H])(N([H])C(=O)C([H])(N([H])C([H])([H])[H])C([H])([H])[H])C(C([H])([H])[H])(C([H])([H])[H])C([H])([H])[H])C([H])(C(=O)N([H])C1([H])c3c([H])c([H])c([H])c([H])c3C([H])([H])C([H])([H])C1([H])[H])C2([H])[H]

$$$$
60:0:0
     RDKit          3D

 95103  0  0  1  0  0  0  0  0999 V2000
  -31.4930  -21.9330   19.6540 C   0  0  0  0  0  3  0  0  0  0  0  0
  -30.7070  -23.0650   19.9270 C   0  0  0  0  0  3  0  0  0  0  0  0
  -30.9410  -20.6410   19.7080 C   0  0  0  0  0  3  0  0  0  0  0  0
  -28.7900  -21.6180   20.3050 C   0  0  0  0  0  3  0  0  0  0  0  0
  -29.3430  -22.9290   20.2560 C   0  0  0  0  0  0  0  0  0  0  0  0
  -29.5730  -20.4540   20.0220 C   0  0  0  0  0  0  0  0  0  0  0  0
  -28.5380  -24.1900   20.6370 C   0  0  0  0  0  2  0  0  0  0  0  0
  -28.5440  -25.3450   19.5860 C   0  0  0  0  0  2  0  0  0  0  0  0
  -28.3990  -26.6610   20.1660 O   0  0  0  0  0  0  0  0  0  0  0  0
  -24.5820  -31.8460   23.2340 C   0  0  0  0  0  0  0  0  0  0  0  0
  -27.2030  -27.3600   20.1490 C   0  0  0  0  0  0  0  0  0  0  0  0
  -23.3760  -30.4510   21.5900 C   0  0  0  0  0  3  0  0  0  0  0  0
  -24.8170  -28.9030   20.1660 C   0  0  0  0  0  0  0  0  0  0  0  0
  -25.9070  -30.7810   21.4070 C   0  0  0  0  0  2  0  0  0  0  0  0
  -25.9780  -29.4120   20.7560 C   0  0  0  0  0  0  0  0  0  0  0  0
  -27.1700  -28.6480   20.7410 C   0  0  0  0  0  3  0  0  0  0  0  0
  -26.0130  -26.8620   19.5720 C   0  0  0  0  0  3  0  0  0  0  0  0
  -24.8310  -27.6270   19.5740 C   0  0  0  0  0  3  0  0  0  0  0  0
  -23.5830  -29.7750   20.2100 C   0  0  0  0  0  2  0  0  0  0  0  0
  -24.6400  -31.0430   22.1330 N   0  0  0  0  0  0  0  0  0  0  0  0
  -23.5010  -32.1210   23.7700 O   0  0  0  0  0  0  0  0  0  0  0  0
  -22.7150  -29.4320   22.5460 C   0  0  0  0  0  0  0  0  0  0  0  0
  -21.3880  -29.2620   22.4210 N   0  0  0  0  0  0  0  0  0  0  0  0
  -23.3920  -28.7980   23.3600 O   0  0  0  0  0  0  0  0  0  0  0  0
  -20.8980  -29.8230   21.7370 H   0  0  0  0  0  0  0  0  0  0  0  0
  -18.0060  -28.0890   22.9140 C   0  0  0  0  0  0  0  0  0  0  0  0
  -20.5650  -28.3250   23.1870 C   0  0  0  0  0  3  0  0  0  0  0  0
  -20.6590  -26.8950   22.6060 C   0  0  0  0  0  2  0  0  0  0  0  0
  -19.5540  -26.5840   21.5920 C   0  0  0  0  0  2  0  0  0  0  0  0
  -18.1740  -26.7390   22.2350 C   0  0  0  0  0  2  0  0  0  0  0  0
  -19.1310  -28.8390   23.3480 C   0  0  0  0  0  0  0  0  0  0  0  0
  -18.9200  -30.1040   23.9400 C   0  0  0  0  0  3  0  0  0  0  0  0
  -17.6190  -30.6140   24.1100 C   0  0  0  0  0  3  0  0  0  0  0  0
  -16.5090  -29.8570   23.6970 C   0  0  0  0  0  3  0  0  0  0  0  0
  -16.7050  -28.5980   23.1020 C   0  0  0  0  0  3  0  0  0  0  0  0
  -25.8680  -32.4730   23.8560 C   0  0  0  0  0  3  0  0  0  0  0  0
  -25.5640  -33.8730   24.1830 N   0  0  0  0  0  0  0  0  0  0  0  0
  -25.9040  -34.9240   23.4250 C   0  0  0  0  0  0  0  0  0  0  0  0
  -26.5750  -34.8160   22.3950 O   0  0  0  0  0  0  0  0  0  0  0  0
  -24.9800  -34.0340   24.9900 H   0  0  0  0  0  0  0  0  0  0  0  0
  -24.1840  -36.7230   23.0650 C   0  0  0  0  0  1  0  0  0  0  0  0
  -25.4210  -36.3150   23.8810 C   0  0  0  0  0  3  0  0  0  0  0  0
  -27.5560  -37.1890   24.7210 C   0  0  0  0  0  1  0  0  0  0  0  0
  -26.4580  -37.3630   23.7730 N   0  0  0  0  0  0  0  0  0  0  0  0
  -26.0570  -38.2850   23.9180 H   0  0  0  0  0  0  0  0  0  0  0  0
  -26.3790  -31.7050   25.1350 C   0  0  1  0  0  0  0  0  0  0  0  0
  -25.2850  -31.4730   26.2040 C   0  0  0  0  0  1  0  0  0  0  0  0
  -26.9590  -30.3270   24.7440 C   0  0  0  0  0  1  0  0  0  0  0  0
  -27.5330  -32.4960   25.7960 C   0  0  0  0  0  1  0  0  0  0  0  0
  -28.9370  -19.0330   20.0870 C   0  0  0  0  0  3  0  0  0  0  0  0
  -27.7200  -18.9480   19.1410 C   0  0  0  0  0  0  0  0  0  0  0  0
  -27.8930  -19.2960   17.8690 N   0  0  0  0  0  0  0  0  0  0  0  0
  -26.6340  -18.5350   19.5420 O   0  0  0  0  0  0  0  0  0  0  0  0
  -28.7980  -19.6270   17.5590 H   0  0  0  0  0  0  0  0  0  0  0  0
  -27.1330  -19.2290   17.2080 H   0  0  0  0  0  0  0  0  0  0  0  0
  -29.8410  -17.7560   19.8390 C   0  0  0  0  0  2  0  0  0  0  0  0
  -30.3090  -16.9410   21.0860 C   0  0  0  0  0  2  0  0  0  0  0  0
  -30.6740  -14.4850   20.5000 C   0  0  0  0  0  0  0  0  0  0  0  0
  -30.3850  -12.3130   19.3560 C   0  0  0  0  0  2  0  0  0  0  0  0
  -29.4650  -12.5200   18.1340 C   0  0  0  0  0  2  0  0  0  0  0  0
  -27.9820  -12.3950   18.5350 C   0  0  0  0  0  2  0  0  0  0  0  0
  -27.6290  -13.2330   19.7930 C   0  0  0  0  0  3  0  0  0  0  0  0
  -28.6660  -13.0140   20.9200 C   0  0  0  0  0  2  0  0  0  0  0  0
  -30.0010  -13.3060   20.3710 N   0  0  0  0  0  0  0  0  0  0  0  0
  -31.8040  -14.6630   20.0420 O   0  0  0  0  0  0  0  0  0  0  0  0
  -29.9590  -15.5030   21.0200 N   0  0  0  0  0  0  0  0  0  0  0  0
  -29.0410  -15.2540   21.3610 H   0  0  0  0  0  0  0  0  0  0  0  0
  -25.2210  -13.8610   20.4430 C   0  0  0  0  0  0  0  0  0  0  0  0
  -24.1420  -13.1000   20.8030 C   0  0  0  0  0  0  0  0  0  0  0  0
  -24.5970  -11.7450   20.8060 C   0  0  0  0  0  0  0  0  0  0  0  0
  -26.2670  -12.9720   20.2490 N   0  0  0  0  0  0  0  0  0  0  0  0
  -25.8940  -11.6960   20.5250 N   0  0  0  0  0  0  0  0  0  0  0  0
  -23.8590  -10.4910   21.0010 C   0  0  0  0  0  0  0  0  0  0  0  0
  -24.2730   -9.5310   21.9520 C   0  0  0  0  0  3  0  0  0  0  0  0
  -23.5360   -8.3410   22.1350 C   0  0  0  0  0  3  0  0  0  0  0  0
  -22.3710   -8.1020   21.3680 C   0  0  0  0  0  0  0  0  0  0  0  0
  -21.9740   -9.0510   20.4070 C   0  0  0  0  0  3  0  0  0  0  0  0
  -22.7110  -10.2330   20.2220 C   0  0  0  0  0  3  0  0  0  0  0  0
  -21.6090   -6.9630   21.4620 O   0  0  0  0  0  0  0  0  0  0  0  0
  -21.5480   -6.2290   22.6190 C   0  0  0  0  0  0  0  0  0  0  0  0
  -21.1240   -6.7970   23.8400 C   0  0  0  0  0  3  0  0  0  0  0  0
  -21.0100   -5.9890   24.9910 C   0  0  0  0  0  3  0  0  0  0  0  0
  -21.3080   -4.6160   24.9200 C   0  0  0  0  0  0  0  0  0  0  0  0
  -21.7250   -4.0480   23.7040 C   0  0  0  0  0  3  0  0  0  0  0  0
  -21.8420   -4.8520   22.5570 C   0  0  0  0  0  0  0  0  0  0  0  0
  -22.2230   -4.2940   21.3830 F   0  0  0  0  0  0  0  0  0  0  0  0
  -21.1920   -3.8390   26.0230 F   0  0  0  0  0  0  0  0  0  0  0  0
  -22.7420  -13.5890   21.0390 C   0  0  0  0  0  0  0  0  0  0  0  0
  -21.9920  -12.9110   21.9000 N   0  0  0  0  0  0  0  0  0  0  0  0
  -22.3190  -14.6060   20.4910 O   0  0  0  0  0  0  0  0  0  0  0  0
  -22.3450  -12.0870   22.3630 H   0  0  0  0  0  0  0  0  0  0  0  0
  -21.0510  -13.2200   22.1020 H   0  0  0  0  0  0  0  0  0  0  0  0
  -25.3940  -15.2280   20.2440 N   0  0  0  0  0  0  0  0  0  0  0  0
  -24.6220  -15.8790   20.3290 H   0  0  0  0  0  0  0  0  0  0  0  0
  -26.2430  -15.6650   19.9080 H   0  0  0  0  0  0  0  0  0  0  0  0
  1  3  2  0
  1  2  1  0
  2  5  2  0
  3  6  1  0
  5  4  1  0
  5  7  1  0
  6 50  1  0
  6  4  2  0
  8  9  1  0
  8  7  1  0
 10 21  2  0
 11  9  1  0
 11 16  1  0
 12 20  1  0
 12 22  1  0
 13 19  1  0
 13 15  1  0
 14 20  1  0
 15 14  1  0
 16 15  2  0
 17 18  1  0
 17 11  2  0
 18 13  2  0
 19 12  1  0
 20 10  1  0
 22 24  2  0
 23 22  1  0
 25 23  1  0
 26 35  2  0
 26 31  1  0
 27 23  1  0
 27 31  1  0
 28 27  1  0
 29 30  1  0
 29 28  1  0
 30 26  1  0
 31 32  2  0
 32 33  1  0
 34 33  2  0
 35 34  1  0
 36 10  1  0
 36 37  1  0
 36 46  1  0
 37 40  1  0
 38 42  1  0
 38 37  1  0
 39 38  2  0
 42 41  1  0
 44 42  1  0
 44 45  1  0
 44 43  1  0
 46 49  1  1
 46 47  1  0
 48 46  1  0
 50 56  1  0
 51 53  2  0
 51 50  1  0
 52 51  1  0
 54 52  1  0
 55 52  1  0
 56 57  1  0
 58 66  1  0
 59 64  1  0
 60 61  1  0
 60 59  1  0
 62 61  1  0
 62 71  1  0
 62 63  1  0
 64 58  1  0
 64 63  1  0
 65 58  2  0
 66 57  1  0
 66 67  1  0
 68 69  2  0
 69 70  1  0
 69 88  1  0
 70 73  1  0
 71 68  1  0
 71 72  1  0
 72 70  2  0
 73 74  1  0
 74 75  2  0
 76 79  1  0
 76 75  1  0
 77 76  2  0
 78 77  1  0
 78 73  2  0
 79 80  1  0
 80 81  1  0
 81 82  2  0
 83 82  1  0
 83 87  1  0
 84 83  2  0
 85 80  2  0
 85 84  1  0
 86 85  1  0
 88 89  1  0
 89 92  1  0
 89 91  1  0
 90 88  2  0
 93 94  1  0
 93 68  1  0
 95 93  1  0
M  ISO  4   8 101   9 101  58 100  66 100
M  END
>  <TORSDO>  (61) 
F 22

>  <SCORE>  (61) 
-13.248

>  <name>  (61) 
60

>  <ligand_id>  (61) 
60

>  <original_smiles>  (61) 
[H]c1c([H])c([H])c2c(c1[H])C([H])([H])C([H])([H])C([H])([H])C2([H])N([H])C(=O)C1([H])N(C(=O)C([H])(N([H])C(=O)C([H])(N([H])C([H])([H])[H])C([H])([H])[H])C(C([H])([H])[H])(C([H])([H])[H])C([H])([H])[H])C([H])([H])c2c([H])c(OC([H])([H])C([H])([H])c3c([H])c([H])c([H])c(C([H])(C(=O)N([H])[H])C([H])([H])C([H])([H])N([H])C(=O)N4C([H])([H])C([H])([H])C([H])([H])C([H])(n5nc(-c6c([H])c([H])c(Oc7c([H])c([H])c(F)c([H])c7F)c([H])c6[H])c(C(=O)N([H])[H])c5N([H])[H])C4([H])[H])c3[H])c([H])c([H])c2C1([H])[H]

>  <smiles>  (61) 
[H]c1c([H])c([H])c2c(c1[H])C([H])([H])C([H])([H])C([H])([H])C2([H])N([H])C(=O)C1([H])N(C(=O)C([H])(N([H])C(=O)C([H])(N([H])C([H])([H])[H])C([H])([H])[H])C(C([H])([H])[H])(C([H])([H])[H])C([H])([H])[H])C([H])([H])c2c([H])c(OC([H])([H])C([H])([H])c3c([H])c([H])c([H])c(C([H])(C(=O)N([H])[H])C([H])([H])C([H])([H])N([H])C(=O)N4C([H])([H])C([H])([H])C([H])([H])C([H])(n5nc(-c6c([H])c([H])c(Oc7c([H])c([H])c(F)c([H])c7F)c([H])c6[H])c(C(=O)N([H])[H])c5N([H])[H])C4([H])[H])c3[H])c([H])c([H])c2C1([H])[H]

$$$$
61:0:0
     RDKit          3D

 94103  0  0  1  0  0  0  0  0999 V2000
  -27.3140  -22.7160   19.7590 C   0  0  0  0  0  2  0  0  0  0  0  0
  -28.2890  -22.6090   21.9390 C   0  0  0  0  0  2  0  0  0  0  0  0
  -28.8450  -20.6590   20.2690 C   0  0  0  0  0  3  0  0  0  0  0  0
  -27.4670  -21.2610   20.1050 C   0  0  0  0  0  3  0  0  0  0  0  0
  -28.0800  -21.1900   21.4670 C   0  0  0  0  0  3  0  0  0  0  0  0
  -28.2500  -23.4010   20.6870 N   0  0  2  0  0  4  0  0  0  0  0  0
  -29.1680  -23.2750   20.2880 H   0  0  0  0  0  0  0  0  0  0  0  0
  -28.9840  -19.1940   20.1270 C   0  0  0  0  0  0  0  0  0  0  0  0
  -30.2190  -18.8220   19.7860 N   0  0  0  0  0  0  0  0  0  0  0  0
  -28.0670  -18.3940   20.3230 O   0  0  0  0  0  0  0  0  0  0  0  0
  -30.9090  -19.5450   19.6250 H   0  0  0  0  0  0  0  0  0  0  0  0
  -30.6610  -17.4500   19.6780 C   0  0  0  0  0  2  0  0  0  0  0  0
  -30.9860  -16.8580   21.0680 C   0  0  0  0  0  2  0  0  0  0  0  0
  -31.1880  -14.5260   20.3270 C   0  0  0  0  0  0  0  0  0  0  0  0
  -30.7840  -12.4210   19.1320 C   0  0  0  0  0  2  0  0  0  0  0  0
  -29.8390  -12.6700   17.9400 C   0  0  0  0  0  2  0  0  0  0  0  0
  -28.3650  -12.5810   18.3810 C   0  0  0  0  0  2  0  0  0  0  0  0
  -28.0660  -13.4300   19.6450 C   0  0  0  0  0  3  0  0  0  0  0  0
  -29.1160  -13.1540   20.7450 C   0  0  0  0  0  2  0  0  0  0  0  0
  -30.4580  -13.3950   20.1800 N   0  0  0  0  0  0  0  0  0  0  0  0
  -32.2390  -14.7530   19.7200 O   0  0  0  0  0  0  0  0  0  0  0  0
  -30.6300  -15.4510   21.1070 N   0  0  0  0  0  0  0  0  0  0  0  0
  -29.7810  -15.1950   21.5910 H   0  0  0  0  0  0  0  0  0  0  0  0
  -25.6890  -14.1130   20.3740 C   0  0  0  0  0  0  0  0  0  0  0  0
  -24.5990  -13.3720   20.7440 C   0  0  0  0  0  0  0  0  0  0  0  0
  -25.0150  -12.0060   20.6950 C   0  0  0  0  0  0  0  0  0  0  0  0
  -26.7050  -13.2000   20.1280 N   0  0  0  0  0  0  0  0  0  0  0  0
  -26.3000  -11.9270   20.3730 N   0  0  0  0  0  0  0  0  0  0  0  0
  -24.2490  -10.7670   20.8800 C   0  0  0  0  0  0  0  0  0  0  0  0
  -24.6380   -9.7950   21.8290 C   0  0  0  0  0  3  0  0  0  0  0  0
  -23.8760   -8.6190   22.0010 C   0  0  0  0  0  3  0  0  0  0  0  0
  -22.7130   -8.4070   21.2250 C   0  0  0  0  0  0  0  0  0  0  0  0
  -22.3430   -9.3660   20.2670 C   0  0  0  0  0  3  0  0  0  0  0  0
  -23.1040  -10.5340   20.0920 C   0  0  0  0  0  3  0  0  0  0  0  0
  -21.9270   -7.2830   21.3060 O   0  0  0  0  0  0  0  0  0  0  0  0
  -21.7960   -6.5790   22.4760 C   0  0  0  0  0  0  0  0  0  0  0  0
  -21.3130   -7.1790   23.6580 C   0  0  0  0  0  3  0  0  0  0  0  0
  -21.1280   -6.4030   24.8200 C   0  0  0  0  0  3  0  0  0  0  0  0
  -21.4180   -5.0240   24.7980 C   0  0  0  0  0  0  0  0  0  0  0  0
  -21.8940   -4.4220   23.6200 C   0  0  0  0  0  3  0  0  0  0  0  0
  -22.0810   -5.1970   22.4620 C   0  0  0  0  0  0  0  0  0  0  0  0
  -22.5190   -4.6090   21.3240 F   0  0  0  0  0  0  0  0  0  0  0  0
  -21.2350   -4.2750   25.9110 F   0  0  0  0  0  0  0  0  0  0  0  0
  -23.2200  -13.8920   21.0390 C   0  0  0  0  0  0  0  0  0  0  0  0
  -22.4880  -13.2200   21.9220 N   0  0  0  0  0  0  0  0  0  0  0  0
  -22.8020  -14.9280   20.5240 O   0  0  0  0  0  0  0  0  0  0  0  0
  -22.8370  -12.3810   22.3600 H   0  0  0  0  0  0  0  0  0  0  0  0
  -21.5640  -13.5500   22.1610 H   0  0  0  0  0  0  0  0  0  0  0  0
  -25.8950  -15.4790   20.2120 N   0  0  0  0  0  0  0  0  0  0  0  0
  -25.1540  -16.1560   20.3570 H   0  0  0  0  0  0  0  0  0  0  0  0
  -26.7700  -15.9090   19.9330 H   0  0  0  0  0  0  0  0  0  0  0  0
  -28.0600  -24.8530   20.8350 C   0  0  0  0  0  2  0  0  0  0  0  0
  -28.5400  -25.5790   19.5640 C   0  0  0  0  0  2  0  0  0  0  0  0
  -28.4990  -26.9830   19.7410 O   0  0  0  0  0  0  0  0  0  0  0  0
  -24.6500  -31.8710   23.0740 C   0  0  0  0  0  0  0  0  0  0  0  0
  -27.2750  -27.6070   19.7840 C   0  0  0  0  0  0  0  0  0  0  0  0
  -23.4160  -30.5070   21.4190 C   0  0  0  0  0  3  0  0  0  0  0  0
  -24.8490  -29.0380   19.9130 C   0  0  0  0  0  0  0  0  0  0  0  0
  -25.9250  -30.9190   21.1620 C   0  0  0  0  0  2  0  0  0  0  0  0
  -26.0100  -29.5730   20.4830 C   0  0  0  0  0  0  0  0  0  0  0  0
  -27.2220  -28.8630   20.4180 C   0  0  0  0  0  3  0  0  0  0  0  0
  -26.0930  -27.0710   19.2180 C   0  0  0  0  0  3  0  0  0  0  0  0
  -24.8820  -27.7830   19.2840 C   0  0  0  0  0  3  0  0  0  0  0  0
  -23.5950  -29.8740   20.0130 C   0  0  0  0  0  2  0  0  0  0  0  0
  -24.6840  -31.1100   21.9440 N   0  0  0  0  0  0  0  0  0  0  0  0
  -23.5810  -32.1100   23.6510 O   0  0  0  0  0  0  0  0  0  0  0  0
  -22.8060  -29.4430   22.3600 C   0  0  0  0  0  0  0  0  0  0  0  0
  -21.4780  -29.2650   22.2760 N   0  0  0  0  0  0  0  0  0  0  0  0
  -23.5210  -28.7850   23.1200 O   0  0  0  0  0  0  0  0  0  0  0  0
  -20.9600  -29.8580   21.6420 H   0  0  0  0  0  0  0  0  0  0  0  0
  -18.1230  -28.0630   22.8460 C   0  0  0  0  0  0  0  0  0  0  0  0
  -20.6890  -28.2980   23.0340 C   0  0  0  0  0  3  0  0  0  0  0  0
  -20.7620  -26.8920   22.3940 C   0  0  0  0  0  2  0  0  0  0  0  0
  -19.6220  -26.6180   21.4090 C   0  0  0  0  0  2  0  0  0  0  0  0
  -18.2660  -26.7430   22.1090 C   0  0  0  0  0  2  0  0  0  0  0  0
  -19.2600  -28.8020   23.2650 C   0  0  0  0  0  0  0  0  0  0  0  0
  -19.0720  -30.0440   23.9110 C   0  0  0  0  0  3  0  0  0  0  0  0
  -17.7770  -30.5420   24.1470 C   0  0  0  0  0  3  0  0  0  0  0  0
  -16.6540  -29.7990   23.7450 C   0  0  0  0  0  3  0  0  0  0  0  0
  -16.8270  -28.5620   23.0970 C   0  0  0  0  0  3  0  0  0  0  0  0
  -25.9450  -32.4960   23.6810 C   0  0  0  0  0  3  0  0  0  0  0  0
  -25.6320  -33.8770   24.0670 N   0  0  0  0  0  0  0  0  0  0  0  0
  -25.9360  -34.9570   23.3350 C   0  0  0  0  0  0  0  0  0  0  0  0
  -26.5850  -34.8980   22.2870 O   0  0  0  0  0  0  0  0  0  0  0  0
  -25.0520  -33.9990   24.8850 H   0  0  0  0  0  0  0  0  0  0  0  0
  -24.1790  -36.7380   23.0800 C   0  0  0  0  0  1  0  0  0  0  0  0
  -25.4420  -36.3220   23.8500 C   0  0  0  0  0  3  0  0  0  0  0  0
  -27.5820  -37.2030   24.6700 C   0  0  0  0  0  1  0  0  0  0  0  0
  -26.4590  -37.3920   23.7550 N   0  0  0  0  0  0  0  0  0  0  0  0
  -26.0450  -38.3000   23.9440 H   0  0  0  0  0  0  0  0  0  0  0  0
  -26.5090  -31.6850   24.9130 C   0  0  1  0  0  0  0  0  0  0  0  0
  -25.4520  -31.3990   26.0040 C   0  0  0  0  0  1  0  0  0  0  0  0
  -27.0930  -30.3310   24.4500 C   0  0  0  0  0  1  0  0  0  0  0  0
  -27.6690  -32.4710   25.5700 C   0  0  0  0  0  1  0  0  0  0  0  0
  1  6  1  0
  3  8  1  0
  3  5  1  0
  4  1  1  0
  4  3  1  0
  4  5  1  0
  5  2  1  0
  6 52  1  0
  6  2  1  0
  6  7  1  6
  8 10  2  0
  9  8  1  0
 11  9  1  0
 12  9  1  0
 12 13  1  0
 13 22  1  0
 14 22  1  0
 15 20  1  0
 16 17  1  0
 16 15  1  0
 18 17  1  0
 18 27  1  0
 18 19  1  0
 20 14  1  0
 20 19  1  0
 21 14  2  0
 22 23  1  0
 24 25  2  0
 25 44  1  0
 26 25  1  0
 26 29  1  0
 27 28  1  0
 27 24  1  0
 28 26  2  0
 29 30  1  0
 30 31  2  0
 32 35  1  0
 32 31  1  0
 33 32  2  0
 34 33  1  0
 34 29  2  0
 35 36  1  0
 36 37  1  0
 37 38  2  0
 39 38  1  0
 39 43  1  0
 40 39  2  0
 41 36  2  0
 41 40  1  0
 42 41  1  0
 44 45  1  0
 45 48  1  0
 45 47  1  0
 46 44  2  0
 49 50  1  0
 49 24  1  0
 51 49  1  0
 53 54  1  0
 53 52  1  0
 54 56  1  0
 55 66  2  0
 56 61  1  0
 57 65  1  0
 57 67  1  0
 58 64  1  0
 58 60  1  0
 59 65  1  0
 60 59  1  0
 61 60  2  0
 62 63  1  0
 62 56  2  0
 63 58  2  0
 64 57  1  0
 65 55  1  0
 67 69  2  0
 68 67  1  0
 70 68  1  0
 71 80  2  0
 71 76  1  0
 72 68  1  0
 72 76  1  0
 73 72  1  0
 74 75  1  0
 74 73  1  0
 75 71  1  0
 76 77  2  0
 77 78  1  0
 79 78  2  0
 80 79  1  0
 81 55  1  0
 81 82  1  0
 81 91  1  0
 82 85  1  0
 83 87  1  0
 83 82  1  0
 84 83  2  0
 87 86  1  0
 89 87  1  0
 89 90  1  0
 89 88  1  0
 91 94  1  1
 91 92  1  0
 93 91  1  0
M  ISO  4  14 100  22 100  53 101  54 101
M  END
>  <TORSDO>  (62) 
F 21

>  <SCORE>  (62) 
-12.870

>  <name>  (62) 
61

>  <ligand_id>  (62) 
61

>  <original_smiles>  (62) 
[H]c1c([H])c([H])c2c(c1[H])C([H])([H])C([H])([H])C([H])([H])C2([H])N([H])C(=O)C1([H])N(C(=O)C([H])(N([H])C(=O)C([H])(N([H])C([H])([H])[H])C([H])([H])[H])C(C([H])([H])[H])(C([H])([H])[H])C([H])([H])[H])C([H])([H])c2c([H])c(OC([H])([H])C([H])([H])[N+]3([H])C([H])([H])C4([H])C([H])(C(=O)N([H])C([H])([H])C([H])([H])N([H])C(=O)N5C([H])([H])C([H])([H])C([H])([H])C([H])(n6nc(-c7c([H])c([H])c(Oc8c([H])c([H])c(F)c([H])c8F)c([H])c7[H])c(C(=O)N([H])[H])c6N([H])[H])C5([H])[H])C4([H])C3([H])[H])c([H])c([H])c2C1([H])[H]

>  <smiles>  (62) 
[H]c1c([H])c([H])c2c(c1[H])C([H])([H])C([H])([H])C([H])([H])C2([H])N([H])C(=O)C1([H])N(C(=O)C([H])(N([H])C(=O)C([H])(N([H])C([H])([H])[H])C([H])([H])[H])C(C([H])([H])[H])(C([H])([H])[H])C([H])([H])[H])C([H])([H])c2c([H])c(OC([H])([H])C([H])([H])[N+]3([H])C([H])([H])C4([H])C([H])(C(=O)N([H])C([H])([H])C([H])([H])N([H])C(=O)N5C([H])([H])C([H])([H])C([H])([H])C([H])(n6nc(-c7c([H])c([H])c(Oc8c([H])c([H])c(F)c([H])c8F)c([H])c7[H])c(C(=O)N([H])[H])c6N([H])[H])C5([H])[H])C4([H])C3([H])[H])c([H])c([H])c2C1([H])[H]

$$$$
62:0:0
     RDKit          3D

 91100  0  0  1  0  0  0  0  0999 V2000
  -29.9770  -21.5380   21.0120 C   0  0  0  0  0  0  0  0  0  0  0  0
  -28.5100  -21.2620   19.5940 C   0  0  0  0  0  2  0  0  0  0  0  0
  -29.2470  -22.5540   20.0600 C   0  0  0  0  0  3  0  0  0  0  0  0
  -29.5110  -20.4230   20.3210 N   0  0  0  0  0  0  0  0  0  0  0  0
  -30.7730  -21.6070   21.9260 O   0  0  0  0  0  0  0  0  0  0  0  0
  -29.9090  -16.9800   20.6300 C   0  0  0  0  0  3  0  0  0  0  0  0
  -30.3510  -18.1890   21.4730 C   0  0  0  0  0  2  0  0  0  0  0  0
  -29.0830  -17.8840   19.6970 C   0  0  0  0  0  2  0  0  0  0  0  0
  -30.0580  -19.0140   20.1730 C   0  0  0  0  0  3  0  0  0  0  0  0
  -29.7500  -15.7400   20.9030 N   0  0  0  0  0  2  0  0  0  0  0  0
  -30.5800  -14.6800   20.4510 C   0  0  0  0  0  0  0  0  0  0  0  0
  -30.4000  -12.4340   19.3810 C   0  0  0  0  0  2  0  0  0  0  0  0
  -29.4680  -12.5720   18.1550 C   0  0  0  0  0  2  0  0  0  0  0  0
  -27.9890  -12.4100   18.5650 C   0  0  0  0  0  2  0  0  0  0  0  0
  -27.6210  -13.2650   19.8060 C   0  0  0  0  0  3  0  0  0  0  0  0
  -28.6660  -13.0940   20.9290 C   0  0  0  0  0  2  0  0  0  0  0  0
  -29.9830  -13.4430   20.3770 N   0  0  0  0  0  0  0  0  0  0  0  0
  -31.7310  -14.8280   20.0350 O   0  0  0  0  0  0  0  0  0  0  0  0
  -25.2180  -13.8670   20.4880 C   0  0  0  0  0  0  0  0  0  0  0  0
  -24.1470  -13.0960   20.8500 C   0  0  0  0  0  0  0  0  0  0  0  0
  -24.6100  -11.7440   20.8370 C   0  0  0  0  0  0  0  0  0  0  0  0
  -26.2660  -12.9860   20.2750 N   0  0  0  0  0  0  0  0  0  0  0  0
  -25.9050  -11.7050   20.5440 N   0  0  0  0  0  0  0  0  0  0  0  0
  -23.8830  -10.4840   21.0310 C   0  0  0  0  0  0  0  0  0  0  0  0
  -24.3140   -9.5190   21.9670 C   0  0  0  0  0  3  0  0  0  0  0  0
  -23.5880   -8.3210   22.1480 C   0  0  0  0  0  3  0  0  0  0  0  0
  -22.4160   -8.0820   21.3920 C   0  0  0  0  0  0  0  0  0  0  0  0
  -22.0040   -9.0360   20.4440 C   0  0  0  0  0  3  0  0  0  0  0  0
  -22.7310  -10.2240   20.2620 C   0  0  0  0  0  3  0  0  0  0  0  0
  -21.6610   -6.9370   21.4810 O   0  0  0  0  0  0  0  0  0  0  0  0
  -21.6200   -6.1900   22.6300 C   0  0  0  0  0  0  0  0  0  0  0  0
  -21.2100   -6.7420   23.8630 C   0  0  0  0  0  3  0  0  0  0  0  0
  -21.1170   -5.9220   25.0060 C   0  0  0  0  0  3  0  0  0  0  0  0
  -21.4230   -4.5500   24.9150 C   0  0  0  0  0  0  0  0  0  0  0  0
  -21.8260   -3.9980   23.6870 C   0  0  0  0  0  3  0  0  0  0  0  0
  -21.9220   -4.8150   22.5470 C   0  0  0  0  0  0  0  0  0  0  0  0
  -22.2910   -4.2740   21.3610 F   0  0  0  0  0  0  0  0  0  0  0  0
  -21.3250   -3.7590   26.0090 F   0  0  0  0  0  0  0  0  0  0  0  0
  -22.7460  -13.5740   21.1020 C   0  0  0  0  0  0  0  0  0  0  0  0
  -22.0080  -12.8840   21.9640 N   0  0  0  0  0  0  0  0  0  0  0  0
  -22.3130  -14.5950   20.5690 O   0  0  0  0  0  0  0  0  0  0  0  0
  -22.3720  -12.0590   22.4180 H   0  0  0  0  0  0  0  0  0  0  0  0
  -21.0690  -13.1880   22.1780 H   0  0  0  0  0  0  0  0  0  0  0  0
  -25.3850  -15.2360   20.3030 N   0  0  0  0  0  0  0  0  0  0  0  0
  -24.6250  -15.8990   20.4120 H   0  0  0  0  0  0  0  0  0  0  0  0
  -26.2570  -15.6710   20.0270 H   0  0  0  0  0  0  0  0  0  0  0  0
  -27.2320  -23.6330   21.3400 C   0  0  0  0  0  1  0  0  0  0  0  0
  -28.5900  -23.8930   20.6690 C   0  0  1  0  0  0  0  0  0  0  0  0
  -29.4140  -24.3080   21.6340 F   0  0  0  0  0  0  0  0  0  0  0  0
  -28.4900  -25.1550   19.6840 C   0  0  0  0  0  2  0  0  0  0  0  0
  -28.3710  -26.5300   20.2390 O   0  0  0  0  0  0  0  0  0  0  0  0
  -24.5980  -31.8780   23.2470 C   0  0  0  0  0  0  0  0  0  0  0  0
  -27.2120  -27.3200   20.1820 C   0  0  0  0  0  0  0  0  0  0  0  0
  -23.3890  -30.4770   21.6120 C   0  0  0  0  0  3  0  0  0  0  0  0
  -24.8360  -28.9220   20.1840 C   0  0  0  0  0  0  0  0  0  0  0  0
  -25.9260  -30.8000   21.4170 C   0  0  0  0  0  2  0  0  0  0  0  0
  -26.0040  -29.4190   20.7730 C   0  0  0  0  0  0  0  0  0  0  0  0
  -27.1890  -28.6280   20.7630 C   0  0  0  0  0  3  0  0  0  0  0  0
  -26.0130  -26.8680   19.5830 C   0  0  0  0  0  3  0  0  0  0  0  0
  -24.8420  -27.6530   19.5840 C   0  0  0  0  0  3  0  0  0  0  0  0
  -23.5980  -29.7950   20.2330 C   0  0  0  0  0  2  0  0  0  0  0  0
  -24.6580  -31.0680   22.1490 N   0  0  0  0  0  0  0  0  0  0  0  0
  -23.5160  -32.1560   23.7840 O   0  0  0  0  0  0  0  0  0  0  0  0
  -22.7310  -29.4630   22.5760 C   0  0  0  0  0  0  0  0  0  0  0  0
  -21.4050  -29.2820   22.4490 N   0  0  0  0  0  0  0  0  0  0  0  0
  -23.4110  -28.8400   23.3960 O   0  0  0  0  0  0  0  0  0  0  0  0
  -20.9160  -29.8360   21.7610 H   0  0  0  0  0  0  0  0  0  0  0  0
  -18.0310  -28.0760   22.9440 C   0  0  0  0  0  0  0  0  0  0  0  0
  -20.5880  -28.3460   23.2230 C   0  0  0  0  0  3  0  0  0  0  0  0
  -20.6970  -26.9130   22.6550 C   0  0  0  0  0  2  0  0  0  0  0  0
  -19.6000  -26.5800   21.6380 C   0  0  0  0  0  2  0  0  0  0  0  0
  -18.2150  -26.7240   22.2770 C   0  0  0  0  0  2  0  0  0  0  0  0
  -19.1460  -28.8450   23.3740 C   0  0  0  0  0  0  0  0  0  0  0  0
  -18.9210  -30.1100   23.9580 C   0  0  0  0  0  3  0  0  0  0  0  0
  -17.6130  -30.6070   24.1190 C   0  0  0  0  0  3  0  0  0  0  0  0
  -16.5130  -29.8360   23.7050 C   0  0  0  0  0  3  0  0  0  0  0  0
  -16.7230  -28.5720   23.1230 C   0  0  0  0  0  3  0  0  0  0  0  0
  -25.8820  -32.5120   23.8660 C   0  0  0  0  0  3  0  0  0  0  0  0
  -26.3980  -31.7440   25.1450 C   0  0  1  0  0  0  0  0  0  0  0  0
  -25.3050  -31.5140   26.2150 C   0  0  0  0  0  1  0  0  0  0  0  0
  -26.9760  -30.3630   24.7580 C   0  0  0  0  0  1  0  0  0  0  0  0
  -27.5530  -32.5370   25.8020 C   0  0  0  0  0  1  0  0  0  0  0  0
  -25.5750  -33.9120   24.1910 N   0  0  0  0  0  0  0  0  0  0  0  0
  -25.9110  -34.9620   23.4300 C   0  0  0  0  0  0  0  0  0  0  0  0
  -26.5800  -34.8540   22.3990 O   0  0  0  0  0  0  0  0  0  0  0  0
  -24.9780  -34.0690   24.9890 H   0  0  0  0  0  0  0  0  0  0  0  0
  -24.1860  -36.7590   23.0700 C   0  0  0  0  0  1  0  0  0  0  0  0
  -25.4260  -36.3530   23.8830 C   0  0  0  0  0  3  0  0  0  0  0  0
  -27.5630  -37.2350   24.7120 C   0  0  0  0  0  1  0  0  0  0  0  0
  -26.4610  -37.4030   23.7670 N   0  0  0  0  0  0  0  0  0  0  0  0
  -26.0570  -38.3250   23.9110 H   0  0  0  0  0  0  0  0  0  0  0  0
  1  5  2  0
  2  3  1  0
  2  4  1  0
  3 48  1  0
  3  1  1  0
  4  1  1  0
  6 10  1  0
  6  7  1  0
  8  6  1  0
  9  8  1  0
  9  4  1  0
  9  7  1  0
 11 10  1  0
 12 17  1  0
 13 14  1  0
 13 12  1  0
 15 14  1  0
 15 22  1  0
 15 16  1  0
 17 11  1  0
 17 16  1  0
 18 11  2  0
 19 20  2  0
 20 39  1  0
 21 20  1  0
 21 24  1  0
 22 19  1  0
 22 23  1  0
 23 21  2  0
 24 25  1  0
 25 26  2  0
 27 30  1  0
 27 26  1  0
 28 27  2  0
 29 28  1  0
 29 24  2  0
 30 31  1  0
 31 32  1  0
 32 33  2  0
 34 33  1  0
 34 38  1  0
 35 34  2  0
 36 31  2  0
 36 35  1  0
 37 36  1  0
 39 40  1  0
 40 43  1  0
 40 42  1  0
 41 39  2  0
 44 45  1  0
 44 19  1  0
 46 44  1  0
 48 47  1  1
 48 49  1  0
 50 51  1  0
 50 48  1  0
 52 63  2  0
 53 51  1  0
 53 58  1  0
 54 62  1  0
 54 64  1  0
 55 61  1  0
 55 57  1  0
 56 62  1  0
 57 56  1  0
 58 57  2  0
 59 60  1  0
 59 53  2  0
 60 55  2  0
 61 54  1  0
 62 52  1  0
 64 66  2  0
 65 64  1  0
 67 65  1  0
 68 77  2  0
 68 73  1  0
 69 65  1  0
 69 73  1  0
 70 69  1  0
 71 72  1  0
 71 70  1  0
 72 68  1  0
 73 74  2  0
 74 75  1  0
 76 75  2  0
 77 76  1  0
 78 52  1  0
 78 83  1  0
 78 79  1  0
 79 82  1  1
 79 80  1  0
 81 79  1  0
 83 86  1  0
 84 88  1  0
 84 83  1  0
 85 84  2  0
 88 87  1  0
 90 88  1  0
 90 91  1  0
 90 89  1  0
M  ISO  4  10 100  11 100  50 101  51 101
M  END
>  <TORSDO>  (63) 
F 19

>  <SCORE>  (63) 
-14.444

>  <name>  (63) 
62

>  <ligand_id>  (63) 
62

>  <original_smiles>  (63) 
[H]c1c([H])c([H])c2c(c1[H])C([H])([H])C([H])([H])C([H])([H])C2([H])N([H])C(=O)C1([H])N(C(=O)C([H])(N([H])C(=O)C([H])(N([H])C([H])([H])[H])C([H])([H])[H])C(C([H])([H])[H])(C([H])([H])[H])C([H])([H])[H])C([H])([H])c2c([H])c(OC([H])([H])C(F)(C([H])([H])[H])C3([H])C(=O)N(C4([H])C([H])([H])C(=NC(=O)N5C([H])([H])C([H])([H])C([H])([H])C([H])(n6nc(-c7c([H])c([H])c(Oc8c([H])c([H])c(F)c([H])c8F)c([H])c7[H])c(C(=O)N([H])[H])c6N([H])[H])C5([H])[H])C4([H])[H])C3([H])[H])c([H])c([H])c2C1([H])[H]

>  <smiles>  (63) 
[H]c1c([H])c([H])c2c(c1[H])C([H])([H])C([H])([H])C([H])([H])C2([H])N([H])C(=O)C1([H])N(C(=O)C([H])(N([H])C(=O)C([H])(N([H])C([H])([H])[H])C([H])([H])[H])C(C([H])([H])[H])(C([H])([H])[H])C([H])([H])[H])C([H])([H])c2c([H])c(OC([H])([H])C(F)(C([H])([H])[H])C3([H])C(=O)N(C4([H])C([H])([H])C(=NC(=O)N5C([H])([H])C([H])([H])C([H])([H])C([H])(n6nc(-c7c([H])c([H])c(Oc8c([H])c([H])c(F)c([H])c8F)c([H])c7[H])c(C(=O)N([H])[H])c6N([H])[H])C5([H])[H])C4([H])[H])C3([H])[H])c([H])c([H])c2C1([H])[H]

$$$$
63:0:0
     RDKit          3D

 95104  0  0  1  0  0  0  0  0999 V2000
  -29.5870  -18.9440   18.2020 C   0  0  0  0  0  3  0  0  0  0  0  0
  -29.0820  -21.3830   18.1160 C   0  0  0  0  0  3  0  0  0  0  0  0
  -30.0510  -18.9990   19.5280 C   0  0  0  0  0  0  0  0  0  0  0  0
  -29.0970  -20.0890   17.5250 C   0  0  0  0  0  0  0  0  0  0  0  0
  -29.5690  -21.6250   19.4220 C   0  0  0  0  0  0  0  0  0  0  0  0
  -30.0710  -20.3890   20.0960 C   0  0  0  0  0  0  0  0  0  0  0  0
  -28.5380  -19.8910   16.1250 C   0  0  0  0  0  1  0  0  0  0  0  0
  -30.6940  -20.6040   21.4640 C   0  0  0  0  0  1  0  0  0  0  0  0
  -30.9930  -14.8650   19.5120 C   0  0  0  0  0  0  0  0  0  0  0  0
  -30.7800  -12.5640   18.4080 C   0  0  0  0  0  2  0  0  0  0  0  0
  -29.6510  -12.5770   17.3520 C   0  0  0  0  0  2  0  0  0  0  0  0
  -28.2540  -12.3780   17.9790 C   0  0  0  0  0  2  0  0  0  0  0  0
  -28.0760  -13.2070   19.2780 C   0  0  0  0  0  3  0  0  0  0  0  0
  -29.3030  -12.9960   20.1890 C   0  0  0  0  0  2  0  0  0  0  0  0
  -30.4420  -13.5740   19.4540 N   0  0  0  0  0  0  0  0  0  0  0  0
  -32.1140  -14.9970   19.0020 O   0  0  0  0  0  0  0  0  0  0  0  0
  -29.4360  -15.8400   21.1770 C   0  0  0  0  0  2  0  0  0  0  0  0
  -30.3810  -17.5650   20.3010 C   0  0  0  0  0  3  0  0  0  0  0  0
  -29.1150  -17.2990   21.1110 C   0  0  0  0  0  3  0  0  0  0  0  0
  -30.2030  -16.0020   19.9210 N   0  0  0  0  0  0  0  0  0  0  0  0
  -25.8480  -13.8000   20.4120 C   0  0  0  0  0  0  0  0  0  0  0  0
  -24.8190  -13.0300   20.8750 C   0  0  0  0  0  0  0  0  0  0  0  0
  -25.2140  -11.6760   20.6480 C   0  0  0  0  0  0  0  0  0  0  0  0
  -26.8120  -12.9190   19.9460 N   0  0  0  0  0  0  0  0  0  0  0  0
  -26.4440  -11.6300   20.1470 N   0  0  0  0  0  0  0  0  0  0  0  0
  -24.4650  -10.4300   20.8390 C   0  0  0  0  0  0  0  0  0  0  0  0
  -24.8680   -9.4770   21.7970 C   0  0  0  0  0  3  0  0  0  0  0  0
  -24.1260   -8.2910   21.9810 C   0  0  0  0  0  3  0  0  0  0  0  0
  -22.9690   -8.0500   21.2040 C   0  0  0  0  0  0  0  0  0  0  0  0
  -22.5820   -8.9960   20.2370 C   0  0  0  0  0  3  0  0  0  0  0  0
  -23.3230  -10.1750   20.0550 C   0  0  0  0  0  3  0  0  0  0  0  0
  -22.1990   -6.9160   21.2930 O   0  0  0  0  0  0  0  0  0  0  0  0
  -21.9210   -6.3270   22.4980 C   0  0  0  0  0  0  0  0  0  0  0  0
  -21.2490   -7.0180   23.5290 C   0  0  0  0  0  3  0  0  0  0  0  0
  -20.9170   -6.3530   24.7250 C   0  0  0  0  0  3  0  0  0  0  0  0
  -21.2470   -4.9920   24.8890 C   0  0  0  0  0  0  0  0  0  0  0  0
  -21.9090   -4.3000   23.8610 C   0  0  0  0  0  3  0  0  0  0  0  0
  -22.2420   -4.9630   22.6670 C   0  0  0  0  0  0  0  0  0  0  0  0
  -22.8600   -4.2850   21.6720 F   0  0  0  0  0  0  0  0  0  0  0  0
  -20.9170   -4.3480   26.0330 F   0  0  0  0  0  0  0  0  0  0  0  0
  -23.5050  -13.5260   21.4020 C   0  0  0  0  0  0  0  0  0  0  0  0
  -22.9040  -12.7950   22.3320 N   0  0  0  0  0  0  0  0  0  0  0  0
  -23.0320  -14.6040   21.0360 O   0  0  0  0  0  0  0  0  0  0  0  0
  -23.3010  -11.9250   22.6540 H   0  0  0  0  0  0  0  0  0  0  0  0
  -22.0390  -13.1150   22.7440 H   0  0  0  0  0  0  0  0  0  0  0  0
  -26.0140  -15.1790   20.3380 N   0  0  0  0  0  0  0  0  0  0  0  0
  -25.2110  -15.7750   20.5210 H   0  0  0  0  0  0  0  0  0  0  0  0
  -26.7510  -15.6320   19.8190 H   0  0  0  0  0  0  0  0  0  0  0  0
  -28.8980  -17.9870   22.4030 N   0  0  0  0  0  4  0  0  0  0  0  0
  -29.7400  -18.0920   22.9390 H   0  0  0  0  0  0  0  0  0  0  0  0
  -28.2520  -17.4630   22.9660 H   0  0  0  0  0  0  0  0  0  0  0  0
  -28.4970  -18.8930   22.2530 H   0  0  0  0  0  0  0  0  0  0  0  0
  -29.6390  -23.1970   19.9710 C   0  0  0  0  0  3  0  0  0  0  0  0
  -28.6810  -24.5380   19.5370 C   0  0  0  0  0  3  0  0  0  0  0  0
  -28.7680  -26.0180   20.0680 O   0  0  0  0  0  0  0  0  0  0  0  0
  -24.9300  -31.4270   23.3470 C   0  0  0  0  0  0  0  0  0  0  0  0
  -27.6870  -26.9830   20.0340 C   0  0  0  0  0  0  0  0  0  0  0  0
  -23.8000  -30.1230   21.5870 C   0  0  0  0  0  3  0  0  0  0  0  0
  -25.3130  -28.6830   20.0830 C   0  0  0  0  0  0  0  0  0  0  0  0
  -26.3490  -30.4470   21.5000 C   0  0  0  0  0  2  0  0  0  0  0  0
  -26.4670  -29.1050   20.7530 C   0  0  0  0  0  0  0  0  0  0  0  0
  -27.6520  -28.2710   20.7160 C   0  0  0  0  0  3  0  0  0  0  0  0
  -26.5060  -26.6750   19.3250 C   0  0  0  0  0  3  0  0  0  0  0  0
  -25.3480  -27.4850   19.3510 C   0  0  0  0  0  3  0  0  0  0  0  0
  -24.0610  -29.5430   20.1700 C   0  0  0  0  0  2  0  0  0  0  0  0
  -25.0450  -30.6880   22.2000 N   0  0  0  0  0  0  0  0  0  0  0  0
  -23.8270  -31.6500   23.8670 O   0  0  0  0  0  0  0  0  0  0  0  0
  -23.1220  -29.0410   22.4650 C   0  0  0  0  0  0  0  0  0  0  0  0
  -21.8120  -28.8150   22.2610 N   0  0  0  0  0  0  0  0  0  0  0  0
  -23.7820  -28.4070   23.2950 O   0  0  0  0  0  0  0  0  0  0  0  0
  -21.3380  -29.3790   21.5700 H   0  0  0  0  0  0  0  0  0  0  0  0
  -18.4770  -27.4170   22.5090 C   0  0  0  0  0  0  0  0  0  0  0  0
  -20.9980  -27.8030   22.9410 C   0  0  0  0  0  3  0  0  0  0  0  0
  -21.2140  -26.4070   22.3130 C   0  0  0  0  0  2  0  0  0  0  0  0
  -20.1920  -26.0740   21.2220 C   0  0  0  0  0  2  0  0  0  0  0  0
  -18.7690  -26.1150   21.7830 C   0  0  0  0  0  2  0  0  0  0  0  0
  -19.5240  -28.2190   23.0370 C   0  0  0  0  0  0  0  0  0  0  0  0
  -19.1980  -29.4370   23.6710 C   0  0  0  0  0  3  0  0  0  0  0  0
  -17.8580  -29.8530   23.7860 C   0  0  0  0  0  3  0  0  0  0  0  0
  -16.8250  -29.0490   23.2730 C   0  0  0  0  0  3  0  0  0  0  0  0
  -17.1360  -27.8340   22.6380 C   0  0  0  0  0  3  0  0  0  0  0  0
  -26.1790  -32.0430   24.0470 C   0  0  0  0  0  3  0  0  0  0  0  0
  -26.6090  -31.2610   25.3490 C   0  0  1  0  0  0  0  0  0  0  0  0
  -25.4510  -31.0330   26.3510 C   0  0  0  0  0  1  0  0  0  0  0  0
  -27.1990  -29.8790   24.9870 C   0  0  0  0  0  1  0  0  0  0  0  0
  -27.7270  -32.0400   26.0830 C   0  0  0  0  0  1  0  0  0  0  0  0
  -25.8630  -33.4430   24.3770 N   0  0  0  0  0  0  0  0  0  0  0  0
  -26.2270  -34.5030   23.6440 C   0  0  0  0  0  0  0  0  0  0  0  0
  -26.9270  -34.4070   22.6330 O   0  0  0  0  0  0  0  0  0  0  0  0
  -25.2500  -33.5920   25.1650 H   0  0  0  0  0  0  0  0  0  0  0  0
  -24.5250  -36.3170   23.2570 C   0  0  0  0  0  1  0  0  0  0  0  0
  -25.7370  -35.8930   24.1030 C   0  0  0  0  0  3  0  0  0  0  0  0
  -27.8440  -36.7600   25.0170 C   0  0  0  0  0  1  0  0  0  0  0  0
  -26.7800  -36.9390   24.0340 N   0  0  0  0  0  0  0  0  0  0  0  0
  -26.3740  -37.8610   24.1690 H   0  0  0  0  0  0  0  0  0  0  0  0
  1  3  1  0
  2  5  2  0
  3  6  2  0
  4  2  1  0
  4  1  2  0
  5 53  1  0
  5  6  1  0
  6  8  1  0
  7  4  1  0
  9 20  1  0
 10 15  1  0
 11 12  1  0
 11 10  1  0
 13 12  1  0
 13 24  1  0
 13 14  1  0
 15  9  1  0
 15 14  1  0
 16  9  2  0
 18  3  1  0
 18 19  1  0
 19 17  1  0
 19 49  1  0
 20 18  1  0
 20 17  1  0
 21 22  2  0
 22 41  1  0
 23 26  1  0
 23 22  1  0
 24 25  1  0
 24 21  1  0
 25 23  2  0
 26 27  1  0
 27 28  2  0
 29 32  1  0
 29 28  1  0
 30 29  2  0
 31 30  1  0
 31 26  2  0
 32 33  1  0
 33 38  2  0
 33 34  1  0
 34 35  2  0
 35 36  1  0
 36 40  1  0
 37 36  2  0
 38 37  1  0
 39 38  1  0
 41 42  1  0
 42 44  1  0
 42 45  1  0
 43 41  2  0
 46 21  1  0
 46 47  1  0
 48 46  1  0
 49 50  1  0
 49 51  1  0
 52 49  1  0
 54 53  2  0
 54 55  1  0
 56 67  2  0
 57 55  1  0
 57 62  1  0
 58 66  1  0
 58 68  1  0
 59 65  1  0
 59 61  1  0
 60 66  1  0
 61 60  1  0
 62 61  2  0
 63 64  1  0
 63 57  2  0
 64 59  2  0
 65 58  1  0
 66 56  1  0
 68 70  2  0
 69 68  1  0
 71 69  1  0
 72 81  2  0
 72 77  1  0
 73 69  1  0
 73 77  1  0
 74 73  1  0
 75 76  1  0
 75 74  1  0
 76 72  1  0
 77 78  2  0
 78 79  1  0
 80 79  2  0
 81 80  1  0
 82 56  1  0
 82 87  1  0
 82 83  1  0
 83 86  1  1
 83 84  1  0
 85 83  1  0
 87 90  1  0
 88 92  1  0
 88 87  1  0
 89 88  2  0
 92 91  1  0
 94 92  1  0
 94 95  1  0
 94 93  1  0
M  ISO  4   9 100  20 100  54 101  55 101
M  END
>  <TORSDO>  (64) 
F 19

>  <SCORE>  (64) 
-10.230

>  <name>  (64) 
63

>  <ligand_id>  (64) 
63

>  <original_smiles>  (64) 
[H]c1c([H])c([H])c2c(c1[H])C([H])([H])C([H])([H])C([H])([H])C2([H])N([H])C(=O)C1([H])N(C(=O)C([H])(N([H])C(=O)C([H])(N([H])C([H])([H])[H])C([H])([H])[H])C(C([H])([H])[H])(C([H])([H])[H])C([H])([H])[H])C([H])([H])c2c([H])c(OC([H])([H])C([H])([H])c3c([H])c(C([H])([H])[H])c([H])c(C4([H])N(C(=O)N5C([H])([H])C([H])([H])C([H])([H])C([H])(n6nc(-c7c([H])c([H])c(Oc8c([H])c([H])c(F)c([H])c8F)c([H])c7[H])c(C(=O)N([H])[H])c6N([H])[H])C5([H])[H])C([H])([H])C4([H])[N+]([H])([H])[H])c3C([H])([H])[H])c([H])c([H])c2C1([H])[H]

>  <smiles>  (64) 
[H]c1c([H])c([H])c2c(c1[H])C([H])([H])C([H])([H])C([H])([H])C2([H])N([H])C(=O)C1([H])N(C(=O)C([H])(N([H])C(=O)C([H])(N([H])C([H])([H])[H])C([H])([H])[H])C(C([H])([H])[H])(C([H])([H])[H])C([H])([H])[H])C([H])([H])c2c([H])c(OC([H])([H])C([H])([H])c3c([H])c(C([H])([H])[H])c([H])c(C4([H])N(C(=O)N5C([H])([H])C([H])([H])C([H])([H])C([H])(n6nc(-c7c([H])c([H])c(Oc8c([H])c([H])c(F)c([H])c8F)c([H])c7[H])c(C(=O)N([H])[H])c6N([H])[H])C5([H])[H])C([H])([H])C4([H])[N+]([H])([H])[H])c3C([H])([H])[H])c([H])c([H])c2C1([H])[H]

$$$$
64:0:0
     RDKit          3D

 95103  0  0  1  0  0  0  0  0999 V2000
  -28.1070  -19.9180   18.3750 C   0  0  0  0  0  1  0  0  0  0  0  0
  -29.1740  -20.2730   19.4270 C   0  0  0  0  0  3  0  0  0  0  0  0
  -29.9150  -22.8340   19.5840 C   0  0  0  0  0  3  0  0  0  0  0  0
  -27.6900  -22.4560   20.2740 C   0  0  0  0  0  3  0  0  0  0  0  0
  -29.6960  -24.2590   19.6610 C   0  0  0  0  0  3  0  0  0  0  0  0
  -27.4740  -23.8950   20.3610 C   0  0  0  0  0  3  0  0  0  0  0  0
  -28.9300  -21.8390   19.8660 C   0  0  0  0  0  0  0  0  0  0  0  0
  -28.4640  -24.8830   20.0270 C   0  0  0  0  0  0  0  0  0  0  0  0
  -28.3940  -26.3410   20.0500 O   0  0  0  0  0  0  0  0  0  0  0  0
  -24.5970  -31.7690   23.1390 C   0  0  0  0  0  0  0  0  0  0  0  0
  -27.2630  -27.2090   20.0320 C   0  0  0  0  0  0  0  0  0  0  0  0
  -23.4290  -30.3950   21.4550 C   0  0  0  0  0  3  0  0  0  0  0  0
  -24.9070  -28.8790   20.0020 C   0  0  0  0  0  0  0  0  0  0  0  0
  -25.9700  -30.7170   21.3100 C   0  0  0  0  0  2  0  0  0  0  0  0
  -26.0650  -29.3430   20.6380 C   0  0  0  0  0  0  0  0  0  0  0  0
  -27.2410  -28.5170   20.6450 C   0  0  0  0  0  3  0  0  0  0  0  0
  -26.0910  -26.8360   19.3460 C   0  0  0  0  0  3  0  0  0  0  0  0
  -24.9280  -27.6390   19.3420 C   0  0  0  0  0  3  0  0  0  0  0  0
  -23.6660  -29.7560   20.0590 C   0  0  0  0  0  2  0  0  0  0  0  0
  -24.6850  -30.9820   22.0250 N   0  0  0  0  0  0  0  0  0  0  0  0
  -23.5030  -32.0220   23.6670 O   0  0  0  0  0  0  0  0  0  0  0  0
  -22.7660  -29.3490   22.3870 C   0  0  0  0  0  0  0  0  0  0  0  0
  -21.4380  -29.1870   22.2710 N   0  0  0  0  0  0  0  0  0  0  0  0
  -23.4490  -28.6900   23.1750 O   0  0  0  0  0  0  0  0  0  0  0  0
  -20.9450  -29.7760   21.6130 H   0  0  0  0  0  0  0  0  0  0  0  0
  -18.0500  -28.0290   22.8060 C   0  0  0  0  0  0  0  0  0  0  0  0
  -20.6210  -28.2270   23.0130 C   0  0  0  0  0  3  0  0  0  0  0  0
  -20.6770  -26.8270   22.3590 C   0  0  0  0  0  2  0  0  0  0  0  0
  -19.5390  -26.5810   21.3620 C   0  0  0  0  0  2  0  0  0  0  0  0
  -18.1790  -26.7170   22.0540 C   0  0  0  0  0  2  0  0  0  0  0  0
  -19.1970  -28.7460   23.2440 C   0  0  0  0  0  0  0  0  0  0  0  0
  -19.0200  -29.9760   23.9120 C   0  0  0  0  0  3  0  0  0  0  0  0
  -17.7300  -30.4900   24.1450 C   0  0  0  0  0  3  0  0  0  0  0  0
  -16.5990  -29.7690   23.7230 C   0  0  0  0  0  3  0  0  0  0  0  0
  -16.7610  -28.5410   23.0590 C   0  0  0  0  0  3  0  0  0  0  0  0
  -25.8630  -32.4040   23.7910 C   0  0  0  0  0  3  0  0  0  0  0  0
  -25.5390  -33.7960   24.1370 N   0  0  0  0  0  0  0  0  0  0  0  0
  -25.8460  -34.8610   23.3880 C   0  0  0  0  0  0  0  0  0  0  0  0
  -26.5040  -34.7760   22.3460 O   0  0  0  0  0  0  0  0  0  0  0  0
  -24.9590  -33.9340   24.9530 H   0  0  0  0  0  0  0  0  0  0  0  0
  -24.0870  -36.6340   23.0760 C   0  0  0  0  0  1  0  0  0  0  0  0
  -25.3470  -36.2400   23.8650 C   0  0  0  0  0  3  0  0  0  0  0  0
  -27.4720  -37.1610   24.6830 C   0  0  0  0  0  1  0  0  0  0  0  0
  -26.3620  -37.3100   23.7440 N   0  0  0  0  0  0  0  0  0  0  0  0
  -25.9440  -38.2230   23.8920 H   0  0  0  0  0  0  0  0  0  0  0  0
  -26.3610  -31.6230   25.0680 C   0  0  1  0  0  0  0  0  0  0  0  0
  -25.2500  -31.3680   26.1130 C   0  0  0  0  0  1  0  0  0  0  0  0
  -26.9620  -30.2550   24.6730 C   0  0  0  0  0  1  0  0  0  0  0  0
  -27.4930  -32.4160   25.7630 C   0  0  0  0  0  1  0  0  0  0  0  0
  -29.4040  -18.9250   20.3520 C   0  0  0  0  0  0  0  0  0  0  0  0
  -28.6520  -18.7860   21.3590 N   0  0  0  0  0  0  0  0  0  0  0  0
  -28.0130  -19.5660   21.4510 H   0  0  0  0  0  0  0  0  0  0  0  0
  -30.5060  -17.7010   20.0900 C   0  0  0  0  0  0  0  0  0  0  0  0
  -30.8420  -14.9730   19.8260 C   0  0  0  0  0  0  0  0  0  0  0  0
  -30.6400  -12.6120   18.9490 C   0  0  0  0  0  2  0  0  0  0  0  0
  -29.6390  -12.5290   17.7750 C   0  0  0  0  0  2  0  0  0  0  0  0
  -28.2030  -12.3340   18.2990 C   0  0  0  0  0  2  0  0  0  0  0  0
  -27.8590  -13.3040   19.4610 C   0  0  0  0  0  3  0  0  0  0  0  0
  -28.9750  -13.3630   20.5240 C   0  0  0  0  0  2  0  0  0  0  0  0
  -30.2120  -13.7350   19.8280 N   0  0  0  0  0  0  0  0  0  0  0  0
  -32.0350  -14.9830   19.5140 O   0  0  0  0  0  0  0  0  0  0  0  0
  -30.1070  -16.1750   19.9720 N   0  0  0  0  0  4  0  0  0  0  0  0
  -29.1200  -16.0270   20.1140 H   0  0  0  0  0  0  0  0  0  0  0  0
  -25.5570  -13.9110   20.4000 C   0  0  0  0  0  0  0  0  0  0  0  0
  -24.5030  -13.1470   20.8200 C   0  0  0  0  0  0  0  0  0  0  0  0
  -24.9300  -11.7890   20.7100 C   0  0  0  0  0  0  0  0  0  0  0  0
  -26.5560  -13.0180   20.0490 N   0  0  0  0  0  0  0  0  0  0  0  0
  -26.1950  -11.7330   20.3060 N   0  0  0  0  0  0  0  0  0  0  0  0
  -24.1890  -10.5350   20.9090 C   0  0  0  0  0  0  0  0  0  0  0  0
  -24.6110   -9.5670   21.8470 C   0  0  0  0  0  3  0  0  0  0  0  0
  -23.8680   -8.3820   22.0330 C   0  0  0  0  0  3  0  0  0  0  0  0
  -22.6890   -8.1580   21.2840 C   0  0  0  0  0  0  0  0  0  0  0  0
  -22.2860   -9.1130   20.3350 C   0  0  0  0  0  3  0  0  0  0  0  0
  -23.0300  -10.2900   20.1450 C   0  0  0  0  0  3  0  0  0  0  0  0
  -21.9180   -7.0250   21.3800 O   0  0  0  0  0  0  0  0  0  0  0  0
  -21.8000   -6.3320   22.5580 C   0  0  0  0  0  0  0  0  0  0  0  0
  -21.2430   -6.9210   23.7150 C   0  0  0  0  0  3  0  0  0  0  0  0
  -21.0740   -6.1520   24.8840 C   0  0  0  0  0  3  0  0  0  0  0  0
  -21.4530   -4.7960   24.8970 C   0  0  0  0  0  0  0  0  0  0  0  0
  -22.0040   -4.2080   23.7450 C   0  0  0  0  0  3  0  0  0  0  0  0
  -22.1730   -4.9730   22.5780 C   0  0  0  0  0  0  0  0  0  0  0  0
  -22.6860   -4.3960   21.4640 F   0  0  0  0  0  0  0  0  0  0  0  0
  -21.2840   -4.0560   26.0180 F   0  0  0  0  0  0  0  0  0  0  0  0
  -23.1410  -13.6470   21.2070 C   0  0  0  0  0  0  0  0  0  0  0  0
  -22.4600  -12.9430   22.1040 N   0  0  0  0  0  0  0  0  0  0  0  0
  -22.6920  -14.6920   20.7430 O   0  0  0  0  0  0  0  0  0  0  0  0
  -22.8430  -12.0980   22.5000 H   0  0  0  0  0  0  0  0  0  0  0  0
  -21.5470  -13.2550   22.3990 H   0  0  0  0  0  0  0  0  0  0  0  0
  -25.7380  -15.2840   20.2610 N   0  0  0  0  0  0  0  0  0  0  0  0
  -24.9960  -15.9450   20.4610 H   0  0  0  0  0  0  0  0  0  0  0  0
  -26.5630  -15.7230   19.8750 H   0  0  0  0  0  0  0  0  0  0  0  0
  -32.4890  -19.3690   19.8450 C   0  0  0  0  0  1  0  0  0  0  0  0
  -31.7640  -18.1280   19.2580 C   0  0  0  0  0  3  0  0  0  0  0  0
  -32.7930  -18.4480   16.8920 C   0  0  0  0  0  1  0  0  0  0  0  0
  -31.5250  -18.1980   17.7280 C   0  0  0  0  0  2  0  0  0  0  0  0
  2  1  1  0
  2  7  1  0
  2 50  1  0
  3  5  2  0
  3  7  1  0
  4  6  1  0
  5  8  1  0
  7  4  2  0
  8  9  1  0
  8  6  2  0
 10 21  2  0
 11  9  1  0
 11 16  1  0
 12 20  1  0
 12 22  1  0
 13 19  1  0
 13 15  1  0
 14 20  1  0
 15 16  2  0
 15 14  1  0
 17 11  2  0
 18 17  1  0
 18 13  2  0
 19 12  1  0
 20 10  1  0
 22 24  2  0
 23 22  1  0
 25 23  1  0
 26 35  2  0
 26 31  1  0
 27 23  1  0
 27 31  1  0
 28 27  1  0
 29 30  1  0
 29 28  1  0
 30 26  1  0
 31 32  2  0
 32 33  1  0
 34 33  2  0
 35 34  1  0
 36 10  1  0
 36 37  1  0
 36 46  1  0
 37 40  1  0
 38 42  1  0
 38 37  1  0
 39 38  2  0
 42 41  1  0
 44 42  1  0
 44 45  1  0
 44 43  1  0
 46 49  1  1
 46 47  1  0
 48 46  1  0
 50 51  2  0
 51 52  1  0
 53 50  1  0
 54 60  1  0
 54 62  1  0
 55 60  1  0
 56 57  1  0
 56 55  1  0
 58 57  1  0
 58 67  1  0
 58 59  1  0
 60 59  1  0
 61 54  2  0
 62 53  2  0
 62 63  1  0
 64 65  2  0
 65 84  1  0
 66 65  1  0
 66 69  1  0
 67 68  1  0
 67 64  1  0
 68 66  2  0
 69 70  1  0
 70 71  2  0
 72 75  1  0
 72 71  1  0
 73 72  2  0
 74 73  1  0
 74 69  2  0
 75 76  1  0
 76 81  2  0
 76 77  1  0
 77 78  2  0
 78 79  1  0
 79 83  1  0
 80 79  2  0
 81 80  1  0
 82 81  1  0
 84 85  1  0
 85 88  1  0
 85 87  1  0
 86 84  2  0
 89 64  1  0
 89 90  1  0
 91 89  1  0
 93 92  1  0
 93 53  1  0
 94 95  1  0
 95 93  1  0
M  ISO  4   8 101   9 101  54 100  62 100
M  END
>  <TORSDO>  (65) 
F 21

>  <SCORE>  (65) 
-13.104

>  <name>  (65) 
64

>  <ligand_id>  (65) 
64

>  <original_smiles>  (65) 
[H]N=C(C([H])(c1c([H])c([H])c(Oc2c([H])c([H])c3c(c2[H])C([H])([H])N(C(=O)C([H])(N([H])C(=O)C([H])(N([H])C([H])([H])[H])C([H])([H])[H])C(C([H])([H])[H])(C([H])([H])[H])C([H])([H])[H])C([H])(C(=O)N([H])C2([H])c4c([H])c([H])c([H])c([H])c4C([H])([H])C([H])([H])C2([H])[H])C3([H])[H])c([H])c1[H])C([H])([H])[H])C([H])(N([H])C(=O)N1C([H])([H])C([H])([H])C([H])([H])C([H])(n2nc(-c3c([H])c([H])c(Oc4c([H])c([H])c(F)c([H])c4F)c([H])c3[H])c(C(=O)N([H])[H])c2N([H])[H])C1([H])[H])C([H])(C([H])([H])[H])C([H])([H])C([H])([H])[H]

>  <smiles>  (65) 
[H]N=C(C([H])(c1c([H])c([H])c(Oc2c([H])c([H])c3c(c2[H])C([H])([H])N(C(=O)C([H])(N([H])C(=O)C([H])(N([H])C([H])([H])[H])C([H])([H])[H])C(C([H])([H])[H])(C([H])([H])[H])C([H])([H])[H])C([H])(C(=O)N([H])C2([H])c4c([H])c([H])c([H])c([H])c4C([H])([H])C([H])([H])C2([H])[H])C3([H])[H])c([H])c1[H])C([H])([H])[H])C([H])(N([H])C(=O)N1C([H])([H])C([H])([H])C([H])([H])C([H])(n2nc(-c3c([H])c([H])c(Oc4c([H])c([H])c(F)c([H])c4F)c([H])c3[H])c(C(=O)N([H])[H])c2N([H])[H])C1([H])[H])C([H])(C([H])([H])[H])C([H])([H])C([H])([H])[H]

$$$$
65:0:0
     RDKit          3D

 96104  0  0  1  0  0  0  0  0999 V2000
  -29.4220  -22.0420   20.2760 C   0  0  0  0  0  0  0  0  0  0  0  0
  -28.8730  -22.3880   18.3130 C   0  0  0  0  0  2  0  0  0  0  0  0
  -29.9620  -21.5100   18.9380 C   0  0  0  0  0  3  0  0  0  0  0  0
  -28.7080  -23.0240   19.6340 N   0  0  0  0  0  0  0  0  0  0  0  0
  -29.5520  -21.7880   21.4590 O   0  0  0  0  0  0  0  0  0  0  0  0
  -30.7810  -19.2020   19.0600 C   0  0  0  0  0  0  0  0  0  0  0  0
  -29.7950  -20.0630   18.7710 N   0  0  0  0  0  0  0  0  0  0  0  0
  -31.9130  -19.5940   19.3530 O   0  0  0  0  0  0  0  0  0  0  0  0
  -28.8860  -19.7100   18.5020 H   0  0  0  0  0  0  0  0  0  0  0  0
  -30.4710  -17.6970   19.0420 C   0  0  0  0  0  2  0  0  0  0  0  0
  -30.8610  -16.9550   20.3580 C   0  0  0  0  0  3  0  0  0  0  0  0
  -31.2410  -14.4980   19.9660 C   0  0  0  0  0  0  0  0  0  0  0  0
  -30.8950  -12.2910   18.9560 C   0  0  0  0  0  2  0  0  0  0  0  0
  -29.9390  -12.4730   17.7590 C   0  0  0  0  0  2  0  0  0  0  0  0
  -28.4720  -12.4150   18.2280 C   0  0  0  0  0  2  0  0  0  0  0  0
  -28.1790  -13.3230   19.4520 C   0  0  0  0  0  3  0  0  0  0  0  0
  -29.2420  -13.0870   20.5490 C   0  0  0  0  0  2  0  0  0  0  0  0
  -30.5620  -13.3240   19.9420 N   0  0  0  0  0  0  0  0  0  0  0  0
  -32.3880  -14.6410   19.5350 O   0  0  0  0  0  0  0  0  0  0  0  0
  -30.4820  -15.5420   20.3200 N   0  0  0  0  0  0  0  0  0  0  0  0
  -29.5420  -15.3280   20.6160 H   0  0  0  0  0  0  0  0  0  0  0  0
  -25.8150  -14.0510   20.1670 C   0  0  0  0  0  0  0  0  0  0  0  0
  -24.7220  -13.3320   20.5710 C   0  0  0  0  0  0  0  0  0  0  0  0
  -25.1250  -11.9610   20.5630 C   0  0  0  0  0  0  0  0  0  0  0  0
  -26.8200  -13.1220   19.9490 N   0  0  0  0  0  0  0  0  0  0  0  0
  -26.4080  -11.8610   20.2410 N   0  0  0  0  0  0  0  0  0  0  0  0
  -24.3540  -10.7330   20.7900 C   0  0  0  0  0  0  0  0  0  0  0  0
  -24.7300   -9.7980   21.7800 C   0  0  0  0  0  3  0  0  0  0  0  0
  -23.9620   -8.6350   21.9930 C   0  0  0  0  0  3  0  0  0  0  0  0
  -22.8050   -8.3970   21.2150 C   0  0  0  0  0  0  0  0  0  0  0  0
  -22.4480   -9.3190   20.2150 C   0  0  0  0  0  3  0  0  0  0  0  0
  -23.2170  -10.4750   20.0010 C   0  0  0  0  0  3  0  0  0  0  0  0
  -22.0180   -7.2790   21.3340 O   0  0  0  0  0  0  0  0  0  0  0  0
  -21.8600   -6.6300   22.5350 C   0  0  0  0  0  0  0  0  0  0  0  0
  -21.3820   -7.2980   23.6830 C   0  0  0  0  0  3  0  0  0  0  0  0
  -21.1690   -6.5820   24.8770 C   0  0  0  0  0  3  0  0  0  0  0  0
  -21.4270   -5.1980   24.9250 C   0  0  0  0  0  0  0  0  0  0  0  0
  -21.8990   -4.5300   23.7800 C   0  0  0  0  0  3  0  0  0  0  0  0
  -22.1130   -5.2450   22.5880 C   0  0  0  0  0  0  0  0  0  0  0  0
  -22.5510   -4.5930   21.4850 F   0  0  0  0  0  0  0  0  0  0  0  0
  -21.2120   -4.5090   26.0680 F   0  0  0  0  0  0  0  0  0  0  0  0
  -23.3490  -13.8750   20.8530 C   0  0  0  0  0  0  0  0  0  0  0  0
  -22.6160  -13.2460   21.7630 N   0  0  0  0  0  0  0  0  0  0  0  0
  -22.9360  -14.8890   20.2950 O   0  0  0  0  0  0  0  0  0  0  0  0
  -22.9610  -12.4270   22.2400 H   0  0  0  0  0  0  0  0  0  0  0  0
  -21.7010  -13.6010   22.0000 H   0  0  0  0  0  0  0  0  0  0  0  0
  -26.0300  -15.4090   19.9470 N   0  0  0  0  0  0  0  0  0  0  0  0
  -25.2820  -16.0900   20.0400 H   0  0  0  0  0  0  0  0  0  0  0  0
  -26.8650  -15.7930   19.5280 H   0  0  0  0  0  0  0  0  0  0  0  0
  -28.7290  -17.4530   21.7180 C   0  0  0  0  0  1  0  0  0  0  0  0
  -30.2660  -17.5800   21.6490 C   0  0  0  0  0  3  0  0  0  0  0  0
  -30.9230  -17.8510   24.1340 C   0  0  0  0  0  1  0  0  0  0  0  0
  -30.9250  -16.9500   22.8950 C   0  0  0  0  0  2  0  0  0  0  0  0
  -28.0520  -24.2370   20.1240 C   0  0  0  0  0  2  0  0  0  0  0  0
  -28.5400  -25.4890   19.3640 C   0  0  0  0  0  2  0  0  0  0  0  0
  -28.3980  -26.7040   20.1080 O   0  0  0  0  0  0  0  0  0  0  0  0
  -24.7760  -31.8630   23.3620 C   0  0  0  0  0  0  0  0  0  0  0  0
  -27.2220  -27.4260   20.1080 C   0  0  0  0  0  0  0  0  0  0  0  0
  -23.5030  -30.5810   21.6680 C   0  0  0  0  0  3  0  0  0  0  0  0
  -24.8840  -29.0250   20.1830 C   0  0  0  0  0  0  0  0  0  0  0  0
  -26.0370  -30.8270   21.4800 C   0  0  0  0  0  2  0  0  0  0  0  0
  -26.0580  -29.4720   20.8010 C   0  0  0  0  0  0  0  0  0  0  0  0
  -27.2200  -28.6710   20.7730 C   0  0  0  0  0  3  0  0  0  0  0  0
  -26.0350  -26.9930   19.4760 C   0  0  0  0  0  3  0  0  0  0  0  0
  -24.8690  -27.7850   19.5160 C   0  0  0  0  0  3  0  0  0  0  0  0
  -23.6760  -29.9320   20.2650 C   0  0  0  0  0  2  0  0  0  0  0  0
  -24.7910  -31.1040   22.2310 N   0  0  0  0  0  0  0  0  0  0  0  0
  -23.7090  -32.1690   23.9150 O   0  0  0  0  0  0  0  0  0  0  0  0
  -22.7990  -29.5660   22.5980 C   0  0  0  0  0  0  0  0  0  0  0  0
  -21.4720  -29.4360   22.4490 N   0  0  0  0  0  0  0  0  0  0  0  0
  -23.4500  -28.8920   23.4020 O   0  0  0  0  0  0  0  0  0  0  0  0
  -21.0110  -30.0290   21.7720 H   0  0  0  0  0  0  0  0  0  0  0  0
  -18.0530  -28.3450   22.8550 C   0  0  0  0  0  0  0  0  0  0  0  0
  -20.6100  -28.5090   23.1840 C   0  0  0  0  0  3  0  0  0  0  0  0
  -20.6780  -27.0890   22.5760 C   0  0  0  0  0  2  0  0  0  0  0  0
  -19.5870  -26.8290   21.5330 C   0  0  0  0  0  2  0  0  0  0  0  0
  -18.1980  -27.0060   22.1510 C   0  0  0  0  0  2  0  0  0  0  0  0
  -19.1860  -29.0590   23.3260 C   0  0  0  0  0  0  0  0  0  0  0  0
  -18.9990  -30.3160   23.9390 C   0  0  0  0  0  3  0  0  0  0  0  0
  -17.7100  -30.8590   24.0900 C   0  0  0  0  0  3  0  0  0  0  0  0
  -16.5890  -30.1420   23.6380 C   0  0  0  0  0  3  0  0  0  0  0  0
  -16.7600  -28.8870   23.0250 C   0  0  0  0  0  3  0  0  0  0  0  0
  -26.0930  -32.4050   24.0020 C   0  0  0  0  0  3  0  0  0  0  0  0
  -25.8370  -33.7820   24.4430 N   0  0  0  0  0  0  0  0  0  0  0  0
  -26.2080  -34.8770   23.7650 C   0  0  0  0  0  0  0  0  0  0  0  0
  -26.8700  -34.8290   22.7250 O   0  0  0  0  0  0  0  0  0  0  0  0
  -25.2540  -33.8980   25.2580 H   0  0  0  0  0  0  0  0  0  0  0  0
  -24.5570  -36.7600   23.5490 C   0  0  0  0  0  1  0  0  0  0  0  0
  -25.7740  -36.2430   24.3310 C   0  0  0  0  0  3  0  0  0  0  0  0
  -27.9390  -36.9670   25.2340 C   0  0  0  0  0  1  0  0  0  0  0  0
  -26.8500  -37.2580   24.3070 N   0  0  0  0  0  0  0  0  0  0  0  0
  -26.4810  -38.1790   24.5280 H   0  0  0  0  0  0  0  0  0  0  0  0
  -26.6120  -31.5210   25.2010 C   0  0  1  0  0  0  0  0  0  0  0  0
  -25.5300  -31.2160   26.2620 C   0  0  0  0  0  1  0  0  0  0  0  0
  -27.1630  -30.1720   24.6840 C   0  0  0  0  0  1  0  0  0  0  0  0
  -27.7870  -32.2370   25.9060 C   0  0  0  0  0  1  0  0  0  0  0  0
  1  5  2  0
  2  3  1  0
  2  4  1  0
  3  7  1  0
  3  1  1  0
  4 54  1  0
  4  1  1  0
  6  8  2  0
  7  6  1  0
  9  7  1  0
 10  6  1  0
 11 10  1  0
 11 51  1  0
 12 20  1  0
 13 18  1  0
 14 15  1  0
 14 13  1  0
 16 15  1  0
 16 25  1  0
 16 17  1  0
 18 12  1  0
 18 17  1  0
 19 12  2  0
 20 11  1  0
 20 21  1  0
 22 23  2  0
 23 42  1  0
 24 23  1  0
 24 27  1  0
 25 22  1  0
 25 26  1  0
 26 24  2  0
 27 28  1  0
 28 29  2  0
 30 33  1  0
 30 29  1  0
 31 30  2  0
 32 31  1  0
 32 27  2  0
 33 34  1  0
 34 39  2  0
 34 35  1  0
 35 36  2  0
 36 37  1  0
 37 41  1  0
 38 37  2  0
 39 38  1  0
 40 39  1  0
 42 43  1  0
 43 46  1  0
 43 45  1  0
 44 42  2  0
 47 48  1  0
 47 22  1  0
 49 47  1  0
 51 50  1  0
 51 53  1  0
 53 52  1  0
 55 56  1  0
 55 54  1  0
 57 68  2  0
 58 56  1  0
 58 63  1  0
 59 67  1  0
 59 69  1  0
 60 66  1  0
 60 62  1  0
 61 67  1  0
 62 61  1  0
 63 62  2  0
 64 65  1  0
 64 58  2  0
 65 60  2  0
 66 59  1  0
 67 57  1  0
 69 71  2  0
 70 69  1  0
 72 70  1  0
 73 82  2  0
 73 78  1  0
 74 70  1  0
 74 78  1  0
 75 74  1  0
 76 77  1  0
 76 75  1  0
 77 73  1  0
 78 79  2  0
 79 80  1  0
 81 80  2  0
 82 81  1  0
 83 57  1  0
 83 84  1  0
 83 93  1  0
 84 87  1  0
 85 89  1  0
 85 84  1  0
 86 85  2  0
 89 88  1  0
 91 89  1  0
 91 92  1  0
 91 90  1  0
 93 96  1  1
 93 94  1  0
 95 93  1  0
M  ISO  4  12 100  20 100  55 101  56 101
M  END
>  <TORSDO>  (66) 
F 23

>  <SCORE>  (66) 
-9.897

>  <name>  (66) 
65

>  <ligand_id>  (66) 
65

>  <original_smiles>  (66) 
[H]c1c([H])c([H])c2c(c1[H])C([H])([H])C([H])([H])C([H])([H])C2([H])N([H])C(=O)C1([H])N(C(=O)C([H])(N([H])C(=O)C([H])(N([H])C([H])([H])[H])C([H])([H])[H])C(C([H])([H])[H])(C([H])([H])[H])C([H])([H])[H])C([H])([H])c2c([H])c(OC([H])([H])C([H])([H])N3C(=O)C([H])(N([H])C(=O)C([H])([H])C([H])(N([H])C(=O)N4C([H])([H])C([H])([H])C([H])([H])C([H])(n5nc(-c6c([H])c([H])c(Oc7c([H])c([H])c(F)c([H])c7F)c([H])c6[H])c(C(=O)N([H])[H])c5N([H])[H])C4([H])[H])C([H])(C([H])([H])[H])C([H])([H])C([H])([H])[H])C3([H])[H])c([H])c([H])c2C1([H])[H]

>  <smiles>  (66) 
[H]c1c([H])c([H])c2c(c1[H])C([H])([H])C([H])([H])C([H])([H])C2([H])N([H])C(=O)C1([H])N(C(=O)C([H])(N([H])C(=O)C([H])(N([H])C([H])([H])[H])C([H])([H])[H])C(C([H])([H])[H])(C([H])([H])[H])C([H])([H])[H])C([H])([H])c2c([H])c(OC([H])([H])C([H])([H])N3C(=O)C([H])(N([H])C(=O)C([H])([H])C([H])(N([H])C(=O)N4C([H])([H])C([H])([H])C([H])([H])C([H])(n5nc(-c6c([H])c([H])c(Oc7c([H])c([H])c(F)c([H])c7F)c([H])c6[H])c(C(=O)N([H])[H])c5N([H])[H])C4([H])[H])C([H])(C([H])([H])[H])C([H])([H])C([H])([H])[H])C3([H])[H])c([H])c([H])c2C1([H])[H]

$$$$
66:0:0
     RDKit          3D

104113  0  0  1  0  0  0  0  0999 V2000
  -35.8810  -21.3570   20.3870 C   0  0  0  0  0  2  0  0  0  0  0  0
  -36.4630  -18.9290   21.2310 C   0  0  0  0  0  2  0  0  0  0  0  0
  -35.2000  -18.3020   21.8110 C   0  0  0  0  0  2  0  0  0  0  0  0
  -35.8070  -20.2920   21.4910 C   0  0  0  0  0  3  0  0  0  0  0  0
  -34.5330  -19.5600   21.4790 N   0  0  0  0  0  0  0  0  0  0  0  0
  -33.5990  -19.9600   22.5350 C   0  0  0  0  0  2  0  0  0  0  0  0
  -32.2110  -19.3280   22.3010 C   0  0  0  0  0  2  0  0  0  0  0  0
  -31.0960  -21.1890   20.9780 C   0  0  0  0  0  1  0  0  0  0  0  0
  -31.5440  -19.7110   20.9540 C   0  0  0  0  0  3  0  0  0  0  0  0
  -30.3200  -18.8250   20.5910 C   0  0  0  0  0  2  0  0  0  0  0  0
  -29.1370  -16.8930   19.5540 C   0  0  0  0  0  1  0  0  0  0  0  0
  -31.3900  -17.5040   18.6800 C   0  0  0  0  0  1  0  0  0  0  0  0
  -30.5380  -17.4130   19.9620 C   0  0  1  0  0  0  0  0  0  0  0  0
  -31.2040  -16.4330   20.9680 C   0  0  0  0  0  2  0  0  0  0  0  0
  -31.1330  -14.0970   20.0320 C   0  0  0  0  0  0  0  0  0  0  0  0
  -30.7760  -11.7590   19.3230 C   0  0  0  0  0  2  0  0  0  0  0  0
  -29.8090  -11.6610   18.1290 C   0  0  0  0  0  2  0  0  0  0  0  0
  -28.3460  -11.6210   18.6080 C   0  0  0  0  0  2  0  0  0  0  0  0
  -28.0240  -12.7500   19.6220 C   0  0  0  0  0  3  0  0  0  0  0  0
  -29.0890  -12.7960   20.7390 C   0  0  0  0  0  2  0  0  0  0  0  0
  -30.4200  -12.9450   20.1150 N   0  0  0  0  0  0  0  0  0  0  0  0
  -32.1180  -14.2410   19.3030 O   0  0  0  0  0  0  0  0  0  0  0  0
  -30.7060  -15.0640   20.8520 N   0  0  0  0  0  0  0  0  0  0  0  0
  -29.9190  -14.8250   21.4350 H   0  0  0  0  0  0  0  0  0  0  0  0
  -25.7490  -13.5850   20.5000 C   0  0  0  0  0  0  0  0  0  0  0  0
  -24.6240  -12.9170   20.9030 C   0  0  0  0  0  0  0  0  0  0  0  0
  -24.9270  -11.5260   20.7830 C   0  0  0  0  0  0  0  0  0  0  0  0
  -26.6750  -12.6070   20.1680 N   0  0  0  0  0  0  0  0  0  0  0  0
  -26.1840  -11.3610   20.3920 N   0  0  0  0  0  0  0  0  0  0  0  0
  -24.0750  -10.3430   20.9630 C   0  0  0  0  0  0  0  0  0  0  0  0
  -24.4320   -9.3050   21.8520 C   0  0  0  0  0  3  0  0  0  0  0  0
  -23.5890   -8.1860   22.0220 C   0  0  0  0  0  3  0  0  0  0  0  0
  -22.3740   -8.0970   21.3030 C   0  0  0  0  0  0  0  0  0  0  0  0
  -22.0350   -9.1220   20.4020 C   0  0  0  0  0  3  0  0  0  0  0  0
  -22.8770  -10.2340   20.2300 C   0  0  0  0  0  3  0  0  0  0  0  0
  -21.5050   -7.0360   21.3830 O   0  0  0  0  0  0  0  0  0  0  0  0
  -21.4000   -6.2780   22.5220 C   0  0  0  0  0  0  0  0  0  0  0  0
  -21.0490   -6.8450   23.7660 C   0  0  0  0  0  3  0  0  0  0  0  0
  -20.8840   -6.0190   24.8960 C   0  0  0  0  0  3  0  0  0  0  0  0
  -21.0590   -4.6270   24.7820 C   0  0  0  0  0  0  0  0  0  0  0  0
  -21.4040   -4.0590   23.5430 C   0  0  0  0  0  3  0  0  0  0  0  0
  -21.5700   -4.8820   22.4150 C   0  0  0  0  0  0  0  0  0  0  0  0
  -21.8810   -4.3280   21.2180 F   0  0  0  0  0  0  0  0  0  0  0  0
  -20.8940   -3.8320   25.8640 F   0  0  0  0  0  0  0  0  0  0  0  0
  -23.3070  -13.5290   21.2860 C   0  0  0  0  0  0  0  0  0  0  0  0
  -22.5640  -12.8790   22.1740 N   0  0  0  0  0  0  0  0  0  0  0  0
  -22.9520  -14.6170   20.8330 O   0  0  0  0  0  0  0  0  0  0  0  0
  -22.8640  -11.9980   22.5610 H   0  0  0  0  0  0  0  0  0  0  0  0
  -21.6810  -13.2710   22.4720 H   0  0  0  0  0  0  0  0  0  0  0  0
  -26.0560  -14.9360   20.3730 N   0  0  0  0  0  0  0  0  0  0  0  0
  -25.3780  -15.6660   20.5630 H   0  0  0  0  0  0  0  0  0  0  0  0
  -26.9370  -15.2940   20.0250 H   0  0  0  0  0  0  0  0  0  0  0  0
  -35.2220  -22.6210   20.7730 N   0  0  0  0  0  4  0  0  0  0  0  0
  -34.4370  -22.3630   21.3450 H   0  0  0  0  0  0  0  0  0  0  0  0
  -35.8500  -23.1760   21.3280 H   0  0  0  0  0  0  0  0  0  0  0  0
  -35.3190  -24.7380   19.3290 C   0  0  0  0  0  2  0  0  0  0  0  0
  -34.0000  -24.6640   20.0690 C   0  0  0  0  0  3  0  0  0  0  0  0
  -34.6940  -23.3930   19.6260 C   0  0  0  0  0  3  0  0  0  0  0  0
  -32.7450  -24.9210   19.3860 N   0  0  0  0  0  0  0  0  0  0  0  0
  -32.8810  -24.9290   18.3760 H   0  0  0  0  0  0  0  0  0  0  0  0
  -32.1140  -26.1660   19.8020 C   0  0  0  0  0  2  0  0  0  0  0  0
  -30.6520  -26.1020   19.3310 C   0  0  0  0  0  2  0  0  0  0  0  0
  -29.7350  -27.2590   19.7650 C   0  0  0  0  0  2  0  0  0  0  0  0
  -28.4790  -26.8670   19.2350 O   0  0  0  0  0  0  0  0  0  0  0  0
  -24.6100  -31.6350   22.9620 C   0  0  0  0  0  0  0  0  0  0  0  0
  -27.3390  -27.6030   19.4440 C   0  0  0  0  0  0  0  0  0  0  0  0
  -23.4040  -30.3070   21.2600 C   0  0  0  0  0  3  0  0  0  0  0  0
  -24.8730  -28.9550   19.6730 C   0  0  0  0  0  0  0  0  0  0  0  0
  -25.8960  -30.8100   20.9970 C   0  0  0  0  0  2  0  0  0  0  0  0
  -26.0260  -29.4940   20.2600 C   0  0  0  0  0  0  0  0  0  0  0  0
  -27.2650  -28.8230   20.1550 C   0  0  0  0  0  3  0  0  0  0  0  0
  -26.1690  -27.0720   18.8680 C   0  0  0  0  0  3  0  0  0  0  0  0
  -24.9340  -27.7350   18.9800 C   0  0  0  0  0  3  0  0  0  0  0  0
  -23.5910  -29.7420   19.8260 C   0  0  0  0  0  2  0  0  0  0  0  0
  -24.6570  -30.9260   21.7990 N   0  0  0  0  0  0  0  0  0  0  0  0
  -23.5400  -31.8120   23.5620 O   0  0  0  0  0  0  0  0  0  0  0  0
  -22.8380  -29.1850   22.1600 C   0  0  0  0  0  0  0  0  0  0  0  0
  -21.5160  -28.9670   22.0840 N   0  0  0  0  0  0  0  0  0  0  0  0
  -23.5850  -28.5150   22.8800 O   0  0  0  0  0  0  0  0  0  0  0  0
  -20.9720  -29.5670   21.4790 H   0  0  0  0  0  0  0  0  0  0  0  0
  -18.2110  -27.6150   22.6390 C   0  0  0  0  0  0  0  0  0  0  0  0
  -20.7700  -27.9390   22.8100 C   0  0  0  0  0  3  0  0  0  0  0  0
  -20.8890  -26.5660   22.1100 C   0  0  0  0  0  2  0  0  0  0  0  0
  -19.7480  -26.2910   21.1250 C   0  0  0  0  0  2  0  0  0  0  0  0
  -18.3960  -26.3330   21.8450 C   0  0  0  0  0  2  0  0  0  0  0  0
  -19.3260  -28.3770   23.0780 C   0  0  0  0  0  0  0  0  0  0  0  0
  -19.0970  -29.5800   23.7810 C   0  0  0  0  0  3  0  0  0  0  0  0
  -17.7880  -30.0200   24.0510 C   0  0  0  0  0  3  0  0  0  0  0  0
  -16.6890  -29.2540   23.6270 C   0  0  0  0  0  3  0  0  0  0  0  0
  -16.9010  -28.0540   22.9250 C   0  0  0  0  0  3  0  0  0  0  0  0
  -25.8910  -32.2750   23.5830 C   0  0  0  0  0  3  0  0  0  0  0  0
  -25.5380  -33.6310   24.0260 N   0  0  0  0  0  0  0  0  0  0  0  0
  -25.8190  -34.7480   23.3430 C   0  0  0  0  0  0  0  0  0  0  0  0
  -26.4720  -34.7500   22.2960 O   0  0  0  0  0  0  0  0  0  0  0  0
  -24.9570  -33.7010   24.8470 H   0  0  0  0  0  0  0  0  0  0  0  0
  -24.0180  -36.4920   23.1530 C   0  0  0  0  0  1  0  0  0  0  0  0
  -25.2900  -36.0780   23.9120 C   0  0  0  0  0  3  0  0  0  0  0  0
  -27.4040  -36.9820   24.7710 C   0  0  0  0  0  1  0  0  0  0  0  0
  -26.2790  -37.1760   23.8600 N   0  0  0  0  0  0  0  0  0  0  0  0
  -25.8420  -38.0660   24.0830 H   0  0  0  0  0  0  0  0  0  0  0  0
  -26.4910  -31.4350   24.7750 C   0  0  1  0  0  0  0  0  0  0  0  0
  -25.4560  -31.0770   25.8660 C   0  0  0  0  0  1  0  0  0  0  0  0
  -27.1080  -30.1160   24.2520 C   0  0  0  0  0  1  0  0  0  0  0  0
  -27.6400  -32.2240   25.4460 C   0  0  0  0  0  1  0  0  0  0  0  0
  1 53  1  0
  2  4  1  0
  2  3  1  0
  4  1  1  0
  5  4  1  0
  5  3  1  0
  5  6  1  0
  7  6  1  0
  9  8  1  0
  9  7  1  0
 10  9  1  0
 13 11  1  6
 12 13  1  0
 13 10  1  0
 13 14  1  0
 15 21  1  0
 15 23  1  0
 16 21  1  0
 17 18  1  0
 17 16  1  0
 19 18  1  0
 19 28  1  0
 19 20  1  0
 21 20  1  0
 22 15  2  0
 23 14  1  0
 23 24  1  0
 25 26  2  0
 26 45  1  0
 27 26  1  0
 27 30  1  0
 28 29  1  0
 28 25  1  0
 29 27  2  0
 30 31  1  0
 31 32  2  0
 33 36  1  0
 33 32  1  0
 34 33  2  0
 35 34  1  0
 35 30  2  0
 36 37  1  0
 37 38  1  0
 38 39  2  0
 40 39  1  0
 40 44  1  0
 41 40  2  0
 42 37  2  0
 42 41  1  0
 43 42  1  0
 45 46  1  0
 46 49  1  0
 46 48  1  0
 47 45  2  0
 50 25  1  0
 50 51  1  0
 52 50  1  0
 53 55  1  0
 53 54  1  0
 56 58  1  0
 56 57  1  0
 57 59  1  0
 58 57  1  0
 58 53  1  0
 59 61  1  0
 60 59  1  0
 62 63  1  0
 62 61  1  0
 64 66  1  0
 64 63  1  0
 65 76  2  0
 66 71  1  0
 67 75  1  0
 67 77  1  0
 68 74  1  0
 68 70  1  0
 69 75  1  0
 70 69  1  0
 71 70  2  0
 72 73  1  0
 72 66  2  0
 73 68  2  0
 74 67  1  0
 75 65  1  0
 77 79  2  0
 78 77  1  0
 80 78  1  0
 81 90  2  0
 81 86  1  0
 82 78  1  0
 82 86  1  0
 83 82  1  0
 84 85  1  0
 84 83  1  0
 85 81  1  0
 86 87  2  0
 87 88  1  0
 89 88  2  0
 90 89  1  0
 91 65  1  0
 91 92  1  0
 91101  1  0
 92 95  1  0
 93 97  1  0
 93 92  1  0
 94 93  2  0
 97 96  1  0
 99 97  1  0
 99100  1  0
 99 98  1  0
101104  1  1
101102  1  0
103101  1  0
M  ISO  4  15 100  23 100  63 101  64 101
M  END
>  <TORSDO>  (67) 
F 29

>  <SCORE>  (67) 
-9.189

>  <name>  (67) 
66

>  <ligand_id>  (67) 
66

>  <original_smiles>  (67) 
[H]c1c([H])c([H])c2c(c1[H])C([H])([H])C([H])([H])C([H])([H])C2([H])N([H])C(=O)C1([H])N(C(=O)C([H])(N([H])C(=O)C([H])(N([H])C([H])([H])[H])C([H])([H])[H])C(C([H])([H])[H])(C([H])([H])[H])C([H])([H])[H])C([H])([H])c2c([H])c(OC([H])([H])C([H])([H])C([H])([H])N([H])C3([H])C([H])([H])C3([H])[N+]([H])([H])C([H])([H])C3([H])N(C([H])([H])C([H])([H])C([H])(C([H])([H])[H])C([H])([H])C(C([H])([H])[H])(C([H])([H])[H])C([H])([H])N([H])C(=O)N4C([H])([H])C([H])([H])C([H])([H])C([H])(n5nc(-c6c([H])c([H])c(Oc7c([H])c([H])c(F)c([H])c7F)c([H])c6[H])c(C(=O)N([H])[H])c5N([H])[H])C4([H])[H])C([H])([H])C3([H])[H])c([H])c([H])c2C1([H])[H]

>  <smiles>  (67) 
[H]c1c([H])c([H])c2c(c1[H])C([H])([H])C([H])([H])C([H])([H])C2([H])N([H])C(=O)C1([H])N(C(=O)C([H])(N([H])C(=O)C([H])(N([H])C([H])([H])[H])C([H])([H])[H])C(C([H])([H])[H])(C([H])([H])[H])C([H])([H])[H])C([H])([H])c2c([H])c(OC([H])([H])C([H])([H])C([H])([H])N([H])C3([H])C([H])([H])C3([H])[N+]([H])([H])C([H])([H])C3([H])N(C([H])([H])C([H])([H])C([H])(C([H])([H])[H])C([H])([H])C(C([H])([H])[H])(C([H])([H])[H])C([H])([H])N([H])C(=O)N4C([H])([H])C([H])([H])C([H])([H])C([H])(n5nc(-c6c([H])c([H])c(Oc7c([H])c([H])c(F)c([H])c7F)c([H])c6[H])c(C(=O)N([H])[H])c5N([H])[H])C4([H])[H])C([H])([H])C3([H])[H])c([H])c([H])c2C1([H])[H]

$$$$
67:0:0
     RDKit          3D

 95103  0  0  1  0  0  0  0  0999 V2000
  -28.2850  -23.3180   22.2450 C   0  0  0  0  0  2  0  0  0  0  0  0
  -29.5740  -24.0220   21.9620 C   0  0  0  0  0  3  0  0  0  0  0  0
  -28.7920  -23.4020   20.8030 C   0  0  1  0  0  0  0  0  0  0  0  0
  -30.8020  -23.3170   22.3810 N   0  0  0  0  0  4  0  0  0  0  0  0
  -30.7080  -22.3230   22.3230 H   0  0  0  0  0  0  0  0  0  0  0  0
  -31.0470  -23.5660   23.3240 H   0  0  0  0  0  0  0  0  0  0  0  0
  -31.5650  -23.6000   21.7950 H   0  0  0  0  0  0  0  0  0  0  0  0
  -29.2640  -21.9320   20.2100 C   0  0  0  0  0  3  0  0  0  0  0  0
  -29.3030  -20.5900   20.7070 C   0  0  0  0  0  3  0  0  0  0  0  0
  -29.9310  -19.1260   20.1980 C   0  0  0  0  0  3  0  0  0  0  0  0
  -30.2900  -19.2130   18.7750 N   0  0  0  0  0  4  0  0  0  0  0  0
  -29.4640  -19.2700   18.2100 H   0  0  0  0  0  0  0  0  0  0  0  0
  -30.8180  -18.4090   18.4850 H   0  0  0  0  0  0  0  0  0  0  0  0
  -30.8640  -20.0240   18.6230 H   0  0  0  0  0  0  0  0  0  0  0  0
  -29.1780  -17.6560   20.5250 C   0  0  0  0  0  2  0  0  0  0  0  0
  -30.4390  -15.0160   20.2300 C   0  0  0  0  0  0  0  0  0  0  0  0
  -30.3770  -12.6570   19.2770 C   0  0  0  0  0  2  0  0  0  0  0  0
  -29.4240  -12.6150   18.0580 C   0  0  0  0  0  2  0  0  0  0  0  0
  -27.9580  -12.4030   18.4940 C   0  0  0  0  0  2  0  0  0  0  0  0
  -27.5670  -13.3020   19.6950 C   0  0  0  0  0  3  0  0  0  0  0  0
  -28.6380  -13.2850   20.8090 C   0  0  0  0  0  2  0  0  0  0  0  0
  -29.9080  -13.7240   20.2060 N   0  0  0  0  0  0  0  0  0  0  0  0
  -31.6100  -15.1710   19.8650 O   0  0  0  0  0  0  0  0  0  0  0  0
  -29.5430  -16.0900   20.4960 N   0  0  0  0  0  0  0  0  0  0  0  0
  -28.7060  -15.6150   20.8010 H   0  0  0  0  0  0  0  0  0  0  0  0
  -25.1900  -13.8810   20.4560 C   0  0  0  0  0  0  0  0  0  0  0  0
  -24.1330  -13.1030   20.8420 C   0  0  0  0  0  0  0  0  0  0  0  0
  -24.6020  -11.7520   20.8110 C   0  0  0  0  0  0  0  0  0  0  0  0
  -26.2320  -13.0020   20.2030 N   0  0  0  0  0  0  0  0  0  0  0  0
  -25.8890  -11.7180   20.4830 N   0  0  0  0  0  0  0  0  0  0  0  0
  -23.8750  -10.4880   21.0080 C   0  0  0  0  0  0  0  0  0  0  0  0
  -24.3190   -9.5250   21.9380 C   0  0  0  0  0  3  0  0  0  0  0  0
  -23.6030   -8.3250   22.1250 C   0  0  0  0  0  3  0  0  0  0  0  0
  -22.4250   -8.0830   21.3800 C   0  0  0  0  0  0  0  0  0  0  0  0
  -21.9990   -9.0340   20.4350 C   0  0  0  0  0  3  0  0  0  0  0  0
  -22.7180  -10.2260   20.2480 C   0  0  0  0  0  3  0  0  0  0  0  0
  -21.6670   -6.9390   21.4820 O   0  0  0  0  0  0  0  0  0  0  0  0
  -21.6290   -6.1990   22.6340 C   0  0  0  0  0  0  0  0  0  0  0  0
  -21.2060   -6.7510   23.8630 C   0  0  0  0  0  3  0  0  0  0  0  0
  -21.1170   -5.9380   25.0090 C   0  0  0  0  0  3  0  0  0  0  0  0
  -21.4370   -4.5690   24.9300 C   0  0  0  0  0  0  0  0  0  0  0  0
  -21.8500   -4.0120   23.7050 C   0  0  0  0  0  3  0  0  0  0  0  0
  -21.9430   -4.8260   22.5620 C   0  0  0  0  0  0  0  0  0  0  0  0
  -22.3200   -4.2770   21.3810 F   0  0  0  0  0  0  0  0  0  0  0  0
  -21.3440   -3.7860   26.0300 F   0  0  0  0  0  0  0  0  0  0  0  0
  -22.7360  -13.5730   21.1290 C   0  0  0  0  0  0  0  0  0  0  0  0
  -22.0150  -12.8760   22.0010 N   0  0  0  0  0  0  0  0  0  0  0  0
  -22.2870  -14.5900   20.6080 O   0  0  0  0  0  0  0  0  0  0  0  0
  -22.3890  -12.0530   22.4520 H   0  0  0  0  0  0  0  0  0  0  0  0
  -21.0730  -13.1680   22.2210 H   0  0  0  0  0  0  0  0  0  0  0  0
  -25.3440  -15.2550   20.2810 N   0  0  0  0  0  0  0  0  0  0  0  0
  -24.5740  -15.9000   20.4070 H   0  0  0  0  0  0  0  0  0  0  0  0
  -26.1640  -15.6990   19.8940 H   0  0  0  0  0  0  0  0  0  0  0  0
  -28.1440  -24.6610   19.9200 C   0  0  0  0  0  2  0  0  0  0  0  0
  -28.2390  -26.1930   20.2590 O   0  0  0  0  0  0  0  0  0  0  0  0
  -24.6350  -31.8830   23.2420 C   0  0  0  0  0  0  0  0  0  0  0  0
  -27.1680  -27.1620   20.1750 C   0  0  0  0  0  0  0  0  0  0  0  0
  -23.4150  -30.4930   21.6100 C   0  0  0  0  0  3  0  0  0  0  0  0
  -24.8430  -28.9160   20.1680 C   0  0  0  0  0  0  0  0  0  0  0  0
  -25.9650  -30.7490   21.4180 C   0  0  0  0  0  2  0  0  0  0  0  0
  -26.0270  -29.3550   20.7720 C   0  0  0  0  0  0  0  0  0  0  0  0
  -27.1870  -28.4910   20.7600 C   0  0  0  0  0  3  0  0  0  0  0  0
  -25.9640  -26.8300   19.5130 C   0  0  0  0  0  3  0  0  0  0  0  0
  -24.8250  -27.6690   19.5240 C   0  0  0  0  0  3  0  0  0  0  0  0
  -23.6210  -29.8220   20.2260 C   0  0  0  0  0  2  0  0  0  0  0  0
  -24.6940  -31.0680   22.1430 N   0  0  0  0  0  0  0  0  0  0  0  0
  -23.5570  -32.1700   23.7810 O   0  0  0  0  0  0  0  0  0  0  0  0
  -22.7500  -29.4850   22.5790 C   0  0  0  0  0  0  0  0  0  0  0  0
  -21.4210  -29.3130   22.4630 N   0  0  0  0  0  0  0  0  0  0  0  0
  -23.4270  -28.8610   23.4000 O   0  0  0  0  0  0  0  0  0  0  0  0
  -20.9260  -29.8730   21.7830 H   0  0  0  0  0  0  0  0  0  0  0  0
  -18.0460  -28.0950   22.9710 C   0  0  0  0  0  0  0  0  0  0  0  0
  -20.6060  -28.3760   23.2390 C   0  0  0  0  0  3  0  0  0  0  0  0
  -20.7150  -26.9400   22.6740 C   0  0  0  0  0  2  0  0  0  0  0  0
  -19.6150  -26.6030   21.6620 C   0  0  0  0  0  2  0  0  0  0  0  0
  -18.2330  -26.7400   22.3040 C   0  0  0  0  0  2  0  0  0  0  0  0
  -19.1620  -28.8680   23.3950 C   0  0  0  0  0  0  0  0  0  0  0  0
  -18.9300  -30.1330   23.9810 C   0  0  0  0  0  3  0  0  0  0  0  0
  -17.6220  -30.6220   24.1510 C   0  0  0  0  0  3  0  0  0  0  0  0
  -16.5230  -29.8460   23.7430 C   0  0  0  0  0  3  0  0  0  0  0  0
  -16.7380  -28.5850   23.1580 C   0  0  0  0  0  3  0  0  0  0  0  0
  -25.9230  -32.5140   23.8530 C   0  0  0  0  0  3  0  0  0  0  0  0
  -25.6210  -33.9160   24.1900 N   0  0  0  0  0  0  0  0  0  0  0  0
  -25.9450  -34.9730   23.4310 C   0  0  0  0  0  0  0  0  0  0  0  0
  -26.6030  -34.8700   22.3930 O   0  0  0  0  0  0  0  0  0  0  0  0
  -25.0380  -34.0700   24.9990 H   0  0  0  0  0  0  0  0  0  0  0  0
  -24.2180  -36.7800   23.1210 C   0  0  0  0  0  1  0  0  0  0  0  0
  -25.4730  -36.3620   23.9030 C   0  0  0  0  0  3  0  0  0  0  0  0
  -27.6250  -37.2440   24.6970 C   0  0  0  0  0  1  0  0  0  0  0  0
  -26.5050  -37.4120   23.7760 N   0  0  0  0  0  0  0  0  0  0  0  0
  -26.1040  -38.3310   23.9370 H   0  0  0  0  0  0  0  0  0  0  0  0
  -26.4510  -31.7400   25.1260 C   0  0  1  0  0  0  0  0  0  0  0  0
  -25.3730  -31.5130   26.2090 C   0  0  0  0  0  1  0  0  0  0  0  0
  -27.0220  -30.3540   24.7380 C   0  0  0  0  0  1  0  0  0  0  0  0
  -27.6090  -32.5320   25.7800 C   0  0  0  0  0  1  0  0  0  0  0  0
  2  1  1  0
  2  4  1  0
  3 54  1  6
  3  2  1  0
  3  1  1  0
  4  6  1  0
  5  4  1  0
  7  4  1  0
  8  9  2  0
  8  3  1  0
 10 15  1  0
 10  9  1  0
 11 10  1  0
 12 11  1  0
 13 11  1  0
 14 11  1  0
 16 24  1  0
 17 22  1  0
 18 19  1  0
 18 17  1  0
 20 19  1  0
 20 29  1  0
 20 21  1  0
 22 16  1  0
 22 21  1  0
 23 16  2  0
 24 15  1  0
 24 25  1  0
 26 27  2  0
 27 46  1  0
 28 27  1  0
 28 31  1  0
 29 26  1  0
 29 30  1  0
 30 28  2  0
 31 32  1  0
 32 33  2  0
 34 37  1  0
 34 33  1  0
 35 34  2  0
 36 35  1  0
 36 31  2  0
 37 38  1  0
 38 39  1  0
 39 40  2  0
 41 40  1  0
 41 45  1  0
 42 41  2  0
 43 38  2  0
 43 42  1  0
 44 43  1  0
 46 47  1  0
 47 50  1  0
 47 49  1  0
 48 46  2  0
 51 52  1  0
 51 26  1  0
 53 51  1  0
 54 55  1  0
 56 67  2  0
 57 55  1  0
 57 62  1  0
 58 66  1  0
 58 68  1  0
 59 65  1  0
 59 61  1  0
 60 66  1  0
 61 60  1  0
 62 61  2  0
 63 64  1  0
 63 57  2  0
 64 59  2  0
 65 58  1  0
 66 56  1  0
 68 70  2  0
 69 68  1  0
 71 69  1  0
 72 81  2  0
 72 77  1  0
 73 69  1  0
 73 77  1  0
 74 73  1  0
 75 76  1  0
 75 74  1  0
 76 72  1  0
 77 78  2  0
 78 79  1  0
 80 79  2  0
 81 80  1  0
 82 56  1  0
 82 83  1  0
 82 92  1  0
 83 86  1  0
 84 88  1  0
 84 83  1  0
 85 84  2  0
 88 87  1  0
 90 88  1  0
 90 91  1  0
 90 89  1  0
 92 95  1  1
 92 93  1  0
 94 92  1  0
M  ISO  4  16 100  24 100  54 101  55 101
M  END
>  <TORSDO>  (68) 
F 22

>  <SCORE>  (68) 
-13.456

>  <name>  (68) 
67

>  <ligand_id>  (68) 
67

>  <original_smiles>  (68) 
[H]C(=C([H])C([H])(C([H])([H])N([H])C(=O)N1C([H])([H])C([H])([H])C([H])([H])C([H])(n2nc(-c3c([H])c([H])c(Oc4c([H])c([H])c(F)c([H])c4F)c([H])c3[H])c(C(=O)N([H])[H])c2N([H])[H])C1([H])[H])[N+]([H])([H])[H])C1(C([H])([H])Oc2c([H])c([H])c3c(c2[H])C([H])([H])N(C(=O)C([H])(N([H])C(=O)C([H])(N([H])C([H])([H])[H])C([H])([H])[H])C(C([H])([H])[H])(C([H])([H])[H])C([H])([H])[H])C([H])(C(=O)N([H])C2([H])c4c([H])c([H])c([H])c([H])c4C([H])([H])C([H])([H])C2([H])[H])C3([H])[H])C([H])([H])C1([H])[N+]([H])([H])[H]

>  <smiles>  (68) 
[H]C(=C([H])C([H])(C([H])([H])N([H])C(=O)N1C([H])([H])C([H])([H])C([H])([H])C([H])(n2nc(-c3c([H])c([H])c(Oc4c([H])c([H])c(F)c([H])c4F)c([H])c3[H])c(C(=O)N([H])[H])c2N([H])[H])C1([H])[H])[N+]([H])([H])[H])C1(C([H])([H])Oc2c([H])c([H])c3c(c2[H])C([H])([H])N(C(=O)C([H])(N([H])C(=O)C([H])(N([H])C([H])([H])[H])C([H])([H])[H])C(C([H])([H])[H])(C([H])([H])[H])C([H])([H])[H])C([H])(C(=O)N([H])C2([H])c4c([H])c([H])c([H])c([H])c4C([H])([H])C([H])([H])C2([H])[H])C3([H])[H])C([H])([H])C1([H])[N+]([H])([H])[H]

$$$$
68:0:0
     RDKit          3D

 88 96  0  0  1  0  0  0  0  0999 V2000
  -28.5020  -23.3140   18.3260 C   0  0  0  0  0  2  0  0  0  0  0  0
  -29.8840  -23.6890   18.7770 C   0  0  0  0  0  2  0  0  0  0  0  0
  -28.8050  -23.4240   19.8070 C   0  0  2  0  0  0  0  0  0  0  0  0
  -27.4630  -21.6820   21.2080 C   0  0  0  0  0  1  0  0  0  0  0  0
  -28.8510  -21.9620   20.6100 C   0  0  0  0  0  3  0  0  0  0  0  0
  -29.4070  -20.5330   19.9090 C   0  0  0  0  0  2  0  0  0  0  0  0
  -29.4280  -19.0140   20.6280 C   0  0  0  0  0  3  0  0  0  0  0  0
  -30.1410  -17.6410   19.9740 C   0  0  0  0  0  3  0  0  0  0  0  0
  -30.6960  -14.9840   20.2520 C   0  0  0  0  0  0  0  0  0  0  0  0
  -30.5420  -12.6540   19.2980 C   0  0  0  0  0  2  0  0  0  0  0  0
  -29.6190  -12.6900   18.0580 C   0  0  0  0  0  2  0  0  0  0  0  0
  -28.1410  -12.5270   18.4650 C   0  0  0  0  0  2  0  0  0  0  0  0
  -27.7580  -13.4040   19.6850 C   0  0  0  0  0  3  0  0  0  0  0  0
  -28.8090  -13.3380   20.8150 C   0  0  0  0  0  2  0  0  0  0  0  0
  -30.0940  -13.7310   20.2250 N   0  0  0  0  0  0  0  0  0  0  0  0
  -31.8740  -15.0610   19.8940 O   0  0  0  0  0  0  0  0  0  0  0  0
  -29.9290  -16.1560   20.4580 N   0  0  0  0  0  0  0  0  0  0  0  0
  -29.0040  -15.9570   20.8150 H   0  0  0  0  0  0  0  0  0  0  0  0
  -25.3630  -14.0010   20.3690 C   0  0  0  0  0  0  0  0  0  0  0  0
  -24.2920  -13.2360   20.7390 C   0  0  0  0  0  0  0  0  0  0  0  0
  -24.7520  -11.8830   20.7380 C   0  0  0  0  0  0  0  0  0  0  0  0
  -26.4090  -13.1170   20.1620 N   0  0  0  0  0  0  0  0  0  0  0  0
  -26.0490  -11.8380   20.4460 N   0  0  0  0  0  0  0  0  0  0  0  0
  -24.0200  -10.6260   20.9410 C   0  0  0  0  0  0  0  0  0  0  0  0
  -24.4400   -9.6730   21.8960 C   0  0  0  0  0  3  0  0  0  0  0  0
  -23.7100   -8.4800   22.0880 C   0  0  0  0  0  3  0  0  0  0  0  0
  -22.5430   -8.2310   21.3270 C   0  0  0  0  0  0  0  0  0  0  0  0
  -22.1400   -9.1720   20.3630 C   0  0  0  0  0  3  0  0  0  0  0  0
  -22.8710  -10.3560   20.1680 C   0  0  0  0  0  3  0  0  0  0  0  0
  -21.7830   -7.0910   21.4300 O   0  0  0  0  0  0  0  0  0  0  0  0
  -21.7260   -6.3660   22.5940 C   0  0  0  0  0  0  0  0  0  0  0  0
  -21.2980   -6.9440   23.8090 C   0  0  0  0  0  3  0  0  0  0  0  0
  -21.1840   -6.1470   24.9660 C   0  0  0  0  0  3  0  0  0  0  0  0
  -21.4890   -4.7740   24.9090 C   0  0  0  0  0  0  0  0  0  0  0  0
  -21.9100   -4.1950   23.6990 C   0  0  0  0  0  3  0  0  0  0  0  0
  -22.0270   -4.9880   22.5450 C   0  0  0  0  0  0  0  0  0  0  0  0
  -22.4120   -4.4230   21.3750 F   0  0  0  0  0  0  0  0  0  0  0  0
  -21.3750   -4.0070   26.0180 F   0  0  0  0  0  0  0  0  0  0  0  0
  -22.8910  -13.7180   20.9810 C   0  0  0  0  0  0  0  0  0  0  0  0
  -22.1510  -13.0460   21.8540 N   0  0  0  0  0  0  0  0  0  0  0  0
  -22.4630  -14.7320   20.4290 O   0  0  0  0  0  0  0  0  0  0  0  0
  -22.5110  -12.2290   22.3260 H   0  0  0  0  0  0  0  0  0  0  0  0
  -21.2100  -13.3520   22.0540 H   0  0  0  0  0  0  0  0  0  0  0  0
  -25.5300  -15.3690   20.1630 N   0  0  0  0  0  0  0  0  0  0  0  0
  -24.7580  -16.0220   20.2410 H   0  0  0  0  0  0  0  0  0  0  0  0
  -26.3690  -15.7940   19.7900 H   0  0  0  0  0  0  0  0  0  0  0  0
  -28.1830  -24.7900   20.5180 C   0  0  0  0  0  2  0  0  0  0  0  0
  -28.4100  -26.2780   20.1260 O   0  0  0  0  0  0  0  0  0  0  0  0
  -24.7030  -31.8770   23.1760 C   0  0  0  0  0  0  0  0  0  0  0  0
  -27.3380  -27.2330   20.1250 C   0  0  0  0  0  0  0  0  0  0  0  0
  -23.5160  -30.4680   21.5370 C   0  0  0  0  0  3  0  0  0  0  0  0
  -24.9830  -28.9230   20.1040 C   0  0  0  0  0  0  0  0  0  0  0  0
  -26.0630  -30.7810   21.3590 C   0  0  0  0  0  2  0  0  0  0  0  0
  -26.1590  -29.3940   20.7060 C   0  0  0  0  0  0  0  0  0  0  0  0
  -27.3420  -28.5670   20.6960 C   0  0  0  0  0  3  0  0  0  0  0  0
  -26.1390  -26.8580   19.4900 C   0  0  0  0  0  3  0  0  0  0  0  0
  -24.9860  -27.6670   19.4810 C   0  0  0  0  0  3  0  0  0  0  0  0
  -23.7430  -29.8000   20.1550 C   0  0  0  0  0  2  0  0  0  0  0  0
  -24.7800  -31.0640   22.0770 N   0  0  0  0  0  0  0  0  0  0  0  0
  -23.6160  -32.1390   23.7110 O   0  0  0  0  0  0  0  0  0  0  0  0
  -22.8590  -29.4470   22.4980 C   0  0  0  0  0  0  0  0  0  0  0  0
  -21.5320  -29.2590   22.3820 N   0  0  0  0  0  0  0  0  0  0  0  0
  -23.5450  -28.8240   23.3130 O   0  0  0  0  0  0  0  0  0  0  0  0
  -21.0270  -29.8210   21.7120 H   0  0  0  0  0  0  0  0  0  0  0  0
  -18.1820  -27.9800   22.8700 C   0  0  0  0  0  0  0  0  0  0  0  0
  -20.7330  -28.3010   23.1510 C   0  0  0  0  0  3  0  0  0  0  0  0
  -20.8720  -26.8730   22.5730 C   0  0  0  0  0  2  0  0  0  0  0  0
  -19.7830  -26.5330   21.5510 C   0  0  0  0  0  2  0  0  0  0  0  0
  -18.3940  -26.6400   22.1880 C   0  0  0  0  0  2  0  0  0  0  0  0
  -19.2800  -28.7680   23.3050 C   0  0  0  0  0  0  0  0  0  0  0  0
  -19.0260  -30.0250   23.8950 C   0  0  0  0  0  3  0  0  0  0  0  0
  -17.7090  -30.4970   24.0500 C   0  0  0  0  0  3  0  0  0  0  0  0
  -16.6260  -29.7060   23.6310 C   0  0  0  0  0  3  0  0  0  0  0  0
  -16.8640  -28.4470   23.0500 C   0  0  0  0  0  3  0  0  0  0  0  0
  -25.9750  -32.5300   23.7980 C   0  0  0  0  0  3  0  0  0  0  0  0
  -25.6420  -33.9230   24.1380 N   0  0  0  0  0  0  0  0  0  0  0  0
  -25.9600  -34.9880   23.3910 C   0  0  0  0  0  0  0  0  0  0  0  0
  -26.6310  -34.9040   22.3580 O   0  0  0  0  0  0  0  0  0  0  0  0
  -25.0500  -34.0640   24.9450 H   0  0  0  0  0  0  0  0  0  0  0  0
  -24.2090  -36.7660   23.0550 C   0  0  0  0  0  1  0  0  0  0  0  0
  -25.4540  -36.3650   23.8630 C   0  0  0  0  0  3  0  0  0  0  0  0
  -27.5770  -37.2720   24.7060 C   0  0  0  0  0  1  0  0  0  0  0  0
  -26.4730  -37.4320   23.7640 N   0  0  0  0  0  0  0  0  0  0  0  0
  -26.0510  -38.3430   23.9250 H   0  0  0  0  0  0  0  0  0  0  0  0
  -26.5080  -31.7650   25.0710 C   0  0  1  0  0  0  0  0  0  0  0  0
  -25.4240  -31.5190   26.1470 C   0  0  0  0  0  1  0  0  0  0  0  0
  -27.1080  -30.3940   24.6820 C   0  0  0  0  0  1  0  0  0  0  0  0
  -27.6480  -32.5770   25.7320 C   0  0  0  0  0  1  0  0  0  0  0  0
  1  2  1  0
  1  3  1  0
  2  3  1  0
  3 47  1  1
  3  5  1  0
  5  4  1  0
  6  5  1  0
  6  7  1  0
  8 17  1  0
  8  7  2  0
  9 17  1  0
 10 15  1  0
 11 12  1  0
 11 10  1  0
 13 12  1  0
 13 22  1  0
 13 14  1  0
 15  9  1  0
 15 14  1  0
 16  9  2  0
 17 18  1  0
 19 20  2  0
 20 39  1  0
 21 20  1  0
 21 24  1  0
 22 19  1  0
 22 23  1  0
 23 21  2  0
 24 25  1  0
 25 26  2  0
 27 30  1  0
 27 26  1  0
 28 27  2  0
 29 28  1  0
 29 24  2  0
 30 31  1  0
 31 32  1  0
 32 33  2  0
 34 33  1  0
 34 38  1  0
 35 34  2  0
 36 31  2  0
 36 35  1  0
 37 36  1  0
 39 40  1  0
 40 43  1  0
 40 42  1  0
 41 39  2  0
 44 45  1  0
 44 19  1  0
 46 44  1  0
 48 47  1  0
 49 60  2  0
 50 48  1  0
 50 55  1  0
 51 59  1  0
 51 61  1  0
 52 58  1  0
 52 54  1  0
 53 59  1  0
 54 53  1  0
 55 54  2  0
 56 50  2  0
 57 56  1  0
 57 52  2  0
 58 51  1  0
 59 49  1  0
 61 63  2  0
 62 61  1  0
 64 62  1  0
 65 74  2  0
 65 70  1  0
 66 62  1  0
 66 70  1  0
 67 66  1  0
 68 69  1  0
 68 67  1  0
 69 65  1  0
 70 71  2  0
 71 72  1  0
 73 72  2  0
 74 73  1  0
 75 49  1  0
 75 76  1  0
 75 85  1  0
 76 79  1  0
 77 81  1  0
 77 76  1  0
 78 77  2  0
 81 80  1  0
 83 81  1  0
 83 84  1  0
 83 82  1  0
 85 88  1  1
 85 86  1  0
 87 85  1  0
M  ISO  4   9 100  17 100  47 101  48 101
M  END
>  <TORSDO>  (69) 
F 21

>  <SCORE>  (69) 
-12.915

>  <name>  (69) 
68

>  <ligand_id>  (69) 
68

>  <original_smiles>  (69) 
[H]c1c([H])c([H])c2c(c1[H])C([H])([H])C([H])([H])C([H])([H])C2([H])N([H])C(=O)C1([H])N(C(=O)C([H])(N([H])C(=O)C([H])(N([H])C([H])([H])[H])C([H])([H])[H])C(C([H])([H])[H])(C([H])([H])[H])C([H])([H])[H])C([H])([H])c2c([H])c(OC([H])([H])C3(C([H])(C([H])([H])[H])C([H])([H])C([H])([H])C([H])([H])N([H])C(=O)N4C([H])([H])C([H])([H])C([H])([H])C([H])(n5nc(-c6c([H])c([H])c(Oc7c([H])c([H])c(F)c([H])c7F)c([H])c6[H])c(C(=O)N([H])[H])c5N([H])[H])C4([H])[H])C([H])([H])C3([H])[H])c([H])c([H])c2C1([H])[H]

>  <smiles>  (69) 
[H]c1c([H])c([H])c2c(c1[H])C([H])([H])C([H])([H])C([H])([H])C2([H])N([H])C(=O)C1([H])N(C(=O)C([H])(N([H])C(=O)C([H])(N([H])C([H])([H])[H])C([H])([H])[H])C(C([H])([H])[H])(C([H])([H])[H])C([H])([H])[H])C([H])([H])c2c([H])c(OC([H])([H])C3(C([H])(C([H])([H])[H])C([H])([H])C([H])([H])C([H])([H])N([H])C(=O)N4C([H])([H])C([H])([H])C([H])([H])C([H])(n5nc(-c6c([H])c([H])c(Oc7c([H])c([H])c(F)c([H])c7F)c([H])c6[H])c(C(=O)N([H])[H])c5N([H])[H])C4([H])[H])C([H])([H])C3([H])[H])c([H])c([H])c2C1([H])[H]

$$$$
69:0:0
     RDKit          3D

 94102  0  0  1  0  0  0  0  0999 V2000
  -28.3070  -21.9570   18.5990 C   0  0  0  0  0  0  0  0  0  0  0  0
  -29.4720  -20.9990   18.2670 C   0  0  0  0  0  2  0  0  0  0  0  0
  -28.4900  -21.7220   20.1120 C   0  0  0  0  0  3  0  0  0  0  0  0
  -29.5340  -20.5980   19.7650 C   0  0  0  0  0  3  0  0  0  0  0  0
  -27.4740  -22.5710   17.9270 O   0  0  0  0  0  0  0  0  0  0  0  0
  -28.9990  -22.9090   20.9710 C   0  0  0  0  0  0  0  0  0  0  0  0
  -29.1950  -22.7130   22.2060 N   0  0  0  0  0  0  0  0  0  0  0  0
  -28.9850  -21.7510   22.4500 H   0  0  0  0  0  0  0  0  0  0  0  0
  -29.2300  -24.3190   20.3890 C   0  0  0  0  0  2  0  0  0  0  0  0
  -28.1070  -25.3150   20.7620 C   0  0  0  0  0  2  0  0  0  0  0  0
  -28.2990  -26.6360   20.2090 O   0  0  0  0  0  0  0  0  0  0  0  0
  -24.5520  -31.8840   23.2430 C   0  0  0  0  0  0  0  0  0  0  0  0
  -27.1580  -27.4090   20.1830 C   0  0  0  0  0  0  0  0  0  0  0  0
  -23.3430  -30.4900   21.5970 C   0  0  0  0  0  3  0  0  0  0  0  0
  -24.7870  -28.9480   20.1780 C   0  0  0  0  0  0  0  0  0  0  0  0
  -25.8790  -30.8270   21.4150 C   0  0  0  0  0  2  0  0  0  0  0  0
  -25.9490  -29.4570   20.7690 C   0  0  0  0  0  0  0  0  0  0  0  0
  -27.1420  -28.6950   20.7690 C   0  0  0  0  0  3  0  0  0  0  0  0
  -25.9850  -26.9250   19.5620 C   0  0  0  0  0  3  0  0  0  0  0  0
  -24.8000  -27.6800   19.5700 C   0  0  0  0  0  3  0  0  0  0  0  0
  -23.5470  -29.8110   20.2170 C   0  0  0  0  0  2  0  0  0  0  0  0
  -24.6090  -31.0810   22.1420 N   0  0  0  0  0  0  0  0  0  0  0  0
  -23.4700  -32.1650   23.7770 O   0  0  0  0  0  0  0  0  0  0  0  0
  -22.6890  -29.4710   22.5590 C   0  0  0  0  0  0  0  0  0  0  0  0
  -21.3620  -29.3010   22.4430 N   0  0  0  0  0  0  0  0  0  0  0  0
  -23.3730  -28.8410   23.3680 O   0  0  0  0  0  0  0  0  0  0  0  0
  -20.8730  -29.8710   21.7690 H   0  0  0  0  0  0  0  0  0  0  0  0
  -17.9810  -28.1360   22.9570 C   0  0  0  0  0  0  0  0  0  0  0  0
  -20.5430  -28.3670   23.2160 C   0  0  0  0  0  3  0  0  0  0  0  0
  -20.6280  -26.9340   22.6380 C   0  0  0  0  0  2  0  0  0  0  0  0
  -19.5210  -26.6240   21.6310 C   0  0  0  0  0  2  0  0  0  0  0  0
  -18.1430  -26.7830   22.2820 C   0  0  0  0  0  2  0  0  0  0  0  0
  -19.1090  -28.8840   23.3830 C   0  0  0  0  0  0  0  0  0  0  0  0
  -18.9090  -30.1520   23.9730 C   0  0  0  0  0  3  0  0  0  0  0  0
  -17.6100  -30.6640   24.1490 C   0  0  0  0  0  3  0  0  0  0  0  0
  -16.4970  -29.9100   23.7400 C   0  0  0  0  0  3  0  0  0  0  0  0
  -16.6830  -28.6490   23.1460 C   0  0  0  0  0  3  0  0  0  0  0  0
  -25.8430  -32.5130   23.8580 C   0  0  0  0  0  3  0  0  0  0  0  0
  -25.5440  -33.9130   24.1790 N   0  0  0  0  0  0  0  0  0  0  0  0
  -25.8940  -34.9600   23.4220 C   0  0  0  0  0  0  0  0  0  0  0  0
  -26.5740  -34.8490   22.3990 O   0  0  0  0  0  0  0  0  0  0  0  0
  -24.9350  -34.0760   24.9700 H   0  0  0  0  0  0  0  0  0  0  0  0
  -24.1850  -36.7640   23.0490 C   0  0  0  0  0  1  0  0  0  0  0  0
  -25.4130  -36.3520   23.8740 C   0  0  0  0  0  3  0  0  0  0  0  0
  -27.5430  -37.2170   24.7290 C   0  0  0  0  0  1  0  0  0  0  0  0
  -26.4550  -37.3960   23.7720 N   0  0  0  0  0  0  0  0  0  0  0  0
  -26.0550  -38.3190   23.9210 H   0  0  0  0  0  0  0  0  0  0  0  0
  -26.3570  -31.7490   25.1410 C   0  0  1  0  0  0  0  0  0  0  0  0
  -25.2650  -31.5310   26.2150 C   0  0  0  0  0  1  0  0  0  0  0  0
  -26.9360  -30.3670   24.7600 C   0  0  0  0  0  1  0  0  0  0  0  0
  -27.5090  -32.5470   25.8000 C   0  0  0  0  0  1  0  0  0  0  0  0
  -29.1530  -19.1440   20.1680 C   0  0  0  0  0  2  0  0  0  0  0  0
  -31.3770  -18.2310   21.0390 C   0  0  0  0  0  1  0  0  0  0  0  0
  -30.8050  -17.8750   18.6330 C   0  0  0  0  0  1  0  0  0  0  0  0
  -30.2070  -17.9700   20.0650 C   0  0  2  0  0  0  0  0  0  0  0  0
  -29.4360  -16.6390   20.4450 C   0  0  0  0  0  2  0  0  0  0  0  0
  -30.7300  -14.5040   20.4650 C   0  0  0  0  0  0  0  0  0  0  0  0
  -30.3610  -12.3350   19.3560 C   0  0  0  0  0  2  0  0  0  0  0  0
  -29.4390  -12.5440   18.1410 C   0  0  0  0  0  2  0  0  0  0  0  0
  -27.9640  -12.4160   18.5680 C   0  0  0  0  0  2  0  0  0  0  0  0
  -27.6190  -13.2480   19.8350 C   0  0  0  0  0  3  0  0  0  0  0  0
  -28.6850  -13.0800   20.9480 C   0  0  0  0  0  2  0  0  0  0  0  0
  -30.0010  -13.3530   20.3520 N   0  0  0  0  0  0  0  0  0  0  0  0
  -31.8500  -14.6290   19.9790 O   0  0  0  0  0  0  0  0  0  0  0  0
  -30.1810  -15.5460   21.1070 N   0  0  0  0  0  0  0  0  0  0  0  0
  -30.8440  -15.9510   21.7520 H   0  0  0  0  0  0  0  0  0  0  0  0
  -25.2080  -13.8400   20.5270 C   0  0  0  0  0  0  0  0  0  0  0  0
  -24.1420  -13.0670   20.8970 C   0  0  0  0  0  0  0  0  0  0  0  0
  -24.6040  -11.7150   20.8770 C   0  0  0  0  0  0  0  0  0  0  0  0
  -26.2620  -12.9630   20.3100 N   0  0  0  0  0  0  0  0  0  0  0  0
  -25.8970  -11.6780   20.5720 N   0  0  0  0  0  0  0  0  0  0  0  0
  -23.8690  -10.4580   21.0710 C   0  0  0  0  0  0  0  0  0  0  0  0
  -24.2980   -9.4890   22.0040 C   0  0  0  0  0  3  0  0  0  0  0  0
  -23.5690   -8.2930   22.1800 C   0  0  0  0  0  3  0  0  0  0  0  0
  -22.3930   -8.0590   21.4290 C   0  0  0  0  0  0  0  0  0  0  0  0
  -21.9800   -9.0200   20.4860 C   0  0  0  0  0  3  0  0  0  0  0  0
  -22.7110  -10.2050   20.3060 C   0  0  0  0  0  3  0  0  0  0  0  0
  -21.6360   -6.9170   21.5200 O   0  0  0  0  0  0  0  0  0  0  0  0
  -21.6030   -6.1640   22.6690 C   0  0  0  0  0  0  0  0  0  0  0  0
  -21.1940   -6.7110   23.9050 C   0  0  0  0  0  3  0  0  0  0  0  0
  -21.1010   -5.8890   25.0450 C   0  0  0  0  0  3  0  0  0  0  0  0
  -21.4090   -4.5180   24.9520 C   0  0  0  0  0  0  0  0  0  0  0  0
  -21.8170   -3.9710   23.7230 C   0  0  0  0  0  3  0  0  0  0  0  0
  -21.9080   -4.7910   22.5850 C   0  0  0  0  0  0  0  0  0  0  0  0
  -22.2750   -4.2500   21.3980 F   0  0  0  0  0  0  0  0  0  0  0  0
  -21.3170   -3.7290   26.0470 F   0  0  0  0  0  0  0  0  0  0  0  0
  -22.7420  -13.5420   21.1670 C   0  0  0  0  0  0  0  0  0  0  0  0
  -22.0100  -12.8530   22.0340 N   0  0  0  0  0  0  0  0  0  0  0  0
  -22.3080  -14.5690   20.6450 O   0  0  0  0  0  0  0  0  0  0  0  0
  -22.3630  -12.0150   22.4780 H   0  0  0  0  0  0  0  0  0  0  0  0
  -21.0730  -13.1620   22.2470 H   0  0  0  0  0  0  0  0  0  0  0  0
  -25.3690  -15.2100   20.3440 N   0  0  0  0  0  0  0  0  0  0  0  0
  -24.6150  -15.8740   20.4960 H   0  0  0  0  0  0  0  0  0  0  0  0
  -26.2270  -15.6560   20.0470 H   0  0  0  0  0  0  0  0  0  0  0  0
  1  3  1  0
  2  1  1  0
  2  4  1  0
  3  6  1  0
  4  3  1  0
  4 52  1  0
  5  1  2  0
  6  7  2  0
  7  8  1  0
  9 10  1  0
  9  6  1  0
 11 10  1  0
 12 23  2  0
 13 11  1  0
 13 18  1  0
 14 22  1  0
 14 24  1  0
 15 21  1  0
 15 17  1  0
 16 22  1  0
 17 16  1  0
 18 17  2  0
 19 20  1  0
 19 13  2  0
 20 15  2  0
 21 14  1  0
 22 12  1  0
 24 26  2  0
 25 24  1  0
 27 25  1  0
 28 37  2  0
 28 33  1  0
 29 25  1  0
 29 33  1  0
 30 29  1  0
 31 32  1  0
 31 30  1  0
 32 28  1  0
 33 34  2  0
 34 35  1  0
 36 35  2  0
 37 36  1  0
 38 12  1  0
 38 39  1  0
 38 48  1  0
 39 42  1  0
 40 44  1  0
 40 39  1  0
 41 40  2  0
 44 43  1  0
 46 44  1  0
 46 47  1  0
 46 45  1  0
 48 51  1  1
 48 49  1  0
 50 48  1  0
 55 54  1  6
 55 52  1  0
 55 56  1  0
 55 53  1  0
 56 65  1  0
 57 65  1  0
 58 63  1  0
 59 60  1  0
 59 58  1  0
 61 60  1  0
 61 70  1  0
 61 62  1  0
 63 57  1  0
 63 62  1  0
 64 57  2  0
 65 66  1  0
 67 68  2  0
 68 87  1  0
 69 68  1  0
 69 72  1  0
 70 67  1  0
 70 71  1  0
 71 69  2  0
 72 73  1  0
 73 74  2  0
 75 78  1  0
 75 74  1  0
 76 75  2  0
 77 76  1  0
 77 72  2  0
 78 79  1  0
 79 80  1  0
 80 81  2  0
 82 81  1  0
 82 86  1  0
 83 82  2  0
 84 79  2  0
 84 83  1  0
 85 84  1  0
 87 88  1  0
 88 91  1  0
 88 90  1  0
 89 87  2  0
 92 93  1  0
 92 67  1  0
 94 92  1  0
M  ISO  4  10 101  11 101  57 100  65 100
M  END
>  <TORSDO>  (70) 
F 22

>  <SCORE>  (70) 
-13.541

>  <name>  (70) 
69

>  <ligand_id>  (70) 
69

>  <original_smiles>  (70) 
[H]N=C(C([H])([H])C([H])([H])Oc1c([H])c([H])c2c(c1[H])C([H])([H])N(C(=O)C([H])(N([H])C(=O)C([H])(N([H])C([H])([H])[H])C([H])([H])[H])C(C([H])([H])[H])(C([H])([H])[H])C([H])([H])[H])C([H])(C(=O)N([H])C1([H])c3c([H])c([H])c([H])c([H])c3C([H])([H])C([H])([H])C1([H])[H])C2([H])[H])C1([H])C(=O)C([H])([H])C1([H])C([H])([H])C(C([H])([H])[H])(C([H])([H])[H])C([H])([H])N([H])C(=O)N1C([H])([H])C([H])([H])C([H])([H])C([H])(n2nc(-c3c([H])c([H])c(Oc4c([H])c([H])c(F)c([H])c4F)c([H])c3[H])c(C(=O)N([H])[H])c2N([H])[H])C1([H])[H]

>  <smiles>  (70) 
[H]N=C(C([H])([H])C([H])([H])Oc1c([H])c([H])c2c(c1[H])C([H])([H])N(C(=O)C([H])(N([H])C(=O)C([H])(N([H])C([H])([H])[H])C([H])([H])[H])C(C([H])([H])[H])(C([H])([H])[H])C([H])([H])[H])C([H])(C(=O)N([H])C1([H])c3c([H])c([H])c([H])c([H])c3C([H])([H])C([H])([H])C1([H])[H])C2([H])[H])C1([H])C(=O)C([H])([H])C1([H])C([H])([H])C(C([H])([H])[H])(C([H])([H])[H])C([H])([H])N([H])C(=O)N1C([H])([H])C([H])([H])C([H])([H])C([H])(n2nc(-c3c([H])c([H])c(Oc4c([H])c([H])c(F)c([H])c4F)c([H])c3[H])c(C(=O)N([H])[H])c2N([H])[H])C1([H])[H]

$$$$
70:0:0
     RDKit          3D

 91100  0  0  1  0  0  0  0  0999 V2000
  -28.5880  -17.7530   19.7850 C   0  0  0  0  0  0  0  0  0  0  0  0
  -30.2790  -20.3110   20.3800 C   0  0  0  0  0  2  0  0  0  0  0  0
  -27.9630  -19.9620   21.0650 C   0  0  0  0  0  2  0  0  0  0  0  0
  -30.0790  -17.3980   19.8370 C   0  0  0  0  0  3  0  0  0  0  0  0
  -29.0600  -21.0770   21.1070 C   0  0  0  0  0  3  0  0  0  0  0  0
  -30.1670  -18.7340   20.7520 C   0  0  0  0  0  3  0  0  0  0  0  0
  -28.7140  -18.7540   20.7250 N   0  0  0  0  0  0  0  0  0  0  0  0
  -27.6130  -17.3370   19.1840 O   0  0  0  0  0  0  0  0  0  0  0  0
  -30.8320  -14.8700   19.9580 C   0  0  0  0  0  0  0  0  0  0  0  0
  -30.5860  -12.5560   19.0190 C   0  0  0  0  0  2  0  0  0  0  0  0
  -29.5780  -12.5600   17.8460 C   0  0  0  0  0  2  0  0  0  0  0  0
  -28.1420  -12.3740   18.3640 C   0  0  0  0  0  2  0  0  0  0  0  0
  -27.8220  -13.3020   19.5670 C   0  0  0  0  0  3  0  0  0  0  0  0
  -28.9460  -13.2890   20.6340 C   0  0  0  0  0  2  0  0  0  0  0  0
  -30.2090  -13.6370   19.9640 N   0  0  0  0  0  0  0  0  0  0  0  0
  -31.9320  -15.0070   19.4150 O   0  0  0  0  0  0  0  0  0  0  0  0
  -30.1350  -15.9730   20.4080 N   0  0  0  0  0  0  0  0  0  0  0  0
  -29.2810  -15.7300   20.8920 H   0  0  0  0  0  0  0  0  0  0  0  0
  -25.5060  -13.8810   20.5070 C   0  0  0  0  0  0  0  0  0  0  0  0
  -24.4590  -13.1040   20.9260 C   0  0  0  0  0  0  0  0  0  0  0  0
  -24.8930  -11.7520   20.7860 C   0  0  0  0  0  0  0  0  0  0  0  0
  -26.5120  -13.0030   20.1440 N   0  0  0  0  0  0  0  0  0  0  0  0
  -26.1550  -11.7120   20.3730 N   0  0  0  0  0  0  0  0  0  0  0  0
  -24.1570  -10.4900   20.9680 C   0  0  0  0  0  0  0  0  0  0  0  0
  -24.5950   -9.5070   21.8830 C   0  0  0  0  0  3  0  0  0  0  0  0
  -23.8640   -8.3100   22.0580 C   0  0  0  0  0  3  0  0  0  0  0  0
  -22.6790   -8.0900   21.3150 C   0  0  0  0  0  0  0  0  0  0  0  0
  -22.2570   -9.0610   20.3880 C   0  0  0  0  0  3  0  0  0  0  0  0
  -22.9910  -10.2480   20.2130 C   0  0  0  0  0  3  0  0  0  0  0  0
  -21.9230   -6.9460   21.3970 O   0  0  0  0  0  0  0  0  0  0  0  0
  -21.7990   -6.2450   22.5710 C   0  0  0  0  0  0  0  0  0  0  0  0
  -21.2800   -6.8400   23.7420 C   0  0  0  0  0  3  0  0  0  0  0  0
  -21.1060   -6.0660   24.9070 C   0  0  0  0  0  3  0  0  0  0  0  0
  -21.4400   -4.6980   24.9000 C   0  0  0  0  0  0  0  0  0  0  0  0
  -21.9520   -4.1030   23.7340 C   0  0  0  0  0  3  0  0  0  0  0  0
  -22.1290   -4.8730   22.5710 C   0  0  0  0  0  0  0  0  0  0  0  0
  -22.6020   -4.2910   21.4440 F   0  0  0  0  0  0  0  0  0  0  0  0
  -21.2650   -3.9530   26.0150 F   0  0  0  0  0  0  0  0  0  0  0  0
  -23.1000  -13.5860   21.3420 C   0  0  0  0  0  0  0  0  0  0  0  0
  -22.4330  -12.8560   22.2310 N   0  0  0  0  0  0  0  0  0  0  0  0
  -22.6380  -14.6420   20.9130 O   0  0  0  0  0  0  0  0  0  0  0  0
  -22.8250  -12.0060   22.6060 H   0  0  0  0  0  0  0  0  0  0  0  0
  -21.5220  -13.1610   22.5460 H   0  0  0  0  0  0  0  0  0  0  0  0
  -25.6760  -15.2570   20.3880 N   0  0  0  0  0  0  0  0  0  0  0  0
  -24.9020  -15.8940   20.5490 H   0  0  0  0  0  0  0  0  0  0  0  0
  -26.4930  -15.7240   20.0020 H   0  0  0  0  0  0  0  0  0  0  0  0
  -28.8660  -23.7470   20.2700 C   0  0  0  0  0  3  0  0  0  0  0  0
  -28.5140  -22.6050   20.9990 C   0  0  0  0  0  0  0  0  0  0  0  0
  -27.3590  -22.7950   21.9930 C   0  0  0  0  0  1  0  0  0  0  0  0
  -28.1260  -25.1720   20.4280 C   0  0  0  0  0  2  0  0  0  0  0  0
  -28.3750  -26.4050   19.5880 O   0  0  0  0  0  0  0  0  0  0  0  0
  -24.6540  -31.6010   23.0210 C   0  0  0  0  0  0  0  0  0  0  0  0
  -27.3090  -27.3430   19.5760 C   0  0  0  0  0  0  0  0  0  0  0  0
  -23.4590  -30.3430   21.2660 C   0  0  0  0  0  3  0  0  0  0  0  0
  -24.9290  -28.9540   19.6870 C   0  0  0  0  0  0  0  0  0  0  0  0
  -25.9890  -30.7190   21.0860 C   0  0  0  0  0  2  0  0  0  0  0  0
  -26.0960  -29.3990   20.3230 C   0  0  0  0  0  0  0  0  0  0  0  0
  -27.2930  -28.6100   20.2560 C   0  0  0  0  0  3  0  0  0  0  0  0
  -26.1230  -26.9850   18.8920 C   0  0  0  0  0  3  0  0  0  0  0  0
  -24.9470  -27.7540   18.9610 C   0  0  0  0  0  3  0  0  0  0  0  0
  -23.6740  -29.8040   19.8250 C   0  0  0  0  0  2  0  0  0  0  0  0
  -24.7190  -30.9000   21.8480 N   0  0  0  0  0  0  0  0  0  0  0  0
  -23.5700  -31.8120   23.5860 O   0  0  0  0  0  0  0  0  0  0  0  0
  -22.8200  -29.2310   22.1330 C   0  0  0  0  0  0  0  0  0  0  0  0
  -21.4900  -29.0650   22.0230 N   0  0  0  0  0  0  0  0  0  0  0  0
  -23.5170  -28.5250   22.8660 O   0  0  0  0  0  0  0  0  0  0  0  0
  -20.9790  -29.6900   21.4110 H   0  0  0  0  0  0  0  0  0  0  0  0
  -18.1180  -27.8800   22.5650 C   0  0  0  0  0  0  0  0  0  0  0  0
  -20.6940  -28.0510   22.7170 C   0  0  0  0  0  3  0  0  0  0  0  0
  -20.7250  -26.7050   21.9550 C   0  0  0  0  0  2  0  0  0  0  0  0
  -19.5600  -26.5450   20.9700 C   0  0  0  0  0  2  0  0  0  0  0  0
  -18.2210  -26.6290   21.7120 C   0  0  0  0  0  2  0  0  0  0  0  0
  -19.2810  -28.5580   23.0220 C   0  0  0  0  0  0  0  0  0  0  0  0
  -19.1260  -29.7390   23.7810 C   0  0  0  0  0  3  0  0  0  0  0  0
  -17.8470  -30.2310   24.0990 C   0  0  0  0  0  3  0  0  0  0  0  0
  -16.7030  -29.5500   23.6510 C   0  0  0  0  0  3  0  0  0  0  0  0
  -16.8400  -28.3770   22.8900 C   0  0  0  0  0  3  0  0  0  0  0  0
  -25.9310  -32.1940   23.6890 C   0  0  0  0  0  3  0  0  0  0  0  0
  -25.5880  -33.5290   24.2030 N   0  0  0  0  0  0  0  0  0  0  0  0
  -25.8730  -34.6790   23.5820 C   0  0  0  0  0  0  0  0  0  0  0  0
  -26.5190  -34.7290   22.5340 O   0  0  0  0  0  0  0  0  0  0  0  0
  -24.9950  -33.5580   25.0200 H   0  0  0  0  0  0  0  0  0  0  0  0
  -24.0830  -36.4440   23.5000 C   0  0  0  0  0  1  0  0  0  0  0  0
  -25.3550  -35.9800   24.2270 C   0  0  0  0  0  3  0  0  0  0  0  0
  -27.4820  -36.8160   25.1220 C   0  0  0  0  0  1  0  0  0  0  0  0
  -26.3530  -37.0730   24.2320 N   0  0  0  0  0  0  0  0  0  0  0  0
  -25.9250  -37.9520   24.5110 H   0  0  0  0  0  0  0  0  0  0  0  0
  -26.4980  -31.2880   24.8470 C   0  0  1  0  0  0  0  0  0  0  0  0
  -25.4390  -30.9000   25.9050 C   0  0  0  0  0  1  0  0  0  0  0  0
  -27.0990  -29.9870   24.2700 C   0  0  0  0  0  1  0  0  0  0  0  0
  -27.6480  -32.0240   25.5740 C   0  0  0  0  0  1  0  0  0  0  0  0
  1  4  1  0
  1  7  1  0
  2  5  1  0
  3  5  1  0
  4 17  1  0
  4  6  1  0
  5 48  1  0
  6  2  1  0
  7  6  1  0
  7  3  1  0
  8  1  2  0
  9 15  1  0
  9 17  1  0
 10 15  1  0
 11 12  1  0
 11 10  1  0
 13 12  1  0
 13 22  1  0
 13 14  1  0
 15 14  1  0
 16  9  2  0
 17 18  1  0
 19 20  2  0
 20 39  1  0
 21 20  1  0
 21 24  1  0
 22 23  1  0
 22 19  1  0
 23 21  2  0
 24 25  1  0
 25 26  2  0
 27 30  1  0
 27 26  1  0
 28 27  2  0
 29 28  1  0
 29 24  2  0
 30 31  1  0
 31 32  1  0
 32 33  2  0
 34 33  1  0
 34 38  1  0
 35 34  2  0
 36 31  2  0
 36 35  1  0
 37 36  1  0
 39 40  1  0
 40 43  1  0
 40 42  1  0
 41 39  2  0
 44 19  1  0
 44 45  1  0
 46 44  1  0
 47 50  1  0
 47 48  2  0
 48 49  1  0
 51 50  1  0
 52 63  2  0
 53 51  1  0
 53 58  1  0
 54 62  1  0
 54 64  1  0
 55 61  1  0
 55 57  1  0
 56 62  1  0
 57 56  1  0
 58 57  2  0
 59 60  1  0
 59 53  2  0
 60 55  2  0
 61 54  1  0
 62 52  1  0
 64 66  2  0
 65 64  1  0
 67 65  1  0
 68 77  2  0
 68 73  1  0
 69 65  1  0
 69 73  1  0
 70 69  1  0
 71 72  1  0
 71 70  1  0
 72 68  1  0
 73 74  2  0
 74 75  1  0
 76 75  2  0
 77 76  1  0
 78 52  1  0
 78 79  1  0
 78 88  1  0
 79 82  1  0
 80 79  1  0
 80 84  1  0
 81 80  2  0
 84 83  1  0
 84 86  1  0
 86 87  1  0
 86 85  1  0
 88 91  1  1
 88 89  1  0
 90 88  1  0
M  ISO  4   9 100  17 100  50 101  51 101
M  END
>  <TORSDO>  (71) 
F 18

>  <SCORE>  (71) 
-12.849

>  <name>  (71) 
70

>  <ligand_id>  (71) 
70

>  <original_smiles>  (71) 
[H]C(=C(C([H])([H])[H])C1([H])C([H])([H])N2C(=O)C([H])(N([H])C(=O)N3C([H])([H])C([H])([H])C([H])([H])C([H])(n4nc(-c5c([H])c([H])c(Oc6c([H])c([H])c(F)c([H])c6F)c([H])c5[H])c(C(=O)N([H])[H])c4N([H])[H])C3([H])[H])C2([H])C1([H])[H])C([H])([H])Oc1c([H])c([H])c2c(c1[H])C([H])([H])N(C(=O)C([H])(N([H])C(=O)C([H])(N([H])C([H])([H])[H])C([H])([H])[H])C(C([H])([H])[H])(C([H])([H])[H])C([H])([H])[H])C([H])(C(=O)N([H])C1([H])c3c([H])c([H])c([H])c([H])c3C([H])([H])C([H])([H])C1([H])[H])C2([H])[H]

>  <smiles>  (71) 
[H]C(=C(C([H])([H])[H])C1([H])C([H])([H])N2C(=O)C([H])(N([H])C(=O)N3C([H])([H])C([H])([H])C([H])([H])C([H])(n4nc(-c5c([H])c([H])c(Oc6c([H])c([H])c(F)c([H])c6F)c([H])c5[H])c(C(=O)N([H])[H])c4N([H])[H])C3([H])[H])C2([H])C1([H])[H])C([H])([H])Oc1c([H])c([H])c2c(c1[H])C([H])([H])N(C(=O)C([H])(N([H])C(=O)C([H])(N([H])C([H])([H])[H])C([H])([H])[H])C(C([H])([H])[H])(C([H])([H])[H])C([H])([H])[H])C([H])(C(=O)N([H])C1([H])c3c([H])c([H])c([H])c([H])c3C([H])([H])C([H])([H])C1([H])[H])C2([H])[H]

$$$$
71:0:0
     RDKit          3D

 92100  0  0  1  0  0  0  0  0999 V2000
  -28.7780  -21.4060   20.5930 C   0  0  0  0  0  3  0  0  0  0  0  0
  -28.5890  -20.1680   20.0440 C   0  0  0  0  0  0  0  0  0  0  0  0
  -27.3690  -19.7910   19.2130 C   0  0  0  0  0  1  0  0  0  0  0  0
  -26.5920  -22.6540   19.8790 C   0  0  0  0  0  1  0  0  0  0  0  0
  -27.4800  -22.6840   22.2140 C   0  0  0  0  0  1  0  0  0  0  0  0
  -27.8880  -22.6790   20.7210 C   0  0  1  0  0  0  0  0  0  0  0  0
  -28.6610  -24.0090   20.3600 C   0  0  0  0  0  2  0  0  0  0  0  0
  -28.0240  -25.3350   20.9020 C   0  0  0  0  0  2  0  0  0  0  0  0
  -28.3450  -26.5860   20.2320 O   0  0  0  0  0  0  0  0  0  0  0  0
  -24.6020  -31.8620   23.2500 C   0  0  0  0  0  0  0  0  0  0  0  0
  -27.2510  -27.4290   20.1480 C   0  0  0  0  0  0  0  0  0  0  0  0
  -23.4140  -30.4870   21.5760 C   0  0  0  0  0  3  0  0  0  0  0  0
  -24.8810  -28.9760   20.1340 C   0  0  0  0  0  0  0  0  0  0  0  0
  -25.9490  -30.8330   21.4190 C   0  0  0  0  0  2  0  0  0  0  0  0
  -26.0360  -29.4720   20.7520 C   0  0  0  0  0  0  0  0  0  0  0  0
  -27.2290  -28.7080   20.7570 C   0  0  0  0  0  3  0  0  0  0  0  0
  -26.0890  -26.9710   19.4900 C   0  0  0  0  0  3  0  0  0  0  0  0
  -24.9050  -27.7260   19.4940 C   0  0  0  0  0  3  0  0  0  0  0  0
  -23.6370  -29.8340   20.1870 C   0  0  0  0  0  2  0  0  0  0  0  0
  -24.6730  -31.0750   22.1390 N   0  0  0  0  0  0  0  0  0  0  0  0
  -23.5150  -32.1320   23.7780 O   0  0  0  0  0  0  0  0  0  0  0  0
  -22.7490  -29.4530   22.5120 C   0  0  0  0  0  0  0  0  0  0  0  0
  -21.4240  -29.2770   22.3660 N   0  0  0  0  0  0  0  0  0  0  0  0
  -23.4190  -28.8130   23.3250 O   0  0  0  0  0  0  0  0  0  0  0  0
  -20.9470  -29.8450   21.6800 H   0  0  0  0  0  0  0  0  0  0  0  0
  -18.0440  -28.0720   22.7890 C   0  0  0  0  0  0  0  0  0  0  0  0
  -20.5960  -28.3330   23.1150 C   0  0  0  0  0  3  0  0  0  0  0  0
  -20.7130  -26.9060   22.5290 C   0  0  0  0  0  2  0  0  0  0  0  0
  -19.6340  -26.5900   21.4900 C   0  0  0  0  0  2  0  0  0  0  0  0
  -18.2370  -26.7290   22.1050 C   0  0  0  0  0  2  0  0  0  0  0  0
  -19.1530  -28.8330   23.2470 C   0  0  0  0  0  0  0  0  0  0  0  0
  -18.9190  -30.0920   23.8400 C   0  0  0  0  0  3  0  0  0  0  0  0
  -17.6090  -30.5910   23.9830 C   0  0  0  0  0  3  0  0  0  0  0  0
  -16.5150  -29.8260   23.5470 C   0  0  0  0  0  3  0  0  0  0  0  0
  -16.7350  -28.5690   22.9540 C   0  0  0  0  0  3  0  0  0  0  0  0
  -25.8810  -32.4820   23.8960 C   0  0  0  0  0  3  0  0  0  0  0  0
  -26.3980  -31.6750   25.1490 C   0  0  1  0  0  0  0  0  0  0  0  0
  -25.3010  -31.3920   26.2020 C   0  0  0  0  0  1  0  0  0  0  0  0
  -26.9970  -30.3180   24.7150 C   0  0  0  0  0  1  0  0  0  0  0  0
  -27.5390  -32.4570   25.8420 C   0  0  0  0  0  1  0  0  0  0  0  0
  -25.5630  -33.8670   24.2660 N   0  0  0  0  0  0  0  0  0  0  0  0
  -25.8940  -34.9430   23.5390 C   0  0  0  0  0  0  0  0  0  0  0  0
  -26.5720  -34.8740   22.5090 O   0  0  0  0  0  0  0  0  0  0  0  0
  -24.9630  -33.9950   25.0670 H   0  0  0  0  0  0  0  0  0  0  0  0
  -24.1610  -36.7370   23.2200 C   0  0  0  0  0  1  0  0  0  0  0  0
  -25.3950  -36.3140   24.0330 C   0  0  0  0  0  3  0  0  0  0  0  0
  -27.5180  -37.1790   24.9120 C   0  0  0  0  0  1  0  0  0  0  0  0
  -26.4240  -37.3740   23.9630 N   0  0  0  0  0  0  0  0  0  0  0  0
  -26.0130  -38.2870   24.1360 H   0  0  0  0  0  0  0  0  0  0  0  0
  -29.6120  -19.1460   20.3270 C   0  0  0  0  0  3  0  0  0  0  0  0
  -29.5430  -17.8080   20.1040 C   0  0  0  0  0  3  0  0  0  0  0  0
  -30.7260  -14.4760   19.6870 C   0  0  0  0  0  0  0  0  0  0  0  0
  -30.2150  -12.3920   18.4550 C   0  0  0  0  0  2  0  0  0  0  0  0
  -29.1440  -12.6590   17.3780 C   0  0  0  0  0  2  0  0  0  0  0  0
  -27.7320  -12.5130   17.9740 C   0  0  0  0  0  2  0  0  0  0  0  0
  -27.5580  -13.3060   19.2970 C   0  0  0  0  0  3  0  0  0  0  0  0
  -28.7280  -13.0320   20.2670 C   0  0  0  0  0  2  0  0  0  0  0  0
  -29.9890  -13.3350   19.5650 N   0  0  0  0  0  0  0  0  0  0  0  0
  -31.6910  -14.7140   18.9540 O   0  0  0  0  0  0  0  0  0  0  0  0
  -30.6940  -16.8070   22.0850 C   0  0  0  0  0  2  0  0  0  0  0  0
  -30.6360  -16.8370   20.5660 C   0  0  0  0  0  3  0  0  0  0  0  0
  -30.7300  -15.2920   22.0340 C   0  0  0  0  0  3  0  0  0  0  0  0
  -32.0750  -14.5890   22.2740 C   0  0  0  0  0  1  0  0  0  0  0  0
  -30.3150  -15.3830   20.6110 N   0  0  0  0  0  0  0  0  0  0  0  0
  -25.2660  -13.9150   20.2960 C   0  0  0  0  0  0  0  0  0  0  0  0
  -24.2350  -13.1440   20.7560 C   0  0  0  0  0  0  0  0  0  0  0  0
  -24.6660  -11.7880   20.6260 C   0  0  0  0  0  0  0  0  0  0  0  0
  -26.2640  -13.0300   19.9160 N   0  0  0  0  0  0  0  0  0  0  0  0
  -25.9110  -11.7430   20.1710 N   0  0  0  0  0  0  0  0  0  0  0  0
  -23.9460  -10.5300   20.8560 C   0  0  0  0  0  0  0  0  0  0  0  0
  -24.4240   -9.5600   21.7640 C   0  0  0  0  0  3  0  0  0  0  0  0
  -23.7040   -8.3660   21.9820 C   0  0  0  0  0  3  0  0  0  0  0  0
  -22.4910   -8.1340   21.2900 C   0  0  0  0  0  0  0  0  0  0  0  0
  -22.0310   -9.0920   20.3700 C   0  0  0  0  0  3  0  0  0  0  0  0
  -22.7520  -10.2780   20.1510 C   0  0  0  0  0  3  0  0  0  0  0  0
  -21.7370   -6.9910   21.4170 O   0  0  0  0  0  0  0  0  0  0  0  0
  -21.6960   -6.2810   22.5910 C   0  0  0  0  0  0  0  0  0  0  0  0
  -21.2910   -6.8760   23.8070 C   0  0  0  0  0  3  0  0  0  0  0  0
  -21.1970   -6.0950   24.9750 C   0  0  0  0  0  3  0  0  0  0  0  0
  -21.4980   -4.7210   24.9310 C   0  0  0  0  0  0  0  0  0  0  0  0
  -21.8980   -4.1250   23.7210 C   0  0  0  0  0  3  0  0  0  0  0  0
  -21.9940   -4.9040   22.5540 C   0  0  0  0  0  0  0  0  0  0  0  0
  -22.3580   -4.3230   21.3860 F   0  0  0  0  0  0  0  0  0  0  0  0
  -21.4020   -3.9670   26.0510 F   0  0  0  0  0  0  0  0  0  0  0  0
  -22.8870  -13.6290   21.2060 C   0  0  0  0  0  0  0  0  0  0  0  0
  -22.2610  -12.9220   22.1410 N   0  0  0  0  0  0  0  0  0  0  0  0
  -22.4030  -14.6700   20.7660 O   0  0  0  0  0  0  0  0  0  0  0  0
  -22.6650  -12.0770   22.5180 H   0  0  0  0  0  0  0  0  0  0  0  0
  -21.3630  -13.2310   22.4850 H   0  0  0  0  0  0  0  0  0  0  0  0
  -25.4370  -15.2880   20.1460 N   0  0  0  0  0  0  0  0  0  0  0  0
  -24.7120  -15.9550   20.3840 H   0  0  0  0  0  0  0  0  0  0  0  0
  -26.2650  -15.7220   19.7570 H   0  0  0  0  0  0  0  0  0  0  0  0
  1  6  1  0
  2 50  1  0
  2  1  2  0
  3  2  1  0
  6  4  1  6
  6  5  1  0
  7  6  1  0
  7  8  1  0
  9  8  1  0
 10 21  2  0
 11  9  1  0
 11 16  1  0
 12 20  1  0
 12 22  1  0
 13 19  1  0
 13 15  1  0
 14 20  1  0
 15 16  2  0
 15 14  1  0
 17 18  1  0
 17 11  2  0
 18 13  2  0
 19 12  1  0
 20 10  1  0
 22 24  2  0
 23 22  1  0
 25 23  1  0
 26 35  2  0
 26 31  1  0
 27 23  1  0
 27 31  1  0
 28 27  1  0
 29 30  1  0
 29 28  1  0
 30 26  1  0
 31 32  2  0
 32 33  1  0
 34 33  2  0
 35 34  1  0
 36 10  1  0
 36 41  1  0
 36 37  1  0
 37 40  1  1
 37 38  1  0
 39 37  1  0
 41 44  1  0
 42 46  1  0
 42 41  1  0
 43 42  2  0
 46 45  1  0
 48 46  1  0
 48 49  1  0
 48 47  1  0
 51 50  2  0
 52 64  1  0
 53 58  1  0
 54 55  1  0
 54 53  1  0
 56 55  1  0
 56 68  1  0
 56 57  1  0
 58 52  1  0
 58 57  1  0
 59 52  2  0
 61 51  1  0
 61 64  1  0
 61 60  1  0
 62 60  1  0
 62 63  1  0
 64 62  1  0
 65 66  2  0
 66 85  1  0
 67 66  1  0
 67 70  1  0
 68 69  1  0
 68 65  1  0
 69 67  2  0
 70 71  1  0
 71 72  2  0
 73 76  1  0
 73 72  1  0
 74 73  2  0
 75 74  1  0
 75 70  2  0
 76 77  1  0
 77 78  1  0
 78 79  2  0
 80 79  1  0
 80 84  1  0
 81 80  2  0
 82 77  2  0
 82 81  1  0
 83 82  1  0
 85 86  1  0
 86 89  1  0
 86 88  1  0
 87 85  2  0
 90 65  1  0
 90 91  1  0
 92 90  1  0
M  ISO  4   8 101   9 101  52 100  64 100
M  END
>  <TORSDO>  (72) 
F 20

>  <SCORE>  (72) 
-11.312

>  <name>  (72) 
71

>  <ligand_id>  (72) 
71

>  <original_smiles>  (72) 
[H]C(C(=C([H])C(C([H])([H])[H])(C([H])([H])[H])C([H])([H])C([H])([H])Oc1c([H])c([H])c2c(c1[H])C([H])([H])N(C(=O)C([H])(N([H])C(=O)C([H])(N([H])C([H])([H])[H])C([H])([H])[H])C(C([H])([H])[H])(C([H])([H])[H])C([H])([H])[H])C([H])(C(=O)N([H])C1([H])c3c([H])c([H])c([H])c([H])c3C([H])([H])C([H])([H])C1([H])[H])C2([H])[H])C([H])([H])[H])=C([H])C1([H])N(C(=O)N2C([H])([H])C([H])([H])C([H])([H])C([H])(n3nc(-c4c([H])c([H])c(Oc5c([H])c([H])c(F)c([H])c5F)c([H])c4[H])c(C(=O)N([H])[H])c3N([H])[H])C2([H])[H])C([H])(C([H])([H])[H])C1([H])[H]

>  <smiles>  (72) 
[H]C(C(=C([H])C(C([H])([H])[H])(C([H])([H])[H])C([H])([H])C([H])([H])Oc1c([H])c([H])c2c(c1[H])C([H])([H])N(C(=O)C([H])(N([H])C(=O)C([H])(N([H])C([H])([H])[H])C([H])([H])[H])C(C([H])([H])[H])(C([H])([H])[H])C([H])([H])[H])C([H])(C(=O)N([H])C1([H])c3c([H])c([H])c([H])c([H])c3C([H])([H])C([H])([H])C1([H])[H])C2([H])[H])C([H])([H])[H])=C([H])C1([H])N(C(=O)N2C([H])([H])C([H])([H])C([H])([H])C([H])(n3nc(-c4c([H])c([H])c(Oc5c([H])c([H])c(F)c([H])c5F)c([H])c4[H])c(C(=O)N([H])[H])c3N([H])[H])C2([H])[H])C([H])(C([H])([H])[H])C1([H])[H]

$$$$
72:0:0
     RDKit          3D

 92100  0  0  1  0  0  0  0  0999 V2000
  -30.1170  -21.7670   21.8780 C   0  0  0  0  0  1  0  0  0  0  0  0
  -27.6610  -21.6630   21.4760 C   0  0  0  0  0  1  0  0  0  0  0  0
  -29.0430  -21.7940   20.7760 C   0  0  2  0  0  0  0  0  0  0  0  0
  -28.7960  -18.9020   20.4600 C   0  0  0  0  0  0  0  0  0  0  0  0
  -30.6690  -19.4720   19.6940 C   0  0  0  0  0  2  0  0  0  0  0  0
  -30.1690  -18.0760   20.3350 C   0  0  0  0  0  3  0  0  0  0  0  0
  -29.3230  -20.3420   19.9020 C   0  0  0  0  0  3  0  0  0  0  0  0
  -27.6660  -18.5200   20.7700 O   0  0  0  0  0  0  0  0  0  0  0  0
  -30.1030  -16.5970   19.5390 C   0  0  0  0  0  0  0  0  0  0  0  0
  -29.2860  -16.6050   18.5700 N   0  0  0  0  0  0  0  0  0  0  0  0
  -28.8130  -17.4930   18.4840 H   0  0  0  0  0  0  0  0  0  0  0  0
  -30.9760  -15.1730   19.7680 C   0  0  0  0  0  0  0  0  0  0  0  0
  -30.7880  -12.7610   18.9600 C   0  0  0  0  0  2  0  0  0  0  0  0
  -29.8130  -12.6340   17.7660 C   0  0  0  0  0  2  0  0  0  0  0  0
  -28.3520  -12.4980   18.2360 C   0  0  0  0  0  2  0  0  0  0  0  0
  -28.0020  -13.4720   19.3840 C   0  0  0  0  0  3  0  0  0  0  0  0
  -29.1020  -13.5470   20.4660 C   0  0  0  0  0  2  0  0  0  0  0  0
  -30.3490  -13.9180   19.7900 N   0  0  0  0  0  0  0  0  0  0  0  0
  -32.2000  -15.1790   19.5880 O   0  0  0  0  0  0  0  0  0  0  0  0
  -25.6990  -14.1660   20.2490 C   0  0  0  0  0  0  0  0  0  0  0  0
  -24.6160  -13.4340   20.6600 C   0  0  0  0  0  0  0  0  0  0  0  0
  -25.0140  -12.0660   20.5880 C   0  0  0  0  0  0  0  0  0  0  0  0
  -26.6830  -13.2350   19.9470 N   0  0  0  0  0  0  0  0  0  0  0  0
  -26.2870  -11.9680   20.2240 N   0  0  0  0  0  0  0  0  0  0  0  0
  -24.2370  -10.8350   20.7820 C   0  0  0  0  0  0  0  0  0  0  0  0
  -24.6540   -9.8450   21.6960 C   0  0  0  0  0  3  0  0  0  0  0  0
  -23.8830   -8.6780   21.8810 C   0  0  0  0  0  3  0  0  0  0  0  0
  -22.6810   -8.4980   21.1580 C   0  0  0  0  0  0  0  0  0  0  0  0
  -22.2840   -9.4770   20.2310 C   0  0  0  0  0  3  0  0  0  0  0  0
  -23.0540  -10.6360   20.0410 C   0  0  0  0  0  3  0  0  0  0  0  0
  -21.8790   -7.3880   21.2600 O   0  0  0  0  0  0  0  0  0  0  0  0
  -21.8050   -6.6590   22.4200 C   0  0  0  0  0  0  0  0  0  0  0  0
  -21.4280   -7.2440   23.6490 C   0  0  0  0  0  3  0  0  0  0  0  0
  -21.2940   -6.4390   24.7980 C   0  0  0  0  0  3  0  0  0  0  0  0
  -21.5290   -5.0530   24.7210 C   0  0  0  0  0  0  0  0  0  0  0  0
  -21.9030   -4.4710   23.4990 C   0  0  0  0  0  3  0  0  0  0  0  0
  -22.0360   -5.2710   22.3500 C   0  0  0  0  0  0  0  0  0  0  0  0
  -22.3700   -4.7010   21.1670 F   0  0  0  0  0  0  0  0  0  0  0  0
  -21.4000   -4.2780   25.8250 F   0  0  0  0  0  0  0  0  0  0  0  0
  -23.2570  -13.9730   20.9940 C   0  0  0  0  0  0  0  0  0  0  0  0
  -22.5490  -13.3020   21.8960 N   0  0  0  0  0  0  0  0  0  0  0  0
  -22.8350  -15.0110   20.4920 O   0  0  0  0  0  0  0  0  0  0  0  0
  -22.9070  -12.4590   22.3140 H   0  0  0  0  0  0  0  0  0  0  0  0
  -21.6330  -13.6320   22.1630 H   0  0  0  0  0  0  0  0  0  0  0  0
  -25.9150  -15.5290   20.0810 N   0  0  0  0  0  0  0  0  0  0  0  0
  -25.2180  -16.2210   20.3360 H   0  0  0  0  0  0  0  0  0  0  0  0
  -26.7480  -15.9400   19.6720 H   0  0  0  0  0  0  0  0  0  0  0  0
  -29.0270  -23.3710   20.0720 C   0  0  0  0  0  2  0  0  0  0  0  0
  -26.9070  -24.6210   21.0130 C   0  0  0  0  0  1  0  0  0  0  0  0
  -29.1360  -25.1460   22.0200 C   0  0  0  0  0  1  0  0  0  0  0  0
  -28.4020  -24.8490   20.6990 C   0  0  1  0  0  0  0  0  0  0  0  0
  -28.4960  -26.2750   20.0330 O   0  0  0  0  0  0  0  0  0  0  0  0
  -24.5760  -31.7620   23.0770 C   0  0  0  0  0  0  0  0  0  0  0  0
  -27.4230  -27.2470   19.9970 C   0  0  0  0  0  0  0  0  0  0  0  0
  -23.4770  -30.3550   21.3750 C   0  0  0  0  0  3  0  0  0  0  0  0
  -25.0280  -28.8880   19.9440 C   0  0  0  0  0  0  0  0  0  0  0  0
  -26.0200  -30.7340   21.2830 C   0  0  0  0  0  2  0  0  0  0  0  0
  -26.1680  -29.3640   20.6040 C   0  0  0  0  0  0  0  0  0  0  0  0
  -27.3690  -28.5560   20.6240 C   0  0  0  0  0  3  0  0  0  0  0  0
  -26.2740  -26.9030   19.2550 C   0  0  0  0  0  3  0  0  0  0  0  0
  -25.0930  -27.6720   19.2520 C   0  0  0  0  0  3  0  0  0  0  0  0
  -23.7570  -29.7170   19.9860 C   0  0  0  0  0  2  0  0  0  0  0  0
  -24.7070  -30.9750   21.9660 N   0  0  0  0  0  0  0  0  0  0  0  0
  -23.4660  -31.9860   23.5860 O   0  0  0  0  0  0  0  0  0  0  0  0
  -22.8210  -29.3010   22.2990 C   0  0  0  0  0  0  0  0  0  0  0  0
  -21.4960  -29.1040   22.1680 N   0  0  0  0  0  0  0  0  0  0  0  0
  -23.5060  -28.6600   23.1020 O   0  0  0  0  0  0  0  0  0  0  0  0
  -20.9980  -29.6720   21.4950 H   0  0  0  0  0  0  0  0  0  0  0  0
  -18.1360  -27.8400   22.6700 C   0  0  0  0  0  0  0  0  0  0  0  0
  -20.6980  -28.1210   22.9040 C   0  0  0  0  0  3  0  0  0  0  0  0
  -20.8040  -26.7180   22.2590 C   0  0  0  0  0  2  0  0  0  0  0  0
  -19.6870  -26.4350   21.2490 C   0  0  0  0  0  2  0  0  0  0  0  0
  -18.3150  -26.5300   21.9210 C   0  0  0  0  0  2  0  0  0  0  0  0
  -19.2540  -28.5940   23.1180 C   0  0  0  0  0  0  0  0  0  0  0  0
  -19.0280  -29.8200   23.7800 C   0  0  0  0  0  3  0  0  0  0  0  0
  -17.7200  -30.2920   23.9980 C   0  0  0  0  0  3  0  0  0  0  0  0
  -16.6180  -29.5350   23.5620 C   0  0  0  0  0  3  0  0  0  0  0  0
  -16.8280  -28.3110   22.9030 C   0  0  0  0  0  3  0  0  0  0  0  0
  -25.8110  -32.4350   23.7480 C   0  0  0  0  0  3  0  0  0  0  0  0
  -26.3190  -31.6640   25.0280 C   0  0  1  0  0  0  0  0  0  0  0  0
  -25.2080  -31.3710   26.0630 C   0  0  0  0  0  1  0  0  0  0  0  0
  -26.9640  -30.3130   24.6430 C   0  0  0  0  0  1  0  0  0  0  0  0
  -27.4220  -32.4930   25.7320 C   0  0  0  0  0  1  0  0  0  0  0  0
  -25.4360  -33.8150   24.1000 N   0  0  0  0  0  0  0  0  0  0  0  0
  -25.7410  -34.8990   23.3730 C   0  0  0  0  0  0  0  0  0  0  0  0
  -26.4360  -34.8450   22.3560 O   0  0  0  0  0  0  0  0  0  0  0  0
  -24.8200  -33.9270   24.8920 H   0  0  0  0  0  0  0  0  0  0  0  0
  -23.9500  -36.6320   23.0240 C   0  0  0  0  0  1  0  0  0  0  0  0
  -25.1900  -36.2580   23.8510 C   0  0  0  0  0  3  0  0  0  0  0  0
  -27.2750  -37.2070   24.7380 C   0  0  0  0  0  1  0  0  0  0  0  0
  -26.1820  -37.3540   23.7810 N   0  0  0  0  0  0  0  0  0  0  0  0
  -25.7360  -38.2520   23.9430 H   0  0  0  0  0  0  0  0  0  0  0  0
  3  2  1  1
  3  1  1  0
  4  8  2  0
  5  7  1  0
  5  6  1  0
  6  9  1  0
  6  4  1  0
  7  4  1  0
  7  3  1  0
  9 12  1  0
 10  9  2  0
 11 10  1  0
 12 18  1  0
 13 18  1  0
 14 15  1  0
 14 13  1  0
 16 15  1  0
 16 23  1  0
 16 17  1  0
 18 17  1  0
 19 12  2  0
 20 21  2  0
 21 40  1  0
 22 21  1  0
 22 25  1  0
 23 24  1  0
 23 20  1  0
 24 22  2  0
 25 26  1  0
 26 27  2  0
 28 31  1  0
 28 27  1  0
 29 28  2  0
 30 29  1  0
 30 25  2  0
 31 32  1  0
 32 33  1  0
 33 34  2  0
 35 34  1  0
 35 39  1  0
 36 35  2  0
 37 32  2  0
 37 36  1  0
 38 37  1  0
 40 41  1  0
 41 44  1  0
 41 43  1  0
 42 40  2  0
 45 20  1  0
 45 46  1  0
 47 45  1  0
 48 51  1  0
 48  3  1  0
 51 49  1  1
 51 50  1  0
 52 51  1  0
 53 64  2  0
 54 52  1  0
 54 59  1  0
 55 63  1  0
 55 65  1  0
 56 62  1  0
 56 58  1  0
 57 63  1  0
 58 59  2  0
 58 57  1  0
 60 54  2  0
 61 60  1  0
 61 56  2  0
 62 55  1  0
 63 53  1  0
 65 67  2  0
 66 65  1  0
 68 66  1  0
 69 78  2  0
 69 74  1  0
 70 66  1  0
 70 74  1  0
 71 70  1  0
 72 73  1  0
 72 71  1  0
 73 69  1  0
 74 75  2  0
 75 76  1  0
 77 76  2  0
 78 77  1  0
 79 53  1  0
 79 84  1  0
 79 80  1  0
 80 83  1  1
 80 81  1  0
 82 80  1  0
 84 87  1  0
 85 89  1  0
 85 84  1  0
 86 85  2  0
 89 88  1  0
 91 89  1  0
 91 92  1  0
 91 90  1  0
M  ISO  4   9 100  12 100  51 101  52 101
M  END
>  <TORSDO>  (73) 
F 20

>  <SCORE>  (73) 
-14.606

>  <name>  (73) 
72

>  <ligand_id>  (73) 
72

>  <original_smiles>  (73) 
[H]N=C(C(=O)N1C([H])([H])C([H])([H])C([H])([H])C([H])(n2nc(-c3c([H])c([H])c(Oc4c([H])c([H])c(F)c([H])c4F)c([H])c3[H])c(C(=O)N([H])[H])c2N([H])[H])C1([H])[H])C1([H])C(=O)C([H])(C(C([H])([H])[H])(C([H])([H])[H])C([H])([H])C(Oc2c([H])c([H])c3c(c2[H])C([H])([H])N(C(=O)C([H])(N([H])C(=O)C([H])(N([H])C([H])([H])[H])C([H])([H])[H])C(C([H])([H])[H])(C([H])([H])[H])C([H])([H])[H])C([H])(C(=O)N([H])C2([H])c4c([H])c([H])c([H])c([H])c4C([H])([H])C([H])([H])C2([H])[H])C3([H])[H])(C([H])([H])[H])C([H])([H])[H])C1([H])[H]

>  <smiles>  (73) 
[H]N=C(C(=O)N1C([H])([H])C([H])([H])C([H])([H])C([H])(n2nc(-c3c([H])c([H])c(Oc4c([H])c([H])c(F)c([H])c4F)c([H])c3[H])c(C(=O)N([H])[H])c2N([H])[H])C1([H])[H])C1([H])C(=O)C([H])(C(C([H])([H])[H])(C([H])([H])[H])C([H])([H])C(Oc2c([H])c([H])c3c(c2[H])C([H])([H])N(C(=O)C([H])(N([H])C(=O)C([H])(N([H])C([H])([H])[H])C([H])([H])[H])C(C([H])([H])[H])(C([H])([H])[H])C([H])([H])[H])C([H])(C(=O)N([H])C2([H])c4c([H])c([H])c([H])c([H])c4C([H])([H])C([H])([H])C2([H])[H])C3([H])[H])(C([H])([H])[H])C([H])([H])[H])C1([H])[H]

$$$$
73:0:0
     RDKit          3D

 89 97  0  0  1  0  0  0  0  0999 V2000
  -28.5060  -22.1980   20.7960 C   0  0  0  0  0  3  0  0  0  0  0  0
  -29.7480  -20.0620   19.4810 C   0  0  0  0  0  0  0  0  0  0  0  0
  -28.6960  -19.4830   21.1520 C   0  0  0  0  0  2  0  0  0  0  0  0
  -29.2060  -18.6330   19.9580 C   0  0  0  0  0  3  0  0  0  0  0  0
  -28.9820  -20.7710   20.4190 N   0  0  0  0  0  0  0  0  0  0  0  0
  -30.4710  -20.4720   18.5960 O   0  0  0  0  0  0  0  0  0  0  0  0
  -30.1860  -17.3500   20.1970 C   0  0  0  0  0  3  0  0  0  0  0  0
  -31.6210  -17.7640   20.5200 C   0  0  0  0  0  1  0  0  0  0  0  0
  -29.7930  -16.0740   20.1170 N   0  0  0  0  0  2  0  0  0  0  0  0
  -30.6600  -14.9100   20.0020 C   0  0  0  0  0  0  0  0  0  0  0  0
  -30.4680  -12.5860   19.0890 C   0  0  0  0  0  2  0  0  0  0  0  0
  -29.4940  -12.6310   17.8880 C   0  0  0  0  0  2  0  0  0  0  0  0
  -28.0350  -12.4570   18.3590 C   0  0  0  0  0  2  0  0  0  0  0  0
  -27.6920  -13.3620   19.5710 C   0  0  0  0  0  3  0  0  0  0  0  0
  -28.7850  -13.3150   20.6560 C   0  0  0  0  0  2  0  0  0  0  0  0
  -30.0660  -13.6620   20.0290 N   0  0  0  0  0  0  0  0  0  0  0  0
  -31.8520  -14.9570   19.6900 O   0  0  0  0  0  0  0  0  0  0  0  0
  -25.3450  -13.9550   20.4190 C   0  0  0  0  0  0  0  0  0  0  0  0
  -24.2900  -13.1820   20.8220 C   0  0  0  0  0  0  0  0  0  0  0  0
  -24.7410  -11.8290   20.7550 C   0  0  0  0  0  0  0  0  0  0  0  0
  -26.3690  -13.0710   20.1190 N   0  0  0  0  0  0  0  0  0  0  0  0
  -26.0160  -11.7860   20.3870 N   0  0  0  0  0  0  0  0  0  0  0  0
  -24.0140  -10.5680   20.9610 C   0  0  0  0  0  0  0  0  0  0  0  0
  -24.4550   -9.6000   21.8910 C   0  0  0  0  0  3  0  0  0  0  0  0
  -23.7260   -8.4070   22.0820 C   0  0  0  0  0  3  0  0  0  0  0  0
  -22.5410   -8.1720   21.3430 C   0  0  0  0  0  0  0  0  0  0  0  0
  -22.1210   -9.1280   20.4010 C   0  0  0  0  0  3  0  0  0  0  0  0
  -22.8510  -10.3120   20.2070 C   0  0  0  0  0  3  0  0  0  0  0  0
  -21.7850   -7.0300   21.4430 O   0  0  0  0  0  0  0  0  0  0  0  0
  -21.7250   -6.3050   22.6070 C   0  0  0  0  0  0  0  0  0  0  0  0
  -21.2550   -6.8680   23.8120 C   0  0  0  0  0  3  0  0  0  0  0  0
  -21.1410   -6.0680   24.9670 C   0  0  0  0  0  3  0  0  0  0  0  0
  -21.4920   -4.7060   24.9170 C   0  0  0  0  0  0  0  0  0  0  0  0
  -21.9570   -4.1420   23.7160 C   0  0  0  0  0  3  0  0  0  0  0  0
  -22.0690   -4.9380   22.5640 C   0  0  0  0  0  0  0  0  0  0  0  0
  -22.4960   -4.3840   21.4030 F   0  0  0  0  0  0  0  0  0  0  0  0
  -21.3770   -3.9360   26.0240 F   0  0  0  0  0  0  0  0  0  0  0  0
  -22.9080  -13.6670   21.1570 C   0  0  0  0  0  0  0  0  0  0  0  0
  -22.2040  -12.9620   22.0360 N   0  0  0  0  0  0  0  0  0  0  0  0
  -22.4590  -14.7040   20.6720 O   0  0  0  0  0  0  0  0  0  0  0  0
  -22.5810  -12.1270   22.4610 H   0  0  0  0  0  0  0  0  0  0  0  0
  -21.2780  -13.2690   22.2960 H   0  0  0  0  0  0  0  0  0  0  0  0
  -25.5170  -15.3270   20.2600 N   0  0  0  0  0  0  0  0  0  0  0  0
  -24.7780  -15.9990   20.4320 H   0  0  0  0  0  0  0  0  0  0  0  0
  -26.3830  -15.7530   19.9570 H   0  0  0  0  0  0  0  0  0  0  0  0
  -28.9170  -23.6550   20.1670 C   0  0  0  0  0  3  0  0  0  0  0  0
  -28.2730  -25.0910   22.2410 C   0  0  0  0  0  1  0  0  0  0  0  0
  -28.1140  -24.9880   20.7160 C   0  0  0  0  0  3  0  0  0  0  0  0
  -28.3590  -26.4160   20.2560 O   0  0  0  0  0  0  0  0  0  0  0  0
  -24.5930  -31.9230   23.2340 C   0  0  0  0  0  0  0  0  0  0  0  0
  -27.2680  -27.3250   20.2230 C   0  0  0  0  0  0  0  0  0  0  0  0
  -23.4210  -30.5140   21.5780 C   0  0  0  0  0  3  0  0  0  0  0  0
  -24.9030  -28.9660   20.1700 C   0  0  0  0  0  0  0  0  0  0  0  0
  -25.9650  -30.8360   21.4340 C   0  0  0  0  0  2  0  0  0  0  0  0
  -26.0640  -29.4530   20.7850 C   0  0  0  0  0  0  0  0  0  0  0  0
  -27.2520  -28.6460   20.7950 C   0  0  0  0  0  3  0  0  0  0  0  0
  -26.0860  -26.9180   19.5690 C   0  0  0  0  0  3  0  0  0  0  0  0
  -24.9200  -27.7090   19.5460 C   0  0  0  0  0  3  0  0  0  0  0  0
  -23.6580  -29.8340   20.2040 C   0  0  0  0  0  2  0  0  0  0  0  0
  -24.6780  -31.1110   22.1370 N   0  0  0  0  0  0  0  0  0  0  0  0
  -23.5000  -32.1940   23.7540 O   0  0  0  0  0  0  0  0  0  0  0  0
  -22.7520  -29.4970   22.5340 C   0  0  0  0  0  0  0  0  0  0  0  0
  -21.4290  -29.3110   22.3930 N   0  0  0  0  0  0  0  0  0  0  0  0
  -23.4240  -28.8790   23.3630 O   0  0  0  0  0  0  0  0  0  0  0  0
  -20.9460  -29.8580   21.6920 H   0  0  0  0  0  0  0  0  0  0  0  0
  -18.0530  -28.0990   22.8750 C   0  0  0  0  0  0  0  0  0  0  0  0
  -20.6090  -28.3700   23.1560 C   0  0  0  0  0  3  0  0  0  0  0  0
  -20.7190  -26.9420   22.5750 C   0  0  0  0  0  2  0  0  0  0  0  0
  -19.6240  -26.6180   21.5550 C   0  0  0  0  0  2  0  0  0  0  0  0
  -18.2380  -26.7550   22.1910 C   0  0  0  0  0  2  0  0  0  0  0  0
  -19.1650  -28.8650   23.3120 C   0  0  0  0  0  0  0  0  0  0  0  0
  -18.9390  -30.1220   23.9110 C   0  0  0  0  0  3  0  0  0  0  0  0
  -17.6310  -30.6170   24.0770 C   0  0  0  0  0  3  0  0  0  0  0  0
  -16.5320  -29.8490   23.6540 C   0  0  0  0  0  3  0  0  0  0  0  0
  -16.7440  -28.5930   23.0610 C   0  0  0  0  0  3  0  0  0  0  0  0
  -25.8630  -32.5680   23.8710 C   0  0  0  0  0  3  0  0  0  0  0  0
  -26.3580  -31.8130   25.1650 C   0  0  1  0  0  0  0  0  0  0  0  0
  -25.2450  -31.5800   26.2120 C   0  0  0  0  0  1  0  0  0  0  0  0
  -26.9600  -30.4350   24.8040 C   0  0  0  0  0  1  0  0  0  0  0  0
  -27.4880  -32.6240   25.8450 C   0  0  0  0  0  1  0  0  0  0  0  0
  -25.5420  -33.9690   24.1860 N   0  0  0  0  0  0  0  0  0  0  0  0
  -25.8810  -35.0180   23.4260 C   0  0  0  0  0  0  0  0  0  0  0  0
  -26.5680  -34.9110   22.4070 O   0  0  0  0  0  0  0  0  0  0  0  0
  -24.9410  -34.1260   24.9820 H   0  0  0  0  0  0  0  0  0  0  0  0
  -24.1630  -36.8100   23.0200 C   0  0  0  0  0  1  0  0  0  0  0  0
  -25.3810  -36.4080   23.8660 C   0  0  0  0  0  3  0  0  0  0  0  0
  -27.4880  -37.3000   24.7580 C   0  0  0  0  0  1  0  0  0  0  0  0
  -26.4150  -37.4620   23.7790 N   0  0  0  0  0  0  0  0  0  0  0  0
  -26.0040  -38.3820   23.9080 H   0  0  0  0  0  0  0  0  0  0  0  0
  2  4  1  0
  2  5  1  0
  4  7  1  0
  4  3  1  0
  5  1  1  0
  5  3  1  0
  6  2  2  0
  7  8  1  0
  9  7  1  0
 10 16  1  0
 10  9  1  0
 11 16  1  0
 12 13  1  0
 12 11  1  0
 14 13  1  0
 14 21  1  0
 14 15  1  0
 16 15  1  0
 17 10  2  0
 18 19  2  0
 19 38  1  0
 20 19  1  0
 20 23  1  0
 21 22  1  0
 21 18  1  0
 22 20  2  0
 23 24  1  0
 24 25  2  0
 26 29  1  0
 26 25  1  0
 27 26  2  0
 28 27  1  0
 28 23  2  0
 29 30  1  0
 30 31  1  0
 31 32  2  0
 33 32  1  0
 33 37  1  0
 34 33  2  0
 35 30  2  0
 35 34  1  0
 36 35  1  0
 38 39  1  0
 39 42  1  0
 39 41  1  0
 40 38  2  0
 43 18  1  0
 43 44  1  0
 45 43  1  0
 46 48  1  0
 46  1  2  0
 48 47  1  0
 49 48  1  0
 50 61  2  0
 51 49  1  0
 51 56  1  0
 52 60  1  0
 52 62  1  0
 53 59  1  0
 53 55  1  0
 54 60  1  0
 55 56  2  0
 55 54  1  0
 57 51  2  0
 58 57  1  0
 58 53  2  0
 59 52  1  0
 60 50  1  0
 62 64  2  0
 63 62  1  0
 65 63  1  0
 66 75  2  0
 66 71  1  0
 67 63  1  0
 67 71  1  0
 68 67  1  0
 69 70  1  0
 69 68  1  0
 70 66  1  0
 71 72  2  0
 72 73  1  0
 74 73  2  0
 75 74  1  0
 76 50  1  0
 76 81  1  0
 76 77  1  0
 77 80  1  1
 77 78  1  0
 79 77  1  0
 81 84  1  0
 82 86  1  0
 82 81  1  0
 83 82  2  0
 86 85  1  0
 88 86  1  0
 88 89  1  0
 88 87  1  0
M  ISO  4   9 100  10 100  48 101  49 101
M  END
>  <TORSDO>  (74) 
F 20

>  <SCORE>  (74) 
-13.511

>  <name>  (74) 
73

>  <ligand_id>  (74) 
73

>  <original_smiles>  (74) 
[H]c1c([H])c([H])c2c(c1[H])C([H])([H])C([H])([H])C([H])([H])C2([H])N([H])C(=O)C1([H])N(C(=O)C([H])(N([H])C(=O)C([H])(N([H])C([H])([H])[H])C([H])([H])[H])C(C([H])([H])[H])(C([H])([H])[H])C([H])([H])[H])C([H])([H])c2c([H])c(OC([H])(C([H])([H])[H])C([H])([H])C([H])([H])N3C(=O)C([H])(C(=NC(=O)N4C([H])([H])C([H])([H])C([H])([H])C([H])(n5nc(-c6c([H])c([H])c(Oc7c([H])c([H])c(F)c([H])c7F)c([H])c6[H])c(C(=O)N([H])[H])c5N([H])[H])C4([H])[H])C([H])([H])[H])C3([H])[H])c([H])c([H])c2C1([H])[H]

>  <smiles>  (74) 
[H]c1c([H])c([H])c2c(c1[H])C([H])([H])C([H])([H])C([H])([H])C2([H])N([H])C(=O)C1([H])N(C(=O)C([H])(N([H])C(=O)C([H])(N([H])C([H])([H])[H])C([H])([H])[H])C(C([H])([H])[H])(C([H])([H])[H])C([H])([H])[H])C([H])([H])c2c([H])c(OC([H])(C([H])([H])[H])C([H])([H])C([H])([H])N3C(=O)C([H])(C(=NC(=O)N4C([H])([H])C([H])([H])C([H])([H])C([H])(n5nc(-c6c([H])c([H])c(Oc7c([H])c([H])c(F)c([H])c7F)c([H])c6[H])c(C(=O)N([H])[H])c5N([H])[H])C4([H])[H])C([H])([H])[H])C3([H])[H])c([H])c([H])c2C1([H])[H]

$$$$
74:0:0
     RDKit          3D

 91 99  0  0  1  0  0  0  0  0999 V2000
  -28.8900  -21.0800   20.5350 C   0  0  0  0  0  2  0  0  0  0  0  0
  -29.1870  -18.5250   18.5680 C   0  0  0  0  0  0  0  0  0  0  0  0
  -29.9110  -19.8770   18.5780 C   0  0  0  0  0  2  0  0  0  0  0  0
  -29.2670  -18.4510   20.1050 C   0  0  0  0  0  3  0  0  0  0  0  0
  -29.7550  -19.9070   20.0460 N   0  0  2  0  0  4  0  0  0  0  0  0
  -28.7340  -17.7950   17.6810 O   0  0  0  0  0  0  0  0  0  0  0  0
  -30.6560  -19.9570   20.4990 H   0  0  0  0  0  0  0  0  0  0  0  0
  -30.2920  -17.2910   20.5490 C   0  0  0  0  0  2  0  0  0  0  0  0
  -30.6000  -14.7140   20.3780 C   0  0  0  0  0  0  0  0  0  0  0  0
  -30.3770  -12.4740   19.3500 C   0  0  0  0  0  2  0  0  0  0  0  0
  -29.4300  -12.5800   18.1350 C   0  0  0  0  0  2  0  0  0  0  0  0
  -27.9620  -12.3990   18.5650 C   0  0  0  0  0  2  0  0  0  0  0  0
  -27.5920  -13.2770   19.7900 C   0  0  0  0  0  3  0  0  0  0  0  0
  -28.6550  -13.1660   20.9050 C   0  0  0  0  0  2  0  0  0  0  0  0
  -29.9590  -13.5050   20.3160 N   0  0  0  0  0  0  0  0  0  0  0  0
  -31.7880  -14.8200   20.0630 O   0  0  0  0  0  0  0  0  0  0  0  0
  -29.8350  -15.8380   20.5700 N   0  0  0  0  0  0  0  0  0  0  0  0
  -28.8550  -15.6700   20.7500 H   0  0  0  0  0  0  0  0  0  0  0  0
  -25.2030  -13.8640   20.5300 C   0  0  0  0  0  0  0  0  0  0  0  0
  -24.1430  -13.0890   20.9070 C   0  0  0  0  0  0  0  0  0  0  0  0
  -24.6120  -11.7390   20.8730 C   0  0  0  0  0  0  0  0  0  0  0  0
  -26.2520  -12.9910   20.2900 N   0  0  0  0  0  0  0  0  0  0  0  0
  -25.9010  -11.7070   20.5590 N   0  0  0  0  0  0  0  0  0  0  0  0
  -23.8950  -10.4730   21.0630 C   0  0  0  0  0  0  0  0  0  0  0  0
  -24.3350   -9.5050   21.9940 C   0  0  0  0  0  3  0  0  0  0  0  0
  -23.6160   -8.3030   22.1710 C   0  0  0  0  0  3  0  0  0  0  0  0
  -22.4430   -8.0590   21.4170 C   0  0  0  0  0  0  0  0  0  0  0  0
  -22.0230   -9.0150   20.4760 C   0  0  0  0  0  3  0  0  0  0  0  0
  -22.7430  -10.2080   20.2970 C   0  0  0  0  0  3  0  0  0  0  0  0
  -21.6940   -6.9110   21.5060 O   0  0  0  0  0  0  0  0  0  0  0  0
  -21.6520   -6.1670   22.6580 C   0  0  0  0  0  0  0  0  0  0  0  0
  -21.2150   -6.7130   23.8840 C   0  0  0  0  0  3  0  0  0  0  0  0
  -21.1200   -5.8930   25.0260 C   0  0  0  0  0  3  0  0  0  0  0  0
  -21.4510   -4.5280   24.9440 C   0  0  0  0  0  0  0  0  0  0  0  0
  -21.8800   -3.9790   23.7220 C   0  0  0  0  0  3  0  0  0  0  0  0
  -21.9760   -4.7960   22.5820 C   0  0  0  0  0  0  0  0  0  0  0  0
  -22.3690   -4.2600   21.4020 F   0  0  0  0  0  0  0  0  0  0  0  0
  -21.3520   -3.7380   26.0390 F   0  0  0  0  0  0  0  0  0  0  0  0
  -22.7450  -13.5550   21.1860 C   0  0  0  0  0  0  0  0  0  0  0  0
  -22.0190  -12.8510   22.0500 N   0  0  0  0  0  0  0  0  0  0  0  0
  -22.3020  -14.5800   20.6700 O   0  0  0  0  0  0  0  0  0  0  0  0
  -22.3920  -12.0280   22.4980 H   0  0  0  0  0  0  0  0  0  0  0  0
  -21.0760  -13.1410   22.2700 H   0  0  0  0  0  0  0  0  0  0  0  0
  -25.3530  -15.2410   20.3490 N   0  0  0  0  0  0  0  0  0  0  0  0
  -24.5700  -15.8750   20.4550 H   0  0  0  0  0  0  0  0  0  0  0  0
  -26.1710  -15.6880   19.9620 H   0  0  0  0  0  0  0  0  0  0  0  0
  -30.8490  -22.7730   20.4730 C   0  0  0  0  0  1  0  0  0  0  0  0
  -29.3570  -22.5750   20.1180 C   0  0  0  0  0  3  0  0  0  0  0  0
  -28.5360  -23.8630   20.6550 C   0  0  0  0  0  2  0  0  0  0  0  0
  -28.5430  -25.1950   19.7590 C   0  0  0  0  0  2  0  0  0  0  0  0
  -28.3830  -26.5520   20.3370 O   0  0  0  0  0  0  0  0  0  0  0  0
  -24.5880  -31.9070   23.2420 C   0  0  0  0  0  0  0  0  0  0  0  0
  -27.2290  -27.3460   20.2250 C   0  0  0  0  0  0  0  0  0  0  0  0
  -23.3880  -30.5000   21.6000 C   0  0  0  0  0  3  0  0  0  0  0  0
  -24.8500  -28.9460   20.1800 C   0  0  0  0  0  0  0  0  0  0  0  0
  -25.9270  -30.8310   21.4160 C   0  0  0  0  0  2  0  0  0  0  0  0
  -26.0090  -29.4480   20.7810 C   0  0  0  0  0  0  0  0  0  0  0  0
  -27.1970  -28.6580   20.7910 C   0  0  0  0  0  3  0  0  0  0  0  0
  -26.0450  -26.8910   19.6030 C   0  0  0  0  0  3  0  0  0  0  0  0
  -24.8760  -27.6780   19.5720 C   0  0  0  0  0  3  0  0  0  0  0  0
  -23.6040  -29.8110   20.2220 C   0  0  0  0  0  2  0  0  0  0  0  0
  -24.6520  -31.0980   22.1410 N   0  0  0  0  0  0  0  0  0  0  0  0
  -23.5050  -32.1840   23.7770 O   0  0  0  0  0  0  0  0  0  0  0  0
  -22.7260  -29.4910   22.5710 C   0  0  0  0  0  0  0  0  0  0  0  0
  -21.4000  -29.3120   22.4420 N   0  0  0  0  0  0  0  0  0  0  0  0
  -23.4010  -28.8710   23.3960 O   0  0  0  0  0  0  0  0  0  0  0  0
  -20.9190  -29.8570   21.7420 H   0  0  0  0  0  0  0  0  0  0  0  0
  -18.0220  -28.1100   22.9270 C   0  0  0  0  0  0  0  0  0  0  0  0
  -20.5780  -28.3780   23.2150 C   0  0  0  0  0  3  0  0  0  0  0  0
  -20.6910  -26.9450   22.6470 C   0  0  0  0  0  2  0  0  0  0  0  0
  -19.5990  -26.6100   21.6290 C   0  0  0  0  0  2  0  0  0  0  0  0
  -18.2090  -26.7550   22.2600 C   0  0  0  0  0  2  0  0  0  0  0  0
  -19.1350  -28.8780   23.3620 C   0  0  0  0  0  0  0  0  0  0  0  0
  -18.9110  -30.1400   23.9510 C   0  0  0  0  0  3  0  0  0  0  0  0
  -17.6050  -30.6410   24.1040 C   0  0  0  0  0  3  0  0  0  0  0  0
  -16.5060  -29.8700   23.6910 C   0  0  0  0  0  3  0  0  0  0  0  0
  -16.7130  -28.6070   23.1090 C   0  0  0  0  0  3  0  0  0  0  0  0
  -25.8670  -32.5440   23.8640 C   0  0  0  0  0  3  0  0  0  0  0  0
  -25.5540  -33.9430   24.1850 N   0  0  0  0  0  0  0  0  0  0  0  0
  -25.8950  -34.9960   23.4280 C   0  0  0  0  0  0  0  0  0  0  0  0
  -26.5740  -34.8870   22.4030 O   0  0  0  0  0  0  0  0  0  0  0  0
  -24.9490  -34.0970   24.9790 H   0  0  0  0  0  0  0  0  0  0  0  0
  -24.1750  -36.7950   23.0530 C   0  0  0  0  0  1  0  0  0  0  0  0
  -25.4050  -36.3870   23.8800 C   0  0  0  0  0  3  0  0  0  0  0  0
  -27.5360  -37.2700   24.7270 C   0  0  0  0  0  1  0  0  0  0  0  0
  -26.4430  -37.4360   23.7730 N   0  0  0  0  0  0  0  0  0  0  0  0
  -26.0390  -38.3600   23.9050 H   0  0  0  0  0  0  0  0  0  0  0  0
  -26.3740  -31.7820   25.1500 C   0  0  1  0  0  0  0  0  0  0  0  0
  -25.2760  -31.5540   26.2170 C   0  0  0  0  0  1  0  0  0  0  0  0
  -26.9570  -30.4010   24.7730 C   0  0  0  0  0  1  0  0  0  0  0  0
  -27.5220  -32.5810   25.8060 C   0  0  0  0  0  1  0  0  0  0  0  0
  2  3  1  0
  2  4  1  0
  3  5  1  0
  4  8  1  0
  5  4  1  0
  5  7  1  1
  5  1  1  0
  6  2  2  0
  8 17  1  0
  9 17  1  0
 10 15  1  0
 11 12  1  0
 11 10  1  0
 13 12  1  0
 13 22  1  0
 13 14  1  0
 15  9  1  0
 15 14  1  0
 16  9  2  0
 17 18  1  0
 19 20  2  0
 20 39  1  0
 21 20  1  0
 21 24  1  0
 22 19  1  0
 22 23  1  0
 23 21  2  0
 24 25  1  0
 25 26  2  0
 27 30  1  0
 27 26  1  0
 28 27  2  0
 29 28  1  0
 29 24  2  0
 30 31  1  0
 31 32  1  0
 32 33  2  0
 34 33  1  0
 34 38  1  0
 35 34  2  0
 36 31  2  0
 36 35  1  0
 37 36  1  0
 39 40  1  0
 40 43  1  0
 40 42  1  0
 41 39  2  0
 44 45  1  0
 44 19  1  0
 46 44  1  0
 48 47  1  0
 48  1  1  0
 48 49  1  0
 50 51  1  0
 50 49  1  0
 52 63  2  0
 53 51  1  0
 53 58  1  0
 54 62  1  0
 54 64  1  0
 55 61  1  0
 55 57  1  0
 56 62  1  0
 57 58  2  0
 57 56  1  0
 59 53  2  0
 60 59  1  0
 60 55  2  0
 61 54  1  0
 62 52  1  0
 64 66  2  0
 65 64  1  0
 67 65  1  0
 68 77  2  0
 68 73  1  0
 69 65  1  0
 69 73  1  0
 70 69  1  0
 71 72  1  0
 71 70  1  0
 72 68  1  0
 73 74  2  0
 74 75  1  0
 76 75  2  0
 77 76  1  0
 78 52  1  0
 78 79  1  0
 78 88  1  0
 79 82  1  0
 80 84  1  0
 80 79  1  0
 81 80  2  0
 84 83  1  0
 86 84  1  0
 86 87  1  0
 86 85  1  0
 88 91  1  1
 88 89  1  0
 90 88  1  0
M  ISO  4   9 100  17 100  50 101  51 101
M  END
>  <TORSDO>  (75) 
F 21

>  <SCORE>  (75) 
-13.471

>  <name>  (75) 
74

>  <ligand_id>  (75) 
74

>  <original_smiles>  (75) 
[H]c1c([H])c([H])c2c(c1[H])C([H])([H])C([H])([H])C([H])([H])C2([H])N([H])C(=O)C1([H])N(C(=O)C([H])(N([H])C(=O)C([H])(N([H])C([H])([H])[H])C([H])([H])[H])C(C([H])([H])[H])(C([H])([H])[H])C([H])([H])[H])C([H])([H])c2c([H])c(OC([H])([H])C([H])([H])C([H])(C([H])([H])[H])C([H])([H])[N+]3([H])C([H])([H])C(=O)C3([H])C([H])([H])N([H])C(=O)N3C([H])([H])C([H])([H])C([H])([H])C([H])(n4nc(-c5c([H])c([H])c(Oc6c([H])c([H])c(F)c([H])c6F)c([H])c5[H])c(C(=O)N([H])[H])c4N([H])[H])C3([H])[H])c([H])c([H])c2C1([H])[H]

>  <smiles>  (75) 
[H]c1c([H])c([H])c2c(c1[H])C([H])([H])C([H])([H])C([H])([H])C2([H])N([H])C(=O)C1([H])N(C(=O)C([H])(N([H])C(=O)C([H])(N([H])C([H])([H])[H])C([H])([H])[H])C(C([H])([H])[H])(C([H])([H])[H])C([H])([H])[H])C([H])([H])c2c([H])c(OC([H])([H])C([H])([H])C([H])(C([H])([H])[H])C([H])([H])[N+]3([H])C([H])([H])C(=O)C3([H])C([H])([H])N([H])C(=O)N3C([H])([H])C([H])([H])C([H])([H])C([H])(n4nc(-c5c([H])c([H])c(Oc6c([H])c([H])c(F)c([H])c6F)c([H])c5[H])c(C(=O)N([H])[H])c4N([H])[H])C3([H])[H])c([H])c([H])c2C1([H])[H]

$$$$
75:0:0
     RDKit          3D

 92100  0  0  1  0  0  0  0  0999 V2000
  -28.5260  -22.1030   21.9140 C   0  0  0  0  0  2  0  0  0  0  0  0
  -28.9930  -23.3400   20.2570 C   0  0  0  0  0  3  0  0  0  0  0  0
  -28.5620  -21.7180   20.4290 C   0  0  2  0  0  0  0  0  0  0  0  0
  -29.4300  -23.2250   21.6420 N   0  0  0  0  0  4  0  0  0  0  0  0
  -30.3910  -22.9310   21.6880 H   0  0  0  0  0  0  0  0  0  0  0  0
  -29.2690  -24.0470   22.2010 H   0  0  0  0  0  0  0  0  0  0  0  0
  -27.2270  -21.3640   19.8100 C   0  0  0  0  0  3  0  0  0  0  0  0
  -26.6910  -21.9420   18.8620 O   0  0  0  0  0  0  0  0  0  0  0  0
  -29.3230  -19.1490   20.4810 C   0  0  0  0  0  3  0  0  0  0  0  0
  -29.5230  -20.4650   20.1830 N   0  0  0  0  0  0  0  0  0  0  0  0
  -30.8710  -17.9630   18.7820 C   0  0  0  0  0  1  0  0  0  0  0  0
  -30.3020  -17.8120   20.2060 C   0  0  0  0  0  3  0  0  0  0  0  0
  -30.6660  -15.0760   20.3010 C   0  0  0  0  0  0  0  0  0  0  0  0
  -30.5290  -12.7280   19.3560 C   0  0  0  0  0  2  0  0  0  0  0  0
  -29.5870  -12.6860   18.1310 C   0  0  0  0  0  2  0  0  0  0  0  0
  -28.1310  -12.4620   18.5800 C   0  0  0  0  0  2  0  0  0  0  0  0
  -27.7290  -13.3770   19.7650 C   0  0  0  0  0  3  0  0  0  0  0  0
  -28.7960  -13.4040   20.8810 C   0  0  0  0  0  2  0  0  0  0  0  0
  -30.0570  -13.8220   20.2550 N   0  0  0  0  0  0  0  0  0  0  0  0
  -31.8670  -15.1160   20.0210 O   0  0  0  0  0  0  0  0  0  0  0  0
  -29.9140  -16.2830   20.4360 N   0  0  0  0  0  0  0  0  0  0  0  0
  -28.9400  -16.1340   20.6490 H   0  0  0  0  0  0  0  0  0  0  0  0
  -25.3590  -13.9300   20.5550 C   0  0  0  0  0  0  0  0  0  0  0  0
  -24.3030  -13.1430   20.9230 C   0  0  0  0  0  0  0  0  0  0  0  0
  -24.7720  -11.7960   20.8600 C   0  0  0  0  0  0  0  0  0  0  0  0
  -26.4010  -13.0620   20.2800 N   0  0  0  0  0  0  0  0  0  0  0  0
  -26.0590  -11.7700   20.5310 N   0  0  0  0  0  0  0  0  0  0  0  0
  -24.0520  -10.5270   21.0350 C   0  0  0  0  0  0  0  0  0  0  0  0
  -24.4750   -9.5600   21.9730 C   0  0  0  0  0  3  0  0  0  0  0  0
  -23.7530   -8.3580   22.1380 C   0  0  0  0  0  3  0  0  0  0  0  0
  -22.5930   -8.1140   21.3640 C   0  0  0  0  0  0  0  0  0  0  0  0
  -22.1890   -9.0710   20.4150 C   0  0  0  0  0  3  0  0  0  0  0  0
  -22.9130  -10.2650   20.2490 C   0  0  0  0  0  3  0  0  0  0  0  0
  -21.8440   -6.9650   21.4370 O   0  0  0  0  0  0  0  0  0  0  0  0
  -21.7440   -6.2440   22.6000 C   0  0  0  0  0  0  0  0  0  0  0  0
  -21.2330   -6.8120   23.7870 C   0  0  0  0  0  3  0  0  0  0  0  0
  -21.0820   -6.0160   24.9400 C   0  0  0  0  0  3  0  0  0  0  0  0
  -21.4310   -4.6530   24.9060 C   0  0  0  0  0  0  0  0  0  0  0  0
  -21.9360   -4.0840   23.7230 C   0  0  0  0  0  3  0  0  0  0  0  0
  -22.0880   -4.8770   22.5720 C   0  0  0  0  0  0  0  0  0  0  0  0
  -22.5540   -4.3200   21.4290 F   0  0  0  0  0  0  0  0  0  0  0  0
  -21.2800   -3.8860   26.0120 F   0  0  0  0  0  0  0  0  0  0  0  0
  -22.9080  -13.6110   21.2200 C   0  0  0  0  0  0  0  0  0  0  0  0
  -22.1940  -12.9000   22.0840 N   0  0  0  0  0  0  0  0  0  0  0  0
  -22.4620  -14.6430   20.7200 O   0  0  0  0  0  0  0  0  0  0  0  0
  -22.5690  -12.0670   22.5100 H   0  0  0  0  0  0  0  0  0  0  0  0
  -21.2580  -13.1950   22.3240 H   0  0  0  0  0  0  0  0  0  0  0  0
  -25.5150  -15.3050   20.4040 N   0  0  0  0  0  0  0  0  0  0  0  0
  -24.7430  -15.9490   20.5400 H   0  0  0  0  0  0  0  0  0  0  0  0
  -26.3450  -15.7540   20.0400 H   0  0  0  0  0  0  0  0  0  0  0  0
  -28.0060  -24.7070   20.0660 C   0  0  0  0  0  2  0  0  0  0  0  0
  -28.3120  -26.2330   20.2340 O   0  0  0  0  0  0  0  0  0  0  0  0
  -24.6750  -31.8980   23.2780 C   0  0  0  0  0  0  0  0  0  0  0  0
  -27.2590  -27.2250   20.1830 C   0  0  0  0  0  0  0  0  0  0  0  0
  -23.4780  -30.5190   21.6240 C   0  0  0  0  0  3  0  0  0  0  0  0
  -24.9280  -28.9690   20.1770 C   0  0  0  0  0  0  0  0  0  0  0  0
  -26.0320  -30.7940   21.4600 C   0  0  0  0  0  2  0  0  0  0  0  0
  -26.1090  -29.4100   20.7890 C   0  0  0  0  0  0  0  0  0  0  0  0
  -27.2760  -28.5550   20.7710 C   0  0  0  0  0  3  0  0  0  0  0  0
  -26.0480  -26.8900   19.5360 C   0  0  0  0  0  3  0  0  0  0  0  0
  -24.9110  -27.7240   19.5370 C   0  0  0  0  0  3  0  0  0  0  0  0
  -23.7000  -29.8640   20.2360 C   0  0  0  0  0  2  0  0  0  0  0  0
  -24.7480  -31.0910   22.1750 N   0  0  0  0  0  0  0  0  0  0  0  0
  -23.5870  -32.1710   23.8100 O   0  0  0  0  0  0  0  0  0  0  0  0
  -22.8030  -29.4950   22.5730 C   0  0  0  0  0  0  0  0  0  0  0  0
  -21.4770  -29.3170   22.4390 N   0  0  0  0  0  0  0  0  0  0  0  0
  -23.4770  -28.8670   23.3920 O   0  0  0  0  0  0  0  0  0  0  0  0
  -20.9890  -29.8780   21.7540 H   0  0  0  0  0  0  0  0  0  0  0  0
  -18.1010  -28.0940   22.9250 C   0  0  0  0  0  0  0  0  0  0  0  0
  -20.6580  -28.3670   23.1980 C   0  0  0  0  0  3  0  0  0  0  0  0
  -20.7670  -26.9410   22.6090 C   0  0  0  0  0  2  0  0  0  0  0  0
  -19.6680  -26.6230   21.5900 C   0  0  0  0  0  2  0  0  0  0  0  0
  -18.2850  -26.7530   22.2340 C   0  0  0  0  0  2  0  0  0  0  0  0
  -19.2150  -28.8590   23.3630 C   0  0  0  0  0  0  0  0  0  0  0  0
  -18.9860  -30.1120   23.9720 C   0  0  0  0  0  3  0  0  0  0  0  0
  -17.6770  -30.6020   24.1430 C   0  0  0  0  0  3  0  0  0  0  0  0
  -16.5780  -29.8350   23.7180 C   0  0  0  0  0  3  0  0  0  0  0  0
  -16.7910  -28.5820   23.1160 C   0  0  0  0  0  3  0  0  0  0  0  0
  -25.9510  -32.5300   23.9120 C   0  0  0  0  0  3  0  0  0  0  0  0
  -26.4510  -31.7600   25.1960 C   0  0  1  0  0  0  0  0  0  0  0  0
  -25.3460  -31.5250   26.2530 C   0  0  0  0  0  1  0  0  0  0  0  0
  -27.0350  -30.3800   24.8160 C   0  0  0  0  0  1  0  0  0  0  0  0
  -27.5970  -32.5530   25.8680 C   0  0  0  0  0  1  0  0  0  0  0  0
  -25.6400  -33.9300   24.2430 N   0  0  0  0  0  0  0  0  0  0  0  0
  -25.9470  -34.9830   23.4750 C   0  0  0  0  0  0  0  0  0  0  0  0
  -26.5880  -34.8800   22.4260 O   0  0  0  0  0  0  0  0  0  0  0  0
  -25.0670  -34.0830   25.0600 H   0  0  0  0  0  0  0  0  0  0  0  0
  -24.1850  -36.7570   23.1880 C   0  0  0  0  0  1  0  0  0  0  0  0
  -25.4680  -36.3720   23.9420 C   0  0  0  0  0  3  0  0  0  0  0  0
  -27.6270  -37.2910   24.6660 C   0  0  0  0  0  1  0  0  0  0  0  0
  -26.4830  -37.4340   23.7700 N   0  0  0  0  0  0  0  0  0  0  0  0
  -26.0740  -38.3530   23.9220 H   0  0  0  0  0  0  0  0  0  0  0  0
  2 51  1  0
  2  3  1  0
  2  4  1  0
  3  7  1  6
  3  1  1  0
  4  5  1  0
  4  1  1  0
  4  6  1  0
  8  7  2  0
 10  3  1  0
 10  9  2  0
 12 11  1  0
 12 21  1  0
 12  9  1  0
 13 21  1  0
 14 19  1  0
 15 16  1  0
 15 14  1  0
 17 16  1  0
 17 26  1  0
 17 18  1  0
 19 13  1  0
 19 18  1  0
 20 13  2  0
 21 22  1  0
 23 24  2  0
 24 43  1  0
 25 24  1  0
 25 28  1  0
 26 27  1  0
 26 23  1  0
 27 25  2  0
 28 29  1  0
 29 30  2  0
 31 34  1  0
 31 30  1  0
 32 31  2  0
 33 32  1  0
 33 28  2  0
 34 35  1  0
 35 36  1  0
 36 37  2  0
 38 37  1  0
 38 42  1  0
 39 38  2  0
 40 35  2  0
 40 39  1  0
 41 40  1  0
 43 44  1  0
 44 47  1  0
 44 46  1  0
 45 43  2  0
 48 49  1  0
 48 23  1  0
 50 48  1  0
 51 52  1  0
 53 64  2  0
 54 52  1  0
 54 59  1  0
 55 63  1  0
 55 65  1  0
 56 62  1  0
 56 58  1  0
 57 63  1  0
 58 57  1  0
 59 58  2  0
 60 61  1  0
 60 54  2  0
 61 56  2  0
 62 55  1  0
 63 53  1  0
 65 67  2  0
 66 65  1  0
 68 66  1  0
 69 78  2  0
 69 74  1  0
 70 66  1  0
 70 74  1  0
 71 70  1  0
 72 73  1  0
 72 71  1  0
 73 69  1  0
 74 75  2  0
 75 76  1  0
 77 76  2  0
 78 77  1  0
 79 53  1  0
 79 84  1  0
 79 80  1  0
 80 83  1  1
 80 81  1  0
 82 80  1  0
 84 87  1  0
 85 89  1  0
 85 84  1  0
 86 85  2  0
 89 88  1  0
 91 92  1  0
 91 89  1  0
 91 90  1  0
M  ISO  4  13 100  21 100  51 101  52 101
M  END
>  <TORSDO>  (76) 
F 20

>  <SCORE>  (76) 
-14.278

>  <name>  (76) 
75

>  <ligand_id>  (76) 
75

>  <original_smiles>  (76) 
[H]C(=O)C1(N=C([H])C([H])(N([H])C(=O)N2C([H])([H])C([H])([H])C([H])([H])C([H])(n3nc(-c4c([H])c([H])c(Oc5c([H])c([H])c(F)c([H])c5F)c([H])c4[H])c(C(=O)N([H])[H])c3N([H])[H])C2([H])[H])C([H])([H])[H])C([H])([H])[N+]([H])([H])C1([H])C([H])([H])Oc1c([H])c([H])c2c(c1[H])C([H])([H])N(C(=O)C([H])(N([H])C(=O)C([H])(N([H])C([H])([H])[H])C([H])([H])[H])C(C([H])([H])[H])(C([H])([H])[H])C([H])([H])[H])C([H])(C(=O)N([H])C1([H])c3c([H])c([H])c([H])c([H])c3C([H])([H])C([H])([H])C1([H])[H])C2([H])[H]

>  <smiles>  (76) 
[H]C(=O)C1(N=C([H])C([H])(N([H])C(=O)N2C([H])([H])C([H])([H])C([H])([H])C([H])(n3nc(-c4c([H])c([H])c(Oc5c([H])c([H])c(F)c([H])c5F)c([H])c4[H])c(C(=O)N([H])[H])c3N([H])[H])C2([H])[H])C([H])([H])[H])C([H])([H])[N+]([H])([H])C1([H])C([H])([H])Oc1c([H])c([H])c2c(c1[H])C([H])([H])N(C(=O)C([H])(N([H])C(=O)C([H])(N([H])C([H])([H])[H])C([H])([H])[H])C(C([H])([H])[H])(C([H])([H])[H])C([H])([H])[H])C([H])(C(=O)N([H])C1([H])c3c([H])c([H])c([H])c([H])c3C([H])([H])C([H])([H])C1([H])[H])C2([H])[H]

$$$$
76:0:0
     RDKit          3D

 93101  0  0  1  0  0  0  0  0999 V2000
  -30.6310  -18.4470   19.3300 C   0  0  0  0  0  2  0  0  0  0  0  0
  -30.4100  -20.0250   19.3310 C   0  0  0  0  0  2  0  0  0  0  0  0
  -28.7870  -18.9810   20.6260 C   0  0  0  0  0  2  0  0  0  0  0  0
  -29.9410  -17.7980   20.5700 C   0  0  1  0  0  0  0  0  0  0  0  0
  -29.3620  -20.3990   20.3240 N   0  0  2  0  0  4  0  0  0  0  0  0
  -29.8670  -20.6420   21.1640 H   0  0  0  0  0  0  0  0  0  0  0  0
  -30.3960  -15.0460   20.3100 C   0  0  0  0  0  0  0  0  0  0  0  0
  -30.2820  -12.6900   19.3650 C   0  0  0  0  0  2  0  0  0  0  0  0
  -29.3480  -12.6340   18.1350 C   0  0  0  0  0  2  0  0  0  0  0  0
  -27.8850  -12.4190   18.5670 C   0  0  0  0  0  2  0  0  0  0  0  0
  -27.4760  -13.3410   19.7440 C   0  0  0  0  0  3  0  0  0  0  0  0
  -28.5330  -13.3630   20.8680 C   0  0  0  0  0  2  0  0  0  0  0  0
  -29.7980  -13.7850   20.2540 N   0  0  0  0  0  0  0  0  0  0  0  0
  -31.5990  -15.1040   20.0430 O   0  0  0  0  0  0  0  0  0  0  0  0
  -29.6150  -16.2330   20.4710 N   0  0  0  0  0  0  0  0  0  0  0  0
  -28.6370  -16.0310   20.6020 H   0  0  0  0  0  0  0  0  0  0  0  0
  -25.0940  -13.9130   20.4830 C   0  0  0  0  0  0  0  0  0  0  0  0
  -24.0330  -13.1350   20.8540 C   0  0  0  0  0  0  0  0  0  0  0  0
  -24.5020  -11.7860   20.8250 C   0  0  0  0  0  0  0  0  0  0  0  0
  -26.1400  -13.0370   20.2440 N   0  0  0  0  0  0  0  0  0  0  0  0
  -25.7930  -11.7520   20.5170 N   0  0  0  0  0  0  0  0  0  0  0  0
  -23.7770  -10.5220   21.0140 C   0  0  0  0  0  0  0  0  0  0  0  0
  -24.2090   -9.5540   21.9490 C   0  0  0  0  0  3  0  0  0  0  0  0
  -23.4840   -8.3570   22.1270 C   0  0  0  0  0  3  0  0  0  0  0  0
  -22.3120   -8.1170   21.3700 C   0  0  0  0  0  0  0  0  0  0  0  0
  -21.8990   -9.0720   20.4260 C   0  0  0  0  0  3  0  0  0  0  0  0
  -22.6250  -10.2610   20.2460 C   0  0  0  0  0  3  0  0  0  0  0  0
  -21.5590   -6.9710   21.4580 O   0  0  0  0  0  0  0  0  0  0  0  0
  -21.5100   -6.2280   22.6090 C   0  0  0  0  0  0  0  0  0  0  0  0
  -21.0760   -6.7790   23.8350 C   0  0  0  0  0  3  0  0  0  0  0  0
  -20.9760   -5.9610   24.9780 C   0  0  0  0  0  3  0  0  0  0  0  0
  -21.2990   -4.5930   24.8970 C   0  0  0  0  0  0  0  0  0  0  0  0
  -21.7260   -4.0420   23.6770 C   0  0  0  0  0  3  0  0  0  0  0  0
  -21.8280   -4.8560   22.5360 C   0  0  0  0  0  0  0  0  0  0  0  0
  -22.2200   -4.3150   21.3560 F   0  0  0  0  0  0  0  0  0  0  0  0
  -21.1950   -3.8070   25.9930 F   0  0  0  0  0  0  0  0  0  0  0  0
  -22.6340  -13.6080   21.1200 C   0  0  0  0  0  0  0  0  0  0  0  0
  -21.9040  -12.9130   21.9840 N   0  0  0  0  0  0  0  0  0  0  0  0
  -22.1950  -14.6310   20.5940 O   0  0  0  0  0  0  0  0  0  0  0  0
  -22.2710  -12.0850   22.4300 H   0  0  0  0  0  0  0  0  0  0  0  0
  -20.9640  -13.2120   22.2040 H   0  0  0  0  0  0  0  0  0  0  0  0
  -25.2520  -15.2840   20.3010 N   0  0  0  0  0  0  0  0  0  0  0  0
  -24.4730  -15.9270   20.3910 H   0  0  0  0  0  0  0  0  0  0  0  0
  -26.0730  -15.7150   19.8970 H   0  0  0  0  0  0  0  0  0  0  0  0
  -30.8060  -17.9830   21.8420 C   0  0  0  0  0  0  0  0  0  0  0  0
  -30.5520  -17.2090   22.8900 N   0  0  0  0  0  0  0  0  0  0  0  0
  -31.6860  -18.8410   21.9020 O   0  0  0  0  0  0  0  0  0  0  0  0
  -29.8090  -16.5260   22.8460 H   0  0  0  0  0  0  0  0  0  0  0  0
  -31.0870  -17.3050   23.7420 H   0  0  0  0  0  0  0  0  0  0  0  0
  -28.4550  -21.6820   20.0060 C   0  0  0  0  0  2  0  0  0  0  0  0
  -28.9070  -23.3140   20.1950 C   0  0  0  0  0  3  0  0  0  0  0  0
  -27.9070  -24.6650   19.9220 C   0  0  0  0  0  3  0  0  0  0  0  0
  -28.1900  -26.1960   20.1210 O   0  0  0  0  0  0  0  0  0  0  0  0
  -24.5890  -31.8640   23.2130 C   0  0  0  0  0  0  0  0  0  0  0  0
  -27.1370  -27.1920   20.0790 C   0  0  0  0  0  0  0  0  0  0  0  0
  -23.3760  -30.5000   21.5590 C   0  0  0  0  0  3  0  0  0  0  0  0
  -24.8120  -28.9480   20.0960 C   0  0  0  0  0  0  0  0  0  0  0  0
  -25.9300  -30.7630   21.3790 C   0  0  0  0  0  2  0  0  0  0  0  0
  -25.9980  -29.3820   20.7010 C   0  0  0  0  0  0  0  0  0  0  0  0
  -27.1620  -28.5200   20.6720 C   0  0  0  0  0  3  0  0  0  0  0  0
  -25.9210  -26.8640   19.4400 C   0  0  0  0  0  3  0  0  0  0  0  0
  -24.7860  -27.7040   19.4500 C   0  0  0  0  0  3  0  0  0  0  0  0
  -23.5870  -29.8470   20.1680 C   0  0  0  0  0  2  0  0  0  0  0  0
  -24.6530  -31.0630   22.1060 N   0  0  0  0  0  0  0  0  0  0  0  0
  -23.5060  -32.1410   23.7530 O   0  0  0  0  0  0  0  0  0  0  0  0
  -22.7020  -29.4760   22.5080 C   0  0  0  0  0  0  0  0  0  0  0  0
  -21.3740  -29.3030   22.3830 N   0  0  0  0  0  0  0  0  0  0  0  0
  -23.3790  -28.8410   23.3220 O   0  0  0  0  0  0  0  0  0  0  0  0
  -20.8840  -29.8690   21.7040 H   0  0  0  0  0  0  0  0  0  0  0  0
  -18.0010  -28.0720   22.8700 C   0  0  0  0  0  0  0  0  0  0  0  0
  -20.5580  -28.3520   23.1430 C   0  0  0  0  0  3  0  0  0  0  0  0
  -20.6710  -26.9260   22.5550 C   0  0  0  0  0  2  0  0  0  0  0  0
  -19.5730  -26.6040   21.5370 C   0  0  0  0  0  2  0  0  0  0  0  0
  -18.1890  -26.7310   22.1790 C   0  0  0  0  0  2  0  0  0  0  0  0
  -19.1130  -28.8400   23.3090 C   0  0  0  0  0  0  0  0  0  0  0  0
  -18.8820  -30.0930   23.9150 C   0  0  0  0  0  3  0  0  0  0  0  0
  -17.5720  -30.5800   24.0870 C   0  0  0  0  0  3  0  0  0  0  0  0
  -16.4750  -29.8090   23.6640 C   0  0  0  0  0  3  0  0  0  0  0  0
  -16.6900  -28.5580   23.0600 C   0  0  0  0  0  3  0  0  0  0  0  0
  -25.8710  -32.4900   23.8420 C   0  0  0  0  0  3  0  0  0  0  0  0
  -26.3780  -31.7100   25.1180 C   0  0  1  0  0  0  0  0  0  0  0  0
  -25.2810  -31.4790   26.1840 C   0  0  0  0  0  1  0  0  0  0  0  0
  -26.9510  -30.3290   24.7280 C   0  0  0  0  0  1  0  0  0  0  0  0
  -27.5330  -32.4940   25.7840 C   0  0  0  0  0  1  0  0  0  0  0  0
  -25.5660  -33.8880   24.1850 N   0  0  0  0  0  0  0  0  0  0  0  0
  -25.8860  -34.9490   23.4320 C   0  0  0  0  0  0  0  0  0  0  0  0
  -26.5370  -34.8520   22.3880 O   0  0  0  0  0  0  0  0  0  0  0  0
  -24.9860  -34.0370   24.9980 H   0  0  0  0  0  0  0  0  0  0  0  0
  -24.1500  -36.7480   23.1390 C   0  0  0  0  0  1  0  0  0  0  0  0
  -25.4140  -36.3360   23.9120 C   0  0  0  0  0  3  0  0  0  0  0  0
  -27.5690  -37.2200   24.6890 C   0  0  0  0  0  1  0  0  0  0  0  0
  -26.4420  -37.3900   23.7750 N   0  0  0  0  0  0  0  0  0  0  0  0
  -26.0400  -38.3100   23.9340 H   0  0  0  0  0  0  0  0  0  0  0  0
  1  2  1  0
  1  4  1  0
  2  5  1  0
  4  3  1  0
  4 45  1  0
  5  3  1  0
  5  6  1  1
  7 15  1  0
  8 13  1  0
  9 10  1  0
  9  8  1  0
 11 10  1  0
 11 20  1  0
 11 12  1  0
 13  7  1  0
 13 12  1  0
 14  7  2  0
  4 15  1  6
 15 16  1  0
 17 18  2  0
 18 37  1  0
 19 18  1  0
 19 22  1  0
 20 17  1  0
 20 21  1  0
 21 19  2  0
 22 23  1  0
 23 24  2  0
 25 28  1  0
 25 24  1  0
 26 25  2  0
 27 26  1  0
 27 22  2  0
 28 29  1  0
 29 30  1  0
 30 31  2  0
 32 31  1  0
 32 36  1  0
 33 32  2  0
 34 29  2  0
 34 33  1  0
 35 34  1  0
 37 38  1  0
 38 41  1  0
 38 40  1  0
 39 37  2  0
 42 43  1  0
 42 17  1  0
 44 42  1  0
 45 47  2  0
 45 46  1  0
 46 49  1  0
 48 46  1  0
 50 51  1  0
 50  5  1  0
 52 53  1  0
 52 51  2  0
 54 65  2  0
 55 53  1  0
 55 60  1  0
 56 64  1  0
 56 66  1  0
 57 63  1  0
 57 59  1  0
 58 64  1  0
 59 58  1  0
 60 59  2  0
 61 62  1  0
 61 55  2  0
 62 57  2  0
 63 56  1  0
 64 54  1  0
 66 68  2  0
 67 66  1  0
 69 67  1  0
 70 79  2  0
 70 75  1  0
 71 67  1  0
 71 75  1  0
 72 71  1  0
 73 74  1  0
 73 72  1  0
 74 70  1  0
 75 76  2  0
 76 77  1  0
 78 77  2  0
 79 78  1  0
 80 54  1  0
 80 85  1  0
 80 81  1  0
 81 84  1  1
 81 82  1  0
 83 81  1  0
 85 88  1  0
 86 90  1  0
 86 85  1  0
 87 86  2  0
 90 89  1  0
 92 90  1  0
 92 93  1  0
 92 91  1  0
M  ISO  4   7 100  15 100  52 101  53 101
M  END
>  <TORSDO>  (77) 
F 20

>  <SCORE>  (77) 
-15.231

>  <name>  (77) 
76

>  <ligand_id>  (77) 
76

>  <original_smiles>  (77) 
[H]c1c([H])c([H])c2c(c1[H])C([H])([H])C([H])([H])C([H])([H])C2([H])N([H])C(=O)C1([H])N(C(=O)C([H])(N([H])C(=O)C([H])(N([H])C([H])([H])[H])C([H])([H])[H])C(C([H])([H])[H])(C([H])([H])[H])C([H])([H])[H])C([H])([H])c2c([H])c(OC([H])([H])C([H])([H])C([H])([H])[N+]3([H])C([H])([H])C([H])([H])C(C(=O)N([H])[H])(N([H])C(=O)N4C([H])([H])C([H])([H])C([H])([H])C([H])(n5nc(-c6c([H])c([H])c(Oc7c([H])c([H])c(F)c([H])c7F)c([H])c6[H])c(C(=O)N([H])[H])c5N([H])[H])C4([H])[H])C3([H])[H])c([H])c([H])c2C1([H])[H]

>  <smiles>  (77) 
[H]c1c([H])c([H])c2c(c1[H])C([H])([H])C([H])([H])C([H])([H])C2([H])N([H])C(=O)C1([H])N(C(=O)C([H])(N([H])C(=O)C([H])(N([H])C([H])([H])[H])C([H])([H])[H])C(C([H])([H])[H])(C([H])([H])[H])C([H])([H])[H])C([H])([H])c2c([H])c(OC([H])([H])C([H])([H])C([H])([H])[N+]3([H])C([H])([H])C([H])([H])C(C(=O)N([H])[H])(N([H])C(=O)N4C([H])([H])C([H])([H])C([H])([H])C([H])(n5nc(-c6c([H])c([H])c(Oc7c([H])c([H])c(F)c([H])c7F)c([H])c6[H])c(C(=O)N([H])[H])c5N([H])[H])C4([H])[H])C3([H])[H])c([H])c([H])c2C1([H])[H]

$$$$
77:0:0
     RDKit          3D

 90 98  0  0  1  0  0  0  0  0999 V2000
  -29.9820  -20.8710   20.2920 C   0  0  0  0  0  0  0  0  0  0  0  0
  -30.5070  -19.6060   20.3290 C   0  0  0  0  0  0  0  0  0  0  0  0
  -28.6260  -21.5570   20.2580 C   0  0  0  0  0  2  0  0  0  0  0  0
  -30.6380  -22.2300   20.2190 C   0  0  0  0  0  2  0  0  0  0  0  0
  -32.0220  -19.4620   20.2450 C   0  0  0  0  0  1  0  0  0  0  0  0
  -29.3380  -22.8340   20.5880 N   0  0  1  0  0  4  0  0  0  0  0  0
  -29.3370  -22.9730   21.5870 H   0  0  0  0  0  0  0  0  0  0  0  0
  -29.7450  -18.2430   20.3420 C   0  0  0  0  0  3  0  0  0  0  0  0
  -30.4650  -17.0420   21.0890 C   0  0  0  0  0  3  0  0  0  0  0  0
  -30.6450  -14.5740   20.4530 C   0  0  0  0  0  0  0  0  0  0  0  0
  -30.3620  -12.3800   19.3420 C   0  0  0  0  0  2  0  0  0  0  0  0
  -29.4220  -12.5460   18.1310 C   0  0  0  0  0  2  0  0  0  0  0  0
  -27.9500  -12.3970   18.5620 C   0  0  0  0  0  2  0  0  0  0  0  0
  -27.6030  -13.2480   19.8130 C   0  0  0  0  0  3  0  0  0  0  0  0
  -28.6620  -13.0760   20.9250 C   0  0  0  0  0  2  0  0  0  0  0  0
  -29.9730  -13.3900   20.3420 N   0  0  0  0  0  0  0  0  0  0  0  0
  -31.8030  -14.6980   20.0460 O   0  0  0  0  0  0  0  0  0  0  0  0
  -29.9360  -15.6580   20.8750 N   0  0  0  0  0  0  0  0  0  0  0  0
  -28.9790  -15.4850   21.1440 H   0  0  0  0  0  0  0  0  0  0  0  0
  -25.2080  -13.8450   20.5290 C   0  0  0  0  0  0  0  0  0  0  0  0
  -24.1430  -13.0700   20.9010 C   0  0  0  0  0  0  0  0  0  0  0  0
  -24.6080  -11.7190   20.8730 C   0  0  0  0  0  0  0  0  0  0  0  0
  -26.2540  -12.9660   20.2990 N   0  0  0  0  0  0  0  0  0  0  0  0
  -25.8980  -11.6830   20.5660 N   0  0  0  0  0  0  0  0  0  0  0  0
  -23.8840  -10.4560   21.0660 C   0  0  0  0  0  0  0  0  0  0  0  0
  -24.3290   -9.4830   21.9880 C   0  0  0  0  0  3  0  0  0  0  0  0
  -23.6060   -8.2850   22.1700 C   0  0  0  0  0  3  0  0  0  0  0  0
  -22.4240   -8.0500   21.4270 C   0  0  0  0  0  0  0  0  0  0  0  0
  -21.9980   -9.0110   20.4940 C   0  0  0  0  0  3  0  0  0  0  0  0
  -22.7230  -10.2010   20.3110 C   0  0  0  0  0  3  0  0  0  0  0  0
  -21.6710   -6.9050   21.5180 O   0  0  0  0  0  0  0  0  0  0  0  0
  -21.6480   -6.1460   22.6620 C   0  0  0  0  0  0  0  0  0  0  0  0
  -21.2620   -6.6890   23.9070 C   0  0  0  0  0  3  0  0  0  0  0  0
  -21.1850   -5.8590   25.0430 C   0  0  0  0  0  3  0  0  0  0  0  0
  -21.4830   -4.4880   24.9350 C   0  0  0  0  0  0  0  0  0  0  0  0
  -21.8610   -3.9450   23.6950 C   0  0  0  0  0  3  0  0  0  0  0  0
  -21.9390   -4.7710   22.5600 C   0  0  0  0  0  0  0  0  0  0  0  0
  -22.2840   -4.2390   21.3630 F   0  0  0  0  0  0  0  0  0  0  0  0
  -21.4010   -3.6880   26.0240 F   0  0  0  0  0  0  0  0  0  0  0  0
  -22.7440  -13.5440   21.1710 C   0  0  0  0  0  0  0  0  0  0  0  0
  -22.0180  -12.8470   22.0370 N   0  0  0  0  0  0  0  0  0  0  0  0
  -22.3040  -14.5670   20.6470 O   0  0  0  0  0  0  0  0  0  0  0  0
  -22.3870  -12.0200   22.4820 H   0  0  0  0  0  0  0  0  0  0  0  0
  -21.0790  -13.1460   22.2610 H   0  0  0  0  0  0  0  0  0  0  0  0
  -25.3700  -15.2160   20.3480 N   0  0  0  0  0  0  0  0  0  0  0  0
  -24.5980  -15.8680   20.4490 H   0  0  0  0  0  0  0  0  0  0  0  0
  -26.2150  -15.6550   20.0070 H   0  0  0  0  0  0  0  0  0  0  0  0
  -29.0040  -24.1200   19.8560 C   0  0  0  0  0  2  0  0  0  0  0  0
  -28.2680  -25.2240   20.6970 C   0  0  0  0  0  2  0  0  0  0  0  0
  -28.3810  -26.5930   20.1820 O   0  0  0  0  0  0  0  0  0  0  0  0
  -24.6120  -31.8870   23.2370 C   0  0  0  0  0  0  0  0  0  0  0  0
  -27.2340  -27.3770   20.1840 C   0  0  0  0  0  0  0  0  0  0  0  0
  -23.4030  -30.4790   21.6060 C   0  0  0  0  0  3  0  0  0  0  0  0
  -24.8520  -28.9290   20.1820 C   0  0  0  0  0  0  0  0  0  0  0  0
  -25.9340  -30.8240   21.4010 C   0  0  0  0  0  2  0  0  0  0  0  0
  -26.0160  -29.4440   20.7650 C   0  0  0  0  0  0  0  0  0  0  0  0
  -27.2130  -28.6800   20.7540 C   0  0  0  0  0  3  0  0  0  0  0  0
  -26.0510  -26.8960   19.5840 C   0  0  0  0  0  3  0  0  0  0  0  0
  -24.8670  -27.6580   19.5840 C   0  0  0  0  0  3  0  0  0  0  0  0
  -23.6100  -29.7950   20.2290 C   0  0  0  0  0  2  0  0  0  0  0  0
  -24.6690  -31.0800   22.1390 N   0  0  0  0  0  0  0  0  0  0  0  0
  -23.5320  -32.1630   23.7780 O   0  0  0  0  0  0  0  0  0  0  0  0
  -22.7510  -29.4640   22.5730 C   0  0  0  0  0  0  0  0  0  0  0  0
  -21.4250  -29.2840   22.4530 N   0  0  0  0  0  0  0  0  0  0  0  0
  -23.4360  -28.8400   23.3880 O   0  0  0  0  0  0  0  0  0  0  0  0
  -20.9340  -29.8400   21.7660 H   0  0  0  0  0  0  0  0  0  0  0  0
  -18.0510  -28.0890   22.9650 C   0  0  0  0  0  0  0  0  0  0  0  0
  -20.6100  -28.3490   23.2290 C   0  0  0  0  0  3  0  0  0  0  0  0
  -20.7110  -26.9160   22.6570 C   0  0  0  0  0  2  0  0  0  0  0  0
  -19.6070  -26.5890   21.6480 C   0  0  0  0  0  2  0  0  0  0  0  0
  -18.2270  -26.7370   22.2940 C   0  0  0  0  0  2  0  0  0  0  0  0
  -19.1700  -28.8530   23.3890 C   0  0  0  0  0  0  0  0  0  0  0  0
  -18.9520  -30.1180   23.9750 C   0  0  0  0  0  3  0  0  0  0  0  0
  -17.6480  -30.6210   24.1420 C   0  0  0  0  0  3  0  0  0  0  0  0
  -16.5440  -29.8530   23.7350 C   0  0  0  0  0  3  0  0  0  0  0  0
  -16.7460  -28.5890   23.1520 C   0  0  0  0  0  3  0  0  0  0  0  0
  -25.8980  -32.5230   23.8520 C   0  0  0  0  0  3  0  0  0  0  0  0
  -26.4270  -31.7500   25.1220 C   0  0  1  0  0  0  0  0  0  0  0  0
  -25.3430  -31.5070   26.1980 C   0  0  0  0  0  1  0  0  0  0  0  0
  -27.0100  -30.3750   24.7210 C   0  0  0  0  0  1  0  0  0  0  0  0
  -27.5810  -32.5450   25.7770 C   0  0  0  0  0  1  0  0  0  0  0  0
  -25.5860  -33.9190   24.1880 N   0  0  0  0  0  0  0  0  0  0  0  0
  -25.9120  -34.9750   23.4300 C   0  0  0  0  0  0  0  0  0  0  0  0
  -26.5750  -34.8750   22.3940 O   0  0  0  0  0  0  0  0  0  0  0  0
  -24.9980  -34.0690   24.9930 H   0  0  0  0  0  0  0  0  0  0  0  0
  -24.1740  -36.7620   23.0900 C   0  0  0  0  0  1  0  0  0  0  0  0
  -25.4220  -36.3600   23.8920 C   0  0  0  0  0  3  0  0  0  0  0  0
  -27.5600  -37.2490   24.7100 C   0  0  0  0  0  1  0  0  0  0  0  0
  -26.4510  -37.4170   23.7760 N   0  0  0  0  0  0  0  0  0  0  0  0
  -26.0420  -38.3350   23.9280 H   0  0  0  0  0  0  0  0  0  0  0  0
  1  2  2  0
  2  8  1  0
  3  1  1  0
  3  6  1  0
  4  1  1  0
  4  6  1  0
  5  2  1  0
  6  7  1  1
  8  9  2  0
 10 18  1  0
 11 16  1  0
 12 13  1  0
 12 11  1  0
 14 13  1  0
 14 23  1  0
 14 15  1  0
 16 10  1  0
 16 15  1  0
 17 10  2  0
 18  9  1  0
 18 19  1  0
 20 21  2  0
 21 40  1  0
 22 21  1  0
 22 25  1  0
 23 20  1  0
 23 24  1  0
 24 22  2  0
 25 26  1  0
 26 27  2  0
 28 31  1  0
 28 27  1  0
 29 28  2  0
 30 29  1  0
 30 25  2  0
 31 32  1  0
 32 33  1  0
 33 34  2  0
 35 34  1  0
 35 39  1  0
 36 35  2  0
 37 32  2  0
 37 36  1  0
 38 37  1  0
 40 41  1  0
 41 44  1  0
 41 43  1  0
 42 40  2  0
 45 46  1  0
 45 20  1  0
 47 45  1  0
 48  6  1  0
 48 49  1  0
 50 52  1  0
 50 49  1  0
 51 62  2  0
 52 57  1  0
 53 61  1  0
 53 63  1  0
 54 60  1  0
 54 56  1  0
 55 61  1  0
 56 55  1  0
 57 56  2  0
 58 52  2  0
 59 58  1  0
 59 54  2  0
 60 53  1  0
 61 51  1  0
 63 65  2  0
 64 63  1  0
 66 64  1  0
 67 76  2  0
 67 72  1  0
 68 64  1  0
 68 72  1  0
 69 68  1  0
 70 71  1  0
 70 69  1  0
 71 67  1  0
 72 73  2  0
 73 74  1  0
 75 74  2  0
 76 75  1  0
 77 51  1  0
 77 82  1  0
 77 78  1  0
 78 81  1  1
 78 79  1  0
 80 78  1  0
 82 85  1  0
 83 87  1  0
 83 82  1  0
 84 83  2  0
 87 86  1  0
 89 87  1  0
 89 90  1  0
 89 88  1  0
M  ISO  4  10 100  18 100  49 101  50 101
M  END
>  <TORSDO>  (78) 
F 20

>  <SCORE>  (78) 
-13.792

>  <name>  (78) 
77

>  <ligand_id>  (78) 
77

>  <original_smiles>  (78) 
[H]c1c([H])c([H])c2c(c1[H])C([H])([H])C([H])([H])C([H])([H])C2([H])N([H])C(=O)C1([H])N(C(=O)C([H])(N([H])C(=O)C([H])(N([H])C([H])([H])[H])C([H])([H])[H])C(C([H])([H])[H])(C([H])([H])[H])C([H])([H])[H])C([H])([H])c2c([H])c(OC([H])([H])C([H])([H])[N+]3([H])C([H])([H])C(=C(C([H])([H])[H])C([H])([H])C([H])([H])N([H])C(=O)N4C([H])([H])C([H])([H])C([H])([H])C([H])(n5nc(-c6c([H])c([H])c(Oc7c([H])c([H])c(F)c([H])c7F)c([H])c6[H])c(C(=O)N([H])[H])c5N([H])[H])C4([H])[H])C3([H])[H])c([H])c([H])c2C1([H])[H]

>  <smiles>  (78) 
[H]c1c([H])c([H])c2c(c1[H])C([H])([H])C([H])([H])C([H])([H])C2([H])N([H])C(=O)C1([H])N(C(=O)C([H])(N([H])C(=O)C([H])(N([H])C([H])([H])[H])C([H])([H])[H])C(C([H])([H])[H])(C([H])([H])[H])C([H])([H])[H])C([H])([H])c2c([H])c(OC([H])([H])C([H])([H])[N+]3([H])C([H])([H])C(=C(C([H])([H])[H])C([H])([H])C([H])([H])N([H])C(=O)N4C([H])([H])C([H])([H])C([H])([H])C([H])(n5nc(-c6c([H])c([H])c(Oc7c([H])c([H])c(F)c([H])c7F)c([H])c6[H])c(C(=O)N([H])[H])c5N([H])[H])C4([H])[H])C3([H])[H])c([H])c([H])c2C1([H])[H]

$$$$
78:0:0
     RDKit          3D

 91 99  0  0  1  0  0  0  0  0999 V2000
  -30.1110  -22.6720   18.8450 C   0  0  0  0  0  2  0  0  0  0  0  0
  -28.2360  -22.2980   19.5760 C   0  0  0  0  0  2  0  0  0  0  0  0
  -29.3900  -21.3550   19.1740 C   0  0  0  0  0  3  0  0  0  0  0  0
  -28.7860  -23.2350   18.5850 N   0  0  1  0  0  4  0  0  0  0  0  0
  -28.5000  -22.9440   17.6610 H   0  0  0  0  0  0  0  0  0  0  0  0
  -30.0210  -20.3360   20.1450 C   0  0  0  0  0  2  0  0  0  0  0  0
  -29.2100  -19.0390   20.3010 C   0  0  0  0  0  0  0  0  0  0  0  0
  -28.0350  -19.0750   20.6750 O   0  0  0  0  0  0  0  0  0  0  0  0
  -29.8830  -17.6960   19.9590 C   0  0  0  0  0  2  0  0  0  0  0  0
  -30.3410  -16.8650   21.1910 C   0  0  0  0  0  2  0  0  0  0  0  0
  -30.6740  -14.4550   20.5110 C   0  0  0  0  0  0  0  0  0  0  0  0
  -30.3860  -12.3060   19.3410 C   0  0  0  0  0  2  0  0  0  0  0  0
  -29.4490  -12.5180   18.1330 C   0  0  0  0  0  2  0  0  0  0  0  0
  -27.9720  -12.3750   18.5540 C   0  0  0  0  0  2  0  0  0  0  0  0
  -27.6290  -13.2140   19.8140 C   0  0  0  0  0  3  0  0  0  0  0  0
  -28.6740  -12.9770   20.9290 C   0  0  0  0  0  2  0  0  0  0  0  0
  -30.0060  -13.2780   20.3730 N   0  0  0  0  0  0  0  0  0  0  0  0
  -31.7870  -14.6610   20.0230 O   0  0  0  0  0  0  0  0  0  0  0  0
  -29.9730  -15.4400   21.1000 N   0  0  0  0  0  0  0  0  0  0  0  0
  -29.0730  -15.1800   21.4750 H   0  0  0  0  0  0  0  0  0  0  0  0
  -25.2240  -13.8370   20.4930 C   0  0  0  0  0  0  0  0  0  0  0  0
  -24.1500  -13.0730   20.8590 C   0  0  0  0  0  0  0  0  0  0  0  0
  -24.6070  -11.7180   20.8470 C   0  0  0  0  0  0  0  0  0  0  0  0
  -26.2690  -12.9510   20.2800 N   0  0  0  0  0  0  0  0  0  0  0  0
  -25.8990  -11.6720   20.5490 N   0  0  0  0  0  0  0  0  0  0  0  0
  -23.8750  -10.4600   21.0440 C   0  0  0  0  0  0  0  0  0  0  0  0
  -24.3140   -9.4890   21.9720 C   0  0  0  0  0  3  0  0  0  0  0  0
  -23.5850   -8.2950   22.1560 C   0  0  0  0  0  3  0  0  0  0  0  0
  -22.4040   -8.0620   21.4110 C   0  0  0  0  0  0  0  0  0  0  0  0
  -21.9850   -9.0210   20.4720 C   0  0  0  0  0  3  0  0  0  0  0  0
  -22.7150  -10.2070   20.2860 C   0  0  0  0  0  3  0  0  0  0  0  0
  -21.6470   -6.9190   21.5030 O   0  0  0  0  0  0  0  0  0  0  0  0
  -21.6220   -6.1640   22.6480 C   0  0  0  0  0  0  0  0  0  0  0  0
  -21.2410   -6.7100   23.8940 C   0  0  0  0  0  3  0  0  0  0  0  0
  -21.1610   -5.8820   25.0310 C   0  0  0  0  0  3  0  0  0  0  0  0
  -21.4510   -4.5080   24.9240 C   0  0  0  0  0  0  0  0  0  0  0  0
  -21.8250   -3.9620   23.6830 C   0  0  0  0  0  3  0  0  0  0  0  0
  -21.9070   -4.7880   22.5480 C   0  0  0  0  0  0  0  0  0  0  0  0
  -22.2460   -4.2520   21.3520 F   0  0  0  0  0  0  0  0  0  0  0  0
  -21.3660   -3.7100   26.0140 F   0  0  0  0  0  0  0  0  0  0  0  0
  -22.7510  -13.5560   21.1150 C   0  0  0  0  0  0  0  0  0  0  0  0
  -22.0130  -12.8730   21.9840 N   0  0  0  0  0  0  0  0  0  0  0  0
  -22.3180  -14.5750   20.5780 O   0  0  0  0  0  0  0  0  0  0  0  0
  -22.3750  -12.0490   22.4430 H   0  0  0  0  0  0  0  0  0  0  0  0
  -21.0730  -13.1780   22.1920 H   0  0  0  0  0  0  0  0  0  0  0  0
  -25.3930  -15.2060   20.3040 N   0  0  0  0  0  0  0  0  0  0  0  0
  -24.6280  -15.8620   20.4020 H   0  0  0  0  0  0  0  0  0  0  0  0
  -26.2510  -15.6440   19.9900 H   0  0  0  0  0  0  0  0  0  0  0  0
  -28.6050  -24.7150   18.7050 C   0  0  0  0  0  2  0  0  0  0  0  0
  -28.3960  -25.2910   20.1240 C   0  0  0  0  0  2  0  0  0  0  0  0
  -28.4110  -26.7310   20.1200 O   0  0  0  0  0  0  0  0  0  0  0  0
  -24.5870  -31.8640   23.2230 C   0  0  0  0  0  0  0  0  0  0  0  0
  -27.2150  -27.4230   20.1230 C   0  0  0  0  0  0  0  0  0  0  0  0
  -23.3700  -30.4640   21.5860 C   0  0  0  0  0  3  0  0  0  0  0  0
  -24.8130  -28.9260   20.1550 C   0  0  0  0  0  0  0  0  0  0  0  0
  -25.8940  -30.8270   21.3690 C   0  0  0  0  0  2  0  0  0  0  0  0
  -25.9750  -29.4540   20.7280 C   0  0  0  0  0  0  0  0  0  0  0  0
  -27.1780  -28.7140   20.7020 C   0  0  0  0  0  3  0  0  0  0  0  0
  -26.0270  -26.9030   19.5580 C   0  0  0  0  0  3  0  0  0  0  0  0
  -24.8350  -27.6480   19.5670 C   0  0  0  0  0  3  0  0  0  0  0  0
  -23.5700  -29.7830   20.2060 C   0  0  0  0  0  2  0  0  0  0  0  0
  -24.6370  -31.0660   22.1190 N   0  0  0  0  0  0  0  0  0  0  0  0
  -23.5100  -32.1350   23.7700 O   0  0  0  0  0  0  0  0  0  0  0  0
  -22.7240  -29.4420   22.5510 C   0  0  0  0  0  0  0  0  0  0  0  0
  -21.3980  -29.2630   22.4330 N   0  0  0  0  0  0  0  0  0  0  0  0
  -23.4130  -28.8140   23.3600 O   0  0  0  0  0  0  0  0  0  0  0  0
  -20.9040  -29.8230   21.7520 H   0  0  0  0  0  0  0  0  0  0  0  0
  -18.0260  -28.0700   22.9440 C   0  0  0  0  0  0  0  0  0  0  0  0
  -20.5860  -28.3250   23.2070 C   0  0  0  0  0  3  0  0  0  0  0  0
  -20.6850  -26.8950   22.6300 C   0  0  0  0  0  2  0  0  0  0  0  0
  -19.5790  -26.5720   21.6190 C   0  0  0  0  0  2  0  0  0  0  0  0
  -18.2000  -26.7200   22.2680 C   0  0  0  0  0  2  0  0  0  0  0  0
  -19.1480  -28.8300   23.3710 C   0  0  0  0  0  0  0  0  0  0  0  0
  -18.9330  -30.0940   23.9620 C   0  0  0  0  0  3  0  0  0  0  0  0
  -17.6290  -30.5980   24.1300 C   0  0  0  0  0  3  0  0  0  0  0  0
  -16.5230  -29.8350   23.7200 C   0  0  0  0  0  3  0  0  0  0  0  0
  -16.7230  -28.5720   23.1350 C   0  0  0  0  0  3  0  0  0  0  0  0
  -25.8780  -32.4940   23.8360 C   0  0  0  0  0  3  0  0  0  0  0  0
  -25.5710  -33.8900   24.1750 N   0  0  0  0  0  0  0  0  0  0  0  0
  -25.8990  -34.9460   23.4180 C   0  0  0  0  0  0  0  0  0  0  0  0
  -26.5630  -34.8470   22.3830 O   0  0  0  0  0  0  0  0  0  0  0  0
  -24.9810  -34.0410   24.9800 H   0  0  0  0  0  0  0  0  0  0  0  0
  -24.1670  -36.7370   23.0780 C   0  0  0  0  0  1  0  0  0  0  0  0
  -25.4140  -36.3310   23.8830 C   0  0  0  0  0  3  0  0  0  0  0  0
  -27.5530  -37.2110   24.7040 C   0  0  0  0  0  1  0  0  0  0  0  0
  -26.4450  -37.3850   23.7690 N   0  0  0  0  0  0  0  0  0  0  0  0
  -26.0400  -38.3040   23.9240 H   0  0  0  0  0  0  0  0  0  0  0  0
  -26.4080  -31.7160   25.1010 C   0  0  1  0  0  0  0  0  0  0  0  0
  -25.3270  -31.4720   26.1790 C   0  0  0  0  0  1  0  0  0  0  0  0
  -26.9860  -30.3420   24.6910 C   0  0  0  0  0  1  0  0  0  0  0  0
  -27.5670  -32.5060   25.7550 C   0  0  0  0  0  1  0  0  0  0  0  0
  1  3  1  0
  3  2  1  0
  3  6  1  0
  4 49  1  0
  4  1  1  0
  4  2  1  0
  4  5  1  6
  6  7  1  0
  7  8  2  0
  9  7  1  0
  9 10  1  0
 11 19  1  0
 12 17  1  0
 13 14  1  0
 13 12  1  0
 15 14  1  0
 15 24  1  0
 15 16  1  0
 17 11  1  0
 17 16  1  0
 18 11  2  0
 19 10  1  0
 19 20  1  0
 21 22  2  0
 22 41  1  0
 23 22  1  0
 23 26  1  0
 24 21  1  0
 24 25  1  0
 25 23  2  0
 26 27  1  0
 27 28  2  0
 29 32  1  0
 29 28  1  0
 30 29  2  0
 31 30  1  0
 31 26  2  0
 32 33  1  0
 33 34  1  0
 34 35  2  0
 36 35  1  0
 36 40  1  0
 37 36  2  0
 38 33  2  0
 38 37  1  0
 39 38  1  0
 41 42  1  0
 42 45  1  0
 42 44  1  0
 43 41  2  0
 46 47  1  0
 46 21  1  0
 48 46  1  0
 49 50  1  0
 51 53  1  0
 51 50  1  0
 52 63  2  0
 53 58  1  0
 54 62  1  0
 54 64  1  0
 55 61  1  0
 55 57  1  0
 56 62  1  0
 57 56  1  0
 58 57  2  0
 59 60  1  0
 59 53  2  0
 60 55  2  0
 61 54  1  0
 62 52  1  0
 64 66  2  0
 65 64  1  0
 67 65  1  0
 68 77  2  0
 68 73  1  0
 69 65  1  0
 69 73  1  0
 70 69  1  0
 71 72  1  0
 71 70  1  0
 72 68  1  0
 73 74  2  0
 74 75  1  0
 76 75  2  0
 77 76  1  0
 78 52  1  0
 78 79  1  0
 78 88  1  0
 79 82  1  0
 80 84  1  0
 80 79  1  0
 81 80  2  0
 84 83  1  0
 86 84  1  0
 86 87  1  0
 86 85  1  0
 88 91  1  1
 88 89  1  0
 90 88  1  0
M  ISO  4  11 100  19 100  50 101  51 101
M  END
>  <TORSDO>  (79) 
F 22

>  <SCORE>  (79) 
-13.051

>  <name>  (79) 
78

>  <ligand_id>  (79) 
78

>  <original_smiles>  (79) 
[H]c1c([H])c([H])c2c(c1[H])C([H])([H])C([H])([H])C([H])([H])C2([H])N([H])C(=O)C1([H])N(C(=O)C([H])(N([H])C(=O)C([H])(N([H])C([H])([H])[H])C([H])([H])[H])C(C([H])([H])[H])(C([H])([H])[H])C([H])([H])[H])C([H])([H])c2c([H])c(OC([H])([H])C([H])([H])[N+]3([H])C([H])([H])C([H])(C([H])([H])C(=O)C([H])([H])C([H])([H])N([H])C(=O)N4C([H])([H])C([H])([H])C([H])([H])C([H])(n5nc(-c6c([H])c([H])c(Oc7c([H])c([H])c(F)c([H])c7F)c([H])c6[H])c(C(=O)N([H])[H])c5N([H])[H])C4([H])[H])C3([H])[H])c([H])c([H])c2C1([H])[H]

>  <smiles>  (79) 
[H]c1c([H])c([H])c2c(c1[H])C([H])([H])C([H])([H])C([H])([H])C2([H])N([H])C(=O)C1([H])N(C(=O)C([H])(N([H])C(=O)C([H])(N([H])C([H])([H])[H])C([H])([H])[H])C(C([H])([H])[H])(C([H])([H])[H])C([H])([H])[H])C([H])([H])c2c([H])c(OC([H])([H])C([H])([H])[N+]3([H])C([H])([H])C([H])(C([H])([H])C(=O)C([H])([H])C([H])([H])N([H])C(=O)N4C([H])([H])C([H])([H])C([H])([H])C([H])(n5nc(-c6c([H])c([H])c(Oc7c([H])c([H])c(F)c([H])c7F)c([H])c6[H])c(C(=O)N([H])[H])c5N([H])[H])C4([H])[H])C3([H])[H])c([H])c([H])c2C1([H])[H]

$$$$
79:0:0
     RDKit          3D

 90 98  0  0  1  0  0  0  0  0999 V2000
  -29.4160  -22.7430   20.0860 C   0  0  0  0  0  0  0  0  0  0  0  0
  -27.1160  -22.0010   19.5730 C   0  0  0  0  0  1  0  0  0  0  0  0
  -28.5410  -21.7420   19.7950 N   0  0  0  0  0  0  0  0  0  0  0  0
  -30.5490  -22.4570   20.4900 O   0  0  0  0  0  0  0  0  0  0  0  0
  -29.9740  -25.1610   20.4420 C   0  0  0  0  0  2  0  0  0  0  0  0
  -29.0870  -24.1910   19.6860 C   0  0  0  0  0  3  0  0  0  0  0  0
  -28.4870  -25.3270   20.5730 C   0  0  0  0  0  3  0  0  0  0  0  0
  -28.4050  -26.7020   20.1190 O   0  0  0  0  0  0  0  0  0  0  0  0
  -24.5930  -31.8790   23.2340 C   0  0  0  0  0  0  0  0  0  0  0  0
  -27.2160  -27.4000   20.1770 C   0  0  0  0  0  0  0  0  0  0  0  0
  -23.3790  -30.4700   21.6020 C   0  0  0  0  0  3  0  0  0  0  0  0
  -24.8250  -28.9190   20.1800 C   0  0  0  0  0  0  0  0  0  0  0  0
  -25.9040  -30.8290   21.3860 C   0  0  0  0  0  2  0  0  0  0  0  0
  -25.9880  -29.4520   20.7520 C   0  0  0  0  0  0  0  0  0  0  0  0
  -27.1870  -28.7030   20.7360 C   0  0  0  0  0  3  0  0  0  0  0  0
  -26.0380  -26.8780   19.6090 C   0  0  0  0  0  3  0  0  0  0  0  0
  -24.8470  -27.6330   19.6060 C   0  0  0  0  0  3  0  0  0  0  0  0
  -23.5810  -29.7790   20.2250 C   0  0  0  0  0  2  0  0  0  0  0  0
  -24.6430  -31.0760   22.1320 N   0  0  0  0  0  0  0  0  0  0  0  0
  -23.5150  -32.1510   23.7800 O   0  0  0  0  0  0  0  0  0  0  0  0
  -22.7330  -29.4550   22.5720 C   0  0  0  0  0  0  0  0  0  0  0  0
  -21.4060  -29.2760   22.4570 N   0  0  0  0  0  0  0  0  0  0  0  0
  -23.4220  -28.8280   23.3810 O   0  0  0  0  0  0  0  0  0  0  0  0
  -20.9120  -29.8320   21.7730 H   0  0  0  0  0  0  0  0  0  0  0  0
  -18.0340  -28.0790   22.9670 C   0  0  0  0  0  0  0  0  0  0  0  0
  -20.5930  -28.3390   23.2320 C   0  0  0  0  0  3  0  0  0  0  0  0
  -20.6950  -26.9050   22.6620 C   0  0  0  0  0  2  0  0  0  0  0  0
  -19.5910  -26.5810   21.6500 C   0  0  0  0  0  2  0  0  0  0  0  0
  -18.2090  -26.7270   22.2950 C   0  0  0  0  0  2  0  0  0  0  0  0
  -19.1540  -28.8430   23.3920 C   0  0  0  0  0  0  0  0  0  0  0  0
  -18.9370  -30.1080   23.9790 C   0  0  0  0  0  3  0  0  0  0  0  0
  -17.6320  -30.6100   24.1450 C   0  0  0  0  0  3  0  0  0  0  0  0
  -16.5280  -29.8420   23.7410 C   0  0  0  0  0  3  0  0  0  0  0  0
  -16.7290  -28.5790   23.1570 C   0  0  0  0  0  3  0  0  0  0  0  0
  -25.8810  -32.5150   23.8440 C   0  0  0  0  0  3  0  0  0  0  0  0
  -25.5720  -33.9120   24.1820 N   0  0  0  0  0  0  0  0  0  0  0  0
  -25.8900  -34.9680   23.4240 C   0  0  0  0  0  0  0  0  0  0  0  0
  -26.5470  -34.8710   22.3830 O   0  0  0  0  0  0  0  0  0  0  0  0
  -24.9960  -34.0630   24.9980 H   0  0  0  0  0  0  0  0  0  0  0  0
  -24.1450  -36.7480   23.1010 C   0  0  0  0  0  1  0  0  0  0  0  0
  -25.4010  -36.3520   23.8930 C   0  0  0  0  0  3  0  0  0  0  0  0
  -27.5500  -37.2400   24.6810 C   0  0  0  0  0  1  0  0  0  0  0  0
  -26.4240  -37.4140   23.7680 N   0  0  0  0  0  0  0  0  0  0  0  0
  -26.0160  -38.3290   23.9410 H   0  0  0  0  0  0  0  0  0  0  0  0
  -26.4130  -31.7410   25.1130 C   0  0  1  0  0  0  0  0  0  0  0  0
  -25.3330  -31.5050   26.1950 C   0  0  0  0  0  1  0  0  0  0  0  0
  -26.9870  -30.3650   24.7070 C   0  0  0  0  0  1  0  0  0  0  0  0
  -27.5750  -32.5340   25.7600 C   0  0  0  0  0  1  0  0  0  0  0  0
  -28.9650  -20.3470   19.4550 C   0  0  0  0  0  2  0  0  0  0  0  0
  -29.3900  -19.3900   20.6180 C   0  0  0  0  0  2  0  0  0  0  0  0
  -29.5540  -17.8930   20.1760 C   0  0  0  0  0  2  0  0  0  0  0  0
  -30.3220  -16.9510   21.1600 C   0  0  0  0  0  2  0  0  0  0  0  0
  -30.6570  -14.5100   20.4570 C   0  0  0  0  0  0  0  0  0  0  0  0
  -30.3570  -12.3320   19.3150 C   0  0  0  0  0  2  0  0  0  0  0  0
  -29.4210  -12.5410   18.1050 C   0  0  0  0  0  2  0  0  0  0  0  0
  -27.9480  -12.3950   18.5380 C   0  0  0  0  0  2  0  0  0  0  0  0
  -27.6080  -13.2400   19.7950 C   0  0  0  0  0  3  0  0  0  0  0  0
  -28.6620  -13.0210   20.9050 C   0  0  0  0  0  2  0  0  0  0  0  0
  -29.9880  -13.3240   20.3390 N   0  0  0  0  0  0  0  0  0  0  0  0
  -31.7700  -14.6980   19.9580 O   0  0  0  0  0  0  0  0  0  0  0  0
  -29.9650  -15.5170   21.0350 N   0  0  0  0  0  0  0  0  0  0  0  0
  -29.0900  -15.2420   21.4570 H   0  0  0  0  0  0  0  0  0  0  0  0
  -25.2110  -13.8600   20.4970 C   0  0  0  0  0  0  0  0  0  0  0  0
  -24.1370  -13.0950   20.8660 C   0  0  0  0  0  0  0  0  0  0  0  0
  -24.5930  -11.7420   20.8450 C   0  0  0  0  0  0  0  0  0  0  0  0
  -26.2530  -12.9740   20.2730 N   0  0  0  0  0  0  0  0  0  0  0  0
  -25.8830  -11.6940   20.5390 N   0  0  0  0  0  0  0  0  0  0  0  0
  -23.8610  -10.4830   21.0430 C   0  0  0  0  0  0  0  0  0  0  0  0
  -24.3050   -9.5100   21.9650 C   0  0  0  0  0  3  0  0  0  0  0  0
  -23.5750   -8.3150   22.1520 C   0  0  0  0  0  3  0  0  0  0  0  0
  -22.3870   -8.0870   21.4170 C   0  0  0  0  0  0  0  0  0  0  0  0
  -21.9620   -9.0510   20.4840 C   0  0  0  0  0  3  0  0  0  0  0  0
  -22.6920  -10.2360   20.2970 C   0  0  0  0  0  3  0  0  0  0  0  0
  -21.6280   -6.9460   21.5130 O   0  0  0  0  0  0  0  0  0  0  0  0
  -21.6130   -6.1860   22.6550 C   0  0  0  0  0  0  0  0  0  0  0  0
  -21.2490   -6.7280   23.9060 C   0  0  0  0  0  3  0  0  0  0  0  0
  -21.1790   -5.8960   25.0420 C   0  0  0  0  0  3  0  0  0  0  0  0
  -21.4600   -4.5220   24.9260 C   0  0  0  0  0  0  0  0  0  0  0  0
  -21.8170   -3.9780   23.6790 C   0  0  0  0  0  3  0  0  0  0  0  0
  -21.8890   -4.8080   22.5470 C   0  0  0  0  0  0  0  0  0  0  0  0
  -22.2130   -4.2750   21.3440 F   0  0  0  0  0  0  0  0  0  0  0  0
  -21.3860   -3.7210   26.0140 F   0  0  0  0  0  0  0  0  0  0  0  0
  -22.7420  -13.5790   21.1370 C   0  0  0  0  0  0  0  0  0  0  0  0
  -22.0120  -12.8920   22.0080 N   0  0  0  0  0  0  0  0  0  0  0  0
  -22.3070  -14.6030   20.6120 O   0  0  0  0  0  0  0  0  0  0  0  0
  -22.3750  -12.0630   22.4550 H   0  0  0  0  0  0  0  0  0  0  0  0
  -21.0760  -13.1990   22.2330 H   0  0  0  0  0  0  0  0  0  0  0  0
  -25.3800  -15.2300   20.3150 N   0  0  0  0  0  0  0  0  0  0  0  0
  -24.6170  -15.8890   20.4220 H   0  0  0  0  0  0  0  0  0  0  0  0
  -26.2410  -15.6670   20.0110 H   0  0  0  0  0  0  0  0  0  0  0  0
  1  4  2  0
  2  3  1  0
  3  1  1  0
  5  7  1  0
  6  1  1  0
  6  5  1  0
  6  7  1  0
  7  8  1  0
  8 10  1  0
  9 20  2  0
 10 15  1  0
 11 19  1  0
 11 21  1  0
 12 18  1  0
 12 14  1  0
 13 19  1  0
 14 13  1  0
 15 14  2  0
 16 10  2  0
 17 16  1  0
 17 12  2  0
 18 11  1  0
 19  9  1  0
 21 23  2  0
 22 21  1  0
 24 22  1  0
 25 34  2  0
 25 30  1  0
 26 22  1  0
 26 30  1  0
 27 26  1  0
 28 29  1  0
 28 27  1  0
 29 25  1  0
 30 31  2  0
 31 32  1  0
 33 32  2  0
 34 33  1  0
 35  9  1  0
 35 36  1  0
 35 45  1  0
 36 39  1  0
 37 41  1  0
 37 36  1  0
 38 37  2  0
 41 40  1  0
 43 41  1  0
 43 44  1  0
 43 42  1  0
 45 48  1  1
 45 46  1  0
 47 45  1  0
 49  3  1  0
 49 50  1  0
 51 50  1  0
 51 52  1  0
 53 61  1  0
 54 59  1  0
 55 56  1  0
 55 54  1  0
 57 56  1  0
 57 66  1  0
 57 58  1  0
 59 53  1  0
 59 58  1  0
 60 53  2  0
 61 52  1  0
 61 62  1  0
 63 64  2  0
 64 83  1  0
 65 64  1  0
 65 68  1  0
 66 63  1  0
 66 67  1  0
 67 65  2  0
 68 69  1  0
 69 70  2  0
 71 74  1  0
 71 70  1  0
 72 71  2  0
 73 72  1  0
 73 68  2  0
 74 75  1  0
 75 76  1  0
 76 77  2  0
 78 77  1  0
 78 82  1  0
 79 78  2  0
 80 75  2  0
 80 79  1  0
 81 80  1  0
 83 84  1  0
 84 87  1  0
 84 86  1  0
 85 83  2  0
 88 89  1  0
 88 63  1  0
 90 88  1  0
M  ISO  4   7 101   8 101  53 100  61 100
M  END
>  <TORSDO>  (80) 
F 21

>  <SCORE>  (80) 
-13.392

>  <name>  (80) 
79

>  <ligand_id>  (80) 
79

>  <original_smiles>  (80) 
[H]c1c([H])c([H])c2c(c1[H])C([H])([H])C([H])([H])C([H])([H])C2([H])N([H])C(=O)C1([H])N(C(=O)C([H])(N([H])C(=O)C([H])(N([H])C([H])([H])[H])C([H])([H])[H])C(C([H])([H])[H])(C([H])([H])[H])C([H])([H])[H])C([H])([H])c2c([H])c(OC3([H])C([H])([H])C3([H])C(=O)N(C([H])([H])[H])C([H])([H])C([H])([H])C([H])([H])C([H])([H])N([H])C(=O)N3C([H])([H])C([H])([H])C([H])([H])C([H])(n4nc(-c5c([H])c([H])c(Oc6c([H])c([H])c(F)c([H])c6F)c([H])c5[H])c(C(=O)N([H])[H])c4N([H])[H])C3([H])[H])c([H])c([H])c2C1([H])[H]

>  <smiles>  (80) 
[H]c1c([H])c([H])c2c(c1[H])C([H])([H])C([H])([H])C([H])([H])C2([H])N([H])C(=O)C1([H])N(C(=O)C([H])(N([H])C(=O)C([H])(N([H])C([H])([H])[H])C([H])([H])[H])C(C([H])([H])[H])(C([H])([H])[H])C([H])([H])[H])C([H])([H])c2c([H])c(OC3([H])C([H])([H])C3([H])C(=O)N(C([H])([H])[H])C([H])([H])C([H])([H])C([H])([H])C([H])([H])N([H])C(=O)N3C([H])([H])C([H])([H])C([H])([H])C([H])(n4nc(-c5c([H])c([H])c(Oc6c([H])c([H])c(F)c([H])c6F)c([H])c5[H])c(C(=O)N([H])[H])c4N([H])[H])C3([H])[H])c([H])c([H])c2C1([H])[H]

$$$$
80:0:0
     RDKit          3D

 92101  0  0  1  0  0  0  0  0999 V2000
  -29.0900  -22.1780   20.4900 C   0  0  0  0  0  0  0  0  0  0  0  0
  -29.9070  -22.5340   21.3430 O   0  0  0  0  0  0  0  0  0  0  0  0
  -30.7620  -18.5740   20.2240 C   0  0  0  0  0  0  0  0  0  0  0  0
  -27.8920  -19.6890   20.0870 C   0  0  0  0  0  2  0  0  0  0  0  0
  -29.6710  -17.4730   19.9280 C   0  0  0  0  0  3  0  0  0  0  0  0
  -29.1240  -20.6200   19.9480 C   0  0  0  0  0  3  0  0  0  0  0  0
  -28.7270  -18.5130   20.6950 C   0  0  0  0  0  3  0  0  0  0  0  0
  -29.8110  -19.5060   20.7360 N   0  0  0  0  0  0  0  0  0  0  0  0
  -31.9740  -18.6260   20.2160 O   0  0  0  0  0  0  0  0  0  0  0  0
  -30.5870  -14.8980   20.2040 C   0  0  0  0  0  0  0  0  0  0  0  0
  -30.4520  -12.5790   19.2320 C   0  0  0  0  0  2  0  0  0  0  0  0
  -29.4960  -12.6070   18.0150 C   0  0  0  0  0  2  0  0  0  0  0  0
  -28.0350  -12.4110   18.4610 C   0  0  0  0  0  2  0  0  0  0  0  0
  -27.6630  -13.3040   19.6740 C   0  0  0  0  0  3  0  0  0  0  0  0
  -28.7330  -13.2410   20.7870 C   0  0  0  0  0  2  0  0  0  0  0  0
  -30.0140  -13.6350   20.1850 N   0  0  0  0  0  0  0  0  0  0  0  0
  -31.7470  -15.0250   19.8010 O   0  0  0  0  0  0  0  0  0  0  0  0
  -29.7670  -16.0070   20.4750 N   0  0  0  0  0  0  0  0  0  0  0  0
  -28.9060  -15.7210   20.9120 H   0  0  0  0  0  0  0  0  0  0  0  0
  -25.2850  -13.8940   20.4250 C   0  0  0  0  0  0  0  0  0  0  0  0
  -24.2230  -13.1210   20.8090 C   0  0  0  0  0  0  0  0  0  0  0  0
  -24.6860  -11.7700   20.7770 C   0  0  0  0  0  0  0  0  0  0  0  0
  -26.3260  -13.0130   20.1790 N   0  0  0  0  0  0  0  0  0  0  0  0
  -25.9740  -11.7310   20.4530 N   0  0  0  0  0  0  0  0  0  0  0  0
  -23.9600  -10.5090   20.9770 C   0  0  0  0  0  0  0  0  0  0  0  0
  -24.3930   -9.5470   21.9160 C   0  0  0  0  0  3  0  0  0  0  0  0
  -23.6670   -8.3520   22.1060 C   0  0  0  0  0  3  0  0  0  0  0  0
  -22.4930   -8.1090   21.3550 C   0  0  0  0  0  0  0  0  0  0  0  0
  -22.0780   -9.0590   20.4040 C   0  0  0  0  0  3  0  0  0  0  0  0
  -22.8050  -10.2460   20.2140 C   0  0  0  0  0  3  0  0  0  0  0  0
  -21.7370   -6.9650   21.4530 O   0  0  0  0  0  0  0  0  0  0  0  0
  -21.6850   -6.2340   22.6130 C   0  0  0  0  0  0  0  0  0  0  0  0
  -21.2550   -6.8030   23.8320 C   0  0  0  0  0  3  0  0  0  0  0  0
  -21.1500   -5.9990   24.9850 C   0  0  0  0  0  3  0  0  0  0  0  0
  -21.4630   -4.6270   24.9190 C   0  0  0  0  0  0  0  0  0  0  0  0
  -21.8850   -4.0600   23.7050 C   0  0  0  0  0  3  0  0  0  0  0  0
  -21.9920   -4.8610   22.5540 C   0  0  0  0  0  0  0  0  0  0  0  0
  -22.3790   -4.3040   21.3810 F   0  0  0  0  0  0  0  0  0  0  0  0
  -21.3530   -3.8530   26.0240 F   0  0  0  0  0  0  0  0  0  0  0  0
  -22.8290  -13.6000   21.0910 C   0  0  0  0  0  0  0  0  0  0  0  0
  -22.1100  -12.9070   21.9660 N   0  0  0  0  0  0  0  0  0  0  0  0
  -22.3860  -14.6230   20.5690 O   0  0  0  0  0  0  0  0  0  0  0  0
  -22.4810  -12.0790   22.4090 H   0  0  0  0  0  0  0  0  0  0  0  0
  -21.1740  -13.2080   22.1990 H   0  0  0  0  0  0  0  0  0  0  0  0
  -25.4460  -15.2640   20.2400 N   0  0  0  0  0  0  0  0  0  0  0  0
  -24.6710  -15.9100   20.3410 H   0  0  0  0  0  0  0  0  0  0  0  0
  -26.2720  -15.6980   19.8460 H   0  0  0  0  0  0  0  0  0  0  0  0
  -27.2690  -22.8260   18.7950 C   0  0  0  0  0  1  0  0  0  0  0  0
  -27.0140  -23.5160   21.1710 C   0  0  0  0  0  1  0  0  0  0  0  0
  -28.0350  -23.3640   20.0260 C   0  0  1  0  0  0  0  0  0  0  0  0
  -28.5230  -24.9190   19.6240 C   0  0  0  0  0  2  0  0  0  0  0  0
  -28.3280  -26.2860   20.2980 O   0  0  0  0  0  0  0  0  0  0  0  0
  -24.6200  -31.8570   23.1980 C   0  0  0  0  0  0  0  0  0  0  0  0
  -27.2340  -27.1960   20.1630 C   0  0  0  0  0  0  0  0  0  0  0  0
  -23.4260  -30.4540   21.5540 C   0  0  0  0  0  3  0  0  0  0  0  0
  -24.8830  -28.8850   20.1280 C   0  0  0  0  0  0  0  0  0  0  0  0
  -25.9730  -30.7410   21.3910 C   0  0  0  0  0  2  0  0  0  0  0  0
  -26.0510  -29.3540   20.7400 C   0  0  0  0  0  0  0  0  0  0  0  0
  -27.2220  -28.5190   20.7470 C   0  0  0  0  0  3  0  0  0  0  0  0
  -26.0440  -26.8100   19.5120 C   0  0  0  0  0  3  0  0  0  0  0  0
  -24.8890  -27.6260   19.5010 C   0  0  0  0  0  3  0  0  0  0  0  0
  -23.6480  -29.7700   20.1760 C   0  0  0  0  0  2  0  0  0  0  0  0
  -24.6920  -31.0390   22.1020 N   0  0  0  0  0  0  0  0  0  0  0  0
  -23.5330  -32.1370   23.7260 O   0  0  0  0  0  0  0  0  0  0  0  0
  -22.7520  -29.4480   22.5180 C   0  0  0  0  0  0  0  0  0  0  0  0
  -21.4240  -29.2770   22.3930 N   0  0  0  0  0  0  0  0  0  0  0  0
  -23.4260  -28.8210   23.3400 O   0  0  0  0  0  0  0  0  0  0  0  0
  -20.9390  -29.8300   21.6990 H   0  0  0  0  0  0  0  0  0  0  0  0
  -18.0440  -28.0870   22.9120 C   0  0  0  0  0  0  0  0  0  0  0  0
  -20.6040  -28.3440   23.1670 C   0  0  0  0  0  3  0  0  0  0  0  0
  -20.6990  -26.9110   22.5940 C   0  0  0  0  0  2  0  0  0  0  0  0
  -19.5930  -26.5910   21.5830 C   0  0  0  0  0  2  0  0  0  0  0  0
  -18.2160  -26.7360   22.2360 C   0  0  0  0  0  2  0  0  0  0  0  0
  -19.1660  -28.8470   23.3360 C   0  0  0  0  0  0  0  0  0  0  0  0
  -18.9520  -30.1080   23.9320 C   0  0  0  0  0  3  0  0  0  0  0  0
  -17.6490  -30.6100   24.1070 C   0  0  0  0  0  3  0  0  0  0  0  0
  -16.5410  -29.8470   23.6990 C   0  0  0  0  0  3  0  0  0  0  0  0
  -16.7400  -28.5880   23.1060 C   0  0  0  0  0  3  0  0  0  0  0  0
  -25.8950  -32.4950   23.8270 C   0  0  0  0  0  3  0  0  0  0  0  0
  -26.4070  -31.7280   25.1090 C   0  0  1  0  0  0  0  0  0  0  0  0
  -25.3100  -31.4910   26.1730 C   0  0  0  0  0  1  0  0  0  0  0  0
  -26.9960  -30.3500   24.7280 C   0  0  0  0  0  1  0  0  0  0  0  0
  -27.5550  -32.5260   25.7740 C   0  0  0  0  0  1  0  0  0  0  0  0
  -25.5790  -33.8940   24.1610 N   0  0  0  0  0  0  0  0  0  0  0  0
  -25.9130  -34.9520   23.4110 C   0  0  0  0  0  0  0  0  0  0  0  0
  -26.5860  -34.8560   22.3810 O   0  0  0  0  0  0  0  0  0  0  0  0
  -24.9810  -34.0430   24.9610 H   0  0  0  0  0  0  0  0  0  0  0  0
  -24.1830  -36.7480   23.0620 C   0  0  0  0  0  1  0  0  0  0  0  0
  -25.4230  -36.3390   23.8750 C   0  0  0  0  0  3  0  0  0  0  0  0
  -27.5520  -37.2230   24.7200 C   0  0  0  0  0  1  0  0  0  0  0  0
  -26.4540  -37.3940   23.7720 N   0  0  0  0  0  0  0  0  0  0  0  0
  -26.0470  -38.3140   23.9190 H   0  0  0  0  0  0  0  0  0  0  0  0
  1  2  2  0
  3  8  1  0
  5  3  1  0
  5 18  1  0
  5  7  1  0
  6  4  1  0
  6  1  1  0
  6  8  1  0
  7  4  1  0
  7  8  1  0
  9  3  2  0
 10 18  1  0
 11 16  1  0
 12 13  1  0
 12 11  1  0
 14 13  1  0
 14 23  1  0
 14 15  1  0
 16 10  1  0
 16 15  1  0
 17 10  2  0
 18 19  1  0
 20 21  2  0
 21 40  1  0
 22 21  1  0
 22 25  1  0
 23 20  1  0
 23 24  1  0
 24 22  2  0
 25 26  1  0
 26 27  2  0
 28 31  1  0
 28 27  1  0
 29 28  2  0
 30 29  1  0
 30 25  2  0
 31 32  1  0
 32 33  1  0
 33 34  2  0
 35 34  1  0
 35 39  1  0
 36 35  2  0
 37 32  2  0
 37 36  1  0
 38 37  1  0
 40 41  1  0
 41 44  1  0
 41 43  1  0
 42 40  2  0
 45 46  1  0
 45 20  1  0
 47 45  1  0
 50 48  1  6
 50  1  1  0
 50 49  1  0
 51 50  1  0
 51 52  1  0
 53 64  2  0
 54 52  1  0
 54 59  1  0
 55 63  1  0
 55 65  1  0
 56 62  1  0
 56 58  1  0
 57 63  1  0
 58 59  2  0
 58 57  1  0
 60 54  2  0
 61 60  1  0
 61 56  2  0
 62 55  1  0
 63 53  1  0
 65 67  2  0
 66 65  1  0
 68 66  1  0
 69 78  2  0
 69 74  1  0
 70 66  1  0
 70 74  1  0
 71 70  1  0
 72 73  1  0
 72 71  1  0
 73 69  1  0
 74 75  2  0
 75 76  1  0
 77 76  2  0
 78 77  1  0
 79 53  1  0
 79 84  1  0
 79 80  1  0
 80 83  1  1
 80 81  1  0
 82 80  1  0
 84 87  1  0
 85 89  1  0
 85 84  1  0
 86 85  2  0
 89 88  1  0
 91 89  1  0
 91 92  1  0
 91 90  1  0
M  ISO  4  10 100  18 100  51 101  52 101
M  END
>  <TORSDO>  (81) 
F 19

>  <SCORE>  (81) 
-14.353

>  <name>  (81) 
80

>  <ligand_id>  (81) 
80

>  <original_smiles>  (81) 
[H]c1c([H])c([H])c2c(c1[H])C([H])([H])C([H])([H])C([H])([H])C2([H])N([H])C(=O)C1([H])N(C(=O)C([H])(N([H])C(=O)C([H])(N([H])C([H])([H])[H])C([H])([H])[H])C(C([H])([H])[H])(C([H])([H])[H])C([H])([H])[H])C([H])([H])c2c([H])c(OC([H])([H])C(C(=O)C3([H])N4C(=O)C([H])(N([H])C(=O)N5C([H])([H])C([H])([H])C([H])([H])C([H])(n6nc(-c7c([H])c([H])c(Oc8c([H])c([H])c(F)c([H])c8F)c([H])c7[H])c(C(=O)N([H])[H])c6N([H])[H])C5([H])[H])C4([H])C3([H])[H])(C([H])([H])[H])C([H])([H])[H])c([H])c([H])c2C1([H])[H]

>  <smiles>  (81) 
[H]c1c([H])c([H])c2c(c1[H])C([H])([H])C([H])([H])C([H])([H])C2([H])N([H])C(=O)C1([H])N(C(=O)C([H])(N([H])C(=O)C([H])(N([H])C([H])([H])[H])C([H])([H])[H])C(C([H])([H])[H])(C([H])([H])[H])C([H])([H])[H])C([H])([H])c2c([H])c(OC([H])([H])C(C(=O)C3([H])N4C(=O)C([H])(N([H])C(=O)N5C([H])([H])C([H])([H])C([H])([H])C([H])(n6nc(-c7c([H])c([H])c(Oc8c([H])c([H])c(F)c([H])c8F)c([H])c7[H])c(C(=O)N([H])[H])c6N([H])[H])C5([H])[H])C4([H])C3([H])[H])(C([H])([H])[H])C([H])([H])[H])c([H])c([H])c2C1([H])[H]

$$$$
81:0:0
     RDKit          3D

 92100  0  0  1  0  0  0  0  0999 V2000
  -27.8030  -22.2560   18.6640 C   0  0  0  0  0  2  0  0  0  0  0  0
  -29.4000  -21.1340   19.4390 C   0  0  0  0  0  3  0  0  0  0  0  0
  -28.2580  -20.8260   18.4580 C   0  0  0  0  0  3  0  0  0  0  0  0
  -28.5430  -20.3280   17.0410 C   0  0  0  0  0  1  0  0  0  0  0  0
  -28.5910  -22.3510   19.9010 N   0  0  1  0  0  4  0  0  0  0  0  0
  -28.0300  -22.0750   20.6960 H   0  0  0  0  0  0  0  0  0  0  0  0
  -29.6550  -19.9590   20.4670 C   0  0  0  0  0  0  0  0  0  0  0  0
  -29.6010  -20.1110   21.6900 O   0  0  0  0  0  0  0  0  0  0  0  0
  -31.1020  -18.4910   18.8710 C   0  0  0  0  0  1  0  0  0  0  0  0
  -29.9660  -18.4770   19.9130 C   0  0  0  0  0  3  0  0  0  0  0  0
  -30.2610  -17.2850   20.9590 C   0  0  0  0  0  2  0  0  0  0  0  0
  -30.6880  -14.7360   20.3780 C   0  0  0  0  0  0  0  0  0  0  0  0
  -30.4720  -12.4770   19.3400 C   0  0  0  0  0  2  0  0  0  0  0  0
  -29.5330  -12.5660   18.1170 C   0  0  0  0  0  2  0  0  0  0  0  0
  -28.0610  -12.4100   18.5450 C   0  0  0  0  0  2  0  0  0  0  0  0
  -27.6920  -13.2990   19.7630 C   0  0  0  0  0  3  0  0  0  0  0  0
  -28.7480  -13.1840   20.8840 C   0  0  0  0  0  2  0  0  0  0  0  0
  -30.0510  -13.5230   20.2930 N   0  0  0  0  0  0  0  0  0  0  0  0
  -31.8770  -14.8510   20.0720 O   0  0  0  0  0  0  0  0  0  0  0  0
  -29.9060  -15.8400   20.6300 N   0  0  0  0  0  0  0  0  0  0  0  0
  -28.9330  -15.6100   20.7680 H   0  0  0  0  0  0  0  0  0  0  0  0
  -25.2980  -13.9090   20.4620 C   0  0  0  0  0  0  0  0  0  0  0  0
  -24.2250  -13.1430   20.8310 C   0  0  0  0  0  0  0  0  0  0  0  0
  -24.6840  -11.7910   20.8200 C   0  0  0  0  0  0  0  0  0  0  0  0
  -26.3410  -13.0240   20.2450 N   0  0  0  0  0  0  0  0  0  0  0  0
  -25.9770  -11.7450   20.5230 N   0  0  0  0  0  0  0  0  0  0  0  0
  -23.9520  -10.5330   21.0170 C   0  0  0  0  0  0  0  0  0  0  0  0
  -24.3840   -9.5640   21.9500 C   0  0  0  0  0  3  0  0  0  0  0  0
  -23.6520   -8.3720   22.1360 C   0  0  0  0  0  3  0  0  0  0  0  0
  -22.4730   -8.1390   21.3870 C   0  0  0  0  0  0  0  0  0  0  0  0
  -22.0610   -9.0960   20.4430 C   0  0  0  0  0  3  0  0  0  0  0  0
  -22.7930  -10.2800   20.2560 C   0  0  0  0  0  3  0  0  0  0  0  0
  -21.7130   -6.9990   21.4820 O   0  0  0  0  0  0  0  0  0  0  0  0
  -21.6740   -6.2520   22.6320 C   0  0  0  0  0  0  0  0  0  0  0  0
  -21.2850   -6.8100   23.8710 C   0  0  0  0  0  3  0  0  0  0  0  0
  -21.1940   -5.9910   25.0130 C   0  0  0  0  0  3  0  0  0  0  0  0
  -21.4820   -4.6160   24.9200 C   0  0  0  0  0  0  0  0  0  0  0  0
  -21.8630   -4.0580   23.6870 C   0  0  0  0  0  3  0  0  0  0  0  0
  -21.9560   -4.8740   22.5470 C   0  0  0  0  0  0  0  0  0  0  0  0
  -22.3050   -4.3280   21.3560 F   0  0  0  0  0  0  0  0  0  0  0  0
  -21.3860   -3.8270   26.0150 F   0  0  0  0  0  0  0  0  0  0  0  0
  -22.8270  -13.6270   21.0850 C   0  0  0  0  0  0  0  0  0  0  0  0
  -22.0920  -12.9430   21.9540 N   0  0  0  0  0  0  0  0  0  0  0  0
  -22.3950  -14.6470   20.5480 O   0  0  0  0  0  0  0  0  0  0  0  0
  -22.4570  -12.1190   22.4090 H   0  0  0  0  0  0  0  0  0  0  0  0
  -21.1520  -13.2460   22.1670 H   0  0  0  0  0  0  0  0  0  0  0  0
  -25.4660  -15.2770   20.2660 N   0  0  0  0  0  0  0  0  0  0  0  0
  -24.6920  -15.9280   20.3480 H   0  0  0  0  0  0  0  0  0  0  0  0
  -26.3030  -15.7060   19.8930 H   0  0  0  0  0  0  0  0  0  0  0  0
  -29.1500  -23.7790   20.0720 C   0  0  0  0  0  3  0  0  0  0  0  0
  -28.0710  -24.9730   19.9080 C   0  0  0  0  0  3  0  0  0  0  0  0
  -28.3350  -26.4330   20.1210 O   0  0  0  0  0  0  0  0  0  0  0  0
  -24.6450  -31.8800   23.1950 C   0  0  0  0  0  0  0  0  0  0  0  0
  -27.2240  -27.3110   20.0860 C   0  0  0  0  0  0  0  0  0  0  0  0
  -23.4250  -30.4830   21.5700 C   0  0  0  0  0  3  0  0  0  0  0  0
  -24.8580  -28.9430   20.1200 C   0  0  0  0  0  0  0  0  0  0  0  0
  -25.9650  -30.8000   21.3570 C   0  0  0  0  0  2  0  0  0  0  0  0
  -26.0390  -29.4230   20.7020 C   0  0  0  0  0  0  0  0  0  0  0  0
  -27.2240  -28.6210   20.6740 C   0  0  0  0  0  3  0  0  0  0  0  0
  -26.0110  -26.9000   19.4810 C   0  0  0  0  0  3  0  0  0  0  0  0
  -24.8480  -27.6890   19.5000 C   0  0  0  0  0  3  0  0  0  0  0  0
  -23.6220  -29.8160   20.1860 C   0  0  0  0  0  2  0  0  0  0  0  0
  -24.6980  -31.0720   22.0960 N   0  0  0  0  0  0  0  0  0  0  0  0
  -23.5680  -32.1540   23.7430 O   0  0  0  0  0  0  0  0  0  0  0  0
  -22.7750  -29.4610   22.5350 C   0  0  0  0  0  0  0  0  0  0  0  0
  -21.4480  -29.2820   22.4270 N   0  0  0  0  0  0  0  0  0  0  0  0
  -23.4650  -28.8330   23.3420 O   0  0  0  0  0  0  0  0  0  0  0  0
  -20.9480  -29.8400   21.7490 H   0  0  0  0  0  0  0  0  0  0  0  0
  -18.0800  -28.0750   22.9660 C   0  0  0  0  0  0  0  0  0  0  0  0
  -20.6400  -28.3420   23.2070 C   0  0  0  0  0  3  0  0  0  0  0  0
  -20.7400  -26.9110   22.6300 C   0  0  0  0  0  2  0  0  0  0  0  0
  -19.6280  -26.5840   21.6290 C   0  0  0  0  0  2  0  0  0  0  0  0
  -18.2520  -26.7260   22.2880 C   0  0  0  0  0  2  0  0  0  0  0  0
  -19.2010  -28.8410   23.3840 C   0  0  0  0  0  0  0  0  0  0  0  0
  -18.9850  -30.1040   23.9770 C   0  0  0  0  0  3  0  0  0  0  0  0
  -17.6790  -30.6010   24.1560 C   0  0  0  0  0  3  0  0  0  0  0  0
  -16.5740  -29.8320   23.7550 C   0  0  0  0  0  3  0  0  0  0  0  0
  -16.7740  -28.5710   23.1680 C   0  0  0  0  0  3  0  0  0  0  0  0
  -25.9340  -32.5140   23.8030 C   0  0  0  0  0  3  0  0  0  0  0  0
  -25.6210  -33.9060   24.1550 N   0  0  0  0  0  0  0  0  0  0  0  0
  -25.9310  -34.9710   23.4030 C   0  0  0  0  0  0  0  0  0  0  0  0
  -26.5810  -34.8840   22.3580 O   0  0  0  0  0  0  0  0  0  0  0  0
  -25.0410  -34.0480   24.9700 H   0  0  0  0  0  0  0  0  0  0  0  0
  -24.1840  -36.7570   23.1070 C   0  0  0  0  0  1  0  0  0  0  0  0
  -25.4440  -36.3500   23.8880 C   0  0  0  0  0  3  0  0  0  0  0  0
  -27.5900  -37.2380   24.6840 C   0  0  0  0  0  1  0  0  0  0  0  0
  -26.4670  -37.4110   23.7680 N   0  0  0  0  0  0  0  0  0  0  0  0
  -26.0580  -38.3280   23.9350 H   0  0  0  0  0  0  0  0  0  0  0  0
  -26.4780  -31.7330   25.0620 C   0  0  1  0  0  0  0  0  0  0  0  0
  -25.4080  -31.4760   26.1480 C   0  0  0  0  0  1  0  0  0  0  0  0
  -27.0600  -30.3610   24.6460 C   0  0  0  0  0  1  0  0  0  0  0  0
  -27.6360  -32.5260   25.7100 C   0  0  0  0  0  1  0  0  0  0  0  0
  1  5  1  0
  2  5  1  0
  2  7  1  0
  3  4  1  0
  3  1  1  0
  3  2  1  0
  5 50  1  0
  5  6  1  1
  7  8  2  0
 10  9  1  0
 10  7  1  0
 10 11  1  0
 12 20  1  0
 13 18  1  0
 14 15  1  0
 14 13  1  0
 16 15  1  0
 16 25  1  0
 16 17  1  0
 18 12  1  0
 18 17  1  0
 19 12  2  0
 20 21  1  0
 20 11  1  0
 22 23  2  0
 23 42  1  0
 24 23  1  0
 24 27  1  0
 25 22  1  0
 25 26  1  0
 26 24  2  0
 27 28  1  0
 28 29  2  0
 30 33  1  0
 30 29  1  0
 31 30  2  0
 32 31  1  0
 32 27  2  0
 33 34  1  0
 34 35  1  0
 35 36  2  0
 37 36  1  0
 37 41  1  0
 38 37  2  0
 39 34  2  0
 39 38  1  0
 40 39  1  0
 42 43  1  0
 43 46  1  0
 43 45  1  0
 44 42  2  0
 47 48  1  0
 47 22  1  0
 49 47  1  0
 51 50  2  0
 51 52  1  0
 53 64  2  0
 54 52  1  0
 54 59  1  0
 55 63  1  0
 55 65  1  0
 56 62  1  0
 56 58  1  0
 57 63  1  0
 58 57  1  0
 59 58  2  0
 60 61  1  0
 60 54  2  0
 61 56  2  0
 62 55  1  0
 63 53  1  0
 65 67  2  0
 66 65  1  0
 68 66  1  0
 69 78  2  0
 69 74  1  0
 70 66  1  0
 70 74  1  0
 71 70  1  0
 72 73  1  0
 72 71  1  0
 73 69  1  0
 74 75  2  0
 75 76  1  0
 77 76  2  0
 78 77  1  0
 79 53  1  0
 79 80  1  0
 79 89  1  0
 80 83  1  0
 81 85  1  0
 81 80  1  0
 82 81  2  0
 85 84  1  0
 87 85  1  0
 87 88  1  0
 87 86  1  0
 89 92  1  1
 89 90  1  0
 91 89  1  0
M  ISO  4  12 100  20 100  51 101  52 101
M  END
>  <TORSDO>  (82) 
F 21

>  <SCORE>  (82) 
-13.417

>  <name>  (82) 
81

>  <ligand_id>  (82) 
81

>  <original_smiles>  (82) 
[H]c1c([H])c([H])c2c(c1[H])C([H])([H])C([H])([H])C([H])([H])C2([H])N([H])C(=O)C1([H])N(C(=O)C([H])(N([H])C(=O)C([H])(N([H])C([H])([H])[H])C([H])([H])[H])C(C([H])([H])[H])(C([H])([H])[H])C([H])([H])[H])C([H])([H])c2c([H])c(OC([H])([H])C([H])([H])[N+]3([H])C([H])([H])C([H])(C([H])([H])[H])C3([H])C(=O)C([H])(C([H])([H])[H])C([H])([H])N([H])C(=O)N3C([H])([H])C([H])([H])C([H])([H])C([H])(n4nc(-c5c([H])c([H])c(Oc6c([H])c([H])c(F)c([H])c6F)c([H])c5[H])c(C(=O)N([H])[H])c4N([H])[H])C3([H])[H])c([H])c([H])c2C1([H])[H]

>  <smiles>  (82) 
[H]c1c([H])c([H])c2c(c1[H])C([H])([H])C([H])([H])C([H])([H])C2([H])N([H])C(=O)C1([H])N(C(=O)C([H])(N([H])C(=O)C([H])(N([H])C([H])([H])[H])C([H])([H])[H])C(C([H])([H])[H])(C([H])([H])[H])C([H])([H])[H])C([H])([H])c2c([H])c(OC([H])([H])C([H])([H])[N+]3([H])C([H])([H])C([H])(C([H])([H])[H])C3([H])C(=O)C([H])(C([H])([H])[H])C([H])([H])N([H])C(=O)N3C([H])([H])C([H])([H])C([H])([H])C([H])(n4nc(-c5c([H])c([H])c(Oc6c([H])c([H])c(F)c([H])c6F)c([H])c5[H])c(C(=O)N([H])[H])c4N([H])[H])C3([H])[H])c([H])c([H])c2C1([H])[H]

$$$$
82:0:0
     RDKit          3D

 96106  0  0  1  0  0  0  0  0999 V2000
  -32.4690  -22.2840   20.9700 C   0  0  0  0  0  0  0  0  0  0  0  0
  -33.4020  -21.5370   21.5690 C   0  0  0  0  0  2  0  0  0  0  0  0
  -32.2950  -23.7820   20.9590 C   0  0  0  0  0  2  0  0  0  0  0  0
  -31.2880  -21.9450   20.0810 C   0  0  0  0  0  3  0  0  0  0  0  0
  -31.0140  -23.4560   20.1790 C   0  0  0  0  0  3  0  0  0  0  0  0
  -29.9520  -21.6560   20.7860 C   0  0  0  0  0  3  0  0  0  0  0  0
  -29.6520  -23.2250   20.8540 C   0  0  0  0  0  3  0  0  0  0  0  0
  -28.4150  -19.5880   18.5230 C   0  0  0  0  0  2  0  0  0  0  0  0
  -29.4770  -19.3940   19.3280 C   0  0  0  0  0  3  0  0  0  0  0  0
  -27.8900  -20.6130   19.4240 C   0  0  0  0  0  0  0  0  0  0  0  0
  -29.0520  -20.4070   20.4390 C   0  0  0  0  0  3  0  0  0  0  0  0
  -26.8420  -21.2640   19.3810 O   0  0  0  0  0  0  0  0  0  0  0  0
  -30.6180  -17.5030   18.1220 C   0  0  0  0  0  1  0  0  0  0  0  0
  -30.4820  -18.2410   19.4060 N   0  0  2  0  0  4  0  0  0  0  0  0
  -31.3740  -18.7120   19.4570 H   0  0  0  0  0  0  0  0  0  0  0  0
  -30.5710  -17.3490   20.6280 C   0  0  0  0  0  2  0  0  0  0  0  0
  -29.8710  -15.9190   20.6530 C   0  0  0  0  0  2  0  0  0  0  0  0
  -30.6460  -14.6460   20.1450 C   0  0  0  0  0  0  0  0  0  0  0  0
  -30.4020  -12.3770   19.1520 C   0  0  0  0  0  2  0  0  0  0  0  0
  -29.4390  -12.4810   17.9470 C   0  0  0  0  0  2  0  0  0  0  0  0
  -27.9750  -12.3330   18.4090 C   0  0  0  0  0  2  0  0  0  0  0  0
  -27.6450  -13.2430   19.6180 C   0  0  0  0  0  3  0  0  0  0  0  0
  -28.7200  -13.1300   20.7200 C   0  0  0  0  0  2  0  0  0  0  0  0
  -30.0270  -13.4250   20.1180 N   0  0  0  0  0  0  0  0  0  0  0  0
  -31.7730  -14.7910   19.6650 O   0  0  0  0  0  0  0  0  0  0  0  0
  -25.2890  -13.8940   20.4080 C   0  0  0  0  0  0  0  0  0  0  0  0
  -24.2150  -13.1400   20.8030 C   0  0  0  0  0  0  0  0  0  0  0  0
  -24.6510  -11.7790   20.7570 C   0  0  0  0  0  0  0  0  0  0  0  0
  -26.3060  -12.9930   20.1370 N   0  0  0  0  0  0  0  0  0  0  0  0
  -25.9300  -11.7180   20.4110 N   0  0  0  0  0  0  0  0  0  0  0  0
  -23.9100  -10.5270   20.9690 C   0  0  0  0  0  0  0  0  0  0  0  0
  -24.3550   -9.5550   21.8930 C   0  0  0  0  0  3  0  0  0  0  0  0
  -23.6160   -8.3710   22.0970 C   0  0  0  0  0  3  0  0  0  0  0  0
  -22.4240   -8.1440   21.3690 C   0  0  0  0  0  0  0  0  0  0  0  0
  -21.9900   -9.1120   20.4430 C   0  0  0  0  0  3  0  0  0  0  0  0
  -22.7290  -10.2880   20.2360 C   0  0  0  0  0  3  0  0  0  0  0  0
  -21.6600   -7.0090   21.4770 O   0  0  0  0  0  0  0  0  0  0  0  0
  -21.6450   -6.2620   22.6310 C   0  0  0  0  0  0  0  0  0  0  0  0
  -21.2720   -6.8210   23.8710 C   0  0  0  0  0  3  0  0  0  0  0  0
  -21.1940   -6.0000   25.0170 C   0  0  0  0  0  3  0  0  0  0  0  0
  -21.4870   -4.6270   24.9170 C   0  0  0  0  0  0  0  0  0  0  0  0
  -21.8580   -4.0690   23.6820 C   0  0  0  0  0  3  0  0  0  0  0  0
  -21.9360   -4.8870   22.5380 C   0  0  0  0  0  0  0  0  0  0  0  0
  -22.2690   -4.3420   21.3430 F   0  0  0  0  0  0  0  0  0  0  0  0
  -21.4160   -3.8360   26.0160 F   0  0  0  0  0  0  0  0  0  0  0  0
  -22.8310  -13.6400   21.1090 C   0  0  0  0  0  0  0  0  0  0  0  0
  -22.1180  -12.9680   22.0040 N   0  0  0  0  0  0  0  0  0  0  0  0
  -22.3920  -14.6640   20.5900 O   0  0  0  0  0  0  0  0  0  0  0  0
  -22.4790  -12.1320   22.4400 H   0  0  0  0  0  0  0  0  0  0  0  0
  -21.1930  -13.2870   22.2490 H   0  0  0  0  0  0  0  0  0  0  0  0
  -25.4890  -15.2610   20.2400 N   0  0  0  0  0  0  0  0  0  0  0  0
  -24.7860  -15.9500   20.4760 H   0  0  0  0  0  0  0  0  0  0  0  0
  -26.3500  -15.6740   19.9120 H   0  0  0  0  0  0  0  0  0  0  0  0
  -28.5180  -24.1230   20.2660 C   0  0  0  0  0  2  0  0  0  0  0  0
  -28.5860  -25.6010   20.8310 C   0  0  0  0  0  2  0  0  0  0  0  0
  -28.4180  -26.6890   19.8940 O   0  0  0  0  0  0  0  0  0  0  0  0
  -24.5700  -31.7800   23.1550 C   0  0  0  0  0  0  0  0  0  0  0  0
  -27.2570  -27.4290   19.9820 C   0  0  0  0  0  0  0  0  0  0  0  0
  -23.3790  -30.4130   21.4710 C   0  0  0  0  0  3  0  0  0  0  0  0
  -24.8510  -28.9220   20.0130 C   0  0  0  0  0  0  0  0  0  0  0  0
  -25.9010  -30.8020   21.2860 C   0  0  0  0  0  2  0  0  0  0  0  0
  -26.0050  -29.4480   20.6100 C   0  0  0  0  0  0  0  0  0  0  0  0
  -27.2160  -28.7120   20.5870 C   0  0  0  0  0  3  0  0  0  0  0  0
  -26.0920  -26.9230   19.3790 C   0  0  0  0  0  3  0  0  0  0  0  0
  -24.8920  -27.6640   19.3860 C   0  0  0  0  0  3  0  0  0  0  0  0
  -23.5970  -29.7660   20.0760 C   0  0  0  0  0  2  0  0  0  0  0  0
  -24.6340  -31.0130   22.0290 N   0  0  0  0  0  0  0  0  0  0  0  0
  -23.4860  -32.0250   23.7060 O   0  0  0  0  0  0  0  0  0  0  0  0
  -22.7370  -29.3600   22.4040 C   0  0  0  0  0  0  0  0  0  0  0  0
  -21.4090  -29.1900   22.2940 N   0  0  0  0  0  0  0  0  0  0  0  0
  -23.4320  -28.7030   23.1850 O   0  0  0  0  0  0  0  0  0  0  0  0
  -20.9040  -29.7720   21.6390 H   0  0  0  0  0  0  0  0  0  0  0  0
  -18.0380  -28.0030   22.8220 C   0  0  0  0  0  0  0  0  0  0  0  0
  -20.6050  -28.2240   23.0410 C   0  0  0  0  0  3  0  0  0  0  0  0
  -20.6770  -26.8180   22.3990 C   0  0  0  0  0  2  0  0  0  0  0  0
  -19.5480  -26.5530   21.3980 C   0  0  0  0  0  2  0  0  0  0  0  0
  -18.1850  -26.6820   22.0840 C   0  0  0  0  0  2  0  0  0  0  0  0
  -19.1740  -28.7330   23.2590 C   0  0  0  0  0  0  0  0  0  0  0  0
  -18.9840  -29.9710   23.9100 C   0  0  0  0  0  3  0  0  0  0  0  0
  -17.6890  -30.4790   24.1250 C   0  0  0  0  0  3  0  0  0  0  0  0
  -16.5670  -29.7440   23.7040 C   0  0  0  0  0  3  0  0  0  0  0  0
  -16.7430  -28.5060   23.0590 C   0  0  0  0  0  3  0  0  0  0  0  0
  -25.8530  -32.4100   23.7870 C   0  0  0  0  0  3  0  0  0  0  0  0
  -25.5330  -33.8000   24.1340 N   0  0  0  0  0  0  0  0  0  0  0  0
  -25.8620  -34.8650   23.3920 C   0  0  0  0  0  0  0  0  0  0  0  0
  -26.5350  -34.7820   22.3600 O   0  0  0  0  0  0  0  0  0  0  0  0
  -24.9310  -33.9390   24.9330 H   0  0  0  0  0  0  0  0  0  0  0  0
  -24.1210  -36.6470   23.0710 C   0  0  0  0  0  1  0  0  0  0  0  0
  -25.3680  -36.2410   23.8720 C   0  0  0  0  0  3  0  0  0  0  0  0
  -27.4930  -37.1330   24.7120 C   0  0  0  0  0  1  0  0  0  0  0  0
  -26.3900  -37.3050   23.7710 N   0  0  0  0  0  0  0  0  0  0  0  0
  -25.9750  -38.2190   23.9360 H   0  0  0  0  0  0  0  0  0  0  0  0
  -26.3690  -31.6210   25.0510 C   0  0  1  0  0  0  0  0  0  0  0  0
  -25.2750  -31.3630   26.1120 C   0  0  0  0  0  1  0  0  0  0  0  0
  -26.9570  -30.2520   24.6380 C   0  0  0  0  0  1  0  0  0  0  0  0
  -27.5110  -32.4140   25.7300 C   0  0  0  0  0  1  0  0  0  0  0  0
  1  2  2  0
  3  1  1  0
  4  5  1  0
  4  6  1  0
  4  1  1  0
  5  7  1  0
  5  3  1  0
  6 11  1  0
  6  7  1  0
  7 54  1  0
  8  9  1  0
  8 10  1  0
  9 14  1  0
  9 11  1  0
 11 10  1  0
 12 10  2  0
 13 14  1  0
 14 15  1  1
 14 16  1  0
 16 17  1  0
 18 17  1  0
 19 24  1  0
 20 21  1  0
 20 19  1  0
 22 21  1  0
 22 29  1  0
 22 23  1  0
 24 18  1  0
 24 23  1  0
 25 18  2  0
 26 27  2  0
 27 46  1  0
 28 27  1  0
 28 31  1  0
 29 26  1  0
 29 30  1  0
 30 28  2  0
 31 32  1  0
 32 33  2  0
 34 37  1  0
 34 33  1  0
 35 34  2  0
 36 35  1  0
 36 31  2  0
 37 38  1  0
 38 39  1  0
 39 40  2  0
 41 40  1  0
 41 45  1  0
 42 41  2  0
 43 38  2  0
 43 42  1  0
 44 43  1  0
 46 47  1  0
 47 50  1  0
 47 49  1  0
 48 46  2  0
 51 26  1  0
 51 52  1  0
 53 51  1  0
 54 55  1  0
 56 58  1  0
 56 55  1  0
 57 68  2  0
 58 63  1  0
 59 67  1  0
 59 69  1  0
 60 66  1  0
 60 62  1  0
 61 67  1  0
 62 61  1  0
 63 62  2  0
 64 65  1  0
 64 58  2  0
 65 60  2  0
 66 59  1  0
 67 57  1  0
 69 71  2  0
 70 69  1  0
 72 70  1  0
 73 82  2  0
 73 78  1  0
 74 70  1  0
 74 78  1  0
 75 74  1  0
 76 77  1  0
 76 75  1  0
 77 73  1  0
 78 79  2  0
 79 80  1  0
 81 80  2  0
 82 81  1  0
 83 57  1  0
 83 84  1  0
 83 93  1  0
 84 87  1  0
 85 89  1  0
 85 84  1  0
 86 85  2  0
 89 88  1  0
 91 89  1  0
 91 92  1  0
 91 90  1  0
 93 96  1  1
 93 94  1  0
 95 93  1  0
M  ISO  4  17 100  18 100  55 101  56 101
M  END
>  <TORSDO>  (83) 
F 22

>  <SCORE>  (83) 
-12.183

>  <name>  (83) 
82

>  <ligand_id>  (83) 
82

>  <original_smiles>  (83) 
[H]C([H])=C1C([H])([H])C2([H])C1([H])C([H])(C1([H])C(=O)C([H])=C1[N+]([H])(C([H])([H])[H])C([H])([H])C([H])([H])C(=O)N1C([H])([H])C([H])([H])C([H])([H])C([H])(n3nc(-c4c([H])c([H])c(Oc5c([H])c([H])c(F)c([H])c5F)c([H])c4[H])c(C(=O)N([H])[H])c3N([H])[H])C1([H])[H])C2([H])C([H])([H])C([H])([H])Oc1c([H])c([H])c2c(c1[H])C([H])([H])N(C(=O)C([H])(N([H])C(=O)C([H])(N([H])C([H])([H])[H])C([H])([H])[H])C(C([H])([H])[H])(C([H])([H])[H])C([H])([H])[H])C([H])(C(=O)N([H])C1([H])c3c([H])c([H])c([H])c([H])c3C([H])([H])C([H])([H])C1([H])[H])C2([H])[H]

>  <smiles>  (83) 
[H]C([H])=C1C([H])([H])C2([H])C1([H])C([H])(C1([H])C(=O)C([H])=C1[N+]([H])(C([H])([H])[H])C([H])([H])C([H])([H])C(=O)N1C([H])([H])C([H])([H])C([H])([H])C([H])(n3nc(-c4c([H])c([H])c(Oc5c([H])c([H])c(F)c([H])c5F)c([H])c4[H])c(C(=O)N([H])[H])c3N([H])[H])C1([H])[H])C2([H])C([H])([H])C([H])([H])Oc1c([H])c([H])c2c(c1[H])C([H])([H])N(C(=O)C([H])(N([H])C(=O)C([H])(N([H])C([H])([H])[H])C([H])([H])[H])C(C([H])([H])[H])(C([H])([H])[H])C([H])([H])[H])C([H])(C(=O)N([H])C1([H])c3c([H])c([H])c([H])c([H])c3C([H])([H])C([H])([H])C1([H])[H])C2([H])[H]

$$$$
83:0:0
     RDKit          3D

 87 95  0  0  1  0  0  0  0  0999 V2000
  -29.3870  -20.0760   20.4330 C   0  0  0  0  0  3  0  0  0  0  0  0
  -30.1500  -20.0150   21.6540 C   0  0  0  0  0  0  0  0  0  0  0  0
  -31.0610  -18.8610   21.1110 C   0  0  0  0  0  2  0  0  0  0  0  0
  -30.0480  -18.4600   19.9820 C   0  0  0  0  0  3  0  0  0  0  0  0
  -28.8020  -21.2280   20.0130 N   0  0  0  0  0  2  0  0  0  0  0  0
  -30.0820  -20.6800   22.6920 O   0  0  0  0  0  0  0  0  0  0  0  0
  -30.4900  -15.5340   20.1430 C   0  0  0  0  0  0  0  0  0  0  0  0
  -30.4930  -13.0590   19.3260 C   0  0  0  0  0  2  0  0  0  0  0  0
  -29.5590  -12.7930   18.1190 C   0  0  0  0  0  2  0  0  0  0  0  0
  -28.1260  -12.4970   18.5950 C   0  0  0  0  0  2  0  0  0  0  0  0
  -27.6740  -13.4790   19.7050 C   0  0  0  0  0  3  0  0  0  0  0  0
  -28.7390  -13.6890   20.8040 C   0  0  0  0  0  2  0  0  0  0  0  0
  -29.9400  -14.2140   20.1340 N   0  0  0  0  0  0  0  0  0  0  0  0
  -31.7030  -15.5290   19.8800 O   0  0  0  0  0  0  0  0  0  0  0  0
  -29.7340  -16.8220   20.2460 N   0  0  0  0  0  0  0  0  0  0  0  0
  -28.7590  -16.6500   20.4410 H   0  0  0  0  0  0  0  0  0  0  0  0
  -25.3290  -14.0090   20.5470 C   0  0  0  0  0  0  0  0  0  0  0  0
  -24.2810  -13.2200   20.9290 C   0  0  0  0  0  0  0  0  0  0  0  0
  -24.7500  -11.8720   20.8500 C   0  0  0  0  0  0  0  0  0  0  0  0
  -26.3650  -13.1440   20.2490 N   0  0  0  0  0  0  0  0  0  0  0  0
  -26.0310  -11.8500   20.5000 N   0  0  0  0  0  0  0  0  0  0  0  0
  -24.0290  -10.6040   21.0300 C   0  0  0  0  0  0  0  0  0  0  0  0
  -24.4630   -9.6320   21.9570 C   0  0  0  0  0  3  0  0  0  0  0  0
  -23.7390   -8.4310   22.1260 C   0  0  0  0  0  3  0  0  0  0  0  0
  -22.5680   -8.1940   21.3670 C   0  0  0  0  0  0  0  0  0  0  0  0
  -22.1540   -9.1560   20.4290 C   0  0  0  0  0  3  0  0  0  0  0  0
  -22.8780  -10.3480   20.2580 C   0  0  0  0  0  3  0  0  0  0  0  0
  -21.8160   -7.0470   21.4470 O   0  0  0  0  0  0  0  0  0  0  0  0
  -21.7350   -6.3190   22.6070 C   0  0  0  0  0  0  0  0  0  0  0  0
  -21.2070   -6.8680   23.7950 C   0  0  0  0  0  3  0  0  0  0  0  0
  -21.0760   -6.0630   24.9450 C   0  0  0  0  0  3  0  0  0  0  0  0
  -21.4630   -4.7110   24.9060 C   0  0  0  0  0  0  0  0  0  0  0  0
  -21.9840   -4.1610   23.7210 C   0  0  0  0  0  3  0  0  0  0  0  0
  -22.1160   -4.9630   22.5740 C   0  0  0  0  0  0  0  0  0  0  0  0
  -22.5980   -4.4220   21.4300 F   0  0  0  0  0  0  0  0  0  0  0  0
  -21.3310   -3.9350   26.0080 F   0  0  0  0  0  0  0  0  0  0  0  0
  -22.8920  -13.6880   21.2490 C   0  0  0  0  0  0  0  0  0  0  0  0
  -22.1920  -12.9770   22.1240 N   0  0  0  0  0  0  0  0  0  0  0  0
  -22.4380  -14.7200   20.7560 O   0  0  0  0  0  0  0  0  0  0  0  0
  -22.5730  -12.1420   22.5440 H   0  0  0  0  0  0  0  0  0  0  0  0
  -21.2600  -13.2720   22.3800 H   0  0  0  0  0  0  0  0  0  0  0  0
  -25.4810  -15.3850   20.3970 N   0  0  0  0  0  0  0  0  0  0  0  0
  -24.7090  -16.0270   20.5400 H   0  0  0  0  0  0  0  0  0  0  0  0
  -26.3000  -15.8330   20.0080 H   0  0  0  0  0  0  0  0  0  0  0  0
  -29.0220  -22.8630   20.3960 C   0  0  0  0  0  3  0  0  0  0  0  0
  -28.0380  -24.3600   20.0390 C   0  0  0  0  0  3  0  0  0  0  0  0
  -28.2130  -25.9960   20.3160 O   0  0  0  0  0  0  0  0  0  0  0  0
  -24.6360  -31.9560   23.3230 C   0  0  0  0  0  0  0  0  0  0  0  0
  -27.2000  -27.1010   20.2500 C   0  0  0  0  0  0  0  0  0  0  0  0
  -23.4440  -30.5750   21.6700 C   0  0  0  0  0  3  0  0  0  0  0  0
  -24.8960  -28.9870   20.2240 C   0  0  0  0  0  0  0  0  0  0  0  0
  -26.0100  -30.7900   21.5230 C   0  0  0  0  0  2  0  0  0  0  0  0
  -26.0840  -29.3860   20.8500 C   0  0  0  0  0  0  0  0  0  0  0  0
  -27.2280  -28.4640   20.8370 C   0  0  0  0  0  3  0  0  0  0  0  0
  -25.9820  -26.8600   19.5740 C   0  0  0  0  0  3  0  0  0  0  0  0
  -24.8720  -27.7470   19.5650 C   0  0  0  0  0  3  0  0  0  0  0  0
  -23.6750  -29.9070   20.2850 C   0  0  0  0  0  2  0  0  0  0  0  0
  -24.7190  -31.1350   22.2260 N   0  0  0  0  0  0  0  0  0  0  0  0
  -23.5470  -32.2360   23.8490 O   0  0  0  0  0  0  0  0  0  0  0  0
  -22.7520  -29.5680   22.6260 C   0  0  0  0  0  0  0  0  0  0  0  0
  -21.4280  -29.3780   22.4810 N   0  0  0  0  0  0  0  0  0  0  0  0
  -23.4170  -28.9570   23.4670 O   0  0  0  0  0  0  0  0  0  0  0  0
  -20.9440  -29.9230   21.7810 H   0  0  0  0  0  0  0  0  0  0  0  0
  -18.0650  -28.0890   22.9290 C   0  0  0  0  0  0  0  0  0  0  0  0
  -20.6120  -28.4240   23.2410 C   0  0  0  0  0  3  0  0  0  0  0  0
  -20.7620  -26.9910   22.6770 C   0  0  0  0  0  2  0  0  0  0  0  0
  -19.6890  -26.6350   21.6410 C   0  0  0  0  0  2  0  0  0  0  0  0
  -18.2920  -26.7440   22.2580 C   0  0  0  0  0  2  0  0  0  0  0  0
  -19.1550  -28.8840   23.3750 C   0  0  0  0  0  0  0  0  0  0  0  0
  -18.8870  -30.1390   23.9650 C   0  0  0  0  0  3  0  0  0  0  0  0
  -17.5650  -30.6000   24.1090 C   0  0  0  0  0  3  0  0  0  0  0  0
  -16.4910  -29.8030   23.6760 C   0  0  0  0  0  3  0  0  0  0  0  0
  -16.7420  -28.5500   23.0920 C   0  0  0  0  0  3  0  0  0  0  0  0
  -25.9050  -32.5970   23.9630 C   0  0  0  0  0  3  0  0  0  0  0  0
  -25.5960  -34.0060   24.2700 N   0  0  0  0  0  0  0  0  0  0  0  0
  -25.9200  -35.0500   23.4960 C   0  0  0  0  0  0  0  0  0  0  0  0
  -26.5700  -34.9290   22.4550 O   0  0  0  0  0  0  0  0  0  0  0  0
  -25.0150  -34.1720   25.0790 H   0  0  0  0  0  0  0  0  0  0  0  0
  -24.1830  -36.8450   23.1720 C   0  0  0  0  0  1  0  0  0  0  0  0
  -25.4520  -36.4500   23.9460 C   0  0  0  0  0  3  0  0  0  0  0  0
  -27.6050  -37.3620   24.6970 C   0  0  0  0  0  1  0  0  0  0  0  0
  -26.4800  -37.4990   23.7760 N   0  0  0  0  0  0  0  0  0  0  0  0
  -26.0770  -38.4240   23.9020 H   0  0  0  0  0  0  0  0  0  0  0  0
  -26.3830  -31.8500   25.2690 C   0  0  1  0  0  0  0  0  0  0  0  0
  -25.2620  -31.6430   26.3150 C   0  0  0  0  0  1  0  0  0  0  0  0
  -26.9680  -30.4600   24.9300 C   0  0  0  0  0  1  0  0  0  0  0  0
  -27.5220  -32.6520   25.9430 C   0  0  0  0  0  1  0  0  0  0  0  0
  1  5  1  0
  1  2  1  0
  2  6  2  0
  3  2  1  0
  4 15  1  0
  4  1  1  0
  4  3  1  0
  5 45  1  0
  7 15  1  0
  8 13  1  0
  9 10  1  0
  9  8  1  0
 11 10  1  0
 11 20  1  0
 11 12  1  0
 13  7  1  0
 13 12  1  0
 14  7  2  0
 15 16  1  0
 17 18  2  0
 18 37  1  0
 19 18  1  0
 19 22  1  0
 20 21  1  0
 20 17  1  0
 21 19  2  0
 22 23  1  0
 23 24  2  0
 25 28  1  0
 25 24  1  0
 26 25  2  0
 27 26  1  0
 27 22  2  0
 28 29  1  0
 29 30  1  0
 30 31  2  0
 32 31  1  0
 32 36  1  0
 33 32  2  0
 34 29  2  0
 34 33  1  0
 35 34  1  0
 37 38  1  0
 38 41  1  0
 38 40  1  0
 39 37  2  0
 42 43  1  0
 42 17  1  0
 44 42  1  0
 46 47  1  0
 46 45  2  0
 48 59  2  0
 49 47  1  0
 49 54  1  0
 50 58  1  0
 50 60  1  0
 51 57  1  0
 51 53  1  0
 52 58  1  0
 53 52  1  0
 54 53  2  0
 55 49  2  0
 56 55  1  0
 56 51  2  0
 57 50  1  0
 58 48  1  0
 60 62  2  0
 61 60  1  0
 63 61  1  0
 64 73  2  0
 64 69  1  0
 65 61  1  0
 65 69  1  0
 66 65  1  0
 67 68  1  0
 67 66  1  0
 68 64  1  0
 69 70  2  0
 70 71  1  0
 72 71  2  0
 73 72  1  0
 74 48  1  0
 74 75  1  0
 74 84  1  0
 75 78  1  0
 76 80  1  0
 76 75  1  0
 77 76  2  0
 80 79  1  0
 82 83  1  0
 82 80  1  0
 82 81  1  0
 84 87  1  1
 84 85  1  0
 86 84  1  0
M  ISO  4   7 100  15 100  46 101  47 101
M  END
>  <TORSDO>  (84) 
F 18

>  <SCORE>  (84) 
-16.320

>  <name>  (84) 
83

>  <ligand_id>  (84) 
83

>  <original_smiles>  (84) 
[H]c1c([H])c([H])c2c(c1[H])C([H])([H])C([H])([H])C([H])([H])C2([H])N([H])C(=O)C1([H])N(C(=O)C([H])(N([H])C(=O)C([H])(N([H])C([H])([H])[H])C([H])([H])[H])C(C([H])([H])[H])(C([H])([H])[H])C([H])([H])[H])C([H])([H])c2c([H])c(OC([H])([H])C([H])([H])N=C3C(=O)C([H])([H])C3([H])N([H])C(=O)N3C([H])([H])C([H])([H])C([H])([H])C([H])(n4nc(-c5c([H])c([H])c(Oc6c([H])c([H])c(F)c([H])c6F)c([H])c5[H])c(C(=O)N([H])[H])c4N([H])[H])C3([H])[H])c([H])c([H])c2C1([H])[H]

>  <smiles>  (84) 
[H]c1c([H])c([H])c2c(c1[H])C([H])([H])C([H])([H])C([H])([H])C2([H])N([H])C(=O)C1([H])N(C(=O)C([H])(N([H])C(=O)C([H])(N([H])C([H])([H])[H])C([H])([H])[H])C(C([H])([H])[H])(C([H])([H])[H])C([H])([H])[H])C([H])([H])c2c([H])c(OC([H])([H])C([H])([H])N=C3C(=O)C([H])([H])C3([H])N([H])C(=O)N3C([H])([H])C([H])([H])C([H])([H])C([H])(n4nc(-c5c([H])c([H])c(Oc6c([H])c([H])c(F)c([H])c6F)c([H])c5[H])c(C(=O)N([H])[H])c4N([H])[H])C3([H])[H])c([H])c([H])c2C1([H])[H]

$$$$
84:0:0
     RDKit          3D

 92101  0  0  1  0  0  0  0  0999 V2000
  -29.1960  -21.1020   20.6220 N   0  0  0  0  0  0  0  0  0  0  0  0
  -30.4810  -15.4610   20.1710 C   0  0  0  0  0  0  0  0  0  0  0  0
  -30.4730  -12.9770   19.3440 C   0  0  0  0  0  2  0  0  0  0  0  0
  -29.5540  -12.7110   18.1200 C   0  0  0  0  0  2  0  0  0  0  0  0
  -28.1170  -12.4070   18.5740 C   0  0  0  0  0  2  0  0  0  0  0  0
  -27.6440  -13.3880   19.6730 C   0  0  0  0  0  3  0  0  0  0  0  0
  -28.6940  -13.6120   20.7810 C   0  0  0  0  0  2  0  0  0  0  0  0
  -29.9160  -14.1370   20.1470 N   0  0  0  0  0  0  0  0  0  0  0  0
  -31.7090  -15.4140   19.9730 O   0  0  0  0  0  0  0  0  0  0  0  0
  -28.4180  -17.3230   20.0930 C   0  0  0  0  0  3  0  0  0  0  0  0
  -29.2480  -19.5480   20.3170 C   0  0  0  0  0  0  0  0  0  0  0  0
  -28.0990  -18.6980   20.1180 C   0  0  0  0  0  0  0  0  0  0  0  0
  -30.2450  -18.4630   20.3810 C   0  0  0  0  0  0  0  0  0  0  0  0
  -29.7820  -17.0190   20.2450 N   0  0  0  0  0  0  0  0  0  0  0  0
  -25.2880  -13.9100   20.4910 C   0  0  0  0  0  0  0  0  0  0  0  0
  -24.2410  -13.1210   20.8740 C   0  0  0  0  0  0  0  0  0  0  0  0
  -24.7210  -11.7770   20.8190 C   0  0  0  0  0  0  0  0  0  0  0  0
  -26.3330  -13.0490   20.2110 N   0  0  0  0  0  0  0  0  0  0  0  0
  -26.0070  -11.7570   20.4800 N   0  0  0  0  0  0  0  0  0  0  0  0
  -24.0040  -10.5070   21.0050 C   0  0  0  0  0  0  0  0  0  0  0  0
  -24.4390   -9.5420   21.9390 C   0  0  0  0  0  3  0  0  0  0  0  0
  -23.7170   -8.3420   22.1160 C   0  0  0  0  0  3  0  0  0  0  0  0
  -22.5460   -8.0990   21.3570 C   0  0  0  0  0  0  0  0  0  0  0  0
  -22.1320   -9.0530   20.4120 C   0  0  0  0  0  3  0  0  0  0  0  0
  -22.8540  -10.2440   20.2340 C   0  0  0  0  0  3  0  0  0  0  0  0
  -21.7970   -6.9500   21.4420 O   0  0  0  0  0  0  0  0  0  0  0  0
  -21.7240   -6.2230   22.6030 C   0  0  0  0  0  0  0  0  0  0  0  0
  -21.2210   -6.7780   23.8010 C   0  0  0  0  0  3  0  0  0  0  0  0
  -21.1000   -5.9750   24.9520 C   0  0  0  0  0  3  0  0  0  0  0  0
  -21.4710   -4.6170   24.9070 C   0  0  0  0  0  0  0  0  0  0  0  0
  -21.9670   -4.0620   23.7140 C   0  0  0  0  0  3  0  0  0  0  0  0
  -22.0900   -4.8630   22.5650 C   0  0  0  0  0  0  0  0  0  0  0  0
  -22.5490   -4.3160   21.4130 F   0  0  0  0  0  0  0  0  0  0  0  0
  -21.3480   -3.8440   26.0110 F   0  0  0  0  0  0  0  0  0  0  0  0
  -22.8460  -13.5880   21.1660 C   0  0  0  0  0  0  0  0  0  0  0  0
  -22.1320  -12.8810   22.0330 N   0  0  0  0  0  0  0  0  0  0  0  0
  -22.4000  -14.6160   20.6590 O   0  0  0  0  0  0  0  0  0  0  0  0
  -22.5080  -12.0500   22.4650 H   0  0  0  0  0  0  0  0  0  0  0  0
  -21.1970  -13.1760   22.2700 H   0  0  0  0  0  0  0  0  0  0  0  0
  -25.4180  -15.2830   20.3230 N   0  0  0  0  0  0  0  0  0  0  0  0
  -24.6300  -15.9060   20.4550 H   0  0  0  0  0  0  0  0  0  0  0  0
  -26.2040  -15.7380   19.8840 H   0  0  0  0  0  0  0  0  0  0  0  0
  -26.8320  -19.1890   20.0120 O   0  0  0  0  0  0  0  0  0  0  0  0
  -26.8430  -20.1390   20.0980 H   0  0  0  0  0  0  0  0  0  0  0  0
  -31.5750  -18.6760   20.5680 O   0  0  0  0  0  0  0  0  0  0  0  0
  -31.6860  -19.6190   20.6570 H   0  0  0  0  0  0  0  0  0  0  0  0
  -31.0690  -21.1710   22.4030 C   0  0  0  0  0  2  0  0  0  0  0  0
  -30.3620  -22.4910   22.4900 C   0  0  0  0  0  2  0  0  0  0  0  0
  -29.6060  -21.2630   22.0160 C   0  0  0  0  0  3  0  0  0  0  0  0
  -28.8870  -22.5820   19.9000 C   0  0  0  0  0  2  0  0  0  0  0  0
  -28.1340  -24.1720   20.4790 C   0  0  0  0  0  2  0  0  0  0  0  0
  -28.2760  -25.8300   20.1990 O   0  0  0  0  0  0  0  0  0  0  0  0
  -24.6310  -31.8570   23.1620 C   0  0  0  0  0  0  0  0  0  0  0  0
  -27.2430  -26.9310   20.2010 C   0  0  0  0  0  0  0  0  0  0  0  0
  -23.4620  -30.4410   21.5240 C   0  0  0  0  0  3  0  0  0  0  0  0
  -24.9330  -28.8290   20.1260 C   0  0  0  0  0  0  0  0  0  0  0  0
  -26.0310  -30.6580   21.3960 C   0  0  0  0  0  2  0  0  0  0  0  0
  -26.1170  -29.2390   20.7510 C   0  0  0  0  0  0  0  0  0  0  0  0
  -27.2670  -28.3150   20.7550 C   0  0  0  0  0  3  0  0  0  0  0  0
  -26.0230  -26.6850   19.5320 C   0  0  0  0  0  3  0  0  0  0  0  0
  -24.9140  -27.5740   19.4950 C   0  0  0  0  0  3  0  0  0  0  0  0
  -23.7100  -29.7490   20.1540 C   0  0  0  0  0  2  0  0  0  0  0  0
  -24.7300  -31.0150   22.0800 N   0  0  0  0  0  0  0  0  0  0  0  0
  -23.5350  -32.1400   23.6720 O   0  0  0  0  0  0  0  0  0  0  0  0
  -22.7650  -29.4490   22.4920 C   0  0  0  0  0  0  0  0  0  0  0  0
  -21.4340  -29.2850   22.3700 N   0  0  0  0  0  0  0  0  0  0  0  0
  -23.4300  -28.8240   23.3220 O   0  0  0  0  0  0  0  0  0  0  0  0
  -20.9490  -29.8390   21.6780 H   0  0  0  0  0  0  0  0  0  0  0  0
  -18.0480  -28.0960   22.9140 C   0  0  0  0  0  0  0  0  0  0  0  0
  -20.6140  -28.3450   23.1420 C   0  0  0  0  0  3  0  0  0  0  0  0
  -20.6980  -26.9180   22.5520 C   0  0  0  0  0  2  0  0  0  0  0  0
  -19.5790  -26.6130   21.5490 C   0  0  0  0  0  2  0  0  0  0  0  0
  -18.2080  -26.7560   22.2160 C   0  0  0  0  0  2  0  0  0  0  0  0
  -19.1780  -28.8490   23.3350 C   0  0  0  0  0  0  0  0  0  0  0  0
  -18.9720  -30.1010   23.9530 C   0  0  0  0  0  3  0  0  0  0  0  0
  -17.6710  -30.6020   24.1510 C   0  0  0  0  0  3  0  0  0  0  0  0
  -16.5570  -29.8470   23.7440 C   0  0  0  0  0  3  0  0  0  0  0  0
  -16.7460  -28.5950   23.1320 C   0  0  0  0  0  3  0  0  0  0  0  0
  -25.8900  -32.5170   23.8010 C   0  0  0  0  0  3  0  0  0  0  0  0
  -25.5550  -33.9150   24.1290 N   0  0  0  0  0  0  0  0  0  0  0  0
  -25.8930  -34.9810   23.3910 C   0  0  0  0  0  0  0  0  0  0  0  0
  -26.5820  -34.8920   22.3720 O   0  0  0  0  0  0  0  0  0  0  0  0
  -24.9430  -34.0570   24.9190 H   0  0  0  0  0  0  0  0  0  0  0  0
  -24.1810  -36.7880   23.0120 C   0  0  0  0  0  1  0  0  0  0  0  0
  -25.3940  -36.3650   23.8550 C   0  0  0  0  0  3  0  0  0  0  0  0
  -27.4950  -37.2450   24.7770 C   0  0  0  0  0  1  0  0  0  0  0  0
  -26.4300  -37.4200   23.7920 N   0  0  0  0  0  0  0  0  0  0  0  0
  -26.0180  -38.3380   23.9310 H   0  0  0  0  0  0  0  0  0  0  0  0
  -26.3920  -31.7640   25.0960 C   0  0  1  0  0  0  0  0  0  0  0  0
  -25.2850  -31.5270   26.1500 C   0  0  0  0  0  1  0  0  0  0  0  0
  -26.9960  -30.3870   24.7370 C   0  0  0  0  0  1  0  0  0  0  0  0
  -27.5240  -32.5770   25.7680 C   0  0  0  0  0  1  0  0  0  0  0  0
  1 49  1  0
  2 14  1  0
  3  8  1  0
  4  5  1  0
  4  3  1  0
  6  5  1  0
  6 18  1  0
  6  7  1  0
  8  2  1  0
  8  7  1  0
  9  2  2  0
 10 12  2  0
 10 14  1  0
 11 13  2  0
 11  1  1  0
 12 11  1  0
 13 45  1  0
 14 13  1  0
 15 16  2  0
 16 35  1  0
 17 16  1  0
 17 20  1  0
 18 19  1  0
 18 15  1  0
 19 17  2  0
 20 21  1  0
 21 22  2  0
 23 26  1  0
 23 22  1  0
 24 23  2  0
 25 24  1  0
 25 20  2  0
 26 27  1  0
 27 28  1  0
 28 29  2  0
 30 29  1  0
 30 34  1  0
 31 30  2  0
 32 27  2  0
 32 31  1  0
 33 32  1  0
 35 36  1  0
 36 39  1  0
 36 38  1  0
 37 35  2  0
 40 41  1  0
 40 15  1  0
 42 40  1  0
 43 44  1  0
 43 12  1  0
 45 46  1  0
 47 48  1  0
 49 47  1  0
 49 48  1  0
 50 51  1  0
 50  1  1  0
 52 54  1  0
 52 51  1  0
 53 64  2  0
 54 59  1  0
 55 63  1  0
 55 65  1  0
 56 62  1  0
 56 58  1  0
 57 63  1  0
 58 59  2  0
 58 57  1  0
 60 54  2  0
 61 60  1  0
 61 56  2  0
 62 55  1  0
 63 53  1  0
 65 67  2  0
 66 65  1  0
 68 66  1  0
 69 78  2  0
 69 74  1  0
 70 66  1  0
 70 74  1  0
 71 70  1  0
 72 73  1  0
 72 71  1  0
 73 69  1  0
 74 75  2  0
 75 76  1  0
 77 76  2  0
 78 77  1  0
 79 53  1  0
 79 80  1  0
 79 89  1  0
 80 83  1  0
 81 85  1  0
 81 80  1  0
 82 81  2  0
 85 84  1  0
 87 85  1  0
 87 88  1  0
 87 86  1  0
 89 92  1  1
 89 90  1  0
 91 89  1  0
M  ISO  4   2 100  14 100  51 101  52 101
M  END
>  <TORSDO>  (85) 
F 21

>  <SCORE>  (85) 
-15.786

>  <name>  (85) 
84

>  <ligand_id>  (85) 
84

>  <original_smiles>  (85) 
[H]Oc1c(N(C([H])([H])C([H])([H])Oc2c([H])c([H])c3c(c2[H])C([H])([H])N(C(=O)C([H])(N([H])C(=O)C([H])(N([H])C([H])([H])[H])C([H])([H])[H])C(C([H])([H])[H])(C([H])([H])[H])C([H])([H])[H])C([H])(C(=O)N([H])C2([H])c4c([H])c([H])c([H])c([H])c4C([H])([H])C([H])([H])C2([H])[H])C3([H])[H])C2([H])C([H])([H])C2([H])[H])c(O[H])n(C(=O)N2C([H])([H])C([H])([H])C([H])([H])C([H])(n3nc(-c4c([H])c([H])c(Oc5c([H])c([H])c(F)c([H])c5F)c([H])c4[H])c(C(=O)N([H])[H])c3N([H])[H])C2([H])[H])c1[H]

>  <smiles>  (85) 
[H]Oc1c(N(C([H])([H])C([H])([H])Oc2c([H])c([H])c3c(c2[H])C([H])([H])N(C(=O)C([H])(N([H])C(=O)C([H])(N([H])C([H])([H])[H])C([H])([H])[H])C(C([H])([H])[H])(C([H])([H])[H])C([H])([H])[H])C([H])(C(=O)N([H])C2([H])c4c([H])c([H])c([H])c([H])c4C([H])([H])C([H])([H])C2([H])[H])C3([H])[H])C2([H])C([H])([H])C2([H])[H])c(O[H])n(C(=O)N2C([H])([H])C([H])([H])C([H])([H])C([H])(n3nc(-c4c([H])c([H])c(Oc5c([H])c([H])c(F)c([H])c5F)c([H])c4[H])c(C(=O)N([H])[H])c3N([H])[H])C2([H])[H])c1[H]

$$$$
85:0:0
     RDKit          3D

 92100  0  0  1  0  0  0  0  0999 V2000
  -29.6360  -22.0390   21.6630 C   0  0  0  0  0  1  0  0  0  0  0  0
  -27.4130  -21.4760   20.6640 C   0  0  0  0  0  1  0  0  0  0  0  0
  -28.8990  -21.7440   20.3410 C   0  0  1  0  0  0  0  0  0  0  0  0
  -29.0500  -22.9430   19.4250 N   0  0  0  0  0  4  0  0  0  0  0  0
  -30.0210  -23.2140   19.3980 H   0  0  0  0  0  0  0  0  0  0  0  0
  -28.8580  -22.5830   18.5020 H   0  0  0  0  0  0  0  0  0  0  0  0
  -28.1900  -24.1900   19.5110 C   0  0  0  0  0  2  0  0  0  0  0  0
  -28.6010  -25.3180   20.5260 C   0  0  0  0  0  2  0  0  0  0  0  0
  -28.5590  -26.7170   20.0930 O   0  0  0  0  0  0  0  0  0  0  0  0
  -24.6220  -31.8750   23.1930 C   0  0  0  0  0  0  0  0  0  0  0  0
  -27.3730  -27.4410   20.1310 C   0  0  0  0  0  0  0  0  0  0  0  0
  -23.4650  -30.4680   21.5240 C   0  0  0  0  0  3  0  0  0  0  0  0
  -24.9640  -28.9550   20.1120 C   0  0  0  0  0  0  0  0  0  0  0  0
  -25.9930  -30.8540   21.3660 C   0  0  0  0  0  2  0  0  0  0  0  0
  -26.1090  -29.4820   20.7200 C   0  0  0  0  0  0  0  0  0  0  0  0
  -27.3190  -28.7390   20.7160 C   0  0  0  0  0  3  0  0  0  0  0  0
  -26.2060  -26.9410   19.5190 C   0  0  0  0  0  3  0  0  0  0  0  0
  -25.0100  -27.6870   19.5060 C   0  0  0  0  0  3  0  0  0  0  0  0
  -23.7090  -29.8030   20.1420 C   0  0  0  0  0  2  0  0  0  0  0  0
  -24.7110  -31.0820   22.0870 N   0  0  0  0  0  0  0  0  0  0  0  0
  -23.5280  -32.1270   23.7170 O   0  0  0  0  0  0  0  0  0  0  0  0
  -22.8110  -29.4310   22.4650 C   0  0  0  0  0  0  0  0  0  0  0  0
  -21.4880  -29.2410   22.3270 N   0  0  0  0  0  0  0  0  0  0  0  0
  -23.4910  -28.7980   23.2770 O   0  0  0  0  0  0  0  0  0  0  0  0
  -20.9990  -29.8070   21.6460 H   0  0  0  0  0  0  0  0  0  0  0  0
  -18.1140  -28.0310   22.8040 C   0  0  0  0  0  0  0  0  0  0  0  0
  -20.6730  -28.2840   23.0740 C   0  0  0  0  0  3  0  0  0  0  0  0
  -20.7740  -26.8680   22.4620 C   0  0  0  0  0  2  0  0  0  0  0  0
  -19.6680  -26.5720   21.4430 C   0  0  0  0  0  2  0  0  0  0  0  0
  -18.2880  -26.6980   22.0950 C   0  0  0  0  0  2  0  0  0  0  0  0
  -19.2340  -28.7830   23.2480 C   0  0  0  0  0  0  0  0  0  0  0  0
  -19.0170  -30.0330   23.8690 C   0  0  0  0  0  3  0  0  0  0  0  0
  -17.7130  -30.5300   24.0490 C   0  0  0  0  0  3  0  0  0  0  0  0
  -16.6070  -29.7750   23.6210 C   0  0  0  0  0  3  0  0  0  0  0  0
  -16.8090  -28.5270   23.0050 C   0  0  0  0  0  3  0  0  0  0  0  0
  -25.8860  -32.5210   23.8420 C   0  0  0  0  0  3  0  0  0  0  0  0
  -25.5540  -33.9140   24.1690 N   0  0  0  0  0  0  0  0  0  0  0  0
  -25.8940  -34.9730   23.4210 C   0  0  0  0  0  0  0  0  0  0  0  0
  -26.5900  -34.8780   22.4060 O   0  0  0  0  0  0  0  0  0  0  0  0
  -24.9330  -34.0600   24.9520 H   0  0  0  0  0  0  0  0  0  0  0  0
  -24.1570  -36.7500   23.0240 C   0  0  0  0  0  1  0  0  0  0  0  0
  -25.3800  -36.3550   23.8680 C   0  0  0  0  0  3  0  0  0  0  0  0
  -27.4810  -37.2570   24.7600 C   0  0  0  0  0  1  0  0  0  0  0  0
  -26.4040  -37.4180   23.7870 N   0  0  0  0  0  0  0  0  0  0  0  0
  -25.9850  -38.3340   23.9270 H   0  0  0  0  0  0  0  0  0  0  0  0
  -26.3900  -31.7520   25.1240 C   0  0  1  0  0  0  0  0  0  0  0  0
  -25.2810  -31.4870   26.1690 C   0  0  0  0  0  1  0  0  0  0  0  0
  -27.0040  -30.3860   24.7340 C   0  0  0  0  0  1  0  0  0  0  0  0
  -27.5170  -32.5590   25.8110 C   0  0  0  0  0  1  0  0  0  0  0  0
  -29.4940  -20.4430   19.6300 C   0  0  0  0  0  2  0  0  0  0  0  0
  -30.7130  -18.0200   19.7170 C   0  0  0  0  0  2  0  0  0  0  0  0
  -29.2230  -18.1240   21.1520 C   0  0  0  0  0  2  0  0  0  0  0  0
  -30.0700  -19.2330   20.4610 C   0  0  0  0  0  3  0  0  0  0  0  0
  -30.4140  -17.1410   20.9520 C   0  0  0  0  0  3  0  0  0  0  0  0
  -30.8240  -14.6780   20.2850 C   0  0  0  0  0  0  0  0  0  0  0  0
  -30.5770  -12.4840   19.1510 C   0  0  0  0  0  2  0  0  0  0  0  0
  -29.6190  -12.6520   17.9510 C   0  0  0  0  0  2  0  0  0  0  0  0
  -28.1500  -12.5030   18.3920 C   0  0  0  0  0  2  0  0  0  0  0  0
  -27.8150  -13.3500   19.6490 C   0  0  0  0  0  3  0  0  0  0  0  0
  -28.8780  -13.1470   20.7510 C   0  0  0  0  0  2  0  0  0  0  0  0
  -30.1870  -13.4780   20.1670 N   0  0  0  0  0  0  0  0  0  0  0  0
  -31.9810  -14.8470   19.8860 O   0  0  0  0  0  0  0  0  0  0  0  0
  -30.0500  -15.7160   20.7070 N   0  0  0  0  0  0  0  0  0  0  0  0
  -29.1070  -15.4570   20.9580 H   0  0  0  0  0  0  0  0  0  0  0  0
  -25.4270  -13.9710   20.3680 C   0  0  0  0  0  0  0  0  0  0  0  0
  -24.3580  -13.2060   20.7500 C   0  0  0  0  0  0  0  0  0  0  0  0
  -24.8150  -11.8530   20.7290 C   0  0  0  0  0  0  0  0  0  0  0  0
  -26.4650  -13.0830   20.1390 N   0  0  0  0  0  0  0  0  0  0  0  0
  -26.1020  -11.8040   20.4140 N   0  0  0  0  0  0  0  0  0  0  0  0
  -24.0860  -10.5940   20.9320 C   0  0  0  0  0  0  0  0  0  0  0  0
  -24.5020   -9.6450   21.8900 C   0  0  0  0  0  3  0  0  0  0  0  0
  -23.7720   -8.4520   22.0810 C   0  0  0  0  0  3  0  0  0  0  0  0
  -22.6110   -8.1990   21.3120 C   0  0  0  0  0  0  0  0  0  0  0  0
  -22.2140   -9.1380   20.3430 C   0  0  0  0  0  3  0  0  0  0  0  0
  -22.9450  -10.3220   20.1510 C   0  0  0  0  0  3  0  0  0  0  0  0
  -21.8540   -7.0570   21.4090 O   0  0  0  0  0  0  0  0  0  0  0  0
  -21.7660   -6.3510   22.5820 C   0  0  0  0  0  0  0  0  0  0  0  0
  -21.2940   -6.9440   23.7740 C   0  0  0  0  0  3  0  0  0  0  0  0
  -21.1530   -6.1630   24.9400 C   0  0  0  0  0  3  0  0  0  0  0  0
  -21.4730   -4.7930   24.9130 C   0  0  0  0  0  0  0  0  0  0  0  0
  -21.9380   -4.2000   23.7250 C   0  0  0  0  0  3  0  0  0  0  0  0
  -22.0800   -4.9780   22.5630 C   0  0  0  0  0  0  0  0  0  0  0  0
  -22.5080   -4.3970   21.4150 F   0  0  0  0  0  0  0  0  0  0  0  0
  -21.3300   -4.0410   26.0300 F   0  0  0  0  0  0  0  0  0  0  0  0
  -22.9640  -13.6900   21.0220 C   0  0  0  0  0  0  0  0  0  0  0  0
  -22.2380  -13.0080   21.9010 N   0  0  0  0  0  0  0  0  0  0  0  0
  -22.5260  -14.7100   20.4920 O   0  0  0  0  0  0  0  0  0  0  0  0
  -22.6040  -12.1800   22.3490 H   0  0  0  0  0  0  0  0  0  0  0  0
  -21.3040  -13.3150   22.1280 H   0  0  0  0  0  0  0  0  0  0  0  0
  -25.5970  -15.3390   20.1760 N   0  0  0  0  0  0  0  0  0  0  0  0
  -24.8300  -15.9970   20.2740 H   0  0  0  0  0  0  0  0  0  0  0  0
  -26.4420  -15.7680   19.8210 H   0  0  0  0  0  0  0  0  0  0  0  0
  3  2  1  1
  3  1  1  0
  4  7  1  0
  4  3  1  0
  5  4  1  0
  6  4  1  0
  7  8  1  0
  9 11  1  0
  9  8  1  0
 10 21  2  0
 11 16  1  0
 12 20  1  0
 12 22  1  0
 13 19  1  0
 13 15  1  0
 14 20  1  0
 15 14  1  0
 16 15  2  0
 17 11  2  0
 18 17  1  0
 18 13  2  0
 19 12  1  0
 20 10  1  0
 22 24  2  0
 23 22  1  0
 25 23  1  0
 26 35  2  0
 26 31  1  0
 27 23  1  0
 27 31  1  0
 28 27  1  0
 29 30  1  0
 29 28  1  0
 30 26  1  0
 31 32  2  0
 32 33  1  0
 34 33  2  0
 35 34  1  0
 36 10  1  0
 36 37  1  0
 36 46  1  0
 37 40  1  0
 38 42  1  0
 38 37  1  0
 39 38  2  0
 42 41  1  0
 44 42  1  0
 44 45  1  0
 44 43  1  0
 46 49  1  1
 46 47  1  0
 48 46  1  0
 50  3  1  0
 51 53  1  0
 51 54  1  0
 53 50  1  0
 53 52  1  0
 54 63  1  0
 54 52  1  0
 55 63  1  0
 56 61  1  0
 57 58  1  0
 57 56  1  0
 59 58  1  0
 59 68  1  0
 59 60  1  0
 61 55  1  0
 61 60  1  0
 62 55  2  0
 63 64  1  0
 65 66  2  0
 66 85  1  0
 67 66  1  0
 67 70  1  0
 68 65  1  0
 68 69  1  0
 69 67  2  0
 70 71  1  0
 71 72  2  0
 73 76  1  0
 73 72  1  0
 74 73  2  0
 75 74  1  0
 75 70  2  0
 76 77  1  0
 77 78  1  0
 78 79  2  0
 80 79  1  0
 80 84  1  0
 81 80  2  0
 82 77  2  0
 82 81  1  0
 83 82  1  0
 85 86  1  0
 86 89  1  0
 86 88  1  0
 87 85  2  0
 90 91  1  0
 90 65  1  0
 92 90  1  0
M  ISO  4   8 101   9 101  55 100  63 100
M  END
>  <TORSDO>  (86) 
F 21

>  <SCORE>  (86) 
-13.015

>  <name>  (86) 
85

>  <ligand_id>  (86) 
85

>  <original_smiles>  (86) 
[H]c1c([H])c([H])c2c(c1[H])C([H])([H])C([H])([H])C([H])([H])C2([H])N([H])C(=O)C1([H])N(C(=O)C([H])(N([H])C(=O)C([H])(N([H])C([H])([H])[H])C([H])([H])[H])C(C([H])([H])[H])(C([H])([H])[H])C([H])([H])[H])C([H])([H])c2c([H])c(OC([H])([H])C([H])([H])[N+]([H])([H])C(C([H])([H])[H])(C([H])([H])[H])C([H])([H])C3([H])C([H])([H])C([H])(N([H])C(=O)N4C([H])([H])C([H])([H])C([H])([H])C([H])(n5nc(-c6c([H])c([H])c(Oc7c([H])c([H])c(F)c([H])c7F)c([H])c6[H])c(C(=O)N([H])[H])c5N([H])[H])C4([H])[H])C3([H])[H])c([H])c([H])c2C1([H])[H]

>  <smiles>  (86) 
[H]c1c([H])c([H])c2c(c1[H])C([H])([H])C([H])([H])C([H])([H])C2([H])N([H])C(=O)C1([H])N(C(=O)C([H])(N([H])C(=O)C([H])(N([H])C([H])([H])[H])C([H])([H])[H])C(C([H])([H])[H])(C([H])([H])[H])C([H])([H])[H])C([H])([H])c2c([H])c(OC([H])([H])C([H])([H])[N+]([H])([H])C(C([H])([H])[H])(C([H])([H])[H])C([H])([H])C3([H])C([H])([H])C([H])(N([H])C(=O)N4C([H])([H])C([H])([H])C([H])([H])C([H])(n5nc(-c6c([H])c([H])c(Oc7c([H])c([H])c(F)c([H])c7F)c([H])c6[H])c(C(=O)N([H])[H])c5N([H])[H])C4([H])[H])C3([H])[H])c([H])c([H])c2C1([H])[H]

$$$$
86:0:0
     RDKit          3D

 94103  0  0  1  0  0  0  0  0999 V2000
  -27.6310  -21.4000   19.0020 C   0  0  0  0  0  0  0  0  0  0  0  0
  -27.9820  -22.0380   17.6720 C   0  0  0  0  0  2  0  0  0  0  0  0
  -29.3780  -22.6240   17.9190 C   0  0  0  0  0  2  0  0  0  0  0  0
  -28.7830  -21.5400   20.0010 C   0  0  0  0  0  3  0  0  0  0  0  0
  -29.5800  -22.6760   19.3880 N   0  0  2  0  0  4  0  0  0  0  0  0
  -26.5380  -20.8670   19.2130 O   0  0  0  0  0  0  0  0  0  0  0  0
  -30.5440  -22.4240   19.5480 H   0  0  0  0  0  0  0  0  0  0  0  0
  -28.9080  -19.2700   21.2030 C   0  0  0  0  0  3  0  0  0  0  0  0
  -30.1760  -19.3600   19.1920 C   0  0  0  0  0  3  0  0  0  0  0  0
  -29.1880  -17.8820   21.3260 C   0  0  0  0  0  3  0  0  0  0  0  0
  -30.4840  -17.9610   19.3180 C   0  0  0  0  0  3  0  0  0  0  0  0
  -29.3420  -20.0760   20.1140 C   0  0  0  0  0  0  0  0  0  0  0  0
  -29.9610  -17.1700   20.3780 C   0  0  0  0  0  0  0  0  0  0  0  0
  -30.7990  -14.7190   19.9600 C   0  0  0  0  0  0  0  0  0  0  0  0
  -30.5660  -12.4750   18.9020 C   0  0  0  0  0  2  0  0  0  0  0  0
  -29.5440  -12.5890   17.7480 C   0  0  0  0  0  2  0  0  0  0  0  0
  -28.1030  -12.4100   18.2680 C   0  0  0  0  0  2  0  0  0  0  0  0
  -27.8130  -13.2700   19.5260 C   0  0  0  0  0  3  0  0  0  0  0  0
  -28.9390  -13.1110   20.5740 C   0  0  0  0  0  2  0  0  0  0  0  0
  -30.2100  -13.4790   19.9260 N   0  0  0  0  0  0  0  0  0  0  0  0
  -31.8980  -14.9230   19.4340 O   0  0  0  0  0  0  0  0  0  0  0  0
  -30.0500  -15.7140   20.5330 N   0  0  0  0  0  0  0  0  0  0  0  0
  -29.2990  -15.3270   21.0810 H   0  0  0  0  0  0  0  0  0  0  0  0
  -25.4780  -13.8640   20.4260 C   0  0  0  0  0  0  0  0  0  0  0  0
  -24.4290  -13.0860   20.8380 C   0  0  0  0  0  0  0  0  0  0  0  0
  -24.8720  -11.7330   20.7220 C   0  0  0  0  0  0  0  0  0  0  0  0
  -26.4950  -12.9830   20.0890 N   0  0  0  0  0  0  0  0  0  0  0  0
  -26.1380  -11.6950   20.3250 N   0  0  0  0  0  0  0  0  0  0  0  0
  -24.1450  -10.4710   20.9130 C   0  0  0  0  0  0  0  0  0  0  0  0
  -24.5700   -9.5110   21.8560 C   0  0  0  0  0  3  0  0  0  0  0  0
  -23.8460   -8.3130   22.0350 C   0  0  0  0  0  3  0  0  0  0  0  0
  -22.6820   -8.0650   21.2690 C   0  0  0  0  0  0  0  0  0  0  0  0
  -22.2750   -9.0150   20.3160 C   0  0  0  0  0  3  0  0  0  0  0  0
  -23.0000  -10.2050   20.1350 C   0  0  0  0  0  3  0  0  0  0  0  0
  -21.9310   -6.9180   21.3560 O   0  0  0  0  0  0  0  0  0  0  0  0
  -21.7790   -6.2450   22.5410 C   0  0  0  0  0  0  0  0  0  0  0  0
  -21.2270   -6.8640   23.6850 C   0  0  0  0  0  3  0  0  0  0  0  0
  -21.0250   -6.1160   24.8610 C   0  0  0  0  0  3  0  0  0  0  0  0
  -21.3630   -4.7500   24.8960 C   0  0  0  0  0  0  0  0  0  0  0  0
  -21.9070   -4.1300   23.7570 C   0  0  0  0  0  3  0  0  0  0  0  0
  -22.1110   -4.8750   22.5820 C   0  0  0  0  0  0  0  0  0  0  0  0
  -22.6160   -4.2690   21.4810 F   0  0  0  0  0  0  0  0  0  0  0  0
  -21.1600   -4.0290   26.0230 F   0  0  0  0  0  0  0  0  0  0  0  0
  -23.0600  -13.5650   21.2240 C   0  0  0  0  0  0  0  0  0  0  0  0
  -22.3900  -12.8520   22.1220 N   0  0  0  0  0  0  0  0  0  0  0  0
  -22.5930  -14.6070   20.7640 O   0  0  0  0  0  0  0  0  0  0  0  0
  -22.7810  -12.0090   22.5180 H   0  0  0  0  0  0  0  0  0  0  0  0
  -21.4740  -13.1550   22.4190 H   0  0  0  0  0  0  0  0  0  0  0  0
  -25.6470  -15.2390   20.2910 N   0  0  0  0  0  0  0  0  0  0  0  0
  -24.8950  -15.8930   20.4720 H   0  0  0  0  0  0  0  0  0  0  0  0
  -26.4720  -15.6820   19.9060 H   0  0  0  0  0  0  0  0  0  0  0  0
  -29.4720  -24.0900   19.9900 C   0  0  0  0  0  3  0  0  0  0  0  0
  -28.2770  -25.0730   19.5970 C   0  0  0  0  0  3  0  0  0  0  0  0
  -28.3860  -26.4960   20.0070 O   0  0  0  0  0  0  0  0  0  0  0  0
  -24.5710  -31.7280   23.1850 C   0  0  0  0  0  0  0  0  0  0  0  0
  -27.2450  -27.3150   19.9750 C   0  0  0  0  0  0  0  0  0  0  0  0
  -23.3850  -30.3700   21.4990 C   0  0  0  0  0  3  0  0  0  0  0  0
  -24.8560  -28.8900   20.0230 C   0  0  0  0  0  0  0  0  0  0  0  0
  -25.9190  -30.7320   21.3230 C   0  0  0  0  0  2  0  0  0  0  0  0
  -26.0170  -29.3760   20.6340 C   0  0  0  0  0  0  0  0  0  0  0  0
  -27.2140  -28.6000   20.6030 C   0  0  0  0  0  3  0  0  0  0  0  0
  -26.0560  -26.8840   19.3410 C   0  0  0  0  0  3  0  0  0  0  0  0
  -24.8750  -27.6480   19.3700 C   0  0  0  0  0  3  0  0  0  0  0  0
  -23.6050  -29.7430   20.0980 C   0  0  0  0  0  2  0  0  0  0  0  0
  -24.6440  -30.9570   22.0610 N   0  0  0  0  0  0  0  0  0  0  0  0
  -23.4830  -31.9730   23.7290 O   0  0  0  0  0  0  0  0  0  0  0  0
  -22.7380  -29.3110   22.4250 C   0  0  0  0  0  0  0  0  0  0  0  0
  -21.4180  -29.1100   22.2800 N   0  0  0  0  0  0  0  0  0  0  0  0
  -23.4240  -28.6750   23.2300 O   0  0  0  0  0  0  0  0  0  0  0  0
  -20.9230  -29.6760   21.6060 H   0  0  0  0  0  0  0  0  0  0  0  0
  -18.0630  -27.8280   22.7090 C   0  0  0  0  0  0  0  0  0  0  0  0
  -20.6120  -28.1350   23.0170 C   0  0  0  0  0  3  0  0  0  0  0  0
  -20.7520  -26.7220   22.4090 C   0  0  0  0  0  2  0  0  0  0  0  0
  -19.6690  -26.4010   21.3740 C   0  0  0  0  0  2  0  0  0  0  0  0
  -18.2780  -26.4990   22.0040 C   0  0  0  0  0  2  0  0  0  0  0  0
  -19.1590  -28.6040   23.1720 C   0  0  0  0  0  0  0  0  0  0  0  0
  -18.9060  -29.8480   23.7900 C   0  0  0  0  0  3  0  0  0  0  0  0
  -17.5890  -30.3160   23.9520 C   0  0  0  0  0  3  0  0  0  0  0  0
  -16.5060  -29.5370   23.5060 C   0  0  0  0  0  3  0  0  0  0  0  0
  -16.7450  -28.2960   22.8900 C   0  0  0  0  0  3  0  0  0  0  0  0
  -25.8440  -32.3580   23.8280 C   0  0  0  0  0  3  0  0  0  0  0  0
  -26.3500  -31.5710   25.0990 C   0  0  1  0  0  0  0  0  0  0  0  0
  -25.2490  -31.3200   26.1540 C   0  0  0  0  0  1  0  0  0  0  0  0
  -26.9400  -30.2000   24.6950 C   0  0  0  0  0  1  0  0  0  0  0  0
  -27.4930  -32.3600   25.7800 C   0  0  0  0  0  1  0  0  0  0  0  0
  -25.5240  -33.7500   24.1750 N   0  0  0  0  0  0  0  0  0  0  0  0
  -25.8340  -34.8130   23.4220 C   0  0  0  0  0  0  0  0  0  0  0  0
  -26.4910  -34.7260   22.3800 O   0  0  0  0  0  0  0  0  0  0  0  0
  -24.9330  -33.8900   24.9810 H   0  0  0  0  0  0  0  0  0  0  0  0
  -24.0760  -36.5870   23.1170 C   0  0  0  0  0  1  0  0  0  0  0  0
  -25.3390  -36.1920   23.9000 C   0  0  0  0  0  3  0  0  0  0  0  0
  -27.4790  -37.1000   24.6940 C   0  0  0  0  0  1  0  0  0  0  0  0
  -26.3560  -37.2590   23.7730 N   0  0  0  0  0  0  0  0  0  0  0  0
  -25.9410  -38.1730   23.9330 H   0  0  0  0  0  0  0  0  0  0  0  0
  1  6  2  0
  1  4  1  0
  2  3  1  0
  2  1  1  0
  3  5  1  0
  4 12  1  0
  5  7  1  6
  5 52  1  0
  5  4  1  0
  8 10  1  0
  9 11  2  0
  9 12  1  0
 11 13  1  0
 12  8  2  0
 13 22  1  0
 13 10  2  0
 14 22  1  0
 15 20  1  0
 16 17  1  0
 16 15  1  0
 18 17  1  0
 18 27  1  0
 18 19  1  0
 20 14  1  0
 20 19  1  0
 21 14  2  0
 22 23  1  0
 24 25  2  0
 25 44  1  0
 26 25  1  0
 26 29  1  0
 27 28  1  0
 27 24  1  0
 28 26  2  0
 29 30  1  0
 30 31  2  0
 32 35  1  0
 32 31  1  0
 33 32  2  0
 34 33  1  0
 34 29  2  0
 35 36  1  0
 36 41  2  0
 36 37  1  0
 37 38  2  0
 38 39  1  0
 39 43  1  0
 40 39  2  0
 41 40  1  0
 42 41  1  0
 44 45  1  0
 45 48  1  0
 45 47  1  0
 46 44  2  0
 49 24  1  0
 49 50  1  0
 51 49  1  0
 53 52  2  0
 53 54  1  0
 55 66  2  0
 56 54  1  0
 56 61  1  0
 57 65  1  0
 57 67  1  0
 58 64  1  0
 58 60  1  0
 59 65  1  0
 60 59  1  0
 61 60  2  0
 62 63  1  0
 62 56  2  0
 63 58  2  0
 64 57  1  0
 65 55  1  0
 67 69  2  0
 68 67  1  0
 70 68  1  0
 71 80  2  0
 71 76  1  0
 72 68  1  0
 72 76  1  0
 73 72  1  0
 74 75  1  0
 74 73  1  0
 75 71  1  0
 76 77  2  0
 77 78  1  0
 79 78  2  0
 80 79  1  0
 81 55  1  0
 81 86  1  0
 81 82  1  0
 82 85  1  1
 82 83  1  0
 84 82  1  0
 86 89  1  0
 87 91  1  0
 87 86  1  0
 88 87  2  0
 91 90  1  0
 93 91  1  0
 93 94  1  0
 93 92  1  0
M  ISO  4  14 100  22 100  53 101  54 101
M  END
>  <TORSDO>  (87) 
F 19

>  <SCORE>  (87) 
-12.921

>  <name>  (87) 
86

>  <ligand_id>  (87) 
86

>  <original_smiles>  (87) 
[H]c1c([H])c([H])c2c(c1[H])C([H])([H])C([H])([H])C([H])([H])C2([H])N([H])C(=O)C1([H])N(C(=O)C([H])(N([H])C(=O)C([H])(N([H])C([H])([H])[H])C([H])([H])[H])C(C([H])([H])[H])(C([H])([H])[H])C([H])([H])[H])C([H])([H])c2c([H])c(OC([H])([H])C([H])([H])[N+]3([H])C([H])(c4c([H])c([H])c(N([H])C(=O)N5C([H])([H])C([H])([H])C([H])([H])C([H])(n6nc(-c7c([H])c([H])c(Oc8c([H])c([H])c(F)c([H])c8F)c([H])c7[H])c(C(=O)N([H])[H])c6N([H])[H])C5([H])[H])c([H])c4[H])C(=O)C([H])([H])C3([H])[H])c([H])c([H])c2C1([H])[H]

>  <smiles>  (87) 
[H]c1c([H])c([H])c2c(c1[H])C([H])([H])C([H])([H])C([H])([H])C2([H])N([H])C(=O)C1([H])N(C(=O)C([H])(N([H])C(=O)C([H])(N([H])C([H])([H])[H])C([H])([H])[H])C(C([H])([H])[H])(C([H])([H])[H])C([H])([H])[H])C([H])([H])c2c([H])c(OC([H])([H])C([H])([H])[N+]3([H])C([H])(c4c([H])c([H])c(N([H])C(=O)N5C([H])([H])C([H])([H])C([H])([H])C([H])(n6nc(-c7c([H])c([H])c(Oc8c([H])c([H])c(F)c([H])c8F)c([H])c7[H])c(C(=O)N([H])[H])c6N([H])[H])C5([H])[H])c([H])c4[H])C(=O)C([H])([H])C3([H])[H])c([H])c([H])c2C1([H])[H]

$$$$
87:0:0
     RDKit          3D

 89 98  0  0  1  0  0  0  0  0999 V2000
  -29.9270  -18.3530   18.8980 C   0  0  0  0  0  0  0  0  0  0  0  0
  -29.3770  -20.5860   21.2230 C   0  0  0  0  0  2  0  0  0  0  0  0
  -28.9530  -20.8880   18.9120 C   0  0  0  0  0  2  0  0  0  0  0  0
  -30.1230  -17.7860   20.3400 C   0  0  0  0  0  3  0  0  0  0  0  0
  -28.6950  -21.7060   20.2420 C   0  0  0  0  0  3  0  0  0  0  0  0
  -29.1320  -19.0560   20.7190 C   0  0  0  0  0  3  0  0  0  0  0  0
  -29.2200  -19.4730   19.3330 N   0  0  0  0  0  0  0  0  0  0  0  0
  -30.2960  -18.0400   17.7850 O   0  0  0  0  0  0  0  0  0  0  0  0
  -30.5110  -15.0620   20.3000 C   0  0  0  0  0  0  0  0  0  0  0  0
  -30.3770  -12.7080   19.3620 C   0  0  0  0  0  2  0  0  0  0  0  0
  -29.4270  -12.6600   18.1430 C   0  0  0  0  0  2  0  0  0  0  0  0
  -27.9710  -12.4470   18.5980 C   0  0  0  0  0  2  0  0  0  0  0  0
  -27.5800  -13.3710   19.7800 C   0  0  0  0  0  3  0  0  0  0  0  0
  -28.6520  -13.3870   20.8900 C   0  0  0  0  0  2  0  0  0  0  0  0
  -29.9120  -13.8030   20.2610 N   0  0  0  0  0  0  0  0  0  0  0  0
  -31.7050  -15.1230   19.9910 O   0  0  0  0  0  0  0  0  0  0  0  0
  -29.7500  -16.2500   20.4870 N   0  0  0  0  0  0  0  0  0  0  0  0
  -28.7750  -16.0860   20.6810 H   0  0  0  0  0  0  0  0  0  0  0  0
  -25.2170  -13.9480   20.5750 C   0  0  0  0  0  0  0  0  0  0  0  0
  -24.1550  -13.1710   20.9500 C   0  0  0  0  0  0  0  0  0  0  0  0
  -24.6120  -11.8180   20.8840 C   0  0  0  0  0  0  0  0  0  0  0  0
  -26.2510  -13.0690   20.2980 N   0  0  0  0  0  0  0  0  0  0  0  0
  -25.8970  -11.7820   20.5500 N   0  0  0  0  0  0  0  0  0  0  0  0
  -23.8810  -10.5570   21.0610 C   0  0  0  0  0  0  0  0  0  0  0  0
  -24.3100   -9.5770   21.9830 C   0  0  0  0  0  3  0  0  0  0  0  0
  -23.5780   -8.3810   22.1490 C   0  0  0  0  0  3  0  0  0  0  0  0
  -22.4020   -8.1580   21.3940 C   0  0  0  0  0  0  0  0  0  0  0  0
  -21.9910   -9.1270   20.4610 C   0  0  0  0  0  3  0  0  0  0  0  0
  -22.7250  -10.3130   20.2930 C   0  0  0  0  0  3  0  0  0  0  0  0
  -21.6410   -7.0160   21.4700 O   0  0  0  0  0  0  0  0  0  0  0  0
  -21.5730   -6.2730   22.6210 C   0  0  0  0  0  0  0  0  0  0  0  0
  -21.0990   -6.8180   23.8340 C   0  0  0  0  0  3  0  0  0  0  0  0
  -20.9800   -6.0000   24.9760 C   0  0  0  0  0  3  0  0  0  0  0  0
  -21.3250   -4.6380   24.9050 C   0  0  0  0  0  0  0  0  0  0  0  0
  -21.7930   -4.0900   23.6970 C   0  0  0  0  0  3  0  0  0  0  0  0
  -21.9130   -4.9060   22.5570 C   0  0  0  0  0  0  0  0  0  0  0  0
  -22.3440   -4.3700   21.3900 F   0  0  0  0  0  0  0  0  0  0  0  0
  -21.2040   -3.8490   25.9990 F   0  0  0  0  0  0  0  0  0  0  0  0
  -22.7660  -13.6510   21.2520 C   0  0  0  0  0  0  0  0  0  0  0  0
  -22.0470  -12.9430   22.1150 N   0  0  0  0  0  0  0  0  0  0  0  0
  -22.3280  -14.6890   20.7580 O   0  0  0  0  0  0  0  0  0  0  0  0
  -22.4160  -12.1030   22.5370 H   0  0  0  0  0  0  0  0  0  0  0  0
  -21.1140  -13.2460   22.3580 H   0  0  0  0  0  0  0  0  0  0  0  0
  -25.3820  -15.3200   20.4170 N   0  0  0  0  0  0  0  0  0  0  0  0
  -24.6110  -15.9670   20.5410 H   0  0  0  0  0  0  0  0  0  0  0  0
  -26.2020  -15.7590   20.0190 H   0  0  0  0  0  0  0  0  0  0  0  0
  -29.0060  -23.3830   20.3400 C   0  0  0  0  0  3  0  0  0  0  0  0
  -27.9870  -24.6930   19.9870 C   0  0  0  0  0  3  0  0  0  0  0  0
  -28.2430  -26.2240   20.2100 O   0  0  0  0  0  0  0  0  0  0  0  0
  -24.6280  -31.8990   23.2620 C   0  0  0  0  0  0  0  0  0  0  0  0
  -27.1860  -27.2120   20.1580 C   0  0  0  0  0  0  0  0  0  0  0  0
  -23.4160  -30.5170   21.6200 C   0  0  0  0  0  3  0  0  0  0  0  0
  -24.8550  -28.9590   20.1650 C   0  0  0  0  0  0  0  0  0  0  0  0
  -25.9690  -30.7870   21.4360 C   0  0  0  0  0  2  0  0  0  0  0  0
  -26.0400  -29.4010   20.7680 C   0  0  0  0  0  0  0  0  0  0  0  0
  -27.2050  -28.5440   20.7460 C   0  0  0  0  0  3  0  0  0  0  0  0
  -25.9740  -26.8770   19.5170 C   0  0  0  0  0  3  0  0  0  0  0  0
  -24.8350  -27.7120   19.5240 C   0  0  0  0  0  3  0  0  0  0  0  0
  -23.6260  -29.8540   20.2330 C   0  0  0  0  0  2  0  0  0  0  0  0
  -24.6910  -31.0900   22.1610 N   0  0  0  0  0  0  0  0  0  0  0  0
  -23.5460  -32.1760   23.8020 O   0  0  0  0  0  0  0  0  0  0  0  0
  -22.7480  -29.4990   22.5780 C   0  0  0  0  0  0  0  0  0  0  0  0
  -21.4220  -29.3150   22.4510 N   0  0  0  0  0  0  0  0  0  0  0  0
  -23.4260  -28.8780   23.4020 O   0  0  0  0  0  0  0  0  0  0  0  0
  -20.9300  -29.8670   21.7630 H   0  0  0  0  0  0  0  0  0  0  0  0
  -18.0550  -28.0660   22.9390 C   0  0  0  0  0  0  0  0  0  0  0  0
  -20.6100  -28.3660   23.2190 C   0  0  0  0  0  3  0  0  0  0  0  0
  -20.7340  -26.9350   22.6460 C   0  0  0  0  0  2  0  0  0  0  0  0
  -19.6420  -26.5960   21.6270 C   0  0  0  0  0  2  0  0  0  0  0  0
  -18.2550  -26.7200   22.2640 C   0  0  0  0  0  2  0  0  0  0  0  0
  -19.1610  -28.8460   23.3740 C   0  0  0  0  0  0  0  0  0  0  0  0
  -18.9190  -30.1040   23.9680 C   0  0  0  0  0  3  0  0  0  0  0  0
  -17.6050  -30.5830   24.1300 C   0  0  0  0  0  3  0  0  0  0  0  0
  -16.5150  -29.8000   23.7110 C   0  0  0  0  0  3  0  0  0  0  0  0
  -16.7410  -28.5440   23.1210 C   0  0  0  0  0  3  0  0  0  0  0  0
  -25.9090  -32.5310   23.8840 C   0  0  0  0  0  3  0  0  0  0  0  0
  -25.6090  -33.9380   24.1980 N   0  0  0  0  0  0  0  0  0  0  0  0
  -25.9380  -34.9810   23.4250 C   0  0  0  0  0  0  0  0  0  0  0  0
  -26.5920  -34.8610   22.3860 O   0  0  0  0  0  0  0  0  0  0  0  0
  -25.0240  -34.1050   25.0040 H   0  0  0  0  0  0  0  0  0  0  0  0
  -24.2130  -36.7830   23.0810 C   0  0  0  0  0  1  0  0  0  0  0  0
  -25.4680  -36.3790   23.8730 C   0  0  0  0  0  3  0  0  0  0  0  0
  -27.6180  -37.2700   24.6580 C   0  0  0  0  0  1  0  0  0  0  0  0
  -26.5040  -37.4250   23.7270 N   0  0  0  0  0  0  0  0  0  0  0  0
  -26.1040  -38.3500   23.8590 H   0  0  0  0  0  0  0  0  0  0  0  0
  -26.4090  -31.7760   25.1780 C   0  0  1  0  0  0  0  0  0  0  0  0
  -25.3050  -31.5670   26.2420 C   0  0  0  0  0  1  0  0  0  0  0  0
  -26.9810  -30.3860   24.8180 C   0  0  0  0  0  1  0  0  0  0  0  0
  -27.5630  -32.5700   25.8360 C   0  0  0  0  0  1  0  0  0  0  0  0
  1  7  1  0
  1  4  1  0
  3  7  1  0
  3  5  1  0
  4 17  1  0
  4  6  1  0
  5 47  1  0
  5  2  1  0
  6  2  1  0
  7  6  1  0
  8  1  2  0
  9 17  1  0
 10 15  1  0
 11 12  1  0
 11 10  1  0
 13 12  1  0
 13 22  1  0
 13 14  1  0
 15  9  1  0
 15 14  1  0
 16  9  2  0
 17 18  1  0
 19 20  2  0
 20 39  1  0
 21 20  1  0
 21 24  1  0
 22 23  1  0
 22 19  1  0
 23 21  2  0
 24 25  1  0
 25 26  2  0
 27 30  1  0
 27 26  1  0
 28 27  2  0
 29 28  1  0
 29 24  2  0
 30 31  1  0
 31 32  1  0
 32 33  2  0
 34 33  1  0
 34 38  1  0
 35 34  2  0
 36 31  2  0
 36 35  1  0
 37 36  1  0
 39 40  1  0
 40 43  1  0
 40 42  1  0
 41 39  2  0
 44 45  1  0
 44 19  1  0
 46 44  1  0
 48 49  1  0
 48 47  2  0
 50 61  2  0
 51 49  1  0
 51 56  1  0
 52 60  1  0
 52 62  1  0
 53 59  1  0
 53 55  1  0
 54 60  1  0
 55 54  1  0
 56 55  2  0
 57 58  1  0
 57 51  2  0
 58 53  2  0
 59 52  1  0
 60 50  1  0
 62 64  2  0
 63 62  1  0
 65 63  1  0
 66 75  2  0
 66 71  1  0
 67 63  1  0
 67 71  1  0
 68 67  1  0
 69 70  1  0
 69 68  1  0
 70 66  1  0
 71 72  2  0
 72 73  1  0
 74 73  2  0
 75 74  1  0
 76 50  1  0
 76 77  1  0
 76 86  1  0
 77 80  1  0
 78 82  1  0
 78 77  1  0
 79 78  2  0
 82 81  1  0
 84 85  1  0
 84 82  1  0
 84 83  1  0
 86 89  1  1
 86 87  1  0
 88 86  1  0
M  ISO  4   9 100  17 100  48 101  49 101
M  END
>  <TORSDO>  (88) 
F 18

>  <SCORE>  (88) 
-15.608

>  <name>  (88) 
87

>  <ligand_id>  (88) 
87

>  <original_smiles>  (88) 
[H]c1c([H])c([H])c2c(c1[H])C([H])([H])C([H])([H])C([H])([H])C2([H])N([H])C(=O)C1([H])N(C(=O)C([H])(N([H])C(=O)C([H])(N([H])C([H])([H])[H])C([H])([H])[H])C(C([H])([H])[H])(C([H])([H])[H])C([H])([H])[H])C([H])([H])c2c([H])c(OC([H])([H])C([H])([H])C3([H])C([H])([H])N4C(=O)C([H])(N([H])C(=O)N5C([H])([H])C([H])([H])C([H])([H])C([H])(n6nc(-c7c([H])c([H])c(Oc8c([H])c([H])c(F)c([H])c8F)c([H])c7[H])c(C(=O)N([H])[H])c6N([H])[H])C5([H])[H])C4([H])C3([H])[H])c([H])c([H])c2C1([H])[H]

>  <smiles>  (88) 
[H]c1c([H])c([H])c2c(c1[H])C([H])([H])C([H])([H])C([H])([H])C2([H])N([H])C(=O)C1([H])N(C(=O)C([H])(N([H])C(=O)C([H])(N([H])C([H])([H])[H])C([H])([H])[H])C(C([H])([H])[H])(C([H])([H])[H])C([H])([H])[H])C([H])([H])c2c([H])c(OC([H])([H])C([H])([H])C3([H])C([H])([H])N4C(=O)C([H])(N([H])C(=O)N5C([H])([H])C([H])([H])C([H])([H])C([H])(n6nc(-c7c([H])c([H])c(Oc8c([H])c([H])c(F)c([H])c8F)c([H])c7[H])c(C(=O)N([H])[H])c6N([H])[H])C5([H])[H])C4([H])C3([H])[H])c([H])c([H])c2C1([H])[H]

$$$$
88:0:0
     RDKit          3D

 97105  0  0  1  0  0  0  0  0999 V2000
  -27.4480  -22.2060   17.9170 C   0  0  0  0  0  2  0  0  0  0  0  0
  -27.4050  -23.5310   17.7370 C   0  0  0  0  0  2  0  0  0  0  0  0
  -28.4990  -22.2760   19.0170 C   0  0  0  0  0  3  0  0  0  0  0  0
  -28.3300  -23.8250   18.9110 C   0  0  0  0  0  3  0  0  0  0  0  0
  -29.5840  -24.5330   18.5470 N   0  0  0  0  0  4  0  0  0  0  0  0
  -30.0090  -24.8560   19.4030 H   0  0  0  0  0  0  0  0  0  0  0  0
  -30.2220  -23.8650   18.1440 H   0  0  0  0  0  0  0  0  0  0  0  0
  -29.5070  -25.6860   17.6090 C   0  0  0  0  0  2  0  0  0  0  0  0
  -28.2520  -26.5650   17.7470 C   0  0  0  0  0  2  0  0  0  0  0  0
  -27.9490  -26.8570   19.1110 O   0  0  0  0  0  0  0  0  0  0  0  0
  -24.4640  -31.5940   23.1170 C   0  0  0  0  0  0  0  0  0  0  0  0
  -26.7800  -27.5550   19.3130 C   0  0  0  0  0  0  0  0  0  0  0  0
  -23.0990  -30.3920   21.4360 C   0  0  0  0  0  3  0  0  0  0  0  0
  -24.4040  -29.0250   19.7290 C   0  0  0  0  0  0  0  0  0  0  0  0
  -25.5990  -30.7720   21.0560 C   0  0  0  0  0  2  0  0  0  0  0  0
  -25.6140  -29.4820   20.2660 C   0  0  0  0  0  0  0  0  0  0  0  0
  -26.8030  -28.7450   20.0700 C   0  0  0  0  0  3  0  0  0  0  0  0
  -25.5460  -27.0920   18.7990 C   0  0  0  0  0  3  0  0  0  0  0  0
  -24.3610  -27.8230   19.0020 C   0  0  0  0  0  3  0  0  0  0  0  0
  -23.1780  -29.8730   19.9770 C   0  0  0  0  0  2  0  0  0  0  0  0
  -24.4100  -30.9270   21.9290 N   0  0  0  0  0  0  0  0  0  0  0  0
  -23.4400  -31.8070   23.7790 O   0  0  0  0  0  0  0  0  0  0  0  0
  -22.5250  -29.2700   22.3290 C   0  0  0  0  0  0  0  0  0  0  0  0
  -21.1940  -29.0910   22.2840 N   0  0  0  0  0  0  0  0  0  0  0  0
  -23.2700  -28.5680   23.0150 O   0  0  0  0  0  0  0  0  0  0  0  0
  -20.6540  -29.7160   21.7030 H   0  0  0  0  0  0  0  0  0  0  0  0
  -17.8830  -27.7380   22.7960 C   0  0  0  0  0  0  0  0  0  0  0  0
  -20.4380  -28.0670   23.0060 C   0  0  0  0  0  3  0  0  0  0  0  0
  -20.5730  -26.6870   22.3220 C   0  0  0  0  0  2  0  0  0  0  0  0
  -19.4450  -26.3960   21.3250 C   0  0  0  0  0  2  0  0  0  0  0  0
  -18.0830  -26.4450   22.0210 C   0  0  0  0  0  2  0  0  0  0  0  0
  -18.9890  -28.5060   23.2460 C   0  0  0  0  0  0  0  0  0  0  0  0
  -18.7470  -29.7170   23.9330 C   0  0  0  0  0  3  0  0  0  0  0  0
  -17.4340  -30.1590   24.1720 C   0  0  0  0  0  3  0  0  0  0  0  0
  -16.3430  -29.3850   23.7370 C   0  0  0  0  0  3  0  0  0  0  0  0
  -16.5690  -28.1780   23.0540 C   0  0  0  0  0  3  0  0  0  0  0  0
  -25.8090  -32.1460   23.6850 C   0  0  0  0  0  3  0  0  0  0  0  0
  -25.5820  -33.5420   24.0800 N   0  0  0  0  0  0  0  0  0  0  0  0
  -25.9420  -34.6060   23.3500 C   0  0  0  0  0  0  0  0  0  0  0  0
  -26.5740  -34.5120   22.2930 O   0  0  0  0  0  0  0  0  0  0  0  0
  -25.0200  -33.6920   24.9040 H   0  0  0  0  0  0  0  0  0  0  0  0
  -24.3110  -36.5040   23.0990 C   0  0  0  0  0  1  0  0  0  0  0  0
  -25.5370  -35.9960   23.8750 C   0  0  0  0  0  3  0  0  0  0  0  0
  -27.7230  -36.7290   24.7190 C   0  0  0  0  0  1  0  0  0  0  0  0
  -26.6240  -36.9950   23.7940 N   0  0  0  0  0  0  0  0  0  0  0  0
  -26.2700  -37.9280   23.9810 H   0  0  0  0  0  0  0  0  0  0  0  0
  -26.3640  -31.3030   24.8980 C   0  0  1  0  0  0  0  0  0  0  0  0
  -25.3300  -31.0870   26.0280 C   0  0  0  0  0  1  0  0  0  0  0  0
  -26.8430  -29.9100   24.4250 C   0  0  0  0  0  1  0  0  0  0  0  0
  -27.5960  -32.0110   25.5080 C   0  0  0  0  0  1  0  0  0  0  0  0
  -27.5230  -20.0840   19.9210 C   0  0  0  0  0  1  0  0  0  0  0  0
  -27.0060  -22.1570   21.1100 C   0  0  0  0  0  1  0  0  0  0  0  0
  -28.1310  -21.4600   20.2890 C   0  0  2  0  0  0  0  0  0  0  0  0
  -30.3140  -20.2310   21.0010 C   0  0  0  0  0  3  0  0  0  0  0  0
  -29.4180  -21.2450   21.1330 C   0  0  0  0  0  0  0  0  0  0  0  0
  -29.6860  -22.2800   22.2240 C   0  0  0  0  0  1  0  0  0  0  0  0
  -30.4050  -19.0700   20.0050 C   0  0  0  0  0  2  0  0  0  0  0  0
  -30.2480  -17.6760   20.6600 C   0  0  0  0  0  2  0  0  0  0  0  0
  -30.9890  -16.5520   19.8900 C   0  0  0  0  0  2  0  0  0  0  0  0
  -31.4080  -14.1080   20.1650 C   0  0  0  0  0  0  0  0  0  0  0  0
  -31.1150  -11.7500   19.5260 C   0  0  0  0  0  2  0  0  0  0  0  0
  -30.2230  -11.6970   18.2680 C   0  0  0  0  0  2  0  0  0  0  0  0
  -28.7290  -11.6940   18.6490 C   0  0  0  0  0  2  0  0  0  0  0  0
  -28.3680  -12.8060   19.6680 C   0  0  0  0  0  3  0  0  0  0  0  0
  -29.3660  -12.8030   20.8490 C   0  0  0  0  0  2  0  0  0  0  0  0
  -30.7250  -12.9410   20.2960 N   0  0  0  0  0  0  0  0  0  0  0  0
  -32.5430  -14.1810   19.6890 O   0  0  0  0  0  0  0  0  0  0  0  0
  -30.6820  -15.2150   20.4110 N   0  0  0  0  0  0  0  0  0  0  0  0
  -29.7700  -15.0730   20.8160 H   0  0  0  0  0  0  0  0  0  0  0  0
  -26.0410  -13.6800   20.3400 C   0  0  0  0  0  0  0  0  0  0  0  0
  -24.8880  -13.0290   20.6890 C   0  0  0  0  0  0  0  0  0  0  0  0
  -25.1960  -11.6350   20.6610 C   0  0  0  0  0  0  0  0  0  0  0  0
  -26.9850  -12.6860   20.1220 N   0  0  0  0  0  0  0  0  0  0  0  0
  -26.4770  -11.4520   20.3690 N   0  0  0  0  0  0  0  0  0  0  0  0
  -24.3350  -10.4580   20.8340 C   0  0  0  0  0  0  0  0  0  0  0  0
  -24.6490   -9.4430   21.7650 C   0  0  0  0  0  3  0  0  0  0  0  0
  -23.7950   -8.3310   21.9260 C   0  0  0  0  0  3  0  0  0  0  0  0
  -22.6120   -8.2260   21.1570 C   0  0  0  0  0  0  0  0  0  0  0  0
  -22.3180   -9.2270   20.2140 C   0  0  0  0  0  3  0  0  0  0  0  0
  -23.1710  -10.3300   20.0510 C   0  0  0  0  0  3  0  0  0  0  0  0
  -21.7370   -7.1700   21.2280 O   0  0  0  0  0  0  0  0  0  0  0  0
  -21.5420   -6.4740   22.3930 C   0  0  0  0  0  0  0  0  0  0  0  0
  -21.1090   -7.1090   23.5770 C   0  0  0  0  0  3  0  0  0  0  0  0
  -20.8560   -6.3460   24.7350 C   0  0  0  0  0  3  0  0  0  0  0  0
  -21.0220   -4.9480   24.7070 C   0  0  0  0  0  0  0  0  0  0  0  0
  -21.4480   -4.3130   23.5270 C   0  0  0  0  0  3  0  0  0  0  0  0
  -21.7040   -5.0740   22.3730 C   0  0  0  0  0  0  0  0  0  0  0  0
  -22.0940   -4.4530   21.2330 F   0  0  0  0  0  0  0  0  0  0  0  0
  -20.7710   -4.2130   25.8160 F   0  0  0  0  0  0  0  0  0  0  0  0
  -23.5470  -13.6550   20.9470 C   0  0  0  0  0  0  0  0  0  0  0  0
  -22.7510  -13.0560   21.8270 N   0  0  0  0  0  0  0  0  0  0  0  0
  -23.2190  -14.7070   20.4030 O   0  0  0  0  0  0  0  0  0  0  0  0
  -23.0280  -12.1980   22.2810 H   0  0  0  0  0  0  0  0  0  0  0  0
  -21.8530  -13.4630   22.0460 H   0  0  0  0  0  0  0  0  0  0  0  0
  -26.3670  -15.0230   20.1720 N   0  0  0  0  0  0  0  0  0  0  0  0
  -25.6930  -15.7720   20.2850 H   0  0  0  0  0  0  0  0  0  0  0  0
  -27.2670  -15.3510   19.8460 H   0  0  0  0  0  0  0  0  0  0  0  0
  1  3  1  0
  2  1  1  0
  2  4  1  0
  3 53  1  0
  4  5  1  0
  4  3  1  0
  5  6  1  0
  7  5  1  0
  8  9  1  0
  8  5  1  0
  9 10  1  0
 10 12  1  0
 11 22  2  0
 12 17  1  0
 13 21  1  0
 13 23  1  0
 14 20  1  0
 14 16  1  0
 15 21  1  0
 16 15  1  0
 17 16  2  0
 18 19  1  0
 18 12  2  0
 19 14  2  0
 20 13  1  0
 21 11  1  0
 23 25  2  0
 24 23  1  0
 26 24  1  0
 27 36  2  0
 27 32  1  0
 28 24  1  0
 28 32  1  0
 29 28  1  0
 30 31  1  0
 30 29  1  0
 31 27  1  0
 32 33  2  0
 33 34  1  0
 35 34  2  0
 36 35  1  0
 37 11  1  0
 37 38  1  0
 37 47  1  0
 38 41  1  0
 39 43  1  0
 39 38  1  0
 40 39  2  0
 43 42  1  0
 45 43  1  0
 45 46  1  0
 45 44  1  0
 47 50  1  1
 47 48  1  0
 49 47  1  0
 53 51  1  6
 53 52  1  0
 53 55  1  0
 54 55  2  0
 55 56  1  0
 57 58  1  0
 57 54  1  0
 59 68  1  0
 59 58  1  0
 60 66  1  0
 60 68  1  0
 61 66  1  0
 62 63  1  0
 62 61  1  0
 64 63  1  0
 64 73  1  0
 64 65  1  0
 66 65  1  0
 67 60  2  0
 68 69  1  0
 70 71  2  0
 71 90  1  0
 72 71  1  0
 72 75  1  0
 73 70  1  0
 73 74  1  0
 74 72  2  0
 75 76  1  0
 76 77  2  0
 78 81  1  0
 78 77  1  0
 79 78  2  0
 80 79  1  0
 80 75  2  0
 81 82  1  0
 82 83  1  0
 83 84  2  0
 85 84  1  0
 85 89  1  0
 86 85  2  0
 87 82  2  0
 87 86  1  0
 88 87  1  0
 90 91  1  0
 91 94  1  0
 91 93  1  0
 92 90  2  0
 95 96  1  0
 95 70  1  0
 97 95  1  0
M  ISO  4   9 101  10 101  60 100  68 100
M  END
>  <TORSDO>  (89) 
F 24

>  <SCORE>  (89) 
-10.974

>  <name>  (89) 
88

>  <ligand_id>  (89) 
88

>  <original_smiles>  (89) 
[H]C(=C(C([H])([H])[H])C(C([H])([H])[H])(C([H])([H])[H])C1([H])C([H])=C([H])C1([H])[N+]([H])([H])C([H])([H])C([H])([H])Oc1c([H])c([H])c2c(c1[H])C([H])([H])N(C(=O)C([H])(N([H])C(=O)C([H])(N([H])C([H])([H])[H])C([H])([H])[H])C(C([H])([H])[H])(C([H])([H])[H])C([H])([H])[H])C([H])(C(=O)N([H])C1([H])c3c([H])c([H])c([H])c([H])c3C([H])([H])C([H])([H])C1([H])[H])C2([H])[H])C([H])([H])C([H])([H])C([H])([H])N([H])C(=O)N1C([H])([H])C([H])([H])C([H])([H])C([H])(n2nc(-c3c([H])c([H])c(Oc4c([H])c([H])c(F)c([H])c4F)c([H])c3[H])c(C(=O)N([H])[H])c2N([H])[H])C1([H])[H]

>  <smiles>  (89) 
[H]C(=C(C([H])([H])[H])C(C([H])([H])[H])(C([H])([H])[H])C1([H])C([H])=C([H])C1([H])[N+]([H])([H])C([H])([H])C([H])([H])Oc1c([H])c([H])c2c(c1[H])C([H])([H])N(C(=O)C([H])(N([H])C(=O)C([H])(N([H])C([H])([H])[H])C([H])([H])[H])C(C([H])([H])[H])(C([H])([H])[H])C([H])([H])[H])C([H])(C(=O)N([H])C1([H])c3c([H])c([H])c([H])c([H])c3C([H])([H])C([H])([H])C1([H])[H])C2([H])[H])C([H])([H])C([H])([H])C([H])([H])N([H])C(=O)N1C([H])([H])C([H])([H])C([H])([H])C([H])(n2nc(-c3c([H])c([H])c(Oc4c([H])c([H])c(F)c([H])c4F)c([H])c3[H])c(C(=O)N([H])[H])c2N([H])[H])C1([H])[H]

$$$$
89:0:0
     RDKit          3D

103111  0  0  1  0  0  0  0  0999 V2000
  -30.3000  -22.4660   20.2000 C   0  0  0  0  0  0  0  0  0  0  0  0
  -30.0690  -21.0650   18.7290 C   0  0  0  0  0  2  0  0  0  0  0  0
  -29.9570  -20.9760   20.2730 C   0  0  0  0  0  3  0  0  0  0  0  0
  -30.6950  -22.4800   18.7350 C   0  0  0  0  0  3  0  0  0  0  0  0
  -29.8940  -23.4080   20.9300 N   0  0  0  0  0  0  0  0  0  0  0  0
  -32.1610  -22.5170   18.5550 N   0  0  0  0  0  4  0  0  0  0  0  0
  -32.6340  -21.9360   19.2230 H   0  0  0  0  0  0  0  0  0  0  0  0
  -32.5020  -23.4560   18.6710 H   0  0  0  0  0  0  0  0  0  0  0  0
  -32.4160  -22.2220   17.6300 H   0  0  0  0  0  0  0  0  0  0  0  0
  -30.9520  -20.0560   21.0300 C   0  0  0  0  0  2  0  0  0  0  0  0
  -29.7920  -18.8460   22.9670 C   0  0  0  0  0  1  0  0  0  0  0  0
  -30.2910  -18.7190   21.5120 C   0  0  0  0  0  3  0  0  0  0  0  0
  -31.0770  -17.3790   21.2220 C   0  0  0  0  0  3  0  0  0  0  0  0
  -31.8500  -16.9710   22.4170 N   0  0  0  0  0  4  0  0  0  0  0  0
  -31.2480  -16.6850   23.1690 H   0  0  0  0  0  0  0  0  0  0  0  0
  -32.4130  -17.7360   22.7420 H   0  0  0  0  0  0  0  0  0  0  0  0
  -32.4780  -16.2130   22.2040 H   0  0  0  0  0  0  0  0  0  0  0  0
  -30.1760  -16.2210   20.5960 C   0  0  0  0  0  3  0  0  0  0  0  0
  -30.9120  -14.8500   20.3500 C   0  0  0  0  0  0  0  0  0  0  0  0
  -30.5260  -12.8250   19.0070 C   0  0  0  0  0  2  0  0  0  0  0  0
  -29.5470  -13.1550   17.8550 C   0  0  0  0  0  2  0  0  0  0  0  0
  -28.0840  -13.0280   18.3230 C   0  0  0  0  0  2  0  0  0  0  0  0
  -27.8030  -13.7120   19.6880 C   0  0  0  0  0  3  0  0  0  0  0  0
  -28.8970  -13.3670   20.7220 C   0  0  0  0  0  2  0  0  0  0  0  0
  -30.2080  -13.6990   20.1500 N   0  0  0  0  0  0  0  0  0  0  0  0
  -32.1040  -14.9310   20.0620 O   0  0  0  0  0  0  0  0  0  0  0  0
  -25.3950  -14.2490   20.4120 C   0  0  0  0  0  0  0  0  0  0  0  0
  -24.3470  -13.4460   20.7700 C   0  0  0  0  0  0  0  0  0  0  0  0
  -24.8490  -12.1090   20.7380 C   0  0  0  0  0  0  0  0  0  0  0  0
  -26.4650  -13.3990   20.1820 N   0  0  0  0  0  0  0  0  0  0  0  0
  -26.1420  -12.1070   20.4450 N   0  0  0  0  0  0  0  0  0  0  0  0
  -24.1590  -10.8260   20.9190 C   0  0  0  0  0  0  0  0  0  0  0  0
  -24.5720   -9.9040   21.9050 C   0  0  0  0  0  3  0  0  0  0  0  0
  -23.8800   -8.6860   22.0780 C   0  0  0  0  0  3  0  0  0  0  0  0
  -22.7620   -8.3850   21.2640 C   0  0  0  0  0  0  0  0  0  0  0  0
  -22.3700   -9.2970   20.2670 C   0  0  0  0  0  3  0  0  0  0  0  0
  -23.0620  -10.5060   20.0940 C   0  0  0  0  0  3  0  0  0  0  0  0
  -22.0480   -7.2140   21.3410 O   0  0  0  0  0  0  0  0  0  0  0  0
  -21.8940   -6.5400   22.5260 C   0  0  0  0  0  0  0  0  0  0  0  0
  -21.3040   -7.1460   23.6570 C   0  0  0  0  0  3  0  0  0  0  0  0
  -21.1030   -6.3950   24.8330 C   0  0  0  0  0  3  0  0  0  0  0  0
  -21.4780   -5.0400   24.8800 C   0  0  0  0  0  0  0  0  0  0  0  0
  -22.0590   -4.4340   23.7520 C   0  0  0  0  0  3  0  0  0  0  0  0
  -22.2640   -5.1800   22.5790 C   0  0  0  0  0  0  0  0  0  0  0  0
  -22.8060   -4.5840   21.4900 F   0  0  0  0  0  0  0  0  0  0  0  0
  -21.2760   -4.3180   26.0060 F   0  0  0  0  0  0  0  0  0  0  0  0
  -22.9360  -13.8810   21.0420 C   0  0  0  0  0  0  0  0  0  0  0  0
  -22.2360  -13.1700   21.9210 N   0  0  0  0  0  0  0  0  0  0  0  0
  -22.4620  -14.8860   20.5140 O   0  0  0  0  0  0  0  0  0  0  0  0
  -22.6320  -12.3580   22.3720 H   0  0  0  0  0  0  0  0  0  0  0  0
  -21.2920  -13.4440   22.1510 H   0  0  0  0  0  0  0  0  0  0  0  0
  -25.5230  -15.6230   20.2470 N   0  0  0  0  0  0  0  0  0  0  0  0
  -24.7460  -16.2540   20.4120 H   0  0  0  0  0  0  0  0  0  0  0  0
  -26.4040  -16.1010   20.1380 H   0  0  0  0  0  0  0  0  0  0  0  0
  -29.6350  -16.6780   19.1910 C   0  0  0  0  0  2  0  0  0  0  0  0
  -28.4390  -17.6640   19.1420 C   0  0  0  0  0  2  0  0  0  0  0  0
  -27.7740  -17.6670   17.8250 N   0  0  0  0  0  4  0  0  0  0  0  0
  -28.4310  -17.8960   17.1020 H   0  0  0  0  0  0  0  0  0  0  0  0
  -27.0430  -18.3580   17.8060 H   0  0  0  0  0  0  0  0  0  0  0  0
  -27.3580  -16.7780   17.6120 H   0  0  0  0  0  0  0  0  0  0  0  0
  -29.9640  -24.8040   20.4910 C   0  0  0  0  0  2  0  0  0  0  0  0
  -28.5530  -25.3970   20.2800 C   0  0  0  0  0  2  0  0  0  0  0  0
  -28.6000  -26.8090   20.0290 O   0  0  0  0  0  0  0  0  0  0  0  0
  -24.5940  -31.7790   23.1740 C   0  0  0  0  0  0  0  0  0  0  0  0
  -27.3900  -27.4760   20.0270 C   0  0  0  0  0  0  0  0  0  0  0  0
  -23.4280  -30.3480   21.5240 C   0  0  0  0  0  3  0  0  0  0  0  0
  -24.9300  -28.8800   20.0770 C   0  0  0  0  0  0  0  0  0  0  0  0
  -25.9360  -30.8070   21.3110 C   0  0  0  0  0  2  0  0  0  0  0  0
  -26.0710  -29.4480   20.6530 C   0  0  0  0  0  0  0  0  0  0  0  0
  -27.3040  -28.7570   20.6190 C   0  0  0  0  0  3  0  0  0  0  0  0
  -26.2260  -26.9190   19.4480 C   0  0  0  0  0  3  0  0  0  0  0  0
  -25.0020  -27.6140   19.4710 C   0  0  0  0  0  3  0  0  0  0  0  0
  -23.6520  -29.6870   20.1380 C   0  0  0  0  0  2  0  0  0  0  0  0
  -24.6710  -30.9910   22.0620 N   0  0  0  0  0  0  0  0  0  0  0  0
  -23.5080  -32.0060   23.7240 O   0  0  0  0  0  0  0  0  0  0  0  0
  -22.8210  -29.2980   22.4790 C   0  0  0  0  0  0  0  0  0  0  0  0
  -21.5090  -29.0490   22.3380 N   0  0  0  0  0  0  0  0  0  0  0  0
  -23.5270  -28.7070   23.3000 O   0  0  0  0  0  0  0  0  0  0  0  0
  -20.9980  -29.5850   21.6500 H   0  0  0  0  0  0  0  0  0  0  0  0
  -18.2040  -27.6520   22.7540 C   0  0  0  0  0  0  0  0  0  0  0  0
  -20.7310  -28.0700   23.0960 C   0  0  0  0  0  3  0  0  0  0  0  0
  -20.9390  -26.6410   22.5400 C   0  0  0  0  0  2  0  0  0  0  0  0
  -19.8900  -26.2400   21.4980 C   0  0  0  0  0  2  0  0  0  0  0  0
  -18.4830  -26.3080   22.1010 C   0  0  0  0  0  2  0  0  0  0  0  0
  -19.2610  -28.4860   23.2050 C   0  0  0  0  0  0  0  0  0  0  0  0
  -18.9480  -29.7410   23.7700 C   0  0  0  0  0  3  0  0  0  0  0  0
  -17.6130  -30.1650   23.8910 C   0  0  0  0  0  3  0  0  0  0  0  0
  -16.5700  -29.3280   23.4600 C   0  0  0  0  0  3  0  0  0  0  0  0
  -16.8650  -28.0730   22.8970 C   0  0  0  0  0  3  0  0  0  0  0  0
  -25.8630  -32.4470   23.7920 C   0  0  0  0  0  3  0  0  0  0  0  0
  -26.4200  -31.6780   25.0520 C   0  0  1  0  0  0  0  0  0  0  0  0
  -25.3440  -31.3830   26.1230 C   0  0  0  0  0  1  0  0  0  0  0  0
  -27.0520  -30.3310   24.6320 C   0  0  0  0  0  1  0  0  0  0  0  0
  -27.5410  -32.5080   25.7200 C   0  0  0  0  0  1  0  0  0  0  0  0
  -25.5100  -33.8280   24.1400 N   0  0  0  0  0  0  0  0  0  0  0  0
  -25.8310  -34.9030   23.4070 C   0  0  0  0  0  0  0  0  0  0  0  0
  -26.5270  -34.8370   22.3900 O   0  0  0  0  0  0  0  0  0  0  0  0
  -24.8870  -33.9510   24.9260 H   0  0  0  0  0  0  0  0  0  0  0  0
  -24.0600  -36.6520   23.0450 C   0  0  0  0  0  1  0  0  0  0  0  0
  -25.2930  -36.2670   23.8770 C   0  0  0  0  0  3  0  0  0  0  0  0
  -27.3800  -37.1950   24.7780 C   0  0  0  0  0  1  0  0  0  0  0  0
  -26.2980  -37.3510   23.8110 N   0  0  0  0  0  0  0  0  0  0  0  0
  -25.8610  -38.2550   23.9670 H   0  0  0  0  0  0  0  0  0  0  0  0
  1  3  1  0
  1  5  2  0
  2  4  1  0
  2  3  1  0
  3 10  1  0
  4  6  1  0
  4  1  1  0
  6  8  1  0
  6  7  1  0
  9  6  1  0
 10 12  1  0
 12 11  1  0
 13 12  1  0
 13 14  1  0
 14 16  1  0
 14 15  1  0
 17 14  1  0
 18 55  1  0
 18 13  1  0
 19 18  1  0
 20 25  1  0
 21 22  1  0
 21 20  1  0
 23 22  1  0
 23 30  1  0
 23 24  1  0
 25 19  1  0
 25 24  1  0
 26 19  2  0
 27 28  2  0
 28 47  1  0
 29 28  1  0
 29 32  1  0
 30 27  1  0
 30 31  1  0
 31 29  2  0
 32 33  1  0
 33 34  2  0
 35 38  1  0
 35 34  1  0
 36 35  2  0
 37 36  1  0
 37 32  2  0
 38 39  1  0
 39 44  2  0
 39 40  1  0
 40 41  2  0
 41 42  1  0
 42 46  1  0
 43 42  2  0
 44 43  1  0
 45 44  1  0
 47 48  1  0
 48 51  1  0
 48 50  1  0
 49 47  2  0
 52 53  1  0
 52 27  1  0
 54 52  1  0
 56 55  1  0
 57 56  1  0
 58 57  1  0
 59 57  1  0
 60 57  1  0
 61  5  1  0
 62 61  1  0
 63 62  1  0
 64 75  2  0
 65 63  1  0
 65 70  1  0
 66 74  1  0
 66 76  1  0
 67 73  1  0
 67 69  1  0
 68 74  1  0
 69 68  1  0
 70 69  2  0
 71 72  1  0
 71 65  2  0
 72 67  2  0
 73 66  1  0
 74 64  1  0
 76 78  2  0
 77 76  1  0
 79 77  1  0
 80 89  2  0
 80 85  1  0
 81 77  1  0
 81 85  1  0
 82 81  1  0
 83 84  1  0
 83 82  1  0
 84 80  1  0
 85 86  2  0
 86 87  1  0
 88 87  2  0
 89 88  1  0
 90 64  1  0
 90 95  1  0
 90 91  1  0
 91 94  1  1
 91 92  1  0
 93 91  1  0
 95 98  1  0
 96100  1  0
 96 95  1  0
 97 96  2  0
100 99  1  0
102100  1  0
102103  1  0
102101  1  0
M  ISO  4  18 100  19 100  62 101  63 101
M  END
>  <TORSDO>  (90) 
F 27

>  <SCORE>  (90) 
-9.392

>  <name>  (90) 
89

>  <ligand_id>  (90) 
89

>  <original_smiles>  (90) 
[H]c1c([H])c([H])c2c(c1[H])C([H])([H])C([H])([H])C([H])([H])C2([H])N([H])C(=O)C1([H])N(C(=O)C([H])(N([H])C(=O)C([H])(N([H])C([H])([H])[H])C([H])([H])[H])C(C([H])([H])[H])(C([H])([H])[H])C([H])([H])[H])C([H])([H])c2c([H])c(OC([H])([H])C([H])([H])N=C3C([H])(C([H])([H])C([H])(C([H])([H])[H])C([H])(C([H])(C(=O)N4C([H])([H])C([H])([H])C([H])([H])C([H])(n5nc(-c6c([H])c([H])c(Oc7c([H])c([H])c(F)c([H])c7F)c([H])c6[H])c(C(=O)N([H])[H])c5N([H])[H])C4([H])[H])C([H])([H])C([H])([H])[N+]([H])([H])[H])[N+]([H])([H])[H])C([H])([H])C3([H])[N+]([H])([H])[H])c([H])c([H])c2C1([H])[H]

>  <smiles>  (90) 
[H]c1c([H])c([H])c2c(c1[H])C([H])([H])C([H])([H])C([H])([H])C2([H])N([H])C(=O)C1([H])N(C(=O)C([H])(N([H])C(=O)C([H])(N([H])C([H])([H])[H])C([H])([H])[H])C(C([H])([H])[H])(C([H])([H])[H])C([H])([H])[H])C([H])([H])c2c([H])c(OC([H])([H])C([H])([H])N=C3C([H])(C([H])([H])C([H])(C([H])([H])[H])C([H])(C([H])(C(=O)N4C([H])([H])C([H])([H])C([H])([H])C([H])(n5nc(-c6c([H])c([H])c(Oc7c([H])c([H])c(F)c([H])c7F)c([H])c6[H])c(C(=O)N([H])[H])c5N([H])[H])C4([H])[H])C([H])([H])C([H])([H])[N+]([H])([H])[H])[N+]([H])([H])[H])C([H])([H])C3([H])[N+]([H])([H])[H])c([H])c([H])c2C1([H])[H]

$$$$
90:0:0
     RDKit          3D

 89 97  0  0  1  0  0  0  0  0999 V2000
  -26.9810  -22.7490   19.4990 C   0  0  0  0  0  1  0  0  0  0  0  0
  -28.7580  -23.7110   18.0580 C   0  0  0  0  0  1  0  0  0  0  0  0
  -28.4300  -23.2750   19.4990 C   0  0  2  0  0  0  0  0  0  0  0  0
  -29.4290  -21.9120   19.7990 C   0  0  0  0  0  2  0  0  0  0  0  0
  -29.3320  -19.0450   20.4190 C   0  0  0  0  0  3  0  0  0  0  0  0
  -28.9840  -20.4430   20.3900 C   0  0  0  0  0  2  0  0  0  0  0  0
  -29.0880  -18.2320   21.6690 C   0  0  0  0  0  2  0  0  0  0  0  0
  -30.5920  -17.8870   21.4440 C   0  0  0  0  0  2  0  0  0  0  0  0
  -30.3440  -17.8020   19.9180 C   0  0  0  0  0  3  0  0  0  0  0  0
  -30.7430  -15.0550   19.6130 C   0  0  0  0  0  0  0  0  0  0  0  0
  -30.5440  -12.6630   18.7720 C   0  0  0  0  0  2  0  0  0  0  0  0
  -29.5400  -12.5600   17.6020 C   0  0  0  0  0  2  0  0  0  0  0  0
  -28.0990  -12.3960   18.1280 C   0  0  0  0  0  2  0  0  0  0  0  0
  -27.7730  -13.3850   19.2790 C   0  0  0  0  0  3  0  0  0  0  0  0
  -28.8910  -13.4420   20.3380 C   0  0  0  0  0  2  0  0  0  0  0  0
  -30.1250  -13.8050   19.6330 N   0  0  0  0  0  0  0  0  0  0  0  0
  -31.9410  -15.0800   19.3110 O   0  0  0  0  0  0  0  0  0  0  0  0
  -29.9830  -16.2560   19.7420 N   0  0  0  0  0  0  0  0  0  0  0  0
  -28.9980  -16.0690   19.8520 H   0  0  0  0  0  0  0  0  0  0  0  0
  -25.4820  -14.0490   20.2050 C   0  0  0  0  0  0  0  0  0  0  0  0
  -24.4150  -13.3110   20.6390 C   0  0  0  0  0  0  0  0  0  0  0  0
  -24.8160  -11.9430   20.5500 C   0  0  0  0  0  0  0  0  0  0  0  0
  -26.4640  -13.1320   19.8700 N   0  0  0  0  0  0  0  0  0  0  0  0
  -26.0790  -11.8590   20.1450 N   0  0  0  0  0  0  0  0  0  0  0  0
  -24.0500  -10.7100   20.7690 C   0  0  0  0  0  0  0  0  0  0  0  0
  -24.4680   -9.7350   21.7010 C   0  0  0  0  0  3  0  0  0  0  0  0
  -23.7040   -8.5670   21.9080 C   0  0  0  0  0  3  0  0  0  0  0  0
  -22.5040   -8.3650   21.1840 C   0  0  0  0  0  0  0  0  0  0  0  0
  -22.1040   -9.3280   20.2400 C   0  0  0  0  0  3  0  0  0  0  0  0
  -22.8690  -10.4880   20.0310 C   0  0  0  0  0  3  0  0  0  0  0  0
  -21.7100   -7.2500   21.3000 O   0  0  0  0  0  0  0  0  0  0  0  0
  -21.6190   -6.5510   22.4780 C   0  0  0  0  0  0  0  0  0  0  0  0
  -21.2050   -7.1670   23.6790 C   0  0  0  0  0  3  0  0  0  0  0  0
  -21.0570   -6.3970   24.8510 C   0  0  0  0  0  3  0  0  0  0  0  0
  -21.3140   -5.0130   24.8210 C   0  0  0  0  0  0  0  0  0  0  0  0
  -21.7200   -4.3980   23.6240 C   0  0  0  0  0  3  0  0  0  0  0  0
  -21.8690   -5.1650   22.4560 C   0  0  0  0  0  0  0  0  0  0  0  0
  -22.2410   -4.5630   21.3000 F   0  0  0  0  0  0  0  0  0  0  0  0
  -21.1650   -4.2720   25.9430 F   0  0  0  0  0  0  0  0  0  0  0  0
  -23.0630  -13.8420   21.0160 C   0  0  0  0  0  0  0  0  0  0  0  0
  -22.3760  -13.1720   21.9320 N   0  0  0  0  0  0  0  0  0  0  0  0
  -22.6290  -14.8870   20.5310 O   0  0  0  0  0  0  0  0  0  0  0  0
  -22.7410  -12.3260   22.3440 H   0  0  0  0  0  0  0  0  0  0  0  0
  -21.4690  -13.5080   22.2230 H   0  0  0  0  0  0  0  0  0  0  0  0
  -25.6910  -15.4150   20.0400 N   0  0  0  0  0  0  0  0  0  0  0  0
  -24.9540  -16.0910   20.2100 H   0  0  0  0  0  0  0  0  0  0  0  0
  -26.5090  -15.8260   19.6100 H   0  0  0  0  0  0  0  0  0  0  0  0
  -28.4200  -24.7500   20.3550 C   0  0  0  0  0  2  0  0  0  0  0  0
  -28.4010  -26.2290   19.8410 O   0  0  0  0  0  0  0  0  0  0  0  0
  -24.5340  -31.6630   23.0300 C   0  0  0  0  0  0  0  0  0  0  0  0
  -27.2800  -27.1310   19.8880 C   0  0  0  0  0  0  0  0  0  0  0  0
  -23.3820  -30.2600   21.3620 C   0  0  0  0  0  3  0  0  0  0  0  0
  -24.8840  -28.7820   19.8870 C   0  0  0  0  0  0  0  0  0  0  0  0
  -25.9180  -30.6410   21.1820 C   0  0  0  0  0  2  0  0  0  0  0  0
  -26.0440  -29.2650   20.5030 C   0  0  0  0  0  0  0  0  0  0  0  0
  -27.2430  -28.4570   20.4850 C   0  0  0  0  0  3  0  0  0  0  0  0
  -26.0930  -26.7470   19.2340 C   0  0  0  0  0  3  0  0  0  0  0  0
  -24.9180  -27.5380   19.2350 C   0  0  0  0  0  3  0  0  0  0  0  0
  -23.6200  -29.6280   19.9640 C   0  0  0  0  0  2  0  0  0  0  0  0
  -24.6320  -30.8760   21.9150 N   0  0  0  0  0  0  0  0  0  0  0  0
  -23.4410  -31.8880   23.5730 O   0  0  0  0  0  0  0  0  0  0  0  0
  -22.7550  -29.1980   22.2990 C   0  0  0  0  0  0  0  0  0  0  0  0
  -21.4320  -28.9800   22.1780 N   0  0  0  0  0  0  0  0  0  0  0  0
  -23.4570  -28.5740   23.0990 O   0  0  0  0  0  0  0  0  0  0  0  0
  -20.9200  -29.5410   21.5110 H   0  0  0  0  0  0  0  0  0  0  0  0
  -18.1060  -27.6290   22.6550 C   0  0  0  0  0  0  0  0  0  0  0  0
  -20.6540  -27.9900   22.9290 C   0  0  0  0  0  3  0  0  0  0  0  0
  -20.8140  -26.5790   22.3150 C   0  0  0  0  0  2  0  0  0  0  0  0
  -19.7240  -26.2390   21.2940 C   0  0  0  0  0  2  0  0  0  0  0  0
  -18.3370  -26.3060   21.9430 C   0  0  0  0  0  2  0  0  0  0  0  0
  -19.1930  -28.4260   23.1010 C   0  0  0  0  0  0  0  0  0  0  0  0
  -18.9210  -29.6600   23.7280 C   0  0  0  0  0  3  0  0  0  0  0  0
  -17.5960  -30.0980   23.9150 C   0  0  0  0  0  3  0  0  0  0  0  0
  -16.5240  -29.2970   23.4850 C   0  0  0  0  0  3  0  0  0  0  0  0
  -16.7800  -28.0650   22.8570 C   0  0  0  0  0  3  0  0  0  0  0  0
  -25.7870  -32.3310   23.6730 C   0  0  0  0  0  3  0  0  0  0  0  0
  -26.3350  -31.5420   24.9250 C   0  0  1  0  0  0  0  0  0  0  0  0
  -25.2530  -31.2340   25.9860 C   0  0  0  0  0  1  0  0  0  0  0  0
  -26.9640  -30.1970   24.4900 C   0  0  0  0  0  1  0  0  0  0  0  0
  -27.4630  -32.3540   25.6040 C   0  0  0  0  0  1  0  0  0  0  0  0
  -25.4210  -33.7060   24.0540 N   0  0  0  0  0  0  0  0  0  0  0  0
  -25.7020  -34.8000   23.3340 C   0  0  0  0  0  0  0  0  0  0  0  0
  -26.3640  -34.7620   22.2940 O   0  0  0  0  0  0  0  0  0  0  0  0
  -24.8310  -33.8060   24.8680 H   0  0  0  0  0  0  0  0  0  0  0  0
  -23.8880  -36.5270   23.0640 C   0  0  0  0  0  1  0  0  0  0  0  0
  -25.1600  -36.1520   23.8430 C   0  0  0  0  0  3  0  0  0  0  0  0
  -27.2670  -37.1040   24.6680 C   0  0  0  0  0  1  0  0  0  0  0  0
  -26.1440  -37.2540   23.7470 N   0  0  0  0  0  0  0  0  0  0  0  0
  -25.7000  -38.1520   23.9300 H   0  0  0  0  0  0  0  0  0  0  0  0
  3  1  1  6
  2  3  1  0
  3  4  1  0
  3 48  1  0
  4  6  1  0
  5  6  1  0
  5  7  1  0
  8  7  1  0
  9 18  1  0
  9  5  1  0
  9  8  1  0
 10 16  1  0
 10 18  1  0
 11 16  1  0
 12 13  1  0
 12 11  1  0
 14 13  1  0
 14 23  1  0
 14 15  1  0
 16 15  1  0
 17 10  2  0
 18 19  1  0
 20 21  2  0
 21 40  1  0
 22 21  1  0
 22 25  1  0
 23 24  1  0
 23 20  1  0
 24 22  2  0
 25 26  1  0
 26 27  2  0
 28 31  1  0
 28 27  1  0
 29 28  2  0
 30 29  1  0
 30 25  2  0
 31 32  1  0
 32 33  1  0
 33 34  2  0
 35 34  1  0
 35 39  1  0
 36 35  2  0
 37 32  2  0
 37 36  1  0
 38 37  1  0
 40 41  1  0
 41 44  1  0
 41 43  1  0
 42 40  2  0
 45 20  1  0
 45 46  1  0
 47 45  1  0
 49 51  1  0
 49 48  1  0
 50 61  2  0
 51 56  1  0
 52 60  1  0
 52 62  1  0
 53 59  1  0
 53 55  1  0
 54 60  1  0
 55 54  1  0
 56 55  2  0
 57 58  1  0
 57 51  2  0
 58 53  2  0
 59 52  1  0
 60 50  1  0
 62 64  2  0
 63 62  1  0
 65 63  1  0
 66 75  2  0
 66 71  1  0
 67 63  1  0
 67 71  1  0
 68 67  1  0
 69 70  1  0
 69 68  1  0
 70 66  1  0
 71 72  2  0
 72 73  1  0
 74 73  2  0
 75 74  1  0
 76 50  1  0
 76 81  1  0
 76 77  1  0
 77 80  1  1
 77 78  1  0
 79 77  1  0
 81 84  1  0
 82 86  1  0
 82 81  1  0
 83 82  2  0
 86 85  1  0
 88 86  1  0
 88 89  1  0
 88 87  1  0
M  ISO  4  10 100  18 100  48 101  49 101
M  END
>  <TORSDO>  (91) 
F 19

>  <SCORE>  (91) 
-13.709

>  <name>  (91) 
90

>  <ligand_id>  (91) 
90

>  <original_smiles>  (91) 
[H]C(=C1C([H])([H])C([H])([H])C1([H])N([H])C(=O)N1C([H])([H])C([H])([H])C([H])([H])C([H])(n2nc(-c3c([H])c([H])c(Oc4c([H])c([H])c(F)c([H])c4F)c([H])c3[H])c(C(=O)N([H])[H])c2N([H])[H])C1([H])[H])C([H])([H])C(C([H])([H])[H])(C([H])([H])[H])C([H])([H])Oc1c([H])c([H])c2c(c1[H])C([H])([H])N(C(=O)C([H])(N([H])C(=O)C([H])(N([H])C([H])([H])[H])C([H])([H])[H])C(C([H])([H])[H])(C([H])([H])[H])C([H])([H])[H])C([H])(C(=O)N([H])C1([H])c3c([H])c([H])c([H])c([H])c3C([H])([H])C([H])([H])C1([H])[H])C2([H])[H]

>  <smiles>  (91) 
[H]C(=C1C([H])([H])C([H])([H])C1([H])N([H])C(=O)N1C([H])([H])C([H])([H])C([H])([H])C([H])(n2nc(-c3c([H])c([H])c(Oc4c([H])c([H])c(F)c([H])c4F)c([H])c3[H])c(C(=O)N([H])[H])c2N([H])[H])C1([H])[H])C([H])([H])C(C([H])([H])[H])(C([H])([H])[H])C([H])([H])Oc1c([H])c([H])c2c(c1[H])C([H])([H])N(C(=O)C([H])(N([H])C(=O)C([H])(N([H])C([H])([H])[H])C([H])([H])[H])C(C([H])([H])[H])(C([H])([H])[H])C([H])([H])[H])C([H])(C(=O)N([H])C1([H])c3c([H])c([H])c([H])c([H])c3C([H])([H])C([H])([H])C1([H])[H])C2([H])[H]

$$$$
91:0:0
     RDKit          3D

 93 93  0  0  1  0  0  0  0  0999 V2000
  -20.4430  -25.2790   21.9110 C   0  0  0  0  0  3  0  0  0  0  0  0
  -21.6500  -23.9770   21.4450 C   0  0  0  0  0  2  0  0  0  0  0  0
  -20.6380  -26.8960   20.7020 C   0  0  0  0  0  1  0  0  0  0  0  0
  -22.7700  -25.4620   19.5580 C   0  0  0  0  0  2  0  0  0  0  0  0
  -23.0030  -23.8250   20.3500 C   0  0  0  0  0  2  0  0  0  0  0  0
  -21.7110  -27.0030   19.6950 C   0  0  0  0  0  2  0  0  0  0  0  0
  -25.4000  -21.0800   19.0460 C   0  0  0  0  0  2  0  0  0  0  0  0
  -24.4840  -21.7990   20.1650 C   0  0  0  0  0  1  0  0  0  0  0  0
  -26.4180  -20.2440   19.9960 C   0  0  0  0  0  1  0  0  0  0  0  0
  -28.9730  -16.9750   19.7030 C   0  0  0  0  0  2  0  0  0  0  0  0
  -30.3320  -14.3550   18.9770 C   0  0  0  0  0  2  0  0  0  0  0  0
  -29.8310  -13.1400   18.0530 C   0  0  0  0  0  2  0  0  0  0  0  0
  -28.6230  -12.4220   18.6570 C   0  0  0  0  0  2  0  0  0  0  0  0
  -27.8790  -13.4890   19.4520 C   0  0  0  0  0  3  0  0  0  0  0  0
  -28.6980  -14.2810   20.4790 C   0  0  0  0  0  2  0  0  0  0  0  0
  -29.2240  -15.3800   19.6460 N   0  0  0  0  0  0  0  0  0  0  0  0
  -30.2710  -17.0750   19.5630 O   0  0  0  0  0  1  0  0  0  0  0  0
  -27.5420  -18.2560   19.7680 N   0  0  0  0  0  1  0  0  0  0  0  0
  -26.7690  -17.6040   19.7340 H   0  0  0  0  0  0  0  0  0  0  0  0
  -25.7280  -14.0700   20.4610 C   0  0  0  0  0  0  0  0  0  0  0  0
  -24.7060  -13.3190   20.9310 C   0  0  0  0  0  0  0  0  0  0  0  0
  -25.1170  -11.9550   20.7960 C   0  0  0  0  0  0  0  0  0  0  0  0
  -26.6620  -13.1460   20.0550 N   0  0  0  0  0  0  0  0  0  0  0  0
  -26.3500  -11.8690   20.3240 N   0  0  0  0  0  0  0  0  0  0  0  0
  -24.3760  -10.7200   21.0030 C   0  0  0  0  0  0  0  0  0  0  0  0
  -24.7490   -9.7980   22.0020 C   0  0  0  0  0  3  0  0  0  0  0  0
  -23.9960   -8.6220   22.1910 C   0  0  0  0  0  3  0  0  0  0  0  0
  -22.8670   -8.3680   21.3770 C   0  0  0  0  0  0  0  0  0  0  0  0
  -22.5210   -9.2810   20.3660 C   0  0  0  0  0  3  0  0  0  0  0  0
  -23.2730  -10.4480   20.1740 C   0  0  0  0  0  3  0  0  0  0  0  0
  -22.0860   -7.2430   21.4740 O   0  0  0  0  0  0  0  0  0  0  0  0
  -21.7900   -6.6820   22.6880 C   0  0  0  0  0  0  0  0  0  0  0  0
  -21.1600   -7.4170   23.7170 C   0  0  0  0  0  3  0  0  0  0  0  0
  -20.8130   -6.7790   24.9240 C   0  0  0  0  0  3  0  0  0  0  0  0
  -21.0840   -5.4080   25.1000 C   0  0  0  0  0  0  0  0  0  0  0  0
  -21.7080   -4.6750   24.0750 C   0  0  0  0  0  3  0  0  0  0  0  0
  -22.0570   -5.3110   22.8700 C   0  0  0  0  0  0  0  0  0  0  0  0
  -22.6400   -4.5990   21.8770 F   0  0  0  0  0  0  0  0  0  0  0  0
  -20.7430   -4.7930   26.2560 F   0  0  0  0  0  0  0  0  0  0  0  0
  -23.3780  -13.8510   21.3570 C   0  0  0  0  0  0  0  0  0  0  0  0
  -22.7300  -13.1860   22.3020 N   0  0  0  0  0  0  0  0  0  0  0  0
  -22.9360  -14.8970   20.8820 O   0  0  0  0  0  0  0  0  0  0  0  0
  -23.1070  -12.3390   22.7000 H   0  0  0  0  0  0  0  0  0  0  0  0
  -21.8420  -13.5320   22.6360 H   0  0  0  0  0  0  0  0  0  0  0  0
  -25.9280  -15.4420   20.2980 N   0  0  0  0  0  0  0  0  0  0  0  0
  -25.0830  -15.9950   20.4010 H   0  0  0  0  0  0  0  0  0  0  0  0
  -26.4410  -15.6900   19.4630 H   0  0  0  0  0  0  0  0  0  0  0  0
  -21.4380  -28.9790   20.0370 C   0  0  0  0  0 15  0  0  0  0  0  0
  -21.6360  -30.1120   21.8390 C   0  0  0  0  0 15  0  0  0  0  0  0
  -21.9930  -30.1630   24.6530 C   0  0  0  0  0  1  0  0  0  0  0  0
  -22.8660  -29.6590   23.4740 C   0  0  0  0  0  2  0  0  0  0  0  0
  -24.7630  -28.8300   23.5870 C   0  0  0  0  0  1  0  0  0  0  0  0
  -25.9560  -27.5760   23.0130 O   0  0  0  0  0  0  0  0  0  0  0  0
  -24.6700  -31.8930   22.5320 C   0  0  0  0  0  0  0  0  0  0  0  0
  -26.6550  -27.2660   21.7860 C   0  0  0  0  0  3  0  0  0  0  0  0
  -23.8060  -29.7750   21.0080 C   0  0  0  0  0  3  0  0  0  0  0  0
  -25.4040  -28.5340   19.8920 C   0  0  0  0  0  3  0  0  0  0  0  0
  -26.1880  -30.6000   21.1270 C   0  0  0  0  0  2  0  0  0  0  0  0
  -26.3710  -29.1710   20.6920 C   0  0  0  0  0  3  0  0  0  0  0  0
  -27.2920  -28.4000   21.3780 C   0  0  0  0  0  2  0  0  0  0  0  0
  -26.0870  -26.4380   20.7560 C   0  0  0  0  0  2  0  0  0  0  0  0
  -25.3760  -27.1340   19.7560 C   0  0  0  0  0  2  0  0  0  0  0  0
  -24.2150  -29.3270   19.6220 C   0  0  0  0  0  2  0  0  0  0  0  0
  -24.8300  -30.8160   21.6280 N   0  0  0  0  0  0  0  0  0  0  0  0
  -23.5720  -32.4410   22.7020 O   0  0  0  0  0  0  0  0  0  0  0  0
  -23.2420  -28.2840   21.7910 C   0  0  0  0  0  0  0  0  0  0  0  0
  -22.3460  -28.0220   22.9140 N   0  0  0  0  0  0  0  0  0  0  0  0
  -23.7380  -27.2670   21.7850 O   0  0  0  0  0  0  0  0  0  0  0  0
  -22.8210  -28.7460   23.4330 H   0  0  0  0  0  0  0  0  0  0  0  0
  -17.9060  -28.2820   23.1420 C   0  0  0  0  0  0  0  0  0  0  0  0
  -21.0850  -28.1620   23.8650 C   0  0  0  0  0  3  0  0  0  0  0  0
  -21.5840  -26.3900   23.3970 C   0  0  0  0  0  2  0  0  0  0  0  0
  -19.1360  -25.1500   21.6680 C   0  0  0  0  0  2  0  0  0  0  0  0
  -17.5940  -26.5580   22.3130 C   0  0  0  0  0  1  0  0  0  0  0  0
  -19.2980  -28.9570   23.6640 C   0  0  0  0  0  0  0  0  0  0  0  0
  -19.1200  -30.3960   23.9340 C   0  0  0  0  0  3  0  0  0  0  0  0
  -17.9890  -31.2280   23.6960 C   0  0  0  0  0  3  0  0  0  0  0  0
  -16.8030  -30.6250   23.2840 C   0  0  0  0  0  3  0  0  0  0  0  0
  -16.7890  -29.2180   23.0460 C   0  0  0  0  0  3  0  0  0  0  0  0
  -25.8390  -32.4820   23.4590 C   0  0  0  0  0  3  0  0  0  0  0  0
  -25.3180  -33.7580   23.9720 N   0  0  0  0  0  0  0  0  0  0  0  0
  -25.5410  -34.9490   23.4090 C   0  0  0  0  0  0  0  0  0  0  0  0
  -26.2250  -35.0790   22.3920 O   0  0  0  0  0  0  0  0  0  0  0  0
  -24.6980  -33.7000   24.7660 H   0  0  0  0  0  0  0  0  0  0  0  0
  -23.5590  -36.4920   23.3870 C   0  0  0  0  0  1  0  0  0  0  0  0
  -24.9030  -36.1850   24.0660 C   0  0  0  0  0  3  0  0  0  0  0  0
  -26.9510  -37.2790   24.8680 C   0  0  0  0  0  1  0  0  0  0  0  0
  -25.7690  -37.3820   24.0180 N   0  0  0  0  0  0  0  0  0  0  0  0
  -25.2520  -38.2130   24.2950 H   0  0  0  0  0  0  0  0  0  0  0  0
  -26.4560  -31.6840   24.7370 C   0  0  1  0  0  0  0  0  0  0  0  0
  -25.4400  -31.2670   25.8150 C   0  0  0  0  0  1  0  0  0  0  0  0
  -27.4540  -30.5030   24.4800 C   0  0  0  0  0  1  0  0  0  0  0  0
  -27.4080  -32.6500   25.4830 C   0  0  0  0  0  1  0  0  0  0  0  0
  2  1  1  0
  4  6  1  0
  4  5  1  0
  5  2  1  0
  6  3  1  0
  7  9  1  0
  7  8  1  0
 11 16  1  0
 12 13  1  0
 12 11  1  0
 14 13  1  0
 14 23  1  0
 14 15  1  0
 16 10  1  0
 16 15  1  0
 17 10  1  0
 19 18  1  0
 20 21  2  0
 21 40  1  0
 22 21  1  0
 22 25  1  0
 23 24  1  0
 23 20  1  0
 24 22  2  0
 25 26  1  0
 26 27  2  0
 28 31  1  0
 28 27  1  0
 29 28  2  0
 30 29  1  0
 30 25  2  0
 31 32  1  0
 32 37  2  0
 32 33  1  0
 33 34  2  0
 34 35  1  0
 35 39  1  0
 36 35  2  0
 37 36  1  0
 38 37  1  0
 40 41  1  0
 41 44  1  0
 41 43  1  0
 42 40  2  0
 45 46  1  0
 45 20  1  0
 47 45  1  0
 51 50  1  0
 53 52  1  0
 54 65  2  0
 55 53  1  0
 56 64  1  0
 56 66  1  0
 57 63  1  0
 57 59  1  0
 58 64  1  0
 59 58  1  0
 59 60  1  0
 60 55  1  0
 61 55  1  0
 62 57  1  0
 62 61  1  0
 63 56  1  0
 64 54  1  0
 66 67  1  0
 67 72  1  0
 67 71  1  0
 68 66  2  0
 69 51  1  0
 70 75  1  0
 71 75  1  0
 72 71  1  0
 73  1  2  0
 74 70  1  0
 75 76  2  0
 77 76  1  0
 78 77  2  0
 79 70  2  0
 79 78  1  0
 80 54  1  0
 80 81  1  0
 80 90  1  0
 81 84  1  0
 82 81  1  0
 82 86  1  0
 83 82  2  0
 86 85  1  0
 88 86  1  0
 88 89  1  0
 88 87  1  0
 90 93  1  1
 90 91  1  0
 92 90  1  0
M  ISO  4  10 100  18 100  52 101  53 101
M  END
>  <TORSDO>  (92) 
F 21

>  <SCORE>  (92) 
-5.667

>  <name>  (92) 
91

>  <ligand_id>  (92) 
91

>  <original_smiles>  (92) 
[H]c1c([H])c([H])c2c(c1[H])C([H])([H])C([H])([H])C([H])([H])C2([H])N([H])C(=O)C1([H])N(C(=O)C([H])(N([H])C(=O)C([H])(N([H])C([H])([H])[H])C([H])([H])[H])C(C([H])([H])[H])(C([H])([H])[H])C([H])([H])[H])C([H])([H])c2c([H])c(OC([H])([H])C([H])(C([H])([H])[H])C([H])([H])C([H])([H])c3c([H])c([H])c([H])c(C4([H])C([H])([H])C4([H])N([H])C(=O)N4C([H])([H])C([H])([H])C([H])([H])C([H])(n5nc(-c6c([H])c([H])c(Oc7c([H])c([H])c(F)c([H])c7F)c([H])c6[H])c(C(=O)N([H])[H])c5N([H])[H])C4([H])[H])c3[H])c([H])c([H])c2C1([H])[H]

>  <smiles>  (92) 
[H]c1c([H])c([H])c2c(c1[H])C([H])([H])C([H])([H])C([H])([H])C2([H])N([H])C(=O)C1([H])N(C(=O)C([H])(N([H])C(=O)C([H])(N([H])C([H])([H])[H])C([H])([H])[H])C(C([H])([H])[H])(C([H])([H])[H])C([H])([H])[H])C([H])([H])c2c([H])c(OC([H])([H])C([H])(C([H])([H])[H])C([H])([H])C([H])([H])c3c([H])c([H])c([H])c(C4([H])C([H])([H])C4([H])N([H])C(=O)N4C([H])([H])C([H])([H])C([H])([H])C([H])(n5nc(-c6c([H])c([H])c(Oc7c([H])c([H])c(F)c([H])c7F)c([H])c6[H])c(C(=O)N([H])[H])c5N([H])[H])C4([H])[H])c3[H])c([H])c([H])c2C1([H])[H]

$$$$
92:0:0
     RDKit          3D

 95104  0  0  1  0  0  0  0  0999 V2000
  -29.5720  -20.3410   20.9520 N   0  0  0  0  0  4  0  0  0  0  0  0
  -30.5020  -20.5350   21.2790 H   0  0  0  0  0  0  0  0  0  0  0  0
  -28.9970  -20.3370   21.7750 H   0  0  0  0  0  0  0  0  0  0  0  0
  -30.9130  -15.3610   20.8670 C   0  0  0  0  0  0  0  0  0  0  0  0
  -30.9050  -12.9490   20.0300 C   0  0  0  0  0  2  0  0  0  0  0  0
  -30.1150  -12.7870   18.7120 C   0  0  0  0  0  2  0  0  0  0  0  0
  -28.6190  -12.5720   19.0020 C   0  0  0  0  0  2  0  0  0  0  0  0
  -28.0730  -13.5450   20.0810 C   0  0  0  0  0  3  0  0  0  0  0  0
  -29.0100  -13.6750   21.2990 C   0  0  0  0  0  2  0  0  0  0  0  0
  -30.3100  -14.1020   20.7750 N   0  0  0  0  0  0  0  0  0  0  0  0
  -32.1470  -15.3520   20.7730 O   0  0  0  0  0  0  0  0  0  0  0  0
  -29.4340  -17.5620   21.5300 C   0  0  0  0  0  2  0  0  0  0  0  0
  -30.8410  -17.9180   20.1190 C   0  0  0  0  0  3  0  0  0  0  0  0
  -29.5550  -18.7810   20.4900 C   0  0  0  0  0  3  0  0  0  0  0  0
  -30.2140  -16.6090   20.6290 N   0  0  0  0  0  0  0  0  0  0  0  0
  -32.1610  -17.7780   15.9720 C   0  0  0  0  0  3  0  0  0  0  0  0
  -31.1460  -16.9070   16.4100 C   0  0  0  0  0  3  0  0  0  0  0  0
  -32.7410  -18.6920   16.8710 C   0  0  0  0  0  3  0  0  0  0  0  0
  -30.7050  -16.9550   17.7460 C   0  0  0  0  0  3  0  0  0  0  0  0
  -32.3060  -18.7380   18.2120 C   0  0  0  0  0  3  0  0  0  0  0  0
  -31.2900  -17.8660   18.6600 C   0  0  0  0  0  0  0  0  0  0  0  0
  -25.6320  -14.0980   20.5900 C   0  0  0  0  0  0  0  0  0  0  0  0
  -24.5490  -13.3120   20.8770 C   0  0  0  0  0  0  0  0  0  0  0  0
  -25.0350  -11.9720   20.9320 C   0  0  0  0  0  0  0  0  0  0  0  0
  -26.7050  -13.2310   20.4720 N   0  0  0  0  0  0  0  0  0  0  0  0
  -26.3510  -11.9500   20.7520 N   0  0  0  0  0  0  0  0  0  0  0  0
  -24.3110  -10.7020   21.0880 C   0  0  0  0  0  0  0  0  0  0  0  0
  -24.6840   -9.7540   22.0650 C   0  0  0  0  0  3  0  0  0  0  0  0
  -23.9590   -8.5500   22.2110 C   0  0  0  0  0  3  0  0  0  0  0  0
  -22.8450   -8.2870   21.3770 C   0  0  0  0  0  0  0  0  0  0  0  0
  -22.4910   -9.2250   20.3920 C   0  0  0  0  0  3  0  0  0  0  0  0
  -23.2170  -10.4190   20.2460 C   0  0  0  0  0  3  0  0  0  0  0  0
  -22.0940   -7.1380   21.4300 O   0  0  0  0  0  0  0  0  0  0  0  0
  -21.9440   -6.4270   22.5920 C   0  0  0  0  0  0  0  0  0  0  0  0
  -21.3740   -7.0010   23.7490 C   0  0  0  0  0  3  0  0  0  0  0  0
  -21.1720   -6.2130   24.8990 C   0  0  0  0  0  3  0  0  0  0  0  0
  -21.5310   -4.8510   24.8940 C   0  0  0  0  0  0  0  0  0  0  0  0
  -22.0970   -4.2780   23.7430 C   0  0  0  0  0  3  0  0  0  0  0  0
  -22.2990   -5.0630   22.5940 C   0  0  0  0  0  0  0  0  0  0  0  0
  -22.8220   -4.4970   21.4790 F   0  0  0  0  0  0  0  0  0  0  0  0
  -21.3320   -4.0940   25.9980 F   0  0  0  0  0  0  0  0  0  0  0  0
  -23.1280  -13.7730   20.9920 C   0  0  0  0  0  0  0  0  0  0  0  0
  -22.3350  -13.1230   21.8390 N   0  0  0  0  0  0  0  0  0  0  0  0
  -22.7210  -14.7490   20.3660 O   0  0  0  0  0  0  0  0  0  0  0  0
  -22.6740  -12.3400   22.3760 H   0  0  0  0  0  0  0  0  0  0  0  0
  -21.3800  -13.4230   21.9540 H   0  0  0  0  0  0  0  0  0  0  0  0
  -25.7930  -15.4660   20.3930 N   0  0  0  0  0  0  0  0  0  0  0  0
  -25.0110  -16.1120   20.4290 H   0  0  0  0  0  0  0  0  0  0  0  0
  -26.6640  -15.9230   20.1500 H   0  0  0  0  0  0  0  0  0  0  0  0
  -29.0720  -21.6660   20.1590 C   0  0  0  0  0  2  0  0  0  0  0  0
  -30.1970  -23.5990   21.5630 C   0  0  0  0  0  1  0  0  0  0  0  0
  -27.7730  -23.1240   21.9010 C   0  0  0  0  0  1  0  0  0  0  0  0
  -28.8800  -23.2670   20.8300 C   0  0  2  0  0  0  0  0  0  0  0  0
  -28.4230  -24.7040   19.9410 C   0  0  0  0  0  2  0  0  0  0  0  0
  -28.5000  -26.2750   20.2770 O   0  0  0  0  0  0  0  0  0  0  0  0
  -24.6860  -31.9210   23.2570 C   0  0  0  0  0  0  0  0  0  0  0  0
  -27.4510  -27.2940   20.1490 C   0  0  0  0  0  0  0  0  0  0  0  0
  -23.5700  -30.5530   21.5380 C   0  0  0  0  0  3  0  0  0  0  0  0
  -25.0970  -29.0540   20.0920 C   0  0  0  0  0  0  0  0  0  0  0  0
  -26.1270  -30.8600   21.4620 C   0  0  0  0  0  2  0  0  0  0  0  0
  -26.2490  -29.4860   20.7620 C   0  0  0  0  0  0  0  0  0  0  0  0
  -27.4210  -28.6220   20.7690 C   0  0  0  0  0  3  0  0  0  0  0  0
  -26.2850  -27.0080   19.4060 C   0  0  0  0  0  3  0  0  0  0  0  0
  -25.1380  -27.8400   19.3870 C   0  0  0  0  0  3  0  0  0  0  0  0
  -23.8500  -29.9260   20.1430 C   0  0  0  0  0  2  0  0  0  0  0  0
  -24.8130  -31.1350   22.1410 N   0  0  0  0  0  0  0  0  0  0  0  0
  -23.5780  -32.1580   23.7660 O   0  0  0  0  0  0  0  0  0  0  0  0
  -22.8830  -29.5030   22.4480 C   0  0  0  0  0  0  0  0  0  0  0  0
  -21.5540  -29.3350   22.3130 N   0  0  0  0  0  0  0  0  0  0  0  0
  -23.5530  -28.8370   23.2420 O   0  0  0  0  0  0  0  0  0  0  0  0
  -21.0690  -29.9320   21.6560 H   0  0  0  0  0  0  0  0  0  0  0  0
  -18.1680  -28.1250   22.7770 C   0  0  0  0  0  0  0  0  0  0  0  0
  -20.7320  -28.3550   23.0340 C   0  0  0  0  0  3  0  0  0  0  0  0
  -20.8170  -26.9570   22.3750 C   0  0  0  0  0  2  0  0  0  0  0  0
  -19.7070  -26.7070   21.3490 C   0  0  0  0  0  2  0  0  0  0  0  0
  -18.3300  -26.8240   22.0090 C   0  0  0  0  0  2  0  0  0  0  0  0
  -19.2960  -28.8500   23.2470 C   0  0  0  0  0  0  0  0  0  0  0  0
  -19.0860  -30.0680   23.9290 C   0  0  0  0  0  3  0  0  0  0  0  0
  -17.7850  -30.5600   24.1470 C   0  0  0  0  0  3  0  0  0  0  0  0
  -16.6740  -29.8280   23.6940 C   0  0  0  0  0  3  0  0  0  0  0  0
  -16.8670  -28.6170   23.0100 C   0  0  0  0  0  3  0  0  0  0  0  0
  -25.9270  -32.5700   23.9410 C   0  0  0  0  0  3  0  0  0  0  0  0
  -26.4230  -31.7680   25.2060 C   0  0  1  0  0  0  0  0  0  0  0  0
  -25.3010  -31.4670   26.2290 C   0  0  0  0  0  1  0  0  0  0  0  0
  -27.0510  -30.4180   24.7930 C   0  0  0  0  0  1  0  0  0  0  0  0
  -27.5360  -32.5640   25.9260 C   0  0  0  0  0  1  0  0  0  0  0  0
  -25.5670  -33.9460   24.3210 N   0  0  0  0  0  0  0  0  0  0  0  0
  -25.9220  -35.0460   23.6430 C   0  0  0  0  0  0  0  0  0  0  0  0
  -26.6520  -35.0080   22.6500 O   0  0  0  0  0  0  0  0  0  0  0  0
  -24.9250  -34.0430   25.0940 H   0  0  0  0  0  0  0  0  0  0  0  0
  -24.2090  -36.8490   23.2700 C   0  0  0  0  0  1  0  0  0  0  0  0
  -25.3880  -36.4020   24.1470 C   0  0  0  0  0  3  0  0  0  0  0  0
  -27.4440  -37.2510   25.1910 C   0  0  0  0  0  1  0  0  0  0  0  0
  -26.4150  -37.4660   24.1770 N   0  0  0  0  0  0  0  0  0  0  0  0
  -25.9900  -38.3720   24.3480 H   0  0  0  0  0  0  0  0  0  0  0  0
  1  2  1  0
  1  3  1  0
  5 10  1  0
  6  7  1  0
  6  5  1  0
  8  7  1  0
  8 25  1  0
  8  9  1  0
 10  4  1  0
 10  9  1  0
 11  4  2  0
 13 21  1  0
 13 14  1  0
 13 15  1  0
 14  1  1  0
 14 12  1  0
 15  4  1  0
 15 12  1  0
 16 17  2  0
 16 18  1  0
 17 19  1  0
 18 20  2  0
 19 21  2  0
 20 21  1  0
 22 23  2  0
 23 24  1  0
 23 42  1  0
 24 27  1  0
 25 22  1  0
 25 26  1  0
 26 24  2  0
 27 28  1  0
 28 29  2  0
 30 33  1  0
 30 29  1  0
 31 30  2  0
 32 31  1  0
 32 27  2  0
 33 34  1  0
 34 39  2  0
 34 35  1  0
 35 36  2  0
 37 36  1  0
 37 41  1  0
 38 37  2  0
 39 38  1  0
 40 39  1  0
 42 43  1  0
 43 46  1  0
 43 45  1  0
 44 42  2  0
 47 48  1  0
 47 22  1  0
 49 47  1  0
 50 53  1  0
 50  1  1  0
 53 51  1  1
 53 52  1  0
 54 55  1  0
 54 53  1  0
 56 67  2  0
 57 55  1  0
 57 62  1  0
 58 66  1  0
 58 68  1  0
 59 65  1  0
 59 61  1  0
 60 66  1  0
 61 62  2  0
 61 60  1  0
 63 57  2  0
 64 63  1  0
 64 59  2  0
 65 58  1  0
 66 56  1  0
 68 70  2  0
 69 68  1  0
 71 69  1  0
 72 81  2  0
 72 77  1  0
 73 69  1  0
 73 77  1  0
 74 73  1  0
 75 76  1  0
 75 74  1  0
 76 72  1  0
 77 78  2  0
 78 79  1  0
 80 79  2  0
 81 80  1  0
 82 56  1  0
 82 87  1  0
 82 83  1  0
 83 86  1  1
 83 84  1  0
 85 83  1  0
 87 90  1  0
 88 92  1  0
 88 87  1  0
 89 88  2  0
 92 91  1  0
 92 94  1  0
 94 95  1  0
 94 93  1  0
M  ISO  4   4 100  15 100  54 101  55 101
M  END
>  <TORSDO>  (93) 
F 20

>  <SCORE>  (93) 
-13.630

>  <name>  (93) 
92

>  <ligand_id>  (93) 
92

>  <original_smiles>  (93) 
[H]c1c([H])c([H])c(C2([H])N(C(=O)N3C([H])([H])C([H])([H])C([H])([H])C([H])(n4nc(-c5c([H])c([H])c(Oc6c([H])c([H])c(F)c([H])c6F)c([H])c5[H])c(C(=O)N([H])[H])c4N([H])[H])C3([H])[H])C([H])([H])C2([H])[N+]([H])([H])C([H])([H])C(C([H])([H])[H])(C([H])([H])[H])C([H])([H])Oc2c([H])c([H])c3c(c2[H])C([H])([H])N(C(=O)C([H])(N([H])C(=O)C([H])(N([H])C([H])([H])[H])C([H])([H])[H])C(C([H])([H])[H])(C([H])([H])[H])C([H])([H])[H])C([H])(C(=O)N([H])C2([H])c4c([H])c([H])c([H])c([H])c4C([H])([H])C([H])([H])C2([H])[H])C3([H])[H])c([H])c1[H]

>  <smiles>  (93) 
[H]c1c([H])c([H])c(C2([H])N(C(=O)N3C([H])([H])C([H])([H])C([H])([H])C([H])(n4nc(-c5c([H])c([H])c(Oc6c([H])c([H])c(F)c([H])c6F)c([H])c5[H])c(C(=O)N([H])[H])c4N([H])[H])C3([H])[H])C([H])([H])C2([H])[N+]([H])([H])C([H])([H])C(C([H])([H])[H])(C([H])([H])[H])C([H])([H])Oc2c([H])c([H])c3c(c2[H])C([H])([H])N(C(=O)C([H])(N([H])C(=O)C([H])(N([H])C([H])([H])[H])C([H])([H])[H])C(C([H])([H])[H])(C([H])([H])[H])C([H])([H])[H])C([H])(C(=O)N([H])C2([H])c4c([H])c([H])c([H])c([H])c4C([H])([H])C([H])([H])C2([H])[H])C3([H])[H])c([H])c1[H]

$$$$
93:0:0
     RDKit          3D

 94 94  0  0  1  0  0  0  0  0999 V2000
  -23.2320  -30.6180   18.6850 C   0  0  0  0  0  2  0  0  0  0  0  0
  -22.3140  -29.6980   18.2550 C   0  0  0  0  0  2  0  0  0  0  0  0
  -23.4910  -30.0150   20.0770 C   0  0  0  0  0  3  0  0  0  0  0  0
  -22.2550  -28.7920   19.5100 C   0  0  0  0  0  3  0  0  0  0  0  0
  -22.3130  -27.0700   19.2220 N   0  0  0  0  0  4  0  0  0  0  0  0
  -21.9560  -27.0040   18.2780 H   0  0  0  0  0  0  0  0  0  0  0  0
  -21.5540  -26.6900   19.7710 H   0  0  0  0  0  0  0  0  0  0  0  0
  -23.5120  -25.8040   19.2540 C   0  0  0  0  0  2  0  0  0  0  0  0
  -25.1440  -25.5620   18.3560 C   0  0  0  0  0  2  0  0  0  0  0  0
  -26.8240  -25.4470   18.5700 O   0  0  0  0  0  0  0  0  0  0  0  0
  -26.0950  -29.5880   23.9700 C   0  0  0  0  0  0  0  0  0  0  0  0
  -28.0280  -26.2130   18.6290 C   0  0  0  0  0  3  0  0  0  0  0  0
  -24.5780  -27.9930   22.0940 C   0  0  0  0  0  2  0  0  0  0  0  0
  -26.7270  -28.1540   18.9850 C   0  0  0  0  0  3  0  0  0  0  0  0
  -27.8650  -28.3300   22.1300 C   0  0  0  0  0 15  0  0  0  0  0  0
  -28.0210  -28.1310   20.1150 C   0  0  0  0  0  2  0  0  0  0  0  0
  -28.6180  -26.9470   19.7430 C   0  0  0  0  0  2  0  0  0  0  0  0
  -27.6630  -26.8910   17.5170 C   0  0  0  0  0  2  0  0  0  0  0  0
  -26.7380  -27.8540   17.7090 C   0  0  0  0  0  2  0  0  0  0  0  0
  -24.9950  -27.9130   19.4460 C   0  0  0  0  0  1  0  0  0  0  0  0
  -26.1910  -28.4420   23.0900 N   0  0  0  0  0  1  0  0  0  0  0  0
  -25.0270  -30.1150   24.3460 O   0  0  0  0  0  0  0  0  0  0  0  0
  -23.5470  -27.6170   22.9590 C   0  0  0  0  0  0  0  0  0  0  0  0
  -22.3150  -28.0900   22.8260 N   0  0  0  0  0  0  0  0  0  0  0  0
  -23.9580  -26.8690   23.8090 O   0  0  0  0  0  0  0  0  0  0  0  0
  -22.0990  -28.8870   22.2460 H   0  0  0  0  0  0  0  0  0  0  0  0
  -18.8780  -27.3700   22.4390 C   0  0  0  0  0  0  0  0  0  0  0  0
  -21.2690  -27.2370   23.2280 C   0  0  0  0  0  3  0  0  0  0  0  0
  -21.3690  -25.9250   22.4180 C   0  0  0  0  0  2  0  0  0  0  0  0
  -20.5090  -25.9380   21.1580 C   0  0  0  0  0  2  0  0  0  0  0  0
  -19.0610  -26.1180   21.5930 C   0  0  0  0  0  2  0  0  0  0  0  0
  -19.9500  -27.9470   23.1500 C   0  0  0  0  0  0  0  0  0  0  0  0
  -19.7730  -29.1510   23.8630 C   0  0  0  0  0  3  0  0  0  0  0  0
  -18.5060  -29.7510   23.9160 C   0  0  0  0  0  3  0  0  0  0  0  0
  -17.4200  -29.1450   23.2570 C   0  0  0  0  0  3  0  0  0  0  0  0
  -17.6090  -27.9640   22.5150 C   0  0  0  0  0  3  0  0  0  0  0  0
  -27.3620  -30.2230   24.6730 C   0  0  0  0  0  3  0  0  0  0  0  0
  -27.2040  -31.6410   25.1720 N   0  0  0  0  0  0  0  0  0  0  0  0
  -27.8300  -32.7660   24.7450 C   0  0  0  0  0  0  0  0  0  0  0  0
  -28.5780  -32.7710   23.7650 O   0  0  0  0  0  0  0  0  0  0  0  0
  -26.5450  -31.7510   25.9300 H   0  0  0  0  0  0  0  0  0  0  0  0
  -26.4930  -34.9290   24.8290 C   0  0  0  0  0  1  0  0  0  0  0  0
  -27.6010  -34.1080   25.5100 C   0  0  0  0  0  3  0  0  0  0  0  0
  -29.8250  -34.4350   26.5360 C   0  0  0  0  0  1  0  0  0  0  0  0
  -28.8100  -34.9650   25.6300 N   0  0  0  0  0  0  0  0  0  0  0  0
  -28.5600  -35.8980   25.9460 H   0  0  0  0  0  0  0  0  0  0  0  0
  -27.7170  -29.2950   25.8900 C   0  0  1  0  0  0  0  0  0  0  0  0
  -26.5060  -29.0800   26.8320 C   0  0  0  0  0  1  0  0  0  0  0  0
  -28.2150  -27.9010   25.4600 C   0  0  0  0  0  1  0  0  0  0  0  0
  -28.8890  -29.8800   26.6990 C   0  0  0  0  0  1  0  0  0  0  0  0
  -25.6250  -27.2800   21.3950 C   0  0  0  0  0  1  0  0  0  0  0  0
  -25.1470  -29.4620   20.7130 C   0  0  0  0  0  1  0  0  0  0  0  0
  -27.0710  -23.3750   21.1170 C   0  0  0  0  0  1  0  0  0  0  0  0
  -26.6510  -25.1860   21.6960 C   0  0  0  0  0  2  0  0  0  0  0  0
  -27.4130  -25.3320   22.9920 C   0  0  0  0  0  1  0  0  0  0  0  0
  -28.1020  -21.0560   21.0190 C   0  0  0  0  0 15  0  0  0  0  0  0
  -29.3360  -16.9070   20.2300 C   0  0  0  0  0  2  0  0  0  0  0  0
  -29.9940  -14.0270   19.2040 C   0  0  0  0  0  2  0  0  0  0  0  0
  -29.3980  -12.9520   18.1260 C   0  0  0  0  0  2  0  0  0  0  0  0
  -28.1800  -12.1800   18.6250 C   0  0  0  0  0  2  0  0  0  0  0  0
  -27.4480  -13.1710   19.5280 C   0  0  0  0  0  3  0  0  0  0  0  0
  -28.2990  -14.0350   20.5770 C   0  0  0  0  0  2  0  0  0  0  0  0
  -29.0870  -15.2390   19.9450 N   0  0  0  0  0  0  0  0  0  0  0  0
  -30.5940  -16.6120   20.0530 O   0  0  0  0  0  1  0  0  0  0  0  0
  -28.5490  -18.7230   20.5370 N   0  0  0  0  0  1  0  0  0  0  0  0
  -29.5220  -18.9930   20.4490 H   0  0  0  0  0  0  0  0  0  0  0  0
  -25.0890  -13.4810   20.2340 C   0  0  0  0  0  0  0  0  0  0  0  0
  -24.0840  -12.6660   20.6490 C   0  0  0  0  0  0  0  0  0  0  0  0
  -24.6270  -11.3420   20.6870 C   0  0  0  0  0  0  0  0  0  0  0  0
  -26.1880  -12.6770   20.0570 N   0  0  0  0  0  0  0  0  0  0  0  0
  -25.9280  -11.3700   20.3660 N   0  0  0  0  0  0  0  0  0  0  0  0
  -23.9420  -10.0630   20.9580 C   0  0  0  0  0  0  0  0  0  0  0  0
  -24.3480   -9.2040   22.0030 C   0  0  0  0  0  3  0  0  0  0  0  0
  -23.6430   -8.0080   22.2660 C   0  0  0  0  0  3  0  0  0  0  0  0
  -22.5140   -7.6600   21.4860 C   0  0  0  0  0  0  0  0  0  0  0  0
  -22.1240   -8.5090   20.4350 C   0  0  0  0  0  3  0  0  0  0  0  0
  -22.8310   -9.6940   20.1720 C   0  0  0  0  0  3  0  0  0  0  0  0
  -21.7850   -6.5050   21.6490 O   0  0  0  0  0  0  0  0  0  0  0  0
  -21.6190   -5.9250   22.8820 C   0  0  0  0  0  0  0  0  0  0  0  0
  -21.0000   -6.6110   23.9500 C   0  0  0  0  0  3  0  0  0  0  0  0
  -20.7860   -5.9540   25.1780 C   0  0  0  0  0  3  0  0  0  0  0  0
  -21.1790   -4.6120   25.3390 C   0  0  0  0  0  0  0  0  0  0  0  0
  -21.7880   -3.9250   24.2750 C   0  0  0  0  0  3  0  0  0  0  0  0
  -22.0040   -4.5790   23.0490 C   0  0  0  0  0  0  0  0  0  0  0  0
  -22.5730   -3.9050   22.0190 F   0  0  0  0  0  0  0  0  0  0  0  0
  -20.9670   -3.9790   26.5170 F   0  0  0  0  0  0  0  0  0  0  0  0
  -22.6750  -13.1020   20.8950 C   0  0  0  0  0  0  0  0  0  0  0  0
  -21.9830  -12.4510   21.8210 N   0  0  0  0  0  0  0  0  0  0  0  0
  -22.2010  -14.0730   20.3050 O   0  0  0  0  0  0  0  0  0  0  0  0
  -22.3860  -11.6730   22.3200 H   0  0  0  0  0  0  0  0  0  0  0  0
  -21.0370  -12.7340   22.0320 H   0  0  0  0  0  0  0  0  0  0  0  0
  -25.1600  -14.8450   19.9590 N   0  0  0  0  0  0  0  0  0  0  0  0
  -24.3500  -15.4520   20.0180 H   0  0  0  0  0  0  0  0  0  0  0  0
  -25.9840  -15.3100   19.6030 H   0  0  0  0  0  0  0  0  0  0  0  0
  1  3  1  0
  2  1  1  0
  2  4  1  0
  3 52  1  0
  4  5  1  0
  4  3  1  0
  5  8  1  0
  5  7  1  0
  6  5  1  0
  9 10  1  0
  9  8  1  0
 11 22  2  0
 12 10  1  0
 12 17  1  0
 13 23  1  0
 14 20  1  0
 14 16  1  0
 17 16  1  0
 18 19  1  0
 18 12  1  0
 19 14  1  0
 21 11  1  0
 23 25  2  0
 24 23  1  0
 26 24  1  0
 27 36  2  0
 27 32  1  0
 28 24  1  0
 29 28  1  0
 30 31  1  0
 30 29  1  0
 31 27  1  0
 32 28  1  0
 32 33  2  0
 33 34  1  0
 35 34  2  0
 36 35  1  0
 37 11  1  0
 37 38  1  0
 37 47  1  0
 38 41  1  0
 39 38  1  0
 39 43  1  0
 40 39  2  0
 43 42  1  0
 43 45  1  0
 45 46  1  0
 45 44  1  0
 47 50  1  1
 47 48  1  0
 49 47  1  0
 51 13  1  0
 53 54  1  0
 54 55  1  0
 58 63  1  0
 59 60  1  0
 59 58  1  0
 61 60  1  0
 61 70  1  0
 61 62  1  0
 63 57  1  0
 63 62  1  0
 64 57  1  0
 66 65  1  0
 67 68  2  0
 68 69  1  0
 68 87  1  0
 69 72  1  0
 70 67  1  0
 70 71  1  0
 71 69  2  0
 72 73  1  0
 73 74  2  0
 75 78  1  0
 75 74  1  0
 76 75  2  0
 77 76  1  0
 77 72  2  0
 78 79  1  0
 79 84  2  0
 79 80  1  0
 80 81  2  0
 81 82  1  0
 82 86  1  0
 83 82  2  0
 84 83  1  0
 85 84  1  0
 87 88  1  0
 88 91  1  0
 88 90  1  0
 89 87  2  0
 92 93  1  0
 92 67  1  0
 94 92  1  0
M  ISO  4   9 101  10 101  57 100  65 100
M  END
>  <TORSDO>  (94) 
F 22

>  <SCORE>  (94) 
-8.353

>  <name>  (94) 
93

>  <ligand_id>  (94) 
93

>  <original_smiles>  (94) 
[H]C(C(=C([H])C([H])([H])N([H])C(=O)N1C([H])([H])C([H])([H])C([H])([H])C([H])(n2nc(-c3c([H])c([H])c(Oc4c([H])c([H])c(F)c([H])c4F)c([H])c3[H])c(C(=O)N([H])[H])c2N([H])[H])C1([H])[H])C([H])([H])[H])=C([H])C1([H])C([H])=C([H])C1([H])[N+]([H])([H])C([H])([H])C([H])([H])Oc1c([H])c([H])c2c(c1[H])C([H])([H])N(C(=O)C([H])(N([H])C(=O)C([H])(N([H])C([H])([H])[H])C([H])([H])[H])C(C([H])([H])[H])(C([H])([H])[H])C([H])([H])[H])C([H])(C(=O)N([H])C1([H])c3c([H])c([H])c([H])c([H])c3C([H])([H])C([H])([H])C1([H])[H])C2([H])[H]

>  <smiles>  (94) 
[H]C(C(=C([H])C([H])([H])N([H])C(=O)N1C([H])([H])C([H])([H])C([H])([H])C([H])(n2nc(-c3c([H])c([H])c(Oc4c([H])c([H])c(F)c([H])c4F)c([H])c3[H])c(C(=O)N([H])[H])c2N([H])[H])C1([H])[H])C([H])([H])[H])=C([H])C1([H])C([H])=C([H])C1([H])[N+]([H])([H])C([H])([H])C([H])([H])Oc1c([H])c([H])c2c(c1[H])C([H])([H])N(C(=O)C([H])(N([H])C(=O)C([H])(N([H])C([H])([H])[H])C([H])([H])[H])C(C([H])([H])[H])(C([H])([H])[H])C([H])([H])[H])C([H])(C(=O)N([H])C1([H])c3c([H])c([H])c([H])c([H])c3C([H])([H])C([H])([H])C1([H])[H])C2([H])[H]

$$$$
94:0:0
     RDKit          3D

 91 99  0  0  1  0  0  0  0  0999 V2000
  -29.3160  -22.0630   20.1330 C   0  0  0  0  0  3  0  0  0  0  0  0
  -29.7390  -20.8680   20.7890 C   0  0  0  0  0  0  0  0  0  0  0  0
  -28.9370  -23.5270   20.6910 C   0  0  0  0  0  0  0  0  0  0  0  0
  -29.1570  -23.7620   21.8840 O   0  0  0  0  0  0  0  0  0  0  0  0
  -28.2460  -24.7770   19.8400 C   0  0  0  0  0  2  0  0  0  0  0  0
  -28.3670  -26.2870   20.2400 O   0  0  0  0  0  0  0  0  0  0  0  0
  -24.6180  -31.9120   23.1800 C   0  0  0  0  0  0  0  0  0  0  0  0
  -27.2930  -27.2520   20.1330 C   0  0  0  0  0  0  0  0  0  0  0  0
  -23.4490  -30.5050   21.5270 C   0  0  0  0  0  3  0  0  0  0  0  0
  -24.9320  -28.9630   20.0990 C   0  0  0  0  0  0  0  0  0  0  0  0
  -26.0000  -30.8100   21.3790 C   0  0  0  0  0  2  0  0  0  0  0  0
  -26.0990  -29.4230   20.7200 C   0  0  0  0  0  0  0  0  0  0  0  0
  -27.2750  -28.5810   20.7270 C   0  0  0  0  0  3  0  0  0  0  0  0
  -26.1010  -26.9050   19.4560 C   0  0  0  0  0  3  0  0  0  0  0  0
  -24.9460  -27.7190   19.4510 C   0  0  0  0  0  3  0  0  0  0  0  0
  -23.6870  -29.8380   20.1470 C   0  0  0  0  0  2  0  0  0  0  0  0
  -24.7090  -31.0990   22.0830 N   0  0  0  0  0  0  0  0  0  0  0  0
  -23.5260  -32.1780   23.7030 O   0  0  0  0  0  0  0  0  0  0  0  0
  -22.7830  -29.4840   22.4830 C   0  0  0  0  0  0  0  0  0  0  0  0
  -21.4550  -29.3050   22.3600 N   0  0  0  0  0  0  0  0  0  0  0  0
  -23.4610  -28.8540   23.2980 O   0  0  0  0  0  0  0  0  0  0  0  0
  -20.9630  -29.8640   21.6780 H   0  0  0  0  0  0  0  0  0  0  0  0
  -18.0790  -28.1050   22.8990 C   0  0  0  0  0  0  0  0  0  0  0  0
  -20.6430  -28.3550   23.1270 C   0  0  0  0  0  3  0  0  0  0  0  0
  -20.7300  -26.9340   22.5210 C   0  0  0  0  0  2  0  0  0  0  0  0
  -19.6090  -26.6360   21.5200 C   0  0  0  0  0  2  0  0  0  0  0  0
  -18.2390  -26.7710   22.1900 C   0  0  0  0  0  2  0  0  0  0  0  0
  -19.2060  -28.8550   23.3240 C   0  0  0  0  0  0  0  0  0  0  0  0
  -19.0000  -30.1040   23.9500 C   0  0  0  0  0  3  0  0  0  0  0  0
  -17.7000  -30.6020   24.1530 C   0  0  0  0  0  3  0  0  0  0  0  0
  -16.5870  -29.8490   23.7420 C   0  0  0  0  0  3  0  0  0  0  0  0
  -16.7770  -28.6020   23.1210 C   0  0  0  0  0  3  0  0  0  0  0  0
  -25.8840  -32.5660   23.8150 C   0  0  0  0  0  3  0  0  0  0  0  0
  -26.4010  -31.7990   25.0950 C   0  0  1  0  0  0  0  0  0  0  0  0
  -25.3020  -31.5410   26.1530 C   0  0  0  0  0  1  0  0  0  0  0  0
  -27.0090  -30.4310   24.7090 C   0  0  0  0  0  1  0  0  0  0  0  0
  -27.5340  -32.6100   25.7680 C   0  0  0  0  0  1  0  0  0  0  0  0
  -25.5460  -33.9580   24.1550 N   0  0  0  0  0  0  0  0  0  0  0  0
  -25.9010  -35.0290   23.4320 C   0  0  0  0  0  0  0  0  0  0  0  0
  -26.6110  -34.9490   22.4260 O   0  0  0  0  0  0  0  0  0  0  0  0
  -24.9200  -34.0930   24.9340 H   0  0  0  0  0  0  0  0  0  0  0  0
  -24.2070  -36.8440   23.0140 C   0  0  0  0  0  1  0  0  0  0  0  0
  -25.3880  -36.4070   23.8970 C   0  0  0  0  0  3  0  0  0  0  0  0
  -27.4590  -37.2590   24.9060 C   0  0  0  0  0  1  0  0  0  0  0  0
  -26.4300  -37.4570   23.8880 N   0  0  0  0  0  0  0  0  0  0  0  0
  -26.0160  -38.3750   24.0280 H   0  0  0  0  0  0  0  0  0  0  0  0
  -29.7980  -20.8210   22.1280 O   0  0  0  0  0  0  0  0  0  0  0  0
  -29.5450  -21.6770   22.4550 H   0  0  0  0  0  0  0  0  0  0  0  0
  -30.2730  -19.4020   20.2240 C   0  0  0  0  0  2  0  0  0  0  0  0
  -30.9520  -15.2440   20.3920 C   0  0  0  0  0  0  0  0  0  0  0  0
  -30.8290  -12.8810   19.4630 C   0  0  0  0  0  2  0  0  0  0  0  0
  -29.9030  -12.7840   18.2280 C   0  0  0  0  0  2  0  0  0  0  0  0
  -28.4340  -12.5820   18.6550 C   0  0  0  0  0  2  0  0  0  0  0  0
  -28.0040  -13.5000   19.8310 C   0  0  0  0  0  3  0  0  0  0  0  0
  -29.0680  -13.5710   20.9460 C   0  0  0  0  0  2  0  0  0  0  0  0
  -30.3250  -13.9950   20.3120 N   0  0  0  0  0  0  0  0  0  0  0  0
  -32.1870  -15.2460   20.3450 O   0  0  0  0  0  0  0  0  0  0  0  0
  -28.2080  -17.3090   19.3110 C   0  0  0  0  0  0  0  0  0  0  0  0
  -27.1560  -17.5480   18.5150 C   0  0  0  0  0  2  0  0  0  0  0  0
  -28.3790  -17.8010   20.7270 C   0  0  0  0  0  2  0  0  0  0  0  0
  -29.4680  -16.5840   18.8990 C   0  0  0  0  0  2  0  0  0  0  0  0
  -29.9040  -17.8610   20.8460 C   0  0  0  0  0  3  0  0  0  0  0  0
  -30.2300  -16.4670   20.1400 N   0  0  0  0  0  0  0  0  0  0  0  0
  -25.6220  -14.0650   20.5650 C   0  0  0  0  0  0  0  0  0  0  0  0
  -24.5550  -13.2850   20.9080 C   0  0  0  0  0  0  0  0  0  0  0  0
  -25.0270  -11.9380   20.8690 C   0  0  0  0  0  0  0  0  0  0  0  0
  -26.6710  -13.1930   20.3280 N   0  0  0  0  0  0  0  0  0  0  0  0
  -26.3220  -11.9060   20.5790 N   0  0  0  0  0  0  0  0  0  0  0  0
  -24.3030  -10.6750   21.0350 C   0  0  0  0  0  0  0  0  0  0  0  0
  -24.6810   -9.7340   22.0170 C   0  0  0  0  0  3  0  0  0  0  0  0
  -23.9550   -8.5340   22.1710 C   0  0  0  0  0  3  0  0  0  0  0  0
  -22.8380   -8.2690   21.3430 C   0  0  0  0  0  0  0  0  0  0  0  0
  -22.4830   -9.1990   20.3510 C   0  0  0  0  0  3  0  0  0  0  0  0
  -23.2090  -10.3900   20.1940 C   0  0  0  0  0  3  0  0  0  0  0  0
  -22.0890   -7.1190   21.4050 O   0  0  0  0  0  0  0  0  0  0  0  0
  -21.9010   -6.4470   22.5850 C   0  0  0  0  0  0  0  0  0  0  0  0
  -21.2650   -7.0500   23.6930 C   0  0  0  0  0  3  0  0  0  0  0  0
  -21.0300   -6.2990   24.8630 C   0  0  0  0  0  3  0  0  0  0  0  0
  -21.4210   -4.9490   24.9240 C   0  0  0  0  0  0  0  0  0  0  0  0
  -22.0490   -4.3460   23.8200 C   0  0  0  0  0  3  0  0  0  0  0  0
  -22.2860   -5.0930   22.6530 C   0  0  0  0  0  0  0  0  0  0  0  0
  -22.8720   -4.5010   21.5840 F   0  0  0  0  0  0  0  0  0  0  0  0
  -21.1870   -4.2250   26.0440 F   0  0  0  0  0  0  0  0  0  0  0  0
  -23.1540  -13.7590   21.1570 C   0  0  0  0  0  0  0  0  0  0  0  0
  -22.4130  -13.0570   22.0060 N   0  0  0  0  0  0  0  0  0  0  0  0
  -22.7240  -14.7860   20.6330 O   0  0  0  0  0  0  0  0  0  0  0  0
  -22.7740  -12.2270   22.4520 H   0  0  0  0  0  0  0  0  0  0  0  0
  -21.4700  -13.3540   22.2140 H   0  0  0  0  0  0  0  0  0  0  0  0
  -25.7690  -15.4370   20.4120 N   0  0  0  0  0  0  0  0  0  0  0  0
  -24.9860  -16.0720   20.5200 H   0  0  0  0  0  0  0  0  0  0  0  0
  -26.6040  -15.8940   20.0630 H   0  0  0  0  0  0  0  0  0  0  0  0
  1  3  1  0
  1  2  2  0
  2 47  1  0
  3  4  2  0
  5  6  1  0
  5  3  1  0
  7 18  2  0
  8  6  1  0
  8 13  1  0
  9 17  1  0
  9 19  1  0
 10 16  1  0
 10 12  1  0
 11 17  1  0
 12 13  2  0
 12 11  1  0
 14  8  2  0
 15 14  1  0
 15 10  2  0
 16  9  1  0
 17  7  1  0
 19 21  2  0
 20 19  1  0
 22 20  1  0
 23 32  2  0
 23 28  1  0
 24 20  1  0
 24 28  1  0
 25 24  1  0
 26 27  1  0
 26 25  1  0
 27 23  1  0
 28 29  2  0
 29 30  1  0
 31 30  2  0
 32 31  1  0
 33  7  1  0
 33 38  1  0
 33 34  1  0
 34 37  1  1
 34 35  1  0
 36 34  1  0
 38 41  1  0
 39 43  1  0
 39 38  1  0
 40 39  2  0
 43 42  1  0
 45 43  1  0
 45 46  1  0
 45 44  1  0
 47 48  1  0
 49  2  1  0
 51 56  1  0
 52 53  1  0
 52 51  1  0
 54 53  1  0
 54 67  1  0
 54 55  1  0
 56 50  1  0
 56 55  1  0
 57 50  2  0
 58 60  1  0
 59 58  2  0
 60 62  1  0
 61 58  1  0
 61 63  1  0
 62 49  1  0
 63 50  1  0
 63 62  1  0
 64 65  2  0
 65 84  1  0
 66 65  1  0
 66 69  1  0
 67 64  1  0
 67 68  1  0
 68 66  2  0
 69 70  1  0
 70 71  2  0
 72 75  1  0
 72 71  1  0
 73 72  2  0
 74 73  1  0
 74 69  2  0
 75 76  1  0
 76 81  2  0
 76 77  1  0
 77 78  2  0
 78 79  1  0
 79 83  1  0
 80 79  2  0
 81 80  1  0
 82 81  1  0
 84 85  1  0
 85 88  1  0
 85 87  1  0
 86 84  2  0
 89 90  1  0
 89 64  1  0
 91 89  1  0
M  ISO  4   5 101   6 101  50 100  63 100
M  END
>  <TORSDO>  (95) 
F 20

>  <SCORE>  (95) 
-14.186

>  <name>  (95) 
94

>  <ligand_id>  (95) 
94

>  <original_smiles>  (95) 
[H]OC(=C([H])C(=O)C([H])([H])Oc1c([H])c([H])c2c(c1[H])C([H])([H])N(C(=O)C([H])(N([H])C(=O)C([H])(N([H])C([H])([H])[H])C([H])([H])[H])C(C([H])([H])[H])(C([H])([H])[H])C([H])([H])[H])C([H])(C(=O)N([H])C1([H])c3c([H])c([H])c([H])c([H])c3C([H])([H])C([H])([H])C1([H])[H])C2([H])[H])C([H])([H])C1([H])N(C(=O)N2C([H])([H])C([H])([H])C([H])([H])C([H])(n3nc(-c4c([H])c([H])c(Oc5c([H])c([H])c(F)c([H])c5F)c([H])c4[H])c(C(=O)N([H])[H])c3N([H])[H])C2([H])[H])C([H])([H])C(=C([H])[H])C1([H])[H]

>  <smiles>  (95) 
[H]OC(=C([H])C(=O)C([H])([H])Oc1c([H])c([H])c2c(c1[H])C([H])([H])N(C(=O)C([H])(N([H])C(=O)C([H])(N([H])C([H])([H])[H])C([H])([H])[H])C(C([H])([H])[H])(C([H])([H])[H])C([H])([H])[H])C([H])(C(=O)N([H])C1([H])c3c([H])c([H])c([H])c([H])c3C([H])([H])C([H])([H])C1([H])[H])C2([H])[H])C([H])([H])C1([H])N(C(=O)N2C([H])([H])C([H])([H])C([H])([H])C([H])(n3nc(-c4c([H])c([H])c(Oc5c([H])c([H])c(F)c([H])c5F)c([H])c4[H])c(C(=O)N([H])[H])c3N([H])[H])C2([H])[H])C([H])([H])C(=C([H])[H])C1([H])[H]

$$$$
