0:0:0
     RDKit          3D

102110  0  0  1  0  0  0  0  0999 V2000
  -30.4400  -20.2370   20.4700 C   0  0  0  0  0  3  0  0  0  0  0  0
  -29.7700  -22.7270   21.0310 C   0  0  0  0  0  0  0  0  0  0  0  0
  -30.1200  -22.5960   22.3260 N   0  0  0  0  0  4  0  0  0  0  0  0
  -29.6530  -21.5590   20.2840 N   0  0  0  0  0  0  0  0  0  0  0  0
  -30.2840  -23.4110   22.9020 H   0  0  0  0  0  0  0  0  0  0  0  0
  -30.1740  -21.7050   22.7940 H   0  0  0  0  0  0  0  0  0  0  0  0
  -29.1700  -21.6350   19.4020 H   0  0  0  0  0  0  0  0  0  0  0  0
  -29.6750  -24.2230   20.5030 C   0  0  0  0  0  2  0  0  0  0  0  0
  -27.2280  -24.3520   21.0750 C   0  0  0  0  0  1  0  0  0  0  0  0
  -28.0490  -24.5770   18.6460 C   0  0  0  0  0  1  0  0  0  0  0  0
  -28.2930  -24.9500   20.1320 C   0  0  2  0  0  0  0  0  0  0  0  0
  -28.3480  -26.4630   20.2780 O   0  0  0  0  0  0  0  0  0  0  0  0
  -24.6010  -31.9080   23.3100 C   0  0  0  0  0  0  0  0  0  0  0  0
  -27.2180  -27.3260   20.2310 C   0  0  0  0  0  0  0  0  0  0  0  0
  -23.4020  -30.5130   21.6690 C   0  0  0  0  0  3  0  0  0  0  0  0
  -24.8550  -28.9730   20.2380 C   0  0  0  0  0  0  0  0  0  0  0  0
  -25.9490  -30.8220   21.4940 C   0  0  0  0  0  2  0  0  0  0  0  0
  -26.0290  -29.4480   20.8310 C   0  0  0  0  0  0  0  0  0  0  0  0
  -27.2130  -28.6400   20.8110 C   0  0  0  0  0  3  0  0  0  0  0  0
  -26.0090  -26.9250   19.6180 C   0  0  0  0  0  3  0  0  0  0  0  0
  -24.8480  -27.7150   19.6250 C   0  0  0  0  0  3  0  0  0  0  0  0
  -23.6180  -29.8480   20.2870 C   0  0  0  0  0  2  0  0  0  0  0  0
  -24.6690  -31.0980   22.2140 N   0  0  0  0  0  0  0  0  0  0  0  0
  -23.5150  -32.1840   23.8440 O   0  0  0  0  0  0  0  0  0  0  0  0
  -22.7400  -29.4880   22.6250 C   0  0  0  0  0  0  0  0  0  0  0  0
  -21.4170  -29.2980   22.4890 N   0  0  0  0  0  0  0  0  0  0  0  0
  -23.4170  -28.8720   23.4500 O   0  0  0  0  0  0  0  0  0  0  0  0
  -20.9270  -29.8490   21.7980 H   0  0  0  0  0  0  0  0  0  0  0  0
  -18.0470  -28.0610   22.9610 C   0  0  0  0  0  0  0  0  0  0  0  0
  -20.6000  -28.3540   23.2550 C   0  0  0  0  0  3  0  0  0  0  0  0
  -20.7270  -26.9200   22.6900 C   0  0  0  0  0  2  0  0  0  0  0  0
  -19.6390  -26.5760   21.6680 C   0  0  0  0  0  2  0  0  0  0  0  0
  -18.2480  -26.7100   22.2940 C   0  0  0  0  0  2  0  0  0  0  0  0
  -19.1510  -28.8390   23.3970 C   0  0  0  0  0  0  0  0  0  0  0  0
  -18.9120  -30.1030   23.9800 C   0  0  0  0  0  3  0  0  0  0  0  0
  -17.5990  -30.5870   24.1330 C   0  0  0  0  0  3  0  0  0  0  0  0
  -16.5080  -29.8050   23.7150 C   0  0  0  0  0  3  0  0  0  0  0  0
  -16.7330  -28.5440   23.1330 C   0  0  0  0  0  3  0  0  0  0  0  0
  -25.8810  -32.5440   23.9340 C   0  0  0  0  0  3  0  0  0  0  0  0
  -26.3790  -31.7890   25.2280 C   0  0  1  0  0  0  0  0  0  0  0  0
  -25.2720  -31.5670   26.2850 C   0  0  0  0  0  1  0  0  0  0  0  0
  -26.9650  -30.4050   24.8670 C   0  0  0  0  0  1  0  0  0  0  0  0
  -27.5270  -32.5910   25.8870 C   0  0  0  0  0  1  0  0  0  0  0  0
  -25.5740  -33.9480   24.2450 N   0  0  0  0  0  0  0  0  0  0  0  0
  -25.9040  -34.9890   23.4680 C   0  0  0  0  0  0  0  0  0  0  0  0
  -26.5660  -34.8670   22.4350 O   0  0  0  0  0  0  0  0  0  0  0  0
  -24.9950  -34.1160   25.0520 H   0  0  0  0  0  0  0  0  0  0  0  0
  -24.1760  -36.7820   23.1000 C   0  0  0  0  0  1  0  0  0  0  0  0
  -25.4220  -36.3850   23.9080 C   0  0  0  0  0  3  0  0  0  0  0  0
  -27.5590  -37.2810   24.7150 C   0  0  0  0  0  1  0  0  0  0  0  0
  -26.4560  -37.4350   23.7710 N   0  0  0  0  0  0  0  0  0  0  0  0
  -26.0520  -38.3580   23.9070 H   0  0  0  0  0  0  0  0  0  0  0  0
  -29.6750  -18.7920   20.3920 C   0  0  0  0  0  0  0  0  0  0  0  0
  -28.4680  -18.7730   20.6380 O   0  0  0  0  0  0  0  0  0  0  0  0
  -30.6270  -14.8320   20.4610 C   0  0  0  0  0  0  0  0  0  0  0  0
  -30.4190  -12.5160   19.5680 C   0  0  0  0  0  2  0  0  0  0  0  0
  -29.5130  -12.4930   18.3180 C   0  0  0  0  0  2  0  0  0  0  0  0
  -28.0250  -12.3770   18.7170 C   0  0  0  0  0  2  0  0  0  0  0  0
  -27.6160  -13.3020   19.8960 C   0  0  0  0  0  3  0  0  0  0  0  0
  -28.6610  -13.3050   21.0320 C   0  0  0  0  0  2  0  0  0  0  0  0
  -29.9630  -13.6250   20.4340 N   0  0  0  0  0  0  0  0  0  0  0  0
  -31.8520  -14.8570   20.3460 O   0  0  0  0  0  0  0  0  0  0  0  0
  -29.1980  -16.1770   18.9660 C   0  0  0  0  0  2  0  0  0  0  0  0
  -30.4770  -17.4470   20.0030 C   0  0  0  0  0  3  0  0  0  0  0  0
  -30.3910  -17.0130   18.5190 C   0  0  0  0  0  3  0  0  0  0  0  0
  -29.9060  -16.0170   20.2570 N   0  0  0  0  0  0  0  0  0  0  0  0
  -25.2250  -13.9090   20.5800 C   0  0  0  0  0  0  0  0  0  0  0  0
  -24.1490  -13.1410   20.9220 C   0  0  0  0  0  0  0  0  0  0  0  0
  -24.6100  -11.7890   20.9100 C   0  0  0  0  0  0  0  0  0  0  0  0
  -26.2690  -13.0230   20.3720 N   0  0  0  0  0  0  0  0  0  0  0  0
  -25.9060  -11.7440   20.6370 N   0  0  0  0  0  0  0  0  0  0  0  0
  -23.8770  -10.5310   21.0860 C   0  0  0  0  0  0  0  0  0  0  0  0
  -24.2920   -9.5630   22.0260 C   0  0  0  0  0  3  0  0  0  0  0  0
  -23.5610   -8.3680   22.1920 C   0  0  0  0  0  3  0  0  0  0  0  0
  -22.4020   -8.1320   21.4160 C   0  0  0  0  0  0  0  0  0  0  0  0
  -22.0080   -9.0880   20.4630 C   0  0  0  0  0  3  0  0  0  0  0  0
  -22.7390  -10.2750   20.2950 C   0  0  0  0  0  3  0  0  0  0  0  0
  -21.6420   -6.9900   21.4910 O   0  0  0  0  0  0  0  0  0  0  0  0
  -21.5720   -6.2480   22.6430 C   0  0  0  0  0  0  0  0  0  0  0  0
  -21.1150   -6.8000   23.8590 C   0  0  0  0  0  3  0  0  0  0  0  0
  -20.9950   -5.9840   25.0010 C   0  0  0  0  0  3  0  0  0  0  0  0
  -21.3170   -4.6160   24.9260 C   0  0  0  0  0  0  0  0  0  0  0  0
  -21.7670   -4.0630   23.7140 C   0  0  0  0  0  3  0  0  0  0  0  0
  -21.8910   -4.8770   22.5750 C   0  0  0  0  0  0  0  0  0  0  0  0
  -22.3040   -4.3340   21.4040 F   0  0  0  0  0  0  0  0  0  0  0  0
  -21.1920   -3.8300   26.0210 F   0  0  0  0  0  0  0  0  0  0  0  0
  -22.7470  -13.6230   21.1560 C   0  0  0  0  0  0  0  0  0  0  0  0
  -21.9990  -12.9330   22.0100 N   0  0  0  0  0  0  0  0  0  0  0  0
  -22.3220  -14.6460   20.6190 O   0  0  0  0  0  0  0  0  0  0  0  0
  -22.3570  -12.1060   22.4660 H   0  0  0  0  0  0  0  0  0  0  0  0
  -21.0570  -13.2340   22.2140 H   0  0  0  0  0  0  0  0  0  0  0  0
  -25.3930  -15.2800   20.4040 N   0  0  0  0  0  0  0  0  0  0  0  0
  -24.6260  -15.9340   20.5240 H   0  0  0  0  0  0  0  0  0  0  0  0
  -26.2670  -15.7350   20.1750 H   0  0  0  0  0  0  0  0  0  0  0  0
  -30.1280  -17.9630   17.4090 N   0  0  0  0  0  4  0  0  0  0  0  0
  -29.3320  -18.5560   17.5600 H   0  0  0  0  0  0  0  0  0  0  0  0
  -29.9350  -17.4390   16.5710 H   0  0  0  0  0  0  0  0  0  0  0  0
  -30.9400  -18.5170   17.1990 H   0  0  0  0  0  0  0  0  0  0  0  0
  -31.4390  -21.0960   18.2060 C   0  0  0  0  0  1  0  0  0  0  0  0
  -31.6970  -20.3330   19.5290 C   0  0  0  0  0  3  0  0  0  0  0  0
  -33.6190  -19.9730   21.2100 C   0  0  0  0  0  1  0  0  0  0  0  0
  -32.9160  -20.9500   20.2550 C   0  0  0  0  0  2  0  0  0  0  0  0
  1 53  1  0
  2  3  2  0
  3  6  1  0
  3  5  1  0
  4  1  1  0
  4  2  1  0
  7  4  1  0
  8  2  1  0
 11 10  1  6
 11 12  1  0
 11  8  1  0
 11  9  1  0
 13 24  2  0
 14 12  1  0
 14 19  1  0
 15 23  1  0
 15 25  1  0
 16 22  1  0
 16 18  1  0
 17 23  1  0
 18 17  1  0
 19 18  2  0
 20 21  1  0
 20 14  2  0
 21 16  2  0
 22 15  1  0
 23 13  1  0
 25 27  2  0
 26 25  1  0
 28 26  1  0
 29 38  2  0
 29 34  1  0
 30 26  1  0
 30 34  1  0
 31 30  1  0
 32 33  1  0
 32 31  1  0
 33 29  1  0
 34 35  2  0
 35 36  1  0
 37 36  2  0
 38 37  1  0
 39 13  1  0
 39 44  1  0
 39 40  1  0
 40 43  1  1
 40 41  1  0
 42 40  1  0
 44 47  1  0
 45 49  1  0
 45 44  1  0
 46 45  2  0
 49 48  1  0
 51 52  1  0
 51 49  1  0
 51 50  1  0
 53 54  2  0
 56 61  1  0
 57 58  1  0
 57 56  1  0
 59 58  1  0
 59 70  1  0
 59 60  1  0
 61 55  1  0
 61 60  1  0
 62 55  2  0
 63 66  1  0
 64 66  1  0
 64 53  1  0
 65 95  1  0
 65 63  1  0
 65 64  1  0
 66 55  1  0
 67 68  2  0
 68 87  1  0
 69 68  1  0
 69 72  1  0
 70 67  1  0
 70 71  1  0
 71 69  2  0
 72 73  1  0
 73 74  2  0
 75 78  1  0
 75 74  1  0
 76 75  2  0
 77 76  1  0
 77 72  2  0
 78 79  1  0
 79 80  1  0
 80 81  2  0
 82 81  1  0
 82 86  1  0
 83 82  2  0
 84 79  2  0
 84 83  1  0
 85 84  1  0
 87 88  1  0
 88 91  1  0
 88 90  1  0
 89 87  2  0
 92 93  1  0
 92 67  1  0
 94 92  1  0
 95 96  1  0
 97 95  1  0
 98 95  1  0
100 99  1  0
100102  1  0
100  1  1  0
102101  1  0
M  ISO  4  11 101  12 101  55 100  66 100
M  END
>  <TORSDO>  (1) 
F 23

>  <SCORE>  (1) 
-13.261

>  <name>  (1) 
0

>  <ligand_id>  (1) 
0

>  <original_smiles>  (1) 
[H]c1c([H])c([H])c2c(c1[H])C([H])([H])C([H])([H])C([H])([H])C2([H])N([H])C(=O)C1([H])N(C(=O)C([H])(N([H])C(=O)C([H])(N([H])C([H])([H])[H])C([H])([H])[H])C(C([H])([H])[H])(C([H])([H])[H])C([H])([H])[H])C([H])([H])c2c([H])c(OC(C([H])([H])[H])(C([H])([H])[H])C([H])([H])C(N([H])[H])=[N+]([H])C([H])(C(=O)C3([H])N(C(=O)N4C([H])([H])C([H])([H])C([H])([H])C([H])(n5nc(-c6c([H])c([H])c(Oc7c([H])c([H])c(F)c([H])c7F)c([H])c6[H])c(C(=O)N([H])[H])c5N([H])[H])C4([H])[H])C([H])([H])C3([H])[N+]([H])([H])[H])C([H])(C([H])([H])[H])C([H])([H])C([H])([H])[H])c([H])c([H])c2C1([H])[H]

>  <smiles>  (1) 
[H]c1c([H])c([H])c2c(c1[H])C([H])([H])C([H])([H])C([H])([H])C2([H])N([H])C(=O)C1([H])N(C(=O)C([H])(N([H])C(=O)C([H])(N([H])C([H])([H])[H])C([H])([H])[H])C(C([H])([H])[H])(C([H])([H])[H])C([H])([H])[H])C([H])([H])c2c([H])c(OC(C([H])([H])[H])(C([H])([H])[H])C([H])([H])C(N([H])[H])=[N+]([H])C([H])(C(=O)C3([H])N(C(=O)N4C([H])([H])C([H])([H])C([H])([H])C([H])(n5nc(-c6c([H])c([H])c(Oc7c([H])c([H])c(F)c([H])c7F)c([H])c6[H])c(C(=O)N([H])[H])c5N([H])[H])C4([H])[H])C([H])([H])C3([H])[N+]([H])([H])[H])C([H])(C([H])([H])[H])C([H])([H])C([H])([H])[H])c([H])c([H])c2C1([H])[H]

$$$$
1:0:0
     RDKit          3D

 95103  0  0  1  0  0  0  0  0999 V2000
  -26.1910  -22.7170   20.6850 C   0  0  0  0  0  3  0  0  0  0  0  0
  -26.7290  -21.4670   20.3230 C   0  0  0  0  0  3  0  0  0  0  0  0
  -27.0420  -23.7830   21.0240 C   0  0  0  0  0  3  0  0  0  0  0  0
  -28.9790  -22.3340   20.6790 C   0  0  0  0  0  3  0  0  0  0  0  0
  -28.1260  -21.2610   20.3130 C   0  0  0  0  0  0  0  0  0  0  0  0
  -28.4460  -23.6100   21.0160 C   0  0  0  0  0  0  0  0  0  0  0  0
  -28.6360  -19.9550   19.8450 C   0  0  0  0  0  0  0  0  0  0  0  0
  -28.2120  -19.5090   18.6640 N   0  0  0  0  0  4  0  0  0  0  0  0
  -29.4830  -19.1870   20.5630 N   0  0  0  0  0  0  0  0  0  0  0  0
  -27.6010  -20.0970   18.1150 H   0  0  0  0  0  0  0  0  0  0  0  0
  -28.5160  -18.6370   18.2680 H   0  0  0  0  0  0  0  0  0  0  0  0
  -29.7950  -19.5770   21.4430 H   0  0  0  0  0  0  0  0  0  0  0  0
  -30.0490  -17.8650   20.1750 C   0  0  0  0  0  2  0  0  0  0  0  0
  -30.4360  -16.9720   21.3830 C   0  0  0  0  0  2  0  0  0  0  0  0
  -30.7710  -14.5940   20.5950 C   0  0  0  0  0  0  0  0  0  0  0  0
  -30.5070  -12.4590   19.3770 C   0  0  0  0  0  2  0  0  0  0  0  0
  -29.5840  -12.6770   18.1600 C   0  0  0  0  0  2  0  0  0  0  0  0
  -28.1000  -12.5410   18.5610 C   0  0  0  0  0  2  0  0  0  0  0  0
  -27.7430  -13.3600   19.8300 C   0  0  0  0  0  3  0  0  0  0  0  0
  -28.7730  -13.1000   20.9510 C   0  0  0  0  0  2  0  0  0  0  0  0
  -30.1090  -13.4180   20.4190 N   0  0  0  0  0  0  0  0  0  0  0  0
  -31.8910  -14.8140   20.1290 O   0  0  0  0  0  0  0  0  0  0  0  0
  -30.0600  -15.5610   21.2010 N   0  0  0  0  0  0  0  0  0  0  0  0
  -29.1470  -15.2920   21.5360 H   0  0  0  0  0  0  0  0  0  0  0  0
  -25.3270  -13.9750   20.4710 C   0  0  0  0  0  0  0  0  0  0  0  0
  -24.2500  -13.2050   20.8190 C   0  0  0  0  0  0  0  0  0  0  0  0
  -24.7120  -11.8530   20.8110 C   0  0  0  0  0  0  0  0  0  0  0  0
  -26.3780  -13.0920   20.2750 N   0  0  0  0  0  0  0  0  0  0  0  0
  -26.0100  -11.8120   20.5370 N   0  0  0  0  0  0  0  0  0  0  0  0
  -23.9830  -10.5910   20.9920 C   0  0  0  0  0  0  0  0  0  0  0  0
  -24.3940   -9.6300   21.9410 C   0  0  0  0  0  3  0  0  0  0  0  0
  -23.6670   -8.4320   22.1090 C   0  0  0  0  0  3  0  0  0  0  0  0
  -22.5120   -8.1890   21.3270 C   0  0  0  0  0  0  0  0  0  0  0  0
  -22.1190   -9.1390   20.3690 C   0  0  0  0  0  3  0  0  0  0  0  0
  -22.8490  -10.3280   20.1990 C   0  0  0  0  0  3  0  0  0  0  0  0
  -21.7570   -7.0430   21.4050 O   0  0  0  0  0  0  0  0  0  0  0  0
  -21.6830   -6.3060   22.5600 C   0  0  0  0  0  0  0  0  0  0  0  0
  -21.2230   -6.8660   23.7720 C   0  0  0  0  0  3  0  0  0  0  0  0
  -21.0970   -6.0570   24.9190 C   0  0  0  0  0  3  0  0  0  0  0  0
  -21.4190   -4.6880   24.8530 C   0  0  0  0  0  0  0  0  0  0  0  0
  -21.8700   -4.1270   23.6460 C   0  0  0  0  0  3  0  0  0  0  0  0
  -21.9990   -4.9340   22.5020 C   0  0  0  0  0  0  0  0  0  0  0  0
  -22.4140   -4.3850   21.3360 F   0  0  0  0  0  0  0  0  0  0  0  0
  -21.2890   -3.9080   25.9520 F   0  0  0  0  0  0  0  0  0  0  0  0
  -22.8440  -13.6820   21.0490 C   0  0  0  0  0  0  0  0  0  0  0  0
  -22.0930  -12.9930   21.9010 N   0  0  0  0  0  0  0  0  0  0  0  0
  -22.4200  -14.7020   20.5080 O   0  0  0  0  0  0  0  0  0  0  0  0
  -22.4450  -12.1660   22.3590 H   0  0  0  0  0  0  0  0  0  0  0  0
  -21.1500  -13.2990   22.0960 H   0  0  0  0  0  0  0  0  0  0  0  0
  -25.4970  -15.3450   20.2870 N   0  0  0  0  0  0  0  0  0  0  0  0
  -24.7290  -16.0020   20.3740 H   0  0  0  0  0  0  0  0  0  0  0  0
  -26.3560  -15.7800   19.9740 H   0  0  0  0  0  0  0  0  0  0  0  0
  -29.3930  -24.7620   21.3880 C   0  0  0  0  0  2  0  0  0  0  0  0
  -28.8010  -26.1960   21.5140 C   0  0  0  0  0  2  0  0  0  0  0  0
  -28.4240  -26.7480   20.2480 O   0  0  0  0  0  0  0  0  0  0  0  0
  -24.6090  -31.9780   23.2880 C   0  0  0  0  0  0  0  0  0  0  0  0
  -27.2890  -27.5230   20.2680 C   0  0  0  0  0  0  0  0  0  0  0  0
  -23.4200  -30.5590   21.6450 C   0  0  0  0  0  3  0  0  0  0  0  0
  -24.8940  -29.0180   20.2430 C   0  0  0  0  0  0  0  0  0  0  0  0
  -25.9460  -30.9270   21.4660 C   0  0  0  0  0  2  0  0  0  0  0  0
  -26.0420  -29.5480   20.8460 C   0  0  0  0  0  0  0  0  0  0  0  0
  -27.2440  -28.8030   20.8670 C   0  0  0  0  0  3  0  0  0  0  0  0
  -26.1340  -27.0140   19.6470 C   0  0  0  0  0  3  0  0  0  0  0  0
  -24.9320  -27.7470   19.6430 C   0  0  0  0  0  3  0  0  0  0  0  0
  -23.6440  -29.8690   20.2720 C   0  0  0  0  0  2  0  0  0  0  0  0
  -24.6760  -31.1700   22.1920 N   0  0  0  0  0  0  0  0  0  0  0  0
  -23.5230  -32.2500   23.8180 O   0  0  0  0  0  0  0  0  0  0  0  0
  -22.7680  -29.5410   22.6070 C   0  0  0  0  0  0  0  0  0  0  0  0
  -21.4450  -29.3520   22.4710 N   0  0  0  0  0  0  0  0  0  0  0  0
  -23.4470  -28.9250   23.4320 O   0  0  0  0  0  0  0  0  0  0  0  0
  -20.9560  -29.9000   21.7770 H   0  0  0  0  0  0  0  0  0  0  0  0
  -18.0740  -28.1500   22.9540 C   0  0  0  0  0  0  0  0  0  0  0  0
  -20.6280  -28.4150   23.2410 C   0  0  0  0  0  3  0  0  0  0  0  0
  -20.7370  -26.9810   22.6710 C   0  0  0  0  0  2  0  0  0  0  0  0
  -19.6420  -26.6540   21.6510 C   0  0  0  0  0  2  0  0  0  0  0  0
  -18.2560  -26.7990   22.2860 C   0  0  0  0  0  2  0  0  0  0  0  0
  -19.1870  -28.9160   23.3890 C   0  0  0  0  0  0  0  0  0  0  0  0
  -18.9620  -30.1820   23.9710 C   0  0  0  0  0  3  0  0  0  0  0  0
  -17.6550  -30.6820   24.1250 C   0  0  0  0  0  3  0  0  0  0  0  0
  -16.5560  -29.9130   23.7070 C   0  0  0  0  0  3  0  0  0  0  0  0
  -16.7650  -28.6490   23.1280 C   0  0  0  0  0  3  0  0  0  0  0  0
  -25.8880  -32.6180   23.9110 C   0  0  0  0  0  3  0  0  0  0  0  0
  -25.5760  -34.0200   24.2170 N   0  0  0  0  0  0  0  0  0  0  0  0
  -25.9220  -35.0610   23.4490 C   0  0  0  0  0  0  0  0  0  0  0  0
  -26.6080  -34.9440   22.4310 O   0  0  0  0  0  0  0  0  0  0  0  0
  -24.9710  -34.1860   25.0080 H   0  0  0  0  0  0  0  0  0  0  0  0
  -24.2040  -36.8530   23.0360 C   0  0  0  0  0  1  0  0  0  0  0  0
  -25.4260  -36.4550   23.8800 C   0  0  0  0  0  3  0  0  0  0  0  0
  -27.5430  -37.3470   24.7470 C   0  0  0  0  0  1  0  0  0  0  0  0
  -26.4630  -37.5060   23.7770 N   0  0  0  0  0  0  0  0  0  0  0  0
  -26.0550  -38.4280   23.9050 H   0  0  0  0  0  0  0  0  0  0  0  0
  -26.3970  -31.8640   25.2010 C   0  0  1  0  0  0  0  0  0  0  0  0
  -25.2940  -31.6310   26.2590 C   0  0  0  0  0  1  0  0  0  0  0  0
  -26.9930  -30.4860   24.8280 C   0  0  0  0  0  1  0  0  0  0  0  0
  -27.5330  -32.6730   25.8690 C   0  0  0  0  0  1  0  0  0  0  0  0
  1  3  1  0
  2  1  2  0
  4  6  1  0
  5  2  1  0
  5  4  2  0
  6  3  2  0
  6 53  1  0
  7  5  1  0
  7  9  1  0
  8  7  2  0
  9 12  1  0
 10  8  1  0
 11  8  1  0
 13  9  1  0
 13 14  1  0
 15 23  1  0
 16 21  1  0
 17 18  1  0
 17 16  1  0
 19 18  1  0
 19 28  1  0
 19 20  1  0
 21 15  1  0
 21 20  1  0
 22 15  2  0
 23 14  1  0
 23 24  1  0
 25 26  2  0
 26 45  1  0
 27 26  1  0
 27 30  1  0
 28 25  1  0
 28 29  1  0
 29 27  2  0
 30 31  1  0
 31 32  2  0
 33 36  1  0
 33 32  1  0
 34 33  2  0
 35 34  1  0
 35 30  2  0
 36 37  1  0
 37 38  1  0
 38 39  2  0
 40 39  1  0
 40 44  1  0
 41 40  2  0
 42 37  2  0
 42 41  1  0
 43 42  1  0
 45 46  1  0
 46 49  1  0
 46 48  1  0
 47 45  2  0
 50 51  1  0
 50 25  1  0
 52 50  1  0
 53 54  1  0
 55 57  1  0
 55 54  1  0
 56 67  2  0
 57 62  1  0
 58 66  1  0
 58 68  1  0
 59 65  1  0
 59 61  1  0
 60 66  1  0
 61 62  2  0
 61 60  1  0
 63 57  2  0
 64 63  1  0
 64 59  2  0
 65 58  1  0
 66 56  1  0
 68 70  2  0
 69 68  1  0
 71 69  1  0
 72 81  2  0
 72 77  1  0
 73 69  1  0
 73 77  1  0
 74 73  1  0
 75 76  1  0
 75 74  1  0
 76 72  1  0
 77 78  2  0
 78 79  1  0
 80 79  2  0
 81 80  1  0
 82 56  1  0
 82 83  1  0
 82 92  1  0
 83 86  1  0
 84 88  1  0
 84 83  1  0
 85 84  2  0
 88 87  1  0
 90 88  1  0
 90 91  1  0
 90 89  1  0
 92 95  1  1
 92 93  1  0
 94 92  1  0
M  ISO  4  15 100  23 100  54 101  55 101
M  END
>  <TORSDO>  (2) 
F 21

>  <SCORE>  (2) 
-12.894

>  <name>  (2) 
1

>  <ligand_id>  (2) 
1

>  <original_smiles>  (2) 
[H]c1c([H])c(C(N([H])[H])=[N+]([H])C([H])([H])C([H])([H])N([H])C(=O)N2C([H])([H])C([H])([H])C([H])([H])C([H])(n3nc(-c4c([H])c([H])c(Oc5c([H])c([H])c(F)c([H])c5F)c([H])c4[H])c(C(=O)N([H])[H])c3N([H])[H])C2([H])[H])c([H])c(C([H])([H])C([H])([H])Oc2c([H])c([H])c3c(c2[H])C([H])([H])N(C(=O)C([H])(N([H])C(=O)C([H])(N([H])C([H])([H])[H])C([H])([H])[H])C(C([H])([H])[H])(C([H])([H])[H])C([H])([H])[H])C([H])(C(=O)N([H])C2([H])c4c([H])c([H])c([H])c([H])c4C([H])([H])C([H])([H])C2([H])[H])C3([H])[H])c1[H]

>  <smiles>  (2) 
[H]c1c([H])c(C(N([H])[H])=[N+]([H])C([H])([H])C([H])([H])N([H])C(=O)N2C([H])([H])C([H])([H])C([H])([H])C([H])(n3nc(-c4c([H])c([H])c(Oc5c([H])c([H])c(F)c([H])c5F)c([H])c4[H])c(C(=O)N([H])[H])c3N([H])[H])C2([H])[H])c([H])c(C([H])([H])C([H])([H])Oc2c([H])c([H])c3c(c2[H])C([H])([H])N(C(=O)C([H])(N([H])C(=O)C([H])(N([H])C([H])([H])[H])C([H])([H])[H])C(C([H])([H])[H])(C([H])([H])[H])C([H])([H])[H])C([H])(C(=O)N([H])C2([H])c4c([H])c([H])c([H])c([H])c4C([H])([H])C([H])([H])C2([H])[H])C3([H])[H])c1[H]

$$$$
2:0:0
     RDKit          3D

 94102  0  0  1  0  0  0  0  0999 V2000
  -29.4290  -22.3020   19.5710 C   0  0  0  0  0  0  0  0  0  0  0  0
  -28.3570  -22.3050   18.5880 C   0  0  0  0  0  0  0  0  0  0  0  0
  -30.0590  -23.2600   20.3060 C   0  0  0  0  0  0  0  0  0  0  0  0
  -28.6810  -20.8480   18.2060 C   0  0  0  0  0  2  0  0  0  0  0  0
  -29.7370  -20.7930   19.3600 C   0  0  0  0  0  3  0  0  0  0  0  0
  -31.2610  -22.8760   21.1580 C   0  0  0  0  0  1  0  0  0  0  0  0
  -27.5170  -23.1400   18.2500 O   0  0  0  0  0  0  0  0  0  0  0  0
  -28.0730  -20.1490   21.1630 C   0  0  0  0  0  1  0  0  0  0  0  0
  -29.3860  -19.8870   20.5110 N   0  0  1  0  0  4  0  0  0  0  0  0
  -30.0540  -20.0960   21.2380 H   0  0  0  0  0  0  0  0  0  0  0  0
  -29.5890  -18.4290   20.2410 C   0  0  0  0  0  2  0  0  0  0  0  0
  -31.0740  -17.9850   20.2610 C   0  0  0  0  0  2  0  0  0  0  0  0
  -31.4000  -16.7770   21.1810 C   0  0  0  0  0  2  0  0  0  0  0  0
  -31.2820  -14.5160   20.1130 C   0  0  0  0  0  0  0  0  0  0  0  0
  -30.8990  -12.2910   19.1140 C   0  0  0  0  0  2  0  0  0  0  0  0
  -29.9320  -12.4010   17.9200 C   0  0  0  0  0  2  0  0  0  0  0  0
  -28.4670  -12.3250   18.3930 C   0  0  0  0  0  2  0  0  0  0  0  0
  -28.1720  -13.2820   19.5790 C   0  0  0  0  0  3  0  0  0  0  0  0
  -29.2430  -13.1360   20.6810 C   0  0  0  0  0  2  0  0  0  0  0  0
  -30.5640  -13.3630   20.0650 N   0  0  0  0  0  0  0  0  0  0  0  0
  -32.3520  -14.6700   19.5160 O   0  0  0  0  0  0  0  0  0  0  0  0
  -30.7380  -15.5130   20.8300 N   0  0  0  0  0  0  0  0  0  0  0  0
  -29.8580  -15.3040   21.2810 H   0  0  0  0  0  0  0  0  0  0  0  0
  -25.8410  -14.0140   20.3900 C   0  0  0  0  0  0  0  0  0  0  0  0
  -24.7450  -13.2970   20.7880 C   0  0  0  0  0  0  0  0  0  0  0  0
  -25.1230  -11.9210   20.7140 C   0  0  0  0  0  0  0  0  0  0  0  0
  -26.8230  -13.0780   20.1040 N   0  0  0  0  0  0  0  0  0  0  0  0
  -26.3960  -11.8140   20.3550 N   0  0  0  0  0  0  0  0  0  0  0  0
  -24.3330  -10.7000   20.9120 C   0  0  0  0  0  0  0  0  0  0  0  0
  -24.6900   -9.7370   21.8810 C   0  0  0  0  0  3  0  0  0  0  0  0
  -23.9030   -8.5790   22.0630 C   0  0  0  0  0  3  0  0  0  0  0  0
  -22.7450   -8.3770   21.2760 C   0  0  0  0  0  0  0  0  0  0  0  0
  -22.4060   -9.3280   20.2960 C   0  0  0  0  0  3  0  0  0  0  0  0
  -23.1930  -10.4770   20.1120 C   0  0  0  0  0  3  0  0  0  0  0  0
  -21.9350   -7.2700   21.3650 O   0  0  0  0  0  0  0  0  0  0  0  0
  -21.7590   -6.6010   22.5490 C   0  0  0  0  0  0  0  0  0  0  0  0
  -21.1960   -7.2280   23.6820 C   0  0  0  0  0  3  0  0  0  0  0  0
  -20.9680   -6.4850   24.8570 C   0  0  0  0  0  3  0  0  0  0  0  0
  -21.2940   -5.1150   24.8990 C   0  0  0  0  0  0  0  0  0  0  0  0
  -21.8490   -4.4880   23.7700 C   0  0  0  0  0  3  0  0  0  0  0  0
  -22.0780   -5.2290   22.5970 C   0  0  0  0  0  0  0  0  0  0  0  0
  -22.5940   -4.6150   21.5060 F   0  0  0  0  0  0  0  0  0  0  0  0
  -21.0680   -4.3990   26.0260 F   0  0  0  0  0  0  0  0  0  0  0  0
  -23.3890  -13.8490   21.1260 C   0  0  0  0  0  0  0  0  0  0  0  0
  -22.6540  -13.1750   22.0030 N   0  0  0  0  0  0  0  0  0  0  0  0
  -22.9940  -14.9110   20.6480 O   0  0  0  0  0  0  0  0  0  0  0  0
  -22.9860  -12.3140   22.4110 H   0  0  0  0  0  0  0  0  0  0  0  0
  -21.7450  -13.5260   22.2720 H   0  0  0  0  0  0  0  0  0  0  0  0
  -26.0810  -15.3760   20.2290 N   0  0  0  0  0  0  0  0  0  0  0  0
  -25.3550  -16.0710   20.3650 H   0  0  0  0  0  0  0  0  0  0  0  0
  -26.9360  -15.7600   19.8480 H   0  0  0  0  0  0  0  0  0  0  0  0
  -29.7850  -24.7750   20.4250 C   0  0  0  0  0  2  0  0  0  0  0  0
  -28.4820  -25.3980   19.8900 C   0  0  0  0  0  2  0  0  0  0  0  0
  -28.5000  -26.8050   20.1730 O   0  0  0  0  0  0  0  0  0  0  0  0
  -24.5960  -31.9040   23.2230 C   0  0  0  0  0  0  0  0  0  0  0  0
  -27.3090  -27.5020   20.1380 C   0  0  0  0  0  0  0  0  0  0  0  0
  -23.4210  -30.5120   21.5520 C   0  0  0  0  0  3  0  0  0  0  0  0
  -24.9000  -28.9930   20.1350 C   0  0  0  0  0  0  0  0  0  0  0  0
  -25.9460  -30.8830   21.3930 C   0  0  0  0  0  2  0  0  0  0  0  0
  -26.0460  -29.5200   20.7410 C   0  0  0  0  0  0  0  0  0  0  0  0
  -27.2530  -28.7810   20.7380 C   0  0  0  0  0  3  0  0  0  0  0  0
  -26.1420  -26.9910   19.5240 C   0  0  0  0  0  3  0  0  0  0  0  0
  -24.9420  -27.7270   19.5250 C   0  0  0  0  0  3  0  0  0  0  0  0
  -23.6520  -29.8460   20.1690 C   0  0  0  0  0  2  0  0  0  0  0  0
  -24.6720  -31.1140   22.1160 N   0  0  0  0  0  0  0  0  0  0  0  0
  -23.5060  -32.1650   23.7490 O   0  0  0  0  0  0  0  0  0  0  0  0
  -22.7590  -29.4790   22.4920 C   0  0  0  0  0  0  0  0  0  0  0  0
  -21.4390  -29.2850   22.3360 N   0  0  0  0  0  0  0  0  0  0  0  0
  -23.4310  -28.8540   23.3170 O   0  0  0  0  0  0  0  0  0  0  0  0
  -20.9600  -29.8410   21.6430 H   0  0  0  0  0  0  0  0  0  0  0  0
  -18.0630  -28.0750   22.7700 C   0  0  0  0  0  0  0  0  0  0  0  0
  -20.6160  -28.3360   23.0830 C   0  0  0  0  0  3  0  0  0  0  0  0
  -20.7320  -26.9120   22.4900 C   0  0  0  0  0  2  0  0  0  0  0  0
  -19.6450  -26.5990   21.4570 C   0  0  0  0  0  2  0  0  0  0  0  0
  -18.2530  -26.7340   22.0820 C   0  0  0  0  0  2  0  0  0  0  0  0
  -19.1740  -28.8340   23.2260 C   0  0  0  0  0  0  0  0  0  0  0  0
  -18.9440  -30.0920   23.8250 C   0  0  0  0  0  3  0  0  0  0  0  0
  -17.6360  -30.5880   23.9790 C   0  0  0  0  0  3  0  0  0  0  0  0
  -16.5390  -29.8250   23.5390 C   0  0  0  0  0  3  0  0  0  0  0  0
  -16.7540  -28.5710   22.9410 C   0  0  0  0  0  3  0  0  0  0  0  0
  -25.8700  -32.5340   23.8680 C   0  0  0  0  0  3  0  0  0  0  0  0
  -25.5580  -33.9320   24.1910 N   0  0  0  0  0  0  0  0  0  0  0  0
  -25.9160  -34.9850   23.4440 C   0  0  0  0  0  0  0  0  0  0  0  0
  -26.6190  -34.8810   22.4350 O   0  0  0  0  0  0  0  0  0  0  0  0
  -24.9430  -34.0870   24.9780 H   0  0  0  0  0  0  0  0  0  0  0  0
  -24.2210  -36.7900   23.0200 C   0  0  0  0  0  1  0  0  0  0  0  0
  -25.4180  -36.3720   23.8880 C   0  0  0  0  0  3  0  0  0  0  0  0
  -27.5090  -37.2400   24.8370 C   0  0  0  0  0  1  0  0  0  0  0  0
  -26.4620  -37.4190   23.8340 N   0  0  0  0  0  0  0  0  0  0  0  0
  -26.0540  -38.3400   23.9640 H   0  0  0  0  0  0  0  0  0  0  0  0
  -26.3630  -31.7620   25.1530 C   0  0  1  0  0  0  0  0  0  0  0  0
  -25.2490  -31.5120   26.1950 C   0  0  0  0  0  1  0  0  0  0  0  0
  -26.9650  -30.3900   24.7650 C   0  0  0  0  0  1  0  0  0  0  0  0
  -27.4930  -32.5620   25.8410 C   0  0  0  0  0  1  0  0  0  0  0  0
  1  3  2  0
  2  1  1  0
  3 52  1  0
  3  6  1  0
  4  2  1  0
  4  5  1  0
  5  1  1  0
  5  9  1  0
  7  2  2  0
  9  8  1  0
  9 10  1  1
 11 12  1  0
 11  9  1  0
 12 13  1  0
 14 22  1  0
 15 20  1  0
 16 17  1  0
 16 15  1  0
 18 17  1  0
 18 27  1  0
 18 19  1  0
 20 14  1  0
 20 19  1  0
 21 14  2  0
 22 13  1  0
 22 23  1  0
 24 25  2  0
 25 44  1  0
 26 25  1  0
 26 29  1  0
 27 28  1  0
 27 24  1  0
 28 26  2  0
 29 30  1  0
 30 31  2  0
 32 35  1  0
 32 31  1  0
 33 32  2  0
 34 33  1  0
 34 29  2  0
 35 36  1  0
 36 41  2  0
 36 37  1  0
 37 38  2  0
 38 39  1  0
 39 43  1  0
 40 39  2  0
 41 40  1  0
 42 41  1  0
 44 45  1  0
 45 48  1  0
 45 47  1  0
 46 44  2  0
 49 50  1  0
 49 24  1  0
 51 49  1  0
 53 54  1  0
 53 52  1  0
 55 66  2  0
 56 54  1  0
 56 61  1  0
 57 65  1  0
 57 67  1  0
 58 64  1  0
 58 60  1  0
 59 65  1  0
 60 59  1  0
 61 60  2  0
 62 63  1  0
 62 56  2  0
 63 58  2  0
 64 57  1  0
 65 55  1  0
 67 69  2  0
 68 67  1  0
 70 68  1  0
 71 80  2  0
 71 76  1  0
 72 68  1  0
 72 76  1  0
 73 72  1  0
 74 75  1  0
 74 73  1  0
 75 71  1  0
 76 77  2  0
 77 78  1  0
 79 78  2  0
 80 79  1  0
 81 55  1  0
 81 82  1  0
 81 91  1  0
 82 85  1  0
 83 87  1  0
 83 82  1  0
 84 83  2  0
 87 86  1  0
 89 87  1  0
 89 90  1  0
 89 88  1  0
 91 94  1  1
 91 92  1  0
 93 91  1  0
M  ISO  4  14 100  22 100  53 101  54 101
M  END
>  <TORSDO>  (3) 
F 22

>  <SCORE>  (3) 
-12.305

>  <name>  (3) 
2

>  <ligand_id>  (3) 
2

>  <original_smiles>  (3) 
[H]c1c([H])c([H])c2c(c1[H])C([H])([H])C([H])([H])C([H])([H])C2([H])N([H])C(=O)C1([H])N(C(=O)C([H])(N([H])C(=O)C([H])(N([H])C([H])([H])[H])C([H])([H])[H])C(C([H])([H])[H])(C([H])([H])[H])C([H])([H])[H])C([H])([H])c2c([H])c(OC([H])([H])C([H])([H])C(=C3C(=O)C([H])([H])C3([H])[N+]([H])(C([H])([H])[H])C([H])([H])C([H])([H])C([H])([H])N([H])C(=O)N3C([H])([H])C([H])([H])C([H])([H])C([H])(n4nc(-c5c([H])c([H])c(Oc6c([H])c([H])c(F)c([H])c6F)c([H])c5[H])c(C(=O)N([H])[H])c4N([H])[H])C3([H])[H])C([H])([H])[H])c([H])c([H])c2C1([H])[H]

>  <smiles>  (3) 
[H]c1c([H])c([H])c2c(c1[H])C([H])([H])C([H])([H])C([H])([H])C2([H])N([H])C(=O)C1([H])N(C(=O)C([H])(N([H])C(=O)C([H])(N([H])C([H])([H])[H])C([H])([H])[H])C(C([H])([H])[H])(C([H])([H])[H])C([H])([H])[H])C([H])([H])c2c([H])c(OC([H])([H])C([H])([H])C(=C3C(=O)C([H])([H])C3([H])[N+]([H])(C([H])([H])[H])C([H])([H])C([H])([H])C([H])([H])N([H])C(=O)N3C([H])([H])C([H])([H])C([H])([H])C([H])(n4nc(-c5c([H])c([H])c(Oc6c([H])c([H])c(F)c([H])c6F)c([H])c5[H])c(C(=O)N([H])[H])c4N([H])[H])C3([H])[H])C([H])([H])[H])c([H])c([H])c2C1([H])[H]

$$$$
3:0:0
     RDKit          3D

 95103  0  0  1  0  0  0  0  0999 V2000
  -28.5590  -22.0500   20.0780 C   0  0  0  0  0  0  0  0  0  0  0  0
  -27.3340  -21.9020   19.9870 O   0  0  0  0  0  0  0  0  0  0  0  0
  -30.6140  -19.7340   22.2690 C   0  0  0  0  0  3  0  0  0  0  0  0
  -29.8780  -20.8440   21.8280 C   0  0  0  0  0  3  0  0  0  0  0  0
  -30.8610  -18.6920   21.3620 C   0  0  0  0  0  3  0  0  0  0  0  0
  -29.4270  -20.8940   20.4910 C   0  0  0  0  0  0  0  0  0  0  0  0
  -30.3450  -18.7780   20.0570 C   0  0  0  0  0  0  0  0  0  0  0  0
  -29.6440  -19.8580   19.6300 N   0  0  0  0  0  0  0  0  0  0  0  0
  -30.5990  -17.6470   19.0540 C   0  0  0  0  0  2  0  0  0  0  0  0
  -30.1760  -16.2310   19.5400 C   0  0  0  0  0  2  0  0  0  0  0  0
  -31.6430  -14.2480   19.1200 C   0  0  0  0  0  0  0  0  0  0  0  0
  -31.3490  -11.8050   18.9000 C   0  0  0  0  0  2  0  0  0  0  0  0
  -30.3370  -11.4400   17.7990 C   0  0  0  0  0  2  0  0  0  0  0  0
  -28.9020  -11.4410   18.3570 C   0  0  0  0  0  2  0  0  0  0  0  0
  -28.5780  -12.7330   19.1520 C   0  0  0  0  0  3  0  0  0  0  0  0
  -29.6920  -13.0360   20.1780 C   0  0  0  0  0  2  0  0  0  0  0  0
  -30.9760  -13.1140   19.4620 N   0  0  0  0  0  0  0  0  0  0  0  0
  -32.6160  -14.2530   18.3670 O   0  0  0  0  0  0  0  0  0  0  0  0
  -31.3370  -15.3620   19.8050 N   0  0  0  0  0  0  0  0  0  0  0  0
  -32.1680  -15.9160   19.9610 H   0  0  0  0  0  0  0  0  0  0  0  0
  -26.4240  -13.6720   20.2070 C   0  0  0  0  0  0  0  0  0  0  0  0
  -25.2940  -13.0600   20.6780 C   0  0  0  0  0  0  0  0  0  0  0  0
  -25.5100  -11.6580   20.5210 C   0  0  0  0  0  0  0  0  0  0  0  0
  -27.2670  -12.6520   19.7950 N   0  0  0  0  0  0  0  0  0  0  0  0
  -26.7270  -11.4300   20.0400 N   0  0  0  0  0  0  0  0  0  0  0  0
  -24.6100  -10.5190   20.7460 C   0  0  0  0  0  0  0  0  0  0  0  0
  -24.8990   -9.5280   21.7080 C   0  0  0  0  0  3  0  0  0  0  0  0
  -24.0090   -8.4540   21.9190 C   0  0  0  0  0  3  0  0  0  0  0  0
  -22.8120   -8.3650   21.1700 C   0  0  0  0  0  0  0  0  0  0  0  0
  -22.5400   -9.3430   20.1960 C   0  0  0  0  0  3  0  0  0  0  0  0
  -23.4300  -10.4080   19.9840 C   0  0  0  0  0  3  0  0  0  0  0  0
  -21.9020   -7.3430   21.2880 O   0  0  0  0  0  0  0  0  0  0  0  0
  -21.6450   -6.7440   22.4950 C   0  0  0  0  0  0  0  0  0  0  0  0
  -21.1780   -7.4780   23.6080 C   0  0  0  0  0  3  0  0  0  0  0  0
  -20.8620   -6.8120   24.8080 C   0  0  0  0  0  3  0  0  0  0  0  0
  -21.0030   -5.4130   24.8950 C   0  0  0  0  0  0  0  0  0  0  0  0
  -21.4630   -4.6810   23.7870 C   0  0  0  0  0  3  0  0  0  0  0  0
  -21.7810   -5.3440   22.5900 C   0  0  0  0  0  0  0  0  0  0  0  0
  -22.2030   -4.6320   21.5170 F   0  0  0  0  0  0  0  0  0  0  0  0
  -20.6930   -4.7700   26.0440 F   0  0  0  0  0  0  0  0  0  0  0  0
  -24.0440  -13.7380   21.1600 C   0  0  0  0  0  0  0  0  0  0  0  0
  -23.3460  -13.1290   22.1140 N   0  0  0  0  0  0  0  0  0  0  0  0
  -23.7030  -14.8380   20.7250 O   0  0  0  0  0  0  0  0  0  0  0  0
  -23.6370  -12.2360   22.4810 H   0  0  0  0  0  0  0  0  0  0  0  0
  -22.5120  -13.5620   22.4830 H   0  0  0  0  0  0  0  0  0  0  0  0
  -26.7990  -15.0050   20.0710 N   0  0  0  0  0  0  0  0  0  0  0  0
  -26.1770  -15.7710   20.3070 H   0  0  0  0  0  0  0  0  0  0  0  0
  -27.6660  -15.3170   19.6520 H   0  0  0  0  0  0  0  0  0  0  0  0
  -29.2160  -23.4190   19.8060 C   0  0  0  0  0  0  0  0  0  0  0  0
  -30.4300  -23.7210   20.0480 N   0  0  0  0  0  0  0  0  0  0  0  0
  -30.9440  -22.9440   20.4500 H   0  0  0  0  0  0  0  0  0  0  0  0
  -28.3860  -24.3960   17.6170 C   0  0  0  0  0  1  0  0  0  0  0  0
  -28.3040  -24.4950   19.1540 C   0  0  0  0  0  3  0  0  0  0  0  0
  -28.5920  -25.9440   19.6480 C   0  0  0  0  0  2  0  0  0  0  0  0
  -28.1680  -26.9760   18.7400 O   0  0  0  0  0  0  0  0  0  0  0  0
  -24.5620  -31.4810   22.9400 C   0  0  0  0  0  0  0  0  0  0  0  0
  -26.9800  -27.6090   19.0260 C   0  0  0  0  0  0  0  0  0  0  0  0
  -23.2180  -30.2390   21.2740 C   0  0  0  0  0  3  0  0  0  0  0  0
  -24.5470  -28.9620   19.5110 C   0  0  0  0  0  0  0  0  0  0  0  0
  -25.6840  -30.7510   20.8390 C   0  0  0  0  0  2  0  0  0  0  0  0
  -25.7460  -29.4730   20.0250 C   0  0  0  0  0  0  0  0  0  0  0  0
  -26.9660  -28.8050   19.7810 C   0  0  0  0  0  3  0  0  0  0  0  0
  -25.7690  -27.1090   18.5060 C   0  0  0  0  0  3  0  0  0  0  0  0
  -24.5530  -27.7780   18.7500 C   0  0  0  0  0  3  0  0  0  0  0  0
  -23.2860  -29.7430   19.8040 C   0  0  0  0  0  2  0  0  0  0  0  0
  -24.5120  -30.8330   21.7420 N   0  0  0  0  0  0  0  0  0  0  0  0
  -23.5440  -31.6260   23.6330 O   0  0  0  0  0  0  0  0  0  0  0  0
  -22.7210  -29.0760   22.1640 C   0  0  0  0  0  0  0  0  0  0  0  0
  -21.4200  -28.7580   22.0660 N   0  0  0  0  0  0  0  0  0  0  0  0
  -23.5040  -28.4650   22.8970 O   0  0  0  0  0  0  0  0  0  0  0  0
  -20.8430  -29.3080   21.4460 H   0  0  0  0  0  0  0  0  0  0  0  0
  -18.2600  -27.0490   22.4480 C   0  0  0  0  0  0  0  0  0  0  0  0
  -20.7500  -27.6690   22.7740 C   0  0  0  0  0  3  0  0  0  0  0  0
  -21.0690  -26.3010   22.1270 C   0  0  0  0  0  2  0  0  0  0  0  0
  -20.0350  -25.8710   21.0820 C   0  0  0  0  0  2  0  0  0  0  0  0
  -18.6430  -25.7790   21.7100 C   0  0  0  0  0  2  0  0  0  0  0  0
  -19.2500  -27.9430   22.9340 C   0  0  0  0  0  0  0  0  0  0  0  0
  -18.8440  -29.1280   23.5830 C   0  0  0  0  0  3  0  0  0  0  0  0
  -17.4780  -29.4240   23.7550 C   0  0  0  0  0  3  0  0  0  0  0  0
  -16.5030  -28.5290   23.2840 C   0  0  0  0  0  3  0  0  0  0  0  0
  -16.8950  -27.3440   22.6350 C   0  0  0  0  0  3  0  0  0  0  0  0
  -25.8900  -32.0920   23.4860 C   0  0  0  0  0  3  0  0  0  0  0  0
  -25.5780  -33.4270   24.0130 N   0  0  0  0  0  0  0  0  0  0  0  0
  -25.8360  -34.5750   23.3730 C   0  0  0  0  0  0  0  0  0  0  0  0
  -26.4350  -34.6230   22.2950 O   0  0  0  0  0  0  0  0  0  0  0  0
  -25.0360  -33.4600   24.8640 H   0  0  0  0  0  0  0  0  0  0  0  0
  -24.0530  -36.3500   23.3640 C   0  0  0  0  0  1  0  0  0  0  0  0
  -25.3540  -35.8800   24.0350 C   0  0  0  0  0  3  0  0  0  0  0  0
  -27.5210  -36.7140   24.8350 C   0  0  0  0  0  1  0  0  0  0  0  0
  -26.3550  -36.9680   23.9920 N   0  0  0  0  0  0  0  0  0  0  0  0
  -25.9410  -37.8500   24.2810 H   0  0  0  0  0  0  0  0  0  0  0  0
  -26.5770  -31.2020   24.5920 C   0  0  1  0  0  0  0  0  0  0  0  0
  -25.6230  -30.7860   25.7370 C   0  0  0  0  0  1  0  0  0  0  0  0
  -27.1590  -29.9110   23.9690 C   0  0  0  0  0  1  0  0  0  0  0  0
  -27.7660  -31.9680   25.2170 C   0  0  0  0  0  1  0  0  0  0  0  0
  1  6  1  0
  2  1  2  0
  4  3  1  0
  5  3  2  0
  6  4  2  0
  7  5  1  0
  8  7  2  0
  8  6  1  0
  9 10  1  0
  9  7  1  0
 10 19  1  0
 11 17  1  0
 11 19  1  0
 12 17  1  0
 13 14  1  0
 13 12  1  0
 15 14  1  0
 15 24  1  0
 15 16  1  0
 17 16  1  0
 18 11  2  0
 19 20  1  0
 21 22  2  0
 22 41  1  0
 23 22  1  0
 23 26  1  0
 24 25  1  0
 24 21  1  0
 25 23  2  0
 26 27  1  0
 27 28  2  0
 29 32  1  0
 29 28  1  0
 30 29  2  0
 31 30  1  0
 31 26  2  0
 32 33  1  0
 33 38  2  0
 33 34  1  0
 34 35  2  0
 35 36  1  0
 36 40  1  0
 37 36  2  0
 38 37  1  0
 39 38  1  0
 41 42  1  0
 42 44  1  0
 42 45  1  0
 43 41  2  0
 46 21  1  0
 46 47  1  0
 48 46  1  0
 49 50  2  0
 49  1  1  0
 50 51  1  0
 53 52  1  0
 53 54  1  0
 53 49  1  0
 55 57  1  0
 55 54  1  0
 56 67  2  0
 57 62  1  0
 58 66  1  0
 58 68  1  0
 59 65  1  0
 59 61  1  0
 60 66  1  0
 61 60  1  0
 62 61  2  0
 63 64  1  0
 63 57  2  0
 64 59  2  0
 65 58  1  0
 66 56  1  0
 68 70  2  0
 69 68  1  0
 71 69  1  0
 72 81  2  0
 72 77  1  0
 73 69  1  0
 73 77  1  0
 74 73  1  0
 75 76  1  0
 75 74  1  0
 76 72  1  0
 77 78  2  0
 78 79  1  0
 80 79  2  0
 81 80  1  0
 82 56  1  0
 82 83  1  0
 82 92  1  0
 83 86  1  0
 84 83  1  0
 84 88  1  0
 85 84  2  0
 88 87  1  0
 90 88  1  0
 90 91  1  0
 90 89  1  0
 92 95  1  1
 92 93  1  0
 94 92  1  0
M  ISO  4  11 100  19 100  54 101  55 101
M  END
>  <TORSDO>  (4) 
F 22

>  <SCORE>  (4) 
-10.428

>  <name>  (4) 
3

>  <ligand_id>  (4) 
3

>  <original_smiles>  (4) 
[H]N=C(C(=O)c1nc(C([H])([H])C([H])([H])N([H])C(=O)N2C([H])([H])C([H])([H])C([H])([H])C([H])(n3nc(-c4c([H])c([H])c(Oc5c([H])c([H])c(F)c([H])c5F)c([H])c4[H])c(C(=O)N([H])[H])c3N([H])[H])C2([H])[H])c([H])c([H])c1[H])C([H])(C([H])([H])[H])C([H])([H])Oc1c([H])c([H])c2c(c1[H])C([H])([H])N(C(=O)C([H])(N([H])C(=O)C([H])(N([H])C([H])([H])[H])C([H])([H])[H])C(C([H])([H])[H])(C([H])([H])[H])C([H])([H])[H])C([H])(C(=O)N([H])C1([H])c3c([H])c([H])c([H])c([H])c3C([H])([H])C([H])([H])C1([H])[H])C2([H])[H]

>  <smiles>  (4) 
[H]N=C(C(=O)c1nc(C([H])([H])C([H])([H])N([H])C(=O)N2C([H])([H])C([H])([H])C([H])([H])C([H])(n3nc(-c4c([H])c([H])c(Oc5c([H])c([H])c(F)c([H])c5F)c([H])c4[H])c(C(=O)N([H])[H])c3N([H])[H])C2([H])[H])c([H])c([H])c1[H])C([H])(C([H])([H])[H])C([H])([H])Oc1c([H])c([H])c2c(c1[H])C([H])([H])N(C(=O)C([H])(N([H])C(=O)C([H])(N([H])C([H])([H])[H])C([H])([H])[H])C(C([H])([H])[H])(C([H])([H])[H])C([H])([H])[H])C([H])(C(=O)N([H])C1([H])c3c([H])c([H])c([H])c([H])c3C([H])([H])C([H])([H])C1([H])[H])C2([H])[H]

$$$$
4:0:0
     RDKit          3D

 95103  0  0  1  0  0  0  0  0999 V2000
  -27.9000  -22.6260   19.8230 C   0  0  0  0  0  3  0  0  0  0  0  0
  -29.4730  -22.5880   17.9610 C   0  0  0  0  0  3  0  0  0  0  0  0
  -27.9100  -24.0330   19.8020 C   0  0  0  0  0  3  0  0  0  0  0  0
  -29.4740  -23.9940   17.9340 C   0  0  0  0  0  3  0  0  0  0  0  0
  -28.6890  -21.8970   18.9080 C   0  0  0  0  0  0  0  0  0  0  0  0
  -28.7020  -24.7250   18.8600 C   0  0  0  0  0  0  0  0  0  0  0  0
  -28.7220  -20.3800   18.9520 C   0  0  0  0  0  2  0  0  0  0  0  0
  -29.1700  -19.8390   20.3230 C   0  0  0  0  0  2  0  0  0  0  0  0
  -29.7110  -18.4150   20.2300 C   0  0  0  0  0  0  0  0  0  0  0  0
  -30.9100  -18.2060   20.7820 N   0  0  0  0  0  0  0  0  0  0  0  0
  -29.0860  -17.5440   19.6220 O   0  0  0  0  0  0  0  0  0  0  0  0
  -31.3310  -18.9790   21.2810 H   0  0  0  0  0  0  0  0  0  0  0  0
  -31.7620  -17.0530   20.5350 C   0  0  0  0  0  2  0  0  0  0  0  0
  -30.9340  -16.2020   22.8370 C   0  0  0  0  0  1  0  0  0  0  0  0
  -31.4620  -15.8310   21.4410 C   0  0  0  0  0  3  0  0  0  0  0  0
  -30.8450  -14.0720   19.7570 C   0  0  0  0  0  0  0  0  0  0  0  0
  -30.3040  -11.9560   18.6080 C   0  0  0  0  0  2  0  0  0  0  0  0
  -29.2530  -12.1440   17.5020 C   0  0  0  0  0  2  0  0  0  0  0  0
  -27.8320  -12.0420   18.0870 C   0  0  0  0  0  2  0  0  0  0  0  0
  -27.6380  -12.9430   19.3340 C   0  0  0  0  0  3  0  0  0  0  0  0
  -28.7870  -12.7340   20.3450 C   0  0  0  0  0  2  0  0  0  0  0  0
  -30.0650  -12.9690   19.6480 N   0  0  0  0  0  0  0  0  0  0  0  0
  -31.7940  -14.3030   19.0020 O   0  0  0  0  0  0  0  0  0  0  0  0
  -30.5860  -14.8330   20.8280 N   0  0  0  0  0  0  0  0  0  0  0  0
  -29.7650  -14.5740   21.3530 H   0  0  0  0  0  0  0  0  0  0  0  0
  -25.3680  -13.6400   20.3300 C   0  0  0  0  0  0  0  0  0  0  0  0
  -24.3090  -12.9060   20.7940 C   0  0  0  0  0  0  0  0  0  0  0  0
  -24.6920  -11.5370   20.6660 C   0  0  0  0  0  0  0  0  0  0  0  0
  -26.3340  -12.7180   19.9540 N   0  0  0  0  0  0  0  0  0  0  0  0
  -25.9340  -11.4450   20.2080 N   0  0  0  0  0  0  0  0  0  0  0  0
  -23.9280  -10.3040   20.8970 C   0  0  0  0  0  0  0  0  0  0  0  0
  -24.3850   -9.3070   21.7870 C   0  0  0  0  0  3  0  0  0  0  0  0
  -23.6220   -8.1400   22.0070 C   0  0  0  0  0  3  0  0  0  0  0  0
  -22.3890   -7.9610   21.3360 C   0  0  0  0  0  0  0  0  0  0  0  0
  -21.9490   -8.9470   20.4350 C   0  0  0  0  0  3  0  0  0  0  0  0
  -22.7120  -10.1060   20.2140 C   0  0  0  0  0  3  0  0  0  0  0  0
  -21.5930   -6.8480   21.4670 O   0  0  0  0  0  0  0  0  0  0  0  0
  -21.5640   -6.1170   22.6270 C   0  0  0  0  0  0  0  0  0  0  0  0
  -21.2160   -6.6990   23.8650 C   0  0  0  0  0  3  0  0  0  0  0  0
  -21.1310   -5.8960   25.0210 C   0  0  0  0  0  3  0  0  0  0  0  0
  -21.3840   -4.5130   24.9390 C   0  0  0  0  0  0  0  0  0  0  0  0
  -21.7250   -3.9310   23.7060 C   0  0  0  0  0  3  0  0  0  0  0  0
  -21.8120   -4.7310   22.5520 C   0  0  0  0  0  0  0  0  0  0  0  0
  -22.1210   -4.1630   21.3620 F   0  0  0  0  0  0  0  0  0  0  0  0
  -21.2940   -3.7410   26.0470 F   0  0  0  0  0  0  0  0  0  0  0  0
  -22.9800  -13.4390   21.2420 C   0  0  0  0  0  0  0  0  0  0  0  0
  -22.3270  -12.7540   22.1750 N   0  0  0  0  0  0  0  0  0  0  0  0
  -22.5340  -14.4980   20.8020 O   0  0  0  0  0  0  0  0  0  0  0  0
  -22.7040  -11.8970   22.5500 H   0  0  0  0  0  0  0  0  0  0  0  0
  -21.4380  -13.0920   22.5170 H   0  0  0  0  0  0  0  0  0  0  0  0
  -25.5840  -15.0060   20.1810 N   0  0  0  0  0  0  0  0  0  0  0  0
  -24.8730  -15.6930   20.4060 H   0  0  0  0  0  0  0  0  0  0  0  0
  -26.4270  -15.4180   19.7960 H   0  0  0  0  0  0  0  0  0  0  0  0
  -28.7230  -26.2420   18.8090 C   0  0  0  0  0  2  0  0  0  0  0  0
  -28.3410  -26.8500   20.0390 O   0  0  0  0  0  0  0  0  0  0  0  0
  -24.5460  -31.9330   23.2070 C   0  0  0  0  0  0  0  0  0  0  0  0
  -27.1420  -27.5200   20.0670 C   0  0  0  0  0  0  0  0  0  0  0  0
  -23.3090  -30.5400   21.5750 C   0  0  0  0  0  3  0  0  0  0  0  0
  -24.7390  -28.9940   20.1350 C   0  0  0  0  0  0  0  0  0  0  0  0
  -25.8300  -30.8900   21.3490 C   0  0  0  0  0  2  0  0  0  0  0  0
  -25.8990  -29.5200   20.7140 C   0  0  0  0  0  0  0  0  0  0  0  0
  -27.0980  -28.7810   20.6940 C   0  0  0  0  0  3  0  0  0  0  0  0
  -25.9610  -26.9920   19.4970 C   0  0  0  0  0  3  0  0  0  0  0  0
  -24.7590  -27.7240   19.5340 C   0  0  0  0  0  3  0  0  0  0  0  0
  -23.4980  -29.8560   20.1940 C   0  0  0  0  0  2  0  0  0  0  0  0
  -24.5800  -31.1360   22.1030 N   0  0  0  0  0  0  0  0  0  0  0  0
  -23.4740  -32.2110   23.7620 O   0  0  0  0  0  0  0  0  0  0  0  0
  -22.6660  -29.5210   22.5420 C   0  0  0  0  0  0  0  0  0  0  0  0
  -21.3460  -29.3180   22.4040 N   0  0  0  0  0  0  0  0  0  0  0  0
  -23.3520  -28.9150   23.3700 O   0  0  0  0  0  0  0  0  0  0  0  0
  -20.8540  -29.8610   21.7090 H   0  0  0  0  0  0  0  0  0  0  0  0
  -17.9940  -28.0530   22.8600 C   0  0  0  0  0  0  0  0  0  0  0  0
  -20.5360  -28.3810   23.1810 C   0  0  0  0  0  3  0  0  0  0  0  0
  -20.6860  -26.9390   22.6420 C   0  0  0  0  0  2  0  0  0  0  0  0
  -19.6160  -26.5650   21.6120 C   0  0  0  0  0  2  0  0  0  0  0  0
  -18.2160  -26.6930   22.2210 C   0  0  0  0  0  2  0  0  0  0  0  0
  -19.0840  -28.8520   23.2940 C   0  0  0  0  0  0  0  0  0  0  0  0
  -18.8250  -30.1240   23.8500 C   0  0  0  0  0  3  0  0  0  0  0  0
  -17.5060  -30.6000   23.9760 C   0  0  0  0  0  3  0  0  0  0  0  0
  -16.4300  -29.8000   23.5540 C   0  0  0  0  0  3  0  0  0  0  0  0
  -16.6740  -28.5290   23.0030 C   0  0  0  0  0  3  0  0  0  0  0  0
  -25.8450  -32.5530   23.8110 C   0  0  0  0  0  3  0  0  0  0  0  0
  -25.5510  -33.9510   24.1520 N   0  0  0  0  0  0  0  0  0  0  0  0
  -25.8680  -35.0030   23.3860 C   0  0  0  0  0  0  0  0  0  0  0  0
  -26.5130  -34.9000   22.3380 O   0  0  0  0  0  0  0  0  0  0  0  0
  -24.9800  -34.1080   24.9700 H   0  0  0  0  0  0  0  0  0  0  0  0
  -24.1370  -36.8000   23.0690 C   0  0  0  0  0  1  0  0  0  0  0  0
  -25.3940  -36.3910   23.8550 C   0  0  0  0  0  3  0  0  0  0  0  0
  -27.5470  -37.2650   24.6470 C   0  0  0  0  0  1  0  0  0  0  0  0
  -26.4270  -37.4430   23.7270 N   0  0  0  0  0  0  0  0  0  0  0  0
  -26.0260  -38.3620   23.8900 H   0  0  0  0  0  0  0  0  0  0  0  0
  -26.3840  -31.7700   25.0710 C   0  0  1  0  0  0  0  0  0  0  0  0
  -25.3090  -31.5190   26.1540 C   0  0  0  0  0  1  0  0  0  0  0  0
  -26.9650  -30.3970   24.6560 C   0  0  0  0  0  1  0  0  0  0  0  0
  -27.5470  -32.5580   25.7190 C   0  0  0  0  0  1  0  0  0  0  0  0
  2  5  1  0
  3  1  1  0
  4  2  2  0
  4  6  1  0
  5  7  1  0
  5  1  2  0
  6  3  2  0
  7  8  1  0
  9  8  1  0
  9 10  1  0
 10 12  1  0
 11  9  2  0
 13 10  1  0
 13 15  1  0
 15 14  1  0
 16 24  1  0
 17 22  1  0
 18 19  1  0
 18 17  1  0
 20 19  1  0
 20 29  1  0
 20 21  1  0
 22 16  1  0
 22 21  1  0
 23 16  2  0
 24 25  1  0
 24 15  1  0
 26 27  2  0
 27 46  1  0
 28 27  1  0
 28 31  1  0
 29 30  1  0
 29 26  1  0
 30 28  2  0
 31 32  1  0
 32 33  2  0
 34 37  1  0
 34 33  1  0
 35 34  2  0
 36 35  1  0
 36 31  2  0
 37 38  1  0
 38 39  1  0
 39 40  2  0
 41 40  1  0
 41 45  1  0
 42 41  2  0
 43 38  2  0
 43 42  1  0
 44 43  1  0
 46 47  1  0
 47 50  1  0
 47 49  1  0
 48 46  2  0
 51 26  1  0
 51 52  1  0
 53 51  1  0
 54  6  1  0
 54 55  1  0
 55 57  1  0
 56 67  2  0
 57 62  1  0
 58 66  1  0
 58 68  1  0
 59 65  1  0
 59 61  1  0
 60 66  1  0
 61 60  1  0
 62 61  2  0
 63 64  1  0
 63 57  2  0
 64 59  2  0
 65 58  1  0
 66 56  1  0
 68 70  2  0
 69 68  1  0
 71 69  1  0
 72 81  2  0
 72 77  1  0
 73 69  1  0
 73 77  1  0
 74 73  1  0
 75 76  1  0
 75 74  1  0
 76 72  1  0
 77 78  2  0
 78 79  1  0
 80 79  2  0
 81 80  1  0
 82 56  1  0
 82 83  1  0
 82 92  1  0
 83 86  1  0
 84 88  1  0
 84 83  1  0
 85 84  2  0
 88 87  1  0
 90 88  1  0
 90 91  1  0
 90 89  1  0
 92 95  1  1
 92 93  1  0
 94 92  1  0
M  ISO  4  16 100  24 100  54 101  55 101
M  END
>  <TORSDO>  (5) 
F 22

>  <SCORE>  (5) 
-12.071

>  <name>  (5) 
4

>  <ligand_id>  (5) 
4

>  <original_smiles>  (5) 
[H]c1c([H])c([H])c2c(c1[H])C([H])([H])C([H])([H])C([H])([H])C2([H])N([H])C(=O)C1([H])N(C(=O)C([H])(N([H])C(=O)C([H])(N([H])C([H])([H])[H])C([H])([H])[H])C(C([H])([H])[H])(C([H])([H])[H])C([H])([H])[H])C([H])([H])c2c([H])c(OC([H])([H])c3c([H])c([H])c(C([H])([H])C([H])([H])C(=O)N([H])C([H])([H])C([H])(N([H])C(=O)N4C([H])([H])C([H])([H])C([H])([H])C([H])(n5nc(-c6c([H])c([H])c(Oc7c([H])c([H])c(F)c([H])c7F)c([H])c6[H])c(C(=O)N([H])[H])c5N([H])[H])C4([H])[H])C([H])([H])[H])c([H])c3[H])c([H])c([H])c2C1([H])[H]

>  <smiles>  (5) 
[H]c1c([H])c([H])c2c(c1[H])C([H])([H])C([H])([H])C([H])([H])C2([H])N([H])C(=O)C1([H])N(C(=O)C([H])(N([H])C(=O)C([H])(N([H])C([H])([H])[H])C([H])([H])[H])C(C([H])([H])[H])(C([H])([H])[H])C([H])([H])[H])C([H])([H])c2c([H])c(OC([H])([H])c3c([H])c([H])c(C([H])([H])C([H])([H])C(=O)N([H])C([H])([H])C([H])(N([H])C(=O)N4C([H])([H])C([H])([H])C([H])([H])C([H])(n5nc(-c6c([H])c([H])c(Oc7c([H])c([H])c(F)c([H])c7F)c([H])c6[H])c(C(=O)N([H])[H])c5N([H])[H])C4([H])[H])C([H])([H])[H])c([H])c3[H])c([H])c([H])c2C1([H])[H]

$$$$
5:0:0
     RDKit          3D

 92100  0  0  1  0  0  0  0  0999 V2000
  -30.2900  -20.8760   19.3920 C   0  0  0  0  0  0  0  0  0  0  0  0
  -29.5870  -19.9180   19.9910 C   0  0  0  0  0  0  0  0  0  0  0  0
  -31.0830  -20.9630   18.3140 C   0  0  0  0  0  1  0  0  0  0  0  0
  -29.0870  -20.8820   21.0410 C   0  0  0  0  0  2  0  0  0  0  0  0
  -29.3920  -18.7150   19.6860 N   0  0  0  0  0  2  0  0  0  0  0  0
  -29.8390  -21.9270   20.2880 N   0  0  2  0  0  4  0  0  0  0  0  0
  -30.5900  -22.2910   20.8550 H   0  0  0  0  0  0  0  0  0  0  0  0
  -29.1080  -17.7280   20.7110 C   0  0  0  0  0  2  0  0  0  0  0  0
  -30.3620  -16.8860   21.0410 C   0  0  0  0  0  2  0  0  0  0  0  0
  -30.7050  -14.4600   20.5500 C   0  0  0  0  0  0  0  0  0  0  0  0
  -30.3810  -12.3280   19.3640 C   0  0  0  0  0  2  0  0  0  0  0  0
  -29.4540  -12.5740   18.1560 C   0  0  0  0  0  2  0  0  0  0  0  0
  -27.9740  -12.4450   18.5660 C   0  0  0  0  0  2  0  0  0  0  0  0
  -27.6310  -13.2590   19.8400 C   0  0  0  0  0  3  0  0  0  0  0  0
  -28.6730  -13.0220   20.9570 C   0  0  0  0  0  2  0  0  0  0  0  0
  -30.0140  -13.2960   20.4080 N   0  0  0  0  0  0  0  0  0  0  0  0
  -31.8170  -14.6490   20.0570 O   0  0  0  0  0  0  0  0  0  0  0  0
  -30.0240  -15.4610   21.1260 N   0  0  0  0  0  0  0  0  0  0  0  0
  -29.1200  -15.2310   21.5080 H   0  0  0  0  0  0  0  0  0  0  0  0
  -25.2160  -13.8540   20.5110 C   0  0  0  0  0  0  0  0  0  0  0  0
  -24.1490  -13.0780   20.8790 C   0  0  0  0  0  0  0  0  0  0  0  0
  -24.6210  -11.7280   20.8640 C   0  0  0  0  0  0  0  0  0  0  0  0
  -26.2710  -12.9800   20.3030 N   0  0  0  0  0  0  0  0  0  0  0  0
  -25.9140  -11.6970   20.5710 N   0  0  0  0  0  0  0  0  0  0  0  0
  -23.8990  -10.4630   21.0590 C   0  0  0  0  0  0  0  0  0  0  0  0
  -24.3340   -9.4970   21.9920 C   0  0  0  0  0  3  0  0  0  0  0  0
  -23.6110   -8.2980   22.1760 C   0  0  0  0  0  3  0  0  0  0  0  0
  -22.4360   -8.0570   21.4220 C   0  0  0  0  0  0  0  0  0  0  0  0
  -22.0210   -9.0120   20.4760 C   0  0  0  0  0  3  0  0  0  0  0  0
  -22.7480  -10.1990   20.2920 C   0  0  0  0  0  3  0  0  0  0  0  0
  -21.6900   -6.9070   21.5090 O   0  0  0  0  0  0  0  0  0  0  0  0
  -21.6510   -6.1560   22.6570 C   0  0  0  0  0  0  0  0  0  0  0  0
  -21.2370   -6.7030   23.8890 C   0  0  0  0  0  3  0  0  0  0  0  0
  -21.1480   -5.8800   25.0300 C   0  0  0  0  0  3  0  0  0  0  0  0
  -21.4630   -4.5110   24.9380 C   0  0  0  0  0  0  0  0  0  0  0  0
  -21.8690   -3.9630   23.7100 C   0  0  0  0  0  3  0  0  0  0  0  0
  -21.9590   -4.7840   22.5700 C   0  0  0  0  0  0  0  0  0  0  0  0
  -22.3320   -4.2430   21.3850 F   0  0  0  0  0  0  0  0  0  0  0  0
  -21.3700   -3.7210   26.0330 F   0  0  0  0  0  0  0  0  0  0  0  0
  -22.7440  -13.5460   21.1310 C   0  0  0  0  0  0  0  0  0  0  0  0
  -22.0130  -12.8560   22.0010 N   0  0  0  0  0  0  0  0  0  0  0  0
  -22.3050  -14.5620   20.5920 O   0  0  0  0  0  0  0  0  0  0  0  0
  -22.3790  -12.0360   22.4600 H   0  0  0  0  0  0  0  0  0  0  0  0
  -21.0690  -13.1530   22.2060 H   0  0  0  0  0  0  0  0  0  0  0  0
  -25.3770  -15.2220   20.3100 N   0  0  0  0  0  0  0  0  0  0  0  0
  -24.6050  -15.8780   20.3750 H   0  0  0  0  0  0  0  0  0  0  0  0
  -26.2220  -15.6460   19.9480 H   0  0  0  0  0  0  0  0  0  0  0  0
  -29.0160  -23.0060   19.6730 C   0  0  0  0  0  2  0  0  0  0  0  0
  -30.6650  -24.9770   19.3330 C   0  0  0  0  0  1  0  0  0  0  0  0
  -29.4160  -24.4550   20.0710 C   0  0  0  0  0  3  0  0  0  0  0  0
  -28.2140  -25.3560   19.7500 C   0  0  0  0  0  2  0  0  0  0  0  0
  -28.3550  -26.7250   20.1390 O   0  0  0  0  0  0  0  0  0  0  0  0
  -24.5800  -31.8840   23.2380 C   0  0  0  0  0  0  0  0  0  0  0  0
  -27.1860  -27.4620   20.1130 C   0  0  0  0  0  0  0  0  0  0  0  0
  -23.3590  -30.4980   21.5950 C   0  0  0  0  0  3  0  0  0  0  0  0
  -24.7990  -28.9810   20.1450 C   0  0  0  0  0  0  0  0  0  0  0  0
  -25.8860  -30.8510   21.3860 C   0  0  0  0  0  2  0  0  0  0  0  0
  -25.9610  -29.4840   20.7450 C   0  0  0  0  0  0  0  0  0  0  0  0
  -27.1550  -28.7300   20.7350 C   0  0  0  0  0  3  0  0  0  0  0  0
  -26.0050  -26.9880   19.4850 C   0  0  0  0  0  3  0  0  0  0  0  0
  -24.8170  -27.7320   19.5120 C   0  0  0  0  0  3  0  0  0  0  0  0
  -23.5590  -29.8420   20.2040 C   0  0  0  0  0  2  0  0  0  0  0  0
  -24.6280  -31.0910   22.1310 N   0  0  0  0  0  0  0  0  0  0  0  0
  -23.5010  -32.1520   23.7850 O   0  0  0  0  0  0  0  0  0  0  0  0
  -22.7160  -29.4640   22.5470 C   0  0  0  0  0  0  0  0  0  0  0  0
  -21.3910  -29.2830   22.4230 N   0  0  0  0  0  0  0  0  0  0  0  0
  -23.4060  -28.8320   23.3510 O   0  0  0  0  0  0  0  0  0  0  0  0
  -20.8980  -29.8470   21.7450 H   0  0  0  0  0  0  0  0  0  0  0  0
  -18.0160  -28.0890   22.9260 C   0  0  0  0  0  0  0  0  0  0  0  0
  -20.5760  -28.3420   23.1930 C   0  0  0  0  0  3  0  0  0  0  0  0
  -20.6750  -26.9120   22.6130 C   0  0  0  0  0  2  0  0  0  0  0  0
  -19.5690  -26.5940   21.6010 C   0  0  0  0  0  2  0  0  0  0  0  0
  -18.1870  -26.7410   22.2480 C   0  0  0  0  0  2  0  0  0  0  0  0
  -19.1380  -28.8450   23.3580 C   0  0  0  0  0  0  0  0  0  0  0  0
  -18.9260  -30.1090   23.9510 C   0  0  0  0  0  3  0  0  0  0  0  0
  -17.6240  -30.6150   24.1190 C   0  0  0  0  0  3  0  0  0  0  0  0
  -16.5150  -29.8540   23.7060 C   0  0  0  0  0  3  0  0  0  0  0  0
  -16.7120  -28.5940   23.1150 C   0  0  0  0  0  3  0  0  0  0  0  0
  -25.8720  -32.5070   23.8520 C   0  0  0  0  0  3  0  0  0  0  0  0
  -25.5670  -33.9040   24.1900 N   0  0  0  0  0  0  0  0  0  0  0  0
  -25.8900  -34.9570   23.4280 C   0  0  0  0  0  0  0  0  0  0  0  0
  -26.5510  -34.8550   22.3910 O   0  0  0  0  0  0  0  0  0  0  0  0
  -24.9820  -34.0540   24.9980 H   0  0  0  0  0  0  0  0  0  0  0  0
  -24.1610  -36.7490   23.0830 C   0  0  0  0  0  1  0  0  0  0  0  0
  -25.4050  -36.3450   23.8890 C   0  0  0  0  0  3  0  0  0  0  0  0
  -27.5450  -37.2260   24.7050 C   0  0  0  0  0  1  0  0  0  0  0  0
  -26.4370  -37.3970   23.7710 N   0  0  0  0  0  0  0  0  0  0  0  0
  -26.0330  -38.3180   23.9200 H   0  0  0  0  0  0  0  0  0  0  0  0
  -26.3950  -31.7250   25.1170 C   0  0  1  0  0  0  0  0  0  0  0  0
  -25.3120  -31.4860   26.1940 C   0  0  0  0  0  1  0  0  0  0  0  0
  -26.9740  -30.3500   24.7100 C   0  0  0  0  0  1  0  0  0  0  0  0
  -27.5520  -32.5120   25.7760 C   0  0  0  0  0  1  0  0  0  0  0  0
  1  2  2  0
  1  6  1  0
  2  4  1  0
  3  1  1  0
  5  2  1  0
  5  8  1  0
  6  7  1  1
  6  4  1  0
  8  9  1  0
  9 18  1  0
 10 18  1  0
 11 16  1  0
 12 13  1  0
 12 11  1  0
 14 13  1  0
 14 23  1  0
 14 15  1  0
 16 10  1  0
 16 15  1  0
 17 10  2  0
 18 19  1  0
 20 21  2  0
 21 40  1  0
 22 21  1  0
 22 25  1  0
 23 20  1  0
 23 24  1  0
 24 22  2  0
 25 26  1  0
 26 27  2  0
 28 31  1  0
 28 27  1  0
 29 28  2  0
 30 29  1  0
 30 25  2  0
 31 32  1  0
 32 33  1  0
 33 34  2  0
 35 34  1  0
 35 39  1  0
 36 35  2  0
 37 32  2  0
 37 36  1  0
 38 37  1  0
 40 41  1  0
 41 44  1  0
 41 43  1  0
 42 40  2  0
 45 46  1  0
 45 20  1  0
 47 45  1  0
 48 50  1  0
 48  6  1  0
 50 49  1  0
 51 50  1  0
 51 52  1  0
 53 64  2  0
 54 52  1  0
 54 59  1  0
 55 63  1  0
 55 65  1  0
 56 62  1  0
 56 58  1  0
 57 63  1  0
 58 57  1  0
 59 58  2  0
 60 61  1  0
 60 54  2  0
 61 56  2  0
 62 55  1  0
 63 53  1  0
 65 67  2  0
 66 65  1  0
 68 66  1  0
 69 78  2  0
 69 74  1  0
 70 66  1  0
 70 74  1  0
 71 70  1  0
 72 73  1  0
 72 71  1  0
 73 69  1  0
 74 75  2  0
 75 76  1  0
 77 76  2  0
 78 77  1  0
 79 53  1  0
 79 80  1  0
 79 89  1  0
 80 83  1  0
 81 85  1  0
 81 80  1  0
 82 81  2  0
 85 84  1  0
 87 85  1  0
 87 88  1  0
 87 86  1  0
 89 92  1  1
 89 90  1  0
 91 89  1  0
M  ISO  4  10 100  18 100  51 101  52 101
M  END
>  <TORSDO>  (6) 
F 21

>  <SCORE>  (6) 
-13.575

>  <name>  (6) 
5

>  <ligand_id>  (6) 
5

>  <original_smiles>  (6) 
[H]C([H])=C1C(=NC([H])([H])C([H])([H])N([H])C(=O)N2C([H])([H])C([H])([H])C([H])([H])C([H])(n3nc(-c4c([H])c([H])c(Oc5c([H])c([H])c(F)c([H])c5F)c([H])c4[H])c(C(=O)N([H])[H])c3N([H])[H])C2([H])[H])C([H])([H])[N+]1([H])C([H])([H])C([H])(C([H])([H])[H])C([H])([H])Oc1c([H])c([H])c2c(c1[H])C([H])([H])N(C(=O)C([H])(N([H])C(=O)C([H])(N([H])C([H])([H])[H])C([H])([H])[H])C(C([H])([H])[H])(C([H])([H])[H])C([H])([H])[H])C([H])(C(=O)N([H])C1([H])c3c([H])c([H])c([H])c([H])c3C([H])([H])C([H])([H])C1([H])[H])C2([H])[H]

>  <smiles>  (6) 
[H]C([H])=C1C(=NC([H])([H])C([H])([H])N([H])C(=O)N2C([H])([H])C([H])([H])C([H])([H])C([H])(n3nc(-c4c([H])c([H])c(Oc5c([H])c([H])c(F)c([H])c5F)c([H])c4[H])c(C(=O)N([H])[H])c3N([H])[H])C2([H])[H])C([H])([H])[N+]1([H])C([H])([H])C([H])(C([H])([H])[H])C([H])([H])Oc1c([H])c([H])c2c(c1[H])C([H])([H])N(C(=O)C([H])(N([H])C(=O)C([H])(N([H])C([H])([H])[H])C([H])([H])[H])C(C([H])([H])[H])(C([H])([H])[H])C([H])([H])[H])C([H])(C(=O)N([H])C1([H])c3c([H])c([H])c([H])c([H])c3C([H])([H])C([H])([H])C1([H])[H])C2([H])[H]

$$$$
6:0:0
     RDKit          3D

 95103  0  0  1  0  0  0  0  0999 V2000
  -28.2730  -22.9300   20.1210 C   0  0  0  0  0  3  0  0  0  0  0  0
  -27.0720  -22.7410   19.2750 N   0  0  0  0  0  4  0  0  0  0  0  0
  -26.2240  -22.9180   19.7880 H   0  0  0  0  0  0  0  0  0  0  0  0
  -27.0420  -21.7870   18.9580 H   0  0  0  0  0  0  0  0  0  0  0  0
  -27.0820  -23.3300   18.4600 H   0  0  0  0  0  0  0  0  0  0  0  0
  -28.3380  -21.8480   21.2270 C   0  0  0  0  0  2  0  0  0  0  0  0
  -27.2720  -18.3690   20.0070 C   0  0  0  0  0  3  0  0  0  0  0  0
  -28.5130  -17.7370   19.8160 C   0  0  0  0  0  3  0  0  0  0  0  0
  -27.2170  -19.7010   20.4600 C   0  0  0  0  0  3  0  0  0  0  0  0
  -29.6540  -19.7700   20.5280 C   0  0  0  0  0  3  0  0  0  0  0  0
  -29.7120  -18.4300   20.0790 C   0  0  0  0  0  0  0  0  0  0  0  0
  -28.4080  -20.4120   20.7180 C   0  0  0  0  0  0  0  0  0  0  0  0
  -31.0570  -17.7450   19.8690 C   0  0  0  0  0  2  0  0  0  0  0  0
  -31.4770  -16.7930   21.0150 C   0  0  0  0  0  2  0  0  0  0  0  0
  -31.3880  -14.4780   20.0670 C   0  0  0  0  0  0  0  0  0  0  0  0
  -30.9460  -12.2760   19.0420 C   0  0  0  0  0  2  0  0  0  0  0  0
  -29.9900  -12.4210   17.8420 C   0  0  0  0  0  2  0  0  0  0  0  0
  -28.5190  -12.3950   18.3030 C   0  0  0  0  0  2  0  0  0  0  0  0
  -28.2470  -13.3440   19.5000 C   0  0  0  0  0  3  0  0  0  0  0  0
  -29.3090  -13.1540   20.6070 C   0  0  0  0  0  2  0  0  0  0  0  0
  -30.6420  -13.3440   20.0080 N   0  0  0  0  0  0  0  0  0  0  0  0
  -32.4210  -14.6400   19.4110 O   0  0  0  0  0  0  0  0  0  0  0  0
  -30.9190  -15.4410   20.8740 N   0  0  0  0  0  0  0  0  0  0  0  0
  -30.1070  -15.2150   21.4290 H   0  0  0  0  0  0  0  0  0  0  0  0
  -25.9320  -14.1310   20.3100 C   0  0  0  0  0  0  0  0  0  0  0  0
  -24.8160  -13.4400   20.7010 C   0  0  0  0  0  0  0  0  0  0  0  0
  -25.1580  -12.0560   20.6180 C   0  0  0  0  0  0  0  0  0  0  0  0
  -26.8900  -13.1720   20.0180 N   0  0  0  0  0  0  0  0  0  0  0  0
  -26.4290  -11.9170   20.2600 N   0  0  0  0  0  0  0  0  0  0  0  0
  -24.3350  -10.8530   20.8070 C   0  0  0  0  0  0  0  0  0  0  0  0
  -24.7360   -9.8130   21.6740 C   0  0  0  0  0  3  0  0  0  0  0  0
  -23.9200   -8.6750   21.8520 C   0  0  0  0  0  3  0  0  0  0  0  0
  -22.6890   -8.5700   21.1620 C   0  0  0  0  0  0  0  0  0  0  0  0
  -22.3050   -9.5980   20.2830 C   0  0  0  0  0  3  0  0  0  0  0  0
  -23.1210  -10.7270   20.1040 C   0  0  0  0  0  3  0  0  0  0  0  0
  -21.8440   -7.4900   21.2550 O   0  0  0  0  0  0  0  0  0  0  0  0
  -21.7570   -6.7380   22.4000 C   0  0  0  0  0  0  0  0  0  0  0  0
  -21.4420   -7.3160   23.6480 C   0  0  0  0  0  3  0  0  0  0  0  0
  -21.2940   -6.4970   24.7840 C   0  0  0  0  0  3  0  0  0  0  0  0
  -21.4510   -5.1030   24.6740 C   0  0  0  0  0  0  0  0  0  0  0  0
  -21.7580   -4.5250   23.4300 C   0  0  0  0  0  3  0  0  0  0  0  0
  -21.9070   -5.3400   22.2960 C   0  0  0  0  0  0  0  0  0  0  0  0
  -22.1830   -4.7770   21.0950 F   0  0  0  0  0  0  0  0  0  0  0  0
  -21.3010   -4.3150   25.7640 F   0  0  0  0  0  0  0  0  0  0  0  0
  -23.4750  -14.0240   21.0410 C   0  0  0  0  0  0  0  0  0  0  0  0
  -22.7360  -13.3830   21.9390 N   0  0  0  0  0  0  0  0  0  0  0  0
  -23.0920  -15.0810   20.5410 O   0  0  0  0  0  0  0  0  0  0  0  0
  -23.0580  -12.5280   22.3670 H   0  0  0  0  0  0  0  0  0  0  0  0
  -21.8360  -13.7550   22.2060 H   0  0  0  0  0  0  0  0  0  0  0  0
  -26.2080  -15.4870   20.1590 N   0  0  0  0  0  0  0  0  0  0  0  0
  -25.5090  -16.2060   20.3130 H   0  0  0  0  0  0  0  0  0  0  0  0
  -27.0800  -15.8530   19.7980 H   0  0  0  0  0  0  0  0  0  0  0  0
  -28.3100  -24.3480   20.7540 C   0  0  0  0  0  2  0  0  0  0  0  0
  -28.9090  -25.4630   19.8690 C   0  0  0  0  0  2  0  0  0  0  0  0
  -28.7270  -26.7460   20.4820 O   0  0  0  0  0  0  0  0  0  0  0  0
  -24.5830  -31.8310   23.2210 C   0  0  0  0  0  0  0  0  0  0  0  0
  -27.5030  -27.3810   20.4090 C   0  0  0  0  0  0  0  0  0  0  0  0
  -23.4960  -30.3460   21.5680 C   0  0  0  0  0  3  0  0  0  0  0  0
  -25.0580  -28.8040   20.2730 C   0  0  0  0  0  0  0  0  0  0  0  0
  -26.0170  -30.7740   21.4780 C   0  0  0  0  0  2  0  0  0  0  0  0
  -26.1720  -29.3840   20.8900 C   0  0  0  0  0  0  0  0  0  0  0  0
  -27.3970  -28.6820   20.9530 C   0  0  0  0  0  3  0  0  0  0  0  0
  -26.3620  -26.8060   19.8000 C   0  0  0  0  0  3  0  0  0  0  0  0
  -25.1450  -27.5110   19.7290 C   0  0  0  0  0  3  0  0  0  0  0  0
  -23.7900  -29.6260   20.2270 C   0  0  0  0  0  2  0  0  0  0  0  0
  -24.7140  -30.9980   22.1490 N   0  0  0  0  0  0  0  0  0  0  0  0
  -23.4700  -32.0880   23.7000 O   0  0  0  0  0  0  0  0  0  0  0  0
  -22.8230  -29.3390   22.5260 C   0  0  0  0  0  0  0  0  0  0  0  0
  -21.5110  -29.1190   22.3360 N   0  0  0  0  0  0  0  0  0  0  0  0
  -23.4780  -28.7560   23.3930 O   0  0  0  0  0  0  0  0  0  0  0  0
  -21.0440  -29.6420   21.6090 H   0  0  0  0  0  0  0  0  0  0  0  0
  -18.1390  -27.8770   22.7100 C   0  0  0  0  0  0  0  0  0  0  0  0
  -20.6770  -28.1830   23.0900 C   0  0  0  0  0  3  0  0  0  0  0  0
  -20.8300  -26.7430   22.5510 C   0  0  0  0  0  2  0  0  0  0  0  0
  -19.7820  -26.3790   21.4950 C   0  0  0  0  0  2  0  0  0  0  0  0
  -18.3680  -26.5140   22.0730 C   0  0  0  0  0  2  0  0  0  0  0  0
  -19.2260  -28.6670   23.1710 C   0  0  0  0  0  0  0  0  0  0  0  0
  -18.9640  -29.9400   23.7210 C   0  0  0  0  0  3  0  0  0  0  0  0
  -17.6460  -30.4250   23.8160 C   0  0  0  0  0  3  0  0  0  0  0  0
  -16.5720  -29.6320   23.3750 C   0  0  0  0  0  3  0  0  0  0  0  0
  -16.8200  -28.3620   22.8260 C   0  0  0  0  0  3  0  0  0  0  0  0
  -25.8200  -32.5130   23.8850 C   0  0  0  0  0  3  0  0  0  0  0  0
  -26.3200  -31.7640   25.1820 C   0  0  1  0  0  0  0  0  0  0  0  0
  -25.1900  -31.4320   26.1840 C   0  0  0  0  0  1  0  0  0  0  0  0
  -27.0280  -30.4410   24.8090 C   0  0  0  0  0  1  0  0  0  0  0  0
  -27.3700  -32.6330   25.9160 C   0  0  0  0  0  1  0  0  0  0  0  0
  -25.4470  -33.8990   24.1950 N   0  0  0  0  0  0  0  0  0  0  0  0
  -25.7370  -34.9530   23.4210 C   0  0  0  0  0  0  0  0  0  0  0  0
  -26.4220  -34.8660   22.3970 O   0  0  0  0  0  0  0  0  0  0  0  0
  -24.8400  -34.0350   24.9900 H   0  0  0  0  0  0  0  0  0  0  0  0
  -23.9150  -36.6430   23.0470 C   0  0  0  0  0  1  0  0  0  0  0  0
  -25.1830  -36.3230   23.8530 C   0  0  0  0  0  3  0  0  0  0  0  0
  -27.2790  -37.3330   24.6350 C   0  0  0  0  0  1  0  0  0  0  0  0
  -26.1570  -37.4270   23.7040 N   0  0  0  0  0  0  0  0  0  0  0  0
  -25.7050  -38.3270   23.8440 H   0  0  0  0  0  0  0  0  0  0  0  0
  1 53  1  0
  1  6  1  0
  2  3  1  0
  2  1  1  0
  4  2  1  0
  5  2  1  0
  7  9  1  0
  8  7  2  0
  8 11  1  0
  9 12  2  0
 10 12  1  0
 11 10  2  0
 12  6  1  0
 13 11  1  0
 13 14  1  0
 15 23  1  0
 16 21  1  0
 17 18  1  0
 17 16  1  0
 19 18  1  0
 19 28  1  0
 19 20  1  0
 21 15  1  0
 21 20  1  0
 22 15  2  0
 23 14  1  0
 23 24  1  0
 25 26  2  0
 26 45  1  0
 27 26  1  0
 27 30  1  0
 28 29  1  0
 28 25  1  0
 29 27  2  0
 30 31  1  0
 31 32  2  0
 33 36  1  0
 33 32  1  0
 34 33  2  0
 35 34  1  0
 35 30  2  0
 36 37  1  0
 37 38  1  0
 38 39  2  0
 40 39  1  0
 40 44  1  0
 41 40  2  0
 42 37  2  0
 42 41  1  0
 43 42  1  0
 45 46  1  0
 46 49  1  0
 46 48  1  0
 47 45  2  0
 50 25  1  0
 50 51  1  0
 52 50  1  0
 54 55  1  0
 54 53  1  0
 56 67  2  0
 57 55  1  0
 57 62  1  0
 58 66  1  0
 58 68  1  0
 59 61  1  0
 60 66  1  0
 61 62  2  0
 61 60  1  0
 63 57  2  0
 64 63  1  0
 64 59  2  0
 65 59  1  0
 65 58  1  0
 66 56  1  0
 68 70  2  0
 69 68  1  0
 71 69  1  0
 72 81  2  0
 72 77  1  0
 73 69  1  0
 73 77  1  0
 74 73  1  0
 75 76  1  0
 75 74  1  0
 76 72  1  0
 77 78  2  0
 78 79  1  0
 80 79  2  0
 81 80  1  0
 82 56  1  0
 82 87  1  0
 82 83  1  0
 83 86  1  1
 83 84  1  0
 85 83  1  0
 87 90  1  0
 88 92  1  0
 88 87  1  0
 89 88  2  0
 92 91  1  0
 94 95  1  0
 94 92  1  0
 94 93  1  0
M  ISO  4  15 100  23 100  54 101  55 101
M  END
>  <TORSDO>  (7) 
F 23

>  <SCORE>  (7) 
-12.276

>  <name>  (7) 
6

>  <ligand_id>  (7) 
6

>  <original_smiles>  (7) 
[H]c1c([H])c([H])c2c(c1[H])C([H])([H])C([H])([H])C([H])([H])C2([H])N([H])C(=O)C1([H])N(C(=O)C([H])(N([H])C(=O)C([H])(N([H])C([H])([H])[H])C([H])([H])[H])C(C([H])([H])[H])(C([H])([H])[H])C([H])([H])[H])C([H])([H])c2c([H])c(OC([H])([H])C([H])([H])C([H])(C([H])([H])c3c([H])c([H])c([H])c(C([H])([H])C([H])([H])N([H])C(=O)N4C([H])([H])C([H])([H])C([H])([H])C([H])(n5nc(-c6c([H])c([H])c(Oc7c([H])c([H])c(F)c([H])c7F)c([H])c6[H])c(C(=O)N([H])[H])c5N([H])[H])C4([H])[H])c3[H])[N+]([H])([H])[H])c([H])c([H])c2C1([H])[H]

>  <smiles>  (7) 
[H]c1c([H])c([H])c2c(c1[H])C([H])([H])C([H])([H])C([H])([H])C2([H])N([H])C(=O)C1([H])N(C(=O)C([H])(N([H])C(=O)C([H])(N([H])C([H])([H])[H])C([H])([H])[H])C(C([H])([H])[H])(C([H])([H])[H])C([H])([H])[H])C([H])([H])c2c([H])c(OC([H])([H])C([H])([H])C([H])(C([H])([H])c3c([H])c([H])c([H])c(C([H])([H])C([H])([H])N([H])C(=O)N4C([H])([H])C([H])([H])C([H])([H])C([H])(n5nc(-c6c([H])c([H])c(Oc7c([H])c([H])c(F)c([H])c7F)c([H])c6[H])c(C(=O)N([H])[H])c5N([H])[H])C4([H])[H])c3[H])[N+]([H])([H])[H])c([H])c([H])c2C1([H])[H]

$$$$
7:0:0
     RDKit          3D

 96105  0  0  1  0  0  0  0  0999 V2000
  -32.0340  -20.3770   19.1370 C   0  0  0  0  0  0  0  0  0  0  0  0
  -32.5920  -19.4220   18.3770 C   0  0  0  0  0  2  0  0  0  0  0  0
  -32.7850  -21.3080   20.0460 C   0  0  0  0  0  2  0  0  0  0  0  0
  -31.8960  -22.5470   20.0500 C   0  0  0  0  0  2  0  0  0  0  0  0
  -30.5670  -20.7710   19.1250 C   0  0  0  0  0  3  0  0  0  0  0  0
  -30.5090  -22.0400   19.9170 N   0  0  2  0  0  4  0  0  0  0  0  0
  -30.2200  -21.7770   20.8460 H   0  0  0  0  0  0  0  0  0  0  0  0
  -29.6130  -19.6520   19.6330 C   0  0  0  0  0  2  0  0  0  0  0  0
  -30.8980  -18.2760   22.9900 C   0  0  0  0  0  3  0  0  0  0  0  0
  -30.4910  -19.1720   21.9850 C   0  0  0  0  0  3  0  0  0  0  0  0
  -30.9360  -16.8920   22.7370 C   0  0  0  0  0  3  0  0  0  0  0  0
  -30.2160  -17.3010   20.4430 C   0  0  0  0  0  3  0  0  0  0  0  0
  -30.1450  -18.6940   20.7030 C   0  0  0  0  0  0  0  0  0  0  0  0
  -30.5940  -16.3940   21.4630 C   0  0  0  0  0  0  0  0  0  0  0  0
  -30.9020  -14.2470   20.2510 C   0  0  0  0  0  0  0  0  0  0  0  0
  -30.4320  -12.2270   18.9070 C   0  0  0  0  0  2  0  0  0  0  0  0
  -29.4490  -12.5730   17.7710 C   0  0  0  0  0  2  0  0  0  0  0  0
  -27.9900  -12.4740   18.2560 C   0  0  0  0  0  2  0  0  0  0  0  0
  -27.7530  -13.2250   19.5920 C   0  0  0  0  0  3  0  0  0  0  0  0
  -28.8360  -12.8530   20.6290 C   0  0  0  0  0  2  0  0  0  0  0  0
  -30.1650  -13.1240   20.0420 N   0  0  0  0  0  0  0  0  0  0  0  0
  -31.8950  -14.5430   19.5780 O   0  0  0  0  0  0  0  0  0  0  0  0
  -30.5100  -14.9850   21.3000 N   0  0  0  0  0  0  0  0  0  0  0  0
  -29.8980  -14.5090   21.9470 H   0  0  0  0  0  0  0  0  0  0  0  0
  -25.3910  -13.8940   20.3780 C   0  0  0  0  0  0  0  0  0  0  0  0
  -24.3150  -13.1500   20.7790 C   0  0  0  0  0  0  0  0  0  0  0  0
  -24.7370  -11.7860   20.7250 C   0  0  0  0  0  0  0  0  0  0  0  0
  -26.4050  -12.9860   20.1080 N   0  0  0  0  0  0  0  0  0  0  0  0
  -26.0140  -11.7130   20.3700 N   0  0  0  0  0  0  0  0  0  0  0  0
  -23.9830  -10.5430   20.9360 C   0  0  0  0  0  0  0  0  0  0  0  0
  -24.4180   -9.5630   21.8560 C   0  0  0  0  0  3  0  0  0  0  0  0
  -23.6670   -8.3840   22.0540 C   0  0  0  0  0  3  0  0  0  0  0  0
  -22.4680   -8.1770   21.3330 C   0  0  0  0  0  0  0  0  0  0  0  0
  -22.0500   -9.1450   20.4030 C   0  0  0  0  0  3  0  0  0  0  0  0
  -22.8020  -10.3150   20.2030 C   0  0  0  0  0  3  0  0  0  0  0  0
  -21.6870   -7.0510   21.4410 O   0  0  0  0  0  0  0  0  0  0  0  0
  -21.6500   -6.3080   22.5940 C   0  0  0  0  0  0  0  0  0  0  0  0
  -21.2830   -6.8760   23.8340 C   0  0  0  0  0  3  0  0  0  0  0  0
  -21.1890   -6.0620   24.9800 C   0  0  0  0  0  3  0  0  0  0  0  0
  -21.4550   -4.6820   24.8890 C   0  0  0  0  0  0  0  0  0  0  0  0
  -21.8170   -4.1150   23.6550 C   0  0  0  0  0  3  0  0  0  0  0  0
  -21.9110   -4.9260   22.5090 C   0  0  0  0  0  0  0  0  0  0  0  0
  -22.2410   -4.3710   21.3190 F   0  0  0  0  0  0  0  0  0  0  0  0
  -21.3580   -3.8990   25.9880 F   0  0  0  0  0  0  0  0  0  0  0  0
  -22.9440  -13.6640   21.1060 C   0  0  0  0  0  0  0  0  0  0  0  0
  -22.2330  -12.9880   22.0020 N   0  0  0  0  0  0  0  0  0  0  0  0
  -22.5120  -14.7000   20.6020 O   0  0  0  0  0  0  0  0  0  0  0  0
  -22.5950  -12.1500   22.4330 H   0  0  0  0  0  0  0  0  0  0  0  0
  -21.3140  -13.3150   22.2650 H   0  0  0  0  0  0  0  0  0  0  0  0
  -25.5890  -15.2610   20.2070 N   0  0  0  0  0  0  0  0  0  0  0  0
  -24.8510  -15.9380   20.3570 H   0  0  0  0  0  0  0  0  0  0  0  0
  -26.4550  -15.6790   19.8890 H   0  0  0  0  0  0  0  0  0  0  0  0
  -29.5240  -23.0370   19.4050 C   0  0  0  0  0  2  0  0  0  0  0  0
  -29.5490  -24.4240   20.1080 C   0  0  0  0  0  2  0  0  0  0  0  0
  -28.3160  -25.2670   19.7270 C   0  0  0  0  0  2  0  0  0  0  0  0
  -28.3790  -26.6270   20.1870 O   0  0  0  0  0  0  0  0  0  0  0  0
  -24.6000  -31.8540   23.2260 C   0  0  0  0  0  0  0  0  0  0  0  0
  -27.2040  -27.3620   20.1610 C   0  0  0  0  0  0  0  0  0  0  0  0
  -23.3790  -30.4470   21.6000 C   0  0  0  0  0  3  0  0  0  0  0  0
  -24.8170  -28.8930   20.1820 C   0  0  0  0  0  0  0  0  0  0  0  0
  -25.9090  -30.7840   21.3930 C   0  0  0  0  0  2  0  0  0  0  0  0
  -25.9820  -29.4070   20.7630 C   0  0  0  0  0  0  0  0  0  0  0  0
  -27.1760  -28.6460   20.7550 C   0  0  0  0  0  3  0  0  0  0  0  0
  -26.0130  -26.8730   19.5670 C   0  0  0  0  0  3  0  0  0  0  0  0
  -24.8270  -27.6250   19.5850 C   0  0  0  0  0  3  0  0  0  0  0  0
  -23.5800  -29.7610   20.2250 C   0  0  0  0  0  2  0  0  0  0  0  0
  -24.6480  -31.0420   22.1310 N   0  0  0  0  0  0  0  0  0  0  0  0
  -23.5220  -32.1350   23.7670 O   0  0  0  0  0  0  0  0  0  0  0  0
  -22.7260  -29.4340   22.5690 C   0  0  0  0  0  0  0  0  0  0  0  0
  -21.4010  -29.2580   22.4480 N   0  0  0  0  0  0  0  0  0  0  0  0
  -23.4100  -28.8100   23.3870 O   0  0  0  0  0  0  0  0  0  0  0  0
  -20.9120  -29.8130   21.7590 H   0  0  0  0  0  0  0  0  0  0  0  0
  -18.0220  -28.0850   22.9630 C   0  0  0  0  0  0  0  0  0  0  0  0
  -20.5810  -28.3310   23.2280 C   0  0  0  0  0  3  0  0  0  0  0  0
  -20.6740  -26.8940   22.6650 C   0  0  0  0  0  2  0  0  0  0  0  0
  -19.5690  -26.5690   21.6560 C   0  0  0  0  0  2  0  0  0  0  0  0
  -18.1890  -26.7280   22.3020 C   0  0  0  0  0  2  0  0  0  0  0  0
  -19.1460  -28.8440   23.3850 C   0  0  0  0  0  0  0  0  0  0  0  0
  -18.9350  -30.1150   23.9650 C   0  0  0  0  0  3  0  0  0  0  0  0
  -17.6340  -30.6270   24.1240 C   0  0  0  0  0  3  0  0  0  0  0  0
  -16.5250  -29.8650   23.7180 C   0  0  0  0  0  3  0  0  0  0  0  0
  -16.7190  -28.5960   23.1450 C   0  0  0  0  0  3  0  0  0  0  0  0
  -25.8920  -32.4810   23.8350 C   0  0  0  0  0  3  0  0  0  0  0  0
  -25.5860  -33.8760   24.1750 N   0  0  0  0  0  0  0  0  0  0  0  0
  -25.9120  -34.9320   23.4170 C   0  0  0  0  0  0  0  0  0  0  0  0
  -26.5740  -34.8330   22.3790 O   0  0  0  0  0  0  0  0  0  0  0  0
  -25.0000  -34.0280   24.9810 H   0  0  0  0  0  0  0  0  0  0  0  0
  -24.1820  -36.7240   23.0800 C   0  0  0  0  0  1  0  0  0  0  0  0
  -25.4280  -36.3180   23.8820 C   0  0  0  0  0  3  0  0  0  0  0  0
  -27.5680  -37.1960   24.7050 C   0  0  0  0  0  1  0  0  0  0  0  0
  -26.4610  -37.3700   23.7690 N   0  0  0  0  0  0  0  0  0  0  0  0
  -26.0570  -38.2910   23.9240 H   0  0  0  0  0  0  0  0  0  0  0  0
  -26.4260  -31.7010   25.0990 C   0  0  1  0  0  0  0  0  0  0  0  0
  -25.3470  -31.4540   26.1790 C   0  0  0  0  0  1  0  0  0  0  0  0
  -27.0030  -30.3280   24.6860 C   0  0  0  0  0  1  0  0  0  0  0  0
  -27.5860  -32.4910   25.7500 C   0  0  0  0  0  1  0  0  0  0  0  0
  1  3  1  0
  2  1  2  0
  3  4  1  0
  5  1  1  0
  5  8  1  0
  5  6  1  0
  6  4  1  0
  6  7  1  1
  8 13  1  0
 10  9  2  0
 11  9  1  0
 12 13  2  0
 12 14  1  0
 13 10  1  0
 14 11  2  0
 15 23  1  0
 16 21  1  0
 17 18  1  0
 17 16  1  0
 19 18  1  0
 19 28  1  0
 19 20  1  0
 21 15  1  0
 21 20  1  0
 22 15  2  0
 23 14  1  0
 23 24  1  0
 25 26  2  0
 26 45  1  0
 27 26  1  0
 27 30  1  0
 28 29  1  0
 28 25  1  0
 29 27  2  0
 30 31  1  0
 31 32  2  0
 33 36  1  0
 33 32  1  0
 34 33  2  0
 35 34  1  0
 35 30  2  0
 36 37  1  0
 37 38  1  0
 38 39  2  0
 40 39  1  0
 40 44  1  0
 41 40  2  0
 42 37  2  0
 42 41  1  0
 43 42  1  0
 45 46  1  0
 46 49  1  0
 46 48  1  0
 47 45  2  0
 50 51  1  0
 50 25  1  0
 52 50  1  0
 53  6  1  0
 53 54  1  0
 55 54  1  0
 55 56  1  0
 57 68  2  0
 58 56  1  0
 58 63  1  0
 59 67  1  0
 59 69  1  0
 60 66  1  0
 60 62  1  0
 61 67  1  0
 62 61  1  0
 63 62  2  0
 64 65  1  0
 64 58  2  0
 65 60  2  0
 66 59  1  0
 67 57  1  0
 69 71  2  0
 70 69  1  0
 72 70  1  0
 73 82  2  0
 73 78  1  0
 74 70  1  0
 74 78  1  0
 75 74  1  0
 76 77  1  0
 76 75  1  0
 77 73  1  0
 78 79  2  0
 79 80  1  0
 81 80  2  0
 82 81  1  0
 83 57  1  0
 83 84  1  0
 83 93  1  0
 84 87  1  0
 85 89  1  0
 85 84  1  0
 86 85  2  0
 89 88  1  0
 91 89  1  0
 91 92  1  0
 91 90  1  0
 93 96  1  1
 93 94  1  0
 95 93  1  0
M  ISO  4  15 100  23 100  55 101  56 101
M  END
>  <TORSDO>  (8) 
F 21

>  <SCORE>  (8) 
-13.013

>  <name>  (8) 
7

>  <ligand_id>  (8) 
7

>  <original_smiles>  (8) 
[H]C([H])=C1C([H])([H])C([H])([H])[N+]([H])(C([H])([H])C([H])([H])C([H])([H])Oc2c([H])c([H])c3c(c2[H])C([H])([H])N(C(=O)C([H])(N([H])C(=O)C([H])(N([H])C([H])([H])[H])C([H])([H])[H])C(C([H])([H])[H])(C([H])([H])[H])C([H])([H])[H])C([H])(C(=O)N([H])C2([H])c4c([H])c([H])c([H])c([H])c4C([H])([H])C([H])([H])C2([H])[H])C3([H])[H])C1([H])C([H])([H])c1c([H])c([H])c([H])c(N([H])C(=O)N2C([H])([H])C([H])([H])C([H])([H])C([H])(n3nc(-c4c([H])c([H])c(Oc5c([H])c([H])c(F)c([H])c5F)c([H])c4[H])c(C(=O)N([H])[H])c3N([H])[H])C2([H])[H])c1[H]

>  <smiles>  (8) 
[H]C([H])=C1C([H])([H])C([H])([H])[N+]([H])(C([H])([H])C([H])([H])C([H])([H])Oc2c([H])c([H])c3c(c2[H])C([H])([H])N(C(=O)C([H])(N([H])C(=O)C([H])(N([H])C([H])([H])[H])C([H])([H])[H])C(C([H])([H])[H])(C([H])([H])[H])C([H])([H])[H])C([H])(C(=O)N([H])C2([H])c4c([H])c([H])c([H])c([H])c4C([H])([H])C([H])([H])C2([H])[H])C3([H])[H])C1([H])C([H])([H])c1c([H])c([H])c([H])c(N([H])C(=O)N2C([H])([H])C([H])([H])C([H])([H])C([H])(n3nc(-c4c([H])c([H])c(Oc5c([H])c([H])c(F)c([H])c5F)c([H])c4[H])c(C(=O)N([H])[H])c3N([H])[H])C2([H])[H])c1[H]

$$$$
8:0:0
     RDKit          3D

 95103  0  0  1  0  0  0  0  0999 V2000
  -30.7770  -21.3150   20.1680 C   0  0  0  0  0  3  0  0  0  0  0  0
  -29.9020  -22.0790   20.8220 C   0  0  0  0  0  3  0  0  0  0  0  0
  -31.1060  -22.4280   19.1840 C   0  0  0  0  0  2  0  0  0  0  0  0
  -29.7640  -23.0810   19.6800 C   0  0  0  0  0  3  0  0  0  0  0  0
  -31.1180  -19.8870   20.1560 C   0  0  0  0  0  0  0  0  0  0  0  0
  -28.7390  -19.3930   19.5230 C   0  0  0  0  0  1  0  0  0  0  0  0
  -30.1090  -19.0030   19.8990 N   0  0  0  0  0  0  0  0  0  0  0  0
  -32.2780  -19.5030   20.3330 O   0  0  0  0  0  0  0  0  0  0  0  0
  -30.3720  -17.5490   19.7940 C   0  0  0  0  0  2  0  0  0  0  0  0
  -30.4430  -16.8270   21.1630 C   0  0  0  0  0  2  0  0  0  0  0  0
  -30.7050  -14.4310   20.4590 C   0  0  0  0  0  0  0  0  0  0  0  0
  -30.3680  -12.3130   19.2450 C   0  0  0  0  0  2  0  0  0  0  0  0
  -29.4350  -12.5810   18.0470 C   0  0  0  0  0  2  0  0  0  0  0  0
  -27.9560  -12.4640   18.4690 C   0  0  0  0  0  2  0  0  0  0  0  0
  -27.6300  -13.2640   19.7600 C   0  0  0  0  0  3  0  0  0  0  0  0
  -28.6780  -12.9820   20.8610 C   0  0  0  0  0  2  0  0  0  0  0  0
  -30.0130  -13.2710   20.3030 N   0  0  0  0  0  0  0  0  0  0  0  0
  -31.8140  -14.6310   19.9560 O   0  0  0  0  0  0  0  0  0  0  0  0
  -30.0390  -15.4160   21.0780 N   0  0  0  0  0  0  0  0  0  0  0  0
  -29.1290  -15.1750   21.4460 H   0  0  0  0  0  0  0  0  0  0  0  0
  -25.2290  -13.8920   20.4470 C   0  0  0  0  0  0  0  0  0  0  0  0
  -24.1550  -13.1260   20.8150 C   0  0  0  0  0  0  0  0  0  0  0  0
  -24.6070  -11.7720   20.7930 C   0  0  0  0  0  0  0  0  0  0  0  0
  -26.2700  -13.0020   20.2290 N   0  0  0  0  0  0  0  0  0  0  0  0
  -25.8980  -11.7240   20.4910 N   0  0  0  0  0  0  0  0  0  0  0  0
  -23.8740  -10.5160   20.9900 C   0  0  0  0  0  0  0  0  0  0  0  0
  -24.2990   -9.5540   21.9320 C   0  0  0  0  0  3  0  0  0  0  0  0
  -23.5650   -8.3620   22.1190 C   0  0  0  0  0  3  0  0  0  0  0  0
  -22.3950   -8.1250   21.3620 C   0  0  0  0  0  0  0  0  0  0  0  0
  -21.9880   -9.0750   20.4100 C   0  0  0  0  0  3  0  0  0  0  0  0
  -22.7210  -10.2570   20.2210 C   0  0  0  0  0  3  0  0  0  0  0  0
  -21.6350   -6.9830   21.4560 O   0  0  0  0  0  0  0  0  0  0  0  0
  -21.5770   -6.2470   22.6120 C   0  0  0  0  0  0  0  0  0  0  0  0
  -21.1490   -6.8100   23.8340 C   0  0  0  0  0  3  0  0  0  0  0  0
  -21.0390   -6.0000   24.9830 C   0  0  0  0  0  3  0  0  0  0  0  0
  -21.3470   -4.6290   24.9080 C   0  0  0  0  0  0  0  0  0  0  0  0
  -21.7690   -4.0650   23.6900 C   0  0  0  0  0  3  0  0  0  0  0  0
  -21.8800   -4.8720   22.5460 C   0  0  0  0  0  0  0  0  0  0  0  0
  -22.2660   -4.3190   21.3700 F   0  0  0  0  0  0  0  0  0  0  0  0
  -21.2340   -3.8470   26.0080 F   0  0  0  0  0  0  0  0  0  0  0  0
  -22.7590  -13.6130   21.0800 C   0  0  0  0  0  0  0  0  0  0  0  0
  -22.0270  -12.9250   21.9490 N   0  0  0  0  0  0  0  0  0  0  0  0
  -22.3280  -14.6370   20.5510 O   0  0  0  0  0  0  0  0  0  0  0  0
  -22.3910  -12.1000   22.4020 H   0  0  0  0  0  0  0  0  0  0  0  0
  -21.0880  -13.2280   22.1660 H   0  0  0  0  0  0  0  0  0  0  0  0
  -25.3980  -15.2620   20.2650 N   0  0  0  0  0  0  0  0  0  0  0  0
  -24.6240  -15.9110   20.3670 H   0  0  0  0  0  0  0  0  0  0  0  0
  -26.2470  -15.7110   19.9460 H   0  0  0  0  0  0  0  0  0  0  0  0
  -28.8790  -21.8110   21.6430 O   0  0  0  0  0  0  0  0  0  0  0  0
  -29.0780  -21.0070   22.1060 H   0  0  0  0  0  0  0  0  0  0  0  0
  -29.6780  -24.5800   20.0700 C   0  0  0  0  0  2  0  0  0  0  0  0
  -28.0710  -25.1110   18.2250 C   0  0  0  0  0  1  0  0  0  0  0  0
  -27.2520  -24.4160   20.6080 C   0  0  0  0  0  1  0  0  0  0  0  0
  -28.2860  -25.2230   19.7650 C   0  0  1  0  0  0  0  0  0  0  0  0
  -28.3100  -26.6300   20.1540 O   0  0  0  0  0  0  0  0  0  0  0  0
  -24.5670  -31.8910   23.2700 C   0  0  0  0  0  0  0  0  0  0  0  0
  -27.1450  -27.4030   20.1400 C   0  0  0  0  0  0  0  0  0  0  0  0
  -23.3460  -30.5070   21.6360 C   0  0  0  0  0  3  0  0  0  0  0  0
  -24.7740  -28.9780   20.1950 C   0  0  0  0  0  0  0  0  0  0  0  0
  -25.8840  -30.8290   21.4350 C   0  0  0  0  0  2  0  0  0  0  0  0
  -25.9480  -29.4630   20.7800 C   0  0  0  0  0  0  0  0  0  0  0  0
  -27.1370  -28.6860   20.7510 C   0  0  0  0  0  3  0  0  0  0  0  0
  -25.9350  -26.9650   19.5430 C   0  0  0  0  0  3  0  0  0  0  0  0
  -24.7620  -27.7260   19.5750 C   0  0  0  0  0  3  0  0  0  0  0  0
  -23.5430  -29.8510   20.2500 C   0  0  0  0  0  2  0  0  0  0  0  0
  -24.6200  -31.0910   22.1690 N   0  0  0  0  0  0  0  0  0  0  0  0
  -23.4890  -32.1710   23.8120 O   0  0  0  0  0  0  0  0  0  0  0  0
  -22.6900  -29.4780   22.5870 C   0  0  0  0  0  0  0  0  0  0  0  0
  -21.3660  -29.2960   22.4510 N   0  0  0  0  0  0  0  0  0  0  0  0
  -23.3680  -28.8580   23.4110 O   0  0  0  0  0  0  0  0  0  0  0  0
  -20.8800  -29.8470   21.7580 H   0  0  0  0  0  0  0  0  0  0  0  0
  -17.9880  -28.1020   22.9310 C   0  0  0  0  0  0  0  0  0  0  0  0
  -20.5440  -28.3600   23.2220 C   0  0  0  0  0  3  0  0  0  0  0  0
  -20.6520  -26.9260   22.6520 C   0  0  0  0  0  2  0  0  0  0  0  0
  -19.5550  -26.6000   21.6320 C   0  0  0  0  0  2  0  0  0  0  0  0
  -18.1700  -26.7490   22.2650 C   0  0  0  0  0  2  0  0  0  0  0  0
  -19.1030  -28.8660   23.3680 C   0  0  0  0  0  0  0  0  0  0  0  0
  -18.8800  -30.1330   23.9480 C   0  0  0  0  0  3  0  0  0  0  0  0
  -17.5740  -30.6340   24.1020 C   0  0  0  0  0  3  0  0  0  0  0  0
  -16.4720  -29.8690   23.6830 C   0  0  0  0  0  3  0  0  0  0  0  0
  -16.6820  -28.6040   23.1030 C   0  0  0  0  0  3  0  0  0  0  0  0
  -25.8580  -32.5090   23.8860 C   0  0  0  0  0  3  0  0  0  0  0  0
  -25.5620  -33.9090   24.2120 N   0  0  0  0  0  0  0  0  0  0  0  0
  -25.8950  -34.9560   23.4430 C   0  0  0  0  0  0  0  0  0  0  0  0
  -26.5550  -34.8410   22.4060 O   0  0  0  0  0  0  0  0  0  0  0  0
  -24.9750  -34.0720   25.0170 H   0  0  0  0  0  0  0  0  0  0  0  0
  -24.1760  -36.7560   23.0820 C   0  0  0  0  0  1  0  0  0  0  0  0
  -25.4160  -36.3490   23.8940 C   0  0  0  0  0  3  0  0  0  0  0  0
  -27.5590  -37.2210   24.7180 C   0  0  0  0  0  1  0  0  0  0  0  0
  -26.4560  -37.3930   23.7750 N   0  0  0  0  0  0  0  0  0  0  0  0
  -26.0570  -38.3180   23.9190 H   0  0  0  0  0  0  0  0  0  0  0  0
  -26.3690  -31.7340   25.1620 C   0  0  1  0  0  0  0  0  0  0  0  0
  -25.2740  -31.5110   26.2310 C   0  0  0  0  0  1  0  0  0  0  0  0
  -26.9440  -30.3510   24.7710 C   0  0  0  0  0  1  0  0  0  0  0  0
  -27.5260  -32.5220   25.8210 C   0  0  0  0  0  1  0  0  0  0  0  0
  1  5  1  0
  1  2  1  0
  2 49  1  0
  3  4  1  0
  3  1  1  0
  4 51  1  0
  4  2  1  0
  5  8  2  0
  6  7  1  0
  7  5  1  0
  9  7  1  0
  9 10  1  0
 11 19  1  0
 12 17  1  0
 13 14  1  0
 13 12  1  0
 15 14  1  0
 15 24  1  0
 15 16  1  0
 17 11  1  0
 17 16  1  0
 18 11  2  0
 19 10  1  0
 19 20  1  0
 21 22  2  0
 22 41  1  0
 23 22  1  0
 23 26  1  0
 24 21  1  0
 24 25  1  0
 25 23  2  0
 26 27  1  0
 27 28  2  0
 29 32  1  0
 29 28  1  0
 30 29  2  0
 31 30  1  0
 31 26  2  0
 32 33  1  0
 33 34  1  0
 34 35  2  0
 36 35  1  0
 36 40  1  0
 37 36  2  0
 38 33  2  0
 38 37  1  0
 39 38  1  0
 41 42  1  0
 42 45  1  0
 42 44  1  0
 43 41  2  0
 46 47  1  0
 46 21  1  0
 48 46  1  0
 49 50  1  0
 54 52  1  6
 54 51  1  0
 54 55  1  0
 54 53  1  0
 56 67  2  0
 57 55  1  0
 57 62  1  0
 58 66  1  0
 58 68  1  0
 59 65  1  0
 59 61  1  0
 60 66  1  0
 61 60  1  0
 62 61  2  0
 63 64  1  0
 63 57  2  0
 64 59  2  0
 65 58  1  0
 66 56  1  0
 68 70  2  0
 69 68  1  0
 71 69  1  0
 72 81  2  0
 72 77  1  0
 73 69  1  0
 73 77  1  0
 74 73  1  0
 75 76  1  0
 75 74  1  0
 76 72  1  0
 77 78  2  0
 78 79  1  0
 80 79  2  0
 81 80  1  0
 82 56  1  0
 82 83  1  0
 82 92  1  0
 83 86  1  0
 84 88  1  0
 84 83  1  0
 85 84  2  0
 88 87  1  0
 90 88  1  0
 90 91  1  0
 90 89  1  0
 92 95  1  1
 92 93  1  0
 94 92  1  0
M  ISO  4  11 100  19 100  54 101  55 101
M  END
>  <TORSDO>  (9) 
F 22

>  <SCORE>  (9) 
-13.552

>  <name>  (9) 
8

>  <ligand_id>  (9) 
8

>  <original_smiles>  (9) 
[H]OC1=C(C(=O)N(C([H])([H])[H])C([H])([H])C([H])([H])N([H])C(=O)N2C([H])([H])C([H])([H])C([H])([H])C([H])(n3nc(-c4c([H])c([H])c(Oc5c([H])c([H])c(F)c([H])c5F)c([H])c4[H])c(C(=O)N([H])[H])c3N([H])[H])C2([H])[H])C([H])([H])C1([H])C([H])([H])C(Oc1c([H])c([H])c2c(c1[H])C([H])([H])N(C(=O)C([H])(N([H])C(=O)C([H])(N([H])C([H])([H])[H])C([H])([H])[H])C(C([H])([H])[H])(C([H])([H])[H])C([H])([H])[H])C([H])(C(=O)N([H])C1([H])c3c([H])c([H])c([H])c([H])c3C([H])([H])C([H])([H])C1([H])[H])C2([H])[H])(C([H])([H])[H])C([H])([H])[H]

>  <smiles>  (9) 
[H]OC1=C(C(=O)N(C([H])([H])[H])C([H])([H])C([H])([H])N([H])C(=O)N2C([H])([H])C([H])([H])C([H])([H])C([H])(n3nc(-c4c([H])c([H])c(Oc5c([H])c([H])c(F)c([H])c5F)c([H])c4[H])c(C(=O)N([H])[H])c3N([H])[H])C2([H])[H])C([H])([H])C1([H])C([H])([H])C(Oc1c([H])c([H])c2c(c1[H])C([H])([H])N(C(=O)C([H])(N([H])C(=O)C([H])(N([H])C([H])([H])[H])C([H])([H])[H])C(C([H])([H])[H])(C([H])([H])[H])C([H])([H])[H])C([H])(C(=O)N([H])C1([H])c3c([H])c([H])c([H])c([H])c3C([H])([H])C([H])([H])C1([H])[H])C2([H])[H])(C([H])([H])[H])C([H])([H])[H]

$$$$
9:0:0
     RDKit          3D

 99107  0  0  1  0  0  0  0  0999 V2000
  -30.4220  -22.2810   19.8280 C   0  0  0  0  0  2  0  0  0  0  0  0
  -32.6850  -22.5240   18.9980 C   0  0  0  0  0  2  0  0  0  0  0  0
  -30.6770  -23.7880   19.5120 C   0  0  0  0  0  3  0  0  0  0  0  0
  -31.7800  -21.5490   19.7920 C   0  0  0  0  0  3  0  0  0  0  0  0
  -32.0290  -23.8510   18.9260 N   0  0  0  0  0  4  0  0  0  0  0  0
  -31.9740  -24.1680   17.9710 H   0  0  0  0  0  0  0  0  0  0  0  0
  -32.5660  -24.5250   19.4510 H   0  0  0  0  0  0  0  0  0  0  0  0
  -30.5980  -24.7810   20.7180 C   0  0  0  0  0  0  0  0  0  0  0  0
  -30.5110  -24.3490   21.8730 O   0  0  0  0  0  0  0  0  0  0  0  0
  -31.9750  -26.7690   19.8290 C   0  0  0  0  0  1  0  0  0  0  0  0
  -30.5950  -27.0780   21.8660 C   0  0  0  0  0  1  0  0  0  0  0  0
  -30.6470  -26.3430   20.4960 C   0  0  2  0  0  0  0  0  0  0  0  0
  -29.4640  -26.8660   19.6300 C   0  0  0  0  0  2  0  0  0  0  0  0
  -28.2550  -26.5770   20.3050 O   0  0  0  0  0  0  0  0  0  0  0  0
  -24.5730  -31.9200   23.2350 C   0  0  0  0  0  0  0  0  0  0  0  0
  -27.1860  -27.4320   20.2060 C   0  0  0  0  0  0  0  0  0  0  0  0
  -23.3580  -30.5040   21.6120 C   0  0  0  0  0  3  0  0  0  0  0  0
  -24.8050  -28.9450   20.2020 C   0  0  0  0  0  0  0  0  0  0  0  0
  -25.8880  -30.8480   21.4120 C   0  0  0  0  0  2  0  0  0  0  0  0
  -25.9690  -29.4730   20.7780 C   0  0  0  0  0  0  0  0  0  0  0  0
  -27.1700  -28.7250   20.7760 C   0  0  0  0  0  3  0  0  0  0  0  0
  -26.0100  -26.9130   19.6350 C   0  0  0  0  0  3  0  0  0  0  0  0
  -24.8200  -27.6630   19.6250 C   0  0  0  0  0  3  0  0  0  0  0  0
  -23.5630  -29.8040   20.2420 C   0  0  0  0  0  2  0  0  0  0  0  0
  -24.6250  -31.1050   22.1440 N   0  0  0  0  0  0  0  0  0  0  0  0
  -23.4950  -32.2070   23.7720 O   0  0  0  0  0  0  0  0  0  0  0  0
  -22.7000  -29.5020   22.5880 C   0  0  0  0  0  0  0  0  0  0  0  0
  -21.3740  -29.3280   22.4640 N   0  0  0  0  0  0  0  0  0  0  0  0
  -23.3790  -28.8820   23.4110 O   0  0  0  0  0  0  0  0  0  0  0  0
  -20.8880  -29.8810   21.7710 H   0  0  0  0  0  0  0  0  0  0  0  0
  -17.9910  -28.1660   22.9800 C   0  0  0  0  0  0  0  0  0  0  0  0
  -20.5500  -28.4080   23.2490 C   0  0  0  0  0  3  0  0  0  0  0  0
  -20.6410  -26.9680   22.6940 C   0  0  0  0  0  2  0  0  0  0  0  0
  -19.5380  -26.6380   21.6830 C   0  0  0  0  0  2  0  0  0  0  0  0
  -18.1560  -26.8060   22.3230 C   0  0  0  0  0  2  0  0  0  0  0  0
  -19.1150  -28.9260   23.3990 C   0  0  0  0  0  0  0  0  0  0  0  0
  -18.9080  -30.2000   23.9710 C   0  0  0  0  0  3  0  0  0  0  0  0
  -17.6080  -30.7150   24.1290 C   0  0  0  0  0  3  0  0  0  0  0  0
  -16.4970  -29.9540   23.7270 C   0  0  0  0  0  3  0  0  0  0  0  0
  -16.6890  -28.6810   23.1590 C   0  0  0  0  0  3  0  0  0  0  0  0
  -25.8650  -32.5500   23.8450 C   0  0  0  0  0  3  0  0  0  0  0  0
  -25.5620  -33.9490   24.1730 N   0  0  0  0  0  0  0  0  0  0  0  0
  -25.9000  -34.9990   23.4130 C   0  0  0  0  0  0  0  0  0  0  0  0
  -26.5700  -34.8910   22.3810 O   0  0  0  0  0  0  0  0  0  0  0  0
  -24.9680  -34.1080   24.9750 H   0  0  0  0  0  0  0  0  0  0  0  0
  -24.1820  -36.7990   23.0450 C   0  0  0  0  0  1  0  0  0  0  0  0
  -25.4160  -36.3900   23.8660 C   0  0  0  0  0  3  0  0  0  0  0  0
  -27.5500  -37.2620   24.7110 C   0  0  0  0  0  1  0  0  0  0  0  0
  -26.4540  -37.4380   23.7610 N   0  0  0  0  0  0  0  0  0  0  0  0
  -26.0520  -38.3590   23.9100 H   0  0  0  0  0  0  0  0  0  0  0  0
  -26.3930  -31.7790   25.1180 C   0  0  1  0  0  0  0  0  0  0  0  0
  -25.3100  -31.5420   26.1940 C   0  0  0  0  0  1  0  0  0  0  0  0
  -26.9750  -30.4020   24.7220 C   0  0  0  0  0  1  0  0  0  0  0  0
  -27.5480  -32.5740   25.7690 C   0  0  0  0  0  1  0  0  0  0  0  0
  -31.7330  -20.0930   19.2040 C   0  0  0  0  0  2  0  0  0  0  0  0
  -31.1140  -17.8530   19.9240 C   0  0  0  0  0  0  0  0  0  0  0  0
  -31.4800  -19.0590   20.2200 N   0  0  0  0  0  0  0  0  0  0  0  0
  -30.3340  -17.3160   22.3240 C   0  0  0  0  0  1  0  0  0  0  0  0
  -31.0570  -16.7800   21.0690 C   0  0  0  0  0  3  0  0  0  0  0  0
  -31.1040  -14.3860   20.2480 C   0  0  0  0  0  0  0  0  0  0  0  0
  -30.6700  -12.2560   19.0820 C   0  0  0  0  0  2  0  0  0  0  0  0
  -29.7220  -12.5190   17.8970 C   0  0  0  0  0  2  0  0  0  0  0  0
  -28.2540  -12.4220   18.3480 C   0  0  0  0  0  2  0  0  0  0  0  0
  -27.9680  -13.2660   19.6170 C   0  0  0  0  0  3  0  0  0  0  0  0
  -29.0330  -13.0000   20.7070 C   0  0  0  0  0  2  0  0  0  0  0  0
  -30.3570  -13.2530   20.1160 N   0  0  0  0  0  0  0  0  0  0  0  0
  -32.2500  -14.4860   19.8080 O   0  0  0  0  0  0  0  0  0  0  0  0
  -30.4740  -15.4530   20.7650 N   0  0  0  0  0  0  0  0  0  0  0  0
  -29.5200  -15.3110   21.0530 H   0  0  0  0  0  0  0  0  0  0  0  0
  -25.5910  -13.9500   20.3330 C   0  0  0  0  0  0  0  0  0  0  0  0
  -24.5040  -13.2140   20.7150 C   0  0  0  0  0  0  0  0  0  0  0  0
  -24.9260  -11.8510   20.6980 C   0  0  0  0  0  0  0  0  0  0  0  0
  -26.6100  -13.0370   20.1090 N   0  0  0  0  0  0  0  0  0  0  0  0
  -26.2100  -11.7680   20.3830 N   0  0  0  0  0  0  0  0  0  0  0  0
  -24.1620  -10.6110   20.9060 C   0  0  0  0  0  0  0  0  0  0  0  0
  -24.5580   -9.6470   21.8590 C   0  0  0  0  0  3  0  0  0  0  0  0
  -23.7960   -8.4770   22.0550 C   0  0  0  0  0  3  0  0  0  0  0  0
  -22.6220   -8.2600   21.2930 C   0  0  0  0  0  0  0  0  0  0  0  0
  -22.2440   -9.2110   20.3290 C   0  0  0  0  0  3  0  0  0  0  0  0
  -23.0070  -10.3730   20.1320 C   0  0  0  0  0  3  0  0  0  0  0  0
  -21.8370   -7.1370   21.3980 O   0  0  0  0  0  0  0  0  0  0  0  0
  -21.7400   -6.4310   22.5710 C   0  0  0  0  0  0  0  0  0  0  0  0
  -21.3100   -7.0390   23.7700 C   0  0  0  0  0  3  0  0  0  0  0  0
  -21.1530   -6.2630   24.9360 C   0  0  0  0  0  3  0  0  0  0  0  0
  -21.4190   -4.8820   24.9050 C   0  0  0  0  0  0  0  0  0  0  0  0
  -21.8470   -4.2730   23.7100 C   0  0  0  0  0  3  0  0  0  0  0  0
  -22.0030   -5.0460   22.5460 C   0  0  0  0  0  0  0  0  0  0  0  0
  -22.3950   -4.4520   21.3930 F   0  0  0  0  0  0  0  0  0  0  0  0
  -21.2640   -4.1360   26.0220 F   0  0  0  0  0  0  0  0  0  0  0  0
  -23.1220  -13.7350   21.0010 C   0  0  0  0  0  0  0  0  0  0  0  0
  -22.3970  -13.0700   21.8920 N   0  0  0  0  0  0  0  0  0  0  0  0
  -22.7050  -14.7650   20.4750 O   0  0  0  0  0  0  0  0  0  0  0  0
  -22.7600  -12.2340   22.3270 H   0  0  0  0  0  0  0  0  0  0  0  0
  -21.4740  -13.3930   22.1440 H   0  0  0  0  0  0  0  0  0  0  0  0
  -25.7890  -15.3130   20.1300 N   0  0  0  0  0  0  0  0  0  0  0  0
  -25.0230  -15.9750   20.1730 H   0  0  0  0  0  0  0  0  0  0  0  0
  -26.6380  -15.7160   19.7550 H   0  0  0  0  0  0  0  0  0  0  0  0
  -31.9280  -17.2240   17.5370 C   0  0  0  0  0  1  0  0  0  0  0  0
  -30.7350  -17.4030   18.4990 C   0  0  0  0  0  2  0  0  0  0  0  0
  2  4  1  0
  3  1  1  0
  3  8  1  0
  4 55  1  0
  4  1  1  0
  5  2  1  0
  5  7  1  0
  5  3  1  0
  6  5  1  0
  8  9  2  0
 12 10  1  6
 12  8  1  0
 12 11  1  0
 13 14  1  0
 13 12  1  0
 15 26  2  0
 16 14  1  0
 16 21  1  0
 17 25  1  0
 17 27  1  0
 18 24  1  0
 18 20  1  0
 19 25  1  0
 20 19  1  0
 21 20  2  0
 22 16  2  0
 23 22  1  0
 23 18  2  0
 24 17  1  0
 25 15  1  0
 27 29  2  0
 28 27  1  0
 30 28  1  0
 31 40  2  0
 31 36  1  0
 32 28  1  0
 32 36  1  0
 33 32  1  0
 34 35  1  0
 34 33  1  0
 35 31  1  0
 36 37  2  0
 37 38  1  0
 39 38  2  0
 40 39  1  0
 41 15  1  0
 41 42  1  0
 41 51  1  0
 42 45  1  0
 43 47  1  0
 43 42  1  0
 44 43  2  0
 47 46  1  0
 49 47  1  0
 49 50  1  0
 49 48  1  0
 51 54  1  1
 51 52  1  0
 53 51  1  0
 55 57  1  0
 56 57  2  0
 56 59  1  0
 59 58  1  0
 60 68  1  0
 61 66  1  0
 62 63  1  0
 62 61  1  0
 64 63  1  0
 64 73  1  0
 64 65  1  0
 66 60  1  0
 66 65  1  0
 67 60  2  0
 68 69  1  0
 68 59  1  0
 70 71  2  0
 71 90  1  0
 72 71  1  0
 72 75  1  0
 73 70  1  0
 73 74  1  0
 74 72  2  0
 75 76  1  0
 76 77  2  0
 78 81  1  0
 78 77  1  0
 79 78  2  0
 80 79  1  0
 80 75  2  0
 81 82  1  0
 82 83  1  0
 83 84  2  0
 85 84  1  0
 85 89  1  0
 86 85  2  0
 87 82  2  0
 87 86  1  0
 88 87  1  0
 90 91  1  0
 91 94  1  0
 91 93  1  0
 92 90  2  0
 95 96  1  0
 95 70  1  0
 97 95  1  0
 98 99  1  0
 99 56  1  0
M  ISO  4  13 101  14 101  60 100  68 100
M  END
>  <TORSDO>  (10) 
F 23

>  <SCORE>  (10) 
-12.886

>  <name>  (10) 
9

>  <ligand_id>  (10) 
9

>  <original_smiles>  (10) 
[H]c1c([H])c([H])c2c(c1[H])C([H])([H])C([H])([H])C([H])([H])C2([H])N([H])C(=O)C1([H])N(C(=O)C([H])(N([H])C(=O)C([H])(N([H])C([H])([H])[H])C([H])([H])[H])C(C([H])([H])[H])(C([H])([H])[H])C([H])([H])[H])C([H])([H])c2c([H])c(OC([H])([H])C(C(=O)C3([H])C([H])([H])C([H])(C([H])([H])N=C(C([H])([H])C([H])([H])[H])C([H])(N([H])C(=O)N4C([H])([H])C([H])([H])C([H])([H])C([H])(n5nc(-c6c([H])c([H])c(Oc7c([H])c([H])c(F)c([H])c7F)c([H])c6[H])c(C(=O)N([H])[H])c5N([H])[H])C4([H])[H])C([H])([H])[H])C([H])([H])[N+]3([H])[H])(C([H])([H])[H])C([H])([H])[H])c([H])c([H])c2C1([H])[H]

>  <smiles>  (10) 
[H]c1c([H])c([H])c2c(c1[H])C([H])([H])C([H])([H])C([H])([H])C2([H])N([H])C(=O)C1([H])N(C(=O)C([H])(N([H])C(=O)C([H])(N([H])C([H])([H])[H])C([H])([H])[H])C(C([H])([H])[H])(C([H])([H])[H])C([H])([H])[H])C([H])([H])c2c([H])c(OC([H])([H])C(C(=O)C3([H])C([H])([H])C([H])(C([H])([H])N=C(C([H])([H])C([H])([H])[H])C([H])(N([H])C(=O)N4C([H])([H])C([H])([H])C([H])([H])C([H])(n5nc(-c6c([H])c([H])c(Oc7c([H])c([H])c(F)c([H])c7F)c([H])c6[H])c(C(=O)N([H])[H])c5N([H])[H])C4([H])[H])C([H])([H])[H])C([H])([H])[N+]3([H])[H])(C([H])([H])[H])C([H])([H])[H])c([H])c([H])c2C1([H])[H]

$$$$
10:0:0
     RDKit          3D

 93101  0  0  1  0  0  0  0  0999 V2000
  -30.7450  -21.1810   20.2700 C   0  0  0  0  0  3  0  0  0  0  0  0
  -31.0000  -19.8440   20.6070 C   0  0  0  0  0  3  0  0  0  0  0  0
  -30.2320  -20.5180   17.9960 C   0  0  0  0  0  3  0  0  0  0  0  0
  -30.3660  -21.5510   18.9570 C   0  0  0  0  0  0  0  0  0  0  0  0
  -30.8730  -18.8330   19.6430 C   0  0  0  0  0  0  0  0  0  0  0  0
  -30.4630  -19.1650   18.3290 C   0  0  0  0  0  0  0  0  0  0  0  0
  -30.2690  -18.1030   17.2580 C   0  0  0  0  0  1  0  0  0  0  0  0
  -30.4120  -23.9780   19.4370 C   0  0  0  0  0  3  0  0  0  0  0  0
  -30.0880  -22.9670   18.6010 C   0  0  0  0  0  0  0  0  0  0  0  0
  -29.3810  -23.2250   17.2720 C   0  0  0  0  0  1  0  0  0  0  0  0
  -30.0870  -25.4390   19.2570 C   0  0  0  0  0  2  0  0  0  0  0  0
  -28.5950  -25.7040   19.4950 C   0  0  0  0  0  2  0  0  0  0  0  0
  -28.4710  -26.9010   20.2440 O   0  0  0  0  0  0  0  0  0  0  0  0
  -24.5780  -31.9690   23.3080 C   0  0  0  0  0  0  0  0  0  0  0  0
  -27.2530  -27.5380   20.2650 C   0  0  0  0  0  0  0  0  0  0  0  0
  -23.3810  -30.5540   21.6710 C   0  0  0  0  0  3  0  0  0  0  0  0
  -24.8420  -29.0050   20.2760 C   0  0  0  0  0  0  0  0  0  0  0  0
  -25.9020  -30.9240   21.4760 C   0  0  0  0  0  2  0  0  0  0  0  0
  -25.9930  -29.5460   20.8590 C   0  0  0  0  0  0  0  0  0  0  0  0
  -27.1990  -28.8150   20.8570 C   0  0  0  0  0  3  0  0  0  0  0  0
  -26.0730  -26.9900   19.7080 C   0  0  0  0  0  3  0  0  0  0  0  0
  -24.8720  -27.7220   19.7040 C   0  0  0  0  0  3  0  0  0  0  0  0
  -23.5940  -29.8540   20.3030 C   0  0  0  0  0  2  0  0  0  0  0  0
  -24.6390  -31.1630   22.2110 N   0  0  0  0  0  0  0  0  0  0  0  0
  -23.4930  -32.2470   23.8370 O   0  0  0  0  0  0  0  0  0  0  0  0
  -22.7280  -29.5400   22.6390 C   0  0  0  0  0  0  0  0  0  0  0  0
  -21.4090  -29.3470   22.4920 N   0  0  0  0  0  0  0  0  0  0  0  0
  -23.4070  -28.9310   23.4680 O   0  0  0  0  0  0  0  0  0  0  0  0
  -20.9270  -29.8900   21.7900 H   0  0  0  0  0  0  0  0  0  0  0  0
  -18.0390  -28.1270   22.9410 C   0  0  0  0  0  0  0  0  0  0  0  0
  -20.5870  -28.4150   23.2620 C   0  0  0  0  0  3  0  0  0  0  0  0
  -20.7160  -26.9760   22.7150 C   0  0  0  0  0  2  0  0  0  0  0  0
  -19.6390  -26.6200   21.6850 C   0  0  0  0  0  2  0  0  0  0  0  0
  -18.2420  -26.7650   22.2950 C   0  0  0  0  0  2  0  0  0  0  0  0
  -19.1410  -28.9080   23.3790 C   0  0  0  0  0  0  0  0  0  0  0  0
  -18.8990  -30.1820   23.9380 C   0  0  0  0  0  3  0  0  0  0  0  0
  -17.5860  -30.6760   24.0640 C   0  0  0  0  0  3  0  0  0  0  0  0
  -16.4990  -29.8920   23.6420 C   0  0  0  0  0  3  0  0  0  0  0  0
  -16.7250  -28.6200   23.0880 C   0  0  0  0  0  3  0  0  0  0  0  0
  -25.8610  -32.6060   23.9290 C   0  0  0  0  0  3  0  0  0  0  0  0
  -25.5480  -34.0050   24.2550 N   0  0  0  0  0  0  0  0  0  0  0  0
  -25.8900  -35.0550   23.4960 C   0  0  0  0  0  0  0  0  0  0  0  0
  -26.5730  -34.9510   22.4710 O   0  0  0  0  0  0  0  0  0  0  0  0
  -24.9440  -34.1630   25.0460 H   0  0  0  0  0  0  0  0  0  0  0  0
  -24.1630  -36.8440   23.1180 C   0  0  0  0  0  1  0  0  0  0  0  0
  -25.3950  -36.4430   23.9440 C   0  0  0  0  0  3  0  0  0  0  0  0
  -27.5180  -37.3260   24.8000 C   0  0  0  0  0  1  0  0  0  0  0  0
  -26.4270  -37.4990   23.8450 N   0  0  0  0  0  0  0  0  0  0  0  0
  -26.0150  -38.4170   23.9940 H   0  0  0  0  0  0  0  0  0  0  0  0
  -26.3850  -31.8370   25.2040 C   0  0  1  0  0  0  0  0  0  0  0  0
  -25.2980  -31.5750   26.2720 C   0  0  0  0  0  1  0  0  0  0  0  0
  -26.9830  -30.4680   24.8020 C   0  0  0  0  0  1  0  0  0  0  0  0
  -27.5250  -32.6460   25.8680 C   0  0  0  0  0  1  0  0  0  0  0  0
  -31.2280  -17.4190   20.0440 C   0  0  0  0  0  2  0  0  0  0  0  0
  -30.0300  -16.6240   20.6080 C   0  0  0  0  0  2  0  0  0  0  0  0
  -30.8600  -14.3440   20.1690 C   0  0  0  0  0  0  0  0  0  0  0  0
  -30.3770  -12.3100   18.8680 C   0  0  0  0  0  2  0  0  0  0  0  0
  -29.3750  -12.6130   17.7380 C   0  0  0  0  0  2  0  0  0  0  0  0
  -27.9290  -12.4820   18.2490 C   0  0  0  0  0  2  0  0  0  0  0  0
  -27.6910  -13.2640   19.5670 C   0  0  0  0  0  3  0  0  0  0  0  0
  -28.7970  -12.9540   20.5980 C   0  0  0  0  0  2  0  0  0  0  0  0
  -30.1020  -13.2340   19.9760 N   0  0  0  0  0  0  0  0  0  0  0  0
  -31.8830  -14.5650   19.5150 O   0  0  0  0  0  0  0  0  0  0  0  0
  -30.6260  -15.1000   22.4670 C   0  0  0  0  0  1  0  0  0  0  0  0
  -30.3640  -15.2530   21.0330 N   0  0  0  0  0  0  0  0  0  0  0  0
  -25.3380  -13.8830   20.4110 C   0  0  0  0  0  0  0  0  0  0  0  0
  -24.2840  -13.1150   20.8250 C   0  0  0  0  0  0  0  0  0  0  0  0
  -24.7300  -11.7600   20.7470 C   0  0  0  0  0  0  0  0  0  0  0  0
  -26.3610  -12.9980   20.1100 N   0  0  0  0  0  0  0  0  0  0  0  0
  -26.0000  -11.7140   20.3680 N   0  0  0  0  0  0  0  0  0  0  0  0
  -24.0050  -10.5000   20.9590 C   0  0  0  0  0  0  0  0  0  0  0  0
  -24.4670   -9.5280   21.8740 C   0  0  0  0  0  3  0  0  0  0  0  0
  -23.7430   -8.3330   22.0720 C   0  0  0  0  0  3  0  0  0  0  0  0
  -22.5450   -8.1020   21.3570 C   0  0  0  0  0  0  0  0  0  0  0  0
  -22.1010   -9.0620   20.4320 C   0  0  0  0  0  3  0  0  0  0  0  0
  -22.8250  -10.2500   20.2310 C   0  0  0  0  0  3  0  0  0  0  0  0
  -21.7900   -6.9580   21.4670 O   0  0  0  0  0  0  0  0  0  0  0  0
  -21.7560   -6.2260   22.6260 C   0  0  0  0  0  0  0  0  0  0  0  0
  -21.3640   -6.7970   23.8570 C   0  0  0  0  0  3  0  0  0  0  0  0
  -21.2770   -5.9920   25.0110 C   0  0  0  0  0  3  0  0  0  0  0  0
  -21.5680   -4.6170   24.9330 C   0  0  0  0  0  0  0  0  0  0  0  0
  -21.9540   -4.0460   23.7080 C   0  0  0  0  0  3  0  0  0  0  0  0
  -22.0430   -4.8480   22.5570 C   0  0  0  0  0  0  0  0  0  0  0  0
  -22.3940   -4.2890   21.3740 F   0  0  0  0  0  0  0  0  0  0  0  0
  -21.4780   -3.8410   26.0400 F   0  0  0  0  0  0  0  0  0  0  0  0
  -22.9090  -13.5990   21.1840 C   0  0  0  0  0  0  0  0  0  0  0  0
  -22.2270  -12.8970   22.0850 N   0  0  0  0  0  0  0  0  0  0  0  0
  -22.4480  -14.6340   20.7040 O   0  0  0  0  0  0  0  0  0  0  0  0
  -22.6140  -12.0590   22.4940 H   0  0  0  0  0  0  0  0  0  0  0  0
  -21.3070  -13.2020   22.3680 H   0  0  0  0  0  0  0  0  0  0  0  0
  -25.5070  -15.2550   20.2460 N   0  0  0  0  0  0  0  0  0  0  0  0
  -24.7570  -15.9180   20.4180 H   0  0  0  0  0  0  0  0  0  0  0  0
  -26.3500  -15.6920   19.8960 H   0  0  0  0  0  0  0  0  0  0  0  0
  1  2  1  0
  3  6  2  0
  3  4  1  0
  4  1  2  0
  5 54  1  0
  5  2  2  0
  6  5  1  0
  7  6  1  0
  9  4  1  0
  9  8  2  0
 10  9  1  0
 11  8  1  0
 11 12  1  0
 12 13  1  0
 13 15  1  0
 14 25  2  0
 15 20  1  0
 16 24  1  0
 16 26  1  0
 17 23  1  0
 17 19  1  0
 18 24  1  0
 19 18  1  0
 20 19  2  0
 21 15  2  0
 22 21  1  0
 22 17  2  0
 23 16  1  0
 24 14  1  0
 26 28  2  0
 27 26  1  0
 29 27  1  0
 30 39  2  0
 30 35  1  0
 31 27  1  0
 31 35  1  0
 32 31  1  0
 33 34  1  0
 33 32  1  0
 34 30  1  0
 35 36  2  0
 36 37  1  0
 38 37  2  0
 39 38  1  0
 40 14  1  0
 40 41  1  0
 40 50  1  0
 41 44  1  0
 42 46  1  0
 42 41  1  0
 43 42  2  0
 46 45  1  0
 48 46  1  0
 48 49  1  0
 48 47  1  0
 50 53  1  1
 50 51  1  0
 52 50  1  0
 54 55  1  0
 55 65  1  0
 56 65  1  0
 57 62  1  0
 58 59  1  0
 58 57  1  0
 60 59  1  0
 60 69  1  0
 60 61  1  0
 62 56  1  0
 62 61  1  0
 63 56  2  0
 65 64  1  0
 66 67  2  0
 67 86  1  0
 68 67  1  0
 68 71  1  0
 69 70  1  0
 69 66  1  0
 70 68  2  0
 71 72  1  0
 72 73  2  0
 74 77  1  0
 74 73  1  0
 75 74  2  0
 76 75  1  0
 76 71  2  0
 77 78  1  0
 78 79  1  0
 79 80  2  0
 81 80  1  0
 81 85  1  0
 82 81  2  0
 83 78  2  0
 83 82  1  0
 84 83  1  0
 86 87  1  0
 87 90  1  0
 87 89  1  0
 88 86  2  0
 91 66  1  0
 91 92  1  0
 93 91  1  0
M  ISO  4  12 101  13 101  56 100  65 100
M  END
>  <TORSDO>  (11) 
F 21

>  <SCORE>  (11) 
-12.331

>  <name>  (11) 
10

>  <ligand_id>  (11) 
10

>  <original_smiles>  (11) 
[H]C(=C(c1c([H])c([H])c(C([H])([H])C([H])([H])N(C(=O)N2C([H])([H])C([H])([H])C([H])([H])C([H])(n3nc(-c4c([H])c([H])c(Oc5c([H])c([H])c(F)c([H])c5F)c([H])c4[H])c(C(=O)N([H])[H])c3N([H])[H])C2([H])[H])C([H])([H])[H])c(C([H])([H])[H])c1[H])C([H])([H])[H])C([H])([H])C([H])([H])Oc1c([H])c([H])c2c(c1[H])C([H])([H])N(C(=O)C([H])(N([H])C(=O)C([H])(N([H])C([H])([H])[H])C([H])([H])[H])C(C([H])([H])[H])(C([H])([H])[H])C([H])([H])[H])C([H])(C(=O)N([H])C1([H])c3c([H])c([H])c([H])c([H])c3C([H])([H])C([H])([H])C1([H])[H])C2([H])[H]

>  <smiles>  (11) 
[H]C(=C(c1c([H])c([H])c(C([H])([H])C([H])([H])N(C(=O)N2C([H])([H])C([H])([H])C([H])([H])C([H])(n3nc(-c4c([H])c([H])c(Oc5c([H])c([H])c(F)c([H])c5F)c([H])c4[H])c(C(=O)N([H])[H])c3N([H])[H])C2([H])[H])C([H])([H])[H])c(C([H])([H])[H])c1[H])C([H])([H])[H])C([H])([H])C([H])([H])Oc1c([H])c([H])c2c(c1[H])C([H])([H])N(C(=O)C([H])(N([H])C(=O)C([H])(N([H])C([H])([H])[H])C([H])([H])[H])C(C([H])([H])[H])(C([H])([H])[H])C([H])([H])[H])C([H])(C(=O)N([H])C1([H])c3c([H])c([H])c([H])c([H])c3C([H])([H])C([H])([H])C1([H])[H])C2([H])[H]

$$$$
11:0:0
     RDKit          3D

 93101  0  0  1  0  0  0  0  0999 V2000
  -28.9390  -20.5010   22.3850 C   0  0  0  0  0  2  0  0  0  0  0  0
  -27.9330  -21.2000   21.4700 C   0  0  0  0  0  2  0  0  0  0  0  0
  -29.8210  -20.2830   21.1520 C   0  0  0  0  0  3  0  0  0  0  0  0
  -28.9600  -21.2370   20.4190 N   0  0  2  0  0  4  0  0  0  0  0  0
  -28.6160  -20.7800   19.5860 H   0  0  0  0  0  0  0  0  0  0  0  0
  -29.7760  -18.8380   20.5950 C   0  0  0  0  0  0  0  0  0  0  0  0
  -28.7150  -18.1460   20.5150 N   0  0  0  0  0  0  0  0  0  0  0  0
  -27.8810  -18.5880   20.8830 H   0  0  0  0  0  0  0  0  0  0  0  0
  -31.1040  -18.2280   20.1480 C   0  0  0  0  0  2  0  0  0  0  0  0
  -31.6680  -17.1450   21.1140 C   0  0  0  0  0  2  0  0  0  0  0  0
  -31.6810  -14.7630   20.3130 C   0  0  0  0  0  0  0  0  0  0  0  0
  -31.2370  -12.6320   19.1560 C   0  0  0  0  0  2  0  0  0  0  0  0
  -30.3190  -12.8850   17.9440 C   0  0  0  0  0  2  0  0  0  0  0  0
  -28.8380  -12.8380   18.3690 C   0  0  0  0  0  2  0  0  0  0  0  0
  -28.5450  -13.7080   19.6230 C   0  0  0  0  0  3  0  0  0  0  0  0
  -29.5790  -13.4350   20.7390 C   0  0  0  0  0  2  0  0  0  0  0  0
  -30.9210  -13.6440   20.1740 N   0  0  0  0  0  0  0  0  0  0  0  0
  -32.8040  -14.8750   19.8170 O   0  0  0  0  0  0  0  0  0  0  0  0
  -31.0880  -15.8000   20.9280 N   0  0  0  0  0  0  0  0  0  0  0  0
  -30.1500  -15.6550   21.2740 H   0  0  0  0  0  0  0  0  0  0  0  0
  -26.1890  -14.4650   20.3310 C   0  0  0  0  0  0  0  0  0  0  0  0
  -25.0670  -13.7590   20.6750 C   0  0  0  0  0  0  0  0  0  0  0  0
  -25.4350  -12.3800   20.6270 C   0  0  0  0  0  0  0  0  0  0  0  0
  -27.1740  -13.5180   20.0910 N   0  0  0  0  0  0  0  0  0  0  0  0
  -26.7220  -12.2580   20.3260 N   0  0  0  0  0  0  0  0  0  0  0  0
  -24.6230  -11.1670   20.7930 C   0  0  0  0  0  0  0  0  0  0  0  0
  -24.9950  -10.1480   21.6990 C   0  0  0  0  0  3  0  0  0  0  0  0
  -24.1890   -9.0010   21.8550 C   0  0  0  0  0  3  0  0  0  0  0  0
  -22.9970   -8.8630   21.1060 C   0  0  0  0  0  0  0  0  0  0  0  0
  -22.6430   -9.8710   20.1900 C   0  0  0  0  0  3  0  0  0  0  0  0
  -23.4480  -11.0090   20.0310 C   0  0  0  0  0  3  0  0  0  0  0  0
  -22.1660   -7.7710   21.1720 O   0  0  0  0  0  0  0  0  0  0  0  0
  -21.9910   -7.0680   22.3380 C   0  0  0  0  0  0  0  0  0  0  0  0
  -21.5390   -7.6910   23.5220 C   0  0  0  0  0  3  0  0  0  0  0  0
  -21.3080   -6.9200   24.6780 C   0  0  0  0  0  3  0  0  0  0  0  0
  -21.5170   -5.5280   24.6500 C   0  0  0  0  0  0  0  0  0  0  0  0
  -21.9630   -4.9060   23.4720 C   0  0  0  0  0  3  0  0  0  0  0  0
  -22.1950   -5.6740   22.3160 C   0  0  0  0  0  0  0  0  0  0  0  0
  -22.6030   -5.0660   21.1770 F   0  0  0  0  0  0  0  0  0  0  0  0
  -21.2870   -4.7850   25.7590 F   0  0  0  0  0  0  0  0  0  0  0  0
  -23.7040  -14.3270   20.9500 C   0  0  0  0  0  0  0  0  0  0  0  0
  -22.9420  -13.6920   21.8340 N   0  0  0  0  0  0  0  0  0  0  0  0
  -23.3270  -15.3700   20.4170 O   0  0  0  0  0  0  0  0  0  0  0  0
  -23.2600  -12.8490   22.2880 H   0  0  0  0  0  0  0  0  0  0  0  0
  -22.0290  -14.0590   22.0610 H   0  0  0  0  0  0  0  0  0  0  0  0
  -26.4520  -15.8240   20.1890 N   0  0  0  0  0  0  0  0  0  0  0  0
  -25.7530  -16.5290   20.3890 H   0  0  0  0  0  0  0  0  0  0  0  0
  -27.3760  -16.2190   20.0660 H   0  0  0  0  0  0  0  0  0  0  0  0
  -29.4860  -22.5920   20.0450 C   0  0  0  0  0  2  0  0  0  0  0  0
  -30.0220  -23.4920   21.2010 C   0  0  0  0  0  2  0  0  0  0  0  0
  -29.5810  -24.9860   21.1670 C   0  0  0  0  0  2  0  0  0  0  0  0
  -30.0810  -25.8380   19.9780 C   0  0  0  0  0  2  0  0  0  0  0  0
  -29.8040  -27.2400   20.1580 O   0  0  0  0  0  0  0  0  0  0  0  0
  -24.8120  -31.3520   23.1230 C   0  0  0  0  0  0  0  0  0  0  0  0
  -28.5130  -27.7230   20.0600 C   0  0  0  0  0  0  0  0  0  0  0  0
  -24.0550  -29.9390   21.2380 C   0  0  0  0  0  3  0  0  0  0  0  0
  -25.9000  -28.8100   19.8880 C   0  0  0  0  0  0  0  0  0  0  0  0
  -26.4830  -30.7320   21.3790 C   0  0  0  0  0  2  0  0  0  0  0  0
  -26.8780  -29.4610   20.6490 C   0  0  0  0  0  0  0  0  0  0  0  0
  -28.1850  -28.9280   20.7270 C   0  0  0  0  0  3  0  0  0  0  0  0
  -27.5110  -27.0810   19.2960 C   0  0  0  0  0  3  0  0  0  0  0  0
  -26.2130  -27.6210   19.2080 C   0  0  0  0  0  3  0  0  0  0  0  0
  -24.5280  -29.4430   19.8460 C   0  0  0  0  0  2  0  0  0  0  0  0
  -25.1260  -30.6870   21.9740 N   0  0  0  0  0  0  0  0  0  0  0  0
  -23.6480  -31.3840   23.5460 O   0  0  0  0  0  0  0  0  0  0  0  0
  -23.4950  -28.7350   22.0270 C   0  0  0  0  0  0  0  0  0  0  0  0
  -22.2150  -28.4030   21.7870 N   0  0  0  0  0  0  0  0  0  0  0  0
  -24.2110  -28.1080   22.8120 O   0  0  0  0  0  0  0  0  0  0  0  0
  -21.6950  -28.9750   21.1350 H   0  0  0  0  0  0  0  0  0  0  0  0
  -18.9870  -26.7910   21.9750 C   0  0  0  0  0  0  0  0  0  0  0  0
  -21.4930  -27.2790   22.3810 C   0  0  0  0  0  3  0  0  0  0  0  0
  -21.7700  -25.9690   21.6090 C   0  0  0  0  0  2  0  0  0  0  0  0
  -20.7320  -25.6780   20.5190 C   0  0  0  0  0  2  0  0  0  0  0  0
  -19.3300  -25.5770   21.1250 C   0  0  0  0  0  2  0  0  0  0  0  0
  -20.0040  -27.5980   22.5520 C   0  0  0  0  0  0  0  0  0  0  0  0
  -19.6320  -28.7330   23.3030 C   0  0  0  0  0  3  0  0  0  0  0  0
  -18.2750  -29.0640   23.4850 C   0  0  0  0  0  3  0  0  0  0  0  0
  -17.2730  -28.2520   22.9250 C   0  0  0  0  0  3  0  0  0  0  0  0
  -17.6300  -27.1170   22.1730 C   0  0  0  0  0  3  0  0  0  0  0  0
  -25.8910  -32.1220   23.9460 C   0  0  0  0  0  3  0  0  0  0  0  0
  -25.3800  -33.4780   24.1870 N   0  0  0  0  0  0  0  0  0  0  0  0
  -25.7190  -34.5560   23.4680 C   0  0  0  0  0  0  0  0  0  0  0  0
  -26.5580  -34.5220   22.5640 O   0  0  0  0  0  0  0  0  0  0  0  0
  -24.6460  -33.5690   24.8740 H   0  0  0  0  0  0  0  0  0  0  0  0
  -23.8990  -36.1470   22.7760 C   0  0  0  0  0  1  0  0  0  0  0  0
  -25.0120  -35.8830   23.8020 C   0  0  0  0  0  3  0  0  0  0  0  0
  -26.8750  -36.9850   24.9610 C   0  0  0  0  0  1  0  0  0  0  0  0
  -25.9300  -37.0410   23.8490 N   0  0  0  0  0  0  0  0  0  0  0  0
  -25.4100  -37.9120   23.9190 H   0  0  0  0  0  0  0  0  0  0  0  0
  -26.2590  -31.4140   25.3070 C   0  0  1  0  0  0  0  0  0  0  0  0
  -25.0270  -30.9970   26.1450 C   0  0  0  0  0  1  0  0  0  0  0  0
  -27.1050  -30.1440   25.0490 C   0  0  0  0  0  1  0  0  0  0  0  0
  -27.1300  -32.3570   26.1700 C   0  0  0  0  0  1  0  0  0  0  0  0
  2  1  1  0
  3  6  1  0
  3  1  1  0
  4  3  1  0
  4  2  1  0
  4  5  1  6
  7  6  2  0
  7  8  1  0
  9  6  1  0
  9 10  1  0
 11 19  1  0
 12 17  1  0
 13 14  1  0
 13 12  1  0
 15 14  1  0
 15 24  1  0
 15 16  1  0
 17 11  1  0
 17 16  1  0
 18 11  2  0
 19 10  1  0
 19 20  1  0
 21 22  2  0
 22 41  1  0
 23 22  1  0
 23 26  1  0
 24 25  1  0
 24 21  1  0
 25 23  2  0
 26 27  1  0
 27 28  2  0
 29 32  1  0
 29 28  1  0
 30 29  2  0
 31 30  1  0
 31 26  2  0
 32 33  1  0
 33 34  1  0
 34 35  2  0
 36 35  1  0
 36 40  1  0
 37 36  2  0
 38 33  2  0
 38 37  1  0
 39 38  1  0
 41 42  1  0
 42 45  1  0
 42 44  1  0
 43 41  2  0
 46 21  1  0
 46 47  1  0
 48 46  1  0
 49  4  1  0
 49 50  1  0
 51 50  1  0
 52 53  1  0
 52 51  1  0
 54 65  2  0
 55 53  1  0
 55 60  1  0
 56 64  1  0
 56 66  1  0
 57 59  1  0
 58 64  1  0
 59 60  2  0
 59 58  1  0
 61 55  2  0
 62 61  1  0
 62 57  2  0
 63 57  1  0
 63 56  1  0
 64 54  1  0
 66 68  2  0
 67 66  1  0
 69 67  1  0
 70 79  2  0
 70 75  1  0
 71 67  1  0
 71 75  1  0
 72 71  1  0
 73 74  1  0
 73 72  1  0
 74 70  1  0
 75 76  2  0
 76 77  1  0
 78 77  2  0
 79 78  1  0
 80 54  1  0
 80 81  1  0
 80 90  1  0
 81 84  1  0
 82 86  1  0
 82 81  1  0
 83 82  2  0
 86 85  1  0
 86 88  1  0
 88 89  1  0
 88 87  1  0
 90 91  1  1
 90 93  1  0
 92 90  1  0
M  ISO  4  11 100  19 100  52 101  53 101
M  END
>  <TORSDO>  (12) 
F 23

>  <SCORE>  (12) 
-8.421

>  <name>  (12) 
11

>  <ligand_id>  (12) 
11

>  <original_smiles>  (12) 
[H]N=C(C([H])([H])C([H])([H])N([H])C(=O)N1C([H])([H])C([H])([H])C([H])([H])C([H])(n2nc(-c3c([H])c([H])c(Oc4c([H])c([H])c(F)c([H])c4F)c([H])c3[H])c(C(=O)N([H])[H])c2N([H])[H])C1([H])[H])C1([H])C([H])([H])C([H])([H])[N+]1([H])C([H])([H])C([H])([H])C([H])([H])C([H])([H])Oc1c([H])c([H])c2c(c1[H])C([H])([H])N(C(=O)C([H])(N([H])C(=O)C([H])(N([H])C([H])([H])[H])C([H])([H])[H])C(C([H])([H])[H])(C([H])([H])[H])C([H])([H])[H])C([H])(C(=O)N([H])C1([H])c3c([H])c([H])c([H])c([H])c3C([H])([H])C([H])([H])C1([H])[H])C2([H])[H]

>  <smiles>  (12) 
[H]N=C(C([H])([H])C([H])([H])N([H])C(=O)N1C([H])([H])C([H])([H])C([H])([H])C([H])(n2nc(-c3c([H])c([H])c(Oc4c([H])c([H])c(F)c([H])c4F)c([H])c3[H])c(C(=O)N([H])[H])c2N([H])[H])C1([H])[H])C1([H])C([H])([H])C([H])([H])[N+]1([H])C([H])([H])C([H])([H])C([H])([H])C([H])([H])Oc1c([H])c([H])c2c(c1[H])C([H])([H])N(C(=O)C([H])(N([H])C(=O)C([H])(N([H])C([H])([H])[H])C([H])([H])[H])C(C([H])([H])[H])(C([H])([H])[H])C([H])([H])[H])C([H])(C(=O)N([H])C1([H])c3c([H])c([H])c([H])c([H])c3C([H])([H])C([H])([H])C1([H])[H])C2([H])[H]

$$$$
12:0:0
     RDKit          3D

 94102  0  0  1  0  0  0  0  0999 V2000
  -29.6600  -19.3370   19.9560 C   0  0  0  0  0  3  0  0  0  0  0  0
  -29.4390  -18.0010   19.9450 C   0  0  0  0  0  0  0  0  0  0  0  0
  -28.0730  -17.4110   19.6390 C   0  0  0  0  0  1  0  0  0  0  0  0
  -30.7740  -14.5470   20.3820 C   0  0  0  0  0  0  0  0  0  0  0  0
  -30.3790  -12.3240   19.4920 C   0  0  0  0  0  2  0  0  0  0  0  0
  -29.4660  -12.4080   18.2550 C   0  0  0  0  0  2  0  0  0  0  0  0
  -27.9900  -12.3280   18.6680 C   0  0  0  0  0  2  0  0  0  0  0  0
  -27.6200  -13.2650   19.8500 C   0  0  0  0  0  3  0  0  0  0  0  0
  -28.6730  -13.2450   20.9830 C   0  0  0  0  0  2  0  0  0  0  0  0
  -29.9980  -13.4310   20.3700 N   0  0  0  0  0  0  0  0  0  0  0  0
  -31.9920  -14.4910   20.5120 O   0  0  0  0  0  0  0  0  0  0  0  0
  -31.9360  -17.4320   19.6330 C   0  0  0  0  0  2  0  0  0  0  0  0
  -30.7860  -15.7930   18.2950 C   0  0  0  0  0  2  0  0  0  0  0  0
  -30.5680  -16.9870   20.2330 C   0  0  0  0  0  3  0  0  0  0  0  0
  -32.0930  -16.6010   18.3670 C   0  0  0  0  0  3  0  0  0  0  0  0
  -30.3020  -15.6250   19.6910 N   0  0  0  0  0  0  0  0  0  0  0  0
  -25.2100  -13.8620   20.5100 C   0  0  0  0  0  0  0  0  0  0  0  0
  -24.1330  -13.0930   20.8540 C   0  0  0  0  0  0  0  0  0  0  0  0
  -24.6030  -11.7440   20.8690 C   0  0  0  0  0  0  0  0  0  0  0  0
  -26.2690  -12.9880   20.3350 N   0  0  0  0  0  0  0  0  0  0  0  0
  -25.9060  -11.7080   20.6150 N   0  0  0  0  0  0  0  0  0  0  0  0
  -23.8710  -10.4830   21.0500 C   0  0  0  0  0  0  0  0  0  0  0  0
  -24.2780   -9.5250   22.0030 C   0  0  0  0  0  3  0  0  0  0  0  0
  -23.5490   -8.3310   22.1750 C   0  0  0  0  0  3  0  0  0  0  0  0
  -22.3960   -8.0840   21.3930 C   0  0  0  0  0  0  0  0  0  0  0  0
  -22.0090   -9.0280   20.4260 C   0  0  0  0  0  3  0  0  0  0  0  0
  -22.7390  -10.2170   20.2530 C   0  0  0  0  0  3  0  0  0  0  0  0
  -21.6370   -6.9420   21.4740 O   0  0  0  0  0  0  0  0  0  0  0  0
  -21.5640   -6.2060   22.6290 C   0  0  0  0  0  0  0  0  0  0  0  0
  -21.1250   -6.7710   23.8470 C   0  0  0  0  0  3  0  0  0  0  0  0
  -21.0030   -5.9610   24.9940 C   0  0  0  0  0  3  0  0  0  0  0  0
  -21.3080   -4.5900   24.9230 C   0  0  0  0  0  0  0  0  0  0  0  0
  -21.7390   -4.0240   23.7100 C   0  0  0  0  0  3  0  0  0  0  0  0
  -21.8650   -4.8320   22.5660 C   0  0  0  0  0  0  0  0  0  0  0  0
  -22.2610   -4.2790   21.3940 F   0  0  0  0  0  0  0  0  0  0  0  0
  -21.1820   -3.8080   26.0230 F   0  0  0  0  0  0  0  0  0  0  0  0
  -22.7240  -13.5710   21.0550 C   0  0  0  0  0  0  0  0  0  0  0  0
  -21.9620  -12.8930   21.9050 N   0  0  0  0  0  0  0  0  0  0  0  0
  -22.3070  -14.5850   20.4950 O   0  0  0  0  0  0  0  0  0  0  0  0
  -22.3120  -12.0800   22.3880 H   0  0  0  0  0  0  0  0  0  0  0  0
  -21.0140  -13.1940   22.0800 H   0  0  0  0  0  0  0  0  0  0  0  0
  -25.3640  -15.2270   20.3020 N   0  0  0  0  0  0  0  0  0  0  0  0
  -24.5740  -15.8590   20.3560 H   0  0  0  0  0  0  0  0  0  0  0  0
  -26.2190  -15.6770   20.0030 H   0  0  0  0  0  0  0  0  0  0  0  0
  -32.4120  -17.3780   17.1490 N   0  0  0  0  0  4  0  0  0  0  0  0
  -31.6920  -18.0390   16.9190 H   0  0  0  0  0  0  0  0  0  0  0  0
  -32.5530  -16.7700   16.3620 H   0  0  0  0  0  0  0  0  0  0  0  0
  -33.2670  -17.8870   17.2800 H   0  0  0  0  0  0  0  0  0  0  0  0
  -28.6820  -20.4550   19.6190 C   0  0  0  0  0  2  0  0  0  0  0  0
  -29.2290  -21.8330   20.0500 C   0  0  0  0  0  2  0  0  0  0  0  0
  -28.5660  -23.0430   19.3640 C   0  0  0  0  0  2  0  0  0  0  0  0
  -28.8600  -24.3700   20.0960 C   0  0  0  0  0  2  0  0  0  0  0  0
  -28.6040  -25.6330   19.2500 C   0  0  0  0  0  2  0  0  0  0  0  0
  -28.4270  -26.7720   20.1060 O   0  0  0  0  0  0  0  0  0  0  0  0
  -24.5910  -31.8920   23.2410 C   0  0  0  0  0  0  0  0  0  0  0  0
  -27.2180  -27.4430   20.1380 C   0  0  0  0  0  0  0  0  0  0  0  0
  -23.3740  -30.4970   21.6020 C   0  0  0  0  0  3  0  0  0  0  0  0
  -24.8170  -28.9580   20.1750 C   0  0  0  0  0  0  0  0  0  0  0  0
  -25.9050  -30.8390   21.4020 C   0  0  0  0  0  2  0  0  0  0  0  0
  -25.9770  -29.4700   20.7690 C   0  0  0  0  0  0  0  0  0  0  0  0
  -27.1710  -28.7110   20.7640 C   0  0  0  0  0  3  0  0  0  0  0  0
  -26.0210  -26.9320   19.5800 C   0  0  0  0  0  3  0  0  0  0  0  0
  -24.8330  -27.6840   19.5890 C   0  0  0  0  0  3  0  0  0  0  0  0
  -23.5740  -29.8200   20.2200 C   0  0  0  0  0  2  0  0  0  0  0  0
  -24.6430  -31.0940   22.1380 N   0  0  0  0  0  0  0  0  0  0  0  0
  -23.5120  -32.1620   23.7860 O   0  0  0  0  0  0  0  0  0  0  0  0
  -22.7290  -29.4720   22.5590 C   0  0  0  0  0  0  0  0  0  0  0  0
  -21.4040  -29.2890   22.4390 N   0  0  0  0  0  0  0  0  0  0  0  0
  -23.4190  -28.8400   23.3650 O   0  0  0  0  0  0  0  0  0  0  0  0
  -20.9080  -29.8460   21.7560 H   0  0  0  0  0  0  0  0  0  0  0  0
  -18.0320  -28.1060   22.9490 C   0  0  0  0  0  0  0  0  0  0  0  0
  -20.5930  -28.3520   23.2110 C   0  0  0  0  0  3  0  0  0  0  0  0
  -20.6880  -26.9220   22.6310 C   0  0  0  0  0  2  0  0  0  0  0  0
  -19.5820  -26.6060   21.6200 C   0  0  0  0  0  2  0  0  0  0  0  0
  -18.2020  -26.7580   22.2680 C   0  0  0  0  0  2  0  0  0  0  0  0
  -19.1570  -28.8600   23.3780 C   0  0  0  0  0  0  0  0  0  0  0  0
  -18.9490  -30.1250   23.9710 C   0  0  0  0  0  3  0  0  0  0  0  0
  -17.6490  -30.6330   24.1440 C   0  0  0  0  0  3  0  0  0  0  0  0
  -16.5370  -29.8750   23.7330 C   0  0  0  0  0  3  0  0  0  0  0  0
  -16.7300  -28.6140   23.1400 C   0  0  0  0  0  3  0  0  0  0  0  0
  -25.8790  -32.5210   23.8570 C   0  0  0  0  0  3  0  0  0  0  0  0
  -25.5750  -33.9210   24.1840 N   0  0  0  0  0  0  0  0  0  0  0  0
  -25.9100  -34.9700   23.4230 C   0  0  0  0  0  0  0  0  0  0  0  0
  -26.5820  -34.8640   22.3930 O   0  0  0  0  0  0  0  0  0  0  0  0
  -24.9950  -34.0810   24.9950 H   0  0  0  0  0  0  0  0  0  0  0  0
  -24.1860  -36.7620   23.0600 C   0  0  0  0  0  1  0  0  0  0  0  0
  -25.4230  -36.3590   23.8760 C   0  0  0  0  0  3  0  0  0  0  0  0
  -27.5530  -37.2390   24.7150 C   0  0  0  0  0  1  0  0  0  0  0  0
  -26.4540  -37.4130   23.7670 N   0  0  0  0  0  0  0  0  0  0  0  0
  -26.0480  -38.3330   23.9180 H   0  0  0  0  0  0  0  0  0  0  0  0
  -26.3960  -31.7520   25.1340 C   0  0  1  0  0  0  0  0  0  0  0  0
  -25.3050  -31.5180   26.2050 C   0  0  0  0  0  1  0  0  0  0  0  0
  -26.9730  -30.3730   24.7360 C   0  0  0  0  0  1  0  0  0  0  0  0
  -27.5460  -32.5450   25.7940 C   0  0  0  0  0  1  0  0  0  0  0  0
  2  1  2  0
  3  2  1  0
  4 11  2  0
  5 10  1  0
  6  7  1  0
  6  5  1  0
  8  7  1  0
  8 20  1  0
  8  9  1  0
 10  4  1  0
 10  9  1  0
 12 14  1  0
 13 15  1  0
 13 16  1  0
 14  2  1  0
 15 45  1  0
 15 12  1  0
 16 14  1  0
 16  4  1  0
 17 18  2  0
 18 19  1  0
 18 37  1  0
 19 22  1  0
 20 17  1  0
 20 21  1  0
 21 19  2  0
 22 23  1  0
 23 24  2  0
 25 28  1  0
 25 24  1  0
 26 25  2  0
 27 26  1  0
 27 22  2  0
 28 29  1  0
 29 30  1  0
 30 31  2  0
 32 31  1  0
 32 36  1  0
 33 32  2  0
 34 29  2  0
 34 33  1  0
 35 34  1  0
 37 38  1  0
 38 41  1  0
 38 40  1  0
 39 37  2  0
 42 43  1  0
 42 17  1  0
 44 42  1  0
 45 48  1  0
 46 45  1  0
 47 45  1  0
 49  1  1  0
 49 50  1  0
 51 50  1  0
 51 52  1  0
 53 52  1  0
 53 54  1  0
 54 56  1  0
 55 66  2  0
 56 61  1  0
 57 65  1  0
 57 67  1  0
 58 64  1  0
 58 60  1  0
 59 65  1  0
 60 59  1  0
 61 60  2  0
 62 63  1  0
 62 56  2  0
 63 58  2  0
 64 57  1  0
 65 55  1  0
 67 69  2  0
 68 67  1  0
 70 68  1  0
 71 80  2  0
 71 76  1  0
 72 68  1  0
 72 76  1  0
 73 72  1  0
 74 75  1  0
 74 73  1  0
 75 71  1  0
 76 77  2  0
 77 78  1  0
 79 78  2  0
 80 79  1  0
 81 55  1  0
 81 82  1  0
 81 91  1  0
 82 85  1  0
 83 87  1  0
 83 82  1  0
 84 83  2  0
 87 86  1  0
 89 87  1  0
 89 90  1  0
 89 88  1  0
 91 94  1  1
 91 92  1  0
 93 91  1  0
M  ISO  4   4 100  16 100  53 101  54 101
M  END
>  <TORSDO>  (13) 
F 22

>  <SCORE>  (13) 
-13.116

>  <name>  (13) 
12

>  <ligand_id>  (13) 
12

>  <original_smiles>  (13) 
[H]C(=C(C([H])([H])[H])C1([H])N(C(=O)N2C([H])([H])C([H])([H])C([H])([H])C([H])(n3nc(-c4c([H])c([H])c(Oc5c([H])c([H])c(F)c([H])c5F)c([H])c4[H])c(C(=O)N([H])[H])c3N([H])[H])C2([H])[H])C([H])([H])C([H])([N+]([H])([H])[H])C1([H])[H])C([H])([H])C([H])([H])C([H])([H])C([H])([H])C([H])([H])Oc1c([H])c([H])c2c(c1[H])C([H])([H])N(C(=O)C([H])(N([H])C(=O)C([H])(N([H])C([H])([H])[H])C([H])([H])[H])C(C([H])([H])[H])(C([H])([H])[H])C([H])([H])[H])C([H])(C(=O)N([H])C1([H])c3c([H])c([H])c([H])c([H])c3C([H])([H])C([H])([H])C1([H])[H])C2([H])[H]

>  <smiles>  (13) 
[H]C(=C(C([H])([H])[H])C1([H])N(C(=O)N2C([H])([H])C([H])([H])C([H])([H])C([H])(n3nc(-c4c([H])c([H])c(Oc5c([H])c([H])c(F)c([H])c5F)c([H])c4[H])c(C(=O)N([H])[H])c3N([H])[H])C2([H])[H])C([H])([H])C([H])([N+]([H])([H])[H])C1([H])[H])C([H])([H])C([H])([H])C([H])([H])C([H])([H])C([H])([H])Oc1c([H])c([H])c2c(c1[H])C([H])([H])N(C(=O)C([H])(N([H])C(=O)C([H])(N([H])C([H])([H])[H])C([H])([H])[H])C(C([H])([H])[H])(C([H])([H])[H])C([H])([H])[H])C([H])(C(=O)N([H])C1([H])c3c([H])c([H])c([H])c([H])c3C([H])([H])C([H])([H])C1([H])[H])C2([H])[H]

$$$$
13:0:0
     RDKit          3D

 95103  0  0  1  0  0  0  0  0999 V2000
  -26.2360  -21.7140   19.3380 C   0  0  0  0  0  3  0  0  0  0  0  0
  -27.1350  -20.8260   19.9450 C   0  0  0  0  0  3  0  0  0  0  0  0
  -26.7140  -22.9710   18.9390 C   0  0  0  0  0  3  0  0  0  0  0  0
  -28.4690  -21.2300   20.1080 C   0  0  0  0  0  0  0  0  0  0  0  0
  -28.0670  -23.3040   19.1510 C   0  0  0  0  0  0  0  0  0  0  0  0
  -28.9420  -22.4490   19.7400 N   0  0  0  0  0  0  0  0  0  0  0  0
  -29.3990  -20.3570   20.8250 C   0  0  0  0  0  0  0  0  0  0  0  0
  -29.4710  -20.4800   22.1550 N   0  0  0  0  0  4  0  0  0  0  0  0
  -30.0980  -19.4070   20.1720 N   0  0  0  0  0  0  0  0  0  0  0  0
  -28.9200  -21.2050   22.5870 H   0  0  0  0  0  0  0  0  0  0  0  0
  -30.0930  -19.9470   22.7360 H   0  0  0  0  0  0  0  0  0  0  0  0
  -30.0800  -19.4720   19.1640 H   0  0  0  0  0  0  0  0  0  0  0  0
  -30.9260  -18.3470   20.7830 C   0  0  0  0  0  2  0  0  0  0  0  0
  -31.3760  -17.2740   19.7630 C   0  0  0  0  0  2  0  0  0  0  0  0
  -31.5190  -14.8120   19.6200 C   0  0  0  0  0  0  0  0  0  0  0  0
  -31.1850  -12.4630   18.9610 C   0  0  0  0  0  2  0  0  0  0  0  0
  -30.2140  -12.3960   17.7650 C   0  0  0  0  0  2  0  0  0  0  0  0
  -28.7520  -12.3510   18.2530 C   0  0  0  0  0  2  0  0  0  0  0  0
  -28.4400  -13.4480   19.3060 C   0  0  0  0  0  3  0  0  0  0  0  0
  -29.5220  -13.4880   20.4090 C   0  0  0  0  0  2  0  0  0  0  0  0
  -30.8340  -13.6470   19.7610 N   0  0  0  0  0  0  0  0  0  0  0  0
  -32.5810  -14.8980   18.9990 O   0  0  0  0  0  0  0  0  0  0  0  0
  -30.9210  -15.9150   20.0940 N   0  0  0  0  0  0  0  0  0  0  0  0
  -30.0560  -15.7980   20.6000 H   0  0  0  0  0  0  0  0  0  0  0  0
  -26.1530  -14.2440   20.1860 C   0  0  0  0  0  0  0  0  0  0  0  0
  -25.0480  -13.5580   20.6160 C   0  0  0  0  0  0  0  0  0  0  0  0
  -25.3830  -12.1720   20.5200 C   0  0  0  0  0  0  0  0  0  0  0  0
  -27.0990  -13.2810   19.8680 N   0  0  0  0  0  0  0  0  0  0  0  0
  -26.6410  -12.0290   20.1240 N   0  0  0  0  0  0  0  0  0  0  0  0
  -24.5600  -10.9730   20.7270 C   0  0  0  0  0  0  0  0  0  0  0  0
  -24.9230   -9.9810   21.6650 C   0  0  0  0  0  3  0  0  0  0  0  0
  -24.1050   -8.8450   21.8580 C   0  0  0  0  0  3  0  0  0  0  0  0
  -22.9110   -8.6960   21.1150 C   0  0  0  0  0  0  0  0  0  0  0  0
  -22.5680   -9.6740   20.1650 C   0  0  0  0  0  3  0  0  0  0  0  0
  -23.3860  -10.8000   19.9680 C   0  0  0  0  0  3  0  0  0  0  0  0
  -22.0690   -7.6160   21.2180 O   0  0  0  0  0  0  0  0  0  0  0  0
  -21.9010   -6.9440   22.4030 C   0  0  0  0  0  0  0  0  0  0  0  0
  -21.4540   -7.5950   23.5720 C   0  0  0  0  0  3  0  0  0  0  0  0
  -21.2320   -6.8540   24.7510 C   0  0  0  0  0  3  0  0  0  0  0  0
  -21.4470   -5.4630   24.7590 C   0  0  0  0  0  0  0  0  0  0  0  0
  -21.8880   -4.8110   23.5940 C   0  0  0  0  0  3  0  0  0  0  0  0
  -22.1130   -5.5500   22.4180 C   0  0  0  0  0  0  0  0  0  0  0  0
  -22.5180   -4.9130   21.2930 F   0  0  0  0  0  0  0  0  0  0  0  0
  -21.2260   -4.7500   25.8880 F   0  0  0  0  0  0  0  0  0  0  0  0
  -23.7210  -14.1480   20.9950 C   0  0  0  0  0  0  0  0  0  0  0  0
  -23.0010  -13.5030   21.9060 N   0  0  0  0  0  0  0  0  0  0  0  0
  -23.3360  -15.2160   20.5200 O   0  0  0  0  0  0  0  0  0  0  0  0
  -23.3220  -12.6350   22.3090 H   0  0  0  0  0  0  0  0  0  0  0  0
  -22.1120  -13.8790   22.2020 H   0  0  0  0  0  0  0  0  0  0  0  0
  -26.4290  -15.5970   20.0180 N   0  0  0  0  0  0  0  0  0  0  0  0
  -25.7080  -16.3050   20.1150 H   0  0  0  0  0  0  0  0  0  0  0  0
  -27.2630  -15.9430   19.5640 H   0  0  0  0  0  0  0  0  0  0  0  0
  -28.5630  -24.6780   18.7030 C   0  0  0  0  0  2  0  0  0  0  0  0
  -28.1970  -25.8150   19.6830 C   0  0  0  0  0  2  0  0  0  0  0  0
  -28.1790  -27.1130   19.0560 O   0  0  0  0  0  0  0  0  0  0  0  0
  -24.4890  -31.6810   23.0630 C   0  0  0  0  0  0  0  0  0  0  0  0
  -27.0010  -27.8110   19.2140 C   0  0  0  0  0  0  0  0  0  0  0  0
  -23.1910  -30.4580   21.3510 C   0  0  0  0  0  3  0  0  0  0  0  0
  -24.5660  -29.1880   19.6150 C   0  0  0  0  0  0  0  0  0  0  0  0
  -25.6750  -30.9540   20.9940 C   0  0  0  0  0  2  0  0  0  0  0  0
  -25.7520  -29.6870   20.1690 C   0  0  0  0  0  0  0  0  0  0  0  0
  -26.9750  -29.0100   19.9600 C   0  0  0  0  0  3  0  0  0  0  0  0
  -25.8020  -27.3330   18.6420 C   0  0  0  0  0  3  0  0  0  0  0  0
  -24.5850  -28.0120   18.8440 C   0  0  0  0  0  3  0  0  0  0  0  0
  -23.3010  -29.9720   19.8810 C   0  0  0  0  0  2  0  0  0  0  0  0
  -24.4750  -31.0370   21.8630 N   0  0  0  0  0  0  0  0  0  0  0  0
  -23.4510  -31.8340   23.7210 O   0  0  0  0  0  0  0  0  0  0  0  0
  -22.6560  -29.2930   22.2150 C   0  0  0  0  0  0  0  0  0  0  0  0
  -21.3380  -29.0450   22.1340 N   0  0  0  0  0  0  0  0  0  0  0  0
  -23.4180  -28.6200   22.9130 O   0  0  0  0  0  0  0  0  0  0  0  0
  -20.7780  -29.6440   21.5440 H   0  0  0  0  0  0  0  0  0  0  0  0
  -18.0870  -27.5380   22.5770 C   0  0  0  0  0  0  0  0  0  0  0  0
  -20.6220  -27.9730   22.8240 C   0  0  0  0  0  3  0  0  0  0  0  0
  -20.8230  -26.6130   22.1170 C   0  0  0  0  0  2  0  0  0  0  0  0
  -19.7250  -26.2830   21.1010 C   0  0  0  0  0  2  0  0  0  0  0  0
  -18.3470  -26.2790   21.7690 C   0  0  0  0  0  2  0  0  0  0  0  0
  -19.1540  -28.3410   23.0580 C   0  0  0  0  0  0  0  0  0  0  0  0
  -18.8550  -29.5200   23.7730 C   0  0  0  0  0  3  0  0  0  0  0  0
  -17.5220  -29.9000   24.0130 C   0  0  0  0  0  3  0  0  0  0  0  0
  -16.4690  -29.0920   23.5500 C   0  0  0  0  0  3  0  0  0  0  0  0
  -16.7530  -27.9140   22.8370 C   0  0  0  0  0  3  0  0  0  0  0  0
  -25.8030  -32.2790   23.6570 C   0  0  0  0  0  3  0  0  0  0  0  0
  -25.4900  -33.6230   24.1600 N   0  0  0  0  0  0  0  0  0  0  0  0
  -25.7750  -34.7610   23.5130 C   0  0  0  0  0  0  0  0  0  0  0  0
  -26.4000  -34.7890   22.4510 O   0  0  0  0  0  0  0  0  0  0  0  0
  -24.9290  -33.6730   24.9980 H   0  0  0  0  0  0  0  0  0  0  0  0
  -24.0120  -36.5530   23.4380 C   0  0  0  0  0  1  0  0  0  0  0  0
  -25.2890  -36.0780   24.1490 C   0  0  0  0  0  3  0  0  0  0  0  0
  -27.4450  -36.8960   24.9920 C   0  0  0  0  0  1  0  0  0  0  0  0
  -26.3030  -37.1550   24.1200 N   0  0  0  0  0  0  0  0  0  0  0  0
  -25.8930  -38.0440   24.3900 H   0  0  0  0  0  0  0  0  0  0  0  0
  -26.4310  -31.3860   24.7980 C   0  0  1  0  0  0  0  0  0  0  0  0
  -25.4310  -31.0100   25.9170 C   0  0  0  0  0  1  0  0  0  0  0  0
  -27.0010  -30.0740   24.2090 C   0  0  0  0  0  1  0  0  0  0  0  0
  -27.6170  -32.1320   25.4520 C   0  0  0  0  0  1  0  0  0  0  0  0
  1  2  1  0
  2  4  2  0
  3  5  1  0
  3  1  2  0
  4  7  1  0
  5  6  2  0
  6  4  1  0
  7  8  2  0
  8 10  1  0
  8 11  1  0
  9 13  1  0
  9  7  1  0
 12  9  1  0
 14 23  1  0
 14 13  1  0
 15 21  1  0
 15 23  1  0
 16 21  1  0
 17 18  1  0
 17 16  1  0
 19 18  1  0
 19 28  1  0
 19 20  1  0
 21 20  1  0
 22 15  2  0
 23 24  1  0
 25 26  2  0
 26 45  1  0
 27 26  1  0
 27 30  1  0
 28 29  1  0
 28 25  1  0
 29 27  2  0
 30 31  1  0
 31 32  2  0
 33 36  1  0
 33 32  1  0
 34 33  2  0
 35 34  1  0
 35 30  2  0
 36 37  1  0
 37 42  2  0
 37 38  1  0
 38 39  2  0
 39 40  1  0
 40 44  1  0
 41 40  2  0
 42 41  1  0
 43 42  1  0
 45 46  1  0
 46 49  1  0
 46 48  1  0
 47 45  2  0
 50 51  1  0
 50 25  1  0
 52 50  1  0
 53  5  1  0
 53 54  1  0
 55 57  1  0
 55 54  1  0
 56 67  2  0
 57 62  1  0
 58 66  1  0
 58 68  1  0
 59 65  1  0
 59 61  1  0
 60 66  1  0
 61 60  1  0
 62 61  2  0
 63 64  1  0
 63 57  2  0
 64 59  2  0
 65 58  1  0
 66 56  1  0
 68 70  2  0
 69 68  1  0
 71 69  1  0
 72 81  2  0
 72 77  1  0
 73 69  1  0
 73 77  1  0
 74 73  1  0
 75 76  1  0
 75 74  1  0
 76 72  1  0
 77 78  2  0
 78 79  1  0
 80 79  2  0
 81 80  1  0
 82 56  1  0
 82 83  1  0
 82 92  1  0
 83 86  1  0
 84 88  1  0
 84 83  1  0
 85 84  2  0
 88 87  1  0
 90 88  1  0
 90 91  1  0
 90 89  1  0
 92 95  1  1
 92 93  1  0
 94 92  1  0
M  ISO  4  15 100  23 100  54 101  55 101
M  END
>  <TORSDO>  (14) 
F 21

>  <SCORE>  (14) 
-10.866

>  <name>  (14) 
13

>  <ligand_id>  (14) 
13

>  <original_smiles>  (14) 
[H]c1c(C(N([H])[H])=[N+]([H])C([H])([H])C([H])([H])N([H])C(=O)N2C([H])([H])C([H])([H])C([H])([H])C([H])(n3nc(-c4c([H])c([H])c(Oc5c([H])c([H])c(F)c([H])c5F)c([H])c4[H])c(C(=O)N([H])[H])c3N([H])[H])C2([H])[H])nc(C([H])([H])C([H])([H])Oc2c([H])c([H])c3c(c2[H])C([H])([H])N(C(=O)C([H])(N([H])C(=O)C([H])(N([H])C([H])([H])[H])C([H])([H])[H])C(C([H])([H])[H])(C([H])([H])[H])C([H])([H])[H])C([H])(C(=O)N([H])C2([H])c4c([H])c([H])c([H])c([H])c4C([H])([H])C([H])([H])C2([H])[H])C3([H])[H])c([H])c1[H]

>  <smiles>  (14) 
[H]c1c(C(N([H])[H])=[N+]([H])C([H])([H])C([H])([H])N([H])C(=O)N2C([H])([H])C([H])([H])C([H])([H])C([H])(n3nc(-c4c([H])c([H])c(Oc5c([H])c([H])c(F)c([H])c5F)c([H])c4[H])c(C(=O)N([H])[H])c3N([H])[H])C2([H])[H])nc(C([H])([H])C([H])([H])Oc2c([H])c([H])c3c(c2[H])C([H])([H])N(C(=O)C([H])(N([H])C(=O)C([H])(N([H])C([H])([H])[H])C([H])([H])[H])C(C([H])([H])[H])(C([H])([H])[H])C([H])([H])[H])C([H])(C(=O)N([H])C2([H])c4c([H])c([H])c([H])c([H])c4C([H])([H])C([H])([H])C2([H])[H])C3([H])[H])c([H])c1[H]

$$$$
14:0:0
     RDKit          3D

101109  0  0  1  0  0  0  0  0999 V2000
  -33.2150  -20.6860   22.6450 C   0  0  0  0  0  1  0  0  0  0  0  0
  -32.2920  -20.1840   21.6250 N   0  0  0  0  0  0  0  0  0  0  0  0
  -30.3450  -20.9600   20.1270 C   0  0  0  0  0  2  0  0  0  0  0  0
  -31.4510  -21.0620   20.9220 C   0  0  0  0  0  3  0  0  0  0  0  0
  -30.3040  -22.3050   19.9690 C   0  0  0  0  0  3  0  0  0  0  0  0
  -31.4800  -22.5090   20.7690 C   0  0  0  0  0  0  0  0  0  0  0  0
  -29.5910  -23.1550   19.3720 N   0  0  0  0  0  2  0  0  0  0  0  0
  -32.1710  -23.4590   21.1480 O   0  0  0  0  0  0  0  0  0  0  0  0
  -28.7190  -23.9610   20.2090 C   0  0  0  0  0  2  0  0  0  0  0  0
  -28.5150  -25.3780   19.6390 C   0  0  0  0  0  2  0  0  0  0  0  0
  -27.4120  -25.4120   18.7260 O   0  0  0  0  0  0  0  0  0  0  0  0
  -24.7540  -30.5840   22.8590 C   0  0  0  0  0  0  0  0  0  0  0  0
  -26.4360  -26.3600   18.9490 C   0  0  0  0  0  0  0  0  0  0  0  0
  -23.2450  -29.7190   21.0960 C   0  0  0  0  0  3  0  0  0  0  0  0
  -24.3370  -28.2140   19.3490 C   0  0  0  0  0  0  0  0  0  0  0  0
  -25.7790  -29.6760   20.7810 C   0  0  0  0  0  2  0  0  0  0  0  0
  -25.5910  -28.4380   19.9320 C   0  0  0  0  0  0  0  0  0  0  0  0
  -26.6430  -27.5230   19.7300 C   0  0  0  0  0  3  0  0  0  0  0  0
  -25.1730  -26.1550   18.3570 C   0  0  0  0  0  3  0  0  0  0  0  0
  -24.1210  -27.0710   18.5590 C   0  0  0  0  0  3  0  0  0  0  0  0
  -23.2710  -29.2530   19.6150 C   0  0  0  0  0  2  0  0  0  0  0  0
  -24.6160  -29.9930   21.6390 N   0  0  0  0  0  0  0  0  0  0  0  0
  -23.7640  -30.9450   23.5120 O   0  0  0  0  0  0  0  0  0  0  0  0
  -22.4540  -28.6840   21.9250 C   0  0  0  0  0  0  0  0  0  0  0  0
  -21.1150  -28.7850   21.8860 N   0  0  0  0  0  0  0  0  0  0  0  0
  -23.0380  -27.7980   22.5560 O   0  0  0  0  0  0  0  0  0  0  0  0
  -20.7150  -29.5420   21.3480 H   0  0  0  0  0  0  0  0  0  0  0  0
  -17.6040  -28.2290   22.5160 C   0  0  0  0  0  0  0  0  0  0  0  0
  -20.1670  -27.8980   22.5550 C   0  0  0  0  0  3  0  0  0  0  0  0
  -19.9120  -26.6230   21.7180 C   0  0  0  0  0  2  0  0  0  0  0  0
  -18.7030  -26.7450   20.7850 C   0  0  0  0  0  2  0  0  0  0  0  0
  -17.4330  -27.0390   21.5890 C   0  0  0  0  0  2  0  0  0  0  0  0
  -18.8890  -28.6420   22.9580 C   0  0  0  0  0  0  0  0  0  0  0  0
  -18.9950  -29.7770   23.7920 C   0  0  0  0  0  3  0  0  0  0  0  0
  -17.8470  -30.4910   24.1850 C   0  0  0  0  0  3  0  0  0  0  0  0
  -16.5760  -30.0680   23.7570 C   0  0  0  0  0  3  0  0  0  0  0  0
  -16.4560  -28.9370   22.9300 C   0  0  0  0  0  3  0  0  0  0  0  0
  -26.1590  -30.8590   23.4830 C   0  0  0  0  0  3  0  0  0  0  0  0
  -26.6210  -29.7400   24.4950 C   0  0  1  0  0  0  0  0  0  0  0  0
  -25.5770  -29.4250   25.5920 C   0  0  0  0  0  1  0  0  0  0  0  0
  -26.9340  -28.4250   23.7440 C   0  0  0  0  0  1  0  0  0  0  0  0
  -27.9350  -30.1720   25.1890 C   0  0  0  0  0  1  0  0  0  0  0  0
  -26.1000  -32.1680   24.1450 N   0  0  0  0  0  0  0  0  0  0  0  0
  -26.6530  -33.2880   23.6610 C   0  0  0  0  0  0  0  0  0  0  0  0
  -27.3350  -33.3090   22.6340 O   0  0  0  0  0  0  0  0  0  0  0  0
  -25.5080  -32.2360   24.9610 H   0  0  0  0  0  0  0  0  0  0  0  0
  -25.3330  -35.4280   23.7310 C   0  0  0  0  0  1  0  0  0  0  0  0
  -26.4080  -34.5930   24.4430 C   0  0  0  0  0  3  0  0  0  0  0  0
  -28.6040  -34.7950   25.5240 C   0  0  0  0  0  1  0  0  0  0  0  0
  -27.6290  -35.4070   24.6250 N   0  0  0  0  0  0  0  0  0  0  0  0
  -27.3960  -36.3270   24.9900 H   0  0  0  0  0  0  0  0  0  0  0  0
  -33.4960  -18.6070   20.1740 C   0  0  0  0  0  1  0  0  0  0  0  0
  -32.4460  -18.7560   21.2860 C   0  0  0  0  0  3  0  0  0  0  0  0
  -31.0800  -18.0670   20.9770 C   0  0  0  0  0  3  0  0  0  0  0  0
  -30.3280  -17.9560   22.2260 N   0  0  0  0  0  0  0  0  0  0  0  0
  -30.8170  -17.3780   22.9000 H   0  0  0  0  0  0  0  0  0  0  0  0
  -29.4080  -17.5520   22.1200 H   0  0  0  0  0  0  0  0  0  0  0  0
  -31.1490  -16.6840   20.2470 C   0  0  0  0  0  3  0  0  0  0  0  0
  -29.8370  -16.3780   19.6450 N   0  0  0  0  0  4  0  0  0  0  0  0
  -29.1660  -16.1300   20.3490 H   0  0  0  0  0  0  0  0  0  0  0  0
  -29.9200  -15.6190   18.9970 H   0  0  0  0  0  0  0  0  0  0  0  0
  -29.4940  -17.1810   19.1480 H   0  0  0  0  0  0  0  0  0  0  0  0
  -31.6910  -15.4860   21.0810 C   0  0  0  0  0  2  0  0  0  0  0  0
  -31.2740  -13.3020   19.9110 C   0  0  0  0  0  0  0  0  0  0  0  0
  -30.6410  -11.1520   18.8710 C   0  0  0  0  0  2  0  0  0  0  0  0
  -29.6290  -11.3540   17.7270 C   0  0  0  0  0  2  0  0  0  0  0  0
  -28.1890  -11.3820   18.2700 C   0  0  0  0  0  2  0  0  0  0  0  0
  -28.0270  -12.3460   19.4730 C   0  0  0  0  0  3  0  0  0  0  0  0
  -29.1350  -12.1070   20.5250 C   0  0  0  0  0  2  0  0  0  0  0  0
  -30.4480  -12.2220   19.8610 N   0  0  0  0  0  0  0  0  0  0  0  0
  -32.2520  -13.4440   19.1720 O   0  0  0  0  0  0  0  0  0  0  0  0
  -30.9610  -14.2290   20.8310 N   0  0  0  0  0  0  0  0  0  0  0  0
  -30.2020  -13.9940   21.4550 H   0  0  0  0  0  0  0  0  0  0  0  0
  -25.7910  -13.2510   20.3830 C   0  0  0  0  0  0  0  0  0  0  0  0
  -24.6690  -12.6170   20.8450 C   0  0  0  0  0  0  0  0  0  0  0  0
  -24.9460  -11.2180   20.7670 C   0  0  0  0  0  0  0  0  0  0  0  0
  -26.6910  -12.2450   20.0600 N   0  0  0  0  0  0  0  0  0  0  0  0
  -26.1880  -11.0180   20.3460 N   0  0  0  0  0  0  0  0  0  0  0  0
  -24.0830  -10.0570   21.0150 C   0  0  0  0  0  0  0  0  0  0  0  0
  -24.4540   -9.0440   21.9250 C   0  0  0  0  0  3  0  0  0  0  0  0
  -23.5980   -7.9460   22.1610 C   0  0  0  0  0  3  0  0  0  0  0  0
  -22.3570   -7.8560   21.4880 C   0  0  0  0  0  0  0  0  0  0  0  0
  -22.0020   -8.8570   20.5670 C   0  0  0  0  0  3  0  0  0  0  0  0
  -22.8570   -9.9460   20.3270 C   0  0  0  0  0  3  0  0  0  0  0  0
  -21.4730   -6.8150   21.6340 O   0  0  0  0  0  0  0  0  0  0  0  0
  -21.4010   -6.0910   22.7970 C   0  0  0  0  0  0  0  0  0  0  0  0
  -21.0530   -6.6890   24.0270 C   0  0  0  0  0  3  0  0  0  0  0  0
  -20.9220   -5.8950   25.1840 C   0  0  0  0  0  3  0  0  0  0  0  0
  -21.1300   -4.5040   25.1110 C   0  0  0  0  0  0  0  0  0  0  0  0
  -21.4720   -3.9060   23.8870 C   0  0  0  0  0  3  0  0  0  0  0  0
  -21.6050   -4.6970   22.7310 C   0  0  0  0  0  0  0  0  0  0  0  0
  -21.9140   -4.1130   21.5480 F   0  0  0  0  0  0  0  0  0  0  0  0
  -20.9970   -3.7400   26.2210 F   0  0  0  0  0  0  0  0  0  0  0  0
  -23.3720  -13.2660   21.2370 C   0  0  0  0  0  0  0  0  0  0  0  0
  -22.6510  -12.6720   22.1800 N   0  0  0  0  0  0  0  0  0  0  0  0
  -23.0160  -14.3320   20.7380 O   0  0  0  0  0  0  0  0  0  0  0  0
  -22.9520  -11.8050   22.6030 H   0  0  0  0  0  0  0  0  0  0  0  0
  -21.7780  -13.0830   22.4830 H   0  0  0  0  0  0  0  0  0  0  0  0
  -26.1120  -14.5900   20.1860 N   0  0  0  0  0  0  0  0  0  0  0  0
  -25.4020  -15.3070   20.3060 H   0  0  0  0  0  0  0  0  0  0  0  0
  -26.8530  -14.8770   19.5630 H   0  0  0  0  0  0  0  0  0  0  0  0
  2  1  1  0
  3  4  1  0
  4  2  1  0
  5  7  1  0
  5  3  1  0
  5  6  1  0
  6  4  1  0
  6  8  2  0
  7  9  1  0
 10  9  1  0
 11 13  1  0
 11 10  1  0
 12 23  2  0
 13 18  1  0
 14 22  1  0
 14 24  1  0
 15 21  1  0
 15 17  1  0
 16 22  1  0
 17 16  1  0
 18 17  2  0
 19 20  1  0
 19 13  2  0
 20 15  2  0
 21 14  1  0
 22 12  1  0
 24 26  2  0
 25 24  1  0
 27 25  1  0
 28 37  2  0
 28 33  1  0
 29 25  1  0
 29 33  1  0
 30 29  1  0
 31 32  1  0
 31 30  1  0
 32 28  1  0
 33 34  2  0
 34 35  1  0
 36 35  2  0
 37 36  1  0
 38 12  1  0
 38 43  1  0
 38 39  1  0
 39 42  1  1
 39 40  1  0
 41 39  1  0
 43 46  1  0
 44 43  1  0
 44 48  1  0
 45 44  2  0
 48 47  1  0
 48 50  1  0
 50 51  1  0
 50 49  1  0
 53 52  1  0
 53  2  1  0
 54 53  1  0
 54 55  1  0
 55 56  1  0
 57 55  1  0
 58 54  1  0
 58 63  1  0
 59 58  1  0
 59 60  1  0
 61 59  1  0
 62 59  1  0
 64 72  1  0
 65 70  1  0
 66 67  1  0
 66 65  1  0
 68 67  1  0
 68 77  1  0
 68 69  1  0
 70 64  1  0
 70 69  1  0
 71 64  2  0
 72 63  1  0
 72 73  1  0
 74 75  2  0
 75 94  1  0
 76 75  1  0
 76 79  1  0
 77 78  1  0
 77 74  1  0
 78 76  2  0
 79 80  1  0
 80 81  2  0
 82 85  1  0
 82 81  1  0
 83 82  2  0
 84 83  1  0
 84 79  2  0
 85 86  1  0
 86 87  1  0
 87 88  2  0
 89 88  1  0
 89 93  1  0
 90 89  2  0
 91 86  2  0
 91 90  1  0
 92 91  1  0
 94 95  1  0
 95 98  1  0
 95 97  1  0
 96 94  2  0
 99100  1  0
 99 74  1  0
101 99  1  0
M  ISO  4  10 101  11 101  64 100  72 100
M  END
>  <TORSDO>  (15) 
F 25

>  <SCORE>  (15) 
-9.834

>  <name>  (15) 
14

>  <ligand_id>  (15) 
14

>  <original_smiles>  (15) 
[H]c1c([H])c([H])c2c(c1[H])C([H])([H])C([H])([H])C([H])([H])C2([H])N([H])C(=O)C1([H])N(C(=O)C([H])(N([H])C(=O)C([H])(N([H])C([H])([H])[H])C([H])([H])[H])C(C([H])([H])[H])(C([H])([H])[H])C([H])([H])[H])C([H])([H])c2c([H])c(OC([H])([H])C([H])([H])N=c3c([H])c(N(C([H])([H])[H])C([H])(C([H])([H])[H])C([H])(N([H])[H])C([H])(C([H])([H])N([H])C(=O)N4C([H])([H])C([H])([H])C([H])([H])C([H])(n5nc(-c6c([H])c([H])c(Oc7c([H])c([H])c(F)c([H])c7F)c([H])c6[H])c(C(=O)N([H])[H])c5N([H])[H])C4([H])[H])[N+]([H])([H])[H])c3=O)c([H])c([H])c2C1([H])[H]

>  <smiles>  (15) 
[H]c1c([H])c([H])c2c(c1[H])C([H])([H])C([H])([H])C([H])([H])C2([H])N([H])C(=O)C1([H])N(C(=O)C([H])(N([H])C(=O)C([H])(N([H])C([H])([H])[H])C([H])([H])[H])C(C([H])([H])[H])(C([H])([H])[H])C([H])([H])[H])C([H])([H])c2c([H])c(OC([H])([H])C([H])([H])N=c3c([H])c(N(C([H])([H])[H])C([H])(C([H])([H])[H])C([H])(N([H])[H])C([H])(C([H])([H])N([H])C(=O)N4C([H])([H])C([H])([H])C([H])([H])C([H])(n5nc(-c6c([H])c([H])c(Oc7c([H])c([H])c(F)c([H])c7F)c([H])c6[H])c(C(=O)N([H])[H])c5N([H])[H])C4([H])[H])[N+]([H])([H])[H])c3=O)c([H])c([H])c2C1([H])[H]

$$$$
15:0:0
     RDKit          3D

 97105  0  0  1  0  0  0  0  0999 V2000
  -28.9080  -22.6950   19.5050 C   0  0  0  0  0  0  0  0  0  0  0  0
  -28.7410  -21.5170   20.1670 N   0  0  0  0  0  0  0  0  0  0  0  0
  -29.7650  -22.8160   18.6290 O   0  0  0  0  0  0  0  0  0  0  0  0
  -28.0770  -21.5630   20.9250 H   0  0  0  0  0  0  0  0  0  0  0  0
  -30.3920  -19.5270   19.7460 C   0  0  0  0  0  0  0  0  0  0  0  0
  -29.7300  -18.1050   19.9300 C   0  0  0  0  0  3  0  0  0  0  0  0
  -28.9750  -20.1620   19.5930 C   0  0  0  0  0  3  0  0  0  0  0  0
  -28.5260  -18.9530   20.4860 C   0  0  0  0  0  3  0  0  0  0  0  0
  -31.5360  -19.9780   19.8230 O   0  0  0  0  0  0  0  0  0  0  0  0
  -27.1880  -18.4160   20.1370 N   0  0  0  0  0  4  0  0  0  0  0  0
  -27.0740  -18.2610   19.1520 H   0  0  0  0  0  0  0  0  0  0  0  0
  -26.4670  -19.0540   20.4300 H   0  0  0  0  0  0  0  0  0  0  0  0
  -27.0130  -17.5490   20.6160 H   0  0  0  0  0  0  0  0  0  0  0  0
  -30.5390  -17.0540   20.7740 C   0  0  0  0  0  2  0  0  0  0  0  0
  -30.8680  -14.5620   20.1510 C   0  0  0  0  0  0  0  0  0  0  0  0
  -30.5560  -12.3560   19.0600 C   0  0  0  0  0  2  0  0  0  0  0  0
  -29.5830  -12.5410   17.8760 C   0  0  0  0  0  2  0  0  0  0  0  0
  -28.1220  -12.3890   18.3530 C   0  0  0  0  0  2  0  0  0  0  0  0
  -27.8210  -13.2440   19.6140 C   0  0  0  0  0  3  0  0  0  0  0  0
  -28.9100  -13.0570   20.6910 C   0  0  0  0  0  2  0  0  0  0  0  0
  -30.2060  -13.3700   20.0700 N   0  0  0  0  0  0  0  0  0  0  0  0
  -32.0080  -14.7120   19.7070 O   0  0  0  0  0  0  0  0  0  0  0  0
  -30.1360  -15.6210   20.5980 N   0  0  0  0  0  0  0  0  0  0  0  0
  -29.2000  -15.3820   20.8850 H   0  0  0  0  0  0  0  0  0  0  0  0
  -25.4750  -13.8840   20.4440 C   0  0  0  0  0  0  0  0  0  0  0  0
  -24.4120  -13.1290   20.8540 C   0  0  0  0  0  0  0  0  0  0  0  0
  -24.8380  -11.7680   20.7720 C   0  0  0  0  0  0  0  0  0  0  0  0
  -26.4850  -12.9850   20.1460 N   0  0  0  0  0  0  0  0  0  0  0  0
  -26.1100  -11.7060   20.4010 N   0  0  0  0  0  0  0  0  0  0  0  0
  -24.0910  -10.5180   20.9640 C   0  0  0  0  0  0  0  0  0  0  0  0
  -24.5060   -9.5450   21.9000 C   0  0  0  0  0  3  0  0  0  0  0  0
  -23.7600   -8.3630   22.0810 C   0  0  0  0  0  3  0  0  0  0  0  0
  -22.5820   -8.1430   21.3280 C   0  0  0  0  0  0  0  0  0  0  0  0
  -22.1870   -9.1030   20.3820 C   0  0  0  0  0  3  0  0  0  0  0  0
  -22.9330  -10.2790   20.1970 C   0  0  0  0  0  3  0  0  0  0  0  0
  -21.8100   -7.0110   21.4190 O   0  0  0  0  0  0  0  0  0  0  0  0
  -21.7120   -6.2990   22.5880 C   0  0  0  0  0  0  0  0  0  0  0  0
  -21.2200   -6.8800   23.7780 C   0  0  0  0  0  3  0  0  0  0  0  0
  -21.0700   -6.0910   24.9360 C   0  0  0  0  0  3  0  0  0  0  0  0
  -21.4060   -4.7260   24.9060 C   0  0  0  0  0  0  0  0  0  0  0  0
  -21.8860   -4.1420   23.7220 C   0  0  0  0  0  3  0  0  0  0  0  0
  -22.0390   -4.9290   22.5640 C   0  0  0  0  0  0  0  0  0  0  0  0
  -22.4860   -4.3560   21.4210 F   0  0  0  0  0  0  0  0  0  0  0  0
  -21.2520   -3.9670   26.0170 F   0  0  0  0  0  0  0  0  0  0  0  0
  -23.0380  -13.6330   21.1950 C   0  0  0  0  0  0  0  0  0  0  0  0
  -22.3300  -12.9330   22.0730 N   0  0  0  0  0  0  0  0  0  0  0  0
  -22.6090  -14.6850   20.7210 O   0  0  0  0  0  0  0  0  0  0  0  0
  -22.6890  -12.0820   22.4770 H   0  0  0  0  0  0  0  0  0  0  0  0
  -21.4080  -13.2490   22.3380 H   0  0  0  0  0  0  0  0  0  0  0  0
  -25.6660  -15.2530   20.2620 N   0  0  0  0  0  0  0  0  0  0  0  0
  -24.7960  -15.7760   20.2210 H   0  0  0  0  0  0  0  0  0  0  0  0
  -26.2650  -15.4740   19.4770 H   0  0  0  0  0  0  0  0  0  0  0  0
  -27.4990  -23.9580   21.2470 C   0  0  0  0  0  1  0  0  0  0  0  0
  -26.5930  -23.3570   18.9620 C   0  0  0  0  0  1  0  0  0  0  0  0
  -27.8540  -23.8480   19.7430 C   0  0  2  0  0  0  0  0  0  0  0  0
  -28.2930  -25.2910   19.2120 C   0  0  0  0  0  2  0  0  0  0  0  0
  -28.2170  -26.4810   20.0770 O   0  0  0  0  0  0  0  0  0  0  0  0
  -24.5270  -31.8410   23.1810 C   0  0  0  0  0  0  0  0  0  0  0  0
  -27.0860  -27.2910   20.0830 C   0  0  0  0  0  0  0  0  0  0  0  0
  -23.3130  -30.4620   21.5390 C   0  0  0  0  0  3  0  0  0  0  0  0
  -24.7420  -28.9020   20.1250 C   0  0  0  0  0  0  0  0  0  0  0  0
  -25.8610  -30.7500   21.3720 C   0  0  0  0  0  2  0  0  0  0  0  0
  -25.9200  -29.3750   20.7190 C   0  0  0  0  0  0  0  0  0  0  0  0
  -27.0960  -28.5730   20.7030 C   0  0  0  0  0  3  0  0  0  0  0  0
  -25.8870  -26.8650   19.4820 C   0  0  0  0  0  3  0  0  0  0  0  0
  -24.7190  -27.6420   19.5150 C   0  0  0  0  0  3  0  0  0  0  0  0
  -23.5250  -29.8030   20.1600 C   0  0  0  0  0  2  0  0  0  0  0  0
  -24.5850  -31.0370   22.0840 N   0  0  0  0  0  0  0  0  0  0  0  0
  -23.4430  -32.1310   23.7070 O   0  0  0  0  0  0  0  0  0  0  0  0
  -22.6390  -29.4480   22.4910 C   0  0  0  0  0  0  0  0  0  0  0  0
  -21.3080  -29.2990   22.3690 N   0  0  0  0  0  0  0  0  0  0  0  0
  -23.3100  -28.7980   23.2960 O   0  0  0  0  0  0  0  0  0  0  0  0
  -20.8300  -29.8810   21.6970 H   0  0  0  0  0  0  0  0  0  0  0  0
  -17.8940  -28.2240   22.9110 C   0  0  0  0  0  0  0  0  0  0  0  0
  -20.4660  -28.3790   23.1320 C   0  0  0  0  0  3  0  0  0  0  0  0
  -20.4990  -26.9590   22.5220 C   0  0  0  0  0  2  0  0  0  0  0  0
  -19.3640  -26.7060   21.5260 C   0  0  0  0  0  2  0  0  0  0  0  0
  -18.0090  -26.8720   22.2210 C   0  0  0  0  0  2  0  0  0  0  0  0
  -19.0510  -28.9370   23.3280 C   0  0  0  0  0  0  0  0  0  0  0  0
  -18.8910  -30.1930   23.9530 C   0  0  0  0  0  3  0  0  0  0  0  0
  -17.6120  -30.7390   24.1520 C   0  0  0  0  0  3  0  0  0  0  0  0
  -16.4700  -30.0290   23.7470 C   0  0  0  0  0  3  0  0  0  0  0  0
  -16.6130  -28.7720   23.1300 C   0  0  0  0  0  3  0  0  0  0  0  0
  -25.8130  -32.4580   23.8100 C   0  0  0  0  0  3  0  0  0  0  0  0
  -25.5170  -33.8550   24.1510 N   0  0  0  0  0  0  0  0  0  0  0  0
  -25.8650  -34.9090   23.4030 C   0  0  0  0  0  0  0  0  0  0  0  0
  -26.5390  -34.8070   22.3740 O   0  0  0  0  0  0  0  0  0  0  0  0
  -24.9180  -34.0100   24.9480 H   0  0  0  0  0  0  0  0  0  0  0  0
  -24.1690  -36.7310   23.0330 C   0  0  0  0  0  1  0  0  0  0  0  0
  -25.3880  -36.3010   23.8660 C   0  0  0  0  0  3  0  0  0  0  0  0
  -27.5120  -37.1470   24.7560 C   0  0  0  0  0  1  0  0  0  0  0  0
  -26.4380  -37.3400   23.7860 N   0  0  0  0  0  0  0  0  0  0  0  0
  -26.0430  -38.2650   23.9310 H   0  0  0  0  0  0  0  0  0  0  0  0
  -26.3180  -31.6700   25.0820 C   0  0  1  0  0  0  0  0  0  0  0  0
  -25.2180  -31.4240   26.1430 C   0  0  0  0  0  1  0  0  0  0  0  0
  -26.8980  -30.2950   24.6800 C   0  0  0  0  0  1  0  0  0  0  0  0
  -27.4700  -32.4520   25.7560 C   0  0  0  0  0  1  0  0  0  0  0  0
  1 55  1  0
  1  2  1  0
  2  4  1  0
  3  1  2  0
  5  9  2  0
  5  6  1  0
  6  8  1  0
  6 14  1  0
  7  5  1  0
  7  2  1  0
  7  8  1  0
  8 10  1  0
 10 12  1  0
 10 13  1  0
 11 10  1  0
 15 23  1  0
 16 21  1  0
 17 18  1  0
 17 16  1  0
 19 18  1  0
 19 28  1  0
 19 20  1  0
 21 15  1  0
 21 20  1  0
 22 15  2  0
 23 14  1  0
 23 24  1  0
 25 26  2  0
 26 45  1  0
 27 26  1  0
 27 30  1  0
 28 29  1  0
 28 25  1  0
 29 27  2  0
 30 31  1  0
 31 32  2  0
 33 36  1  0
 33 32  1  0
 34 33  2  0
 35 34  1  0
 35 30  2  0
 36 37  1  0
 37 38  1  0
 38 39  2  0
 40 39  1  0
 40 44  1  0
 41 40  2  0
 42 37  2  0
 42 41  1  0
 43 42  1  0
 45 46  1  0
 46 49  1  0
 46 48  1  0
 47 45  2  0
 50 25  1  0
 51 50  1  0
 52 50  1  0
 55 54  1  6
 55 53  1  0
 56 55  1  0
 56 57  1  0
 57 59  1  0
 58 69  2  0
 59 64  1  0
 60 68  1  0
 60 70  1  0
 61 67  1  0
 61 63  1  0
 62 68  1  0
 63 62  1  0
 64 63  2  0
 65 66  1  0
 65 59  2  0
 66 61  2  0
 67 60  1  0
 68 58  1  0
 70 72  2  0
 71 70  1  0
 73 71  1  0
 74 83  2  0
 74 79  1  0
 75 71  1  0
 75 79  1  0
 76 75  1  0
 77 78  1  0
 77 76  1  0
 78 74  1  0
 79 80  2  0
 80 81  1  0
 82 81  2  0
 83 82  1  0
 84 58  1  0
 84 85  1  0
 84 94  1  0
 85 88  1  0
 86 90  1  0
 86 85  1  0
 87 86  2  0
 90 89  1  0
 92 90  1  0
 92 93  1  0
 92 91  1  0
 94 97  1  1
 94 95  1  0
 96 94  1  0
M  ISO  4  15 100  23 100  56 101  57 101
M  END
>  <TORSDO>  (16) 
F 21

>  <SCORE>  (16) 
-13.862

>  <name>  (16) 
15

>  <ligand_id>  (16) 
15

>  <original_smiles>  (16) 
[H]c1c([H])c([H])c2c(c1[H])C([H])([H])C([H])([H])C([H])([H])C2([H])N([H])C(=O)C1([H])N(C(=O)C([H])(N([H])C(=O)C([H])(N([H])C([H])([H])[H])C([H])([H])[H])C(C([H])([H])[H])(C([H])([H])[H])C([H])([H])[H])C([H])([H])c2c([H])c(OC([H])([H])C(C(=O)N([H])C3([H])C(=O)C([H])(C([H])([H])N([H])C(=O)N4C([H])([H])C([H])([H])C([H])([H])C([H])(n5nc(-c6c([H])c([H])c(Oc7c([H])c([H])c(F)c([H])c7F)c([H])c6[H])c(C(=O)N([H])[H])c5N([H])[H])C4([H])[H])C3([H])[N+]([H])([H])[H])(C([H])([H])[H])C([H])([H])[H])c([H])c([H])c2C1([H])[H]

>  <smiles>  (16) 
[H]c1c([H])c([H])c2c(c1[H])C([H])([H])C([H])([H])C([H])([H])C2([H])N([H])C(=O)C1([H])N(C(=O)C([H])(N([H])C(=O)C([H])(N([H])C([H])([H])[H])C([H])([H])[H])C(C([H])([H])[H])(C([H])([H])[H])C([H])([H])[H])C([H])([H])c2c([H])c(OC([H])([H])C(C(=O)N([H])C3([H])C(=O)C([H])(C([H])([H])N([H])C(=O)N4C([H])([H])C([H])([H])C([H])([H])C([H])(n5nc(-c6c([H])c([H])c(Oc7c([H])c([H])c(F)c([H])c7F)c([H])c6[H])c(C(=O)N([H])[H])c5N([H])[H])C4([H])[H])C3([H])[N+]([H])([H])[H])(C([H])([H])[H])C([H])([H])[H])c([H])c([H])c2C1([H])[H]

$$$$
16:0:0
     RDKit          3D

102111  0  0  1  0  0  0  0  0999 V2000
  -32.2930  -20.8000   21.6160 C   0  0  0  0  0  3  0  0  0  0  0  0
  -31.0320  -21.3830   21.7890 C   0  0  0  0  0  3  0  0  0  0  0  0
  -29.9990  -19.3650   20.8930 C   0  0  0  0  0  3  0  0  0  0  0  0
  -32.4410  -19.5200   21.0340 C   0  0  0  0  0  0  0  0  0  0  0  0
  -31.2820  -18.7600   20.6650 C   0  0  0  0  0  0  0  0  0  0  0  0
  -29.8680  -20.7000   21.3980 C   0  0  0  0  0  0  0  0  0  0  0  0
  -31.0700  -15.0200   20.5820 C   0  0  0  0  0  0  0  0  0  0  0  0
  -30.7670  -12.7320   19.7330 C   0  0  0  0  0  2  0  0  0  0  0  0
  -29.8810  -12.7000   18.4760 C   0  0  0  0  0  2  0  0  0  0  0  0
  -28.3900  -12.6130   18.8690 C   0  0  0  0  0  2  0  0  0  0  0  0
  -27.9580  -13.5460   20.0420 C   0  0  0  0  0  3  0  0  0  0  0  0
  -29.0140  -13.6150   21.1710 C   0  0  0  0  0  2  0  0  0  0  0  0
  -30.3180  -13.8750   20.5480 N   0  0  0  0  0  0  0  0  0  0  0  0
  -32.2880  -14.9290   20.6800 O   0  0  0  0  0  0  0  0  0  0  0  0
  -30.5900  -16.5710   17.7640 C   0  0  0  0  0  2  0  0  0  0  0  0
  -29.6820  -16.2300   18.9310 C   0  0  0  0  0  2  0  0  0  0  0  0
  -31.4380  -17.4170   19.8650 C   0  0  0  0  0  3  0  0  0  0  0  0
  -31.3650  -17.7220   18.3470 C   0  0  0  0  0  3  0  0  0  0  0  0
  -30.5380  -16.2240   20.1280 N   0  0  0  0  0  0  0  0  0  0  0  0
  -25.5750  -14.1470   20.7380 C   0  0  0  0  0  0  0  0  0  0  0  0
  -24.4890  -13.3740   21.0320 C   0  0  0  0  0  0  0  0  0  0  0  0
  -24.9410  -12.0200   20.9600 C   0  0  0  0  0  0  0  0  0  0  0  0
  -26.6140  -13.2590   20.5090 N   0  0  0  0  0  0  0  0  0  0  0  0
  -26.2400  -11.9740   20.7000 N   0  0  0  0  0  0  0  0  0  0  0  0
  -24.2000  -10.7620   21.0620 C   0  0  0  0  0  0  0  0  0  0  0  0
  -24.5330   -9.7920   22.0330 C   0  0  0  0  0  3  0  0  0  0  0  0
  -23.7950   -8.5960   22.1270 C   0  0  0  0  0  3  0  0  0  0  0  0
  -22.7080   -8.3620   21.2530 C   0  0  0  0  0  0  0  0  0  0  0  0
  -22.3950   -9.3190   20.2700 C   0  0  0  0  0  3  0  0  0  0  0  0
  -23.1370  -10.5090   20.1720 C   0  0  0  0  0  3  0  0  0  0  0  0
  -21.9490   -7.2170   21.2570 O   0  0  0  0  0  0  0  0  0  0  0  0
  -21.7030   -6.5240   22.4150 C   0  0  0  0  0  0  0  0  0  0  0  0
  -21.0140   -7.1110   23.5010 C   0  0  0  0  0  3  0  0  0  0  0  0
  -20.7250   -6.3440   24.6460 C   0  0  0  0  0  3  0  0  0  0  0  0
  -21.1080   -4.9890   24.7020 C   0  0  0  0  0  0  0  0  0  0  0  0
  -21.7850   -4.4030   23.6200 C   0  0  0  0  0  3  0  0  0  0  0  0
  -22.0790   -5.1680   22.4770 C   0  0  0  0  0  0  0  0  0  0  0  0
  -22.7160   -4.5930   21.4280 F   0  0  0  0  0  0  0  0  0  0  0  0
  -20.8200   -4.2480   25.7980 F   0  0  0  0  0  0  0  0  0  0  0  0
  -23.0900  -13.8610   21.2720 C   0  0  0  0  0  0  0  0  0  0  0  0
  -22.3260  -13.1470   22.0910 N   0  0  0  0  0  0  0  0  0  0  0  0
  -22.6820  -14.9120   20.7730 O   0  0  0  0  0  0  0  0  0  0  0  0
  -22.6610  -12.2960   22.5160 H   0  0  0  0  0  0  0  0  0  0  0  0
  -21.3870  -13.4540   22.2930 H   0  0  0  0  0  0  0  0  0  0  0  0
  -25.7560  -15.5220   20.6190 N   0  0  0  0  0  0  0  0  0  0  0  0
  -24.9860  -16.1780   20.6940 H   0  0  0  0  0  0  0  0  0  0  0  0
  -26.6340  -15.9640   20.3730 H   0  0  0  0  0  0  0  0  0  0  0  0
  -32.6790  -17.9570   17.7200 N   0  0  0  0  0  4  0  0  0  0  0  0
  -33.2450  -17.1230   17.7250 H   0  0  0  0  0  0  0  0  0  0  0  0
  -33.1770  -18.6690   18.2280 H   0  0  0  0  0  0  0  0  0  0  0  0
  -32.5740  -18.2630   16.7680 H   0  0  0  0  0  0  0  0  0  0  0  0
  -33.8450  -19.0550   20.7670 C   0  0  0  0  0  0  0  0  0  0  0  0
  -34.7000  -19.2520   21.7550 N   0  0  0  0  0  0  0  0  0  0  0  0
  -34.1600  -18.5120   19.7050 O   0  0  0  0  0  0  0  0  0  0  0  0
  -34.3830  -19.7030   22.6020 H   0  0  0  0  0  0  0  0  0  0  0  0
  -35.6500  -18.9120   21.6870 H   0  0  0  0  0  0  0  0  0  0  0  0
  -28.5180  -21.4430   21.5620 C   0  0  0  0  0  2  0  0  0  0  0  0
  -28.2300  -22.5670   20.5180 C   0  0  0  0  0  0  0  0  0  0  0  0
  -28.1870  -22.2810   19.3180 O   0  0  0  0  0  0  0  0  0  0  0  0
  -27.9690  -24.0370   20.9900 C   0  0  0  0  0  3  0  0  0  0  0  0
  -27.8750  -25.1080   19.8390 C   0  0  0  0  0  3  0  0  0  0  0  0
  -27.8810  -26.5140   20.2320 O   0  0  0  0  0  0  0  0  0  0  0  0
  -24.4440  -31.9800   23.2810 C   0  0  0  0  0  0  0  0  0  0  0  0
  -26.7350  -27.3050   20.2090 C   0  0  0  0  0  0  0  0  0  0  0  0
  -23.1120  -30.5990   21.7250 C   0  0  0  0  0  3  0  0  0  0  0  0
  -24.4260  -28.9740   20.2690 C   0  0  0  0  0  0  0  0  0  0  0  0
  -25.6430  -30.8290   21.4150 C   0  0  0  0  0  2  0  0  0  0  0  0
  -25.6350  -29.4420   20.7920 C   0  0  0  0  0  0  0  0  0  0  0  0
  -26.7870  -28.6190   20.7530 C   0  0  0  0  0  3  0  0  0  0  0  0
  -25.4920  -26.8580   19.6960 C   0  0  0  0  0  3  0  0  0  0  0  0
  -24.3530  -27.6830   19.7230 C   0  0  0  0  0  3  0  0  0  0  0  0
  -23.2350  -29.9020   20.3470 C   0  0  0  0  0  2  0  0  0  0  0  0
  -24.4210  -31.1530   22.1970 N   0  0  0  0  0  0  0  0  0  0  0  0
  -23.4000  -32.3080   23.8600 O   0  0  0  0  0  0  0  0  0  0  0  0
  -22.4630  -29.6180   22.7300 C   0  0  0  0  0  0  0  0  0  0  0  0
  -21.1550  -29.3640   22.5610 N   0  0  0  0  0  0  0  0  0  0  0  0
  -23.1330  -29.0860   23.6200 O   0  0  0  0  0  0  0  0  0  0  0  0
  -20.6690  -29.8500   21.8220 H   0  0  0  0  0  0  0  0  0  0  0  0
  -17.8490  -27.9480   22.9150 C   0  0  0  0  0  0  0  0  0  0  0  0
  -20.3450  -28.4470   23.3670 C   0  0  0  0  0  3  0  0  0  0  0  0
  -20.6060  -26.9750   22.9710 C   0  0  0  0  0  2  0  0  0  0  0  0
  -19.6280  -26.4510   21.9160 C   0  0  0  0  0  2  0  0  0  0  0  0
  -18.1850  -26.5490   22.4220 C   0  0  0  0  0  2  0  0  0  0  0  0
  -18.8650  -28.8420   23.3430 C   0  0  0  0  0  0  0  0  0  0  0  0
  -18.5020  -30.1410   23.7570 C   0  0  0  0  0  3  0  0  0  0  0  0
  -17.1540  -30.5450   23.7640 C   0  0  0  0  0  3  0  0  0  0  0  0
  -16.1510  -29.6490   23.3570 C   0  0  0  0  0  3  0  0  0  0  0  0
  -16.4990  -28.3550   22.9320 C   0  0  0  0  0  3  0  0  0  0  0  0
  -25.7770  -32.5710   23.8300 C   0  0  0  0  0  3  0  0  0  0  0  0
  -25.5360  -33.9820   24.1580 N   0  0  0  0  0  0  0  0  0  0  0  0
  -25.8700  -35.0180   23.3750 C   0  0  0  0  0  0  0  0  0  0  0  0
  -26.4890  -34.8800   22.3140 O   0  0  0  0  0  0  0  0  0  0  0  0
  -24.9830  -34.1660   24.9820 H   0  0  0  0  0  0  0  0  0  0  0  0
  -24.1940  -36.8720   23.0690 C   0  0  0  0  0  1  0  0  0  0  0  0
  -25.4490  -36.4270   23.8370 C   0  0  0  0  0  3  0  0  0  0  0  0
  -27.6380  -37.2490   24.5820 C   0  0  0  0  0  1  0  0  0  0  0  0
  -26.5120  -37.4400   23.6720 N   0  0  0  0  0  0  0  0  0  0  0  0
  -26.1490  -38.3780   23.8130 H   0  0  0  0  0  0  0  0  0  0  0  0
  -26.3320  -31.7920   25.0860 C   0  0  1  0  0  0  0  0  0  0  0  0
  -25.2780  -31.5550   26.1940 C   0  0  0  0  0  1  0  0  0  0  0  0
  -26.8930  -30.4140   24.6660 C   0  0  0  0  0  1  0  0  0  0  0  0
  -27.5140  -32.5750   25.7040 C   0  0  0  0  0  1  0  0  0  0  0  0
  1  2  1  0
  3  6  1  0
  4  1  2  0
  5  3  2  0
  5  4  1  0
  6 57  1  0
  6  2  2  0
  7 14  2  0
  8 13  1  0
  9 10  1  0
  9  8  1  0
 11 10  1  0
 11 23  1  0
 11 12  1  0
 13  7  1  0
 13 12  1  0
 15 18  1  0
 15 16  1  0
 16 19  1  0
 17 19  1  0
 17  5  1  0
 18 48  1  0
 18 17  1  0
 19  7  1  0
 20 21  2  0
 21 40  1  0
 22 21  1  0
 22 25  1  0
 23 24  1  0
 23 20  1  0
 24 22  2  0
 25 26  1  0
 26 27  2  0
 28 31  1  0
 28 27  1  0
 29 28  2  0
 30 29  1  0
 30 25  2  0
 31 32  1  0
 32 37  2  0
 32 33  1  0
 33 34  2  0
 34 35  1  0
 35 39  1  0
 36 35  2  0
 37 36  1  0
 38 37  1  0
 40 41  1  0
 41 44  1  0
 41 43  1  0
 42 40  2  0
 45 46  1  0
 45 20  1  0
 47 45  1  0
 48 49  1  0
 48 50  1  0
 51 48  1  0
 52  4  1  0
 52 53  1  0
 53 55  1  0
 54 52  2  0
 56 53  1  0
 58 60  1  0
 58 57  1  0
 59 58  2  0
 61 62  1  0
 61 60  2  0
 63 74  2  0
 64 62  1  0
 64 69  1  0
 65 73  1  0
 65 75  1  0
 66 72  1  0
 66 68  1  0
 67 73  1  0
 68 67  1  0
 69 68  2  0
 70 71  1  0
 70 64  2  0
 71 66  2  0
 72 65  1  0
 73 63  1  0
 75 77  2  0
 76 75  1  0
 78 76  1  0
 79 88  2  0
 79 84  1  0
 80 76  1  0
 81 80  1  0
 82 83  1  0
 82 81  1  0
 83 79  1  0
 84 80  1  0
 84 85  2  0
 85 86  1  0
 87 86  2  0
 88 87  1  0
 89 63  1  0
 89 90  1  0
 89 99  1  0
 90 93  1  0
 91 95  1  0
 91 90  1  0
 92 91  2  0
 95 94  1  0
 97 98  1  0
 97 95  1  0
 97 96  1  0
 99102  1  1
 99100  1  0
101 99  1  0
M  ISO  4   7 100  19 100  61 101  62 101
M  END
>  <TORSDO>  (17) 
F 22

>  <SCORE>  (17) 
-12.330

>  <name>  (17) 
16

>  <ligand_id>  (17) 
16

>  <original_smiles>  (17) 
[H]c1c([H])c([H])c2c(c1[H])C([H])([H])C([H])([H])C([H])([H])C2([H])N([H])C(=O)C1([H])N(C(=O)C([H])(N([H])C(=O)C([H])(N([H])C([H])([H])[H])C([H])([H])[H])C(C([H])([H])[H])(C([H])([H])[H])C([H])([H])[H])C([H])([H])c2c([H])c(OC([H])([H])C([H])([H])C(=O)C([H])([H])c3c([H])c([H])c(C(=O)N([H])[H])c(C4([H])N(C(=O)N5C([H])([H])C([H])([H])C([H])([H])C([H])(n6nc(-c7c([H])c([H])c(Oc8c([H])c([H])c(F)c([H])c8F)c([H])c7[H])c(C(=O)N([H])[H])c6N([H])[H])C5([H])[H])C([H])([H])C([H])([H])C4([H])[N+]([H])([H])[H])c3[H])c([H])c([H])c2C1([H])[H]

>  <smiles>  (17) 
[H]c1c([H])c([H])c2c(c1[H])C([H])([H])C([H])([H])C([H])([H])C2([H])N([H])C(=O)C1([H])N(C(=O)C([H])(N([H])C(=O)C([H])(N([H])C([H])([H])[H])C([H])([H])[H])C(C([H])([H])[H])(C([H])([H])[H])C([H])([H])[H])C([H])([H])c2c([H])c(OC([H])([H])C([H])([H])C(=O)C([H])([H])c3c([H])c([H])c(C(=O)N([H])[H])c(C4([H])N(C(=O)N5C([H])([H])C([H])([H])C([H])([H])C([H])(n6nc(-c7c([H])c([H])c(Oc8c([H])c([H])c(F)c([H])c8F)c([H])c7[H])c(C(=O)N([H])[H])c6N([H])[H])C5([H])[H])C([H])([H])C([H])([H])C4([H])[N+]([H])([H])[H])c3[H])c([H])c([H])c2C1([H])[H]

$$$$
17:0:0
     RDKit          3D

 89 97  0  0  1  0  0  0  0  0999 V2000
  -30.1540  -21.6380   18.9510 C   0  0  0  0  0  2  0  0  0  0  0  0
  -30.5620  -22.6350   20.0400 C   0  0  0  0  0  2  0  0  0  0  0  0
  -29.0680  -21.1890   19.9260 C   0  0  0  0  0  3  0  0  0  0  0  0
  -29.1770  -22.6020   20.5220 N   0  0  2  0  0  4  0  0  0  0  0  0
  -29.1290  -22.5750   21.5320 H   0  0  0  0  0  0  0  0  0  0  0  0
  -29.4380  -19.9190   20.8450 C   0  0  0  0  0  2  0  0  0  0  0  0
  -29.3470  -18.4290   20.2320 C   0  0  0  0  0  3  0  0  0  0  0  0
  -30.1740  -17.2420   20.9370 C   0  0  0  0  0  3  0  0  0  0  0  0
  -30.5830  -14.6960   20.4110 C   0  0  0  0  0  0  0  0  0  0  0  0
  -30.3850  -12.4450   19.3530 C   0  0  0  0  0  2  0  0  0  0  0  0
  -29.4400  -12.5430   18.1370 C   0  0  0  0  0  2  0  0  0  0  0  0
  -27.9700  -12.3720   18.5690 C   0  0  0  0  0  2  0  0  0  0  0  0
  -27.6020  -13.2480   19.7980 C   0  0  0  0  0  3  0  0  0  0  0  0
  -28.6620  -13.1240   20.9140 C   0  0  0  0  0  2  0  0  0  0  0  0
  -29.9590  -13.4760   20.3230 N   0  0  0  0  0  0  0  0  0  0  0  0
  -31.7660  -14.8240   20.0850 O   0  0  0  0  0  0  0  0  0  0  0  0
  -29.7950  -15.7920   20.6890 N   0  0  0  0  0  0  0  0  0  0  0  0
  -28.8270  -15.5660   20.8640 H   0  0  0  0  0  0  0  0  0  0  0  0
  -25.2110  -13.8430   20.5180 C   0  0  0  0  0  0  0  0  0  0  0  0
  -24.1460  -13.0680   20.8900 C   0  0  0  0  0  0  0  0  0  0  0  0
  -24.6130  -11.7180   20.8660 C   0  0  0  0  0  0  0  0  0  0  0  0
  -26.2570  -12.9630   20.2860 N   0  0  0  0  0  0  0  0  0  0  0  0
  -25.9030  -11.6800   20.5590 N   0  0  0  0  0  0  0  0  0  0  0  0
  -23.8890  -10.4540   21.0600 C   0  0  0  0  0  0  0  0  0  0  0  0
  -24.3320   -9.4830   21.9840 C   0  0  0  0  0  3  0  0  0  0  0  0
  -23.6090   -8.2850   22.1650 C   0  0  0  0  0  3  0  0  0  0  0  0
  -22.4280   -8.0500   21.4220 C   0  0  0  0  0  0  0  0  0  0  0  0
  -22.0040   -9.0090   20.4870 C   0  0  0  0  0  3  0  0  0  0  0  0
  -22.7270  -10.1990   20.3040 C   0  0  0  0  0  3  0  0  0  0  0  0
  -21.6740   -6.9040   21.5140 O   0  0  0  0  0  0  0  0  0  0  0  0
  -21.6510   -6.1480   22.6590 C   0  0  0  0  0  0  0  0  0  0  0  0
  -21.2640   -6.6900   23.9030 C   0  0  0  0  0  3  0  0  0  0  0  0
  -21.1880   -5.8610   25.0400 C   0  0  0  0  0  3  0  0  0  0  0  0
  -21.4890   -4.4900   24.9340 C   0  0  0  0  0  0  0  0  0  0  0  0
  -21.8690   -3.9470   23.6940 C   0  0  0  0  0  3  0  0  0  0  0  0
  -21.9470   -4.7740   22.5590 C   0  0  0  0  0  0  0  0  0  0  0  0
  -22.2940   -4.2400   21.3630 F   0  0  0  0  0  0  0  0  0  0  0  0
  -21.4080   -3.6910   26.0230 F   0  0  0  0  0  0  0  0  0  0  0  0
  -22.7480  -13.5430   21.1570 C   0  0  0  0  0  0  0  0  0  0  0  0
  -22.0190  -12.8490   22.0250 N   0  0  0  0  0  0  0  0  0  0  0  0
  -22.3090  -14.5650   20.6310 O   0  0  0  0  0  0  0  0  0  0  0  0
  -22.3860  -12.0230   22.4730 H   0  0  0  0  0  0  0  0  0  0  0  0
  -21.0800  -13.1500   22.2460 H   0  0  0  0  0  0  0  0  0  0  0  0
  -25.3720  -15.2130   20.3320 N   0  0  0  0  0  0  0  0  0  0  0  0
  -24.5990  -15.8610   20.4250 H   0  0  0  0  0  0  0  0  0  0  0  0
  -26.2090  -15.6470   19.9640 H   0  0  0  0  0  0  0  0  0  0  0  0
  -28.3460  -23.7820   19.9770 C   0  0  0  0  0  2  0  0  0  0  0  0
  -28.3930  -25.1600   20.8030 C   0  0  0  0  0  2  0  0  0  0  0  0
  -28.3870  -26.5010   20.1550 O   0  0  0  0  0  0  0  0  0  0  0  0
  -24.6230  -31.8760   23.2320 C   0  0  0  0  0  0  0  0  0  0  0  0
  -27.2460  -27.3120   20.1970 C   0  0  0  0  0  0  0  0  0  0  0  0
  -23.4210  -30.4680   21.5960 C   0  0  0  0  0  3  0  0  0  0  0  0
  -24.8740  -28.9080   20.1810 C   0  0  0  0  0  0  0  0  0  0  0  0
  -25.9570  -30.7970   21.4040 C   0  0  0  0  0  2  0  0  0  0  0  0
  -26.0410  -29.4120   20.7690 C   0  0  0  0  0  0  0  0  0  0  0  0
  -27.2330  -28.6280   20.7590 C   0  0  0  0  0  3  0  0  0  0  0  0
  -26.0570  -26.8510   19.6010 C   0  0  0  0  0  3  0  0  0  0  0  0
  -24.8830  -27.6330   19.5890 C   0  0  0  0  0  3  0  0  0  0  0  0
  -23.6350  -29.7820   20.2200 C   0  0  0  0  0  2  0  0  0  0  0  0
  -24.6860  -31.0650   22.1340 N   0  0  0  0  0  0  0  0  0  0  0  0
  -23.5400  -32.1510   23.7670 O   0  0  0  0  0  0  0  0  0  0  0  0
  -22.7600  -29.4560   22.5620 C   0  0  0  0  0  0  0  0  0  0  0  0
  -21.4350  -29.2770   22.4370 N   0  0  0  0  0  0  0  0  0  0  0  0
  -23.4410  -28.8320   23.3790 O   0  0  0  0  0  0  0  0  0  0  0  0
  -20.9440  -29.8310   21.7480 H   0  0  0  0  0  0  0  0  0  0  0  0
  -18.0620  -28.0710   22.9370 C   0  0  0  0  0  0  0  0  0  0  0  0
  -20.6180  -28.3400   23.2110 C   0  0  0  0  0  3  0  0  0  0  0  0
  -20.7250  -26.9060   22.6410 C   0  0  0  0  0  2  0  0  0  0  0  0
  -19.6270  -26.5750   21.6260 C   0  0  0  0  0  2  0  0  0  0  0  0
  -18.2430  -26.7200   22.2670 C   0  0  0  0  0  2  0  0  0  0  0  0
  -19.1770  -28.8390   23.3650 C   0  0  0  0  0  0  0  0  0  0  0  0
  -18.9520  -30.1030   23.9510 C   0  0  0  0  0  3  0  0  0  0  0  0
  -17.6460  -30.6020   24.1120 C   0  0  0  0  0  3  0  0  0  0  0  0
  -16.5440  -29.8310   23.7000 C   0  0  0  0  0  3  0  0  0  0  0  0
  -16.7530  -28.5670   23.1180 C   0  0  0  0  0  3  0  0  0  0  0  0
  -25.9040  -32.5130   23.8520 C   0  0  0  0  0  3  0  0  0  0  0  0
  -25.5910  -33.9100   24.1850 N   0  0  0  0  0  0  0  0  0  0  0  0
  -25.9180  -34.9650   23.4270 C   0  0  0  0  0  0  0  0  0  0  0  0
  -26.5830  -34.8650   22.3920 O   0  0  0  0  0  0  0  0  0  0  0  0
  -24.9990  -34.0610   24.9890 H   0  0  0  0  0  0  0  0  0  0  0  0
  -24.1810  -36.7520   23.0860 C   0  0  0  0  0  1  0  0  0  0  0  0
  -25.4280  -36.3520   23.8890 C   0  0  0  0  0  3  0  0  0  0  0  0
  -27.5670  -37.2430   24.7040 C   0  0  0  0  0  1  0  0  0  0  0  0
  -26.4570  -37.4080   23.7690 N   0  0  0  0  0  0  0  0  0  0  0  0
  -26.0480  -38.3270   23.9210 H   0  0  0  0  0  0  0  0  0  0  0  0
  -26.4270  -31.7420   25.1270 C   0  0  1  0  0  0  0  0  0  0  0  0
  -25.3380  -31.5040   26.1980 C   0  0  0  0  0  1  0  0  0  0  0  0
  -27.0120  -30.3660   24.7330 C   0  0  0  0  0  1  0  0  0  0  0  0
  -27.5780  -32.5380   25.7860 C   0  0  0  0  0  1  0  0  0  0  0  0
  1  3  1  0
  1  2  1  0
  2  4  1  0
  3  4  1  0
  3  6  1  0
  4  5  1  1
  7  6  1  0
  7  8  2  0
  9 17  1  0
 10 15  1  0
 11 12  1  0
 11 10  1  0
 13 12  1  0
 13 22  1  0
 13 14  1  0
 15  9  1  0
 15 14  1  0
 16  9  2  0
 17 18  1  0
 17  8  1  0
 19 20  2  0
 20 39  1  0
 21 20  1  0
 21 24  1  0
 22 19  1  0
 22 23  1  0
 23 21  2  0
 24 25  1  0
 25 26  2  0
 27 30  1  0
 27 26  1  0
 28 27  2  0
 29 28  1  0
 29 24  2  0
 30 31  1  0
 31 32  1  0
 32 33  2  0
 34 33  1  0
 34 38  1  0
 35 34  2  0
 36 31  2  0
 36 35  1  0
 37 36  1  0
 39 40  1  0
 40 43  1  0
 40 42  1  0
 41 39  2  0
 44 45  1  0
 44 19  1  0
 46 44  1  0
 47  4  1  0
 47 48  1  0
 49 51  1  0
 49 48  1  0
 50 61  2  0
 51 56  1  0
 52 60  1  0
 52 62  1  0
 53 59  1  0
 53 55  1  0
 54 60  1  0
 55 54  1  0
 56 55  2  0
 57 51  2  0
 58 57  1  0
 58 53  2  0
 59 52  1  0
 60 50  1  0
 62 64  2  0
 63 62  1  0
 65 63  1  0
 66 75  2  0
 66 71  1  0
 67 63  1  0
 67 71  1  0
 68 67  1  0
 69 70  1  0
 69 68  1  0
 70 66  1  0
 71 72  2  0
 72 73  1  0
 74 73  2  0
 75 74  1  0
 76 50  1  0
 76 77  1  0
 76 86  1  0
 77 80  1  0
 78 82  1  0
 78 77  1  0
 79 78  2  0
 82 81  1  0
 84 82  1  0
 84 85  1  0
 84 83  1  0
 86 89  1  1
 86 87  1  0
 88 86  1  0
M  ISO  4   9 100  17 100  48 101  49 101
M  END
>  <TORSDO>  (18) 
F 21

>  <SCORE>  (18) 
-13.304

>  <name>  (18) 
17

>  <ligand_id>  (18) 
17

>  <original_smiles>  (18) 
[H]c1c([H])c([H])c2c(c1[H])C([H])([H])C([H])([H])C([H])([H])C2([H])N([H])C(=O)C1([H])N(C(=O)C([H])(N([H])C(=O)C([H])(N([H])C([H])([H])[H])C([H])([H])[H])C(C([H])([H])[H])(C([H])([H])[H])C([H])([H])[H])C([H])([H])c2c([H])c(OC([H])([H])C([H])([H])[N+]3([H])C([H])([H])C([H])([H])C3([H])C([H])([H])C([H])([H])C([H])([H])N([H])C(=O)N3C([H])([H])C([H])([H])C([H])([H])C([H])(n4nc(-c5c([H])c([H])c(Oc6c([H])c([H])c(F)c([H])c6F)c([H])c5[H])c(C(=O)N([H])[H])c4N([H])[H])C3([H])[H])c([H])c([H])c2C1([H])[H]

>  <smiles>  (18) 
[H]c1c([H])c([H])c2c(c1[H])C([H])([H])C([H])([H])C([H])([H])C2([H])N([H])C(=O)C1([H])N(C(=O)C([H])(N([H])C(=O)C([H])(N([H])C([H])([H])[H])C([H])([H])[H])C(C([H])([H])[H])(C([H])([H])[H])C([H])([H])[H])C([H])([H])c2c([H])c(OC([H])([H])C([H])([H])[N+]3([H])C([H])([H])C([H])([H])C3([H])C([H])([H])C([H])([H])C([H])([H])N([H])C(=O)N3C([H])([H])C([H])([H])C([H])([H])C([H])(n4nc(-c5c([H])c([H])c(Oc6c([H])c([H])c(F)c([H])c6F)c([H])c5[H])c(C(=O)N([H])[H])c4N([H])[H])C3([H])[H])c([H])c([H])c2C1([H])[H]

$$$$
18:0:0
     RDKit          3D

 97105  0  0  1  0  0  0  0  0999 V2000
  -28.2660  -19.4460   19.7140 C   0  0  0  0  0  0  0  0  0  0  0  0
  -27.5850  -18.6570   18.7070 C   0  0  0  0  0  0  0  0  0  0  0  0
  -29.4840  -19.3140   20.2890 C   0  0  0  0  0  0  0  0  0  0  0  0
  -27.0560  -20.3660   19.9660 C   0  0  0  0  0  3  0  0  0  0  0  0
  -26.2670  -19.4050   19.0000 C   0  0  0  0  0  3  0  0  0  0  0  0
  -29.9110  -20.2350   21.4270 C   0  0  0  0  0  1  0  0  0  0  0  0
  -25.2040  -18.4550   19.5500 C   0  0  0  0  0  1  0  0  0  0  0  0
  -27.9460  -17.7340   17.9760 O   0  0  0  0  0  0  0  0  0  0  0  0
  -27.2070  -21.7340   19.3890 N   0  0  0  0  0  4  0  0  0  0  0  0
  -26.2770  -22.0970   19.2620 H   0  0  0  0  0  0  0  0  0  0  0  0
  -27.6350  -21.7010   18.4760 H   0  0  0  0  0  0  0  0  0  0  0  0
  -27.9230  -22.7310   20.2240 C   0  0  0  0  0  2  0  0  0  0  0  0
  -27.6450  -24.1680   19.7480 C   0  0  0  0  0  2  0  0  0  0  0  0
  -28.3570  -25.2720   20.5620 C   0  0  0  0  0  2  0  0  0  0  0  0
  -28.3600  -26.5590   19.9350 O   0  0  0  0  0  0  0  0  0  0  0  0
  -24.6840  -31.7230   23.1950 C   0  0  0  0  0  0  0  0  0  0  0  0
  -27.1970  -27.2910   20.0060 C   0  0  0  0  0  0  0  0  0  0  0  0
  -23.4310  -30.3820   21.5350 C   0  0  0  0  0  3  0  0  0  0  0  0
  -24.8370  -28.8390   20.0750 C   0  0  0  0  0  0  0  0  0  0  0  0
  -25.9600  -30.6840   21.3270 C   0  0  0  0  0  2  0  0  0  0  0  0
  -26.0070  -29.3200   20.6740 C   0  0  0  0  0  0  0  0  0  0  0  0
  -27.1900  -28.5460   20.6510 C   0  0  0  0  0  3  0  0  0  0  0  0
  -26.0200  -26.8420   19.3710 C   0  0  0  0  0  3  0  0  0  0  0  0
  -24.8340  -27.5940   19.4270 C   0  0  0  0  0  3  0  0  0  0  0  0
  -23.6130  -29.7250   20.1410 C   0  0  0  0  0  2  0  0  0  0  0  0
  -24.7090  -30.9440   22.0760 N   0  0  0  0  0  0  0  0  0  0  0  0
  -23.6150  -32.0070   23.7530 O   0  0  0  0  0  0  0  0  0  0  0  0
  -22.7650  -29.3550   22.4810 C   0  0  0  0  0  0  0  0  0  0  0  0
  -21.4370  -29.2050   22.3580 N   0  0  0  0  0  0  0  0  0  0  0  0
  -23.4410  -28.6990   23.2780 O   0  0  0  0  0  0  0  0  0  0  0  0
  -20.9550  -29.7820   21.6840 H   0  0  0  0  0  0  0  0  0  0  0  0
  -18.0360  -28.0920   22.8580 C   0  0  0  0  0  0  0  0  0  0  0  0
  -20.6010  -28.2720   23.1140 C   0  0  0  0  0  3  0  0  0  0  0  0
  -20.6610  -26.8520   22.5060 C   0  0  0  0  0  2  0  0  0  0  0  0
  -19.5420  -26.5830   21.4940 C   0  0  0  0  0  2  0  0  0  0  0  0
  -18.1700  -26.7530   22.1520 C   0  0  0  0  0  2  0  0  0  0  0  0
  -19.1790  -28.8120   23.2950 C   0  0  0  0  0  0  0  0  0  0  0  0
  -19.0020  -30.0690   23.9140 C   0  0  0  0  0  3  0  0  0  0  0  0
  -17.7140  -30.6050   24.1000 C   0  0  0  0  0  3  0  0  0  0  0  0
  -16.5830  -29.8810   23.6820 C   0  0  0  0  0  3  0  0  0  0  0  0
  -16.7460  -28.6260   23.0680 C   0  0  0  0  0  3  0  0  0  0  0  0
  -25.9890  -32.3100   23.8150 C   0  0  0  0  0  3  0  0  0  0  0  0
  -25.7160  -33.7070   24.1780 N   0  0  0  0  0  0  0  0  0  0  0  0
  -26.0490  -34.7660   23.4280 C   0  0  0  0  0  0  0  0  0  0  0  0
  -26.6940  -34.6700   22.3810 O   0  0  0  0  0  0  0  0  0  0  0  0
  -25.1480  -33.8530   24.9980 H   0  0  0  0  0  0  0  0  0  0  0  0
  -24.3390  -36.5870   23.1480 C   0  0  0  0  0  1  0  0  0  0  0  0
  -25.5950  -36.1550   23.9200 C   0  0  0  0  0  3  0  0  0  0  0  0
  -27.7610  -36.9960   24.7130 C   0  0  0  0  0  1  0  0  0  0  0  0
  -26.6400  -37.1950   23.7970 N   0  0  0  0  0  0  0  0  0  0  0  0
  -26.2530  -38.1190   23.9660 H   0  0  0  0  0  0  0  0  0  0  0  0
  -26.5020  -31.5000   25.0670 C   0  0  1  0  0  0  0  0  0  0  0  0
  -25.4150  -31.2610   26.1410 C   0  0  0  0  0  1  0  0  0  0  0  0
  -27.0520  -30.1210   24.6320 C   0  0  0  0  0  1  0  0  0  0  0  0
  -27.6760  -32.2530   25.7360 C   0  0  0  0  0  1  0  0  0  0  0  0
  -31.2900  -18.8420   18.5970 C   0  0  0  0  0  1  0  0  0  0  0  0
  -30.5280  -18.2870   19.8150 C   0  0  0  0  0  3  0  0  0  0  0  0
  -31.5100  -17.8140   20.9150 C   0  0  0  0  0  2  0  0  0  0  0  0
  -30.8860  -16.9340   22.0270 C   0  0  0  0  0  2  0  0  0  0  0  0
  -30.9280  -14.7490   20.8110 C   0  0  0  0  0  0  0  0  0  0  0  0
  -30.5940  -12.7450   19.4260 C   0  0  0  0  0  2  0  0  0  0  0  0
  -29.6880  -13.0860   18.2270 C   0  0  0  0  0  2  0  0  0  0  0  0
  -28.2010  -12.9380   18.6040 C   0  0  0  0  0  2  0  0  0  0  0  0
  -27.8450  -13.6540   19.9350 C   0  0  0  0  0  3  0  0  0  0  0  0
  -28.8660  -13.3120   21.0410 C   0  0  0  0  0  2  0  0  0  0  0  0
  -30.2110  -13.6310   20.5350 N   0  0  0  0  0  0  0  0  0  0  0  0
  -32.0540  -14.9510   20.3490 O   0  0  0  0  0  0  0  0  0  0  0  0
  -30.3040  -15.6740   21.5540 N   0  0  0  0  0  0  0  0  0  0  0  0
  -29.3660  -15.4520   21.8540 H   0  0  0  0  0  0  0  0  0  0  0  0
  -25.4030  -14.2110   20.5390 C   0  0  0  0  0  0  0  0  0  0  0  0
  -24.3370  -13.4160   20.8680 C   0  0  0  0  0  0  0  0  0  0  0  0
  -24.8290  -12.0740   20.8570 C   0  0  0  0  0  0  0  0  0  0  0  0
  -26.4780  -13.3530   20.3550 N   0  0  0  0  0  0  0  0  0  0  0  0
  -26.1310  -12.0630   20.6020 N   0  0  0  0  0  0  0  0  0  0  0  0
  -24.1220  -10.7980   21.0190 C   0  0  0  0  0  0  0  0  0  0  0  0
  -24.5520   -9.8290   21.9540 C   0  0  0  0  0  3  0  0  0  0  0  0
  -23.8450   -8.6170   22.1060 C   0  0  0  0  0  3  0  0  0  0  0  0
  -22.6960   -8.3630   21.3220 C   0  0  0  0  0  0  0  0  0  0  0  0
  -22.2850   -9.3190   20.3770 C   0  0  0  0  0  3  0  0  0  0  0  0
  -22.9930  -10.5240   20.2220 C   0  0  0  0  0  3  0  0  0  0  0  0
  -21.9600   -7.2030   21.3820 O   0  0  0  0  0  0  0  0  0  0  0  0
  -21.8780   -6.4620   22.5340 C   0  0  0  0  0  0  0  0  0  0  0  0
  -21.3960   -7.0110   23.7420 C   0  0  0  0  0  3  0  0  0  0  0  0
  -21.2630   -6.1930   24.8820 C   0  0  0  0  0  3  0  0  0  0  0  0
  -21.6020   -4.8290   24.8150 C   0  0  0  0  0  0  0  0  0  0  0  0
  -22.0790   -4.2800   23.6120 C   0  0  0  0  0  3  0  0  0  0  0  0
  -22.2140   -5.0940   22.4740 C   0  0  0  0  0  0  0  0  0  0  0  0
  -22.6510   -4.5540   21.3100 F   0  0  0  0  0  0  0  0  0  0  0  0
  -21.4680   -4.0430   25.9090 F   0  0  0  0  0  0  0  0  0  0  0  0
  -22.9200  -13.8630   21.0770 C   0  0  0  0  0  0  0  0  0  0  0  0
  -22.1780  -13.1670   21.9320 N   0  0  0  0  0  0  0  0  0  0  0  0
  -22.4760  -14.8640   20.5160 O   0  0  0  0  0  0  0  0  0  0  0  0
  -22.5510  -12.3590   22.4080 H   0  0  0  0  0  0  0  0  0  0  0  0
  -21.2240  -13.4440   22.1120 H   0  0  0  0  0  0  0  0  0  0  0  0
  -25.5400  -15.5850   20.3650 N   0  0  0  0  0  0  0  0  0  0  0  0
  -24.7340  -16.1970   20.4090 H   0  0  0  0  0  0  0  0  0  0  0  0
  -26.3610  -16.0430   19.9850 H   0  0  0  0  0  0  0  0  0  0  0  0
  1  4  1  0
  1  3  2  0
  2  5  1  0
  2  1  1  0
  3  6  1  0
  4  9  1  0
  5  7  1  0
  5  4  1  0
  8  2  2  0
  9 12  1  0
 10  9  1  0
 11  9  1  0
 13 12  1  0
 13 14  1  0
 15 17  1  0
 15 14  1  0
 16 27  2  0
 17 22  1  0
 18 26  1  0
 18 28  1  0
 19 25  1  0
 19 21  1  0
 20 26  1  0
 21 20  1  0
 22 21  2  0
 23 24  1  0
 23 17  2  0
 24 19  2  0
 25 18  1  0
 26 16  1  0
 28 30  2  0
 29 28  1  0
 31 29  1  0
 32 41  2  0
 32 37  1  0
 33 29  1  0
 33 37  1  0
 34 33  1  0
 35 36  1  0
 35 34  1  0
 36 32  1  0
 37 38  2  0
 38 39  1  0
 40 39  2  0
 41 40  1  0
 42 16  1  0
 42 43  1  0
 42 52  1  0
 43 46  1  0
 44 48  1  0
 44 43  1  0
 45 44  2  0
 48 47  1  0
 50 48  1  0
 50 51  1  0
 50 49  1  0
 52 55  1  1
 52 53  1  0
 54 52  1  0
 57 56  1  0
 57  3  1  0
 57 58  1  0
 58 59  1  0
 60 68  1  0
 61 66  1  0
 62 63  1  0
 62 61  1  0
 64 63  1  0
 64 73  1  0
 64 65  1  0
 66 60  1  0
 66 65  1  0
 67 60  2  0
 68 69  1  0
 68 59  1  0
 70 71  2  0
 71 90  1  0
 72 71  1  0
 72 75  1  0
 73 70  1  0
 73 74  1  0
 74 72  2  0
 75 76  1  0
 76 77  2  0
 78 81  1  0
 78 77  1  0
 79 78  2  0
 80 79  1  0
 80 75  2  0
 81 82  1  0
 82 83  1  0
 83 84  2  0
 85 84  1  0
 85 89  1  0
 86 85  2  0
 87 82  2  0
 87 86  1  0
 88 87  1  0
 90 91  1  0
 91 94  1  0
 91 93  1  0
 92 90  2  0
 95 96  1  0
 95 70  1  0
 97 95  1  0
M  ISO  4  14 101  15 101  60 100  68 100
M  END
>  <TORSDO>  (19) 
F 23

>  <SCORE>  (19) 
-11.711

>  <name>  (19) 
18

>  <ligand_id>  (19) 
18

>  <original_smiles>  (19) 
[H]c1c([H])c([H])c2c(c1[H])C([H])([H])C([H])([H])C([H])([H])C2([H])N([H])C(=O)C1([H])N(C(=O)C([H])(N([H])C(=O)C([H])(N([H])C([H])([H])[H])C([H])([H])[H])C(C([H])([H])[H])(C([H])([H])[H])C([H])([H])[H])C([H])([H])c2c([H])c(OC([H])([H])C([H])([H])C([H])([H])[N+]([H])([H])C3([H])C(=C(C([H])([H])[H])C([H])(C([H])([H])[H])C([H])([H])C([H])([H])N([H])C(=O)N4C([H])([H])C([H])([H])C([H])([H])C([H])(n5nc(-c6c([H])c([H])c(Oc7c([H])c([H])c(F)c([H])c7F)c([H])c6[H])c(C(=O)N([H])[H])c5N([H])[H])C4([H])[H])C(=O)C3([H])C([H])([H])[H])c([H])c([H])c2C1([H])[H]

>  <smiles>  (19) 
[H]c1c([H])c([H])c2c(c1[H])C([H])([H])C([H])([H])C([H])([H])C2([H])N([H])C(=O)C1([H])N(C(=O)C([H])(N([H])C(=O)C([H])(N([H])C([H])([H])[H])C([H])([H])[H])C(C([H])([H])[H])(C([H])([H])[H])C([H])([H])[H])C([H])([H])c2c([H])c(OC([H])([H])C([H])([H])C([H])([H])[N+]([H])([H])C3([H])C(=C(C([H])([H])[H])C([H])(C([H])([H])[H])C([H])([H])C([H])([H])N([H])C(=O)N4C([H])([H])C([H])([H])C([H])([H])C([H])(n5nc(-c6c([H])c([H])c(Oc7c([H])c([H])c(F)c([H])c7F)c([H])c6[H])c(C(=O)N([H])[H])c5N([H])[H])C4([H])[H])C(=O)C3([H])C([H])([H])[H])c([H])c([H])c2C1([H])[H]

$$$$
19:0:0
     RDKit          3D

 94102  0  0  1  0  0  0  0  0999 V2000
  -27.8880  -20.5260   21.3770 C   0  0  0  0  0  1  0  0  0  0  0  0
  -28.7040  -20.4640   20.0700 C   0  0  0  0  0  3  0  0  0  0  0  0
  -28.1660  -22.9580   19.7240 C   0  0  0  0  0  3  0  0  0  0  0  0
  -28.8570  -21.8430   19.4010 C   0  0  0  0  0  2  0  0  0  0  0  0
  -27.4530  -23.7320   18.6270 C   0  0  0  0  0  2  0  0  0  0  0  0
  -28.5590  -24.4010   19.3460 C   0  0  0  0  0  3  0  0  0  0  0  0
  -28.3160  -25.5010   20.3800 C   0  0  0  0  0  2  0  0  0  0  0  0
  -28.4550  -26.8440   19.8690 O   0  0  0  0  0  0  0  0  0  0  0  0
  -24.7000  -31.7590   23.4150 C   0  0  0  0  0  0  0  0  0  0  0  0
  -27.3100  -27.6090   19.9280 C   0  0  0  0  0  0  0  0  0  0  0  0
  -23.4810  -30.5080   21.6650 C   0  0  0  0  0  3  0  0  0  0  0  0
  -24.9220  -29.1140   20.0910 C   0  0  0  0  0  0  0  0  0  0  0  0
  -26.0040  -30.8870   21.4780 C   0  0  0  0  0  2  0  0  0  0  0  0
  -26.0840  -29.5780   20.7200 C   0  0  0  0  0  0  0  0  0  0  0  0
  -27.2840  -28.8320   20.6390 C   0  0  0  0  0  3  0  0  0  0  0  0
  -26.1360  -27.1750   19.2790 C   0  0  0  0  0  3  0  0  0  0  0  0
  -24.9440  -27.9140   19.3620 C   0  0  0  0  0  3  0  0  0  0  0  0
  -23.6790  -29.9630   20.2260 C   0  0  0  0  0  2  0  0  0  0  0  0
  -24.7470  -31.0620   22.2450 N   0  0  0  0  0  0  0  0  0  0  0  0
  -23.6240  -31.9770   23.9880 O   0  0  0  0  0  0  0  0  0  0  0  0
  -22.8420  -29.3990   22.5340 C   0  0  0  0  0  0  0  0  0  0  0  0
  -21.5300  -29.1770   22.3540 N   0  0  0  0  0  0  0  0  0  0  0  0
  -23.5240  -28.7430   23.3250 O   0  0  0  0  0  0  0  0  0  0  0  0
  -21.0390  -29.7570   21.6870 H   0  0  0  0  0  0  0  0  0  0  0  0
  -18.2060  -27.7880   22.6170 C   0  0  0  0  0  0  0  0  0  0  0  0
  -20.7280  -28.1630   23.0390 C   0  0  0  0  0  3  0  0  0  0  0  0
  -20.9390  -26.7680   22.4040 C   0  0  0  0  0  2  0  0  0  0  0  0
  -19.9080  -26.4380   21.3200 C   0  0  0  0  0  2  0  0  0  0  0  0
  -18.4880  -26.4830   21.8930 C   0  0  0  0  0  2  0  0  0  0  0  0
  -19.2580  -28.5850   23.1420 C   0  0  0  0  0  0  0  0  0  0  0  0
  -18.9400  -29.8070   23.7740 C   0  0  0  0  0  3  0  0  0  0  0  0
  -17.6030  -30.2310   23.8910 C   0  0  0  0  0  3  0  0  0  0  0  0
  -16.5650  -29.4300   23.3830 C   0  0  0  0  0  3  0  0  0  0  0  0
  -16.8670  -28.2110   22.7500 C   0  0  0  0  0  3  0  0  0  0  0  0
  -25.9900  -32.3370   24.0770 C   0  0  0  0  0  3  0  0  0  0  0  0
  -25.6870  -33.7050   24.5180 N   0  0  0  0  0  0  0  0  0  0  0  0
  -26.0230  -34.8120   23.8420 C   0  0  0  0  0  0  0  0  0  0  0  0
  -26.6940  -34.7870   22.8070 O   0  0  0  0  0  0  0  0  0  0  0  0
  -25.1030  -33.8010   25.3350 H   0  0  0  0  0  0  0  0  0  0  0  0
  -24.3050  -36.6300   23.6200 C   0  0  0  0  0  1  0  0  0  0  0  0
  -25.5380  -36.1600   24.4060 C   0  0  0  0  0  3  0  0  0  0  0  0
  -27.6670  -36.9660   25.3220 C   0  0  0  0  0  1  0  0  0  0  0  0
  -26.5750  -37.2130   24.3830 N   0  0  0  0  0  0  0  0  0  0  0  0
  -26.1730  -38.1220   24.5990 H   0  0  0  0  0  0  0  0  0  0  0  0
  -26.5150  -31.4660   25.2840 C   0  0  1  0  0  0  0  0  0  0  0  0
  -25.4260  -31.1380   26.3350 C   0  0  0  0  0  1  0  0  0  0  0  0
  -27.0980  -30.1280   24.7710 C   0  0  0  0  0  1  0  0  0  0  0  0
  -27.6710  -32.2040   25.9980 C   0  0  0  0  0  1  0  0  0  0  0  0
  -30.0430  -19.6620   20.1730 C   0  0  0  0  0  3  0  0  0  0  0  0
  -31.1120  -20.4620   20.7990 N   0  0  0  0  0  4  0  0  0  0  0  0
  -30.9320  -20.6130   21.7750 H   0  0  0  0  0  0  0  0  0  0  0  0
  -31.1780  -21.3600   20.3520 H   0  0  0  0  0  0  0  0  0  0  0  0
  -31.9990  -20.0020   20.6990 H   0  0  0  0  0  0  0  0  0  0  0  0
  -30.2960  -18.0900   22.2680 C   0  0  0  0  0  1  0  0  0  0  0  0
  -29.9310  -18.2070   20.7700 C   0  0  0  0  0  3  0  0  0  0  0  0
  -30.7440  -17.1650   19.9440 C   0  0  0  0  0  2  0  0  0  0  0  0
  -31.1600  -14.7140   19.8200 C   0  0  0  0  0  0  0  0  0  0  0  0
  -30.8690  -12.4680   18.8530 C   0  0  0  0  0  2  0  0  0  0  0  0
  -29.8870  -12.5800   17.6690 C   0  0  0  0  0  2  0  0  0  0  0  0
  -28.4280  -12.4550   18.1540 C   0  0  0  0  0  2  0  0  0  0  0  0
  -28.1230  -13.3700   19.3710 C   0  0  0  0  0  3  0  0  0  0  0  0
  -29.2160  -13.2420   20.4560 C   0  0  0  0  0  2  0  0  0  0  0  0
  -30.5170  -13.5160   19.8230 N   0  0  0  0  0  0  0  0  0  0  0  0
  -32.2630  -14.8870   19.2910 O   0  0  0  0  0  0  0  0  0  0  0  0
  -30.4300  -15.7580   20.2520 N   0  0  0  0  0  0  0  0  0  0  0  0
  -29.5340  -15.5490   20.6660 H   0  0  0  0  0  0  0  0  0  0  0  0
  -25.7700  -14.0130   20.1910 C   0  0  0  0  0  0  0  0  0  0  0  0
  -24.7110  -13.2560   20.6120 C   0  0  0  0  0  0  0  0  0  0  0  0
  -25.1520  -11.8970   20.5620 C   0  0  0  0  0  0  0  0  0  0  0  0
  -26.7900  -13.1170   19.9110 N   0  0  0  0  0  0  0  0  0  0  0  0
  -26.4250  -11.8410   20.1900 N   0  0  0  0  0  0  0  0  0  0  0  0
  -24.4200  -10.6460   20.7860 C   0  0  0  0  0  0  0  0  0  0  0  0
  -24.7740   -9.7600   21.8280 C   0  0  0  0  0  3  0  0  0  0  0  0
  -24.0420   -8.5710   22.0360 C   0  0  0  0  0  3  0  0  0  0  0  0
  -22.9430   -8.2590   21.2010 C   0  0  0  0  0  0  0  0  0  0  0  0
  -22.6090   -9.1320   20.1520 C   0  0  0  0  0  3  0  0  0  0  0  0
  -23.3410  -10.3130   19.9420 C   0  0  0  0  0  3  0  0  0  0  0  0
  -22.1900   -7.1140   21.3130 O   0  0  0  0  0  0  0  0  0  0  0  0
  -21.8950   -6.5630   22.5340 C   0  0  0  0  0  0  0  0  0  0  0  0
  -21.1920   -7.2800   23.5260 C   0  0  0  0  0  3  0  0  0  0  0  0
  -20.8510   -6.6510   24.7400 C   0  0  0  0  0  3  0  0  0  0  0  0
  -21.2010   -5.3050   24.9600 C   0  0  0  0  0  0  0  0  0  0  0  0
  -21.8940   -4.5880   23.9690 C   0  0  0  0  0  3  0  0  0  0  0  0
  -22.2390   -5.2140   22.7580 C   0  0  0  0  0  0  0  0  0  0  0  0
  -22.8890   -4.5120   21.8000 F   0  0  0  0  0  0  0  0  0  0  0  0
  -20.8660   -4.6980   26.1210 F   0  0  0  0  0  0  0  0  0  0  0  0
  -23.3350  -13.7520   20.9530 C   0  0  0  0  0  0  0  0  0  0  0  0
  -22.6480  -13.0750   21.8660 N   0  0  0  0  0  0  0  0  0  0  0  0
  -22.8810  -14.7750   20.4430 O   0  0  0  0  0  0  0  0  0  0  0  0
  -23.0320  -12.2480   22.3000 H   0  0  0  0  0  0  0  0  0  0  0  0
  -21.7260  -13.3900   22.1370 H   0  0  0  0  0  0  0  0  0  0  0  0
  -25.9460  -15.3810   20.0050 N   0  0  0  0  0  0  0  0  0  0  0  0
  -25.1900  -16.0410   20.1510 H   0  0  0  0  0  0  0  0  0  0  0  0
  -26.7820  -15.8130   19.6320 H   0  0  0  0  0  0  0  0  0  0  0  0
  2 49  1  0
  2  1  1  0
  3  4  1  0
  4  2  1  0
  5  6  1  0
  5  3  1  0
  6  3  1  0
  6  7  1  0
  8 10  1  0
  8  7  1  0
  9 20  2  0
 10 15  1  0
 11 19  1  0
 11 21  1  0
 12 18  1  0
 12 14  1  0
 13 19  1  0
 14 13  1  0
 15 14  2  0
 16 17  1  0
 16 10  2  0
 17 12  2  0
 18 11  1  0
 19  9  1  0
 21 23  2  0
 22 21  1  0
 24 22  1  0
 25 34  2  0
 25 30  1  0
 26 22  1  0
 26 30  1  0
 27 26  1  0
 28 29  1  0
 28 27  1  0
 29 25  1  0
 30 31  2  0
 31 32  1  0
 33 32  2  0
 34 33  1  0
 35  9  1  0
 35 36  1  0
 35 45  1  0
 36 39  1  0
 37 41  1  0
 37 36  1  0
 38 37  2  0
 41 40  1  0
 43 41  1  0
 43 44  1  0
 43 42  1  0
 45 48  1  1
 45 46  1  0
 47 45  1  0
 49 55  1  0
 49 50  1  0
 50 51  1  0
 52 50  1  0
 53 50  1  0
 55 54  1  0
 56 65  1  0
 56 55  1  0
 57 63  1  0
 57 65  1  0
 58 63  1  0
 59 60  1  0
 59 58  1  0
 61 60  1  0
 61 70  1  0
 61 62  1  0
 63 62  1  0
 64 57  2  0
 65 66  1  0
 67 68  2  0
 68 87  1  0
 69 68  1  0
 69 72  1  0
 70 71  1  0
 70 67  1  0
 71 69  2  0
 72 73  1  0
 73 74  2  0
 75 78  1  0
 75 74  1  0
 76 75  2  0
 77 76  1  0
 77 72  2  0
 78 79  1  0
 79 84  2  0
 79 80  1  0
 80 81  2  0
 81 82  1  0
 82 86  1  0
 83 82  2  0
 84 83  1  0
 85 84  1  0
 87 88  1  0
 88 91  1  0
 88 90  1  0
 89 87  2  0
 92 93  1  0
 92 67  1  0
 94 92  1  0
M  ISO  4   7 101   8 101  57 100  65 100
M  END
>  <TORSDO>  (20) 
F 22

>  <SCORE>  (20) 
-10.869

>  <name>  (20) 
19

>  <ligand_id>  (20) 
19

>  <original_smiles>  (20) 
[H]C(=C1C([H])([H])C1([H])C([H])([H])Oc1c([H])c([H])c2c(c1[H])C([H])([H])N(C(=O)C([H])(N([H])C(=O)C([H])(N([H])C([H])([H])[H])C([H])([H])[H])C(C([H])([H])[H])(C([H])([H])[H])C([H])([H])[H])C([H])(C(=O)N([H])C1([H])c3c([H])c([H])c([H])c([H])c3C([H])([H])C([H])([H])C1([H])[H])C2([H])[H])C([H])(C([H])([H])[H])C([H])(C([H])(C([H])([H])[H])C([H])([H])N([H])C(=O)N1C([H])([H])C([H])([H])C([H])([H])C([H])(n2nc(-c3c([H])c([H])c(Oc4c([H])c([H])c(F)c([H])c4F)c([H])c3[H])c(C(=O)N([H])[H])c2N([H])[H])C1([H])[H])[N+]([H])([H])[H]

>  <smiles>  (20) 
[H]C(=C1C([H])([H])C1([H])C([H])([H])Oc1c([H])c([H])c2c(c1[H])C([H])([H])N(C(=O)C([H])(N([H])C(=O)C([H])(N([H])C([H])([H])[H])C([H])([H])[H])C(C([H])([H])[H])(C([H])([H])[H])C([H])([H])[H])C([H])(C(=O)N([H])C1([H])c3c([H])c([H])c([H])c([H])c3C([H])([H])C([H])([H])C1([H])[H])C2([H])[H])C([H])(C([H])([H])[H])C([H])(C([H])(C([H])([H])[H])C([H])([H])N([H])C(=O)N1C([H])([H])C([H])([H])C([H])([H])C([H])(n2nc(-c3c([H])c([H])c(Oc4c([H])c([H])c(F)c([H])c4F)c([H])c3[H])c(C(=O)N([H])[H])c2N([H])[H])C1([H])[H])[N+]([H])([H])[H]

$$$$
20:0:0
     RDKit          3D

 95 98  0  0  1  0  0  0  0  0999 V2000
  -22.6570  -25.8230   22.1970 C   0  0  0  0  0  3  0  0  0  0  0  0
  -21.9890  -24.6330   21.2350 C   0  0  0  0  0  2  0  0  0  0  0  0
  -23.8170  -24.7130   21.3120 C   0  0  0  0  0  2  0  0  0  0  0  0
  -21.1610  -26.2510   21.2680 N   0  0  1  0  0  4  0  0  0  0  0  0
  -20.3120  -26.1830   21.8110 H   0  0  0  0  0  0  0  0  0  0  0  0
  -26.6970  -22.4530   20.9920 C   0  0  0  0  0  1  0  0  0  0  0  0
  -25.4840  -23.4420   21.6200 C   0  0  0  0  0  2  0  0  0  0  0  0
  -28.2870  -21.0920   21.2910 C   0  0  0  0  0 15  0  0  0  0  0  0
  -31.4270  -19.2500   20.5390 C   0  0  0  0  0  0  0  0  0  0  0  0
  -32.8540  -16.9680   19.6060 C   0  0  0  0  0  2  0  0  0  0  0  0
  -32.3330  -16.1140   18.3860 C   0  0  0  0  0  2  0  0  0  0  0  0
  -31.0670  -15.3300   18.7590 C   0  0  0  0  0  2  0  0  0  0  0  0
  -30.2430  -16.2100   19.7150 C   0  0  0  0  0  3  0  0  0  0  0  0
  -31.0090  -16.6840   20.9420 C   0  0  0  0  0  2  0  0  0  0  0  0
  -31.7250  -17.7820   20.3820 N   0  0  0  0  0  0  0  0  0  0  0  0
  -32.6250  -19.6180   20.2520 O   0  0  0  0  0  0  0  0  0  0  0  0
  -30.0910  -20.3280   20.7900 N   0  0  0  0  0  2  0  0  0  0  0  0
  -30.6000  -21.1840   20.6150 H   0  0  0  0  0  0  0  0  0  0  0  0
  -28.0130  -16.3760   20.7800 C   0  0  0  0  0  0  0  0  0  0  0  0
  -27.0730  -15.4370   21.0720 C   0  0  0  0  0  0  0  0  0  0  0  0
  -27.6330  -14.1840   20.6780 C   0  0  0  0  0  0  0  0  0  0  0  0
  -29.0340  -15.6670   20.1940 N   0  0  0  0  0  0  0  0  0  0  0  0
  -28.8570  -14.3340   20.2080 N   0  0  0  0  0  0  0  0  0  0  0  0
  -27.0390  -12.8530   20.6380 C   0  0  0  0  0  0  0  0  0  0  0  0
  -27.3450  -11.8730   21.6070 C   0  0  0  0  0  3  0  0  0  0  0  0
  -26.7400  -10.6020   21.5370 C   0  0  0  0  0  3  0  0  0  0  0  0
  -25.8220  -10.3110   20.5010 C   0  0  0  0  0  0  0  0  0  0  0  0
  -25.5460  -11.2840   19.5270 C   0  0  0  0  0  3  0  0  0  0  0  0
  -26.1520  -12.5470   19.5920 C   0  0  0  0  0  3  0  0  0  0  0  0
  -25.1930   -9.1030   20.3470 O   0  0  0  0  0  0  0  0  0  0  0  0
  -24.4520   -8.5490   21.3560 C   0  0  0  0  0  0  0  0  0  0  0  0
  -23.3330   -9.2090   21.9100 C   0  0  0  0  0  3  0  0  0  0  0  0
  -22.5610   -8.5710   22.9000 C   0  0  0  0  0  3  0  0  0  0  0  0
  -22.8980   -7.2730   23.3280 C   0  0  0  0  0  0  0  0  0  0  0  0
  -24.0110   -6.6130   22.7760 C   0  0  0  0  0  3  0  0  0  0  0  0
  -24.7840   -7.2510   21.7910 C   0  0  0  0  0  0  0  0  0  0  0  0
  -25.8430   -6.6070   21.2450 F   0  0  0  0  0  0  0  0  0  0  0  0
  -22.1500   -6.6550   24.2720 F   0  0  0  0  0  0  0  0  0  0  0  0
  -25.7030  -15.7200   21.5940 C   0  0  0  0  0  0  0  0  0  0  0  0
  -25.1480  -14.8010   22.3750 N   0  0  0  0  0  0  0  0  0  0  0  0
  -25.1380  -16.7850   21.3500 O   0  0  0  0  0  0  0  0  0  0  0  0
  -25.6250  -13.9410   22.6000 H   0  0  0  0  0  0  0  0  0  0  0  0
  -24.2280  -14.9630   22.7580 H   0  0  0  0  0  0  0  0  0  0  0  0
  -28.0730  -17.7570   20.9400 N   0  0  0  0  0  0  0  0  0  0  0  0
  -27.2850  -18.2740   21.3090 H   0  0  0  0  0  0  0  0  0  0  0  0
  -28.8550  -18.3470   20.6790 H   0  0  0  0  0  0  0  0  0  0  0  0
  -25.6080  -23.3940   23.1330 C   0  0  0  0  0  2  0  0  0  0  0  0
  -25.8670  -24.7270   23.7110 N   0  0  0  0  0  4  0  0  0  0  0  0
  -26.6990  -25.1400   23.3260 H   0  0  0  0  0  0  0  0  0  0  0  0
  -26.0070  -24.6370   24.7010 H   0  0  0  0  0  0  0  0  0  0  0  0
  -25.0980  -25.3520   23.5580 H   0  0  0  0  0  0  0  0  0  0  0  0
  -20.9080  -27.9800   19.1830 C   0  0  0  0  0  1  0  0  0  0  0  0
  -22.4460  -27.2340   16.5880 C   0  0  0  0  0  1  0  0  0  0  0  0
  -22.6420  -27.9050   17.9960 C   0  0  0  0  0  2  0  0  0  0  0  0
  -24.4280  -27.4740   18.2230 O   0  0  0  0  0  0  0  0  0  0  0  0
  -24.7500  -31.4270   22.4120 C   0  0  0  0  0  0  0  0  0  0  0  0
  -25.7460  -27.9810   17.8620 C   0  0  0  0  0  3  0  0  0  0  0  0
  -23.3340  -30.7780   20.5420 C   0  0  0  0  0  3  0  0  0  0  0  0
  -24.5310  -30.2030   18.3130 C   0  0  0  0  0  3  0  0  0  0  0  0
  -25.8740  -30.9310   20.2520 C   0  0  0  0  0  2  0  0  0  0  0  0
  -25.6500  -29.9850   19.1050 C   0  0  0  0  0  3  0  0  0  0  0  0
  -26.4110  -28.8430   18.7940 C   0  0  0  0  0  2  0  0  0  0  0  0
  -25.4750  -28.6260   16.6980 C   0  0  0  0  0  2  0  0  0  0  0  0
  -24.5670  -29.6640   16.9910 C   0  0  0  0  0  2  0  0  0  0  0  0
  -23.3760  -30.9410   18.9770 C   0  0  0  0  0  2  0  0  0  0  0  0
  -24.6690  -31.1150   21.0980 N   0  0  0  0  0  0  0  0  0  0  0  0
  -23.7300  -31.5350   23.1090 O   0  0  0  0  0  0  0  0  0  0  0  0
  -22.9780  -29.3790   21.1420 C   0  0  0  0  0  0  0  0  0  0  0  0
  -21.8190  -29.0900   21.6740 N   0  0  0  0  0  0  0  0  0  0  0  0
  -23.8200  -28.4980   21.2340 O   0  0  0  0  0  0  0  0  0  0  0  0
  -21.1450  -29.8350   21.7940 H   0  0  0  0  0  0  0  0  0  0  0  0
  -18.3860  -28.1190   21.8410 C   0  0  0  0  0  0  0  0  0  0  0  0
  -21.2820  -27.6770   21.7650 C   0  0  0  0  0  3  0  0  0  0  0  0
  -21.6900  -26.6870   19.9880 C   0  0  0  0  0  2  0  0  0  0  0  0
  -19.2460  -26.6270   18.6810 C   0  0  0  0  0 15  0  0  0  0  0  0
  -18.0010  -27.2770   20.2730 C   0  0  0  0  0  1  0  0  0  0  0  0
  -19.7680  -28.2860   22.4260 C   0  0  0  0  0  0  0  0  0  0  0  0
  -19.8800  -29.2350   23.5700 C   0  0  0  0  0  3  0  0  0  0  0  0
  -18.8370  -29.9220   24.2630 C   0  0  0  0  0  3  0  0  0  0  0  0
  -17.5320  -29.6450   23.8470 C   0  0  0  0  0  3  0  0  0  0  0  0
  -17.3440  -28.7880   22.6890 C   0  0  0  0  0  3  0  0  0  0  0  0
  -26.1230  -31.6780   23.0770 C   0  0  0  0  0  3  0  0  0  0  0  0
  -25.9750  -32.9230   23.8330 N   0  0  0  0  0  0  0  0  0  0  0  0
  -26.3180  -34.1300   23.3700 C   0  0  0  0  0  0  0  0  0  0  0  0
  -26.8900  -34.2960   22.2890 O   0  0  0  0  0  0  0  0  0  0  0  0
  -25.4630  -32.8650   24.7000 H   0  0  0  0  0  0  0  0  0  0  0  0
  -24.7410  -36.0660   23.7060 C   0  0  0  0  0  1  0  0  0  0  0  0
  -25.9820  -35.3450   24.2560 C   0  0  0  0  0  3  0  0  0  0  0  0
  -28.2390  -35.7600   25.1240 C   0  0  0  0  0  1  0  0  0  0  0  0
  -27.1010  -36.3010   24.3850 N   0  0  0  0  0  0  0  0  0  0  0  0
  -26.7970  -37.1480   24.8570 H   0  0  0  0  0  0  0  0  0  0  0  0
  -26.5880  -30.4980   24.0140 C   0  0  1  0  0  0  0  0  0  0  0  0
  -25.4660  -29.9360   24.9160 C   0  0  0  0  0  1  0  0  0  0  0  0
  -27.1630  -29.3140   23.2010 C   0  0  0  0  0  1  0  0  0  0  0  0
  -27.7350  -30.9980   24.9200 C   0  0  0  0  0  1  0  0  0  0  0  0
  2  3  1  0
  2  1  1  0
  3  1  1  0
  4 73  1  0
  4  5  1  6
  4  1  1  0
  6  7  1  0
  7 47  1  0
  9 17  1  0
 10 15  1  0
 11 12  1  0
 11 10  1  0
 13 12  1  0
 13 22  1  0
 13 14  1  0
 15  9  1  0
 15 14  1  0
 16  9  2  0
 18 17  1  0
 19 44  1  0
 19 20  2  0
 20 39  1  0
 21 20  1  0
 22 23  1  0
 22 19  1  0
 23 21  2  0
 24 21  1  0
 24 25  1  0
 26 25  2  0
 27 26  1  0
 28 29  1  0
 28 27  2  0
 29 24  2  0
 30 27  1  0
 30 31  1  0
 31 36  2  0
 31 32  1  0
 32 33  2  0
 33 34  1  0
 34 38  1  0
 35 34  2  0
 36 35  1  0
 37 36  1  0
 39 40  1  0
 40 42  1  0
 40 43  1  0
 41 39  2  0
 44 45  1  0
 46 44  1  0
 47 48  1  0
 48 50  1  0
 49 48  1  0
 51 48  1  0
 52 74  1  0
 53 54  1  0
 54 55  1  0
 56 67  2  0
 57 55  1  0
 57 62  1  0
 58 66  1  0
 58 68  1  0
 59 64  1  0
 59 65  1  0
 59 61  1  0
 60 66  1  0
 61 62  1  0
 61 60  1  0
 63 64  1  0
 63 57  1  0
 65 58  1  0
 66 56  1  0
 68 70  2  0
 68 69  1  0
 69 71  1  0
 72 77  2  0
 72 81  1  0
 73 69  1  0
 73 77  1  0
 74  4  1  0
 76 72  1  0
 77 78  1  0
 78 79  2  0
 80 79  1  0
 81 80  2  0
 82 56  1  0
 82 83  1  0
 82 92  1  0
 83 86  1  0
 84 83  1  0
 84 88  1  0
 85 84  2  0
 88 87  1  0
 88 90  1  0
 90 91  1  0
 90 89  1  0
 92 93  1  1
 92 95  1  0
 94 92  1  0
M  ISO  4   9 100  17 100  54 101  55 101
M  END
>  <TORSDO>  (21) 
F 22

>  <SCORE>  (21) 
3.128

>  <name>  (21) 
20

>  <ligand_id>  (21) 
20

>  <original_smiles>  (21) 
[H]C(=C(C1([H])C([H])([H])[N+]([H])(C([H])([H])C([H])(Oc2c([H])c([H])c3c(c2[H])C([H])([H])N(C(=O)C([H])(N([H])C(=O)C([H])(N([H])C([H])([H])[H])C([H])([H])[H])C(C([H])([H])[H])(C([H])([H])[H])C([H])([H])[H])C([H])(C(=O)N([H])C2([H])c4c([H])c([H])c([H])c([H])c4C([H])([H])C([H])([H])C2([H])[H])C3([H])[H])C([H])([H])[H])C1([H])[H])C([H])([H])[N+]([H])([H])[H])C([H])([H])N([H])C(=O)N1C([H])([H])C([H])([H])C([H])([H])C([H])(n2nc(-c3c([H])c([H])c(Oc4c([H])c([H])c(F)c([H])c4F)c([H])c3[H])c(C(=O)N([H])[H])c2N([H])[H])C1([H])[H]

>  <smiles>  (21) 
[H]C(=C(C1([H])C([H])([H])[N+]([H])(C([H])([H])C([H])(Oc2c([H])c([H])c3c(c2[H])C([H])([H])N(C(=O)C([H])(N([H])C(=O)C([H])(N([H])C([H])([H])[H])C([H])([H])[H])C(C([H])([H])[H])(C([H])([H])[H])C([H])([H])[H])C([H])(C(=O)N([H])C2([H])c4c([H])c([H])c([H])c([H])c4C([H])([H])C([H])([H])C2([H])[H])C3([H])[H])C([H])([H])[H])C1([H])[H])C([H])([H])[N+]([H])([H])[H])C([H])([H])N([H])C(=O)N1C([H])([H])C([H])([H])C([H])([H])C([H])(n2nc(-c3c([H])c([H])c(Oc4c([H])c([H])c(F)c([H])c4F)c([H])c3[H])c(C(=O)N([H])[H])c2N([H])[H])C1([H])[H]

$$$$
21:0:0
     RDKit          3D

 90 98  0  0  1  0  0  0  0  0999 V2000
  -29.3830  -20.8460   18.3320 C   0  0  0  0  0  1  0  0  0  0  0  0
  -29.7800  -20.9710   19.7580 N   0  0  2  0  0  4  0  0  0  0  0  0
  -30.7610  -21.2110   19.7420 H   0  0  0  0  0  0  0  0  0  0  0  0
  -29.7580  -17.0100   20.4700 C   0  0  0  0  0  0  0  0  0  0  0  0
  -30.4590  -18.3050   19.9240 C   0  0  0  0  0  0  0  0  0  0  0  0
  -28.5470  -17.5830   21.2040 C   0  0  0  0  0  2  0  0  0  0  0  0
  -28.3420  -19.0690   20.8150 C   0  0  0  0  0  2  0  0  0  0  0  0
  -29.7400  -19.6220   20.5230 C   0  0  0  0  0  3  0  0  0  0  0  0
  -29.8380  -15.6870   20.4960 N   0  0  0  0  0  0  0  0  0  0  0  0
  -31.4360  -18.3030   19.1690 O   0  0  0  0  0  0  0  0  0  0  0  0
  -30.7250  -14.7370   19.9070 C   0  0  0  0  0  0  0  0  0  0  0  0
  -30.5580  -12.4780   18.8070 C   0  0  0  0  0  2  0  0  0  0  0  0
  -29.5120  -12.5650   17.6680 C   0  0  0  0  0  2  0  0  0  0  0  0
  -28.0760  -12.3680   18.2020 C   0  0  0  0  0  2  0  0  0  0  0  0
  -27.7940  -13.2150   19.4700 C   0  0  0  0  0  3  0  0  0  0  0  0
  -28.9350  -13.0450   20.4960 C   0  0  0  0  0  2  0  0  0  0  0  0
  -30.1870  -13.4680   19.8420 N   0  0  0  0  0  0  0  0  0  0  0  0
  -31.8210  -14.9610   19.3900 O   0  0  0  0  0  0  0  0  0  0  0  0
  -25.4680  -13.7940   20.3970 C   0  0  0  0  0  0  0  0  0  0  0  0
  -24.4270  -13.0130   20.8190 C   0  0  0  0  0  0  0  0  0  0  0  0
  -24.8760  -11.6610   20.6960 C   0  0  0  0  0  0  0  0  0  0  0  0
  -26.4840  -12.9200   20.0470 N   0  0  0  0  0  0  0  0  0  0  0  0
  -26.1370  -11.6290   20.2860 N   0  0  0  0  0  0  0  0  0  0  0  0
  -24.1570  -10.3960   20.8920 C   0  0  0  0  0  0  0  0  0  0  0  0
  -24.5890   -9.4410   21.8390 C   0  0  0  0  0  3  0  0  0  0  0  0
  -23.8710   -8.2390   22.0220 C   0  0  0  0  0  3  0  0  0  0  0  0
  -22.7070   -7.9860   21.2590 C   0  0  0  0  0  0  0  0  0  0  0  0
  -22.2930   -8.9310   20.3010 C   0  0  0  0  0  3  0  0  0  0  0  0
  -23.0130  -10.1230   20.1170 C   0  0  0  0  0  3  0  0  0  0  0  0
  -21.9610   -6.8350   21.3490 O   0  0  0  0  0  0  0  0  0  0  0  0
  -21.8160   -6.1640   22.5370 C   0  0  0  0  0  0  0  0  0  0  0  0
  -21.2410   -6.7760   23.6730 C   0  0  0  0  0  3  0  0  0  0  0  0
  -21.0480   -6.0280   24.8520 C   0  0  0  0  0  3  0  0  0  0  0  0
  -21.4190   -4.6720   24.8960 C   0  0  0  0  0  0  0  0  0  0  0  0
  -21.9870   -4.0600   23.7640 C   0  0  0  0  0  3  0  0  0  0  0  0
  -22.1820   -4.8040   22.5870 C   0  0  0  0  0  0  0  0  0  0  0  0
  -22.7100   -4.2050   21.4930 F   0  0  0  0  0  0  0  0  0  0  0  0
  -21.2260   -3.9510   26.0250 F   0  0  0  0  0  0  0  0  0  0  0  0
  -23.0600  -13.4850   21.2210 C   0  0  0  0  0  0  0  0  0  0  0  0
  -22.4010  -12.7580   22.1160 N   0  0  0  0  0  0  0  0  0  0  0  0
  -22.5870  -14.5300   20.7750 O   0  0  0  0  0  0  0  0  0  0  0  0
  -22.7970  -11.9100   22.4950 H   0  0  0  0  0  0  0  0  0  0  0  0
  -21.4870  -13.0530   22.4300 H   0  0  0  0  0  0  0  0  0  0  0  0
  -25.6230  -15.1690   20.2530 N   0  0  0  0  0  0  0  0  0  0  0  0
  -24.8720  -15.8240   20.4400 H   0  0  0  0  0  0  0  0  0  0  0  0
  -26.4480  -15.6040   19.8620 H   0  0  0  0  0  0  0  0  0  0  0  0
  -29.0690  -22.1790   20.4210 C   0  0  0  0  0  2  0  0  0  0  0  0
  -29.3790  -23.7130   19.9490 C   0  0  0  0  0  3  0  0  0  0  0  0
  -28.3330  -24.8880   20.3530 C   0  0  0  0  0  3  0  0  0  0  0  0
  -28.5540  -26.3590   20.0720 O   0  0  0  0  0  0  0  0  0  0  0  0
  -24.7110  -31.7640   23.1040 C   0  0  0  0  0  0  0  0  0  0  0  0
  -27.4370  -27.2330   20.0430 C   0  0  0  0  0  0  0  0  0  0  0  0
  -23.5540  -30.3550   21.4410 C   0  0  0  0  0  3  0  0  0  0  0  0
  -25.0500  -28.8420   20.0200 C   0  0  0  0  0  0  0  0  0  0  0  0
  -26.0950  -30.7090   21.2970 C   0  0  0  0  0  2  0  0  0  0  0  0
  -26.2080  -29.3340   20.6370 C   0  0  0  0  0  0  0  0  0  0  0  0
  -27.4040  -28.5440   20.6360 C   0  0  0  0  0  3  0  0  0  0  0  0
  -26.2570  -26.8200   19.3850 C   0  0  0  0  0  3  0  0  0  0  0  0
  -25.0800  -27.5920   19.3850 C   0  0  0  0  0  3  0  0  0  0  0  0
  -23.7970  -29.6930   20.0600 C   0  0  0  0  0  2  0  0  0  0  0  0
  -24.8050  -30.9620   22.0020 N   0  0  0  0  0  0  0  0  0  0  0  0
  -23.6180  -32.0180   23.6290 O   0  0  0  0  0  0  0  0  0  0  0  0
  -22.8950  -29.3220   22.3870 C   0  0  0  0  0  0  0  0  0  0  0  0
  -21.5670  -29.1550   22.2720 N   0  0  0  0  0  0  0  0  0  0  0  0
  -23.5810  -28.6740   23.1820 O   0  0  0  0  0  0  0  0  0  0  0  0
  -21.0720  -29.7270   21.6040 H   0  0  0  0  0  0  0  0  0  0  0  0
  -18.1830  -27.9930   22.8270 C   0  0  0  0  0  0  0  0  0  0  0  0
  -20.7520  -28.2020   23.0300 C   0  0  0  0  0  3  0  0  0  0  0  0
  -20.8130  -26.7910   22.3990 C   0  0  0  0  0  2  0  0  0  0  0  0
  -19.6770  -26.5260   21.4050 C   0  0  0  0  0  2  0  0  0  0  0  0
  -18.3170  -26.6680   22.0950 C   0  0  0  0  0  2  0  0  0  0  0  0
  -19.3280  -28.7210   23.2510 C   0  0  0  0  0  0  0  0  0  0  0  0
  -19.1480  -29.9640   23.8970 C   0  0  0  0  0  3  0  0  0  0  0  0
  -17.8570  -30.4800   24.1200 C   0  0  0  0  0  3  0  0  0  0  0  0
  -16.7280  -29.7480   23.7130 C   0  0  0  0  0  3  0  0  0  0  0  0
  -16.8920  -28.5060   23.0720 C   0  0  0  0  0  3  0  0  0  0  0  0
  -25.9750  -32.4160   23.7470 C   0  0  0  0  0  3  0  0  0  0  0  0
  -26.5040  -31.6320   25.0120 C   0  0  1  0  0  0  0  0  0  0  0  0
  -25.4100  -31.3480   26.0690 C   0  0  0  0  0  1  0  0  0  0  0  0
  -27.1230  -30.2750   24.6010 C   0  0  0  0  0  1  0  0  0  0  0  0
  -27.6310  -32.4410   25.6960 C   0  0  0  0  0  1  0  0  0  0  0  0
  -25.6300  -33.8000   24.1020 N   0  0  0  0  0  0  0  0  0  0  0  0
  -25.9300  -34.8750   23.3620 C   0  0  0  0  0  0  0  0  0  0  0  0
  -26.5950  -34.8070   22.3240 O   0  0  0  0  0  0  0  0  0  0  0  0
  -25.0380  -33.9240   24.9110 H   0  0  0  0  0  0  0  0  0  0  0  0
  -24.1510  -36.6290   23.0570 C   0  0  0  0  0  1  0  0  0  0  0  0
  -25.4100  -36.2420   23.8490 C   0  0  0  0  0  3  0  0  0  0  0  0
  -27.5220  -37.1740   24.6870 C   0  0  0  0  0  1  0  0  0  0  0  0
  -26.4130  -37.3240   23.7470 N   0  0  0  0  0  0  0  0  0  0  0  0
  -25.9810  -38.2300   23.9100 H   0  0  0  0  0  0  0  0  0  0  0  0
  1  2  1  0
  2 47  1  0
  2  3  1  6
  4  9  2  0
  4  6  1  0
  5  4  1  0
  5  8  1  0
  7  6  1  0
  8  2  1  0
  8  7  1  0
 10  5  2  0
 11  9  1  0
 12 17  1  0
 13 14  1  0
 13 12  1  0
 15 14  1  0
 15 22  1  0
 15 16  1  0
 17 11  1  0
 17 16  1  0
 18 11  2  0
 19 20  2  0
 20 39  1  0
 21 20  1  0
 21 24  1  0
 22 23  1  0
 22 19  1  0
 23 21  2  0
 24 25  1  0
 25 26  2  0
 27 30  1  0
 27 26  1  0
 28 27  2  0
 29 28  1  0
 29 24  2  0
 30 31  1  0
 31 36  2  0
 31 32  1  0
 32 33  2  0
 33 34  1  0
 34 38  1  0
 35 34  2  0
 36 35  1  0
 37 36  1  0
 39 40  1  0
 40 43  1  0
 40 42  1  0
 41 39  2  0
 44 19  1  0
 44 45  1  0
 46 44  1  0
 48 49  2  0
 48 47  1  0
 50 49  1  0
 51 62  2  0
 52 50  1  0
 52 57  1  0
 53 61  1  0
 53 63  1  0
 54 60  1  0
 54 56  1  0
 55 61  1  0
 56 55  1  0
 57 56  2  0
 58 52  2  0
 59 58  1  0
 59 54  2  0
 60 53  1  0
 61 51  1  0
 63 65  2  0
 64 63  1  0
 66 64  1  0
 67 76  2  0
 67 72  1  0
 68 64  1  0
 68 72  1  0
 69 68  1  0
 70 71  1  0
 70 69  1  0
 71 67  1  0
 72 73  2  0
 73 74  1  0
 75 74  2  0
 76 75  1  0
 77 51  1  0
 77 82  1  0
 77 78  1  0
 78 81  1  1
 78 79  1  0
 80 78  1  0
 82 85  1  0
 83 87  1  0
 83 82  1  0
 84 83  2  0
 87 86  1  0
 89 87  1  0
 89 90  1  0
 89 88  1  0
M  ISO  4   9 100  11 100  49 101  50 101
M  END
>  <TORSDO>  (22) 
F 20

>  <SCORE>  (22) 
-12.532

>  <name>  (22) 
21

>  <ligand_id>  (22) 
21

>  <original_smiles>  (22) 
[H]c1c([H])c([H])c2c(c1[H])C([H])([H])C([H])([H])C([H])([H])C2([H])N([H])C(=O)C1([H])N(C(=O)C([H])(N([H])C(=O)C([H])(N([H])C([H])([H])[H])C([H])([H])[H])C(C([H])([H])[H])(C([H])([H])[H])C([H])([H])[H])C([H])([H])c2c([H])c(OC([H])([H])C([H])([H])C([H])([H])[N+]([H])(C([H])([H])[H])C3([H])C(=O)C(=NC(=O)N4C([H])([H])C([H])([H])C([H])([H])C([H])(n5nc(-c6c([H])c([H])c(Oc7c([H])c([H])c(F)c([H])c7F)c([H])c6[H])c(C(=O)N([H])[H])c5N([H])[H])C4([H])[H])C([H])([H])C3([H])[H])c([H])c([H])c2C1([H])[H]

>  <smiles>  (22) 
[H]c1c([H])c([H])c2c(c1[H])C([H])([H])C([H])([H])C([H])([H])C2([H])N([H])C(=O)C1([H])N(C(=O)C([H])(N([H])C(=O)C([H])(N([H])C([H])([H])[H])C([H])([H])[H])C(C([H])([H])[H])(C([H])([H])[H])C([H])([H])[H])C([H])([H])c2c([H])c(OC([H])([H])C([H])([H])C([H])([H])[N+]([H])(C([H])([H])[H])C3([H])C(=O)C(=NC(=O)N4C([H])([H])C([H])([H])C([H])([H])C([H])(n5nc(-c6c([H])c([H])c(Oc7c([H])c([H])c(F)c([H])c7F)c([H])c6[H])c(C(=O)N([H])[H])c5N([H])[H])C4([H])[H])C([H])([H])C3([H])[H])c([H])c([H])c2C1([H])[H]

$$$$
22:0:0
     RDKit          3D

 95103  0  0  1  0  0  0  0  0999 V2000
  -31.3610  -21.9090   19.2380 C   0  0  0  0  0  3  0  0  0  0  0  0
  -30.4130  -22.8930   19.5400 C   0  0  0  0  0  3  0  0  0  0  0  0
  -31.0210  -20.5420   19.3040 C   0  0  0  0  0  0  0  0  0  0  0  0
  -29.1130  -22.5250   19.9030 C   0  0  0  0  0  0  0  0  0  0  0  0
  -29.7300  -20.1510   19.7590 C   0  0  0  0  0  0  0  0  0  0  0  0
  -32.0740  -19.5670   18.8000 C   0  0  0  0  0  1  0  0  0  0  0  0
  -28.7990  -21.1660   20.0380 N   0  0  0  0  0  0  0  0  0  0  0  0
  -28.0350  -23.6940   19.9790 C   0  0  0  0  0  2  0  0  0  0  0  0
  -27.6630  -25.1580   22.1010 C   0  0  0  0  0  1  0  0  0  0  0  0
  -28.3660  -25.0910   20.7350 C   0  0  0  0  0  3  0  0  0  0  0  0
  -28.3200  -26.4460   20.0900 O   0  0  0  0  0  0  0  0  0  0  0  0
  -24.5720  -31.8410   23.1680 C   0  0  0  0  0  0  0  0  0  0  0  0
  -27.1850  -27.2740   20.1170 C   0  0  0  0  0  0  0  0  0  0  0  0
  -23.3720  -30.4470   21.5210 C   0  0  0  0  0  3  0  0  0  0  0  0
  -24.8240  -28.8900   20.0970 C   0  0  0  0  0  0  0  0  0  0  0  0
  -25.9120  -30.7640   21.3410 C   0  0  0  0  0  2  0  0  0  0  0  0
  -25.9920  -29.3830   20.6950 C   0  0  0  0  0  0  0  0  0  0  0  0
  -27.1780  -28.5890   20.6840 C   0  0  0  0  0  3  0  0  0  0  0  0
  -25.9960  -26.8270   19.5100 C   0  0  0  0  0  3  0  0  0  0  0  0
  -24.8290  -27.6200   19.4960 C   0  0  0  0  0  3  0  0  0  0  0  0
  -23.5890  -29.7700   20.1400 C   0  0  0  0  0  2  0  0  0  0  0  0
  -24.6380  -31.0360   22.0670 N   0  0  0  0  0  0  0  0  0  0  0  0
  -23.4870  -32.1160   23.7010 O   0  0  0  0  0  0  0  0  0  0  0  0
  -22.7050  -29.4290   22.4770 C   0  0  0  0  0  0  0  0  0  0  0  0
  -21.3760  -29.2700   22.3620 N   0  0  0  0  0  0  0  0  0  0  0  0
  -23.3840  -28.7850   23.2800 O   0  0  0  0  0  0  0  0  0  0  0  0
  -20.8860  -29.8400   21.6860 H   0  0  0  0  0  0  0  0  0  0  0  0
  -17.9880  -28.1190   22.8910 C   0  0  0  0  0  0  0  0  0  0  0  0
  -20.5530  -28.3340   23.1310 C   0  0  0  0  0  3  0  0  0  0  0  0
  -20.6260  -26.9110   22.5310 C   0  0  0  0  0  2  0  0  0  0  0  0
  -19.5050  -26.6210   21.5280 C   0  0  0  0  0  2  0  0  0  0  0  0
  -18.1340  -26.7780   22.1920 C   0  0  0  0  0  2  0  0  0  0  0  0
  -19.1240  -28.8570   23.3170 C   0  0  0  0  0  0  0  0  0  0  0  0
  -18.9320  -30.1150   23.9300 C   0  0  0  0  0  3  0  0  0  0  0  0
  -17.6380  -30.6330   24.1220 C   0  0  0  0  0  3  0  0  0  0  0  0
  -16.5160  -29.8920   23.7110 C   0  0  0  0  0  3  0  0  0  0  0  0
  -16.6930  -28.6360   23.1020 C   0  0  0  0  0  3  0  0  0  0  0  0
  -25.8520  -32.4710   23.7970 C   0  0  0  0  0  3  0  0  0  0  0  0
  -25.5400  -33.8650   24.1430 N   0  0  0  0  0  0  0  0  0  0  0  0
  -25.8720  -34.9270   23.3950 C   0  0  0  0  0  0  0  0  0  0  0  0
  -26.5430  -34.8360   22.3640 O   0  0  0  0  0  0  0  0  0  0  0  0
  -24.9440  -34.0100   24.9450 H   0  0  0  0  0  0  0  0  0  0  0  0
  -24.1420  -36.7210   23.0610 C   0  0  0  0  0  1  0  0  0  0  0  0
  -25.3850  -36.3100   23.8680 C   0  0  0  0  0  3  0  0  0  0  0  0
  -27.5190  -37.1880   24.7060 C   0  0  0  0  0  1  0  0  0  0  0  0
  -26.4160  -37.3660   23.7640 N   0  0  0  0  0  0  0  0  0  0  0  0
  -26.0110  -38.2840   23.9210 H   0  0  0  0  0  0  0  0  0  0  0  0
  -26.3710  -31.6890   25.0670 C   0  0  1  0  0  0  0  0  0  0  0  0
  -25.2780  -31.4410   26.1320 C   0  0  0  0  0  1  0  0  0  0  0  0
  -26.9540  -30.3160   24.6620 C   0  0  0  0  0  1  0  0  0  0  0  0
  -27.5240  -32.4760   25.7320 C   0  0  0  0  0  1  0  0  0  0  0  0
  -29.2620  -18.6090   19.8700 C   0  0  0  0  0  3  0  0  0  0  0  0
  -28.1130  -18.6400   20.7730 N   0  0  0  0  0  4  0  0  0  0  0  0
  -27.7660  -19.5820   20.6550 H   0  0  0  0  0  0  0  0  0  0  0  0
  -28.4000  -18.5360   21.7270 H   0  0  0  0  0  0  0  0  0  0  0  0
  -27.4050  -17.9780   20.5220 H   0  0  0  0  0  0  0  0  0  0  0  0
  -30.2730  -17.3570   20.2130 C   0  0  0  0  0  2  0  0  0  0  0  0
  -30.5600  -14.7450   20.2180 C   0  0  0  0  0  0  0  0  0  0  0  0
  -30.3440  -12.4530   19.2500 C   0  0  0  0  0  2  0  0  0  0  0  0
  -29.4090  -12.5230   18.0240 C   0  0  0  0  0  2  0  0  0  0  0  0
  -27.9380  -12.3550   18.4590 C   0  0  0  0  0  2  0  0  0  0  0  0
  -27.5670  -13.2620   19.6640 C   0  0  0  0  0  3  0  0  0  0  0  0
  -28.6300  -13.1870   20.7830 C   0  0  0  0  0  2  0  0  0  0  0  0
  -29.9240  -13.5250   20.1820 N   0  0  0  0  0  0  0  0  0  0  0  0
  -31.7510  -14.8250   19.9030 O   0  0  0  0  0  0  0  0  0  0  0  0
  -29.8040  -15.9000   20.3830 N   0  0  0  0  0  0  0  0  0  0  0  0
  -28.8280  -15.7520   20.5830 H   0  0  0  0  0  0  0  0  0  0  0  0
  -25.1870  -13.8650   20.3960 C   0  0  0  0  0  0  0  0  0  0  0  0
  -24.1220  -13.0970   20.7840 C   0  0  0  0  0  0  0  0  0  0  0  0
  -24.5820  -11.7460   20.7690 C   0  0  0  0  0  0  0  0  0  0  0  0
  -26.2260  -12.9800   20.1640 N   0  0  0  0  0  0  0  0  0  0  0  0
  -25.8710  -11.7010   20.4530 N   0  0  0  0  0  0  0  0  0  0  0  0
  -23.8520  -10.4870   20.9770 C   0  0  0  0  0  0  0  0  0  0  0  0
  -24.2920   -9.5240   21.9140 C   0  0  0  0  0  3  0  0  0  0  0  0
  -23.5630   -8.3310   22.1090 C   0  0  0  0  0  3  0  0  0  0  0  0
  -22.3800   -8.0920   21.3690 C   0  0  0  0  0  0  0  0  0  0  0  0
  -21.9620   -9.0410   20.4210 C   0  0  0  0  0  3  0  0  0  0  0  0
  -22.6910  -10.2260   20.2240 C   0  0  0  0  0  3  0  0  0  0  0  0
  -21.6230   -6.9500   21.4730 O   0  0  0  0  0  0  0  0  0  0  0  0
  -21.5950   -6.2080   22.6260 C   0  0  0  0  0  0  0  0  0  0  0  0
  -21.2040   -6.7690   23.8620 C   0  0  0  0  0  3  0  0  0  0  0  0
  -21.1250   -5.9560   25.0100 C   0  0  0  0  0  3  0  0  0  0  0  0
  -21.4210   -4.5820   24.9230 C   0  0  0  0  0  0  0  0  0  0  0  0
  -21.8020   -4.0200   23.6930 C   0  0  0  0  0  3  0  0  0  0  0  0
  -21.8860   -4.8320   22.5470 C   0  0  0  0  0  0  0  0  0  0  0  0
  -22.2330   -4.2810   21.3590 F   0  0  0  0  0  0  0  0  0  0  0  0
  -21.3360   -3.7990   26.0250 F   0  0  0  0  0  0  0  0  0  0  0  0
  -22.7260  -13.5800   21.0470 C   0  0  0  0  0  0  0  0  0  0  0  0
  -21.9990  -12.8990   21.9250 N   0  0  0  0  0  0  0  0  0  0  0  0
  -22.2940  -14.6000   20.5100 O   0  0  0  0  0  0  0  0  0  0  0  0
  -22.3610  -12.0730   22.3790 H   0  0  0  0  0  0  0  0  0  0  0  0
  -21.0620  -13.2070   22.1430 H   0  0  0  0  0  0  0  0  0  0  0  0
  -25.3550  -15.2300   20.1850 N   0  0  0  0  0  0  0  0  0  0  0  0
  -24.5550  -15.8530   20.1950 H   0  0  0  0  0  0  0  0  0  0  0  0
  -26.1310  -15.5950   19.6530 H   0  0  0  0  0  0  0  0  0  0  0  0
  1  3  2  0
  1  2  1  0
  2  4  2  0
  3  5  1  0
  4  8  1  0
  4  7  1  0
  5 52  1  0
  5  7  2  0
  6  3  1  0
  8 10  1  0
 10  9  1  0
 11 13  1  0
 11 10  1  0
 12 23  2  0
 13 18  1  0
 14 22  1  0
 14 24  1  0
 15 21  1  0
 15 17  1  0
 16 22  1  0
 17 16  1  0
 18 17  2  0
 19 13  2  0
 20 19  1  0
 20 15  2  0
 21 14  1  0
 22 12  1  0
 24 26  2  0
 25 24  1  0
 27 25  1  0
 28 37  2  0
 28 33  1  0
 29 25  1  0
 29 33  1  0
 30 29  1  0
 31 32  1  0
 31 30  1  0
 32 28  1  0
 33 34  2  0
 34 35  1  0
 36 35  2  0
 37 36  1  0
 38 12  1  0
 38 39  1  0
 38 48  1  0
 39 42  1  0
 40 44  1  0
 40 39  1  0
 41 40  2  0
 44 43  1  0
 46 44  1  0
 46 47  1  0
 46 45  1  0
 48 51  1  1
 48 49  1  0
 50 48  1  0
 52 57  1  0
 52 53  1  0
 53 55  1  0
 54 53  1  0
 56 53  1  0
 57 66  1  0
 58 66  1  0
 59 64  1  0
 60 61  1  0
 60 59  1  0
 62 61  1  0
 62 71  1  0
 62 63  1  0
 64 58  1  0
 64 63  1  0
 65 58  2  0
 66 67  1  0
 68 69  2  0
 69 88  1  0
 70 69  1  0
 70 73  1  0
 71 68  1  0
 71 72  1  0
 72 70  2  0
 73 74  1  0
 74 75  2  0
 76 79  1  0
 76 75  1  0
 77 76  2  0
 78 77  1  0
 78 73  2  0
 79 80  1  0
 80 81  1  0
 81 82  2  0
 83 82  1  0
 83 87  1  0
 84 83  2  0
 85 80  2  0
 85 84  1  0
 86 85  1  0
 88 89  1  0
 89 92  1  0
 89 91  1  0
 90 88  2  0
 93 94  1  0
 93 68  1  0
 95 93  1  0
M  ISO  4  10 101  11 101  58 100  66 100
M  END
>  <TORSDO>  (23) 
F 21

>  <SCORE>  (23) 
-13.706

>  <name>  (23) 
22

>  <ligand_id>  (23) 
22

>  <original_smiles>  (23) 
[H]c1c(C([H])([H])C([H])(Oc2c([H])c([H])c3c(c2[H])C([H])([H])N(C(=O)C([H])(N([H])C(=O)C([H])(N([H])C([H])([H])[H])C([H])([H])[H])C(C([H])([H])[H])(C([H])([H])[H])C([H])([H])[H])C([H])(C(=O)N([H])C2([H])c4c([H])c([H])c([H])c([H])c4C([H])([H])C([H])([H])C2([H])[H])C3([H])[H])C([H])([H])[H])nc(C([H])(C([H])([H])N([H])C(=O)N2C([H])([H])C([H])([H])C([H])([H])C([H])(n3nc(-c4c([H])c([H])c(Oc5c([H])c([H])c(F)c([H])c5F)c([H])c4[H])c(C(=O)N([H])[H])c3N([H])[H])C2([H])[H])[N+]([H])([H])[H])c(C([H])([H])[H])c1[H]

>  <smiles>  (23) 
[H]c1c(C([H])([H])C([H])(Oc2c([H])c([H])c3c(c2[H])C([H])([H])N(C(=O)C([H])(N([H])C(=O)C([H])(N([H])C([H])([H])[H])C([H])([H])[H])C(C([H])([H])[H])(C([H])([H])[H])C([H])([H])[H])C([H])(C(=O)N([H])C2([H])c4c([H])c([H])c([H])c([H])c4C([H])([H])C([H])([H])C2([H])[H])C3([H])[H])C([H])([H])[H])nc(C([H])(C([H])([H])N([H])C(=O)N2C([H])([H])C([H])([H])C([H])([H])C([H])(n3nc(-c4c([H])c([H])c(Oc5c([H])c([H])c(F)c([H])c5F)c([H])c4[H])c(C(=O)N([H])[H])c3N([H])[H])C2([H])[H])[N+]([H])([H])[H])c(C([H])([H])[H])c1[H]

$$$$
23:0:0
     RDKit          3D

 95103  0  0  1  0  0  0  0  0999 V2000
  -29.2650  -19.7530   19.7200 C   0  0  0  0  0  3  0  0  0  0  0  0
  -31.0790  -14.9890   19.3710 C   0  0  0  0  0  0  0  0  0  0  0  0
  -30.8200  -12.7850   18.1580 C   0  0  0  0  0  2  0  0  0  0  0  0
  -29.6210  -12.7840   17.1760 C   0  0  0  0  0  2  0  0  0  0  0  0
  -28.2710  -12.5270   17.8770 C   0  0  0  0  0  2  0  0  0  0  0  0
  -28.1140  -13.3810   19.1580 C   0  0  0  0  0  3  0  0  0  0  0  0
  -29.3690  -13.1600   20.0100 C   0  0  0  0  0  2  0  0  0  0  0  0
  -30.5270  -13.7170   19.2790 N   0  0  0  0  0  0  0  0  0  0  0  0
  -32.0140  -15.2910   18.6160 O   0  0  0  0  0  0  0  0  0  0  0  0
  -30.2480  -17.3510   20.3060 C   0  0  0  0  0  0  0  0  0  0  0  0
  -29.9090  -18.3140   19.3560 C   0  0  0  0  0  0  0  0  0  0  0  0
  -30.2140  -17.7310   21.7880 C   0  0  0  0  0  2  0  0  0  0  0  0
  -30.4260  -15.4210   21.6780 C   0  0  0  0  0  2  0  0  0  0  0  0
  -30.8500  -16.5750   22.5500 C   0  0  0  0  0  3  0  0  0  0  0  0
  -29.8320  -17.9950   17.8760 C   0  0  0  0  0  1  0  0  0  0  0  0
  -30.5080  -15.8930   20.2840 N   0  0  0  0  0  0  0  0  0  0  0  0
  -26.0140  -13.9390   20.5340 C   0  0  0  0  0  0  0  0  0  0  0  0
  -25.0040  -13.1530   21.0250 C   0  0  0  0  0  0  0  0  0  0  0  0
  -25.3580  -11.8120   20.6880 C   0  0  0  0  0  0  0  0  0  0  0  0
  -26.9020  -13.0710   19.9120 N   0  0  0  0  0  0  0  0  0  0  0  0
  -26.5290  -11.7790   20.0670 N   0  0  0  0  0  0  0  0  0  0  0  0
  -24.6230  -10.5560   20.8680 C   0  0  0  0  0  0  0  0  0  0  0  0
  -25.0260   -9.6000   21.8250 C   0  0  0  0  0  3  0  0  0  0  0  0
  -24.2980   -8.4000   21.9850 C   0  0  0  0  0  3  0  0  0  0  0  0
  -23.1550   -8.1520   21.1870 C   0  0  0  0  0  0  0  0  0  0  0  0
  -22.7710   -9.1010   20.2220 C   0  0  0  0  0  3  0  0  0  0  0  0
  -23.4960  -10.2930   20.0600 C   0  0  0  0  0  3  0  0  0  0  0  0
  -22.3970   -7.0080   21.2590 O   0  0  0  0  0  0  0  0  0  0  0  0
  -22.0510   -6.4450   22.4580 C   0  0  0  0  0  0  0  0  0  0  0  0
  -21.3190   -7.1610   23.4300 C   0  0  0  0  0  3  0  0  0  0  0  0
  -20.9200   -6.5240   24.6250 C   0  0  0  0  0  3  0  0  0  0  0  0
  -21.2390   -5.1680   24.8390 C   0  0  0  0  0  0  0  0  0  0  0  0
  -21.9610   -4.4540   23.8660 C   0  0  0  0  0  3  0  0  0  0  0  0
  -22.3610   -5.0890   22.6770 C   0  0  0  0  0  0  0  0  0  0  0  0
  -23.0360   -4.3910   21.7330 F   0  0  0  0  0  0  0  0  0  0  0  0
  -20.8580   -4.5460   25.9800 F   0  0  0  0  0  0  0  0  0  0  0  0
  -23.7380  -13.6140   21.6870 C   0  0  0  0  0  0  0  0  0  0  0  0
  -23.2220  -12.8340   22.6340 N   0  0  0  0  0  0  0  0  0  0  0  0
  -23.2150  -14.6880   21.3950 O   0  0  0  0  0  0  0  0  0  0  0  0
  -23.6640  -11.9610   22.8770 H   0  0  0  0  0  0  0  0  0  0  0  0
  -22.3810  -13.1140   23.1170 H   0  0  0  0  0  0  0  0  0  0  0  0
  -26.2540  -15.3090   20.5440 N   0  0  0  0  0  0  0  0  0  0  0  0
  -25.6490  -15.9810   21.0030 H   0  0  0  0  0  0  0  0  0  0  0  0
  -27.0600  -15.7340   20.1020 H   0  0  0  0  0  0  0  0  0  0  0  0
  -30.4580  -16.4150   23.9760 N   0  0  0  0  0  4  0  0  0  0  0  0
  -29.4630  -16.3050   24.0950 H   0  0  0  0  0  0  0  0  0  0  0  0
  -30.7400  -17.2080   24.5230 H   0  0  0  0  0  0  0  0  0  0  0  0
  -30.9000  -15.6080   24.3840 H   0  0  0  0  0  0  0  0  0  0  0  0
  -29.7840  -21.2210   19.2430 C   0  0  0  0  0  3  0  0  0  0  0  0
  -28.8970  -22.4280   19.6340 N   0  0  0  0  0  4  0  0  0  0  0  0
  -28.7070  -22.3550   20.6210 H   0  0  0  0  0  0  0  0  0  0  0  0
  -28.0110  -22.2970   19.1660 H   0  0  0  0  0  0  0  0  0  0  0  0
  -29.3480  -23.8890   19.3830 C   0  0  0  0  0  3  0  0  0  0  0  0
  -28.2080  -25.0480   19.3530 C   0  0  0  0  0  3  0  0  0  0  0  0
  -28.4550  -26.5400   19.4180 O   0  0  0  0  0  0  0  0  0  0  0  0
  -24.7220  -31.6560   23.0340 C   0  0  0  0  0  0  0  0  0  0  0  0
  -27.3310  -27.4010   19.5040 C   0  0  0  0  0  0  0  0  0  0  0  0
  -23.4920  -30.3370   21.3520 C   0  0  0  0  0  3  0  0  0  0  0  0
  -24.9220  -28.9560   19.7430 C   0  0  0  0  0  0  0  0  0  0  0  0
  -26.0140  -30.7470   21.0830 C   0  0  0  0  0  2  0  0  0  0  0  0
  -26.1100  -29.4270   20.3170 C   0  0  0  0  0  0  0  0  0  0  0  0
  -27.3170  -28.6650   20.1870 C   0  0  0  0  0  3  0  0  0  0  0  0
  -26.1090  -27.0020   18.9110 C   0  0  0  0  0  3  0  0  0  0  0  0
  -24.9260  -27.7500   19.0310 C   0  0  0  0  0  3  0  0  0  0  0  0
  -23.6610  -29.7740   19.9180 C   0  0  0  0  0  2  0  0  0  0  0  0
  -24.7640  -30.9280   21.8770 N   0  0  0  0  0  0  0  0  0  0  0  0
  -23.6540  -31.8490   23.6350 O   0  0  0  0  0  0  0  0  0  0  0  0
  -22.9170  -29.2240   22.2630 C   0  0  0  0  0  0  0  0  0  0  0  0
  -21.6050  -28.9500   22.1290 N   0  0  0  0  0  0  0  0  0  0  0  0
  -23.6460  -28.6130   23.0490 O   0  0  0  0  0  0  0  0  0  0  0  0
  -21.0720  -29.5060   21.4740 H   0  0  0  0  0  0  0  0  0  0  0  0
  -18.3420  -27.4350   22.5500 C   0  0  0  0  0  0  0  0  0  0  0  0
  -20.8640  -27.9120   22.8540 C   0  0  0  0  0  3  0  0  0  0  0  0
  -21.0960  -26.5160   22.2300 C   0  0  0  0  0  2  0  0  0  0  0  0
  -20.0350  -26.1340   21.1940 C   0  0  0  0  0  2  0  0  0  0  0  0
  -18.6420  -26.1330   21.8270 C   0  0  0  0  0  2  0  0  0  0  0  0
  -19.3840  -28.2780   23.0180 C   0  0  0  0  0  0  0  0  0  0  0  0
  -19.0500  -29.4920   23.6550 C   0  0  0  0  0  3  0  0  0  0  0  0
  -17.7060  -29.8680   23.8240 C   0  0  0  0  0  3  0  0  0  0  0  0
  -16.6760  -29.0240   23.3690 C   0  0  0  0  0  3  0  0  0  0  0  0
  -16.9970  -27.8070   22.7410 C   0  0  0  0  0  3  0  0  0  0  0  0
  -26.0060  -32.2910   23.6460 C   0  0  0  0  0  3  0  0  0  0  0  0
  -25.6540  -33.6350   24.1260 N   0  0  0  0  0  0  0  0  0  0  0  0
  -25.8960  -34.7700   23.4540 C   0  0  0  0  0  0  0  0  0  0  0  0
  -26.5110  -34.7960   22.3840 O   0  0  0  0  0  0  0  0  0  0  0  0
  -25.0970  -33.6870   24.9660 H   0  0  0  0  0  0  0  0  0  0  0  0
  -24.0700  -36.4970   23.3640 C   0  0  0  0  0  1  0  0  0  0  0  0
  -25.3740  -36.0850   24.0660 C   0  0  0  0  0  3  0  0  0  0  0  0
  -27.5140  -36.9950   24.8590 C   0  0  0  0  0  1  0  0  0  0  0  0
  -26.3530  -37.1950   23.9940 N   0  0  0  0  0  0  0  0  0  0  0  0
  -25.9180  -38.0790   24.2440 H   0  0  0  0  0  0  0  0  0  0  0  0
  -26.6290  -31.4330   24.8160 C   0  0  1  0  0  0  0  0  0  0  0  0
  -25.5970  -30.9890   25.8820 C   0  0  0  0  0  1  0  0  0  0  0  0
  -27.3100  -30.1600   24.2630 C   0  0  0  0  0  1  0  0  0  0  0  0
  -27.7340  -32.2500   25.5250 C   0  0  0  0  0  1  0  0  0  0  0  0
  2 16  1  0
  3  8  1  0
  4  5  1  0
  4  3  1  0
  6  5  1  0
  6 20  1  0
  6  7  1  0
  8  2  1  0
  8  7  1  0
  9  2  2  0
 10 12  1  0
 11  1  1  0
 11 10  2  0
 12 14  1  0
 13 14  1  0
 14 45  1  0
 15 11  1  0
 16 10  1  0
 16 13  1  0
 17 42  1  0
 17 18  2  0
 18 37  1  0
 19 22  1  0
 19 18  1  0
 20 21  1  0
 20 17  1  0
 21 19  2  0
 22 23  1  0
 23 24  2  0
 25 28  1  0
 25 24  1  0
 26 25  2  0
 27 26  1  0
 27 22  2  0
 28 29  1  0
 29 34  2  0
 29 30  1  0
 30 31  2  0
 31 32  1  0
 32 36  1  0
 33 32  2  0
 34 33  1  0
 35 34  1  0
 37 38  1  0
 38 40  1  0
 38 41  1  0
 39 37  2  0
 42 43  1  0
 44 42  1  0
 45 46  1  0
 45 48  1  0
 45 47  1  0
 49 50  1  0
 49  1  2  0
 50 51  1  0
 52 50  1  0
 53 50  1  0
 54 53  2  0
 54 55  1  0
 55 57  1  0
 56 67  2  0
 57 62  1  0
 58 66  1  0
 58 68  1  0
 59 65  1  0
 59 61  1  0
 60 66  1  0
 61 60  1  0
 62 61  2  0
 63 64  1  0
 63 57  2  0
 64 59  2  0
 65 58  1  0
 66 56  1  0
 68 70  2  0
 69 68  1  0
 71 69  1  0
 72 81  2  0
 72 77  1  0
 73 69  1  0
 73 77  1  0
 74 73  1  0
 75 76  1  0
 75 74  1  0
 76 72  1  0
 77 78  2  0
 78 79  1  0
 80 79  2  0
 81 80  1  0
 82 56  1  0
 82 83  1  0
 82 92  1  0
 83 86  1  0
 84 88  1  0
 84 83  1  0
 85 84  2  0
 88 87  1  0
 90 88  1  0
 90 91  1  0
 90 89  1  0
 92 95  1  1
 92 93  1  0
 94 92  1  0
M  ISO  4   2 100  16 100  54 101  55 101
M  END
>  <TORSDO>  (24) 
F 21

>  <SCORE>  (24) 
-7.566

>  <name>  (24) 
23

>  <ligand_id>  (24) 
23

>  <original_smiles>  (24) 
[H]c1c([H])c([H])c2c(c1[H])C([H])([H])C([H])([H])C([H])([H])C2([H])N([H])C(=O)C1([H])N(C(=O)C([H])(N([H])C(=O)C([H])(N([H])C([H])([H])[H])C([H])([H])[H])C(C([H])([H])[H])(C([H])([H])[H])C([H])([H])[H])C([H])([H])c2c([H])c(OC([H])([H])C([H])([H])[N+]([H])([H])C([H])([H])C([H])([H])C(=C3N(C(=O)N4C([H])([H])C([H])([H])C([H])([H])C([H])(n5nc(-c6c([H])c([H])c(Oc7c([H])c([H])c(F)c([H])c7F)c([H])c6[H])c(C(=O)N([H])[H])c5N([H])[H])C4([H])[H])C([H])([H])C([H])([N+]([H])([H])[H])C3([H])[H])C([H])([H])[H])c([H])c([H])c2C1([H])[H]

>  <smiles>  (24) 
[H]c1c([H])c([H])c2c(c1[H])C([H])([H])C([H])([H])C([H])([H])C2([H])N([H])C(=O)C1([H])N(C(=O)C([H])(N([H])C(=O)C([H])(N([H])C([H])([H])[H])C([H])([H])[H])C(C([H])([H])[H])(C([H])([H])[H])C([H])([H])[H])C([H])([H])c2c([H])c(OC([H])([H])C([H])([H])[N+]([H])([H])C([H])([H])C([H])([H])C(=C3N(C(=O)N4C([H])([H])C([H])([H])C([H])([H])C([H])(n5nc(-c6c([H])c([H])c(Oc7c([H])c([H])c(F)c([H])c7F)c([H])c6[H])c(C(=O)N([H])[H])c5N([H])[H])C4([H])[H])C([H])([H])C([H])([N+]([H])([H])[H])C3([H])[H])C([H])([H])[H])c([H])c([H])c2C1([H])[H]

$$$$
24:0:0
     RDKit          3D

 89 97  0  0  1  0  0  0  0  0999 V2000
  -28.4640  -22.6410   22.2060 C   0  0  0  0  0  1  0  0  0  0  0  0
  -26.5930  -22.8860   20.6310 C   0  0  0  0  0  1  0  0  0  0  0  0
  -28.1650  -22.8840   20.7240 C   0  0  2  0  0  0  0  0  0  0  0  0
  -29.5560  -17.7330   20.2940 C   0  0  0  0  0  2  0  0  0  0  0  0
  -29.2680  -19.1100   20.1690 C   0  0  0  0  0  3  0  0  0  0  0  0
  -27.9440  -19.9390   19.8310 C   0  0  0  0  0  2  0  0  0  0  0  0
  -28.7390  -21.3640   19.9880 C   0  0  0  0  0  3  0  0  0  0  0  0
  -29.5670  -16.4530   20.5360 N   0  0  0  0  0  2  0  0  0  0  0  0
  -29.8080  -20.4400   20.6140 N   0  0  0  0  0  4  0  0  0  0  0  0
  -29.8370  -20.4930   21.6210 H   0  0  0  0  0  0  0  0  0  0  0  0
  -30.7130  -20.6290   20.2130 H   0  0  0  0  0  0  0  0  0  0  0  0
  -30.4170  -15.2480   20.1870 C   0  0  0  0  0  0  0  0  0  0  0  0
  -30.4380  -12.8140   19.3510 C   0  0  0  0  0  2  0  0  0  0  0  0
  -29.5250  -12.6260   18.1160 C   0  0  0  0  0  2  0  0  0  0  0  0
  -28.0730  -12.3470   18.5550 C   0  0  0  0  0  2  0  0  0  0  0  0
  -27.6090  -13.3310   19.6640 C   0  0  0  0  0  3  0  0  0  0  0  0
  -28.6490  -13.4460   20.7990 C   0  0  0  0  0  2  0  0  0  0  0  0
  -29.9040  -13.9300   20.2040 N   0  0  0  0  0  0  0  0  0  0  0  0
  -31.6010  -15.3030   19.8270 O   0  0  0  0  0  0  0  0  0  0  0  0
  -25.2370  -13.8970   20.4280 C   0  0  0  0  0  0  0  0  0  0  0  0
  -24.1770  -13.1190   20.8060 C   0  0  0  0  0  0  0  0  0  0  0  0
  -24.6520  -11.7720   20.7750 C   0  0  0  0  0  0  0  0  0  0  0  0
  -26.2790  -13.0250   20.1710 N   0  0  0  0  0  0  0  0  0  0  0  0
  -25.9390  -11.7430   20.4500 N   0  0  0  0  0  0  0  0  0  0  0  0
  -23.9380  -10.5040   20.9760 C   0  0  0  0  0  0  0  0  0  0  0  0
  -24.3770   -9.5490   21.9210 C   0  0  0  0  0  3  0  0  0  0  0  0
  -23.6620   -8.3440   22.1100 C   0  0  0  0  0  3  0  0  0  0  0  0
  -22.4900   -8.0870   21.3570 C   0  0  0  0  0  0  0  0  0  0  0  0
  -22.0700   -9.0300   20.3990 C   0  0  0  0  0  3  0  0  0  0  0  0
  -22.7850  -10.2270   20.2100 C   0  0  0  0  0  3  0  0  0  0  0  0
  -21.7530   -6.9320   21.4470 O   0  0  0  0  0  0  0  0  0  0  0  0
  -21.6980   -6.2060   22.6080 C   0  0  0  0  0  0  0  0  0  0  0  0
  -21.2470   -6.7720   23.8220 C   0  0  0  0  0  3  0  0  0  0  0  0
  -21.1460   -5.9710   24.9770 C   0  0  0  0  0  3  0  0  0  0  0  0
  -21.4750   -4.6040   24.9170 C   0  0  0  0  0  0  0  0  0  0  0  0
  -21.9180   -4.0400   23.7080 C   0  0  0  0  0  3  0  0  0  0  0  0
  -22.0230   -4.8370   22.5550 C   0  0  0  0  0  0  0  0  0  0  0  0
  -22.4320   -4.2850   21.3870 F   0  0  0  0  0  0  0  0  0  0  0  0
  -21.3700   -3.8310   26.0230 F   0  0  0  0  0  0  0  0  0  0  0  0
  -22.7810  -13.5910   21.0860 C   0  0  0  0  0  0  0  0  0  0  0  0
  -22.0620  -12.8930   21.9590 N   0  0  0  0  0  0  0  0  0  0  0  0
  -22.3350  -14.6050   20.5540 O   0  0  0  0  0  0  0  0  0  0  0  0
  -22.4480  -12.0830   22.4200 H   0  0  0  0  0  0  0  0  0  0  0  0
  -21.1150  -13.1770   22.1760 H   0  0  0  0  0  0  0  0  0  0  0  0
  -25.3940  -15.2660   20.2620 N   0  0  0  0  0  0  0  0  0  0  0  0
  -24.6200  -15.9090   20.3570 H   0  0  0  0  0  0  0  0  0  0  0  0
  -26.2640  -15.7130   20.0090 H   0  0  0  0  0  0  0  0  0  0  0  0
  -28.7440  -24.5380   20.3720 C   0  0  0  0  0  2  0  0  0  0  0  0
  -28.3390  -26.1270   20.5120 O   0  0  0  0  0  0  0  0  0  0  0  0
  -24.6370  -31.9050   23.2070 C   0  0  0  0  0  0  0  0  0  0  0  0
  -27.2290  -27.0740   20.2620 C   0  0  0  0  0  0  0  0  0  0  0  0
  -23.4490  -30.5020   21.5650 C   0  0  0  0  0  3  0  0  0  0  0  0
  -24.8930  -28.8910   20.1510 C   0  0  0  0  0  0  0  0  0  0  0  0
  -25.9990  -30.7480   21.3980 C   0  0  0  0  0  2  0  0  0  0  0  0
  -26.0690  -29.3340   20.7580 C   0  0  0  0  0  0  0  0  0  0  0  0
  -27.2250  -28.4500   20.7670 C   0  0  0  0  0  3  0  0  0  0  0  0
  -26.0220  -26.7530   19.5830 C   0  0  0  0  0  3  0  0  0  0  0  0
  -24.8860  -27.6220   19.5340 C   0  0  0  0  0  3  0  0  0  0  0  0
  -23.6730  -29.8030   20.1940 C   0  0  0  0  0  2  0  0  0  0  0  0
  -24.7180  -31.0800   22.1150 N   0  0  0  0  0  0  0  0  0  0  0  0
  -23.5450  -32.1930   23.7280 O   0  0  0  0  0  0  0  0  0  0  0  0
  -22.7610  -29.5070   22.5340 C   0  0  0  0  0  0  0  0  0  0  0  0
  -21.4290  -29.3490   22.4150 N   0  0  0  0  0  0  0  0  0  0  0  0
  -23.4250  -28.8730   23.3580 O   0  0  0  0  0  0  0  0  0  0  0  0
  -20.9420  -29.9230   21.7420 H   0  0  0  0  0  0  0  0  0  0  0  0
  -18.0510  -28.1290   22.9040 C   0  0  0  0  0  0  0  0  0  0  0  0
  -20.6070  -28.4040   23.1780 C   0  0  0  0  0  3  0  0  0  0  0  0
  -20.7160  -26.9720   22.6030 C   0  0  0  0  0  2  0  0  0  0  0  0
  -19.6210  -26.6410   21.5860 C   0  0  0  0  0  2  0  0  0  0  0  0
  -18.2360  -26.7820   22.2240 C   0  0  0  0  0  2  0  0  0  0  0  0
  -19.1650  -28.8960   23.3390 C   0  0  0  0  0  0  0  0  0  0  0  0
  -18.9380  -30.1530   23.9390 C   0  0  0  0  0  3  0  0  0  0  0  0
  -17.6300  -30.6460   24.1040 C   0  0  0  0  0  3  0  0  0  0  0  0
  -16.5300  -29.8790   23.6820 C   0  0  0  0  0  3  0  0  0  0  0  0
  -16.7430  -28.6210   23.0930 C   0  0  0  0  0  3  0  0  0  0  0  0
  -25.9050  -32.5460   23.8470 C   0  0  0  0  0  3  0  0  0  0  0  0
  -25.5850  -33.9470   24.1780 N   0  0  0  0  0  0  0  0  0  0  0  0
  -25.9170  -35.0080   23.4310 C   0  0  0  0  0  0  0  0  0  0  0  0
  -26.5870  -34.9110   22.4010 O   0  0  0  0  0  0  0  0  0  0  0  0
  -24.9750  -34.0940   24.9690 H   0  0  0  0  0  0  0  0  0  0  0  0
  -24.1830  -36.8170   23.1210 C   0  0  0  0  0  1  0  0  0  0  0  0
  -25.4360  -36.3950   23.9040 C   0  0  0  0  0  3  0  0  0  0  0  0
  -27.5830  -37.2970   24.7000 C   0  0  0  0  0  1  0  0  0  0  0  0
  -26.4630  -37.4490   23.7750 N   0  0  0  0  0  0  0  0  0  0  0  0
  -26.0540  -38.3700   23.9120 H   0  0  0  0  0  0  0  0  0  0  0  0
  -26.4080  -31.7810   25.1320 C   0  0  1  0  0  0  0  0  0  0  0  0
  -25.3040  -31.5630   26.1930 C   0  0  0  0  0  1  0  0  0  0  0  0
  -26.9850  -30.3960   24.7520 C   0  0  0  0  0  1  0  0  0  0  0  0
  -27.5510  -32.5820   25.8040 C   0  0  0  0  0  1  0  0  0  0  0  0
  3  2  1  1
  3  1  1  0
  4  8  1  0
  5  4  1  0
  5  9  1  0
  6  7  1  0
  6  5  1  0
  7  9  1  0
  7  3  1  0
  9 10  1  0
 11  9  1  0
 12 18  1  0
 12  8  1  0
 13 18  1  0
 14 15  1  0
 14 13  1  0
 16 15  1  0
 16 23  1  0
 16 17  1  0
 18 17  1  0
 19 12  2  0
 20 21  2  0
 21 40  1  0
 22 21  1  0
 22 25  1  0
 23 20  1  0
 23 24  1  0
 24 22  2  0
 25 26  1  0
 26 27  2  0
 28 31  1  0
 28 27  1  0
 29 28  2  0
 30 29  1  0
 30 25  2  0
 31 32  1  0
 32 33  1  0
 33 34  2  0
 35 34  1  0
 35 39  1  0
 36 35  2  0
 37 32  2  0
 37 36  1  0
 38 37  1  0
 40 41  1  0
 41 44  1  0
 41 43  1  0
 42 40  2  0
 45 46  1  0
 45 20  1  0
 47 45  1  0
 48 49  1  0
 48  3  1  0
 50 61  2  0
 51 49  1  0
 51 56  1  0
 52 60  1  0
 52 62  1  0
 53 59  1  0
 53 55  1  0
 54 60  1  0
 55 56  2  0
 55 54  1  0
 57 51  2  0
 58 57  1  0
 58 53  2  0
 59 52  1  0
 60 50  1  0
 62 64  2  0
 63 62  1  0
 65 63  1  0
 66 75  2  0
 66 71  1  0
 67 63  1  0
 67 71  1  0
 68 67  1  0
 69 70  1  0
 69 68  1  0
 70 66  1  0
 71 72  2  0
 72 73  1  0
 74 73  2  0
 75 74  1  0
 76 50  1  0
 76 77  1  0
 76 86  1  0
 77 80  1  0
 78 82  1  0
 78 77  1  0
 79 78  2  0
 82 81  1  0
 84 82  1  0
 84 85  1  0
 84 83  1  0
 86 89  1  1
 86 87  1  0
 88 86  1  0
M  ISO  4   8 100  12 100  48 101  49 101
M  END
>  <TORSDO>  (25) 
F 18

>  <SCORE>  (25) 
-15.606

>  <name>  (25) 
24

>  <ligand_id>  (25) 
24

>  <original_smiles>  (25) 
[H]c1c([H])c([H])c2c(c1[H])C([H])([H])C([H])([H])C([H])([H])C2([H])N([H])C(=O)C1([H])N(C(=O)C([H])(N([H])C(=O)C([H])(N([H])C([H])([H])[H])C([H])([H])[H])C(C([H])([H])[H])(C([H])([H])[H])C([H])([H])[H])C([H])([H])c2c([H])c(OC([H])([H])C(C([H])([H])[H])(C([H])([H])[H])C3([H])C([H])([H])C(=C=NC(=O)N4C([H])([H])C([H])([H])C([H])([H])C([H])(n5nc(-c6c([H])c([H])c(Oc7c([H])c([H])c(F)c([H])c7F)c([H])c6[H])c(C(=O)N([H])[H])c5N([H])[H])C4([H])[H])[N+]3([H])[H])c([H])c([H])c2C1([H])[H]

>  <smiles>  (25) 
[H]c1c([H])c([H])c2c(c1[H])C([H])([H])C([H])([H])C([H])([H])C2([H])N([H])C(=O)C1([H])N(C(=O)C([H])(N([H])C(=O)C([H])(N([H])C([H])([H])[H])C([H])([H])[H])C(C([H])([H])[H])(C([H])([H])[H])C([H])([H])[H])C([H])([H])c2c([H])c(OC([H])([H])C(C([H])([H])[H])(C([H])([H])[H])C3([H])C([H])([H])C(=C=NC(=O)N4C([H])([H])C([H])([H])C([H])([H])C([H])(n5nc(-c6c([H])c([H])c(Oc7c([H])c([H])c(F)c([H])c7F)c([H])c6[H])c(C(=O)N([H])[H])c5N([H])[H])C4([H])[H])[N+]3([H])[H])c([H])c([H])c2C1([H])[H]

$$$$
25:0:0
     RDKit          3D

 94103  0  0  1  0  0  0  0  0999 V2000
  -34.4790  -27.4820   13.9980 C   0  0  0  0  0  2  0  0  0  0  0  0
  -34.8940  -29.9400   14.0420 C   0  0  0  0  0  1  0  0  0  0  0  0
  -35.1440  -28.6530   13.3470 N   0  0  2  0  0  4  0  0  0  0  0  0
  -36.1190  -28.4790   13.5360 H   0  0  0  0  0  0  0  0  0  0  0  0
  -35.0910  -28.7040   11.8460 C   0  0  0  0  0  2  0  0  0  0  0  0
  -34.9270  -30.1080   11.1900 C   0  0  0  0  0  2  0  0  0  0  0  0
  -36.0880  -31.0800   11.5130 C   0  0  0  0  0  2  0  0  0  0  0  0
  -37.3630  -30.5060   11.2090 O   0  0  0  0  0  0  0  0  0  0  0  0
  -34.6290  -23.9650   11.1570 C   0  0  0  0  0  0  0  0  0  0  0  0
  -37.6110  -29.1720   11.4590 C   0  0  0  0  0  0  0  0  0  0  0  0
  -36.8630  -24.1700   12.1990 C   0  0  0  0  0  3  0  0  0  0  0  0
  -38.0450  -26.4010   11.8470 C   0  0  0  0  0  0  0  0  0  0  0  0
  -36.1390  -25.7790   10.3560 C   0  0  0  0  0  3  0  0  0  0  0  0
  -37.0020  -26.8360   11.0180 C   0  0  0  0  0  0  0  0  0  0  0  0
  -36.7870  -28.2160   10.8190 C   0  0  0  0  0  3  0  0  0  0  0  0
  -38.6530  -28.7150   12.3010 C   0  0  0  0  0  3  0  0  0  0  0  0
  -38.8700  -27.3370   12.4940 C   0  0  0  0  0  3  0  0  0  0  0  0
  -38.2150  -24.9080   12.0050 C   0  0  0  0  0  2  0  0  0  0  0  0
  -35.8100  -24.6380   11.2410 N   0  0  0  0  0  0  0  0  0  0  0  0
  -34.4270  -22.9390   11.8240 O   0  0  0  0  0  0  0  0  0  0  0  0
  -36.4450  -24.2910   13.6830 C   0  0  0  0  0  0  0  0  0  0  0  0
  -37.3630  -24.8030   14.5190 N   0  0  0  0  0  0  0  0  0  0  0  0
  -35.3170  -23.9570   14.0550 O   0  0  0  0  0  0  0  0  0  0  0  0
  -38.2630  -25.0550   14.1340 H   0  0  0  0  0  0  0  0  0  0  0  0
  -38.9270  -26.2100   17.4580 C   0  0  0  0  0  0  0  0  0  0  0  0
  -37.1790  -25.0510   15.9490 C   0  0  0  0  0  3  0  0  0  0  0  0
  -36.2970  -26.2980   16.1890 C   0  0  0  0  0  2  0  0  0  0  0  0
  -37.1070  -27.5860   16.3650 C   0  0  0  0  0  2  0  0  0  0  0  0
  -38.0660  -27.4590   17.5520 C   0  0  0  0  0  2  0  0  0  0  0  0
  -38.5160  -25.0860   16.6940 C   0  0  0  0  0  0  0  0  0  0  0  0
  -39.3650  -23.9600   16.6130 C   0  0  0  0  0  3  0  0  0  0  0  0
  -40.6070  -23.9500   17.2750 C   0  0  0  0  0  3  0  0  0  0  0  0
  -41.0030  -25.0600   18.0420 C   0  0  0  0  0  3  0  0  0  0  0  0
  -40.1620  -26.1820   18.1400 C   0  0  0  0  0  3  0  0  0  0  0  0
  -33.4820  -24.4310   10.2070 C   0  0  0  0  0  0  0  0  0  0  0  0
  -32.2500  -23.7680   10.6500 N   0  0  0  0  0  0  0  0  0  0  0  0
  -32.2030  -22.7630   11.5360 C   0  0  0  0  0  3  0  0  0  0  0  0
  -33.2170  -22.2490   12.0160 O   0  0  0  0  0  0  0  0  0  0  0  0
  -31.3810  -24.1840   10.3490 H   0  0  0  0  0  0  0  0  0  0  0  0
  -30.0880  -23.3280   12.7790 C   0  0  0  0  0  1  0  0  0  0  0  0
  -30.8120  -22.2510   11.9560 C   0  0  0  0  0  3  0  0  0  0  0  0
  -32.0080  -20.1480   12.3890 C   0  0  0  0  0  1  0  0  0  0  0  0
  -30.8620  -20.9880   12.7280 N   0  0  0  0  0  0  0  0  0  0  0  0
  -30.0180  -20.4430   12.5800 H   0  0  0  0  0  0  0  0  0  0  0  0
  -33.2980  -25.9970   10.1770 C   0  0  1  0  0  0  0  0  0  0  0  0
  -32.4040  -26.4860    9.0140 C   0  0  0  0  0  1  0  0  0  0  0  0
  -32.6760  -26.5000   11.5010 C   0  0  0  0  0  1  0  0  0  0  0  0
  -34.6790  -26.6830   10.0510 C   0  0  0  0  0  2  0  0  0  0  0  0
  -33.4490  -27.9690   15.0270 C   0  0  0  0  0  3  0  0  0  0  0  0
  -32.3250  -28.7100   14.8310 C   0  0  0  0  0  0  0  0  0  0  0  0
  -31.8550  -29.1770   13.4500 C   0  0  0  0  0  1  0  0  0  0  0  0
  -31.4490  -29.1570   15.9750 C   0  0  0  0  0  0  0  0  0  0  0  0
  -30.1880  -29.0770   15.8750 N   0  0  0  0  0  0  0  0  0  0  0  0
  -29.7070  -29.4020   16.7070 H   0  0  0  0  0  0  0  0  0  0  0  0
  -32.0620  -29.7400   17.2630 C   0  0  0  0  0  2  0  0  0  0  0  0
  -32.7850  -31.0970   17.0730 C   0  0  0  0  0  2  0  0  0  0  0  0
  -33.0420  -32.3840   14.8300 C   0  0  0  0  0  0  0  0  0  0  0  0
  -32.8150  -34.8050   14.4010 C   0  0  0  0  0  2  0  0  0  0  0  0
  -34.0300  -35.5650   14.9700 C   0  0  0  0  0  2  0  0  0  0  0  0
  -33.8120  -35.9150   16.4580 C   0  0  0  0  0  2  0  0  0  0  0  0
  -33.3130  -34.7030   17.2880 C   0  0  0  0  0  3  0  0  0  0  0  0
  -32.1190  -34.0420   16.5630 C   0  0  0  0  0  2  0  0  0  0  0  0
  -32.5900  -33.6090   15.2370 N   0  0  0  0  0  0  0  0  0  0  0  0
  -33.4560  -32.1920   13.6850 O   0  0  0  0  0  0  0  0  0  0  0  0
  -33.1400  -31.3390   15.6720 N   0  0  0  0  0  0  0  0  0  0  0  0
  -33.5350  -30.5390   15.2010 H   0  0  0  0  0  0  0  0  0  0  0  0
  -32.2000  -34.4320   19.5960 C   0  0  0  0  0  0  0  0  0  0  0  0
  -32.2540  -35.2020   20.7310 C   0  0  0  0  0  0  0  0  0  0  0  0
  -33.0780  -36.3230   20.4090 C   0  0  0  0  0  0  0  0  0  0  0  0
  -32.9680  -35.0970   18.6530 N   0  0  0  0  0  0  0  0  0  0  0  0
  -33.4540  -36.2680   19.1390 N   0  0  0  0  0  0  0  0  0  0  0  0
  -33.5760  -37.4200   21.2500 C   0  0  0  0  0  0  0  0  0  0  0  0
  -34.4010  -38.4370   20.7240 C   0  0  0  0  0  3  0  0  0  0  0  0
  -34.8460  -39.4950   21.5460 C   0  0  0  0  0  3  0  0  0  0  0  0
  -34.4660  -39.5420   22.9080 C   0  0  0  0  0  0  0  0  0  0  0  0
  -33.6620  -38.5140   23.4310 C   0  0  0  0  0  3  0  0  0  0  0  0
  -33.2230  -37.4620   22.6120 C   0  0  0  0  0  3  0  0  0  0  0  0
  -34.8780  -40.5110   23.7900 O   0  0  0  0  0  0  0  0  0  0  0  0
  -34.9010  -40.2910   25.1440 C   0  0  0  0  0  0  0  0  0  0  0  0
  -34.2220  -41.1380   26.0480 C   0  0  0  0  0  3  0  0  0  0  0  0
  -34.2160  -40.8380   27.4250 C   0  0  0  0  0  3  0  0  0  0  0  0
  -34.8800  -39.6890   27.8960 C   0  0  0  0  0  0  0  0  0  0  0  0
  -35.5550  -38.8440   26.9990 C   0  0  0  0  0  3  0  0  0  0  0  0
  -35.5630  -39.1420   25.6250 C   0  0  0  0  0  0  0  0  0  0  0  0
  -36.1940  -38.3110   24.7600 F   0  0  0  0  0  0  0  0  0  0  0  0
  -34.8660  -39.3950   29.2190 F   0  0  0  0  0  0  0  0  0  0  0  0
  -31.6560  -34.8670   22.0680 C   0  0  0  0  0  0  0  0  0  0  0  0
  -31.1490  -33.6480   22.2300 N   0  0  0  0  0  0  0  0  0  0  0  0
  -31.6780  -35.6710   22.9970 O   0  0  0  0  0  0  0  0  0  0  0  0
  -31.1670  -32.9680   21.4850 H   0  0  0  0  0  0  0  0  0  0  0  0
  -30.7520  -33.3850   23.1200 H   0  0  0  0  0  0  0  0  0  0  0  0
  -31.5770  -33.2240   19.2950 N   0  0  0  0  0  0  0  0  0  0  0  0
  -30.9890  -32.7350   19.9590 H   0  0  0  0  0  0  0  0  0  0  0  0
  -31.6090  -32.7750   18.3890 H   0  0  0  0  0  0  0  0  0  0  0  0
  1 49  1  0
  3  4  1  6
  3  1  1  0
  3  2  1  0
  5  3  1  0
  6  7  1  0
  6  5  1  0
  8 10  1  0
  8  7  1  0
  9 19  1  0
  9 20  1  0
 10 16  1  0
 11 21  1  0
 12 18  1  0
 12 17  1  0
 13 48  1  0
 13 14  1  0
 13 19  1  0
 14 12  2  0
 15 14  1  0
 15 10  2  0
 16 17  2  0
 18 11  1  0
 19 11  1  0
 20 38  1  0
 21 23  2  0
 21 22  1  0
 24 22  1  0
 25 29  1  0
 25 34  1  0
 26 22  1  0
 26 27  1  0
 26 30  1  0
 27 28  1  0
 28 29  1  0
 30 25  2  0
 31 30  1  0
 31 32  2  0
 32 33  1  0
 33 34  2  0
 35 36  1  0
 35  9  2  0
 36 37  1  0
 37 41  1  0
 37 38  1  0
 39 36  1  0
 41 43  1  0
 41 40  1  0
 42 43  1  0
 44 43  1  0
 45 35  1  0
 45 47  1  1
 46 45  1  0
 48 45  1  0
 50 49  2  0
 50 52  1  0
 51 50  1  0
 52 55  1  0
 53 52  2  0
 53 54  1  0
 56 55  1  0
 57 63  1  0
 57 65  1  0
 58 59  1  0
 58 63  1  0
 59 60  1  0
 61 60  1  0
 61 70  1  0
 62 61  1  0
 63 62  1  0
 64 57  2  0
 65 56  1  0
 66 65  1  0
 67 68  2  0
 68 87  1  0
 69 68  1  0
 69 72  1  0
 70 71  1  0
 70 67  1  0
 71 69  2  0
 72 77  1  0
 73 72  2  0
 73 74  1  0
 74 75  2  0
 75 76  1  0
 75 78  1  0
 77 76  2  0
 78 79  1  0
 79 84  2  0
 79 80  1  0
 80 81  2  0
 81 82  1  0
 82 86  1  0
 83 82  2  0
 84 83  1  0
 85 84  1  0
 87 88  1  0
 87 89  2  0
 88 91  1  0
 90 88  1  0
 92 67  1  0
 92 93  1  0
 94 92  1  0
M  ISO  4   7 101   8 101  57 100  65 100
M  END
>  <TORSDO>  (26) 
F 24

>  <SCORE>  (26) 
-0.524

>  <name>  (26) 
25

>  <ligand_id>  (26) 
25

>  <original_smiles>  (26) 
[H]N=C(C(=C([H])C([H])([H])[N+]([H])(C([H])([H])[H])C([H])([H])C([H])([H])C([H])([H])Oc1c([H])c([H])c2c(c1[H])C([H])([H])N(C(=O)C([H])(N([H])C(=O)C([H])(N([H])C([H])([H])[H])C([H])([H])[H])C(C([H])([H])[H])(C([H])([H])[H])C([H])([H])[H])C([H])(C(=O)N([H])C1([H])c3c([H])c([H])c([H])c([H])c3C([H])([H])C([H])([H])C1([H])[H])C2([H])[H])C([H])([H])[H])C([H])([H])C([H])([H])N([H])C(=O)N1C([H])([H])C([H])([H])C([H])([H])C([H])(n2nc(-c3c([H])c([H])c(Oc4c([H])c([H])c(F)c([H])c4F)c([H])c3[H])c(C(=O)N([H])[H])c2N([H])[H])C1([H])[H]

>  <smiles>  (26) 
[H]N=C(C(=C([H])C([H])([H])[N+]([H])(C([H])([H])[H])C([H])([H])C([H])([H])C([H])([H])Oc1c([H])c([H])c2c(c1[H])C([H])([H])N(C(=O)C([H])(N([H])C(=O)C([H])(N([H])C([H])([H])[H])C([H])([H])[H])C(C([H])([H])[H])(C([H])([H])[H])C([H])([H])[H])C([H])(C(=O)N([H])C1([H])c3c([H])c([H])c([H])c([H])c3C([H])([H])C([H])([H])C1([H])[H])C2([H])[H])C([H])([H])[H])C([H])([H])C([H])([H])N([H])C(=O)N1C([H])([H])C([H])([H])C([H])([H])C([H])(n2nc(-c3c([H])c([H])c(Oc4c([H])c([H])c(F)c([H])c4F)c([H])c3[H])c(C(=O)N([H])[H])c2N([H])[H])C1([H])[H]

$$$$
26:0:0
     RDKit          3D

 97105  0  0  1  0  0  0  0  0999 V2000
  -29.8310  -20.0100   18.9330 C   0  0  0  0  0  2  0  0  0  0  0  0
  -29.9350  -19.5670   20.9260 C   0  0  0  0  0  2  0  0  0  0  0  0
  -29.6260  -18.6240   19.6980 C   0  0  0  0  0  3  0  0  0  0  0  0
  -29.2910  -20.8140   20.1820 C   0  0  0  0  0  3  0  0  0  0  0  0
  -30.8500  -14.8230   19.1180 C   0  0  0  0  0  0  0  0  0  0  0  0
  -30.3070  -12.6640   17.9200 C   0  0  0  0  0  2  0  0  0  0  0  0
  -29.0890  -12.8320   16.9820 C   0  0  0  0  0  2  0  0  0  0  0  0
  -27.7670  -12.6200   17.7460 C   0  0  0  0  0  2  0  0  0  0  0  0
  -27.7400  -13.3730   19.1020 C   0  0  0  0  0  3  0  0  0  0  0  0
  -29.0420  -13.1280   19.8940 C   0  0  0  0  0  2  0  0  0  0  0  0
  -30.1530  -13.6150   19.0610 N   0  0  0  0  0  0  0  0  0  0  0  0
  -31.8580  -14.9130   18.4000 O   0  0  0  0  0  0  0  0  0  0  0  0
  -30.5830  -17.3800   19.3450 C   0  0  0  0  0  0  0  0  0  0  0  0
  -30.3390  -15.9780   19.7770 N   0  0  0  0  0  0  0  0  0  0  0  0
  -31.6850  -17.7100   18.6470 N   0  0  0  0  0  4  0  0  0  0  0  0
  -31.8460  -18.6600   18.3500 H   0  0  0  0  0  0  0  0  0  0  0  0
  -32.3250  -16.9900   18.3290 H   0  0  0  0  0  0  0  0  0  0  0  0
  -25.6700  -13.9100   20.5140 C   0  0  0  0  0  0  0  0  0  0  0  0
  -24.6870  -13.1210   21.0430 C   0  0  0  0  0  0  0  0  0  0  0  0
  -25.0230  -11.7790   20.6820 C   0  0  0  0  0  0  0  0  0  0  0  0
  -26.5500  -13.0500   19.8800 N   0  0  0  0  0  0  0  0  0  0  0  0
  -26.1850  -11.7520   20.0380 N   0  0  0  0  0  0  0  0  0  0  0  0
  -24.2750  -10.5280   20.8630 C   0  0  0  0  0  0  0  0  0  0  0  0
  -24.8010   -9.4570   21.6190 C   0  0  0  0  0  3  0  0  0  0  0  0
  -24.0560   -8.2730   21.7970 C   0  0  0  0  0  3  0  0  0  0  0  0
  -22.7680   -8.1520   21.2200 C   0  0  0  0  0  0  0  0  0  0  0  0
  -22.2580   -9.2120   20.4510 C   0  0  0  0  0  3  0  0  0  0  0  0
  -23.0060  -10.3880   20.2700 C   0  0  0  0  0  3  0  0  0  0  0  0
  -21.9820   -7.0290   21.3190 O   0  0  0  0  0  0  0  0  0  0  0  0
  -21.9700   -6.2570   22.4530 C   0  0  0  0  0  0  0  0  0  0  0  0
  -21.6410   -6.7950   23.7170 C   0  0  0  0  0  3  0  0  0  0  0  0
  -21.5720   -5.9520   24.8440 C   0  0  0  0  0  3  0  0  0  0  0  0
  -21.8230   -4.5730   24.7090 C   0  0  0  0  0  0  0  0  0  0  0  0
  -22.1450   -4.0350   23.4510 C   0  0  0  0  0  3  0  0  0  0  0  0
  -22.2150   -4.8740   22.3260 C   0  0  0  0  0  0  0  0  0  0  0  0
  -22.5060   -4.3480   21.1110 F   0  0  0  0  0  0  0  0  0  0  0  0
  -21.7480   -3.7620   25.7890 F   0  0  0  0  0  0  0  0  0  0  0  0
  -23.4480  -13.5930   21.7470 C   0  0  0  0  0  0  0  0  0  0  0  0
  -22.9280  -12.7960   22.6730 N   0  0  0  0  0  0  0  0  0  0  0  0
  -22.9630  -14.6980   21.5110 O   0  0  0  0  0  0  0  0  0  0  0  0
  -23.3330  -11.8920   22.8700 H   0  0  0  0  0  0  0  0  0  0  0  0
  -22.1080  -13.0870   23.1850 H   0  0  0  0  0  0  0  0  0  0  0  0
  -25.8720  -15.2880   20.4960 N   0  0  0  0  0  0  0  0  0  0  0  0
  -25.1110  -15.8830   20.8040 H   0  0  0  0  0  0  0  0  0  0  0  0
  -26.4270  -15.7250   19.7730 H   0  0  0  0  0  0  0  0  0  0  0  0
  -30.3050  -15.8940   21.2500 C   0  0  0  0  0  2  0  0  0  0  0  0
  -28.9370  -16.1940   21.9160 C   0  0  0  0  0  2  0  0  0  0  0  0
  -29.0210  -16.2350   23.3920 N   0  0  0  0  0  4  0  0  0  0  0  0
  -29.3270  -15.3560   23.7730 H   0  0  0  0  0  0  0  0  0  0  0  0
  -28.1150  -16.4320   23.7800 H   0  0  0  0  0  0  0  0  0  0  0  0
  -29.6470  -16.9550   23.7120 H   0  0  0  0  0  0  0  0  0  0  0  0
  -29.7860  -22.2470   20.5620 N   0  0  0  0  0  4  0  0  0  0  0  0
  -30.7920  -22.2770   20.5030 H   0  0  0  0  0  0  0  0  0  0  0  0
  -29.5780  -22.3310   21.5460 H   0  0  0  0  0  0  0  0  0  0  0  0
  -29.2330  -23.5640   19.9370 C   0  0  0  0  0  2  0  0  0  0  0  0
  -29.0370  -24.8960   20.8840 C   0  0  0  0  0  2  0  0  0  0  0  0
  -29.0490  -26.3470   20.4310 O   0  0  0  0  0  0  0  0  0  0  0  0
  -24.6760  -31.5510   23.1320 C   0  0  0  0  0  0  0  0  0  0  0  0
  -27.8640  -27.1240   20.3720 C   0  0  0  0  0  0  0  0  0  0  0  0
  -23.7090  -30.0200   21.4530 C   0  0  0  0  0  3  0  0  0  0  0  0
  -25.3800  -28.5630   20.1650 C   0  0  0  0  0  0  0  0  0  0  0  0
  -26.2220  -30.5450   21.4240 C   0  0  0  0  0  2  0  0  0  0  0  0
  -26.4660  -29.1580   20.8200 C   0  0  0  0  0  0  0  0  0  0  0  0
  -27.7130  -28.4540   20.9030 C   0  0  0  0  0  3  0  0  0  0  0  0
  -26.7470  -26.5900   19.6970 C   0  0  0  0  0  3  0  0  0  0  0  0
  -25.5260  -27.2890   19.5900 C   0  0  0  0  0  3  0  0  0  0  0  0
  -24.0740  -29.3360   20.1090 C   0  0  0  0  0  2  0  0  0  0  0  0
  -24.8830  -30.7270   22.0610 N   0  0  0  0  0  0  0  0  0  0  0  0
  -23.5390  -31.7420   23.5900 O   0  0  0  0  0  0  0  0  0  0  0  0
  -23.0700  -28.9710   22.3960 C   0  0  0  0  0  0  0  0  0  0  0  0
  -21.7700  -28.6910   22.2040 N   0  0  0  0  0  0  0  0  0  0  0  0
  -23.7490  -28.4070   23.2590 O   0  0  0  0  0  0  0  0  0  0  0  0
  -21.2770  -29.2000   21.4830 H   0  0  0  0  0  0  0  0  0  0  0  0
  -18.4630  -27.2670   22.5780 C   0  0  0  0  0  0  0  0  0  0  0  0
  -20.9860  -27.7010   22.9450 C   0  0  0  0  0  3  0  0  0  0  0  0
  -21.2060  -26.2800   22.3800 C   0  0  0  0  0  2  0  0  0  0  0  0
  -20.1700  -25.8830   21.3240 C   0  0  0  0  0  2  0  0  0  0  0  0
  -18.7570  -25.9330   21.9130 C   0  0  0  0  0  2  0  0  0  0  0  0
  -19.5090  -28.1040   23.0490 C   0  0  0  0  0  0  0  0  0  0  0  0
  -19.1820  -29.3490   23.6300 C   0  0  0  0  0  3  0  0  0  0  0  0
  -17.8400  -29.7600   23.7420 C   0  0  0  0  0  3  0  0  0  0  0  0
  -16.8080  -28.9220   23.2890 C   0  0  0  0  0  3  0  0  0  0  0  0
  -17.1200  -27.6770   22.7120 C   0  0  0  0  0  3  0  0  0  0  0  0
  -25.8540  -32.3060   23.8210 C   0  0  0  0  0  3  0  0  0  0  0  0
  -25.4160  -33.6900   24.0600 N   0  0  0  0  0  0  0  0  0  0  0  0
  -25.7130  -34.7300   23.2710 C   0  0  0  0  0  0  0  0  0  0  0  0
  -26.4490  -34.6320   22.2850 O   0  0  0  0  0  0  0  0  0  0  0  0
  -24.7660  -33.8330   24.8190 H   0  0  0  0  0  0  0  0  0  0  0  0
  -23.8730  -36.3610   22.7350 C   0  0  0  0  0  1  0  0  0  0  0  0
  -25.0950  -36.0960   23.6280 C   0  0  0  0  0  3  0  0  0  0  0  0
  -27.1060  -37.1900   24.5220 C   0  0  0  0  0  1  0  0  0  0  0  0
  -26.0490  -37.2210   23.5140 N   0  0  0  0  0  0  0  0  0  0  0  0
  -25.5650  -38.1120   23.5900 H   0  0  0  0  0  0  0  0  0  0  0  0
  -26.3190  -31.6340   25.1710 C   0  0  1  0  0  0  0  0  0  0  0  0
  -25.1620  -31.3520   26.1580 C   0  0  0  0  0  1  0  0  0  0  0  0
  -27.0380  -30.2930   24.8950 C   0  0  0  0  0  1  0  0  0  0  0  0
  -27.3450  -32.5450   25.8860 C   0  0  0  0  0  1  0  0  0  0  0  0
  1  3  1  0
  1  4  1  0
  3 13  1  0
  3  2  1  0
  4 52  1  0
  4  2  1  0
  5 14  1  0
  6 11  1  0
  7  8  1  0
  7  6  1  0
  9  8  1  0
  9 21  1  0
  9 10  1  0
 11  5  1  0
 11 10  1  0
 12  5  2  0
 13 14  1  0
 14 46  1  0
 15 13  2  0
 16 15  1  0
 17 15  1  0
 18 19  2  0
 19 38  1  0
 20 23  1  0
 20 19  1  0
 21 22  1  0
 21 18  1  0
 22 20  2  0
 23 24  1  0
 24 25  2  0
 26 29  1  0
 26 25  1  0
 27 26  2  0
 28 27  1  0
 28 23  2  0
 29 30  1  0
 30 31  1  0
 31 32  2  0
 33 32  1  0
 33 37  1  0
 34 33  2  0
 35 30  2  0
 35 34  1  0
 36 35  1  0
 38 39  1  0
 39 41  1  0
 39 42  1  0
 40 38  2  0
 43 18  1  0
 43 44  1  0
 45 43  1  0
 46 47  1  0
 47 48  1  0
 48 51  1  0
 48 49  1  0
 48 50  1  0
 52 54  1  0
 53 52  1  0
 55 52  1  0
 55 56  1  0
 57 56  1  0
 58 69  2  0
 59 57  1  0
 59 64  1  0
 60 68  1  0
 60 70  1  0
 61 63  1  0
 62 68  1  0
 63 64  2  0
 63 62  1  0
 65 59  2  0
 66 65  1  0
 66 61  2  0
 67 61  1  0
 67 60  1  0
 68 58  1  0
 70 72  2  0
 71 70  1  0
 73 71  1  0
 74 83  2  0
 74 79  1  0
 75 71  1  0
 75 79  1  0
 76 75  1  0
 77 78  1  0
 77 76  1  0
 78 74  1  0
 79 80  2  0
 80 81  1  0
 82 81  2  0
 83 82  1  0
 84 58  1  0
 84 85  1  0
 84 94  1  0
 85 88  1  0
 86 90  1  0
 86 85  1  0
 87 86  2  0
 90 89  1  0
 92 93  1  0
 92 90  1  0
 92 91  1  0
 94 97  1  1
 94 95  1  0
 96 94  1  0
M  ISO  4   5 100  14 100  56 101  57 101
M  END
>  <TORSDO>  (27) 
F 22

>  <SCORE>  (27) 
-4.551

>  <name>  (27) 
26

>  <ligand_id>  (27) 
26

>  <original_smiles>  (27) 
[H]c1c([H])c([H])c2c(c1[H])C([H])([H])C([H])([H])C([H])([H])C2([H])N([H])C(=O)C1([H])N(C(=O)C([H])(N([H])C(=O)C([H])(N([H])C([H])([H])[H])C([H])([H])[H])C(C([H])([H])[H])(C([H])([H])[H])C([H])([H])[H])C([H])([H])c2c([H])c(OC([H])([H])C([H])([H])[N+]([H])([H])C3([H])C([H])([H])C([H])(C(N(C(=O)N4C([H])([H])C([H])([H])C([H])([H])C([H])(n5nc(-c6c([H])c([H])c(Oc7c([H])c([H])c(F)c([H])c7F)c([H])c6[H])c(C(=O)N([H])[H])c5N([H])[H])C4([H])[H])C([H])([H])C([H])([H])[N+]([H])([H])[H])=[N+]([H])[H])C3([H])[H])c([H])c([H])c2C1([H])[H]

>  <smiles>  (27) 
[H]c1c([H])c([H])c2c(c1[H])C([H])([H])C([H])([H])C([H])([H])C2([H])N([H])C(=O)C1([H])N(C(=O)C([H])(N([H])C(=O)C([H])(N([H])C([H])([H])[H])C([H])([H])[H])C(C([H])([H])[H])(C([H])([H])[H])C([H])([H])[H])C([H])([H])c2c([H])c(OC([H])([H])C([H])([H])[N+]([H])([H])C3([H])C([H])([H])C([H])(C(N(C(=O)N4C([H])([H])C([H])([H])C([H])([H])C([H])(n5nc(-c6c([H])c([H])c(Oc7c([H])c([H])c(F)c([H])c7F)c([H])c6[H])c(C(=O)N([H])[H])c5N([H])[H])C4([H])[H])C([H])([H])C([H])([H])[N+]([H])([H])[H])=[N+]([H])[H])C3([H])[H])c([H])c([H])c2C1([H])[H]

$$$$
27:0:0
     RDKit          3D

 94101  0  0  1  0  0  0  0  0999 V2000
  -28.8220  -21.9290   20.0370 C   0  0  0  0  0  0  0  0  0  0  0  0
  -28.8420  -21.9480   18.8020 O   0  0  0  0  0  0  0  0  0  0  0  0
  -28.4680  -23.1620   20.8740 C   0  0  0  0  0  0  0  0  0  0  0  0
  -28.7290  -23.2920   22.1100 N   0  0  0  0  0  0  0  0  0  0  0  0
  -29.2180  -22.4860   22.4840 H   0  0  0  0  0  0  0  0  0  0  0  0
  -27.6750  -24.2810   20.1810 C   0  0  0  0  0  2  0  0  0  0  0  0
  -28.4970  -25.4300   19.5270 C   0  0  0  0  0  2  0  0  0  0  0  0
  -28.3780  -26.7190   20.1600 O   0  0  0  0  0  0  0  0  0  0  0  0
  -24.5630  -31.9020   23.1960 C   0  0  0  0  0  0  0  0  0  0  0  0
  -27.1910  -27.4300   20.1170 C   0  0  0  0  0  0  0  0  0  0  0  0
  -23.3480  -30.4890   21.5720 C   0  0  0  0  0  3  0  0  0  0  0  0
  -24.7900  -28.9420   20.1430 C   0  0  0  0  0  0  0  0  0  0  0  0
  -25.8740  -30.8360   21.3640 C   0  0  0  0  0  2  0  0  0  0  0  0
  -25.9510  -29.4630   20.7270 C   0  0  0  0  0  0  0  0  0  0  0  0
  -27.1460  -28.7090   20.7200 C   0  0  0  0  0  3  0  0  0  0  0  0
  -26.0140  -26.9360   19.5090 C   0  0  0  0  0  3  0  0  0  0  0  0
  -24.8160  -27.6750   19.5370 C   0  0  0  0  0  3  0  0  0  0  0  0
  -23.5470  -29.8020   20.1940 C   0  0  0  0  0  2  0  0  0  0  0  0
  -24.6140  -31.0920   22.1010 N   0  0  0  0  0  0  0  0  0  0  0  0
  -23.4850  -32.1800   23.7380 O   0  0  0  0  0  0  0  0  0  0  0  0
  -22.7020  -29.4750   22.5430 C   0  0  0  0  0  0  0  0  0  0  0  0
  -21.3750  -29.2970   22.4270 N   0  0  0  0  0  0  0  0  0  0  0  0
  -23.3880  -28.8470   23.3520 O   0  0  0  0  0  0  0  0  0  0  0  0
  -20.8820  -29.8550   21.7450 H   0  0  0  0  0  0  0  0  0  0  0  0
  -17.9940  -28.1420   22.9600 C   0  0  0  0  0  0  0  0  0  0  0  0
  -20.5580  -28.3680   23.2070 C   0  0  0  0  0  3  0  0  0  0  0  0
  -20.6380  -26.9360   22.6270 C   0  0  0  0  0  2  0  0  0  0  0  0
  -19.5230  -26.6290   21.6250 C   0  0  0  0  0  2  0  0  0  0  0  0
  -18.1490  -26.7880   22.2830 C   0  0  0  0  0  2  0  0  0  0  0  0
  -19.1270  -28.8880   23.3750 C   0  0  0  0  0  0  0  0  0  0  0  0
  -18.9330  -30.1550   23.9680 C   0  0  0  0  0  3  0  0  0  0  0  0
  -17.6380  -30.6720   24.1540 C   0  0  0  0  0  3  0  0  0  0  0  0
  -16.5170  -29.9200   23.7570 C   0  0  0  0  0  3  0  0  0  0  0  0
  -16.6970  -28.6570   23.1630 C   0  0  0  0  0  3  0  0  0  0  0  0
  -25.8510  -32.5380   23.8030 C   0  0  0  0  0  3  0  0  0  0  0  0
  -26.3890  -31.7620   25.0670 C   0  0  1  0  0  0  0  0  0  0  0  0
  -25.3160  -31.5090   26.1520 C   0  0  0  0  0  1  0  0  0  0  0  0
  -26.9750  -30.3940   24.6490 C   0  0  0  0  0  1  0  0  0  0  0  0
  -27.5390  -32.5590   25.7200 C   0  0  0  0  0  1  0  0  0  0  0  0
  -25.5410  -33.9320   24.1440 N   0  0  0  0  0  0  0  0  0  0  0  0
  -25.8750  -34.9920   23.3950 C   0  0  0  0  0  0  0  0  0  0  0  0
  -26.5470  -34.8970   22.3630 O   0  0  0  0  0  0  0  0  0  0  0  0
  -24.9410  -34.0760   24.9430 H   0  0  0  0  0  0  0  0  0  0  0  0
  -24.1480  -36.7860   23.0450 C   0  0  0  0  0  1  0  0  0  0  0  0
  -25.3840  -36.3750   23.8640 C   0  0  0  0  0  3  0  0  0  0  0  0
  -27.5120  -37.2450   24.7190 C   0  0  0  0  0  1  0  0  0  0  0  0
  -26.4170  -37.4300   23.7730 N   0  0  0  0  0  0  0  0  0  0  0  0
  -26.0130  -38.3480   23.9350 H   0  0  0  0  0  0  0  0  0  0  0  0
  -29.1520  -20.6220   20.8010 C   0  0  0  0  0  2  0  0  0  0  0  0
  -29.7280  -19.4330   19.9630 C   0  0  0  0  0  3  0  0  0  0  0  0
  -31.0860  -19.7380   19.4510 N   0  0  0  0  0  4  0  0  0  0  0  0
  -31.7610  -19.7830   20.1950 H   0  0  0  0  0  0  0  0  0  0  0  0
  -31.1000  -20.6100   18.9510 H   0  0  0  0  0  0  0  0  0  0  0  0
  -31.3890  -19.0320   18.8040 H   0  0  0  0  0  0  0  0  0  0  0  0
  -29.7340  -18.1030   20.7830 C   0  0  0  0  0  3  0  0  0  0  0  0
  -30.2310  -16.8410   20.0060 C   0  0  0  0  0  3  0  0  0  0  0  0
  -30.8880  -14.4860   20.1470 C   0  0  0  0  0  0  0  0  0  0  0  0
  -30.4580  -12.3960   18.9060 C   0  0  0  0  0  2  0  0  0  0  0  0
  -29.4610  -12.6860   17.7670 C   0  0  0  0  0  2  0  0  0  0  0  0
  -28.0120  -12.5440   18.2690 C   0  0  0  0  0  2  0  0  0  0  0  0
  -27.7620  -13.3160   19.5920 C   0  0  0  0  0  3  0  0  0  0  0  0
  -28.8700  -13.0250   20.6220 C   0  0  0  0  0  2  0  0  0  0  0  0
  -30.1680  -13.3380   20.0020 N   0  0  0  0  0  0  0  0  0  0  0  0
  -31.9590  -14.6650   19.5550 O   0  0  0  0  0  0  0  0  0  0  0  0
  -30.2180  -15.6010   22.1940 C   0  0  0  0  0  1  0  0  0  0  0  0
  -30.2520  -15.5390   20.7290 N   0  0  0  0  0  0  0  0  0  0  0  0
  -25.4120  -13.9200   20.4530 C   0  0  0  0  0  0  0  0  0  0  0  0
  -24.3620  -13.1430   20.8650 C   0  0  0  0  0  0  0  0  0  0  0  0
  -24.8120  -11.7900   20.7730 C   0  0  0  0  0  0  0  0  0  0  0  0
  -26.4350  -13.0390   20.1380 N   0  0  0  0  0  0  0  0  0  0  0  0
  -26.0810  -11.7530   20.3880 N   0  0  0  0  0  0  0  0  0  0  0  0
  -24.0900  -10.5270   20.9770 C   0  0  0  0  0  0  0  0  0  0  0  0
  -24.5380   -9.5610   21.9050 C   0  0  0  0  0  3  0  0  0  0  0  0
  -23.8160   -8.3640   22.0950 C   0  0  0  0  0  3  0  0  0  0  0  0
  -22.6330   -8.1240   21.3580 C   0  0  0  0  0  0  0  0  0  0  0  0
  -22.2040   -9.0790   20.4190 C   0  0  0  0  0  3  0  0  0  0  0  0
  -22.9250  -10.2680   20.2270 C   0  0  0  0  0  3  0  0  0  0  0  0
  -21.8810   -6.9770   21.4580 O   0  0  0  0  0  0  0  0  0  0  0  0
  -21.8060   -6.2650   22.6280 C   0  0  0  0  0  0  0  0  0  0  0  0
  -21.3560   -6.8510   23.8300 C   0  0  0  0  0  3  0  0  0  0  0  0
  -21.2280   -6.0650   24.9920 C   0  0  0  0  0  3  0  0  0  0  0  0
  -21.5390   -4.6930   24.9530 C   0  0  0  0  0  0  0  0  0  0  0  0
  -21.9810   -4.1050   23.7540 C   0  0  0  0  0  3  0  0  0  0  0  0
  -22.1100   -4.8890   22.5930 C   0  0  0  0  0  0  0  0  0  0  0  0
  -22.5160   -4.3130   21.4360 F   0  0  0  0  0  0  0  0  0  0  0  0
  -21.4090   -3.9350   26.0660 F   0  0  0  0  0  0  0  0  0  0  0  0
  -22.9860  -13.6200   21.2310 C   0  0  0  0  0  0  0  0  0  0  0  0
  -22.3100  -12.9130   22.1290 N   0  0  0  0  0  0  0  0  0  0  0  0
  -22.5220  -14.6570   20.7560 O   0  0  0  0  0  0  0  0  0  0  0  0
  -22.7000  -12.0760   22.5350 H   0  0  0  0  0  0  0  0  0  0  0  0
  -21.3880  -13.2140   22.4160 H   0  0  0  0  0  0  0  0  0  0  0  0
  -25.5770  -15.2930   20.3030 N   0  0  0  0  0  0  0  0  0  0  0  0
  -24.8260  -15.9530   20.4730 H   0  0  0  0  0  0  0  0  0  0  0  0
  -26.4220  -15.7340   19.9630 H   0  0  0  0  0  0  0  0  0  0  0  0
  1 49  1  0
  1  3  1  0
  2  1  2  0
  3  4  2  0
  4  5  1  0
  6  3  1  0
  7  8  1  0
  7  6  1  0
  9 20  2  0
 10  8  1  0
 10 15  1  0
 11 19  1  0
 11 21  1  0
 12 18  1  0
 12 14  1  0
 13 19  1  0
 14 13  1  0
 15 14  2  0
 16 17  1  0
 16 10  2  0
 17 12  2  0
 18 11  1  0
 19  9  1  0
 21 23  2  0
 22 21  1  0
 24 22  1  0
 25 34  2  0
 25 30  1  0
 26 22  1  0
 26 30  1  0
 27 26  1  0
 28 29  1  0
 28 27  1  0
 29 25  1  0
 30 31  2  0
 31 32  1  0
 33 32  2  0
 34 33  1  0
 35  9  1  0
 35 40  1  0
 35 36  1  0
 36 39  1  1
 36 37  1  0
 38 36  1  0
 40 43  1  0
 41 45  1  0
 41 40  1  0
 42 41  2  0
 45 44  1  0
 47 45  1  0
 47 48  1  0
 47 46  1  0
 50 55  1  0
 50 49  1  0
 51 50  1  0
 51 52  1  0
 53 51  1  0
 54 51  1  0
 56 66  1  0
 56 55  2  0
 57 66  1  0
 58 63  1  0
 59 60  1  0
 59 58  1  0
 61 60  1  0
 61 70  1  0
 61 62  1  0
 63 57  1  0
 63 62  1  0
 64 57  2  0
 66 65  1  0
 67 68  2  0
 68 87  1  0
 69 68  1  0
 69 72  1  0
 70 71  1  0
 70 67  1  0
 71 69  2  0
 72 73  1  0
 73 74  2  0
 75 78  1  0
 75 74  1  0
 76 75  2  0
 77 76  1  0
 77 72  2  0
 78 79  1  0
 79 80  1  0
 80 81  2  0
 82 81  1  0
 82 86  1  0
 83 82  2  0
 84 79  2  0
 84 83  1  0
 85 84  1  0
 87 88  1  0
 88 91  1  0
 88 90  1  0
 89 87  2  0
 92 67  1  0
 92 93  1  0
 94 92  1  0
M  ISO  4   7 101   8 101  57 100  66 100
M  END
>  <TORSDO>  (28) 
F 24

>  <SCORE>  (28) 
-12.129

>  <name>  (28) 
27

>  <ligand_id>  (28) 
27

>  <original_smiles>  (28) 
[H]N=C(C(=O)C([H])([H])C([H])(C([H])([H])C([H])([H])N(C(=O)N1C([H])([H])C([H])([H])C([H])([H])C([H])(n2nc(-c3c([H])c([H])c(Oc4c([H])c([H])c(F)c([H])c4F)c([H])c3[H])c(C(=O)N([H])[H])c2N([H])[H])C1([H])[H])C([H])([H])[H])[N+]([H])([H])[H])C([H])([H])C([H])([H])Oc1c([H])c([H])c2c(c1[H])C([H])([H])N(C(=O)C([H])(N([H])C(=O)C([H])(N([H])C([H])([H])[H])C([H])([H])[H])C(C([H])([H])[H])(C([H])([H])[H])C([H])([H])[H])C([H])(C(=O)N([H])C1([H])c3c([H])c([H])c([H])c([H])c3C([H])([H])C([H])([H])C1([H])[H])C2([H])[H]

>  <smiles>  (28) 
[H]N=C(C(=O)C([H])([H])C([H])(C([H])([H])C([H])([H])N(C(=O)N1C([H])([H])C([H])([H])C([H])([H])C([H])(n2nc(-c3c([H])c([H])c(Oc4c([H])c([H])c(F)c([H])c4F)c([H])c3[H])c(C(=O)N([H])[H])c2N([H])[H])C1([H])[H])C([H])([H])[H])[N+]([H])([H])[H])C([H])([H])C([H])([H])Oc1c([H])c([H])c2c(c1[H])C([H])([H])N(C(=O)C([H])(N([H])C(=O)C([H])(N([H])C([H])([H])[H])C([H])([H])[H])C(C([H])([H])[H])(C([H])([H])[H])C([H])([H])[H])C([H])(C(=O)N([H])C1([H])c3c([H])c([H])c([H])c([H])c3C([H])([H])C([H])([H])C1([H])[H])C2([H])[H]

$$$$
28:0:0
     RDKit          3D

 88 96  0  0  1  0  0  0  0  0999 V2000
  -28.5920  -22.1470   21.4740 C   0  0  0  0  0  3  0  0  0  0  0  0
  -28.6230  -22.0930   19.1780 C   0  0  0  0  0  3  0  0  0  0  0  0
  -28.3720  -23.6160   21.4420 C   0  0  0  0  0  3  0  0  0  0  0  0
  -28.4060  -23.5670   19.1490 C   0  0  0  0  0  3  0  0  0  0  0  0
  -28.7480  -21.2320   20.3490 C   0  0  0  0  0  0  0  0  0  0  0  0
  -28.2350  -24.4780   20.2770 C   0  0  0  0  0  0  0  0  0  0  0  0
  -28.2230  -26.0070   20.2510 O   0  0  0  0  0  0  0  0  0  0  0  0
  -24.6200  -31.9010   23.2260 C   0  0  0  0  0  0  0  0  0  0  0  0
  -27.1580  -27.0340   20.2350 C   0  0  0  0  0  0  0  0  0  0  0  0
  -23.4180  -30.5050   21.5910 C   0  0  0  0  0  3  0  0  0  0  0  0
  -24.8570  -28.8880   20.1790 C   0  0  0  0  0  0  0  0  0  0  0  0
  -25.9800  -30.7150   21.4420 C   0  0  0  0  0  2  0  0  0  0  0  0
  -26.0430  -29.3030   20.7980 C   0  0  0  0  0  0  0  0  0  0  0  0
  -27.1860  -28.3940   20.8040 C   0  0  0  0  0  3  0  0  0  0  0  0
  -25.9470  -26.7550   19.5680 C   0  0  0  0  0  3  0  0  0  0  0  0
  -24.8310  -27.6320   19.5470 C   0  0  0  0  0  3  0  0  0  0  0  0
  -23.6420  -29.8110   20.2180 C   0  0  0  0  0  2  0  0  0  0  0  0
  -24.6940  -31.0670   22.1400 N   0  0  0  0  0  0  0  0  0  0  0  0
  -23.5320  -32.1970   23.7480 O   0  0  0  0  0  0  0  0  0  0  0  0
  -22.7210  -29.5150   22.5610 C   0  0  0  0  0  0  0  0  0  0  0  0
  -21.3910  -29.3550   22.4340 N   0  0  0  0  0  0  0  0  0  0  0  0
  -23.3840  -28.8910   23.3930 O   0  0  0  0  0  0  0  0  0  0  0  0
  -20.9100  -29.9090   21.7400 H   0  0  0  0  0  0  0  0  0  0  0  0
  -18.0010  -28.1730   22.9510 C   0  0  0  0  0  0  0  0  0  0  0  0
  -20.5630  -28.4240   23.2090 C   0  0  0  0  0  3  0  0  0  0  0  0
  -20.6550  -26.9900   22.6370 C   0  0  0  0  0  2  0  0  0  0  0  0
  -19.5490  -26.6730   21.6240 C   0  0  0  0  0  2  0  0  0  0  0  0
  -18.1700  -26.8250   22.2720 C   0  0  0  0  0  2  0  0  0  0  0  0
  -19.1250  -28.9320   23.3760 C   0  0  0  0  0  0  0  0  0  0  0  0
  -18.9120  -30.1920   23.9730 C   0  0  0  0  0  3  0  0  0  0  0  0
  -17.6090  -30.6960   24.1480 C   0  0  0  0  0  3  0  0  0  0  0  0
  -16.5000  -29.9360   23.7370 C   0  0  0  0  0  3  0  0  0  0  0  0
  -16.6980  -28.6760   23.1440 C   0  0  0  0  0  3  0  0  0  0  0  0
  -25.8950  -32.5370   23.8570 C   0  0  0  0  0  3  0  0  0  0  0  0
  -25.5820  -33.9360   24.1990 N   0  0  0  0  0  0  0  0  0  0  0  0
  -25.8890  -34.9990   23.4440 C   0  0  0  0  0  0  0  0  0  0  0  0
  -26.5300  -34.9070   22.3940 O   0  0  0  0  0  0  0  0  0  0  0  0
  -25.0070  -34.0800   25.0160 H   0  0  0  0  0  0  0  0  0  0  0  0
  -24.1340  -36.7860   23.1770 C   0  0  0  0  0  1  0  0  0  0  0  0
  -25.4140  -36.3850   23.9290 C   0  0  0  0  0  3  0  0  0  0  0  0
  -27.5740  -37.2900   24.6710 C   0  0  0  0  0  1  0  0  0  0  0  0
  -26.4320  -37.4460   23.7730 N   0  0  0  0  0  0  0  0  0  0  0  0
  -26.0250  -38.3630   23.9350 H   0  0  0  0  0  0  0  0  0  0  0  0
  -26.4050  -31.7660   25.1370 C   0  0  1  0  0  0  0  0  0  0  0  0
  -25.3080  -31.5310   26.2020 C   0  0  0  0  0  1  0  0  0  0  0  0
  -26.9890  -30.3870   24.7550 C   0  0  0  0  0  1  0  0  0  0  0  0
  -27.5550  -32.5580   25.8030 C   0  0  0  0  0  1  0  0  0  0  0  0
  -28.7300  -19.4900   20.4320 C   0  0  0  0  0  2  0  0  0  0  0  0
  -30.6250  -18.4150   18.9130 C   0  0  0  0  0  1  0  0  0  0  0  0
  -29.8820  -18.1540   20.2290 C   0  0  0  0  0  3  0  0  0  0  0  0
  -30.3930  -15.2640   20.2280 C   0  0  0  0  0  0  0  0  0  0  0  0
  -30.3510  -12.8420   19.3310 C   0  0  0  0  0  2  0  0  0  0  0  0
  -29.4060  -12.6640   18.1170 C   0  0  0  0  0  2  0  0  0  0  0  0
  -27.9660  -12.3930   18.5830 C   0  0  0  0  0  2  0  0  0  0  0  0
  -27.5380  -13.3430   19.7300 C   0  0  0  0  0  3  0  0  0  0  0  0
  -28.6060  -13.4670   20.8360 C   0  0  0  0  0  2  0  0  0  0  0  0
  -29.8270  -13.9660   20.1850 N   0  0  0  0  0  0  0  0  0  0  0  0
  -31.6060  -15.2790   19.9760 O   0  0  0  0  0  0  0  0  0  0  0  0
  -29.6210  -16.5160   20.3480 N   0  0  0  0  0  0  0  0  0  0  0  0
  -28.6500  -16.3080   20.5320 H   0  0  0  0  0  0  0  0  0  0  0  0
  -25.1800  -13.8870   20.5390 C   0  0  0  0  0  0  0  0  0  0  0  0
  -24.1280  -13.1020   20.9160 C   0  0  0  0  0  0  0  0  0  0  0  0
  -24.5980  -11.7530   20.8530 C   0  0  0  0  0  0  0  0  0  0  0  0
  -26.2200  -13.0180   20.2590 N   0  0  0  0  0  0  0  0  0  0  0  0
  -25.8830  -11.7280   20.5160 N   0  0  0  0  0  0  0  0  0  0  0  0
  -23.8770  -10.4850   21.0340 C   0  0  0  0  0  0  0  0  0  0  0  0
  -24.3060   -9.5170   21.9670 C   0  0  0  0  0  3  0  0  0  0  0  0
  -23.5830   -8.3160   22.1380 C   0  0  0  0  0  3  0  0  0  0  0  0
  -22.4160   -8.0760   21.3750 C   0  0  0  0  0  0  0  0  0  0  0  0
  -22.0050   -9.0350   20.4310 C   0  0  0  0  0  3  0  0  0  0  0  0
  -22.7300  -10.2250   20.2590 C   0  0  0  0  0  3  0  0  0  0  0  0
  -21.6650   -6.9290   21.4550 O   0  0  0  0  0  0  0  0  0  0  0  0
  -21.5830   -6.2010   22.6150 C   0  0  0  0  0  0  0  0  0  0  0  0
  -21.0970   -6.7640   23.8150 C   0  0  0  0  0  3  0  0  0  0  0  0
  -20.9660   -5.9620   24.9670 C   0  0  0  0  0  3  0  0  0  0  0  0
  -21.3100   -4.5980   24.9180 C   0  0  0  0  0  0  0  0  0  0  0  0
  -21.7900   -4.0340   23.7230 C   0  0  0  0  0  3  0  0  0  0  0  0
  -21.9220   -4.8340   22.5730 C   0  0  0  0  0  0  0  0  0  0  0  0
  -22.3650   -4.2810   21.4180 F   0  0  0  0  0  0  0  0  0  0  0  0
  -21.1770   -3.8240   26.0210 F   0  0  0  0  0  0  0  0  0  0  0  0
  -22.7350  -13.5700   21.2150 C   0  0  0  0  0  0  0  0  0  0  0  0
  -22.0220  -12.8600   22.0820 N   0  0  0  0  0  0  0  0  0  0  0  0
  -22.2870  -14.6030   20.7170 O   0  0  0  0  0  0  0  0  0  0  0  0
  -22.3980  -12.0250   22.5070 H   0  0  0  0  0  0  0  0  0  0  0  0
  -21.0880  -13.1560   22.3250 H   0  0  0  0  0  0  0  0  0  0  0  0
  -25.3350  -15.2620   20.3790 N   0  0  0  0  0  0  0  0  0  0  0  0
  -24.5640  -15.9070   20.5110 H   0  0  0  0  0  0  0  0  0  0  0  0
  -26.1580  -15.7050   19.9950 H   0  0  0  0  0  0  0  0  0  0  0  0
  2  5  1  0
  3  1  1  0
  4  2  2  0
  4  6  1  0
  5 48  1  0
  5  1  2  0
  6  3  2  0
  7  6  1  0
  8 19  2  0
  9  7  1  0
  9 14  1  0
 10 18  1  0
 10 20  1  0
 11 17  1  0
 11 13  1  0
 12 18  1  0
 13 14  2  0
 13 12  1  0
 15  9  2  0
 16 15  1  0
 16 11  2  0
 17 10  1  0
 18  8  1  0
 20 22  2  0
 21 20  1  0
 23 21  1  0
 24 33  2  0
 24 29  1  0
 25 21  1  0
 25 29  1  0
 26 25  1  0
 27 28  1  0
 27 26  1  0
 28 24  1  0
 29 30  2  0
 30 31  1  0
 32 31  2  0
 33 32  1  0
 34  8  1  0
 34 35  1  0
 34 44  1  0
 35 38  1  0
 36 40  1  0
 36 35  1  0
 37 36  2  0
 40 39  1  0
 42 40  1  0
 42 43  1  0
 42 41  1  0
 44 47  1  1
 44 45  1  0
 46 44  1  0
 50 49  1  0
 50 59  1  0
 50 48  1  0
 51 59  1  0
 52 57  1  0
 53 54  1  0
 53 52  1  0
 55 54  1  0
 55 64  1  0
 55 56  1  0
 57 51  1  0
 57 56  1  0
 58 51  2  0
 59 60  1  0
 61 62  2  0
 62 81  1  0
 63 62  1  0
 63 66  1  0
 64 65  1  0
 64 61  1  0
 65 63  2  0
 66 67  1  0
 67 68  2  0
 69 72  1  0
 69 68  1  0
 70 69  2  0
 71 70  1  0
 71 66  2  0
 72 73  1  0
 73 74  1  0
 74 75  2  0
 76 75  1  0
 76 80  1  0
 77 76  2  0
 78 73  2  0
 78 77  1  0
 79 78  1  0
 81 82  1  0
 82 85  1  0
 82 84  1  0
 83 81  2  0
 86 87  1  0
 86 61  1  0
 88 86  1  0
M  ISO  4   6 101   7 101  51 100  59 100
M  END
>  <TORSDO>  (29) 
F 18

>  <SCORE>  (29) 
-15.518

>  <name>  (29) 
28

>  <ligand_id>  (29) 
28

>  <original_smiles>  (29) 
[H]c1c([H])c([H])c2c(c1[H])C([H])([H])C([H])([H])C([H])([H])C2([H])N([H])C(=O)C1([H])N(C(=O)C([H])(N([H])C(=O)C([H])(N([H])C([H])([H])[H])C([H])([H])[H])C(C([H])([H])[H])(C([H])([H])[H])C([H])([H])[H])C([H])([H])c2c([H])c(Oc3c([H])c([H])c(C([H])([H])C([H])(N([H])C(=O)N4C([H])([H])C([H])([H])C([H])([H])C([H])(n5nc(-c6c([H])c([H])c(Oc7c([H])c([H])c(F)c([H])c7F)c([H])c6[H])c(C(=O)N([H])[H])c5N([H])[H])C4([H])[H])C([H])([H])[H])c([H])c3[H])c([H])c([H])c2C1([H])[H]

>  <smiles>  (29) 
[H]c1c([H])c([H])c2c(c1[H])C([H])([H])C([H])([H])C([H])([H])C2([H])N([H])C(=O)C1([H])N(C(=O)C([H])(N([H])C(=O)C([H])(N([H])C([H])([H])[H])C([H])([H])[H])C(C([H])([H])[H])(C([H])([H])[H])C([H])([H])[H])C([H])([H])c2c([H])c(Oc3c([H])c([H])c(C([H])([H])C([H])(N([H])C(=O)N4C([H])([H])C([H])([H])C([H])([H])C([H])(n5nc(-c6c([H])c([H])c(Oc7c([H])c([H])c(F)c([H])c7F)c([H])c6[H])c(C(=O)N([H])[H])c5N([H])[H])C4([H])[H])C([H])([H])[H])c([H])c3[H])c([H])c([H])c2C1([H])[H]

$$$$
29:0:0
     RDKit          3D

 98106  0  0  1  0  0  0  0  0999 V2000
  -26.8550  -21.1810   18.7050 C   0  0  0  0  0  0  0  0  0  0  0  0
  -28.8040  -21.9990   19.8100 C   0  0  0  0  0  2  0  0  0  0  0  0
  -28.2430  -20.7350   19.1460 C   0  0  0  0  0  3  0  0  0  0  0  0
  -26.6520  -22.6780   18.9770 C   0  0  2  0  0  0  0  0  0  0  0  0
  -26.0140  -23.3530   17.7400 C   0  0  0  0  0  1  0  0  0  0  0  0
  -28.0580  -23.1410   19.2110 N   0  0  1  0  0  4  0  0  0  0  0  0
  -26.0150  -20.4470   18.1700 O   0  0  0  0  0  0  0  0  0  0  0  0
  -28.4500  -23.2570   18.2860 H   0  0  0  0  0  0  0  0  0  0  0  0
  -28.3210  -19.4560   19.9880 C   0  0  0  0  0  0  0  0  0  0  0  0
  -27.0690  -19.0400   20.7650 C   0  0  0  0  0  1  0  0  0  0  0  0
  -29.4070  -18.7830   19.9750 N   0  0  0  0  0  0  0  0  0  0  0  0
  -29.4790  -17.4950   20.6380 C   0  0  0  0  0  2  0  0  0  0  0  0
  -30.7010  -16.7120   20.1290 C   0  0  0  0  0  2  0  0  0  0  0  0
  -31.0640  -14.3190   19.6170 C   0  0  0  0  0  0  0  0  0  0  0  0
  -30.6760  -12.0820   18.6630 C   0  0  0  0  0  2  0  0  0  0  0  0
  -29.6170  -12.1720   17.5450 C   0  0  0  0  0  2  0  0  0  0  0  0
  -28.1910  -12.0790   18.1200 C   0  0  0  0  0  2  0  0  0  0  0  0
  -27.9680  -13.0300   19.3270 C   0  0  0  0  0  3  0  0  0  0  0  0
  -29.1190  -12.8900   20.3470 C   0  0  0  0  0  2  0  0  0  0  0  0
  -30.3950  -13.1380   19.6440 N   0  0  0  0  0  0  0  0  0  0  0  0
  -32.0500  -14.5330   18.9050 O   0  0  0  0  0  0  0  0  0  0  0  0
  -30.5080  -15.2840   20.3520 N   0  0  0  0  0  0  0  0  0  0  0  0
  -29.7390  -15.0080   20.9430 H   0  0  0  0  0  0  0  0  0  0  0  0
  -25.6870  -13.7210   20.3130 C   0  0  0  0  0  0  0  0  0  0  0  0
  -24.6330  -12.9820   20.7830 C   0  0  0  0  0  0  0  0  0  0  0  0
  -25.0260  -11.6150   20.6620 C   0  0  0  0  0  0  0  0  0  0  0  0
  -26.6600  -12.8030   19.9440 N   0  0  0  0  0  0  0  0  0  0  0  0
  -26.2700  -11.5310   20.2070 N   0  0  0  0  0  0  0  0  0  0  0  0
  -24.2720  -10.3780   20.9040 C   0  0  0  0  0  0  0  0  0  0  0  0
  -24.6880   -9.4360   21.8710 C   0  0  0  0  0  3  0  0  0  0  0  0
  -23.9380   -8.2620   22.0970 C   0  0  0  0  0  3  0  0  0  0  0  0
  -22.7560   -8.0220   21.3560 C   0  0  0  0  0  0  0  0  0  0  0  0
  -22.3590   -8.9520   20.3790 C   0  0  0  0  0  3  0  0  0  0  0  0
  -23.1100  -10.1180   20.1520 C   0  0  0  0  0  3  0  0  0  0  0  0
  -21.9780   -6.8980   21.4890 O   0  0  0  0  0  0  0  0  0  0  0  0
  -21.8250   -6.2660   22.6970 C   0  0  0  0  0  0  0  0  0  0  0  0
  -21.2780   -6.9270   23.8200 C   0  0  0  0  0  3  0  0  0  0  0  0
  -21.0730   -6.2210   25.0210 C   0  0  0  0  0  3  0  0  0  0  0  0
  -21.4070   -4.8550   25.1010 C   0  0  0  0  0  0  0  0  0  0  0  0
  -21.9480   -4.1940   23.9840 C   0  0  0  0  0  3  0  0  0  0  0  0
  -22.1520   -4.8980   22.7840 C   0  0  0  0  0  0  0  0  0  0  0  0
  -22.6540   -4.2520   21.7030 F   0  0  0  0  0  0  0  0  0  0  0  0
  -21.2030   -4.1720   26.2520 F   0  0  0  0  0  0  0  0  0  0  0  0
  -23.2980  -13.5090   21.2280 C   0  0  0  0  0  0  0  0  0  0  0  0
  -22.6520  -12.8250   22.1670 N   0  0  0  0  0  0  0  0  0  0  0  0
  -22.8430  -14.5590   20.7770 O   0  0  0  0  0  0  0  0  0  0  0  0
  -23.0360  -11.9780   22.5570 H   0  0  0  0  0  0  0  0  0  0  0  0
  -21.7580  -13.1580   22.5020 H   0  0  0  0  0  0  0  0  0  0  0  0
  -25.8920  -15.0890   20.1520 N   0  0  0  0  0  0  0  0  0  0  0  0
  -25.1680  -15.7690   20.3530 H   0  0  0  0  0  0  0  0  0  0  0  0
  -26.7070  -15.4940   19.7060 H   0  0  0  0  0  0  0  0  0  0  0  0
  -24.6790  -23.5460   20.3920 C   0  0  0  0  0  2  0  0  0  0  0  0
  -25.7950  -22.8080   20.2450 C   0  0  0  0  0  3  0  0  0  0  0  0
  -28.2420  -24.4520   19.9130 C   0  0  0  0  0  2  0  0  0  0  0  0
  -28.8660  -25.4200   17.5460 C   0  0  0  0  0  1  0  0  0  0  0  0
  -30.5320  -25.3660   19.3900 C   0  0  0  0  0  1  0  0  0  0  0  0
  -29.0320  -25.5200   19.0840 C   0  0  2  0  0  0  0  0  0  0  0  0
  -28.7790  -26.8670   19.5420 O   0  0  0  0  0  0  0  0  0  0  0  0
  -24.5690  -31.5030   22.9150 C   0  0  0  0  0  0  0  0  0  0  0  0
  -27.5310  -27.4690   19.5560 C   0  0  0  0  0  0  0  0  0  0  0  0
  -23.4700  -30.1230   21.1870 C   0  0  0  0  0  3  0  0  0  0  0  0
  -25.0260  -28.7970   19.6760 C   0  0  0  0  0  0  0  0  0  0  0  0
  -25.9640  -30.6780   21.0220 C   0  0  0  0  0  2  0  0  0  0  0  0
  -26.1470  -29.3620   20.2950 C   0  0  0  0  0  0  0  0  0  0  0  0
  -27.3970  -28.7030   20.2350 C   0  0  0  0  0  3  0  0  0  0  0  0
  -26.3800  -26.9280   18.9360 C   0  0  0  0  0  3  0  0  0  0  0  0
  -25.1370  -27.5750   18.9990 C   0  0  0  0  0  3  0  0  0  0  0  0
  -23.7260  -29.5580   19.7670 C   0  0  0  0  0  2  0  0  0  0  0  0
  -24.6860  -30.7790   21.7660 N   0  0  0  0  0  0  0  0  0  0  0  0
  -23.4700  -31.6590   23.4650 O   0  0  0  0  0  0  0  0  0  0  0  0
  -22.8970  -28.9950   22.0730 C   0  0  0  0  0  0  0  0  0  0  0  0
  -21.5940  -28.7130   21.9150 N   0  0  0  0  0  0  0  0  0  0  0  0
  -23.6210  -28.3790   22.8590 O   0  0  0  0  0  0  0  0  0  0  0  0
  -21.0670  -29.2700   21.2550 H   0  0  0  0  0  0  0  0  0  0  0  0
  -18.3230  -27.2230   22.2840 C   0  0  0  0  0  0  0  0  0  0  0  0
  -20.8480  -27.6680   22.6150 C   0  0  0  0  0  3  0  0  0  0  0  0
  -21.0740  -26.2880   21.9530 C   0  0  0  0  0  2  0  0  0  0  0  0
  -20.0120  -25.9390   20.9040 C   0  0  0  0  0  2  0  0  0  0  0  0
  -18.6160  -25.9350   21.5350 C   0  0  0  0  0  2  0  0  0  0  0  0
  -19.3720  -28.0450   22.7770 C   0  0  0  0  0  0  0  0  0  0  0  0
  -19.0440  -29.2500   23.4340 C   0  0  0  0  0  3  0  0  0  0  0  0
  -17.7020  -29.6360   23.6060 C   0  0  0  0  0  3  0  0  0  0  0  0
  -16.6680  -28.8110   23.1320 C   0  0  0  0  0  3  0  0  0  0  0  0
  -16.9790  -27.6060   22.4770 C   0  0  0  0  0  3  0  0  0  0  0  0
  -25.8050  -32.1850   23.5790 C   0  0  0  0  0  3  0  0  0  0  0  0
  -25.3900  -33.5290   24.0040 N   0  0  0  0  0  0  0  0  0  0  0  0
  -25.6430  -34.6530   23.3200 C   0  0  0  0  0  0  0  0  0  0  0  0
  -26.3210  -34.6710   22.2890 O   0  0  0  0  0  0  0  0  0  0  0  0
  -24.7850  -33.5840   24.8110 H   0  0  0  0  0  0  0  0  0  0  0  0
  -23.7900  -36.3320   23.0650 C   0  0  0  0  0  1  0  0  0  0  0  0
  -25.0480  -35.9650   23.8680 C   0  0  0  0  0  3  0  0  0  0  0  0
  -27.0970  -36.9460   24.8000 C   0  0  0  0  0  1  0  0  0  0  0  0
  -26.0010  -37.0960   23.8450 N   0  0  0  0  0  0  0  0  0  0  0  0
  -25.5260  -37.9730   24.0410 H   0  0  0  0  0  0  0  0  0  0  0  0
  -26.3850  -31.3670   24.7970 C   0  0  1  0  0  0  0  0  0  0  0  0
  -25.3180  -30.9750   25.8450 C   0  0  0  0  0  1  0  0  0  0  0  0
  -27.0670  -30.0690   24.3070 C   0  0  0  0  0  1  0  0  0  0  0  0
  -27.4770  -32.1970   25.5120 C   0  0  0  0  0  1  0  0  0  0  0  0
  1  4  1  0
  1  3  1  0
  3  2  1  0
  3  9  1  0
  4  5  1  6
  4  6  1  0
  4 53  1  0
  6  2  1  0
  6 54  1  0
  7  1  2  0
  6  8  1  6
  9 10  1  0
 11  9  2  0
 11 12  1  0
 13 22  1  0
 13 12  1  0
 14 20  1  0
 14 22  1  0
 15 20  1  0
 16 17  1  0
 16 15  1  0
 18 17  1  0
 18 27  1  0
 18 19  1  0
 20 19  1  0
 21 14  2  0
 22 23  1  0
 24 25  2  0
 25 44  1  0
 26 25  1  0
 26 29  1  0
 27 28  1  0
 27 24  1  0
 28 26  2  0
 29 30  1  0
 30 31  2  0
 32 35  1  0
 32 31  1  0
 33 32  2  0
 34 33  1  0
 34 29  2  0
 35 36  1  0
 36 41  2  0
 36 37  1  0
 37 38  2  0
 38 39  1  0
 39 43  1  0
 40 39  2  0
 41 40  1  0
 42 41  1  0
 44 45  1  0
 45 48  1  0
 45 47  1  0
 46 44  2  0
 49 24  1  0
 49 50  1  0
 51 49  1  0
 53 52  2  0
 57 55  1  6
 57 56  1  0
 57 58  1  0
 57 54  1  0
 58 60  1  0
 59 70  2  0
 60 65  1  0
 61 69  1  0
 61 71  1  0
 62 68  1  0
 62 64  1  0
 63 69  1  0
 64 63  1  0
 65 64  2  0
 66 67  1  0
 66 60  2  0
 67 62  2  0
 68 61  1  0
 69 59  1  0
 71 73  2  0
 72 71  1  0
 74 72  1  0
 75 84  2  0
 75 80  1  0
 76 72  1  0
 76 80  1  0
 77 76  1  0
 78 79  1  0
 78 77  1  0
 79 75  1  0
 80 81  2  0
 81 82  1  0
 83 82  2  0
 84 83  1  0
 85 59  1  0
 85 86  1  0
 85 95  1  0
 86 89  1  0
 87 91  1  0
 87 86  1  0
 88 87  2  0
 91 90  1  0
 93 91  1  0
 93 94  1  0
 93 92  1  0
 95 98  1  1
 95 96  1  0
 97 95  1  0
M  ISO  4  14 100  22 100  57 101  58 101
M  END
>  <TORSDO>  (30) 
F 22

>  <SCORE>  (30) 
-10.670

>  <name>  (30) 
29

>  <ligand_id>  (30) 
29

>  <original_smiles>  (30) 
[H]C([H])=C([H])C1(C([H])([H])[H])C(=O)C([H])(C(=NC([H])([H])C([H])([H])N([H])C(=O)N2C([H])([H])C([H])([H])C([H])([H])C([H])(n3nc(-c4c([H])c([H])c(Oc5c([H])c([H])c(F)c([H])c5F)c([H])c4[H])c(C(=O)N([H])[H])c3N([H])[H])C2([H])[H])C([H])([H])[H])C([H])([H])[N+]1([H])C([H])([H])C(Oc1c([H])c([H])c2c(c1[H])C([H])([H])N(C(=O)C([H])(N([H])C(=O)C([H])(N([H])C([H])([H])[H])C([H])([H])[H])C(C([H])([H])[H])(C([H])([H])[H])C([H])([H])[H])C([H])(C(=O)N([H])C1([H])c3c([H])c([H])c([H])c([H])c3C([H])([H])C([H])([H])C1([H])[H])C2([H])[H])(C([H])([H])[H])C([H])([H])[H]

>  <smiles>  (30) 
[H]C([H])=C([H])C1(C([H])([H])[H])C(=O)C([H])(C(=NC([H])([H])C([H])([H])N([H])C(=O)N2C([H])([H])C([H])([H])C([H])([H])C([H])(n3nc(-c4c([H])c([H])c(Oc5c([H])c([H])c(F)c([H])c5F)c([H])c4[H])c(C(=O)N([H])[H])c3N([H])[H])C2([H])[H])C([H])([H])[H])C([H])([H])[N+]1([H])C([H])([H])C(Oc1c([H])c([H])c2c(c1[H])C([H])([H])N(C(=O)C([H])(N([H])C(=O)C([H])(N([H])C([H])([H])[H])C([H])([H])[H])C(C([H])([H])[H])(C([H])([H])[H])C([H])([H])[H])C([H])(C(=O)N([H])C1([H])c3c([H])c([H])c([H])c([H])c3C([H])([H])C([H])([H])C1([H])[H])C2([H])[H])(C([H])([H])[H])C([H])([H])[H]

$$$$
30:0:0
     RDKit          3D

100109  0  0  1  0  0  0  0  0999 V2000
  -27.3560  -20.9250   20.8860 C   0  0  0  0  0  2  0  0  0  0  0  0
  -27.9020  -20.5340   19.5210 C   0  0  0  0  0  2  0  0  0  0  0  0
  -28.2550  -22.1030   21.2900 C   0  0  0  0  0  2  0  0  0  0  0  0
  -29.4170  -20.7200   19.7050 C   0  0  0  0  0  3  0  0  0  0  0  0
  -29.5100  -21.9990   20.4920 N   0  0  1  0  0  4  0  0  0  0  0  0
  -30.2740  -21.9110   21.1470 H   0  0  0  0  0  0  0  0  0  0  0  0
  -30.1130  -19.5200   20.4550 C   0  0  0  0  0  2  0  0  0  0  0  0
  -29.7250  -18.0490   20.0440 C   0  0  0  0  0  3  0  0  0  0  0  0
  -31.1440  -14.7720   20.4010 C   0  0  0  0  0  0  0  0  0  0  0  0
  -30.8080  -12.5190   19.5480 C   0  0  0  0  0  2  0  0  0  0  0  0
  -29.9080  -12.6090   18.3000 C   0  0  0  0  0  2  0  0  0  0  0  0
  -28.4220  -12.5750   18.6870 C   0  0  0  0  0  2  0  0  0  0  0  0
  -28.0540  -13.5280   19.8520 C   0  0  0  0  0  3  0  0  0  0  0  0
  -29.0770  -13.4400   21.0020 C   0  0  0  0  0  2  0  0  0  0  0  0
  -30.4170  -13.6260   20.4280 N   0  0  0  0  0  0  0  0  0  0  0  0
  -32.3300  -14.8150   20.7120 O   0  0  0  0  0  0  0  0  0  0  0  0
  -31.5980  -15.7330   18.2770 C   0  0  0  0  0  2  0  0  0  0  0  0
  -31.2950  -17.1930   18.1410 C   0  0  0  0  0  3  0  0  0  0  0  0
  -30.9550  -17.1820   19.6300 C   0  0  0  0  0  3  0  0  0  0  0  0
  -30.7110  -15.7010   19.4890 N   0  0  0  0  0  0  0  0  0  0  0  0
  -25.6640  -14.2030   20.5180 C   0  0  0  0  0  0  0  0  0  0  0  0
  -24.5560  -13.4540   20.8110 C   0  0  0  0  0  0  0  0  0  0  0  0
  -24.9730  -12.0870   20.7620 C   0  0  0  0  0  0  0  0  0  0  0  0
  -26.6850  -13.2930   20.3010 N   0  0  0  0  0  0  0  0  0  0  0  0
  -26.2740  -12.0150   20.5160 N   0  0  0  0  0  0  0  0  0  0  0  0
  -24.1990  -10.8410   20.8750 C   0  0  0  0  0  0  0  0  0  0  0  0
  -24.5670   -9.8250   21.7820 C   0  0  0  0  0  3  0  0  0  0  0  0
  -23.8010   -8.6460   21.8860 C   0  0  0  0  0  3  0  0  0  0  0  0
  -22.6510   -8.4720   21.0820 C   0  0  0  0  0  0  0  0  0  0  0  0
  -22.2950   -9.4790   20.1680 C   0  0  0  0  0  3  0  0  0  0  0  0
  -23.0640  -10.6500   20.0610 C   0  0  0  0  0  3  0  0  0  0  0  0
  -21.8680   -7.3460   21.0980 O   0  0  0  0  0  0  0  0  0  0  0  0
  -21.7410   -6.5700   22.2210 C   0  0  0  0  0  0  0  0  0  0  0  0
  -21.2550   -7.0930   23.4420 C   0  0  0  0  0  3  0  0  0  0  0  0
  -21.0630   -6.2410   24.5480 C   0  0  0  0  0  3  0  0  0  0  0  0
  -21.3640   -4.8700   24.4410 C   0  0  0  0  0  0  0  0  0  0  0  0
  -21.8570   -4.3490   23.2300 C   0  0  0  0  0  3  0  0  0  0  0  0
  -22.0380   -5.1950   22.1240 C   0  0  0  0  0  0  0  0  0  0  0  0
  -22.4800   -4.6820   20.9530 F   0  0  0  0  0  0  0  0  0  0  0  0
  -21.1820   -4.0500   25.5040 F   0  0  0  0  0  0  0  0  0  0  0  0
  -23.1640  -13.9630   21.0390 C   0  0  0  0  0  0  0  0  0  0  0  0
  -22.3950  -13.2690   21.8680 N   0  0  0  0  0  0  0  0  0  0  0  0
  -22.7760  -15.0130   20.5250 O   0  0  0  0  0  0  0  0  0  0  0  0
  -22.7170  -12.4040   22.2850 H   0  0  0  0  0  0  0  0  0  0  0  0
  -21.4720  -13.6020   22.1030 H   0  0  0  0  0  0  0  0  0  0  0  0
  -25.8940  -15.5720   20.3680 N   0  0  0  0  0  0  0  0  0  0  0  0
  -25.2220  -15.8540   19.6600 H   0  0  0  0  0  0  0  0  0  0  0  0
  -25.5380  -16.0750   21.1710 H   0  0  0  0  0  0  0  0  0  0  0  0
  -32.4260  -18.0280   17.6760 N   0  0  0  0  0  4  0  0  0  0  0  0
  -32.1770  -18.9930   17.5570 H   0  0  0  0  0  0  0  0  0  0  0  0
  -32.7470  -17.7050   16.7790 H   0  0  0  0  0  0  0  0  0  0  0  0
  -33.2040  -17.9780   18.3110 H   0  0  0  0  0  0  0  0  0  0  0  0
  -28.8680  -17.3820   21.0530 N   0  0  0  0  0  4  0  0  0  0  0  0
  -29.3750  -17.1420   21.8940 H   0  0  0  0  0  0  0  0  0  0  0  0
  -28.4680  -16.5470   20.6510 H   0  0  0  0  0  0  0  0  0  0  0  0
  -28.0840  -17.9540   21.3180 H   0  0  0  0  0  0  0  0  0  0  0  0
  -29.8110  -23.2070   19.6480 C   0  0  0  0  0  2  0  0  0  0  0  0
  -29.7690  -24.6120   20.3490 C   0  0  0  0  0  2  0  0  0  0  0  0
  -28.6280  -25.5260   19.8280 C   0  0  0  0  0  2  0  0  0  0  0  0
  -28.6550  -26.8930   20.2980 O   0  0  0  0  0  0  0  0  0  0  0  0
  -24.6450  -31.9690   23.3560 C   0  0  0  0  0  0  0  0  0  0  0  0
  -27.4700  -27.6180   20.2520 C   0  0  0  0  0  0  0  0  0  0  0  0
  -23.5160  -30.5620   21.6680 C   0  0  0  0  0  3  0  0  0  0  0  0
  -25.0380  -29.0960   20.2450 C   0  0  0  0  0  0  0  0  0  0  0  0
  -26.0390  -30.9780   21.5400 C   0  0  0  0  0  2  0  0  0  0  0  0
  -26.1710  -29.6210   20.8770 C   0  0  0  0  0  0  0  0  0  0  0  0
  -27.3840  -28.8860   20.8840 C   0  0  0  0  0  3  0  0  0  0  0  0
  -26.3100  -27.1290   19.5990 C   0  0  0  0  0  3  0  0  0  0  0  0
  -25.1050  -27.8500   19.6040 C   0  0  0  0  0  3  0  0  0  0  0  0
  -23.7710  -29.9210   20.2800 C   0  0  0  0  0  2  0  0  0  0  0  0
  -24.7500  -31.1840   22.2460 N   0  0  0  0  0  0  0  0  0  0  0  0
  -23.5450  -32.2040   23.8740 O   0  0  0  0  0  0  0  0  0  0  0  0
  -22.8730  -29.5060   22.5960 C   0  0  0  0  0  0  0  0  0  0  0  0
  -21.5570  -29.2910   22.4380 N   0  0  0  0  0  0  0  0  0  0  0  0
  -23.5580  -28.8860   23.4140 O   0  0  0  0  0  0  0  0  0  0  0  0
  -21.0640  -29.8490   21.7560 H   0  0  0  0  0  0  0  0  0  0  0  0
  -18.2020  -28.0170   22.8660 C   0  0  0  0  0  0  0  0  0  0  0  0
  -20.7500  -28.3170   23.1750 C   0  0  0  0  0  3  0  0  0  0  0  0
  -20.8860  -26.9020   22.5650 C   0  0  0  0  0  2  0  0  0  0  0  0
  -19.8030  -26.5840   21.5320 C   0  0  0  0  0  2  0  0  0  0  0  0
  -18.4120  -26.6880   22.1620 C   0  0  0  0  0  2  0  0  0  0  0  0
  -19.3000  -28.7890   23.3290 C   0  0  0  0  0  0  0  0  0  0  0  0
  -19.0500  -30.0360   23.9450 C   0  0  0  0  0  3  0  0  0  0  0  0
  -17.7340  -30.5080   24.1040 C   0  0  0  0  0  3  0  0  0  0  0  0
  -16.6490  -29.7310   23.6590 C   0  0  0  0  0  3  0  0  0  0  0  0
  -16.8840  -28.4880   23.0440 C   0  0  0  0  0  3  0  0  0  0  0  0
  -25.8970  -32.6260   24.0120 C   0  0  0  0  0  3  0  0  0  0  0  0
  -26.3770  -31.8800   25.3180 C   0  0  1  0  0  0  0  0  0  0  0  0
  -25.2460  -31.6320   26.3430 C   0  0  0  0  0  1  0  0  0  0  0  0
  -27.0030  -30.5110   24.9650 C   0  0  0  0  0  1  0  0  0  0  0  0
  -27.4850  -32.7050   26.0140 C   0  0  0  0  0  1  0  0  0  0  0  0
  -25.5620  -34.0260   24.3060 N   0  0  0  0  0  0  0  0  0  0  0  0
  -25.9180  -35.0690   23.5440 C   0  0  0  0  0  0  0  0  0  0  0  0
  -26.6350  -34.9540   22.5470 O   0  0  0  0  0  0  0  0  0  0  0  0
  -24.9240  -34.1880   25.0710 H   0  0  0  0  0  0  0  0  0  0  0  0
  -24.1980  -36.8420   23.0720 C   0  0  0  0  0  1  0  0  0  0  0  0
  -25.3970  -36.4610   23.9520 C   0  0  0  0  0  3  0  0  0  0  0  0
  -27.4780  -37.3810   24.8790 C   0  0  0  0  0  1  0  0  0  0  0  0
  -26.4270  -37.5200   23.8740 N   0  0  0  0  0  0  0  0  0  0  0  0
  -26.0100  -38.4400   23.9740 H   0  0  0  0  0  0  0  0  0  0  0  0
  1  3  1  0
  2  4  1  0
  2  1  1  0
  4  7  1  0
  4  5  1  0
  5  6  1  1
  5  3  1  0
  8  7  1  0
  8 53  1  0
  9 15  1  0
  9 16  2  0
 10 15  1  0
 11 12  1  0
 11 10  1  0
 13 12  1  0
 13 24  1  0
 13 14  1  0
 15 14  1  0
 17 20  1  0
 18 49  1  0
 18 17  1  0
 18 19  1  0
 19  8  1  0
 20 19  1  0
 20  9  1  0
 21 22  2  0
 22 41  1  0
 23 22  1  0
 23 26  1  0
 24 25  1  0
 24 21  1  0
 25 23  2  0
 26 27  1  0
 27 28  2  0
 29 32  1  0
 29 28  1  0
 30 29  2  0
 31 30  1  0
 31 26  2  0
 32 33  1  0
 33 34  1  0
 34 35  2  0
 36 35  1  0
 36 40  1  0
 37 36  2  0
 38 33  2  0
 38 37  1  0
 39 38  1  0
 41 42  1  0
 42 45  1  0
 42 44  1  0
 43 41  2  0
 46 21  1  0
 46 48  1  0
 47 46  1  0
 49 52  1  0
 50 49  1  0
 51 49  1  0
 53 56  1  0
 53 54  1  0
 55 53  1  0
 57 58  1  0
 57  5  1  0
 59 60  1  0
 59 58  1  0
 61 72  2  0
 62 60  1  0
 62 67  1  0
 63 71  1  0
 63 73  1  0
 64 70  1  0
 64 66  1  0
 65 71  1  0
 66 67  2  0
 66 65  1  0
 68 69  1  0
 68 62  2  0
 69 64  2  0
 70 63  1  0
 71 61  1  0
 73 75  2  0
 74 73  1  0
 76 74  1  0
 77 86  2  0
 77 82  1  0
 78 74  1  0
 78 82  1  0
 79 78  1  0
 80 81  1  0
 80 79  1  0
 81 77  1  0
 82 83  2  0
 83 84  1  0
 85 84  2  0
 86 85  1  0
 87 61  1  0
 87 92  1  0
 87 88  1  0
 88 91  1  1
 88 89  1  0
 90 88  1  0
 92 95  1  0
 93 97  1  0
 93 92  1  0
 94 93  2  0
 97 96  1  0
 99 97  1  0
 99100  1  0
 99 98  1  0
M  ISO  4   9 100  20 100  59 101  60 101
M  END
>  <TORSDO>  (31) 
F 23

>  <SCORE>  (31) 
-12.391

>  <name>  (31) 
30

>  <ligand_id>  (31) 
30

>  <original_smiles>  (31) 
[H]c1c([H])c([H])c2c(c1[H])C([H])([H])C([H])([H])C([H])([H])C2([H])N([H])C(=O)C1([H])N(C(=O)C([H])(N([H])C(=O)C([H])(N([H])C([H])([H])[H])C([H])([H])[H])C(C([H])([H])[H])(C([H])([H])[H])C([H])([H])[H])C([H])([H])c2c([H])c(OC([H])([H])C([H])([H])C([H])([H])[N+]3([H])C([H])([H])C([H])([H])C([H])([H])C3([H])C([H])([H])C([H])(C3([H])N(C(=O)N4C([H])([H])C([H])([H])C([H])([H])C([H])(n5nc(-c6c([H])c([H])c(Oc7c([H])c([H])c(F)c([H])c7F)c([H])c6[H])c(C(=O)N([H])[H])c5N([H])[H])C4([H])[H])C([H])([H])C3([H])[N+]([H])([H])[H])[N+]([H])([H])[H])c([H])c([H])c2C1([H])[H]

>  <smiles>  (31) 
[H]c1c([H])c([H])c2c(c1[H])C([H])([H])C([H])([H])C([H])([H])C2([H])N([H])C(=O)C1([H])N(C(=O)C([H])(N([H])C(=O)C([H])(N([H])C([H])([H])[H])C([H])([H])[H])C(C([H])([H])[H])(C([H])([H])[H])C([H])([H])[H])C([H])([H])c2c([H])c(OC([H])([H])C([H])([H])C([H])([H])[N+]3([H])C([H])([H])C([H])([H])C([H])([H])C3([H])C([H])([H])C([H])(C3([H])N(C(=O)N4C([H])([H])C([H])([H])C([H])([H])C([H])(n5nc(-c6c([H])c([H])c(Oc7c([H])c([H])c(F)c([H])c7F)c([H])c6[H])c(C(=O)N([H])[H])c5N([H])[H])C4([H])[H])C([H])([H])C3([H])[N+]([H])([H])[H])[N+]([H])([H])[H])c([H])c([H])c2C1([H])[H]

$$$$
31:0:0
     RDKit          3D

 91 98  0  0  1  0  0  0  0  0999 V2000
  -29.7660  -21.7670   20.3080 C   0  0  0  0  0  0  0  0  0  0  0  0
  -30.8370  -22.0430   19.6840 N   0  0  0  0  0  0  0  0  0  0  0  0
  -31.3570  -21.2010   19.4650 H   0  0  0  0  0  0  0  0  0  0  0  0
  -29.3000  -20.3450   20.6970 C   0  0  0  0  0  0  0  0  0  0  0  0
  -28.0870  -20.1110   20.7440 O   0  0  0  0  0  0  0  0  0  0  0  0
  -29.9420  -17.9560   20.9220 C   0  0  0  0  0  3  0  0  0  0  0  0
  -30.2860  -19.2650   21.0450 C   0  0  0  0  0  0  0  0  0  0  0  0
  -31.6430  -19.7070   21.5890 C   0  0  0  0  0  1  0  0  0  0  0  0
  -30.8400  -16.7660   21.2790 C   0  0  0  0  0  2  0  0  0  0  0  0
  -30.9160  -14.4780   20.2290 C   0  0  0  0  0  0  0  0  0  0  0  0
  -30.5970  -12.2890   19.1240 C   0  0  0  0  0  2  0  0  0  0  0  0
  -29.6130  -12.4270   17.9450 C   0  0  0  0  0  2  0  0  0  0  0  0
  -28.1530  -12.2980   18.4290 C   0  0  0  0  0  2  0  0  0  0  0  0
  -27.8510  -13.1880   19.6630 C   0  0  0  0  0  3  0  0  0  0  0  0
  -28.9350  -13.0030   20.7460 C   0  0  0  0  0  2  0  0  0  0  0  0
  -30.2400  -13.3020   20.1300 N   0  0  0  0  0  0  0  0  0  0  0  0
  -31.9980  -14.6770   19.6700 O   0  0  0  0  0  0  0  0  0  0  0  0
  -30.2890  -15.4490   20.9220 N   0  0  0  0  0  0  0  0  0  0  0  0
  -29.3940  -15.1980   21.3170 H   0  0  0  0  0  0  0  0  0  0  0  0
  -25.5010  -13.8340   20.4900 C   0  0  0  0  0  0  0  0  0  0  0  0
  -24.4290  -13.0770   20.8820 C   0  0  0  0  0  0  0  0  0  0  0  0
  -24.8540  -11.7160   20.7940 C   0  0  0  0  0  0  0  0  0  0  0  0
  -26.5120  -12.9350   20.1900 N   0  0  0  0  0  0  0  0  0  0  0  0
  -26.1280  -11.6540   20.4280 N   0  0  0  0  0  0  0  0  0  0  0  0
  -24.1050  -10.4670   20.9810 C   0  0  0  0  0  0  0  0  0  0  0  0
  -24.5100   -9.5000   21.9270 C   0  0  0  0  0  3  0  0  0  0  0  0
  -23.7650   -8.3130   22.1000 C   0  0  0  0  0  3  0  0  0  0  0  0
  -22.6020   -8.0870   21.3270 C   0  0  0  0  0  0  0  0  0  0  0  0
  -22.2170   -9.0420   20.3710 C   0  0  0  0  0  3  0  0  0  0  0  0
  -22.9620  -10.2200   20.1960 C   0  0  0  0  0  3  0  0  0  0  0  0
  -21.8300   -6.9520   21.4090 O   0  0  0  0  0  0  0  0  0  0  0  0
  -21.7090   -6.2470   22.5790 C   0  0  0  0  0  0  0  0  0  0  0  0
  -21.1560   -6.8250   23.7430 C   0  0  0  0  0  3  0  0  0  0  0  0
  -20.9870   -6.0440   24.9040 C   0  0  0  0  0  3  0  0  0  0  0  0
  -21.3560   -4.6860   24.9010 C   0  0  0  0  0  0  0  0  0  0  0  0
  -21.9020   -4.1080   23.7420 C   0  0  0  0  0  3  0  0  0  0  0  0
  -22.0740   -4.8860   22.5830 C   0  0  0  0  0  0  0  0  0  0  0  0
  -22.5810   -4.3180   21.4620 F   0  0  0  0  0  0  0  0  0  0  0  0
  -21.1870   -3.9350   26.0140 F   0  0  0  0  0  0  0  0  0  0  0  0
  -23.0570  -13.5800   21.2310 C   0  0  0  0  0  0  0  0  0  0  0  0
  -22.3450  -12.8700   22.0990 N   0  0  0  0  0  0  0  0  0  0  0  0
  -22.6260  -14.6360   20.7680 O   0  0  0  0  0  0  0  0  0  0  0  0
  -22.7050  -12.0140   22.4960 H   0  0  0  0  0  0  0  0  0  0  0  0
  -21.4250  -13.1850   22.3720 H   0  0  0  0  0  0  0  0  0  0  0  0
  -25.6940  -15.2050   20.3450 N   0  0  0  0  0  0  0  0  0  0  0  0
  -24.9520  -15.8780   20.5060 H   0  0  0  0  0  0  0  0  0  0  0  0
  -26.5440  -15.6290   19.9940 H   0  0  0  0  0  0  0  0  0  0  0  0
  -28.8290  -22.9200   20.7250 C   0  0  0  0  0  2  0  0  0  0  0  0
  -29.2190  -24.3550   20.2450 C   0  0  0  0  0  2  0  0  0  0  0  0
  -28.3130  -25.4540   20.8460 C   0  0  0  0  0  2  0  0  0  0  0  0
  -28.5310  -26.7700   20.2940 O   0  0  0  0  0  0  0  0  0  0  0  0
  -24.5890  -31.9140   23.2570 C   0  0  0  0  0  0  0  0  0  0  0  0
  -27.3870  -27.5350   20.2290 C   0  0  0  0  0  0  0  0  0  0  0  0
  -23.4550  -30.5030   21.5730 C   0  0  0  0  0  3  0  0  0  0  0  0
  -24.9750  -29.0070   20.1720 C   0  0  0  0  0  0  0  0  0  0  0  0
  -25.9800  -30.9070   21.4480 C   0  0  0  0  0  2  0  0  0  0  0  0
  -26.1080  -29.5440   20.7980 C   0  0  0  0  0  0  0  0  0  0  0  0
  -27.3220  -28.8160   20.8220 C   0  0  0  0  0  3  0  0  0  0  0  0
  -26.2420  -27.0220   19.5790 C   0  0  0  0  0  3  0  0  0  0  0  0
  -25.0380  -27.7460   19.5560 C   0  0  0  0  0  3  0  0  0  0  0  0
  -23.7160  -29.8420   20.1940 C   0  0  0  0  0  2  0  0  0  0  0  0
  -24.6920  -31.1230   22.1520 N   0  0  0  0  0  0  0  0  0  0  0  0
  -23.4880  -32.1640   23.7670 O   0  0  0  0  0  0  0  0  0  0  0  0
  -22.7960  -29.4630   22.5070 C   0  0  0  0  0  0  0  0  0  0  0  0
  -21.4760  -29.2710   22.3530 N   0  0  0  0  0  0  0  0  0  0  0  0
  -23.4700  -28.8320   23.3270 O   0  0  0  0  0  0  0  0  0  0  0  0
  -20.9940  -29.8330   21.6650 H   0  0  0  0  0  0  0  0  0  0  0  0
  -18.0970  -28.0720   22.8020 C   0  0  0  0  0  0  0  0  0  0  0  0
  -20.6530  -28.3140   23.0940 C   0  0  0  0  0  3  0  0  0  0  0  0
  -20.7550  -26.8990   22.4810 C   0  0  0  0  0  2  0  0  0  0  0  0
  -19.6580  -26.6050   21.4530 C   0  0  0  0  0  2  0  0  0  0  0  0
  -18.2720  -26.7380   22.0940 C   0  0  0  0  0  2  0  0  0  0  0  0
  -19.2150  -28.8190   23.2580 C   0  0  0  0  0  0  0  0  0  0  0  0
  -18.9960  -30.0670   23.8780 C   0  0  0  0  0  3  0  0  0  0  0  0
  -17.6920  -30.5690   24.0480 C   0  0  0  0  0  3  0  0  0  0  0  0
  -16.5870  -29.8170   23.6100 C   0  0  0  0  0  3  0  0  0  0  0  0
  -16.7910  -28.5710   22.9930 C   0  0  0  0  0  3  0  0  0  0  0  0
  -25.8450  -32.5630   23.9170 C   0  0  0  0  0  3  0  0  0  0  0  0
  -25.5170  -33.9650   24.2110 N   0  0  0  0  0  0  0  0  0  0  0  0
  -25.8700  -35.0040   23.4420 C   0  0  0  0  0  0  0  0  0  0  0  0
  -26.5780  -34.8850   22.4390 O   0  0  0  0  0  0  0  0  0  0  0  0
  -24.8930  -34.1320   24.9860 H   0  0  0  0  0  0  0  0  0  0  0  0
  -24.1460  -36.7770   22.9880 C   0  0  0  0  0  1  0  0  0  0  0  0
  -25.3580  -36.3980   23.8540 C   0  0  0  0  0  3  0  0  0  0  0  0
  -27.4460  -37.3190   24.7590 C   0  0  0  0  0  1  0  0  0  0  0  0
  -26.3870  -37.4550   23.7610 N   0  0  0  0  0  0  0  0  0  0  0  0
  -25.9700  -38.3750   23.8650 H   0  0  0  0  0  0  0  0  0  0  0  0
  -26.3170  -31.8160   25.2240 C   0  0  1  0  0  0  0  0  0  0  0  0
  -25.1820  -31.5790   26.2480 C   0  0  0  0  0  1  0  0  0  0  0  0
  -26.9320  -30.4410   24.8720 C   0  0  0  0  0  1  0  0  0  0  0  0
  -27.4300  -32.6330   25.9220 C   0  0  0  0  0  1  0  0  0  0  0  0
  1  4  1  0
  1 48  1  0
  2  1  2  0
  3  2  1  0
  4  5  2  0
  4  7  1  0
  6  7  2  0
  6  9  1  0
  7  8  1  0
 10 18  1  0
 11 16  1  0
 12 13  1  0
 12 11  1  0
 14 13  1  0
 14 23  1  0
 14 15  1  0
 16 10  1  0
 16 15  1  0
 17 10  2  0
 18  9  1  0
 18 19  1  0
 20 21  2  0
 21 40  1  0
 22 21  1  0
 22 25  1  0
 23 24  1  0
 23 20  1  0
 24 22  2  0
 25 26  1  0
 26 27  2  0
 28 31  1  0
 28 27  1  0
 29 28  2  0
 30 29  1  0
 30 25  2  0
 31 32  1  0
 32 37  2  0
 32 33  1  0
 33 34  2  0
 35 34  1  0
 35 39  1  0
 36 35  2  0
 37 36  1  0
 38 37  1  0
 40 41  1  0
 41 44  1  0
 41 43  1  0
 42 40  2  0
 45 20  1  0
 45 46  1  0
 47 45  1  0
 49 48  1  0
 49 50  1  0
 51 50  1  0
 52 63  2  0
 53 51  1  0
 53 58  1  0
 54 62  1  0
 54 64  1  0
 55 61  1  0
 55 57  1  0
 56 62  1  0
 57 58  2  0
 57 56  1  0
 59 53  2  0
 60 59  1  0
 60 55  2  0
 61 54  1  0
 62 52  1  0
 64 66  2  0
 65 64  1  0
 67 65  1  0
 68 77  2  0
 68 73  1  0
 69 65  1  0
 69 73  1  0
 70 69  1  0
 71 72  1  0
 71 70  1  0
 72 68  1  0
 73 74  2  0
 74 75  1  0
 76 75  2  0
 77 76  1  0
 78 52  1  0
 78 79  1  0
 78 88  1  0
 79 82  1  0
 80 84  1  0
 80 79  1  0
 81 80  2  0
 84 83  1  0
 86 84  1  0
 86 87  1  0
 86 85  1  0
 88 91  1  1
 88 89  1  0
 90 88  1  0
M  ISO  4  10 100  18 100  50 101  51 101
M  END
>  <TORSDO>  (32) 
F 22

>  <SCORE>  (32) 
-13.108

>  <name>  (32) 
31

>  <ligand_id>  (32) 
31

>  <original_smiles>  (32) 
[H]N=C(C(=O)C(=C([H])C([H])([H])N([H])C(=O)N1C([H])([H])C([H])([H])C([H])([H])C([H])(n2nc(-c3c([H])c([H])c(Oc4c([H])c([H])c(F)c([H])c4F)c([H])c3[H])c(C(=O)N([H])[H])c2N([H])[H])C1([H])[H])C([H])([H])[H])C([H])([H])C([H])([H])C([H])([H])Oc1c([H])c([H])c2c(c1[H])C([H])([H])N(C(=O)C([H])(N([H])C(=O)C([H])(N([H])C([H])([H])[H])C([H])([H])[H])C(C([H])([H])[H])(C([H])([H])[H])C([H])([H])[H])C([H])(C(=O)N([H])C1([H])c3c([H])c([H])c([H])c([H])c3C([H])([H])C([H])([H])C1([H])[H])C2([H])[H]

>  <smiles>  (32) 
[H]N=C(C(=O)C(=C([H])C([H])([H])N([H])C(=O)N1C([H])([H])C([H])([H])C([H])([H])C([H])(n2nc(-c3c([H])c([H])c(Oc4c([H])c([H])c(F)c([H])c4F)c([H])c3[H])c(C(=O)N([H])[H])c2N([H])[H])C1([H])[H])C([H])([H])[H])C([H])([H])C([H])([H])C([H])([H])Oc1c([H])c([H])c2c(c1[H])C([H])([H])N(C(=O)C([H])(N([H])C(=O)C([H])(N([H])C([H])([H])[H])C([H])([H])[H])C(C([H])([H])[H])(C([H])([H])[H])C([H])([H])[H])C([H])(C(=O)N([H])C1([H])c3c([H])c([H])c([H])c([H])c3C([H])([H])C([H])([H])C1([H])[H])C2([H])[H]

$$$$
32:0:0
     RDKit          3D

 94102  0  0  1  0  0  0  0  0999 V2000
  -30.9280  -22.0270   21.8780 C   0  0  0  0  0  0  0  0  0  0  0  0
  -30.4260  -23.4450   22.1300 C   0  0  0  0  0  2  0  0  0  0  0  0
  -30.1250  -22.0020   20.5690 C   0  0  0  0  0  3  0  0  0  0  0  0
  -29.4060  -23.1880   21.0930 N   0  0  2  0  0  4  0  0  0  0  0  0
  -31.6680  -21.2380   22.4770 O   0  0  0  0  0  0  0  0  0  0  0  0
  -28.5540  -22.8720   21.5330 H   0  0  0  0  0  0  0  0  0  0  0  0
  -29.2350  -20.7550   20.3890 C   0  0  0  0  0  2  0  0  0  0  0  0
  -29.4470  -18.3110   19.9760 C   0  0  0  0  0  0  0  0  0  0  0  0
  -29.9960  -19.5290   20.1050 N   0  0  0  0  0  0  0  0  0  0  0  0
  -28.2280  -18.1500   19.9100 O   0  0  0  0  0  0  0  0  0  0  0  0
  -31.0070  -19.5890   20.1240 H   0  0  0  0  0  0  0  0  0  0  0  0
  -30.3900  -17.0920   19.9440 C   0  0  0  0  0  2  0  0  0  0  0  0
  -30.5120  -16.3390   21.2970 C   0  0  0  0  0  0  0  0  0  0  0  0
  -30.1830  -17.1270   22.5580 C   0  0  0  0  0  1  0  0  0  0  0  0
  -30.8840  -15.1200   21.4640 N   0  0  0  0  0  0  0  0  0  0  0  0
  -31.2850  -14.3540   20.3820 C   0  0  0  0  0  0  0  0  0  0  0  0
  -30.7910  -12.3440   19.0270 C   0  0  0  0  0  2  0  0  0  0  0  0
  -29.8390  -12.6420   17.8580 C   0  0  0  0  0  2  0  0  0  0  0  0
  -28.3710  -12.5510   18.3140 C   0  0  0  0  0  2  0  0  0  0  0  0
  -28.1000  -13.3600   19.6100 C   0  0  0  0  0  3  0  0  0  0  0  0
  -29.1530  -13.0300   20.6910 C   0  0  0  0  0  2  0  0  0  0  0  0
  -30.4880  -13.2840   20.1160 N   0  0  0  0  0  0  0  0  0  0  0  0
  -32.2810  -14.6110   19.7010 O   0  0  0  0  0  0  0  0  0  0  0  0
  -25.7360  -14.0750   20.3460 C   0  0  0  0  0  0  0  0  0  0  0  0
  -24.6360  -13.3510   20.7220 C   0  0  0  0  0  0  0  0  0  0  0  0
  -25.0330  -11.9790   20.6700 C   0  0  0  0  0  0  0  0  0  0  0  0
  -26.7370  -13.1480   20.0970 N   0  0  0  0  0  0  0  0  0  0  0  0
  -26.3150  -11.8810   20.3440 N   0  0  0  0  0  0  0  0  0  0  0  0
  -24.2490  -10.7500   20.8540 C   0  0  0  0  0  0  0  0  0  0  0  0
  -24.6370   -9.7600   21.7830 C   0  0  0  0  0  3  0  0  0  0  0  0
  -23.8580   -8.5950   21.9550 C   0  0  0  0  0  3  0  0  0  0  0  0
  -22.6760   -8.4130   21.1970 C   0  0  0  0  0  0  0  0  0  0  0  0
  -22.3080   -9.3930   20.2560 C   0  0  0  0  0  3  0  0  0  0  0  0
  -23.0860  -10.5490   20.0840 C   0  0  0  0  0  3  0  0  0  0  0  0
  -21.8720   -7.3030   21.2790 O   0  0  0  0  0  0  0  0  0  0  0  0
  -21.7630   -6.5750   22.4350 C   0  0  0  0  0  0  0  0  0  0  0  0
  -21.3580   -7.1660   23.6520 C   0  0  0  0  0  3  0  0  0  0  0  0
  -21.1970   -6.3680   24.8030 C   0  0  0  0  0  3  0  0  0  0  0  0
  -21.4260   -4.9810   24.7360 C   0  0  0  0  0  0  0  0  0  0  0  0
  -21.8230   -4.3890   23.5240 C   0  0  0  0  0  3  0  0  0  0  0  0
  -21.9890   -5.1850   22.3770 C   0  0  0  0  0  0  0  0  0  0  0  0
  -22.3510   -4.6070   21.2060 F   0  0  0  0  0  0  0  0  0  0  0  0
  -21.2620   -4.2120   25.8380 F   0  0  0  0  0  0  0  0  0  0  0  0
  -23.2680  -13.8920   21.0190 C   0  0  0  0  0  0  0  0  0  0  0  0
  -22.5220  -13.2270   21.8960 N   0  0  0  0  0  0  0  0  0  0  0  0
  -22.8690  -14.9380   20.5100 O   0  0  0  0  0  0  0  0  0  0  0  0
  -22.8540  -12.3800   22.3350 H   0  0  0  0  0  0  0  0  0  0  0  0
  -21.6050  -13.5730   22.1360 H   0  0  0  0  0  0  0  0  0  0  0  0
  -25.9600  -15.4390   20.1760 N   0  0  0  0  0  0  0  0  0  0  0  0
  -25.2260  -16.1280   20.2970 H   0  0  0  0  0  0  0  0  0  0  0  0
  -26.8290  -15.8440   19.8490 H   0  0  0  0  0  0  0  0  0  0  0  0
  -29.1560  -24.3150   20.1510 C   0  0  0  0  0  2  0  0  0  0  0  0
  -28.3480  -25.4530   20.8110 C   0  0  0  0  0  2  0  0  0  0  0  0
  -28.3420  -26.6250   19.9900 O   0  0  0  0  0  0  0  0  0  0  0  0
  -24.5740  -31.7680   23.1660 C   0  0  0  0  0  0  0  0  0  0  0  0
  -27.1770  -27.3490   20.0370 C   0  0  0  0  0  0  0  0  0  0  0  0
  -23.3470  -30.3830   21.5210 C   0  0  0  0  0  3  0  0  0  0  0  0
  -24.7850  -28.8450   20.0810 C   0  0  0  0  0  0  0  0  0  0  0  0
  -25.8710  -30.7360   21.3060 C   0  0  0  0  0  2  0  0  0  0  0  0
  -25.9470  -29.3680   20.6600 C   0  0  0  0  0  0  0  0  0  0  0  0
  -27.1500  -28.6290   20.6320 C   0  0  0  0  0  3  0  0  0  0  0  0
  -25.9990  -26.8300   19.4600 C   0  0  0  0  0  3  0  0  0  0  0  0
  -24.8030  -27.5730   19.4800 C   0  0  0  0  0  3  0  0  0  0  0  0
  -23.5450  -29.7080   20.1370 C   0  0  0  0  0  2  0  0  0  0  0  0
  -24.6170  -30.9750   22.0570 N   0  0  0  0  0  0  0  0  0  0  0  0
  -23.4980  -32.0420   23.7140 O   0  0  0  0  0  0  0  0  0  0  0  0
  -22.6960  -29.3610   22.4790 C   0  0  0  0  0  0  0  0  0  0  0  0
  -21.3670  -29.2050   22.3720 N   0  0  0  0  0  0  0  0  0  0  0  0
  -23.3830  -28.7110   23.2720 O   0  0  0  0  0  0  0  0  0  0  0  0
  -20.8750  -29.7800   21.7030 H   0  0  0  0  0  0  0  0  0  0  0  0
  -17.9790  -28.0720   22.9130 C   0  0  0  0  0  0  0  0  0  0  0  0
  -20.5460  -28.2720   23.1430 C   0  0  0  0  0  3  0  0  0  0  0  0
  -20.6070  -26.8480   22.5420 C   0  0  0  0  0  2  0  0  0  0  0  0
  -19.4820  -26.5650   21.5430 C   0  0  0  0  0  2  0  0  0  0  0  0
  -18.1140  -26.7290   22.2140 C   0  0  0  0  0  2  0  0  0  0  0  0
  -19.1210  -28.8030   23.3350 C   0  0  0  0  0  0  0  0  0  0  0  0
  -18.9410  -30.0620   23.9480 C   0  0  0  0  0  3  0  0  0  0  0  0
  -17.6500  -30.5880   24.1440 C   0  0  0  0  0  3  0  0  0  0  0  0
  -16.5220  -29.8540   23.7390 C   0  0  0  0  0  3  0  0  0  0  0  0
  -16.6880  -28.5970   23.1300 C   0  0  0  0  0  3  0  0  0  0  0  0
  -25.8690  -32.3840   23.7810 C   0  0  0  0  0  3  0  0  0  0  0  0
  -25.5690  -33.7770   24.1360 N   0  0  0  0  0  0  0  0  0  0  0  0
  -25.9000  -34.8400   23.3920 C   0  0  0  0  0  0  0  0  0  0  0  0
  -26.5620  -34.7520   22.3550 O   0  0  0  0  0  0  0  0  0  0  0  0
  -24.9820  -33.9220   24.9450 H   0  0  0  0  0  0  0  0  0  0  0  0
  -24.1760  -36.6420   23.0750 C   0  0  0  0  0  1  0  0  0  0  0  0
  -25.4200  -36.2220   23.8740 C   0  0  0  0  0  3  0  0  0  0  0  0
  -27.5640  -37.0820   24.7050 C   0  0  0  0  0  1  0  0  0  0  0  0
  -26.4560  -37.2730   23.7730 N   0  0  0  0  0  0  0  0  0  0  0  0
  -26.0560  -38.1920   23.9420 H   0  0  0  0  0  0  0  0  0  0  0  0
  -26.4020  -31.5890   25.0360 C   0  0  1  0  0  0  0  0  0  0  0  0
  -25.3230  -31.3350   26.1140 C   0  0  0  0  0  1  0  0  0  0  0  0
  -26.9750  -30.2180   24.6080 C   0  0  0  0  0  1  0  0  0  0  0  0
  -27.5650  -32.3680   25.6940 C   0  0  0  0  0  1  0  0  0  0  0  0
  1  2  1  0
  1  5  2  0
  3  7  1  0
  3  4  1  0
  3  1  1  0
  4  6  1  1
  4  2  1  0
  8  9  1  0
  9 11  1  0
  9  7  1  0
 10  8  2  0
 12  8  1  0
 12 13  1  0
 13 15  2  0
 13 14  1  0
 16 15  1  0
 17 22  1  0
 18 19  1  0
 18 17  1  0
 20 19  1  0
 20 27  1  0
 20 21  1  0
 22 16  1  0
 22 21  1  0
 23 16  2  0
 24 25  2  0
 25 44  1  0
 26 25  1  0
 26 29  1  0
 27 28  1  0
 27 24  1  0
 28 26  2  0
 29 30  1  0
 30 31  2  0
 32 35  1  0
 32 31  1  0
 33 32  2  0
 34 33  1  0
 34 29  2  0
 35 36  1  0
 36 37  1  0
 37 38  2  0
 39 38  1  0
 39 43  1  0
 40 39  2  0
 41 36  2  0
 41 40  1  0
 42 41  1  0
 44 45  1  0
 45 48  1  0
 45 47  1  0
 46 44  2  0
 49 50  1  0
 49 24  1  0
 51 49  1  0
 52 53  1  0
 52  4  1  0
 54 56  1  0
 54 53  1  0
 55 66  2  0
 56 61  1  0
 57 65  1  0
 57 67  1  0
 58 64  1  0
 58 60  1  0
 59 65  1  0
 60 59  1  0
 61 60  2  0
 62 63  1  0
 62 56  2  0
 63 58  2  0
 64 57  1  0
 65 55  1  0
 67 69  2  0
 68 67  1  0
 70 68  1  0
 71 80  2  0
 71 76  1  0
 72 68  1  0
 72 76  1  0
 73 72  1  0
 74 75  1  0
 74 73  1  0
 75 71  1  0
 76 77  2  0
 77 78  1  0
 79 78  2  0
 80 79  1  0
 81 55  1  0
 81 82  1  0
 81 91  1  0
 82 85  1  0
 83 87  1  0
 83 82  1  0
 84 83  2  0
 87 86  1  0
 89 87  1  0
 89 90  1  0
 89 88  1  0
 91 94  1  1
 91 92  1  0
 93 91  1  0
M  ISO  4  15 100  16 100  53 101  54 101
M  END
>  <TORSDO>  (33) 
F 22

>  <SCORE>  (33) 
-12.971

>  <name>  (33) 
32

>  <ligand_id>  (33) 
32

>  <original_smiles>  (33) 
[H]c1c([H])c([H])c2c(c1[H])C([H])([H])C([H])([H])C([H])([H])C2([H])N([H])C(=O)C1([H])N(C(=O)C([H])(N([H])C(=O)C([H])(N([H])C([H])([H])[H])C([H])([H])[H])C(C([H])([H])[H])(C([H])([H])[H])C([H])([H])[H])C([H])([H])c2c([H])c(OC([H])([H])C([H])([H])[N+]3([H])C([H])([H])C(=O)C3([H])C([H])([H])N([H])C(=O)C([H])([H])C(=NC(=O)N3C([H])([H])C([H])([H])C([H])([H])C([H])(n4nc(-c5c([H])c([H])c(Oc6c([H])c([H])c(F)c([H])c6F)c([H])c5[H])c(C(=O)N([H])[H])c4N([H])[H])C3([H])[H])C([H])([H])[H])c([H])c([H])c2C1([H])[H]

>  <smiles>  (33) 
[H]c1c([H])c([H])c2c(c1[H])C([H])([H])C([H])([H])C([H])([H])C2([H])N([H])C(=O)C1([H])N(C(=O)C([H])(N([H])C(=O)C([H])(N([H])C([H])([H])[H])C([H])([H])[H])C(C([H])([H])[H])(C([H])([H])[H])C([H])([H])[H])C([H])([H])c2c([H])c(OC([H])([H])C([H])([H])[N+]3([H])C([H])([H])C(=O)C3([H])C([H])([H])N([H])C(=O)C([H])([H])C(=NC(=O)N3C([H])([H])C([H])([H])C([H])([H])C([H])(n4nc(-c5c([H])c([H])c(Oc6c([H])c([H])c(F)c([H])c6F)c([H])c5[H])c(C(=O)N([H])[H])c4N([H])[H])C3([H])[H])C([H])([H])[H])c([H])c([H])c2C1([H])[H]

$$$$
33:0:0
     RDKit          3D

 97105  0  0  1  0  0  0  0  0999 V2000
  -26.8540  -23.0660   18.0630 C   0  0  0  0  0  2  0  0  0  0  0  0
  -28.5320  -22.1270   19.3310 C   0  0  0  0  0  2  0  0  0  0  0  0
  -26.3540  -21.6460   18.3950 C   0  0  0  0  0  3  0  0  0  0  0  0
  -27.4150  -21.0470   19.3960 C   0  0  2  0  0  0  0  0  0  0  0  0
  -26.8100  -21.0400   20.8220 C   0  0  0  0  0  1  0  0  0  0  0  0
  -27.7940  -23.3860   19.1270 N   0  0  0  0  0  0  0  0  0  0  0  0
  -27.8600  -19.5620   19.1320 C   0  0  0  0  0  0  0  0  0  0  0  0
  -28.9390  -19.0220   19.7410 N   0  0  0  0  0  0  0  0  0  0  0  0
  -27.1420  -18.8520   18.4230 O   0  0  0  0  0  0  0  0  0  0  0  0
  -29.5220  -19.6150   20.3150 H   0  0  0  0  0  0  0  0  0  0  0  0
  -29.1660  -17.5650   19.7910 C   0  0  0  0  0  2  0  0  0  0  0  0
  -30.5230  -17.0990   20.3900 C   0  0  0  0  0  2  0  0  0  0  0  0
  -31.1830  -14.6530   20.1920 C   0  0  0  0  0  0  0  0  0  0  0  0
  -30.8720  -12.4450   19.1350 C   0  0  0  0  0  2  0  0  0  0  0  0
  -29.9330  -12.6500   17.9260 C   0  0  0  0  0  2  0  0  0  0  0  0
  -28.4510  -12.5620   18.3500 C   0  0  0  0  0  2  0  0  0  0  0  0
  -28.1400  -13.4420   19.5890 C   0  0  0  0  0  3  0  0  0  0  0  0
  -29.1880  -13.2080   20.7040 C   0  0  0  0  0  2  0  0  0  0  0  0
  -30.5240  -13.4640   20.1350 N   0  0  0  0  0  0  0  0  0  0  0  0
  -32.2870  -14.8400   19.6740 O   0  0  0  0  0  0  0  0  0  0  0  0
  -30.4430  -15.6600   20.6920 N   0  0  0  0  0  0  0  0  0  0  0  0
  -29.5990  -15.3600   21.1550 H   0  0  0  0  0  0  0  0  0  0  0  0
  -25.7810  -14.1540   20.3350 C   0  0  0  0  0  0  0  0  0  0  0  0
  -24.6820  -13.4270   20.7110 C   0  0  0  0  0  0  0  0  0  0  0  0
  -25.0780  -12.0560   20.6500 C   0  0  0  0  0  0  0  0  0  0  0  0
  -26.7800  -13.2270   20.0770 N   0  0  0  0  0  0  0  0  0  0  0  0
  -26.3600  -11.9590   20.3210 N   0  0  0  0  0  0  0  0  0  0  0  0
  -24.2930  -10.8270   20.8280 C   0  0  0  0  0  0  0  0  0  0  0  0
  -24.6670   -9.8460   21.7710 C   0  0  0  0  0  3  0  0  0  0  0  0
  -23.8870   -8.6800   21.9370 C   0  0  0  0  0  3  0  0  0  0  0  0
  -22.7210   -8.4900   21.1590 C   0  0  0  0  0  0  0  0  0  0  0  0
  -22.3680   -9.4590   20.2030 C   0  0  0  0  0  3  0  0  0  0  0  0
  -23.1470  -10.6150   20.0340 C   0  0  0  0  0  3  0  0  0  0  0  0
  -21.9160   -7.3790   21.2330 O   0  0  0  0  0  0  0  0  0  0  0  0
  -21.7550   -6.6830   22.4040 C   0  0  0  0  0  0  0  0  0  0  0  0
  -21.2330   -7.2910   23.5670 C   0  0  0  0  0  3  0  0  0  0  0  0
  -21.0200   -6.5220   24.7290 C   0  0  0  0  0  3  0  0  0  0  0  0
  -21.3180   -5.1460   24.7270 C   0  0  0  0  0  0  0  0  0  0  0  0
  -21.8330   -4.5370   23.5680 C   0  0  0  0  0  3  0  0  0  0  0  0
  -22.0490   -5.3050   22.4100 C   0  0  0  0  0  0  0  0  0  0  0  0
  -22.5240   -4.7100   21.2890 F   0  0  0  0  0  0  0  0  0  0  0  0
  -21.1070   -4.4040   25.8390 F   0  0  0  0  0  0  0  0  0  0  0  0
  -23.3120  -13.9640   21.0090 C   0  0  0  0  0  0  0  0  0  0  0  0
  -22.5700  -13.2950   21.8870 N   0  0  0  0  0  0  0  0  0  0  0  0
  -22.9120  -15.0140   20.5070 O   0  0  0  0  0  0  0  0  0  0  0  0
  -22.9070  -12.4460   22.3160 H   0  0  0  0  0  0  0  0  0  0  0  0
  -21.6510  -13.6380   22.1330 H   0  0  0  0  0  0  0  0  0  0  0  0
  -25.9970  -15.5180   20.1730 N   0  0  0  0  0  0  0  0  0  0  0  0
  -25.2300  -16.1780   20.2450 H   0  0  0  0  0  0  0  0  0  0  0  0
  -26.8260  -15.9250   19.7600 H   0  0  0  0  0  0  0  0  0  0  0  0
  -26.1220  -20.9010   17.1410 N   0  0  0  0  0  4  0  0  0  0  0  0
  -26.9260  -20.9430   16.5400 H   0  0  0  0  0  0  0  0  0  0  0  0
  -25.3330  -21.2860   16.6490 H   0  0  0  0  0  0  0  0  0  0  0  0
  -25.9340  -19.9340   17.3620 H   0  0  0  0  0  0  0  0  0  0  0  0
  -28.5690  -24.6000   18.8110 C   0  0  0  0  0  2  0  0  0  0  0  0
  -28.6860  -25.5520   20.0250 C   0  0  0  0  0  2  0  0  0  0  0  0
  -28.6990  -26.9530   19.6720 O   0  0  0  0  0  0  0  0  0  0  0  0
  -24.5610  -31.6690   23.0670 C   0  0  0  0  0  0  0  0  0  0  0  0
  -27.4830  -27.6120   19.7040 C   0  0  0  0  0  0  0  0  0  0  0  0
  -23.4420  -30.3020   21.3350 C   0  0  0  0  0  3  0  0  0  0  0  0
  -24.9910  -28.9590   19.8130 C   0  0  0  0  0  0  0  0  0  0  0  0
  -25.9370  -30.8400   21.1620 C   0  0  0  0  0  2  0  0  0  0  0  0
  -26.1150  -29.5240   20.4280 C   0  0  0  0  0  0  0  0  0  0  0  0
  -27.3650  -28.8600   20.3650 C   0  0  0  0  0  3  0  0  0  0  0  0
  -26.3350  -27.0640   19.0870 C   0  0  0  0  0  3  0  0  0  0  0  0
  -25.0970  -27.7300   19.1380 C   0  0  0  0  0  3  0  0  0  0  0  0
  -23.6900  -29.7190   19.9170 C   0  0  0  0  0  2  0  0  0  0  0  0
  -24.6630  -30.9510   21.9130 N   0  0  0  0  0  0  0  0  0  0  0  0
  -23.4680  -31.8310   23.6280 O   0  0  0  0  0  0  0  0  0  0  0  0
  -22.8640  -29.1850   22.2310 C   0  0  0  0  0  0  0  0  0  0  0  0
  -21.5510  -28.9320   22.1060 N   0  0  0  0  0  0  0  0  0  0  0  0
  -23.5930  -28.5410   22.9900 O   0  0  0  0  0  0  0  0  0  0  0  0
  -21.0100  -29.5100   21.4790 H   0  0  0  0  0  0  0  0  0  0  0  0
  -18.2750  -27.4910   22.5340 C   0  0  0  0  0  0  0  0  0  0  0  0
  -20.8110  -27.8940   22.8230 C   0  0  0  0  0  3  0  0  0  0  0  0
  -20.9980  -26.5100   22.1580 C   0  0  0  0  0  2  0  0  0  0  0  0
  -19.9230  -26.2050   21.1090 C   0  0  0  0  0  2  0  0  0  0  0  0
  -18.5300  -26.2150   21.7490 C   0  0  0  0  0  2  0  0  0  0  0  0
  -19.3470  -28.2870   23.0230 C   0  0  0  0  0  0  0  0  0  0  0  0
  -19.0600  -29.4840   23.7090 C   0  0  0  0  0  3  0  0  0  0  0  0
  -17.7270  -29.8940   23.9090 C   0  0  0  0  0  3  0  0  0  0  0  0
  -16.6690  -29.0990   23.4370 C   0  0  0  0  0  3  0  0  0  0  0  0
  -16.9430  -27.8950   22.7590 C   0  0  0  0  0  3  0  0  0  0  0  0
  -25.8050  -32.3420   23.7300 C   0  0  0  0  0  3  0  0  0  0  0  0
  -25.4200  -33.7080   24.1040 N   0  0  0  0  0  0  0  0  0  0  0  0
  -25.7060  -34.8020   23.3880 C   0  0  0  0  0  0  0  0  0  0  0  0
  -26.3920  -34.7680   22.3620 O   0  0  0  0  0  0  0  0  0  0  0  0
  -24.8000  -33.7970   24.8950 H   0  0  0  0  0  0  0  0  0  0  0  0
  -23.8910  -36.5180   23.0590 C   0  0  0  0  0  1  0  0  0  0  0  0
  -25.1380  -36.1490   23.8770 C   0  0  0  0  0  3  0  0  0  0  0  0
  -27.2030  -37.1170   24.7790 C   0  0  0  0  0  1  0  0  0  0  0  0
  -26.1170  -37.2570   23.8140 N   0  0  0  0  0  0  0  0  0  0  0  0
  -25.6630  -38.1510   23.9790 H   0  0  0  0  0  0  0  0  0  0  0  0
  -26.3450  -31.5540   24.9850 C   0  0  1  0  0  0  0  0  0  0  0  0
  -25.2520  -31.2300   26.0330 C   0  0  0  0  0  1  0  0  0  0  0  0
  -27.0020  -30.2260   24.5520 C   0  0  0  0  0  1  0  0  0  0  0  0
  -27.4510  -32.3760   25.6820 C   0  0  0  0  0  1  0  0  0  0  0  0
  1  3  1  0
  1  6  1  0
  2  4  1  0
  3 51  1  0
  3  4  1  0
  4  5  1  1
  6  2  1  0
  7  4  1  0
  7  8  1  0
  8 11  1  0
  8 10  1  0
  9  7  2  0
 11 12  1  0
 12 21  1  0
 13 21  1  0
 14 19  1  0
 15 16  1  0
 15 14  1  0
 17 16  1  0
 17 26  1  0
 17 18  1  0
 19 13  1  0
 19 18  1  0
 20 13  2  0
 21 22  1  0
 23 24  2  0
 24 43  1  0
 25 24  1  0
 25 28  1  0
 26 27  1  0
 26 23  1  0
 27 25  2  0
 28 29  1  0
 29 30  2  0
 31 34  1  0
 31 30  1  0
 32 31  2  0
 33 32  1  0
 33 28  2  0
 34 35  1  0
 35 40  2  0
 35 36  1  0
 36 37  2  0
 38 37  1  0
 38 42  1  0
 39 38  2  0
 40 39  1  0
 41 40  1  0
 43 44  1  0
 44 47  1  0
 44 46  1  0
 45 43  2  0
 48 49  1  0
 48 23  1  0
 50 48  1  0
 51 54  1  0
 52 51  1  0
 53 51  1  0
 55  6  1  0
 55 56  1  0
 57 59  1  0
 57 56  1  0
 58 69  2  0
 59 64  1  0
 60 68  1  0
 60 70  1  0
 61 67  1  0
 61 63  1  0
 62 68  1  0
 63 62  1  0
 64 63  2  0
 65 66  1  0
 65 59  2  0
 66 61  2  0
 67 60  1  0
 68 58  1  0
 70 72  2  0
 71 70  1  0
 73 71  1  0
 74 83  2  0
 74 79  1  0
 75 71  1  0
 75 79  1  0
 76 75  1  0
 77 78  1  0
 77 76  1  0
 78 74  1  0
 79 80  2  0
 80 81  1  0
 82 81  2  0
 83 82  1  0
 84 58  1  0
 84 85  1  0
 84 94  1  0
 85 88  1  0
 86 90  1  0
 86 85  1  0
 87 86  2  0
 90 89  1  0
 92 90  1  0
 92 93  1  0
 92 91  1  0
 94 97  1  1
 94 95  1  0
 96 94  1  0
M  ISO  4  13 100  21 100  56 101  57 101
M  END
>  <TORSDO>  (34) 
F 22

>  <SCORE>  (34) 
-10.842

>  <name>  (34) 
33

>  <ligand_id>  (34) 
33

>  <original_smiles>  (34) 
[H]c1c([H])c([H])c2c(c1[H])C([H])([H])C([H])([H])C([H])([H])C2([H])N([H])C(=O)C1([H])N(C(=O)C([H])(N([H])C(=O)C([H])(N([H])C([H])([H])[H])C([H])([H])[H])C(C([H])([H])[H])(C([H])([H])[H])C([H])([H])[H])C([H])([H])c2c([H])c(OC([H])([H])C([H])([H])N3C([H])([H])C(C(=O)N([H])C([H])([H])C([H])([H])N([H])C(=O)N4C([H])([H])C([H])([H])C([H])([H])C([H])(n5nc(-c6c([H])c([H])c(Oc7c([H])c([H])c(F)c([H])c7F)c([H])c6[H])c(C(=O)N([H])[H])c5N([H])[H])C4([H])[H])(C([H])([H])[H])C([H])([N+]([H])([H])[H])C3([H])[H])c([H])c([H])c2C1([H])[H]

>  <smiles>  (34) 
[H]c1c([H])c([H])c2c(c1[H])C([H])([H])C([H])([H])C([H])([H])C2([H])N([H])C(=O)C1([H])N(C(=O)C([H])(N([H])C(=O)C([H])(N([H])C([H])([H])[H])C([H])([H])[H])C(C([H])([H])[H])(C([H])([H])[H])C([H])([H])[H])C([H])([H])c2c([H])c(OC([H])([H])C([H])([H])N3C([H])([H])C(C(=O)N([H])C([H])([H])C([H])([H])N([H])C(=O)N4C([H])([H])C([H])([H])C([H])([H])C([H])(n5nc(-c6c([H])c([H])c(Oc7c([H])c([H])c(F)c([H])c7F)c([H])c6[H])c(C(=O)N([H])[H])c5N([H])[H])C4([H])[H])(C([H])([H])[H])C([H])([N+]([H])([H])[H])C3([H])[H])c([H])c([H])c2C1([H])[H]

$$$$
34:0:0
     RDKit          3D

 92100  0  0  1  0  0  0  0  0999 V2000
  -28.1720  -20.7240   19.3870 C   0  0  0  0  0  0  0  0  0  0  0  0
  -27.5300  -21.9010   19.4710 C   0  0  0  0  0  3  0  0  0  0  0  0
  -27.9310  -19.4290   20.1260 C   0  0  0  0  0  2  0  0  0  0  0  0
  -29.3740  -20.2550   18.5910 C   0  0  0  0  0  2  0  0  0  0  0  0
  -29.1580  -18.9070   19.3390 C   0  0  0  0  0  3  0  0  0  0  0  0
  -30.3330  -18.4050   20.1890 C   0  0  0  0  0  0  0  0  0  0  0  0
  -31.5360  -18.6890   19.9080 N   0  0  0  0  0  0  0  0  0  0  0  0
  -32.1850  -18.2670   20.5630 H   0  0  0  0  0  0  0  0  0  0  0  0
  -29.9720  -17.5330   21.3910 C   0  0  0  0  0  2  0  0  0  0  0  0
  -30.9310  -16.3510   21.6850 C   0  0  0  0  0  2  0  0  0  0  0  0
  -30.8090  -14.2950   20.2820 C   0  0  0  0  0  0  0  0  0  0  0  0
  -30.3580  -12.2570   18.9700 C   0  0  0  0  0  2  0  0  0  0  0  0
  -29.3750  -12.5480   17.8190 C   0  0  0  0  0  2  0  0  0  0  0  0
  -27.9210  -12.4140   18.3110 C   0  0  0  0  0  2  0  0  0  0  0  0
  -27.6600  -13.2280   19.6040 C   0  0  0  0  0  3  0  0  0  0  0  0
  -28.7390  -12.9080   20.6590 C   0  0  0  0  0  2  0  0  0  0  0  0
  -30.0620  -13.1860   20.0670 N   0  0  0  0  0  0  0  0  0  0  0  0
  -31.8260  -14.5730   19.6370 O   0  0  0  0  0  0  0  0  0  0  0  0
  -30.3600  -15.0780   21.2620 N   0  0  0  0  0  0  0  0  0  0  0  0
  -29.5230  -14.7720   21.7380 H   0  0  0  0  0  0  0  0  0  0  0  0
  -25.2950  -13.8930   20.3810 C   0  0  0  0  0  0  0  0  0  0  0  0
  -24.2220  -13.1410   20.7820 C   0  0  0  0  0  0  0  0  0  0  0  0
  -24.6570  -11.7820   20.7420 C   0  0  0  0  0  0  0  0  0  0  0  0
  -26.3140  -12.9900   20.1220 N   0  0  0  0  0  0  0  0  0  0  0  0
  -25.9360  -11.7170   20.3970 N   0  0  0  0  0  0  0  0  0  0  0  0
  -23.9160  -10.5310   20.9540 C   0  0  0  0  0  0  0  0  0  0  0  0
  -24.3600   -9.5560   21.8760 C   0  0  0  0  0  3  0  0  0  0  0  0
  -23.6210   -8.3710   22.0750 C   0  0  0  0  0  3  0  0  0  0  0  0
  -22.4240   -8.1520   21.3540 C   0  0  0  0  0  0  0  0  0  0  0  0
  -21.9980   -9.1140   20.4230 C   0  0  0  0  0  3  0  0  0  0  0  0
  -22.7360  -10.2920   20.2210 C   0  0  0  0  0  3  0  0  0  0  0  0
  -21.6530   -7.0200   21.4650 O   0  0  0  0  0  0  0  0  0  0  0  0
  -21.6260   -6.2790   22.6170 C   0  0  0  0  0  0  0  0  0  0  0  0
  -21.2540   -6.8430   23.8560 C   0  0  0  0  0  3  0  0  0  0  0  0
  -21.1780   -6.0310   25.0050 C   0  0  0  0  0  3  0  0  0  0  0  0
  -21.4550   -4.6540   24.9140 C   0  0  0  0  0  0  0  0  0  0  0  0
  -21.8160   -4.0890   23.6790 C   0  0  0  0  0  3  0  0  0  0  0  0
  -21.8990   -4.8990   22.5330 C   0  0  0  0  0  0  0  0  0  0  0  0
  -22.2300   -4.3460   21.3400 F   0  0  0  0  0  0  0  0  0  0  0  0
  -21.3710   -3.8700   26.0150 F   0  0  0  0  0  0  0  0  0  0  0  0
  -22.8430  -13.6440   21.0970 C   0  0  0  0  0  0  0  0  0  0  0  0
  -22.1300  -12.9580   21.9840 N   0  0  0  0  0  0  0  0  0  0  0  0
  -22.4060  -14.6750   20.5890 O   0  0  0  0  0  0  0  0  0  0  0  0
  -22.4950  -12.1170   22.4080 H   0  0  0  0  0  0  0  0  0  0  0  0
  -21.2100  -13.2810   22.2460 H   0  0  0  0  0  0  0  0  0  0  0  0
  -25.4860  -15.2580   20.1970 N   0  0  0  0  0  0  0  0  0  0  0  0
  -24.7500  -15.9410   20.3400 H   0  0  0  0  0  0  0  0  0  0  0  0
  -26.3460  -15.6710   19.8600 H   0  0  0  0  0  0  0  0  0  0  0  0
  -27.8530  -23.1860   18.7260 C   0  0  0  0  0  2  0  0  0  0  0  0
  -28.2840  -24.2920   19.7110 C   0  0  0  0  0  2  0  0  0  0  0  0
  -28.5320  -25.6840   19.0890 C   0  0  0  0  0  2  0  0  0  0  0  0
  -28.4120  -26.7350   20.0670 O   0  0  0  0  0  0  0  0  0  0  0  0
  -24.5960  -31.8920   23.2500 C   0  0  0  0  0  0  0  0  0  0  0  0
  -27.2150  -27.4270   20.1450 C   0  0  0  0  0  0  0  0  0  0  0  0
  -23.3820  -30.4830   21.6240 C   0  0  0  0  0  3  0  0  0  0  0  0
  -24.8160  -28.9250   20.2190 C   0  0  0  0  0  0  0  0  0  0  0  0
  -25.9130  -30.8260   21.4190 C   0  0  0  0  0  2  0  0  0  0  0  0
  -25.9850  -29.4530   20.7830 C   0  0  0  0  0  0  0  0  0  0  0  0
  -27.1890  -28.7110   20.7430 C   0  0  0  0  0  3  0  0  0  0  0  0
  -26.0070  -26.8990   19.6300 C   0  0  0  0  0  3  0  0  0  0  0  0
  -24.8160  -27.6430   19.6530 C   0  0  0  0  0  3  0  0  0  0  0  0
  -23.5870  -29.7990   20.2500 C   0  0  0  0  0  2  0  0  0  0  0  0
  -24.6480  -31.0860   22.1540 N   0  0  0  0  0  0  0  0  0  0  0  0
  -23.5160  -32.1660   23.7920 O   0  0  0  0  0  0  0  0  0  0  0  0
  -22.7350  -29.4660   22.5900 C   0  0  0  0  0  0  0  0  0  0  0  0
  -21.4090  -29.2840   22.4660 N   0  0  0  0  0  0  0  0  0  0  0  0
  -23.4180  -28.8470   23.4090 O   0  0  0  0  0  0  0  0  0  0  0  0
  -20.9180  -29.8460   21.7850 H   0  0  0  0  0  0  0  0  0  0  0  0
  -18.0370  -28.0870   22.9670 C   0  0  0  0  0  0  0  0  0  0  0  0
  -20.5930  -28.3480   23.2410 C   0  0  0  0  0  3  0  0  0  0  0  0
  -20.6980  -26.9140   22.6720 C   0  0  0  0  0  2  0  0  0  0  0  0
  -19.5970  -26.5820   21.6610 C   0  0  0  0  0  2  0  0  0  0  0  0
  -18.2170  -26.7330   22.3030 C   0  0  0  0  0  2  0  0  0  0  0  0
  -19.1550  -28.8540   23.3930 C   0  0  0  0  0  0  0  0  0  0  0  0
  -18.9310  -30.1220   23.9710 C   0  0  0  0  0  3  0  0  0  0  0  0
  -17.6280  -30.6250   24.1290 C   0  0  0  0  0  3  0  0  0  0  0  0
  -16.5240  -29.8560   23.7170 C   0  0  0  0  0  3  0  0  0  0  0  0
  -16.7320  -28.5890   23.1430 C   0  0  0  0  0  3  0  0  0  0  0  0
  -25.8850  -32.5230   23.8620 C   0  0  0  0  0  3  0  0  0  0  0  0
  -25.5790  -33.9210   24.1910 N   0  0  0  0  0  0  0  0  0  0  0  0
  -25.9080  -34.9710   23.4270 C   0  0  0  0  0  0  0  0  0  0  0  0
  -26.5740  -34.8660   22.3920 O   0  0  0  0  0  0  0  0  0  0  0  0
  -24.9940  -34.0780   24.9980 H   0  0  0  0  0  0  0  0  0  0  0  0
  -24.1760  -36.7620   23.0790 C   0  0  0  0  0  1  0  0  0  0  0  0
  -25.4230  -36.3600   23.8850 C   0  0  0  0  0  3  0  0  0  0  0  0
  -27.5610  -37.2450   24.7070 C   0  0  0  0  0  1  0  0  0  0  0  0
  -26.4550  -37.4120   23.7660 N   0  0  0  0  0  0  0  0  0  0  0  0
  -26.0490  -38.3330   23.9090 H   0  0  0  0  0  0  0  0  0  0  0  0
  -26.4110  -31.7550   25.1360 C   0  0  1  0  0  0  0  0  0  0  0  0
  -25.3290  -31.5180   26.2110 C   0  0  0  0  0  1  0  0  0  0  0  0
  -26.9890  -30.3770   24.7400 C   0  0  0  0  0  1  0  0  0  0  0  0
  -27.5660  -32.5490   25.7890 C   0  0  0  0  0  1  0  0  0  0  0  0
  1  2  2  0
  1  3  1  0
  4  5  1  0
  4  1  1  0
  5  3  1  0
  5  6  1  0
  6  9  1  0
  7  6  2  0
  7  8  1  0
  9 10  1  0
 11 19  1  0
 12 17  1  0
 13 14  1  0
 13 12  1  0
 15 14  1  0
 15 24  1  0
 15 16  1  0
 17 11  1  0
 17 16  1  0
 18 11  2  0
 19 10  1  0
 19 20  1  0
 21 22  2  0
 22 41  1  0
 23 22  1  0
 23 26  1  0
 24 21  1  0
 24 25  1  0
 25 23  2  0
 26 27  1  0
 27 28  2  0
 29 32  1  0
 29 28  1  0
 30 29  2  0
 31 30  1  0
 31 26  2  0
 32 33  1  0
 33 34  1  0
 34 35  2  0
 36 35  1  0
 36 40  1  0
 37 36  2  0
 38 33  2  0
 38 37  1  0
 39 38  1  0
 41 42  1  0
 42 45  1  0
 42 44  1  0
 43 41  2  0
 46 47  1  0
 46 21  1  0
 48 46  1  0
 49  2  1  0
 49 50  1  0
 51 50  1  0
 51 52  1  0
 52 54  1  0
 53 64  2  0
 54 59  1  0
 55 63  1  0
 55 65  1  0
 56 62  1  0
 56 58  1  0
 57 63  1  0
 58 57  1  0
 59 58  2  0
 60 61  1  0
 60 54  2  0
 61 56  2  0
 62 55  1  0
 63 53  1  0
 65 67  2  0
 66 65  1  0
 68 66  1  0
 69 78  2  0
 69 74  1  0
 70 66  1  0
 70 74  1  0
 71 70  1  0
 72 73  1  0
 72 71  1  0
 73 69  1  0
 74 75  2  0
 75 76  1  0
 77 76  2  0
 78 77  1  0
 79 53  1  0
 79 80  1  0
 79 89  1  0
 80 83  1  0
 81 85  1  0
 81 80  1  0
 82 81  2  0
 85 84  1  0
 87 85  1  0
 87 88  1  0
 87 86  1  0
 89 92  1  1
 89 90  1  0
 91 89  1  0
M  ISO  4  11 100  19 100  51 101  52 101
M  END
>  <TORSDO>  (35) 
F 22

>  <SCORE>  (35) 
-13.228

>  <name>  (35) 
34

>  <ligand_id>  (35) 
34

>  <original_smiles>  (35) 
[H]N=C(C([H])([H])C([H])([H])N([H])C(=O)N1C([H])([H])C([H])([H])C([H])([H])C([H])(n2nc(-c3c([H])c([H])c(Oc4c([H])c([H])c(F)c([H])c4F)c([H])c3[H])c(C(=O)N([H])[H])c2N([H])[H])C1([H])[H])C1([H])C([H])([H])C(=C([H])C([H])([H])C([H])([H])C([H])([H])Oc2c([H])c([H])c3c(c2[H])C([H])([H])N(C(=O)C([H])(N([H])C(=O)C([H])(N([H])C([H])([H])[H])C([H])([H])[H])C(C([H])([H])[H])(C([H])([H])[H])C([H])([H])[H])C([H])(C(=O)N([H])C2([H])c4c([H])c([H])c([H])c([H])c4C([H])([H])C([H])([H])C2([H])[H])C3([H])[H])C1([H])[H]

>  <smiles>  (35) 
[H]N=C(C([H])([H])C([H])([H])N([H])C(=O)N1C([H])([H])C([H])([H])C([H])([H])C([H])(n2nc(-c3c([H])c([H])c(Oc4c([H])c([H])c(F)c([H])c4F)c([H])c3[H])c(C(=O)N([H])[H])c2N([H])[H])C1([H])[H])C1([H])C([H])([H])C(=C([H])C([H])([H])C([H])([H])C([H])([H])Oc2c([H])c([H])c3c(c2[H])C([H])([H])N(C(=O)C([H])(N([H])C(=O)C([H])(N([H])C([H])([H])[H])C([H])([H])[H])C(C([H])([H])[H])(C([H])([H])[H])C([H])([H])[H])C([H])(C(=O)N([H])C2([H])c4c([H])c([H])c([H])c([H])c4C([H])([H])C([H])([H])C2([H])[H])C3([H])[H])C1([H])[H]

$$$$
35:0:0
     RDKit          3D

 93101  0  0  1  0  0  0  0  0999 V2000
  -29.0450  -21.0450   21.6210 C   0  0  0  0  0  3  0  0  0  0  0  0
  -28.8150  -22.3070   21.4720 N   0  0  0  0  0  0  0  0  0  0  0  0
  -30.2410  -18.7420   21.5100 C   0  0  0  0  0  0  0  0  0  0  0  0
  -29.9410  -18.2530   20.1770 C   0  0  0  0  0  3  0  0  0  0  0  0
  -30.0920  -20.1550   20.9250 C   0  0  0  0  0  3  0  0  0  0  0  0
  -29.5660  -19.3690   19.7010 N   0  0  0  0  0  2  0  0  0  0  0  0
  -30.5000  -18.1870   22.5840 O   0  0  0  0  0  0  0  0  0  0  0  0
  -28.9740  -16.7610   18.3760 C   0  0  0  0  0  1  0  0  0  0  0  0
  -30.0380  -16.8740   19.4920 C   0  0  0  0  0  3  0  0  0  0  0  0
  -30.8110  -14.5880   20.1320 C   0  0  0  0  0  0  0  0  0  0  0  0
  -30.5510  -12.3710   19.1120 C   0  0  0  0  0  2  0  0  0  0  0  0
  -29.5820  -12.5480   17.9210 C   0  0  0  0  0  2  0  0  0  0  0  0
  -28.1170  -12.4140   18.3830 C   0  0  0  0  0  2  0  0  0  0  0  0
  -27.7970  -13.2630   19.6450 C   0  0  0  0  0  3  0  0  0  0  0  0
  -28.8850  -13.0860   20.7300 C   0  0  0  0  0  2  0  0  0  0  0  0
  -30.1880  -13.3800   20.1190 N   0  0  0  0  0  0  0  0  0  0  0  0
  -31.9580  -14.7480   19.7030 O   0  0  0  0  0  0  0  0  0  0  0  0
  -29.9910  -15.6470   20.3280 N   0  0  0  0  0  0  0  0  0  0  0  0
  -29.0950  -15.4170   20.7290 H   0  0  0  0  0  0  0  0  0  0  0  0
  -25.4310  -13.8770   20.4440 C   0  0  0  0  0  0  0  0  0  0  0  0
  -24.3710  -13.1060   20.8380 C   0  0  0  0  0  0  0  0  0  0  0  0
  -24.8240  -11.7530   20.7800 C   0  0  0  0  0  0  0  0  0  0  0  0
  -26.4610  -12.9920   20.1660 N   0  0  0  0  0  0  0  0  0  0  0  0
  -26.1020  -11.7110   20.4300 N   0  0  0  0  0  0  0  0  0  0  0  0
  -24.1000  -10.4940   20.9850 C   0  0  0  0  0  0  0  0  0  0  0  0
  -24.4890   -9.5750   21.9860 C   0  0  0  0  0  3  0  0  0  0  0  0
  -23.7700   -8.3760   22.1770 C   0  0  0  0  0  3  0  0  0  0  0  0
  -22.6460   -8.0880   21.3650 C   0  0  0  0  0  0  0  0  0  0  0  0
  -22.2780   -8.9940   20.3550 C   0  0  0  0  0  3  0  0  0  0  0  0
  -22.9990  -10.1840   20.1620 C   0  0  0  0  0  3  0  0  0  0  0  0
  -21.8990   -6.9390   21.4600 O   0  0  0  0  0  0  0  0  0  0  0  0
  -21.7000   -6.3090   22.6630 C   0  0  0  0  0  0  0  0  0  0  0  0
  -21.0480   -6.9470   23.7400 C   0  0  0  0  0  3  0  0  0  0  0  0
  -20.7970   -6.2390   24.9330 C   0  0  0  0  0  3  0  0  0  0  0  0
  -21.1880   -4.8920   25.0470 C   0  0  0  0  0  0  0  0  0  0  0  0
  -21.8310   -4.2520   23.9730 C   0  0  0  0  0  3  0  0  0  0  0  0
  -22.0810   -4.9570   22.7830 C   0  0  0  0  0  0  0  0  0  0  0  0
  -22.6830   -4.3290   21.7430 F   0  0  0  0  0  0  0  0  0  0  0  0
  -20.9410   -4.2080   26.1880 F   0  0  0  0  0  0  0  0  0  0  0  0
  -22.9860  -13.5870   21.1580 C   0  0  0  0  0  0  0  0  0  0  0  0
  -22.2810  -12.8880   22.0400 N   0  0  0  0  0  0  0  0  0  0  0  0
  -22.5350  -14.6160   20.6600 O   0  0  0  0  0  0  0  0  0  0  0  0
  -22.6570  -12.0510   22.4620 H   0  0  0  0  0  0  0  0  0  0  0  0
  -21.3470  -13.1930   22.2860 H   0  0  0  0  0  0  0  0  0  0  0  0
  -25.5910  -15.2530   20.2840 N   0  0  0  0  0  0  0  0  0  0  0  0
  -24.8150  -15.8880   20.4330 H   0  0  0  0  0  0  0  0  0  0  0  0
  -26.4190  -15.7190   19.9450 H   0  0  0  0  0  0  0  0  0  0  0  0
  -29.5490  -23.1380   20.5120 C   0  0  0  0  0  2  0  0  0  0  0  0
  -27.2980  -23.5910   19.4280 C   0  0  0  0  0  1  0  0  0  0  0  0
  -29.3650  -24.6850   18.5430 C   0  0  0  0  0  1  0  0  0  0  0  0
  -28.6440  -24.2320   19.8310 C   0  0  2  0  0  0  0  0  0  0  0  0
  -28.4180  -25.4800   20.7630 C   0  0  0  0  0  2  0  0  0  0  0  0
  -28.3630  -26.7690   20.1120 O   0  0  0  0  0  0  0  0  0  0  0  0
  -24.5230  -31.9050   23.2730 C   0  0  0  0  0  0  0  0  0  0  0  0
  -27.1830  -27.4830   20.1810 C   0  0  0  0  0  0  0  0  0  0  0  0
  -23.3250  -30.5150   21.6140 C   0  0  0  0  0  3  0  0  0  0  0  0
  -24.7840  -28.9870   20.1970 C   0  0  0  0  0  0  0  0  0  0  0  0
  -25.8530  -30.8840   21.4300 C   0  0  0  0  0  2  0  0  0  0  0  0
  -25.9440  -29.5190   20.7740 C   0  0  0  0  0  0  0  0  0  0  0  0
  -27.1510  -28.7790   20.7480 C   0  0  0  0  0  3  0  0  0  0  0  0
  -25.9990  -26.9600   19.6250 C   0  0  0  0  0  3  0  0  0  0  0  0
  -24.8030  -27.7020   19.6260 C   0  0  0  0  0  3  0  0  0  0  0  0
  -23.5400  -29.8430   20.2330 C   0  0  0  0  0  2  0  0  0  0  0  0
  -24.5830  -31.1190   22.1610 N   0  0  0  0  0  0  0  0  0  0  0  0
  -23.4400  -32.1690   23.8120 O   0  0  0  0  0  0  0  0  0  0  0  0
  -22.6710  -29.4870   22.5660 C   0  0  0  0  0  0  0  0  0  0  0  0
  -21.3550  -29.2730   22.4070 N   0  0  0  0  0  0  0  0  0  0  0  0
  -23.3490  -28.8870   23.4040 O   0  0  0  0  0  0  0  0  0  0  0  0
  -20.8710  -29.8080   21.6990 H   0  0  0  0  0  0  0  0  0  0  0  0
  -18.0020  -27.9850   22.8150 C   0  0  0  0  0  0  0  0  0  0  0  0
  -20.5410  -28.3220   23.1640 C   0  0  0  0  0  3  0  0  0  0  0  0
  -20.7040  -26.8870   22.6120 C   0  0  0  0  0  2  0  0  0  0  0  0
  -19.6450  -26.5210   21.5690 C   0  0  0  0  0  2  0  0  0  0  0  0
  -18.2390  -26.6330   22.1650 C   0  0  0  0  0  2  0  0  0  0  0  0
  -19.0830  -28.7850   23.2700 C   0  0  0  0  0  0  0  0  0  0  0  0
  -18.8070  -30.0490   23.8370 C   0  0  0  0  0  3  0  0  0  0  0  0
  -17.4840  -30.5120   23.9560 C   0  0  0  0  0  3  0  0  0  0  0  0
  -16.4170  -29.7100   23.5150 C   0  0  0  0  0  3  0  0  0  0  0  0
  -16.6770  -28.4490   22.9490 C   0  0  0  0  0  3  0  0  0  0  0  0
  -25.8070  -32.5320   23.9000 C   0  0  0  0  0  3  0  0  0  0  0  0
  -25.5050  -33.9360   24.2110 N   0  0  0  0  0  0  0  0  0  0  0  0
  -25.8690  -34.9790   23.4500 C   0  0  0  0  0  0  0  0  0  0  0  0
  -26.5610  -34.8560   22.4350 O   0  0  0  0  0  0  0  0  0  0  0  0
  -24.8930  -34.1040   24.9960 H   0  0  0  0  0  0  0  0  0  0  0  0
  -24.1860  -36.7920   23.0160 C   0  0  0  0  0  1  0  0  0  0  0  0
  -25.3860  -36.3740   23.8810 C   0  0  0  0  0  3  0  0  0  0  0  0
  -27.4940  -37.2310   24.8020 C   0  0  0  0  0  1  0  0  0  0  0  0
  -26.4400  -37.4090   23.8070 N   0  0  0  0  0  0  0  0  0  0  0  0
  -26.0430  -38.3380   23.9250 H   0  0  0  0  0  0  0  0  0  0  0  0
  -26.3060  -31.7700   25.1900 C   0  0  1  0  0  0  0  0  0  0  0  0
  -25.1960  -31.5400   26.2400 C   0  0  0  0  0  1  0  0  0  0  0  0
  -26.8960  -30.3890   24.8220 C   0  0  0  0  0  1  0  0  0  0  0  0
  -27.4470  -32.5700   25.8590 C   0  0  0  0  0  1  0  0  0  0  0  0
  2  1  2  0
  3  7  2  0
  4  9  1  0
  4  3  1  0
  5  3  1  0
  5  1  1  0
  6  4  1  0
  6  5  1  0
  9  8  1  0
  9 18  1  0
 10 18  1  0
 11 16  1  0
 12 13  1  0
 12 11  1  0
 14 13  1  0
 14 23  1  0
 14 15  1  0
 16 10  1  0
 16 15  1  0
 17 10  2  0
 18 19  1  0
 20 21  2  0
 21 40  1  0
 22 21  1  0
 22 25  1  0
 23 24  1  0
 23 20  1  0
 24 22  2  0
 25 26  1  0
 26 27  2  0
 28 31  1  0
 28 27  1  0
 29 28  2  0
 30 29  1  0
 30 25  2  0
 31 32  1  0
 32 37  2  0
 32 33  1  0
 33 34  2  0
 34 35  1  0
 35 39  1  0
 36 35  2  0
 37 36  1  0
 38 37  1  0
 40 41  1  0
 41 44  1  0
 41 43  1  0
 42 40  2  0
 45 46  1  0
 45 20  1  0
 47 45  1  0
 48  2  1  0
 51 49  1  6
 50 51  1  0
 51 48  1  0
 51 52  1  0
 53 55  1  0
 53 52  1  0
 54 65  2  0
 55 60  1  0
 56 64  1  0
 56 66  1  0
 57 63  1  0
 57 59  1  0
 58 64  1  0
 59 58  1  0
 60 59  2  0
 61 62  1  0
 61 55  2  0
 62 57  2  0
 63 56  1  0
 64 54  1  0
 66 68  2  0
 67 66  1  0
 69 67  1  0
 70 79  2  0
 70 75  1  0
 71 67  1  0
 71 75  1  0
 72 71  1  0
 73 74  1  0
 73 72  1  0
 74 70  1  0
 75 76  2  0
 76 77  1  0
 78 77  2  0
 79 78  1  0
 80 54  1  0
 80 81  1  0
 80 90  1  0
 81 84  1  0
 82 86  1  0
 82 81  1  0
 83 82  2  0
 86 85  1  0
 88 86  1  0
 88 89  1  0
 88 87  1  0
 90 93  1  1
 90 91  1  0
 92 90  1  0
M  ISO  4  10 100  18 100  52 101  53 101
M  END
>  <TORSDO>  (36) 
F 21

>  <SCORE>  (36) 
-12.727

>  <name>  (36) 
35

>  <ligand_id>  (36) 
35

>  <original_smiles>  (36) 
[H]C(=NC([H])([H])C(C([H])([H])[H])(C([H])([H])[H])C([H])([H])Oc1c([H])c([H])c2c(c1[H])C([H])([H])N(C(=O)C([H])(N([H])C(=O)C([H])(N([H])C([H])([H])[H])C([H])([H])[H])C(C([H])([H])[H])(C([H])([H])[H])C([H])([H])[H])C([H])(C(=O)N([H])C1([H])c3c([H])c([H])c([H])c([H])c3C([H])([H])C([H])([H])C1([H])[H])C2([H])[H])C1([H])N=C(C([H])(N([H])C(=O)N2C([H])([H])C([H])([H])C([H])([H])C([H])(n3nc(-c4c([H])c([H])c(Oc5c([H])c([H])c(F)c([H])c5F)c([H])c4[H])c(C(=O)N([H])[H])c3N([H])[H])C2([H])[H])C([H])([H])[H])C1=O

>  <smiles>  (36) 
[H]C(=NC([H])([H])C(C([H])([H])[H])(C([H])([H])[H])C([H])([H])Oc1c([H])c([H])c2c(c1[H])C([H])([H])N(C(=O)C([H])(N([H])C(=O)C([H])(N([H])C([H])([H])[H])C([H])([H])[H])C(C([H])([H])[H])(C([H])([H])[H])C([H])([H])[H])C([H])(C(=O)N([H])C1([H])c3c([H])c([H])c([H])c([H])c3C([H])([H])C([H])([H])C1([H])[H])C2([H])[H])C1([H])N=C(C([H])(N([H])C(=O)N2C([H])([H])C([H])([H])C([H])([H])C([H])(n3nc(-c4c([H])c([H])c(Oc5c([H])c([H])c(F)c([H])c5F)c([H])c4[H])c(C(=O)N([H])[H])c3N([H])[H])C2([H])[H])C([H])([H])[H])C1=O

$$$$
36:0:0
     RDKit          3D

 97106  0  0  1  0  0  0  0  0999 V2000
  -31.6260  -22.8360   19.9960 C   0  0  0  0  0  2  0  0  0  0  0  0
  -31.5280  -24.3090   19.6050 C   0  0  0  0  0  2  0  0  0  0  0  0
  -29.3420  -23.3140   19.5110 C   0  0  0  0  0  2  0  0  0  0  0  0
  -30.4070  -22.2500   19.2870 C   0  0  0  0  0  3  0  0  0  0  0  0
  -30.0780  -24.5990   19.4510 N   0  0  2  0  0  4  0  0  0  0  0  0
  -29.7610  -25.1200   20.2560 H   0  0  0  0  0  0  0  0  0  0  0  0
  -30.4430  -18.7470   20.8280 C   0  0  0  0  0  3  0  0  0  0  0  0
  -29.0080  -18.7350   18.8620 C   0  0  0  0  0  3  0  0  0  0  0  0
  -30.5790  -20.1410   20.7270 C   0  0  0  0  0  3  0  0  0  0  0  0
  -29.1520  -20.1300   18.7520 C   0  0  0  0  0  3  0  0  0  0  0  0
  -29.7440  -18.0280   19.8380 C   0  0  0  0  0  0  0  0  0  0  0  0
  -30.0090  -20.8250   19.6310 C   0  0  0  0  0  0  0  0  0  0  0  0
  -30.0590  -16.6020   19.6630 C   0  0  0  0  0  0  0  0  0  0  0  0
  -30.0720  -15.7100   20.6890 C   0  0  0  0  0  0  0  0  0  0  0  0
  -30.5370  -16.3060   18.2320 C   0  0  0  0  0  1  0  0  0  0  0  0
  -29.5410  -16.0280   21.8850 F   0  0  0  0  0  0  0  0  0  0  0  0
  -30.7860  -14.4530   20.5210 C   0  0  0  0  0  0  0  0  0  0  0  0
  -30.4130  -12.3140   19.4180 C   0  0  0  0  0  2  0  0  0  0  0  0
  -29.5140  -12.5510   18.1880 C   0  0  0  0  0  2  0  0  0  0  0  0
  -28.0290  -12.4550   18.5800 C   0  0  0  0  0  2  0  0  0  0  0  0
  -27.6750  -13.2950   19.8370 C   0  0  0  0  0  3  0  0  0  0  0  0
  -28.7050  -13.0870   20.9690 C   0  0  0  0  0  2  0  0  0  0  0  0
  -30.0500  -13.3180   20.4290 N   0  0  0  0  0  0  0  0  0  0  0  0
  -31.9840  -14.4840   20.2300 O   0  0  0  0  0  0  0  0  0  0  0  0
  -25.2620  -13.8940   20.4940 C   0  0  0  0  0  0  0  0  0  0  0  0
  -24.1880  -13.1190   20.8420 C   0  0  0  0  0  0  0  0  0  0  0  0
  -24.6560  -11.7700   20.8350 C   0  0  0  0  0  0  0  0  0  0  0  0
  -26.3150  -13.0170   20.2930 N   0  0  0  0  0  0  0  0  0  0  0  0
  -25.9550  -11.7350   20.5600 N   0  0  0  0  0  0  0  0  0  0  0  0
  -23.9320  -10.5040   21.0160 C   0  0  0  0  0  0  0  0  0  0  0  0
  -24.3430   -9.5470   21.9690 C   0  0  0  0  0  3  0  0  0  0  0  0
  -23.6180   -8.3470   22.1370 C   0  0  0  0  0  3  0  0  0  0  0  0
  -22.4690   -8.0960   21.3500 C   0  0  0  0  0  0  0  0  0  0  0  0
  -22.0780   -9.0420   20.3870 C   0  0  0  0  0  3  0  0  0  0  0  0
  -22.8030  -10.2330   20.2160 C   0  0  0  0  0  3  0  0  0  0  0  0
  -21.7180   -6.9480   21.4270 O   0  0  0  0  0  0  0  0  0  0  0  0
  -21.6320   -6.2200   22.5870 C   0  0  0  0  0  0  0  0  0  0  0  0
  -21.1410   -6.7840   23.7850 C   0  0  0  0  0  3  0  0  0  0  0  0
  -21.0030   -5.9810   24.9350 C   0  0  0  0  0  3  0  0  0  0  0  0
  -21.3450   -4.6170   24.8870 C   0  0  0  0  0  0  0  0  0  0  0  0
  -21.8280   -4.0520   23.6940 C   0  0  0  0  0  3  0  0  0  0  0  0
  -21.9680   -4.8510   22.5460 C   0  0  0  0  0  0  0  0  0  0  0  0
  -22.4140   -4.2990   21.3930 F   0  0  0  0  0  0  0  0  0  0  0  0
  -21.2050   -3.8440   25.9910 F   0  0  0  0  0  0  0  0  0  0  0  0
  -22.7820  -13.5920   21.0750 C   0  0  0  0  0  0  0  0  0  0  0  0
  -22.0350  -12.8950   21.9240 N   0  0  0  0  0  0  0  0  0  0  0  0
  -22.3540  -14.6130   20.5390 O   0  0  0  0  0  0  0  0  0  0  0  0
  -22.3940  -12.0700   22.3820 H   0  0  0  0  0  0  0  0  0  0  0  0
  -21.0900  -13.1940   22.1210 H   0  0  0  0  0  0  0  0  0  0  0  0
  -25.4270  -15.2640   20.3120 N   0  0  0  0  0  0  0  0  0  0  0  0
  -24.6610  -15.9220   20.4120 H   0  0  0  0  0  0  0  0  0  0  0  0
  -26.2970  -15.7070   20.0420 H   0  0  0  0  0  0  0  0  0  0  0  0
  -29.7510  -25.4380   18.2750 C   0  0  0  0  0  2  0  0  0  0  0  0
  -30.1840  -26.9040   18.4760 C   0  0  0  0  0  2  0  0  0  0  0  0
  -30.5800  -27.6890   20.9080 C   0  0  0  0  0  1  0  0  0  0  0  0
  -29.5960  -27.5860   19.7330 C   0  0  0  0  0  3  0  0  0  0  0  0
  -28.4430  -26.8490   20.1570 O   0  0  0  0  0  0  0  0  0  0  0  0
  -24.5370  -31.9230   23.2610 C   0  0  0  0  0  0  0  0  0  0  0  0
  -27.2650  -27.5470   20.2220 C   0  0  0  0  0  0  0  0  0  0  0  0
  -23.3510  -30.4960   21.6200 C   0  0  0  0  0  3  0  0  0  0  0  0
  -24.8300  -28.9620   20.2230 C   0  0  0  0  0  0  0  0  0  0  0  0
  -25.8640  -30.8990   21.4270 C   0  0  0  0  0  2  0  0  0  0  0  0
  -25.9690  -29.5250   20.8100 C   0  0  0  0  0  0  0  0  0  0  0  0
  -27.1850  -28.8210   20.8200 C   0  0  0  0  0  3  0  0  0  0  0  0
  -26.1080  -26.9690   19.6630 C   0  0  0  0  0  3  0  0  0  0  0  0
  -24.8890  -27.6760   19.6540 C   0  0  0  0  0  3  0  0  0  0  0  0
  -23.5740  -29.8010   20.2480 C   0  0  0  0  0  2  0  0  0  0  0  0
  -24.6010  -31.1200   22.1610 N   0  0  0  0  0  0  0  0  0  0  0  0
  -23.4510  -32.1880   23.7950 O   0  0  0  0  0  0  0  0  0  0  0  0
  -22.7090  -29.4760   22.5840 C   0  0  0  0  0  0  0  0  0  0  0  0
  -21.3880  -29.2830   22.4520 N   0  0  0  0  0  0  0  0  0  0  0  0
  -23.3950  -28.8610   23.4050 O   0  0  0  0  0  0  0  0  0  0  0  0
  -20.8960  -29.8330   21.7600 H   0  0  0  0  0  0  0  0  0  0  0  0
  -18.0160  -28.0930   22.9510 C   0  0  0  0  0  0  0  0  0  0  0  0
  -20.5730  -28.3450   23.2220 C   0  0  0  0  0  3  0  0  0  0  0  0
  -20.6730  -26.9160   22.6430 C   0  0  0  0  0  2  0  0  0  0  0  0
  -19.5700  -26.5970   21.6300 C   0  0  0  0  0  2  0  0  0  0  0  0
  -18.1900  -26.7440   22.2760 C   0  0  0  0  0  2  0  0  0  0  0  0
  -19.1370  -28.8530   23.3810 C   0  0  0  0  0  0  0  0  0  0  0  0
  -18.9210  -30.1170   23.9720 C   0  0  0  0  0  3  0  0  0  0  0  0
  -17.6180  -30.6220   24.1370 C   0  0  0  0  0  3  0  0  0  0  0  0
  -16.5110  -29.8590   23.7240 C   0  0  0  0  0  3  0  0  0  0  0  0
  -16.7120  -28.5980   23.1370 C   0  0  0  0  0  3  0  0  0  0  0  0
  -25.8170  -32.5670   23.8830 C   0  0  0  0  0  3  0  0  0  0  0  0
  -25.5000  -33.9660   24.1960 N   0  0  0  0  0  0  0  0  0  0  0  0
  -25.8480  -35.0110   23.4340 C   0  0  0  0  0  0  0  0  0  0  0  0
  -26.5420  -34.9000   22.4190 O   0  0  0  0  0  0  0  0  0  0  0  0
  -24.8850  -34.1260   24.9800 H   0  0  0  0  0  0  0  0  0  0  0  0
  -24.1380  -36.8050   23.0060 C   0  0  0  0  0  1  0  0  0  0  0  0
  -25.3460  -36.4020   23.8670 C   0  0  0  0  0  3  0  0  0  0  0  0
  -27.4490  -37.2850   24.7760 C   0  0  0  0  0  1  0  0  0  0  0  0
  -26.3850  -37.4530   23.7900 N   0  0  0  0  0  0  0  0  0  0  0  0
  -25.9750  -38.3750   23.9160 H   0  0  0  0  0  0  0  0  0  0  0  0
  -26.3350  -31.8090   25.1670 C   0  0  1  0  0  0  0  0  0  0  0  0
  -25.2400  -31.5700   26.2310 C   0  0  0  0  0  1  0  0  0  0  0  0
  -26.9310  -30.4350   24.7830 C   0  0  0  0  0  1  0  0  0  0  0  0
  -27.4770  -32.6170   25.8280 C   0  0  0  0  0  1  0  0  0  0  0  0
  2  1  1  0
  4  3  1  0
  4 12  1  0
  4  1  1  0
  5  3  1  0
  5  2  1  0
  5  6  1  1
  8 11  1  0
  9  7  1  0
 10  8  2  0
 10 12  1  0
 11  7  2  0
 12  9  2  0
 13 11  1  0
 13 14  2  0
 14 16  1  0
 15 13  1  0
 17 14  1  0
 18 23  1  0
 19 20  1  0
 19 18  1  0
 21 20  1  0
 21 28  1  0
 21 22  1  0
 23 17  1  0
 23 22  1  0
 24 17  2  0
 25 26  2  0
 26 45  1  0
 27 26  1  0
 27 30  1  0
 28 25  1  0
 28 29  1  0
 29 27  2  0
 30 31  1  0
 31 32  2  0
 33 36  1  0
 33 32  1  0
 34 33  2  0
 35 34  1  0
 35 30  2  0
 36 37  1  0
 37 38  1  0
 38 39  2  0
 40 39  1  0
 40 44  1  0
 41 40  2  0
 42 37  2  0
 42 41  1  0
 43 42  1  0
 45 46  1  0
 46 49  1  0
 46 48  1  0
 47 45  2  0
 50 51  1  0
 50 25  1  0
 52 50  1  0
 53 54  1  0
 53  5  1  0
 54 56  1  0
 56 57  1  0
 56 55  1  0
 57 59  1  0
 58 69  2  0
 59 64  1  0
 60 68  1  0
 60 70  1  0
 61 67  1  0
 61 63  1  0
 62 68  1  0
 63 64  2  0
 63 62  1  0
 65 59  2  0
 66 65  1  0
 66 61  2  0
 67 60  1  0
 68 58  1  0
 70 72  2  0
 71 70  1  0
 73 71  1  0
 74 83  2  0
 74 79  1  0
 75 71  1  0
 75 79  1  0
 76 75  1  0
 77 78  1  0
 77 76  1  0
 78 74  1  0
 79 80  2  0
 80 81  1  0
 82 81  2  0
 83 82  1  0
 84 58  1  0
 84 85  1  0
 84 94  1  0
 85 88  1  0
 86 90  1  0
 86 85  1  0
 87 86  2  0
 90 89  1  0
 92 90  1  0
 92 93  1  0
 92 91  1  0
 94 97  1  1
 94 95  1  0
 96 94  1  0
M  ISO  4  14 100  17 100  56 101  57 101
M  END
>  <TORSDO>  (37) 
F 21

>  <SCORE>  (37) 
-13.494

>  <name>  (37) 
36

>  <ligand_id>  (37) 
36

>  <original_smiles>  (37) 
[H]c1c([H])c([H])c2c(c1[H])C([H])([H])C([H])([H])C([H])([H])C2([H])N([H])C(=O)C1([H])N(C(=O)C([H])(N([H])C(=O)C([H])(N([H])C([H])([H])[H])C([H])([H])[H])C(C([H])([H])[H])(C([H])([H])[H])C([H])([H])[H])C([H])([H])c2c([H])c(OC([H])(C([H])([H])[H])C([H])([H])C([H])([H])[N+]3([H])C([H])([H])C([H])([H])C([H])(c4c([H])c([H])c(C(=C(F)C(=O)N5C([H])([H])C([H])([H])C([H])([H])C([H])(n6nc(-c7c([H])c([H])c(Oc8c([H])c([H])c(F)c([H])c8F)c([H])c7[H])c(C(=O)N([H])[H])c6N([H])[H])C5([H])[H])C([H])([H])[H])c([H])c4[H])C3([H])[H])c([H])c([H])c2C1([H])[H]

>  <smiles>  (37) 
[H]c1c([H])c([H])c2c(c1[H])C([H])([H])C([H])([H])C([H])([H])C2([H])N([H])C(=O)C1([H])N(C(=O)C([H])(N([H])C(=O)C([H])(N([H])C([H])([H])[H])C([H])([H])[H])C(C([H])([H])[H])(C([H])([H])[H])C([H])([H])[H])C([H])([H])c2c([H])c(OC([H])(C([H])([H])[H])C([H])([H])C([H])([H])[N+]3([H])C([H])([H])C([H])([H])C([H])(c4c([H])c([H])c(C(=C(F)C(=O)N5C([H])([H])C([H])([H])C([H])([H])C([H])(n6nc(-c7c([H])c([H])c(Oc8c([H])c([H])c(F)c([H])c8F)c([H])c7[H])c(C(=O)N([H])[H])c6N([H])[H])C5([H])[H])C([H])([H])[H])c([H])c4[H])C3([H])[H])c([H])c([H])c2C1([H])[H]

$$$$
37:0:0
     RDKit          3D

 92100  0  0  1  0  0  0  0  0999 V2000
  -30.5460  -21.2420   19.5920 C   0  0  0  0  0  1  0  0  0  0  0  0
  -29.4830  -21.1020   20.6060 N   0  0  1  0  0  4  0  0  0  0  0  0
  -28.6680  -20.8420   20.0700 H   0  0  0  0  0  0  0  0  0  0  0  0
  -29.6890  -19.9100   21.5750 C   0  0  0  0  0  2  0  0  0  0  0  0
  -30.7490  -14.9910   20.4830 C   0  0  0  0  0  0  0  0  0  0  0  0
  -30.6490  -12.6430   19.5960 C   0  0  0  0  0  2  0  0  0  0  0  0
  -29.7390  -12.5150   18.3500 C   0  0  0  0  0  2  0  0  0  0  0  0
  -28.2380  -12.4500   18.7200 C   0  0  0  0  0  2  0  0  0  0  0  0
  -27.8150  -13.3780   19.8930 C   0  0  0  0  0  3  0  0  0  0  0  0
  -28.8520  -13.3780   21.0350 C   0  0  0  0  0  2  0  0  0  0  0  0
  -30.1450  -13.7470   20.4410 N   0  0  0  0  0  0  0  0  0  0  0  0
  -31.9780  -15.0570   20.4040 O   0  0  0  0  0  0  0  0  0  0  0  0
  -29.6450  -17.4510   20.5350 C   0  0  0  0  0  0  0  0  0  0  0  0
  -30.3210  -18.4710   21.1900 C   0  0  0  0  0  0  0  0  0  0  0  0
  -28.3250  -17.7670   19.8580 C   0  0  0  0  0  2  0  0  0  0  0  0
  -28.3390  -16.9770   18.5590 C   0  0  0  0  0  2  0  0  0  0  0  0
  -29.5900  -16.1090   18.6630 C   0  0  0  0  0  2  0  0  0  0  0  0
  -29.9570  -16.0840   20.0800 N   0  0  0  0  0  0  0  0  0  0  0  0
  -25.4120  -13.9770   20.5610 C   0  0  0  0  0  0  0  0  0  0  0  0
  -24.3330  -13.2040   20.8950 C   0  0  0  0  0  0  0  0  0  0  0  0
  -24.8010  -11.8550   20.8920 C   0  0  0  0  0  0  0  0  0  0  0  0
  -26.4610  -13.0950   20.3600 N   0  0  0  0  0  0  0  0  0  0  0  0
  -26.1000  -11.8160   20.6290 N   0  0  0  0  0  0  0  0  0  0  0  0
  -24.0760  -10.5910   21.0700 C   0  0  0  0  0  0  0  0  0  0  0  0
  -24.4780   -9.6410   22.0350 C   0  0  0  0  0  3  0  0  0  0  0  0
  -23.7530   -8.4420   22.2010 C   0  0  0  0  0  3  0  0  0  0  0  0
  -22.6150   -8.1860   21.4010 C   0  0  0  0  0  0  0  0  0  0  0  0
  -22.2350   -9.1230   20.4260 C   0  0  0  0  0  3  0  0  0  0  0  0
  -22.9590  -10.3150   20.2570 C   0  0  0  0  0  3  0  0  0  0  0  0
  -21.8680   -7.0350   21.4720 O   0  0  0  0  0  0  0  0  0  0  0  0
  -21.7750   -6.3090   22.6310 C   0  0  0  0  0  0  0  0  0  0  0  0
  -21.2780   -6.8750   23.8260 C   0  0  0  0  0  3  0  0  0  0  0  0
  -21.1340   -6.0760   24.9770 C   0  0  0  0  0  3  0  0  0  0  0  0
  -21.4770   -4.7120   24.9360 C   0  0  0  0  0  0  0  0  0  0  0  0
  -21.9680   -4.1450   23.7470 C   0  0  0  0  0  3  0  0  0  0  0  0
  -22.1140   -4.9410   22.5970 C   0  0  0  0  0  0  0  0  0  0  0  0
  -22.5710   -4.3870   21.4490 F   0  0  0  0  0  0  0  0  0  0  0  0
  -21.3310   -3.9410   26.0390 F   0  0  0  0  0  0  0  0  0  0  0  0
  -22.9270  -13.6790   21.1120 C   0  0  0  0  0  0  0  0  0  0  0  0
  -22.1690  -12.9840   21.9550 N   0  0  0  0  0  0  0  0  0  0  0  0
  -22.5050  -14.6990   20.5710 O   0  0  0  0  0  0  0  0  0  0  0  0
  -22.5240  -12.1600   22.4160 H   0  0  0  0  0  0  0  0  0  0  0  0
  -21.2240  -13.2860   22.1450 H   0  0  0  0  0  0  0  0  0  0  0  0
  -25.5820  -15.3450   20.3870 N   0  0  0  0  0  0  0  0  0  0  0  0
  -24.8330  -16.0160   20.5060 H   0  0  0  0  0  0  0  0  0  0  0  0
  -26.4640  -15.7680   20.1310 H   0  0  0  0  0  0  0  0  0  0  0  0
  -32.8010  -19.0980   21.0560 C   0  0  0  0  0  1  0  0  0  0  0  0
  -31.7240  -18.2550   21.7490 C   0  0  0  0  0  2  0  0  0  0  0  0
  -29.0950  -22.4630   21.2400 C   0  0  0  0  0  2  0  0  0  0  0  0
  -28.9920  -23.8150   20.3300 C   0  0  0  0  0  3  0  0  0  0  0  0
  -28.2540  -25.1380   20.9060 C   0  0  0  0  0  3  0  0  0  0  0  0
  -28.4170  -26.5040   20.2980 O   0  0  0  0  0  0  0  0  0  0  0  0
  -24.6140  -31.9380   23.2490 C   0  0  0  0  0  0  0  0  0  0  0  0
  -27.3020  -27.3670   20.2590 C   0  0  0  0  0  0  0  0  0  0  0  0
  -23.4420  -30.5200   21.6020 C   0  0  0  0  0  3  0  0  0  0  0  0
  -24.9250  -28.9750   20.1970 C   0  0  0  0  0  0  0  0  0  0  0  0
  -25.9780  -30.8630   21.4390 C   0  0  0  0  0  2  0  0  0  0  0  0
  -26.0840  -29.4770   20.8030 C   0  0  0  0  0  0  0  0  0  0  0  0
  -27.2770  -28.6860   20.8210 C   0  0  0  0  0  3  0  0  0  0  0  0
  -26.1230  -26.9270   19.6200 C   0  0  0  0  0  3  0  0  0  0  0  0
  -24.9470  -27.7070   19.5920 C   0  0  0  0  0  3  0  0  0  0  0  0
  -23.6790  -29.8420   20.2260 C   0  0  0  0  0  2  0  0  0  0  0  0
  -24.6960  -31.1260   22.1530 N   0  0  0  0  0  0  0  0  0  0  0  0
  -23.5240  -32.2070   23.7750 O   0  0  0  0  0  0  0  0  0  0  0  0
  -22.7810  -29.5020   22.5630 C   0  0  0  0  0  0  0  0  0  0  0  0
  -21.4580  -29.3060   22.4220 N   0  0  0  0  0  0  0  0  0  0  0  0
  -23.4590  -28.8920   23.3940 O   0  0  0  0  0  0  0  0  0  0  0  0
  -20.9720  -29.8510   21.7250 H   0  0  0  0  0  0  0  0  0  0  0  0
  -18.0950  -28.0470   22.8790 C   0  0  0  0  0  0  0  0  0  0  0  0
  -20.6430  -28.3600   23.1880 C   0  0  0  0  0  3  0  0  0  0  0  0
  -20.7810  -26.9240   22.6300 C   0  0  0  0  0  2  0  0  0  0  0  0
  -19.7040  -26.5690   21.6010 C   0  0  0  0  0  2  0  0  0  0  0  0
  -18.3080  -26.6950   22.2190 C   0  0  0  0  0  2  0  0  0  0  0  0
  -19.1920  -28.8360   23.3200 C   0  0  0  0  0  0  0  0  0  0  0  0
  -18.9380  -30.0990   23.8950 C   0  0  0  0  0  3  0  0  0  0  0  0
  -17.6200  -30.5760   24.0350 C   0  0  0  0  0  3  0  0  0  0  0  0
  -16.5380  -29.7860   23.6100 C   0  0  0  0  0  3  0  0  0  0  0  0
  -16.7760  -28.5230   23.0380 C   0  0  0  0  0  3  0  0  0  0  0  0
  -25.8840  -32.5880   23.8790 C   0  0  0  0  0  3  0  0  0  0  0  0
  -25.5560  -33.9850   24.1930 N   0  0  0  0  0  0  0  0  0  0  0  0
  -25.8890  -35.0360   23.4320 C   0  0  0  0  0  0  0  0  0  0  0  0
  -26.5710  -34.9300   22.4090 O   0  0  0  0  0  0  0  0  0  0  0  0
  -24.9500  -34.1390   24.9870 H   0  0  0  0  0  0  0  0  0  0  0  0
  -24.1560  -36.8200   23.0440 C   0  0  0  0  0  1  0  0  0  0  0  0
  -25.3860  -36.4240   23.8750 C   0  0  0  0  0  3  0  0  0  0  0  0
  -27.5010  -37.3320   24.7330 C   0  0  0  0  0  1  0  0  0  0  0  0
  -26.4130  -37.4830   23.7710 N   0  0  0  0  0  0  0  0  0  0  0  0
  -25.9990  -38.4010   23.9040 H   0  0  0  0  0  0  0  0  0  0  0  0
  -26.3930  -31.8330   25.1700 C   0  0  1  0  0  0  0  0  0  0  0  0
  -25.2900  -31.5920   26.2290 C   0  0  0  0  0  1  0  0  0  0  0  0
  -26.9910  -30.4560   24.7970 C   0  0  0  0  0  1  0  0  0  0  0  0
  -27.5290  -32.6420   25.8350 C   0  0  0  0  0  1  0  0  0  0  0  0
  1  2  1  0
  2 49  1  0
  2  4  1  0
  2  3  1  6
  6 11  1  0
  7  8  1  0
  7  6  1  0
  9  8  1  0
  9 22  1  0
  9 10  1  0
 11  5  1  0
 11 10  1  0
 12  5  2  0
 13 14  2  0
 14  4  1  0
 14 48  1  0
 15 13  1  0
 16 17  1  0
 16 15  1  0
 17 18  1  0
 18  5  1  0
 18 13  1  0
 19 20  2  0
 20 39  1  0
 21 20  1  0
 21 24  1  0
 22 19  1  0
 22 23  1  0
 23 21  2  0
 24 25  1  0
 25 26  2  0
 27 30  1  0
 27 26  1  0
 28 27  2  0
 29 28  1  0
 29 24  2  0
 30 31  1  0
 31 32  1  0
 32 33  2  0
 34 33  1  0
 34 38  1  0
 35 34  2  0
 36 31  2  0
 36 35  1  0
 37 36  1  0
 39 40  1  0
 40 43  1  0
 40 42  1  0
 41 39  2  0
 44 45  1  0
 44 19  1  0
 46 44  1  0
 47 48  1  0
 50 51  2  0
 50 49  1  0
 52 51  1  0
 53 64  2  0
 54 52  1  0
 54 59  1  0
 55 63  1  0
 55 65  1  0
 56 62  1  0
 56 58  1  0
 57 63  1  0
 58 59  2  0
 58 57  1  0
 60 54  2  0
 61 60  1  0
 61 56  2  0
 62 55  1  0
 63 53  1  0
 65 67  2  0
 66 65  1  0
 68 66  1  0
 69 78  2  0
 69 74  1  0
 70 66  1  0
 70 74  1  0
 71 70  1  0
 72 73  1  0
 72 71  1  0
 73 69  1  0
 74 75  2  0
 75 76  1  0
 77 76  2  0
 78 77  1  0
 79 53  1  0
 79 80  1  0
 79 89  1  0
 80 83  1  0
 81 85  1  0
 81 80  1  0
 82 81  2  0
 85 84  1  0
 87 85  1  0
 87 88  1  0
 87 86  1  0
 89 92  1  1
 89 90  1  0
 91 89  1  0
M  ISO  4   5 100  18 100  51 101  52 101
M  END
>  <TORSDO>  (38) 
F 21

>  <SCORE>  (38) 
-13.096

>  <name>  (38) 
37

>  <ligand_id>  (38) 
37

>  <original_smiles>  (38) 
[H]c1c([H])c([H])c2c(c1[H])C([H])([H])C([H])([H])C([H])([H])C2([H])N([H])C(=O)C1([H])N(C(=O)C([H])(N([H])C(=O)C([H])(N([H])C([H])([H])[H])C([H])([H])[H])C(C([H])([H])[H])(C([H])([H])[H])C([H])([H])[H])C([H])([H])c2c([H])c(OC([H])([H])C([H])([H])C([H])([H])[N+]([H])(C([H])([H])[H])C([H])([H])C(=C3N(C(=O)N4C([H])([H])C([H])([H])C([H])([H])C([H])(n5nc(-c6c([H])c([H])c(Oc7c([H])c([H])c(F)c([H])c7F)c([H])c6[H])c(C(=O)N([H])[H])c5N([H])[H])C4([H])[H])C([H])([H])C([H])([H])C3([H])[H])C([H])([H])C([H])([H])[H])c([H])c([H])c2C1([H])[H]

>  <smiles>  (38) 
[H]c1c([H])c([H])c2c(c1[H])C([H])([H])C([H])([H])C([H])([H])C2([H])N([H])C(=O)C1([H])N(C(=O)C([H])(N([H])C(=O)C([H])(N([H])C([H])([H])[H])C([H])([H])[H])C(C([H])([H])[H])(C([H])([H])[H])C([H])([H])[H])C([H])([H])c2c([H])c(OC([H])([H])C([H])([H])C([H])([H])[N+]([H])(C([H])([H])[H])C([H])([H])C(=C3N(C(=O)N4C([H])([H])C([H])([H])C([H])([H])C([H])(n5nc(-c6c([H])c([H])c(Oc7c([H])c([H])c(F)c([H])c7F)c([H])c6[H])c(C(=O)N([H])[H])c5N([H])[H])C4([H])[H])C([H])([H])C([H])([H])C3([H])[H])C([H])([H])C([H])([H])[H])c([H])c([H])c2C1([H])[H]

$$$$
38:0:0
     RDKit          3D

 93102  0  0  1  0  0  0  0  0999 V2000
  -32.2910  -23.0620   19.2700 C   0  0  0  0  0  2  0  0  0  0  0  0
  -32.1420  -24.5910   19.3160 C   0  0  0  0  0  2  0  0  0  0  0  0
  -30.0170  -23.5830   19.7160 C   0  0  0  0  0  2  0  0  0  0  0  0
  -31.0960  -22.5510   20.0680 C   0  0  0  0  0  3  0  0  0  0  0  0
  -30.7150  -24.8810   19.5840 N   0  0  2  0  0  4  0  0  0  0  0  0
  -30.6750  -25.3180   20.4950 H   0  0  0  0  0  0  0  0  0  0  0  0
  -30.6520  -21.1360   19.7160 C   0  0  0  0  0  3  0  0  0  0  0  0
  -30.6780  -20.0200   20.4780 C   0  0  0  0  0  0  0  0  0  0  0  0
  -31.2990  -20.0220   21.8670 C   0  0  0  0  0  1  0  0  0  0  0  0
  -30.6460  -14.4720   20.4860 C   0  0  0  0  0  0  0  0  0  0  0  0
  -30.3410  -12.3120   19.3510 C   0  0  0  0  0  2  0  0  0  0  0  0
  -29.3990  -12.5290   18.1500 C   0  0  0  0  0  2  0  0  0  0  0  0
  -27.9280  -12.3830   18.5750 C   0  0  0  0  0  2  0  0  0  0  0  0
  -27.5940  -13.2180   19.8380 C   0  0  0  0  0  3  0  0  0  0  0  0
  -28.6490  -13.0130   20.9470 C   0  0  0  0  0  2  0  0  0  0  0  0
  -29.9710  -13.2980   20.3740 N   0  0  0  0  0  0  0  0  0  0  0  0
  -31.8160  -14.6120   20.1240 O   0  0  0  0  0  0  0  0  0  0  0  0
  -29.9600  -17.5560   20.3300 C   0  0  0  0  0  0  0  0  0  0  0  0
  -30.0640  -18.8270   19.9010 C   0  0  0  0  0  3  0  0  0  0  0  0
  -29.2900  -16.3670   19.7370 C   0  0  0  0  0  2  0  0  0  0  0  0
  -30.4440  -16.7480   21.4930 C   0  0  0  0  0  2  0  0  0  0  0  0
  -29.8910  -15.5430   20.8190 N   0  0  0  0  0  0  0  0  0  0  0  0
  -25.2030  -13.8480   20.5230 C   0  0  0  0  0  0  0  0  0  0  0  0
  -24.1280  -13.0830   20.8850 C   0  0  0  0  0  0  0  0  0  0  0  0
  -24.5840  -11.7310   20.8690 C   0  0  0  0  0  0  0  0  0  0  0  0
  -26.2440  -12.9570   20.3140 N   0  0  0  0  0  0  0  0  0  0  0  0
  -25.8760  -11.6810   20.5810 N   0  0  0  0  0  0  0  0  0  0  0  0
  -23.8550  -10.4750   21.0620 C   0  0  0  0  0  0  0  0  0  0  0  0
  -24.2970   -9.5090   21.9920 C   0  0  0  0  0  3  0  0  0  0  0  0
  -23.5740   -8.3120   22.1750 C   0  0  0  0  0  3  0  0  0  0  0  0
  -22.3970   -8.0740   21.4290 C   0  0  0  0  0  0  0  0  0  0  0  0
  -21.9730   -9.0300   20.4880 C   0  0  0  0  0  3  0  0  0  0  0  0
  -22.6960  -10.2200   20.3030 C   0  0  0  0  0  3  0  0  0  0  0  0
  -21.6400   -6.9320   21.5220 O   0  0  0  0  0  0  0  0  0  0  0  0
  -21.6150   -6.1770   22.6650 C   0  0  0  0  0  0  0  0  0  0  0  0
  -21.2420   -6.7240   23.9130 C   0  0  0  0  0  3  0  0  0  0  0  0
  -21.1590   -5.8910   25.0470 C   0  0  0  0  0  3  0  0  0  0  0  0
  -21.4420   -4.5170   24.9360 C   0  0  0  0  0  0  0  0  0  0  0  0
  -21.8100   -3.9730   23.6950 C   0  0  0  0  0  3  0  0  0  0  0  0
  -21.8950   -4.8000   22.5610 C   0  0  0  0  0  0  0  0  0  0  0  0
  -22.2270   -4.2650   21.3620 F   0  0  0  0  0  0  0  0  0  0  0  0
  -21.3550   -3.7170   26.0250 F   0  0  0  0  0  0  0  0  0  0  0  0
  -22.7310  -13.5690   21.1360 C   0  0  0  0  0  0  0  0  0  0  0  0
  -21.9960  -12.8800   22.0010 N   0  0  0  0  0  0  0  0  0  0  0  0
  -22.3020  -14.5880   20.5990 O   0  0  0  0  0  0  0  0  0  0  0  0
  -22.3600  -12.0520   22.4470 H   0  0  0  0  0  0  0  0  0  0  0  0
  -21.0530  -13.1800   22.2090 H   0  0  0  0  0  0  0  0  0  0  0  0
  -25.3730  -15.2160   20.3380 N   0  0  0  0  0  0  0  0  0  0  0  0
  -24.6040  -15.8680   20.4410 H   0  0  0  0  0  0  0  0  0  0  0  0
  -26.2340  -15.6590   20.0450 H   0  0  0  0  0  0  0  0  0  0  0  0
  -30.1220  -25.8340   18.6110 C   0  0  0  0  0  2  0  0  0  0  0  0
  -28.6280  -26.0970   18.8280 C   0  0  0  0  0  2  0  0  0  0  0  0
  -28.4310  -26.8030   20.0510 O   0  0  0  0  0  0  0  0  0  0  0  0
  -24.6180  -31.8980   23.2430 C   0  0  0  0  0  0  0  0  0  0  0  0
  -27.2340  -27.4740   20.1320 C   0  0  0  0  0  0  0  0  0  0  0  0
  -23.3950  -30.4930   21.6150 C   0  0  0  0  0  3  0  0  0  0  0  0
  -24.8320  -28.9540   20.1890 C   0  0  0  0  0  0  0  0  0  0  0  0
  -25.9180  -30.8530   21.3970 C   0  0  0  0  0  2  0  0  0  0  0  0
  -25.9940  -29.4820   20.7650 C   0  0  0  0  0  0  0  0  0  0  0  0
  -27.1950  -28.7420   20.7510 C   0  0  0  0  0  3  0  0  0  0  0  0
  -26.0410  -26.9370   19.5920 C   0  0  0  0  0  3  0  0  0  0  0  0
  -24.8460  -27.6730   19.6150 C   0  0  0  0  0  3  0  0  0  0  0  0
  -23.5860  -29.8070   20.2380 C   0  0  0  0  0  2  0  0  0  0  0  0
  -24.6620  -31.0980   22.1430 N   0  0  0  0  0  0  0  0  0  0  0  0
  -23.5420  -32.1710   23.7950 O   0  0  0  0  0  0  0  0  0  0  0  0
  -22.7580  -29.4710   22.5820 C   0  0  0  0  0  0  0  0  0  0  0  0
  -21.4340  -29.2840   22.4630 N   0  0  0  0  0  0  0  0  0  0  0  0
  -23.4510  -28.8480   23.3910 O   0  0  0  0  0  0  0  0  0  0  0  0
  -20.9350  -29.8420   21.7830 H   0  0  0  0  0  0  0  0  0  0  0  0
  -18.0730  -28.0690   22.9730 C   0  0  0  0  0  0  0  0  0  0  0  0
  -20.6270  -28.3430   23.2400 C   0  0  0  0  0  3  0  0  0  0  0  0
  -20.7390  -26.9080   22.6730 C   0  0  0  0  0  2  0  0  0  0  0  0
  -19.6390  -26.5710   21.6630 C   0  0  0  0  0  2  0  0  0  0  0  0
  -18.2580  -26.7140   22.3070 C   0  0  0  0  0  2  0  0  0  0  0  0
  -19.1880  -28.8410   23.3960 C   0  0  0  0  0  0  0  0  0  0  0  0
  -18.9640  -30.1070   23.9760 C   0  0  0  0  0  3  0  0  0  0  0  0
  -17.6570  -30.6050   24.1380 C   0  0  0  0  0  3  0  0  0  0  0  0
  -16.5570  -29.8300   23.7300 C   0  0  0  0  0  3  0  0  0  0  0  0
  -16.7660  -28.5650   23.1550 C   0  0  0  0  0  3  0  0  0  0  0  0
  -25.9120  -32.5300   23.8470 C   0  0  0  0  0  3  0  0  0  0  0  0
  -26.4540  -31.7580   25.1120 C   0  0  1  0  0  0  0  0  0  0  0  0
  -25.3800  -31.5110   26.1970 C   0  0  0  0  0  1  0  0  0  0  0  0
  -27.0410  -30.3860   24.7080 C   0  0  0  0  0  1  0  0  0  0  0  0
  -27.6040  -32.5620   25.7640 C   0  0  0  0  0  1  0  0  0  0  0  0
  -25.6020  -33.9260   24.1840 N   0  0  0  0  0  0  0  0  0  0  0  0
  -25.9240  -34.9820   23.4250 C   0  0  0  0  0  0  0  0  0  0  0  0
  -26.5840  -34.8840   22.3870 O   0  0  0  0  0  0  0  0  0  0  0  0
  -25.0120  -34.0760   24.9890 H   0  0  0  0  0  0  0  0  0  0  0  0
  -24.1800  -36.7650   23.1030 C   0  0  0  0  0  1  0  0  0  0  0  0
  -25.4350  -36.3650   23.8960 C   0  0  0  0  0  3  0  0  0  0  0  0
  -27.5770  -37.2550   24.6970 C   0  0  0  0  0  1  0  0  0  0  0  0
  -26.4600  -37.4250   23.7720 N   0  0  0  0  0  0  0  0  0  0  0  0
  -26.0510  -38.3410   23.9360 H   0  0  0  0  0  0  0  0  0  0  0  0
  1  2  1  0
  1  4  1  0
  2  5  1  0
  3  4  1  0
  4  7  1  0
  5  3  1  0
  5  6  1  1
  7  8  2  0
  8  9  1  0
 10 22  1  0
 11 16  1  0
 12 13  1  0
 12 11  1  0
 14 13  1  0
 14 26  1  0
 14 15  1  0
 16 10  1  0
 16 15  1  0
 17 10  2  0
 18 21  1  0
 19 18  2  0
 19  8  1  0
 20 18  1  0
 20 22  1  0
 22 21  1  0
 23 24  2  0
 24 43  1  0
 25 24  1  0
 25 28  1  0
 26 23  1  0
 26 27  1  0
 27 25  2  0
 28 29  1  0
 29 30  2  0
 31 34  1  0
 31 30  1  0
 32 31  2  0
 33 32  1  0
 33 28  2  0
 34 35  1  0
 35 36  1  0
 36 37  2  0
 38 37  1  0
 38 42  1  0
 39 38  2  0
 40 35  2  0
 40 39  1  0
 41 40  1  0
 43 44  1  0
 44 47  1  0
 44 46  1  0
 45 43  2  0
 48 49  1  0
 48 23  1  0
 50 48  1  0
 51 52  1  0
 51  5  1  0
 52 53  1  0
 53 55  1  0
 54 65  2  0
 55 60  1  0
 56 64  1  0
 56 66  1  0
 57 63  1  0
 57 59  1  0
 58 64  1  0
 59 58  1  0
 60 59  2  0
 61 62  1  0
 61 55  2  0
 62 57  2  0
 63 56  1  0
 64 54  1  0
 66 68  2  0
 67 66  1  0
 69 67  1  0
 70 79  2  0
 70 75  1  0
 71 67  1  0
 71 75  1  0
 72 71  1  0
 73 74  1  0
 73 72  1  0
 74 70  1  0
 75 76  2  0
 76 77  1  0
 78 77  2  0
 79 78  1  0
 80 54  1  0
 80 85  1  0
 80 81  1  0
 81 84  1  1
 81 82  1  0
 83 81  1  0
 85 88  1  0
 86 90  1  0
 86 85  1  0
 87 86  2  0
 90 89  1  0
 92 90  1  0
 92 93  1  0
 92 91  1  0
M  ISO  4  10 100  22 100  52 101  53 101
M  END
>  <TORSDO>  (39) 
F 19

>  <SCORE>  (39) 
-14.369

>  <name>  (39) 
38

>  <ligand_id>  (39) 
38

>  <original_smiles>  (39) 
[H]C(C(=C([H])C1([H])C([H])([H])C([H])([H])[N+]([H])(C([H])([H])C([H])([H])Oc2c([H])c([H])c3c(c2[H])C([H])([H])N(C(=O)C([H])(N([H])C(=O)C([H])(N([H])C([H])([H])[H])C([H])([H])[H])C(C([H])([H])[H])(C([H])([H])[H])C([H])([H])[H])C([H])(C(=O)N([H])C2([H])c4c([H])c([H])c([H])c([H])c4C([H])([H])C([H])([H])C2([H])[H])C3([H])[H])C1([H])[H])C([H])([H])[H])=C1C([H])([H])N(C(=O)N2C([H])([H])C([H])([H])C([H])([H])C([H])(n3nc(-c4c([H])c([H])c(Oc5c([H])c([H])c(F)c([H])c5F)c([H])c4[H])c(C(=O)N([H])[H])c3N([H])[H])C2([H])[H])C1([H])[H]

>  <smiles>  (39) 
[H]C(C(=C([H])C1([H])C([H])([H])C([H])([H])[N+]([H])(C([H])([H])C([H])([H])Oc2c([H])c([H])c3c(c2[H])C([H])([H])N(C(=O)C([H])(N([H])C(=O)C([H])(N([H])C([H])([H])[H])C([H])([H])[H])C(C([H])([H])[H])(C([H])([H])[H])C([H])([H])[H])C([H])(C(=O)N([H])C2([H])c4c([H])c([H])c([H])c([H])c4C([H])([H])C([H])([H])C2([H])[H])C3([H])[H])C1([H])[H])C([H])([H])[H])=C1C([H])([H])N(C(=O)N2C([H])([H])C([H])([H])C([H])([H])C([H])(n3nc(-c4c([H])c([H])c(Oc5c([H])c([H])c(F)c([H])c5F)c([H])c4[H])c(C(=O)N([H])[H])c3N([H])[H])C2([H])[H])C1([H])[H]

$$$$
39:0:0
     RDKit          3D

 96104  0  0  1  0  0  0  0  0999 V2000
  -29.2900  -19.9390   22.2310 C   0  0  0  0  0  2  0  0  0  0  0  0
  -29.2360  -21.4740   22.1350 C   0  0  0  0  0  2  0  0  0  0  0  0
  -30.3410  -20.5850   20.2330 C   0  0  0  0  0  2  0  0  0  0  0  0
  -30.4670  -19.4930   21.3400 C   0  0  1  0  0  0  0  0  0  0  0  0
  -30.0200  -21.8540   20.9360 N   0  0  1  0  0  4  0  0  0  0  0  0
  -30.8930  -22.2140   21.2950 H   0  0  0  0  0  0  0  0  0  0  0  0
  -31.7760  -19.6160   22.1380 C   0  0  0  0  0  3  0  0  0  0  0  0
  -32.9050  -19.8770   21.6310 N   0  0  0  0  0  0  0  0  0  0  0  0
  -32.8760  -19.9710   20.6210 H   0  0  0  0  0  0  0  0  0  0  0  0
  -30.2520  -18.0180   20.8650 C   0  0  0  0  0  2  0  0  0  0  0  0
  -31.4580  -17.3000   20.1980 C   0  0  0  0  0  2  0  0  0  0  0  0
  -31.8450  -14.9310   19.6580 C   0  0  0  0  0  0  0  0  0  0  0  0
  -31.5200  -12.5840   19.0100 C   0  0  0  0  0  2  0  0  0  0  0  0
  -30.5410  -12.5510   17.8180 C   0  0  0  0  0  2  0  0  0  0  0  0
  -29.0740  -12.5410   18.3000 C   0  0  0  0  0  2  0  0  0  0  0  0
  -28.7780  -13.5830   19.4180 C   0  0  0  0  0  3  0  0  0  0  0  0
  -29.8830  -13.5910   20.4970 C   0  0  0  0  0  2  0  0  0  0  0  0
  -31.1710  -13.7600   19.8150 N   0  0  0  0  0  0  0  0  0  0  0  0
  -33.0340  -14.9790   19.3340 O   0  0  0  0  0  0  0  0  0  0  0  0
  -30.7180  -16.3740   18.1300 C   0  0  0  0  0  1  0  0  0  0  0  0
  -31.0740  -16.0460   19.5210 N   0  0  0  0  0  0  0  0  0  0  0  0
  -26.5120  -14.3580   20.3550 C   0  0  0  0  0  0  0  0  0  0  0  0
  -25.4000  -13.6640   20.7550 C   0  0  0  0  0  0  0  0  0  0  0  0
  -25.7250  -12.2810   20.6060 C   0  0  0  0  0  0  0  0  0  0  0  0
  -27.4470  -13.4000   19.9930 N   0  0  0  0  0  0  0  0  0  0  0  0
  -26.9830  -12.1410   20.2030 N   0  0  0  0  0  0  0  0  0  0  0  0
  -24.8910  -11.0820   20.7730 C   0  0  0  0  0  0  0  0  0  0  0  0
  -25.2180  -10.0830   21.7150 C   0  0  0  0  0  3  0  0  0  0  0  0
  -24.3920   -8.9480   21.8700 C   0  0  0  0  0  3  0  0  0  0  0  0
  -23.2250   -8.8080   21.0820 C   0  0  0  0  0  0  0  0  0  0  0  0
  -22.9160   -9.7960   20.1300 C   0  0  0  0  0  3  0  0  0  0  0  0
  -23.7410  -10.9220   19.9750 C   0  0  0  0  0  3  0  0  0  0  0  0
  -22.3760   -7.7290   21.1460 O   0  0  0  0  0  0  0  0  0  0  0  0
  -22.1110   -7.0890   22.3310 C   0  0  0  0  0  0  0  0  0  0  0  0
  -21.5340   -7.7660   23.4270 C   0  0  0  0  0  3  0  0  0  0  0  0
  -21.2150   -7.0560   24.6010 C   0  0  0  0  0  3  0  0  0  0  0  0
  -21.4620   -5.6720   24.6790 C   0  0  0  0  0  0  0  0  0  0  0  0
  -22.0300   -4.9970   23.5840 C   0  0  0  0  0  3  0  0  0  0  0  0
  -22.3510   -5.7040   22.4120 C   0  0  0  0  0  0  0  0  0  0  0  0
  -22.8790   -5.0430   21.3530 F   0  0  0  0  0  0  0  0  0  0  0  0
  -21.1480   -4.9870   25.8040 F   0  0  0  0  0  0  0  0  0  0  0  0
  -24.0800  -14.2520   21.1580 C   0  0  0  0  0  0  0  0  0  0  0  0
  -23.3610  -13.5900   22.0570 N   0  0  0  0  0  0  0  0  0  0  0  0
  -23.6980  -15.3330   20.7130 O   0  0  0  0  0  0  0  0  0  0  0  0
  -23.6800  -12.7130   22.4410 H   0  0  0  0  0  0  0  0  0  0  0  0
  -22.4740  -13.9670   22.3610 H   0  0  0  0  0  0  0  0  0  0  0  0
  -26.7980  -15.7160   20.2530 N   0  0  0  0  0  0  0  0  0  0  0  0
  -26.1120  -16.4310   20.4720 H   0  0  0  0  0  0  0  0  0  0  0  0
  -27.6770  -16.0970   19.9270 H   0  0  0  0  0  0  0  0  0  0  0  0
  -29.4020  -22.9600   20.1410 C   0  0  0  0  0  2  0  0  0  0  0  0
  -30.4080  -23.7710   19.2750 C   0  0  0  0  0  2  0  0  0  0  0  0
  -31.2950  -25.9250   18.3140 C   0  0  0  0  0  1  0  0  0  0  0  0
  -30.5610  -25.8720   20.7010 C   0  0  0  0  0  1  0  0  0  0  0  0
  -30.2540  -25.3270   19.2880 C   0  0  2  0  0  0  0  0  0  0  0  0
  -28.8370  -25.7860   18.8410 C   0  0  0  0  0  2  0  0  0  0  0  0
  -28.7260  -27.2100   18.9650 O   0  0  0  0  0  0  0  0  0  0  0  0
  -24.5540  -31.3470   22.9300 C   0  0  0  0  0  0  0  0  0  0  0  0
  -27.4690  -27.7570   19.1000 C   0  0  0  0  0  0  0  0  0  0  0  0
  -23.4050  -30.0660   21.1540 C   0  0  0  0  0  3  0  0  0  0  0  0
  -24.9220  -28.9410   19.4440 C   0  0  0  0  0  0  0  0  0  0  0  0
  -25.8520  -30.7610   20.8850 C   0  0  0  0  0  2  0  0  0  0  0  0
  -26.0480  -29.5180   20.0420 C   0  0  0  0  0  0  0  0  0  0  0  0
  -27.3230  -28.9390   19.8590 C   0  0  0  0  0  3  0  0  0  0  0  0
  -26.3230  -27.1880   18.4970 C   0  0  0  0  0  3  0  0  0  0  0  0
  -25.0540  -27.7770   18.6630 C   0  0  0  0  0  3  0  0  0  0  0  0
  -23.5940  -29.6250   19.6780 C   0  0  0  0  0  2  0  0  0  0  0  0
  -24.6250  -30.7320   21.7160 N   0  0  0  0  0  0  0  0  0  0  0  0
  -23.4870  -31.4010   23.5600 O   0  0  0  0  0  0  0  0  0  0  0  0
  -22.9380  -28.8440   21.9770 C   0  0  0  0  0  0  0  0  0  0  0  0
  -21.6520  -28.4840   21.8340 N   0  0  0  0  0  0  0  0  0  0  0  0
  -23.7260  -28.2280   22.6980 O   0  0  0  0  0  0  0  0  0  0  0  0
  -21.0710  -29.0440   21.2270 H   0  0  0  0  0  0  0  0  0  0  0  0
  -18.5210  -26.7040   22.1210 C   0  0  0  0  0  0  0  0  0  0  0  0
  -21.0000  -27.3440   22.4780 C   0  0  0  0  0  3  0  0  0  0  0  0
  -21.3400  -26.0230   21.7510 C   0  0  0  0  0  2  0  0  0  0  0  0
  -20.3110  -25.6400   20.6830 C   0  0  0  0  0  2  0  0  0  0  0  0
  -18.9220  -25.4840   21.3080 C   0  0  0  0  0  2  0  0  0  0  0  0
  -19.4960  -27.5860   22.6570 C   0  0  0  0  0  0  0  0  0  0  0  0
  -19.0690  -28.7240   23.3760 C   0  0  0  0  0  3  0  0  0  0  0  0
  -17.6980  -28.9830   23.5640 C   0  0  0  0  0  3  0  0  0  0  0  0
  -16.7380  -28.0980   23.0460 C   0  0  0  0  0  3  0  0  0  0  0  0
  -17.1490  -26.9590   22.3290 C   0  0  0  0  0  3  0  0  0  0  0  0
  -25.7970  -32.0310   23.5760 C   0  0  0  0  0  3  0  0  0  0  0  0
  -25.3920  -33.3790   24.0000 N   0  0  0  0  0  0  0  0  0  0  0  0
  -25.6550  -34.5010   23.3170 C   0  0  0  0  0  0  0  0  0  0  0  0
  -26.3340  -34.5150   22.2880 O   0  0  0  0  0  0  0  0  0  0  0  0
  -24.7860  -33.4380   24.8050 H   0  0  0  0  0  0  0  0  0  0  0  0
  -23.8040  -36.1850   23.0760 C   0  0  0  0  0  1  0  0  0  0  0  0
  -25.0700  -35.8170   23.8650 C   0  0  0  0  0  3  0  0  0  0  0  0
  -27.1310  -36.7970   24.7720 C   0  0  0  0  0  1  0  0  0  0  0  0
  -26.0250  -36.9460   23.8290 N   0  0  0  0  0  0  0  0  0  0  0  0
  -25.5540  -37.8250   24.0290 H   0  0  0  0  0  0  0  0  0  0  0  0
  -26.3920  -31.2210   24.7920 C   0  0  1  0  0  0  0  0  0  0  0  0
  -25.3410  -30.8380   25.8580 C   0  0  0  0  0  1  0  0  0  0  0  0
  -27.0600  -29.9160   24.3000 C   0  0  0  0  0  1  0  0  0  0  0  0
  -27.4950  -32.0540   25.4860 C   0  0  0  0  0  1  0  0  0  0  0  0
  2  1  1  0
  3  5  1  0
  3  4  1  0
  4 10  1  6
  4  7  1  0
  4  1  1  0
  5  6  1  1
  5  2  1  0
  8  7  2  0
  9  8  1  0
 11 10  1  0
 12 18  1  0
 13 18  1  0
 14 15  1  0
 14 13  1  0
 16 15  1  0
 16 25  1  0
 16 17  1  0
 18 17  1  0
 19 12  2  0
 20 21  1  0
 21 12  1  0
 21 11  1  0
 22 23  2  0
 23 42  1  0
 24 23  1  0
 24 27  1  0
 25 26  1  0
 25 22  1  0
 26 24  2  0
 27 28  1  0
 28 29  2  0
 30 33  1  0
 30 29  1  0
 31 30  2  0
 32 31  1  0
 32 27  2  0
 33 34  1  0
 34 39  2  0
 34 35  1  0
 35 36  2  0
 36 37  1  0
 37 41  1  0
 38 37  2  0
 39 38  1  0
 40 39  1  0
 42 43  1  0
 43 46  1  0
 43 45  1  0
 44 42  2  0
 47 22  1  0
 47 48  1  0
 49 47  1  0
 50  5  1  0
 51 54  1  0
 51 50  1  0
 54 52  1  6
 54 53  1  0
 55 56  1  0
 55 54  1  0
 56 58  1  0
 57 68  2  0
 58 63  1  0
 59 67  1  0
 59 69  1  0
 60 66  1  0
 60 62  1  0
 61 67  1  0
 62 61  1  0
 63 62  2  0
 64 65  1  0
 64 58  2  0
 65 60  2  0
 66 59  1  0
 67 57  1  0
 69 71  2  0
 70 69  1  0
 72 70  1  0
 73 82  2  0
 73 78  1  0
 74 70  1  0
 74 78  1  0
 75 74  1  0
 76 77  1  0
 76 75  1  0
 77 73  1  0
 78 79  2  0
 79 80  1  0
 81 80  2  0
 82 81  1  0
 83 57  1  0
 83 84  1  0
 83 93  1  0
 84 87  1  0
 85 89  1  0
 85 84  1  0
 86 85  2  0
 89 88  1  0
 91 89  1  0
 91 92  1  0
 91 90  1  0
 93 96  1  1
 93 94  1  0
 95 93  1  0
M  ISO  4  12 100  21 100  55 101  56 101
M  END
>  <TORSDO>  (40) 
F 23

>  <SCORE>  (40) 
-8.351

>  <name>  (40) 
39

>  <ligand_id>  (40) 
39

>  <original_smiles>  (40) 
[H]N=C([H])C1(C([H])([H])C([H])([H])N(C(=O)N2C([H])([H])C([H])([H])C([H])([H])C([H])(n3nc(-c4c([H])c([H])c(Oc5c([H])c([H])c(F)c([H])c5F)c([H])c4[H])c(C(=O)N([H])[H])c3N([H])[H])C2([H])[H])C([H])([H])[H])C([H])([H])C([H])([H])[N+]([H])(C([H])([H])C([H])([H])C(C([H])([H])[H])(C([H])([H])[H])C([H])([H])Oc2c([H])c([H])c3c(c2[H])C([H])([H])N(C(=O)C([H])(N([H])C(=O)C([H])(N([H])C([H])([H])[H])C([H])([H])[H])C(C([H])([H])[H])(C([H])([H])[H])C([H])([H])[H])C([H])(C(=O)N([H])C2([H])c4c([H])c([H])c([H])c([H])c4C([H])([H])C([H])([H])C2([H])[H])C3([H])[H])C1([H])[H]

>  <smiles>  (40) 
[H]N=C([H])C1(C([H])([H])C([H])([H])N(C(=O)N2C([H])([H])C([H])([H])C([H])([H])C([H])(n3nc(-c4c([H])c([H])c(Oc5c([H])c([H])c(F)c([H])c5F)c([H])c4[H])c(C(=O)N([H])[H])c3N([H])[H])C2([H])[H])C([H])([H])[H])C([H])([H])C([H])([H])[N+]([H])(C([H])([H])C([H])([H])C(C([H])([H])[H])(C([H])([H])[H])C([H])([H])Oc2c([H])c([H])c3c(c2[H])C([H])([H])N(C(=O)C([H])(N([H])C(=O)C([H])(N([H])C([H])([H])[H])C([H])([H])[H])C(C([H])([H])[H])(C([H])([H])[H])C([H])([H])[H])C([H])(C(=O)N([H])C2([H])c4c([H])c([H])c([H])c([H])c4C([H])([H])C([H])([H])C2([H])[H])C3([H])[H])C1([H])[H]

$$$$
41:0:0
     RDKit          3D

 92100  0  0  1  0  0  0  0  0999 V2000
  -29.3840  -21.5010   21.9120 C   0  0  0  0  0  0  0  0  0  0  0  0
  -28.8090  -22.3770   22.9880 C   0  0  0  0  0  2  0  0  0  0  0  0
  -29.6490  -22.3670   20.6860 C   0  0  0  0  0  2  0  0  0  0  0  0
  -29.0580  -23.7950   22.4840 C   0  0  0  0  0  2  0  0  0  0  0  0
  -29.5950  -20.2530   22.0840 N   0  0  0  0  0  0  0  0  0  0  0  0
  -29.0520  -23.6880   21.0090 N   0  0  1  0  0  4  0  0  0  0  0  0
  -28.0790  -23.6110   20.7450 H   0  0  0  0  0  0  0  0  0  0  0  0
  -30.2290  -19.4560   21.0480 C   0  0  0  0  0  2  0  0  0  0  0  0
  -30.0140  -17.9590   21.3530 C   0  0  0  0  0  2  0  0  0  0  0  0
  -30.8920  -17.0370   20.4870 C   0  0  0  0  0  2  0  0  0  0  0  0
  -31.1520  -14.6280   20.0030 C   0  0  0  0  0  0  0  0  0  0  0  0
  -30.7750  -12.4570   18.9140 C   0  0  0  0  0  2  0  0  0  0  0  0
  -29.7800  -12.6440   17.7510 C   0  0  0  0  0  2  0  0  0  0  0  0
  -28.3250  -12.5360   18.2470 C   0  0  0  0  0  2  0  0  0  0  0  0
  -28.0540  -13.4070   19.5040 C   0  0  0  0  0  3  0  0  0  0  0  0
  -29.1550  -13.1940   20.5680 C   0  0  0  0  0  2  0  0  0  0  0  0
  -30.4610  -13.4600   19.9390 N   0  0  0  0  0  0  0  0  0  0  0  0
  -32.2180  -14.8220   19.4120 O   0  0  0  0  0  0  0  0  0  0  0  0
  -30.5300  -15.6270   20.6420 N   0  0  0  0  0  0  0  0  0  0  0  0
  -29.6660  -15.4030   21.1130 H   0  0  0  0  0  0  0  0  0  0  0  0
  -25.7110  -14.0640   20.3510 C   0  0  0  0  0  0  0  0  0  0  0  0
  -24.6430  -13.3120   20.7610 C   0  0  0  0  0  0  0  0  0  0  0  0
  -25.0630  -11.9490   20.6730 C   0  0  0  0  0  0  0  0  0  0  0  0
  -26.7200  -13.1610   20.0460 N   0  0  0  0  0  0  0  0  0  0  0  0
  -26.3330  -11.8830   20.2920 N   0  0  0  0  0  0  0  0  0  0  0  0
  -24.3140  -10.7030   20.8710 C   0  0  0  0  0  0  0  0  0  0  0  0
  -24.7040   -9.7530   21.8410 C   0  0  0  0  0  3  0  0  0  0  0  0
  -23.9560   -8.5710   22.0260 C   0  0  0  0  0  3  0  0  0  0  0  0
  -22.8030   -8.3300   21.2410 C   0  0  0  0  0  0  0  0  0  0  0  0
  -22.4330   -9.2680   20.2610 C   0  0  0  0  0  3  0  0  0  0  0  0
  -23.1820  -10.4410   20.0730 C   0  0  0  0  0  3  0  0  0  0  0  0
  -22.0290   -7.1990   21.3320 O   0  0  0  0  0  0  0  0  0  0  0  0
  -21.8410   -6.5510   22.5280 C   0  0  0  0  0  0  0  0  0  0  0  0
  -21.2630   -7.1980   23.6430 C   0  0  0  0  0  3  0  0  0  0  0  0
  -21.0220   -6.4760   24.8290 C   0  0  0  0  0  3  0  0  0  0  0  0
  -21.3510   -5.1100   24.9000 C   0  0  0  0  0  0  0  0  0  0  0  0
  -21.9220   -4.4630   23.7900 C   0  0  0  0  0  3  0  0  0  0  0  0
  -22.1640   -5.1820   22.6070 C   0  0  0  0  0  0  0  0  0  0  0  0
  -22.6950   -4.5490   21.5330 F   0  0  0  0  0  0  0  0  0  0  0  0
  -21.1110   -4.4150   26.0370 F   0  0  0  0  0  0  0  0  0  0  0  0
  -23.2770  -13.8210   21.1230 C   0  0  0  0  0  0  0  0  0  0  0  0
  -22.5810  -13.1280   22.0160 N   0  0  0  0  0  0  0  0  0  0  0  0
  -22.8390  -14.8690   20.6480 O   0  0  0  0  0  0  0  0  0  0  0  0
  -22.9490  -12.2820   22.4250 H   0  0  0  0  0  0  0  0  0  0  0  0
  -21.6640  -13.4500   22.2950 H   0  0  0  0  0  0  0  0  0  0  0  0
  -25.9050  -15.4350   20.1980 N   0  0  0  0  0  0  0  0  0  0  0  0
  -25.1680  -16.1070   20.3790 H   0  0  0  0  0  0  0  0  0  0  0  0
  -26.7510  -15.8600   19.8410 H   0  0  0  0  0  0  0  0  0  0  0  0
  -29.6310  -24.8400   20.2570 C   0  0  0  0  0  2  0  0  0  0  0  0
  -29.9200  -27.0480   21.5130 C   0  0  0  0  0  1  0  0  0  0  0  0
  -28.9930  -26.2050   20.6200 C   0  0  0  0  0  3  0  0  0  0  0  0
  -28.6850  -26.9350   19.4250 O   0  0  0  0  0  0  0  0  0  0  0  0
  -24.7050  -31.6000   22.9940 C   0  0  0  0  0  0  0  0  0  0  0  0
  -27.4890  -27.6050   19.4990 C   0  0  0  0  0  0  0  0  0  0  0  0
  -23.5120  -30.2320   21.3090 C   0  0  0  0  0  3  0  0  0  0  0  0
  -24.9970  -28.9000   19.7160 C   0  0  0  0  0  0  0  0  0  0  0  0
  -25.9890  -30.7940   21.0180 C   0  0  0  0  0  2  0  0  0  0  0  0
  -26.1380  -29.4800   20.2830 C   0  0  0  0  0  0  0  0  0  0  0  0
  -27.3900  -28.8440   20.1660 C   0  0  0  0  0  3  0  0  0  0  0  0
  -26.3380  -27.0320   18.9250 C   0  0  0  0  0  3  0  0  0  0  0  0
  -25.0880  -27.6740   19.0330 C   0  0  0  0  0  3  0  0  0  0  0  0
  -23.6970  -29.6580   19.8780 C   0  0  0  0  0  2  0  0  0  0  0  0
  -24.7560  -30.8860   21.8330 N   0  0  0  0  0  0  0  0  0  0  0  0
  -23.6370  -31.7590   23.6010 O   0  0  0  0  0  0  0  0  0  0  0  0
  -22.9810  -29.1060   22.2240 C   0  0  0  0  0  0  0  0  0  0  0  0
  -21.6720  -28.8230   22.1200 N   0  0  0  0  0  0  0  0  0  0  0  0
  -23.7380  -28.4920   22.9790 O   0  0  0  0  0  0  0  0  0  0  0  0
  -21.1170  -29.3780   21.4840 H   0  0  0  0  0  0  0  0  0  0  0  0
  -18.4280  -27.3080   22.5990 C   0  0  0  0  0  0  0  0  0  0  0  0
  -20.9570  -27.7780   22.8530 C   0  0  0  0  0  3  0  0  0  0  0  0
  -21.1760  -26.3930   22.2020 C   0  0  0  0  0  2  0  0  0  0  0  0
  -20.0900  -26.0250   21.1850 C   0  0  0  0  0  2  0  0  0  0  0  0
  -18.7120  -26.0150   21.8540 C   0  0  0  0  0  2  0  0  0  0  0  0
  -19.4820  -28.1440   23.0540 C   0  0  0  0  0  0  0  0  0  0  0  0
  -19.1650  -29.3520   23.7100 C   0  0  0  0  0  3  0  0  0  0  0  0
  -17.8240  -29.7300   23.9160 C   0  0  0  0  0  3  0  0  0  0  0  0
  -16.7840  -28.8900   23.4780 C   0  0  0  0  0  3  0  0  0  0  0  0
  -17.0860  -27.6820   22.8260 C   0  0  0  0  0  3  0  0  0  0  0  0
  -25.9780  -32.2720   23.5980 C   0  0  0  0  0  3  0  0  0  0  0  0
  -25.6080  -33.6330   24.0060 N   0  0  0  0  0  0  0  0  0  0  0  0
  -25.8710  -34.7380   23.2950 C   0  0  0  0  0  0  0  0  0  0  0  0
  -26.5230  -34.7210   22.2480 O   0  0  0  0  0  0  0  0  0  0  0  0
  -25.0250  -33.7170   24.8260 H   0  0  0  0  0  0  0  0  0  0  0  0
  -24.0480  -36.4540   23.0590 C   0  0  0  0  0  1  0  0  0  0  0  0
  -25.3220  -36.0740   23.8300 C   0  0  0  0  0  3  0  0  0  0  0  0
  -27.4200  -37.0250   24.6770 C   0  0  0  0  0  1  0  0  0  0  0  0
  -26.2980  -37.1830   23.7570 N   0  0  0  0  0  0  0  0  0  0  0  0
  -25.8480  -38.0720   23.9540 H   0  0  0  0  0  0  0  0  0  0  0  0
  -26.5880  -31.4700   24.8110 C   0  0  1  0  0  0  0  0  0  0  0  0
  -25.5560  -31.1180   25.9070 C   0  0  0  0  0  1  0  0  0  0  0  0
  -27.2290  -30.1500   24.3230 C   0  0  0  0  0  1  0  0  0  0  0  0
  -27.7190  -32.2960   25.4710 C   0  0  0  0  0  1  0  0  0  0  0  0
  1  5  2  0
  1  2  1  0
  3  6  1  0
  3  1  1  0
  4  2  1  0
  6  4  1  0
  6  7  1  6
  8  9  1  0
  8  5  1  0
 10 19  1  0
 10  9  1  0
 11 19  1  0
 12 17  1  0
 13 14  1  0
 13 12  1  0
 15 14  1  0
 15 24  1  0
 15 16  1  0
 17 11  1  0
 17 16  1  0
 18 11  2  0
 19 20  1  0
 21 22  2  0
 22 41  1  0
 23 22  1  0
 23 26  1  0
 24 25  1  0
 24 21  1  0
 25 23  2  0
 26 27  1  0
 27 28  2  0
 29 32  1  0
 29 28  1  0
 30 29  2  0
 31 30  1  0
 31 26  2  0
 32 33  1  0
 33 38  2  0
 33 34  1  0
 34 35  2  0
 35 36  1  0
 36 40  1  0
 37 36  2  0
 38 37  1  0
 39 38  1  0
 41 42  1  0
 42 45  1  0
 42 44  1  0
 43 41  2  0
 46 21  1  0
 46 47  1  0
 48 46  1  0
 49 51  1  0
 49  6  1  0
 51 50  1  0
 52 54  1  0
 52 51  1  0
 53 64  2  0
 54 59  1  0
 55 63  1  0
 55 65  1  0
 56 62  1  0
 56 58  1  0
 57 63  1  0
 58 57  1  0
 59 58  2  0
 60 61  1  0
 60 54  2  0
 61 56  2  0
 62 55  1  0
 63 53  1  0
 65 67  2  0
 66 65  1  0
 68 66  1  0
 69 78  2  0
 69 74  1  0
 70 66  1  0
 70 74  1  0
 71 70  1  0
 72 73  1  0
 72 71  1  0
 73 69  1  0
 74 75  2  0
 75 76  1  0
 77 76  2  0
 78 77  1  0
 79 53  1  0
 79 80  1  0
 79 89  1  0
 80 83  1  0
 81 85  1  0
 81 80  1  0
 82 81  2  0
 85 84  1  0
 87 85  1  0
 87 88  1  0
 87 86  1  0
 89 92  1  1
 89 90  1  0
 91 89  1  0
M  ISO  4  11 100  19 100  51 101  52 101
M  END
>  <TORSDO>  (41) 
F 21

>  <SCORE>  (41) 
-11.065

>  <name>  (41) 
41

>  <ligand_id>  (41) 
41

>  <original_smiles>  (41) 
[H]c1c([H])c([H])c2c(c1[H])C([H])([H])C([H])([H])C([H])([H])C2([H])N([H])C(=O)C1([H])N(C(=O)C([H])(N([H])C(=O)C([H])(N([H])C([H])([H])[H])C([H])([H])[H])C(C([H])([H])[H])(C([H])([H])[H])C([H])([H])[H])C([H])([H])c2c([H])c(OC([H])(C([H])([H])[H])C([H])([H])[N+]3([H])C([H])([H])C(=NC([H])([H])C([H])([H])C([H])([H])N([H])C(=O)N4C([H])([H])C([H])([H])C([H])([H])C([H])(n5nc(-c6c([H])c([H])c(Oc7c([H])c([H])c(F)c([H])c7F)c([H])c6[H])c(C(=O)N([H])[H])c5N([H])[H])C4([H])[H])C([H])([H])C3([H])[H])c([H])c([H])c2C1([H])[H]

>  <smiles>  (41) 
[H]c1c([H])c([H])c2c(c1[H])C([H])([H])C([H])([H])C([H])([H])C2([H])N([H])C(=O)C1([H])N(C(=O)C([H])(N([H])C(=O)C([H])(N([H])C([H])([H])[H])C([H])([H])[H])C(C([H])([H])[H])(C([H])([H])[H])C([H])([H])[H])C([H])([H])c2c([H])c(OC([H])(C([H])([H])[H])C([H])([H])[N+]3([H])C([H])([H])C(=NC([H])([H])C([H])([H])C([H])([H])N([H])C(=O)N4C([H])([H])C([H])([H])C([H])([H])C([H])(n5nc(-c6c([H])c([H])c(Oc7c([H])c([H])c(F)c([H])c7F)c([H])c6[H])c(C(=O)N([H])[H])c5N([H])[H])C4([H])[H])C([H])([H])C3([H])[H])c([H])c([H])c2C1([H])[H]

$$$$
42:0:0
     RDKit          3D

 95103  0  0  1  0  0  0  0  0999 V2000
  -29.1270  -20.5780   19.1750 C   0  0  0  0  0  2  0  0  0  0  0  0
  -28.4920  -20.0010   21.3200 C   0  0  0  0  0  2  0  0  0  0  0  0
  -28.9420  -21.9560   19.8940 C   0  0  0  0  0  3  0  0  0  0  0  0
  -28.1400  -21.4950   21.1310 C   0  0  0  0  0  3  0  0  0  0  0  0
  -29.4540  -19.6270   20.2700 N   0  0  0  0  0  0  0  0  0  0  0  0
  -28.3570  -22.3240   22.3300 N   0  0  0  0  0  4  0  0  0  0  0  0
  -29.3120  -22.3120   22.6360 H   0  0  0  0  0  0  0  0  0  0  0  0
  -27.7700  -21.9980   23.0790 H   0  0  0  0  0  0  0  0  0  0  0  0
  -28.0850  -23.2710   22.1450 H   0  0  0  0  0  0  0  0  0  0  0  0
  -28.2870  -23.1530   19.1060 C   0  0  0  0  0  0  0  0  0  0  0  0
  -27.0990  -23.0930   18.6730 N   0  0  0  0  0  0  0  0  0  0  0  0
  -26.6180  -22.2240   18.8830 H   0  0  0  0  0  0  0  0  0  0  0  0
  -29.0740  -24.4760   18.8710 C   0  0  0  0  0  2  0  0  0  0  0  0
  -28.6440  -25.6890   19.7800 C   0  0  0  0  0  2  0  0  0  0  0  0
  -28.7160  -27.0250   19.1860 O   0  0  0  0  0  0  0  0  0  0  0  0
  -24.6100  -31.4090   23.0480 C   0  0  0  0  0  0  0  0  0  0  0  0
  -27.5370  -27.7440   19.2640 C   0  0  0  0  0  0  0  0  0  0  0  0
  -23.4830  -30.1480   21.2430 C   0  0  0  0  0  3  0  0  0  0  0  0
  -25.0210  -29.0200   19.5450 C   0  0  0  0  0  0  0  0  0  0  0  0
  -25.9530  -30.7960   21.0360 C   0  0  0  0  0  2  0  0  0  0  0  0
  -26.1500  -29.5550   20.1830 C   0  0  0  0  0  0  0  0  0  0  0  0
  -27.4140  -28.9270   20.0390 C   0  0  0  0  0  3  0  0  0  0  0  0
  -26.3960  -27.2540   18.6020 C   0  0  0  0  0  3  0  0  0  0  0  0
  -25.1440  -27.8780   18.7410 C   0  0  0  0  0  3  0  0  0  0  0  0
  -23.6970  -29.7160   19.7670 C   0  0  0  0  0  2  0  0  0  0  0  0
  -24.7010  -30.7930   21.8350 N   0  0  0  0  0  0  0  0  0  0  0  0
  -23.5310  -31.4800   23.6530 O   0  0  0  0  0  0  0  0  0  0  0  0
  -22.9820  -28.9280   22.0500 C   0  0  0  0  0  0  0  0  0  0  0  0
  -21.6970  -28.5790   21.8800 N   0  0  0  0  0  0  0  0  0  0  0  0
  -23.7510  -28.3020   22.7860 O   0  0  0  0  0  0  0  0  0  0  0  0
  -21.1370  -29.1180   21.2330 H   0  0  0  0  0  0  0  0  0  0  0  0
  -18.5280  -26.8630   22.1380 C   0  0  0  0  0  0  0  0  0  0  0  0
  -21.0190  -27.4510   22.5140 C   0  0  0  0  0  3  0  0  0  0  0  0
  -21.3420  -26.1330   21.7670 C   0  0  0  0  0  2  0  0  0  0  0  0
  -20.3020  -25.7570   20.7080 C   0  0  0  0  0  2  0  0  0  0  0  0
  -18.9080  -25.6330   21.3330 C   0  0  0  0  0  2  0  0  0  0  0  0
  -19.5190  -27.7210   22.6820 C   0  0  0  0  0  0  0  0  0  0  0  0
  -19.1100  -28.8650   23.4060 C   0  0  0  0  0  3  0  0  0  0  0  0
  -17.7450  -29.1580   23.5790 C   0  0  0  0  0  3  0  0  0  0  0  0
  -16.7720  -28.2960   23.0460 C   0  0  0  0  0  3  0  0  0  0  0  0
  -17.1620  -27.1500   22.3390 C   0  0  0  0  0  3  0  0  0  0  0  0
  -25.8510  -32.0750   23.7230 C   0  0  0  0  0  3  0  0  0  0  0  0
  -25.4400  -33.4090   24.1810 N   0  0  0  0  0  0  0  0  0  0  0  0
  -25.7120  -34.5540   23.5400 C   0  0  0  0  0  0  0  0  0  0  0  0
  -26.4090  -34.6010   22.5230 O   0  0  0  0  0  0  0  0  0  0  0  0
  -24.8150  -33.4410   24.9730 H   0  0  0  0  0  0  0  0  0  0  0  0
  -23.8730  -36.2550   23.3210 C   0  0  0  0  0  1  0  0  0  0  0  0
  -25.1230  -35.8540   24.1210 C   0  0  0  0  0  3  0  0  0  0  0  0
  -27.1740  -36.7870   25.0950 C   0  0  0  0  0  1  0  0  0  0  0  0
  -26.0850  -36.9790   24.1410 N   0  0  0  0  0  0  0  0  0  0  0  0
  -25.6140  -37.8510   24.3680 H   0  0  0  0  0  0  0  0  0  0  0  0
  -26.4350  -31.2310   24.9220 C   0  0  1  0  0  0  0  0  0  0  0  0
  -25.3750  -30.8170   25.9690 C   0  0  0  0  0  1  0  0  0  0  0  0
  -27.1090  -29.9410   24.3980 C   0  0  0  0  0  1  0  0  0  0  0  0
  -27.5370  -32.0410   25.6430 C   0  0  0  0  0  1  0  0  0  0  0  0
  -29.3680  -18.1580   20.0060 C   0  0  0  0  0  2  0  0  0  0  0  0
  -30.7250  -17.3940   19.8140 C   0  0  0  0  0  2  0  0  0  0  0  0
  -31.3680  -14.9460   19.8420 C   0  0  0  0  0  0  0  0  0  0  0  0
  -31.0900  -12.6320   18.9640 C   0  0  0  0  0  2  0  0  0  0  0  0
  -30.0950  -12.6340   17.7850 C   0  0  0  0  0  2  0  0  0  0  0  0
  -28.6470  -12.4950   18.2970 C   0  0  0  0  0  2  0  0  0  0  0  0
  -28.3320  -13.4980   19.4360 C   0  0  0  0  0  3  0  0  0  0  0  0
  -29.4250  -13.4590   20.5220 C   0  0  0  0  0  2  0  0  0  0  0  0
  -30.7170  -13.7390   19.8700 N   0  0  0  0  0  0  0  0  0  0  0  0
  -32.4120  -15.0910   19.1960 O   0  0  0  0  0  0  0  0  0  0  0  0
  -30.7960  -16.0880   21.8980 C   0  0  0  0  0  1  0  0  0  0  0  0
  -30.7460  -16.0190   20.4260 N   0  0  0  0  0  0  0  0  0  0  0  0
  -26.0360  -14.1950   20.3680 C   0  0  0  0  0  0  0  0  0  0  0  0
  -24.9570  -13.4630   20.7840 C   0  0  0  0  0  0  0  0  0  0  0  0
  -25.3390  -12.0920   20.6540 C   0  0  0  0  0  0  0  0  0  0  0  0
  -27.0060  -13.2740   20.0060 N   0  0  0  0  0  0  0  0  0  0  0  0
  -26.5960  -12.0010   20.2400 N   0  0  0  0  0  0  0  0  0  0  0  0
  -24.5590  -10.8600   20.8400 C   0  0  0  0  0  0  0  0  0  0  0  0
  -24.9450   -9.8780   21.7780 C   0  0  0  0  0  3  0  0  0  0  0  0
  -24.1710   -8.7110   21.9520 C   0  0  0  0  0  3  0  0  0  0  0  0
  -22.9970   -8.5170   21.1880 C   0  0  0  0  0  0  0  0  0  0  0  0
  -22.6290   -9.4860   20.2380 C   0  0  0  0  0  3  0  0  0  0  0  0
  -23.4030  -10.6460   20.0620 C   0  0  0  0  0  3  0  0  0  0  0  0
  -22.1970   -7.4040   21.2710 O   0  0  0  0  0  0  0  0  0  0  0  0
  -22.0070   -6.7420   22.4570 C   0  0  0  0  0  0  0  0  0  0  0  0
  -21.4540   -7.3810   23.5880 C   0  0  0  0  0  3  0  0  0  0  0  0
  -21.2120   -6.6450   24.7650 C   0  0  0  0  0  3  0  0  0  0  0  0
  -21.5090   -5.2700   24.8100 C   0  0  0  0  0  0  0  0  0  0  0  0
  -22.0560   -4.6300   23.6850 C   0  0  0  0  0  3  0  0  0  0  0  0
  -22.3010   -5.3630   22.5100 C   0  0  0  0  0  0  0  0  0  0  0  0
  -22.8070   -4.7370   21.4210 F   0  0  0  0  0  0  0  0  0  0  0  0
  -21.2710   -4.5620   25.9380 F   0  0  0  0  0  0  0  0  0  0  0  0
  -23.6120  -13.9960   21.1870 C   0  0  0  0  0  0  0  0  0  0  0  0
  -22.9250  -13.3060   22.0930 N   0  0  0  0  0  0  0  0  0  0  0  0
  -23.1840  -15.0580   20.7390 O   0  0  0  0  0  0  0  0  0  0  0  0
  -23.2820  -12.4430   22.4750 H   0  0  0  0  0  0  0  0  0  0  0  0
  -22.0270  -13.6460   22.4090 H   0  0  0  0  0  0  0  0  0  0  0  0
  -26.2680  -15.5610   20.2420 N   0  0  0  0  0  0  0  0  0  0  0  0
  -25.5370  -16.2480   20.3980 H   0  0  0  0  0  0  0  0  0  0  0  0
  -27.0980  -15.9550   19.8190 H   0  0  0  0  0  0  0  0  0  0  0  0
  1  3  1  0
  1  5  1  0
  3 10  1  0
  3  4  1  0
  4  2  1  0
  4  6  1  0
  5  2  1  0
  6  7  1  0
  6  8  1  0
  9  6  1  0
 11 12  1  0
 11 10  2  0
 13 10  1  0
 13 14  1  0
 15 17  1  0
 15 14  1  0
 16 27  2  0
 17 22  1  0
 18 26  1  0
 18 28  1  0
 19 25  1  0
 19 21  1  0
 20 26  1  0
 21 20  1  0
 22 21  2  0
 23 24  1  0
 23 17  2  0
 24 19  2  0
 25 18  1  0
 26 16  1  0
 28 30  2  0
 29 28  1  0
 31 29  1  0
 32 41  2  0
 32 37  1  0
 33 29  1  0
 33 37  1  0
 34 33  1  0
 35 36  1  0
 35 34  1  0
 36 32  1  0
 37 38  2  0
 38 39  1  0
 40 39  2  0
 41 40  1  0
 42 16  1  0
 42 43  1  0
 42 52  1  0
 43 46  1  0
 44 48  1  0
 44 43  1  0
 45 44  2  0
 48 47  1  0
 48 50  1  0
 50 51  1  0
 50 49  1  0
 52 55  1  1
 52 53  1  0
 54 52  1  0
 56  5  1  0
 57 56  1  0
 57 67  1  0
 58 64  1  0
 58 67  1  0
 59 64  1  0
 60 61  1  0
 60 59  1  0
 62 61  1  0
 62 71  1  0
 62 63  1  0
 64 63  1  0
 65 58  2  0
 67 66  1  0
 68 69  2  0
 69 88  1  0
 70 69  1  0
 70 73  1  0
 71 72  1  0
 71 68  1  0
 72 70  2  0
 73 74  1  0
 74 75  2  0
 76 79  1  0
 76 75  1  0
 77 76  2  0
 78 77  1  0
 78 73  2  0
 79 80  1  0
 80 85  2  0
 80 81  1  0
 81 82  2  0
 82 83  1  0
 83 87  1  0
 84 83  2  0
 85 84  1  0
 86 85  1  0
 88 89  1  0
 89 92  1  0
 89 91  1  0
 90 88  2  0
 93 68  1  0
 93 94  1  0
 95 93  1  0
M  ISO  4  14 101  15 101  58 100  67 100
M  END
>  <TORSDO>  (42) 
F 22

>  <SCORE>  (42) 
-10.354

>  <name>  (42) 
42

>  <ligand_id>  (42) 
42

>  <original_smiles>  (42) 
[H]N=C(C([H])([H])C([H])([H])Oc1c([H])c([H])c2c(c1[H])C([H])([H])N(C(=O)C([H])(N([H])C(=O)C([H])(N([H])C([H])([H])[H])C([H])([H])[H])C(C([H])([H])[H])(C([H])([H])[H])C([H])([H])[H])C([H])(C(=O)N([H])C1([H])c3c([H])c([H])c([H])c([H])c3C([H])([H])C([H])([H])C1([H])[H])C2([H])[H])C1([H])C([H])([H])N(C([H])([H])C([H])([H])N(C(=O)N2C([H])([H])C([H])([H])C([H])([H])C([H])(n3nc(-c4c([H])c([H])c(Oc5c([H])c([H])c(F)c([H])c5F)c([H])c4[H])c(C(=O)N([H])[H])c3N([H])[H])C2([H])[H])C([H])([H])[H])C([H])([H])C1([H])[N+]([H])([H])[H]

>  <smiles>  (42) 
[H]N=C(C([H])([H])C([H])([H])Oc1c([H])c([H])c2c(c1[H])C([H])([H])N(C(=O)C([H])(N([H])C(=O)C([H])(N([H])C([H])([H])[H])C([H])([H])[H])C(C([H])([H])[H])(C([H])([H])[H])C([H])([H])[H])C([H])(C(=O)N([H])C1([H])c3c([H])c([H])c([H])c([H])c3C([H])([H])C([H])([H])C1([H])[H])C2([H])[H])C1([H])C([H])([H])N(C([H])([H])C([H])([H])N(C(=O)N2C([H])([H])C([H])([H])C([H])([H])C([H])(n3nc(-c4c([H])c([H])c(Oc5c([H])c([H])c(F)c([H])c5F)c([H])c4[H])c(C(=O)N([H])[H])c3N([H])[H])C2([H])[H])C([H])([H])[H])C([H])([H])C1([H])[N+]([H])([H])[H]

$$$$
43:0:0
     RDKit          3D

 99107  0  0  1  0  0  0  0  0999 V2000
  -29.2330  -23.4660   21.2760 C   0  0  0  0  0  3  0  0  0  0  0  0
  -28.4410  -22.4370   20.5630 N   0  0  0  0  0  4  0  0  0  0  0  0
  -28.5070  -22.5150   19.5610 H   0  0  0  0  0  0  0  0  0  0  0  0
  -27.4740  -22.5950   20.7930 H   0  0  0  0  0  0  0  0  0  0  0  0
  -28.6450  -21.5040   20.8710 H   0  0  0  0  0  0  0  0  0  0  0  0
  -26.9230  -24.4470   21.7580 C   0  0  0  0  0  1  0  0  0  0  0  0
  -28.8490  -25.8230   22.3480 C   0  0  0  0  0  1  0  0  0  0  0  0
  -28.3640  -24.7900   21.2940 C   0  0  1  0  0  0  0  0  0  0  0  0
  -28.2950  -25.4310   19.8770 C   0  0  0  0  0  2  0  0  0  0  0  0
  -28.1690  -26.8400   19.9360 O   0  0  0  0  0  0  0  0  0  0  0  0
  -24.4400  -31.8690   23.2210 C   0  0  0  0  0  0  0  0  0  0  0  0
  -26.9440  -27.4530   20.0210 C   0  0  0  0  0  0  0  0  0  0  0  0
  -23.1640  -30.5120   21.5870 C   0  0  0  0  0  3  0  0  0  0  0  0
  -24.5540  -28.9500   20.1300 C   0  0  0  0  0  0  0  0  0  0  0  0
  -25.6840  -30.8380   21.3250 C   0  0  0  0  0  2  0  0  0  0  0  0
  -25.7310  -29.4670   20.6860 C   0  0  0  0  0  0  0  0  0  0  0  0
  -26.9220  -28.7220   20.6320 C   0  0  0  0  0  3  0  0  0  0  0  0
  -25.7430  -26.9250   19.4890 C   0  0  0  0  0  3  0  0  0  0  0  0
  -24.5500  -27.6720   19.5400 C   0  0  0  0  0  3  0  0  0  0  0  0
  -23.3290  -29.8330   20.1990 C   0  0  0  0  0  2  0  0  0  0  0  0
  -24.4490  -31.0830   22.1060 N   0  0  0  0  0  0  0  0  0  0  0  0
  -23.3780  -32.1540   23.7910 O   0  0  0  0  0  0  0  0  0  0  0  0
  -22.5140  -29.4950   22.5540 C   0  0  0  0  0  0  0  0  0  0  0  0
  -21.1860  -29.3340   22.4470 N   0  0  0  0  0  0  0  0  0  0  0  0
  -23.2030  -28.8520   23.3510 O   0  0  0  0  0  0  0  0  0  0  0  0
  -20.6890  -29.9220   21.7930 H   0  0  0  0  0  0  0  0  0  0  0  0
  -17.8060  -28.1750   22.9680 C   0  0  0  0  0  0  0  0  0  0  0  0
  -20.3670  -28.4030   23.2250 C   0  0  0  0  0  3  0  0  0  0  0  0
  -20.4470  -26.9680   22.6540 C   0  0  0  0  0  2  0  0  0  0  0  0
  -19.3390  -26.6600   21.6430 C   0  0  0  0  0  2  0  0  0  0  0  0
  -17.9640  -26.8220   22.2970 C   0  0  0  0  0  2  0  0  0  0  0  0
  -18.9360  -28.9250   23.3910 C   0  0  0  0  0  0  0  0  0  0  0  0
  -18.7340  -30.1930   23.9770 C   0  0  0  0  0  3  0  0  0  0  0  0
  -17.4370  -30.7120   24.1450 C   0  0  0  0  0  3  0  0  0  0  0  0
  -16.3220  -29.9560   23.7430 C   0  0  0  0  0  3  0  0  0  0  0  0
  -16.5080  -28.6900   23.1600 C   0  0  0  0  0  3  0  0  0  0  0  0
  -25.7520  -32.4690   23.8170 C   0  0  0  0  0  3  0  0  0  0  0  0
  -26.2810  -31.6780   25.0760 C   0  0  1  0  0  0  0  0  0  0  0  0
  -25.2100  -31.4560   26.1690 C   0  0  0  0  0  1  0  0  0  0  0  0
  -26.8230  -30.2940   24.6540 C   0  0  0  0  0  1  0  0  0  0  0  0
  -27.4690  -32.4330   25.7160 C   0  0  0  0  0  1  0  0  0  0  0  0
  -25.4900  -33.8740   24.1580 N   0  0  0  0  0  0  0  0  0  0  0  0
  -25.8400  -34.9180   23.3940 C   0  0  0  0  0  0  0  0  0  0  0  0
  -26.4970  -34.7970   22.3560 O   0  0  0  0  0  0  0  0  0  0  0  0
  -24.9250  -34.0430   24.9770 H   0  0  0  0  0  0  0  0  0  0  0  0
  -24.1620  -36.7550   23.0550 C   0  0  0  0  0  1  0  0  0  0  0  0
  -25.3970  -36.3170   23.8590 C   0  0  0  0  0  3  0  0  0  0  0  0
  -27.5610  -37.1350   24.6790 C   0  0  0  0  0  1  0  0  0  0  0  0
  -26.4590  -37.3410   23.7440 N   0  0  0  0  0  0  0  0  0  0  0  0
  -26.0810  -38.2710   23.9050 H   0  0  0  0  0  0  0  0  0  0  0  0
  -31.5850  -24.5470   21.5520 C   0  0  0  0  0  1  0  0  0  0  0  0
  -30.7460  -23.5080   20.7690 C   0  0  0  0  0  3  0  0  0  0  0  0
  -31.1530  -20.9480   21.6620 C   0  0  0  0  0  2  0  0  0  0  0  0
  -31.6470  -20.1120   20.4750 C   0  0  0  0  0  3  0  0  0  0  0  0
  -31.5610  -22.1690   20.8350 C   0  0  0  0  0  3  0  0  0  0  0  0
  -31.5850  -21.3110   19.6370 N   0  0  0  0  0  4  0  0  0  0  0  0
  -30.7690  -21.3260   19.0570 H   0  0  0  0  0  0  0  0  0  0  0  0
  -32.4160  -21.4360   19.0770 H   0  0  0  0  0  0  0  0  0  0  0  0
  -30.6990  -19.0110   20.0260 C   0  0  0  0  0  3  0  0  0  0  0  0
  -31.1160  -17.8260   19.5600 C   0  0  0  0  0  3  0  0  0  0  0  0
  -30.1940  -16.6770   19.1900 C   0  0  0  0  0  2  0  0  0  0  0  0
  -31.0290  -14.5330   20.0310 C   0  0  0  0  0  0  0  0  0  0  0  0
  -30.7070  -12.3490   18.9580 C   0  0  0  0  0  2  0  0  0  0  0  0
  -29.7340  -12.5400   17.7740 C   0  0  0  0  0  2  0  0  0  0  0  0
  -28.2590  -12.4550   18.2310 C   0  0  0  0  0  2  0  0  0  0  0  0
  -27.9700  -13.3070   19.4960 C   0  0  0  0  0  3  0  0  0  0  0  0
  -29.0470  -13.0640   20.5750 C   0  0  0  0  0  2  0  0  0  0  0  0
  -30.3600  -13.3520   19.9740 N   0  0  0  0  0  0  0  0  0  0  0  0
  -32.1630  -14.6790   19.5590 O   0  0  0  0  0  0  0  0  0  0  0  0
  -29.8700  -16.0960   21.5460 C   0  0  0  0  0  1  0  0  0  0  0  0
  -30.2340  -15.6150   20.2090 N   0  0  0  0  0  0  0  0  0  0  0  0
  -25.5980  -13.9880   20.2300 C   0  0  0  0  0  0  0  0  0  0  0  0
  -24.5240  -13.2470   20.6470 C   0  0  0  0  0  0  0  0  0  0  0  0
  -24.9600  -11.8880   20.6460 C   0  0  0  0  0  0  0  0  0  0  0  0
  -26.6220  -13.0780   20.0090 N   0  0  0  0  0  0  0  0  0  0  0  0
  -26.2410  -11.8130   20.3100 N   0  0  0  0  0  0  0  0  0  0  0  0
  -24.2140  -10.6450   20.8890 C   0  0  0  0  0  0  0  0  0  0  0  0
  -24.6160   -9.7290   21.8830 C   0  0  0  0  0  3  0  0  0  0  0  0
  -23.8740   -8.5500   22.1080 C   0  0  0  0  0  3  0  0  0  0  0  0
  -22.7180   -8.2800   21.3380 C   0  0  0  0  0  0  0  0  0  0  0  0
  -22.3360   -9.1860   20.3340 C   0  0  0  0  0  3  0  0  0  0  0  0
  -23.0790  -10.3570   20.1060 C   0  0  0  0  0  3  0  0  0  0  0  0
  -21.9500   -7.1480   21.4720 O   0  0  0  0  0  0  0  0  0  0  0  0
  -21.8160   -6.5050   22.6760 C   0  0  0  0  0  0  0  0  0  0  0  0
  -21.3110   -7.1610   23.8210 C   0  0  0  0  0  3  0  0  0  0  0  0
  -21.1260   -6.4460   25.0190 C   0  0  0  0  0  3  0  0  0  0  0  0
  -21.4330   -5.0730   25.0770 C   0  0  0  0  0  0  0  0  0  0  0  0
  -21.9310   -4.4160   23.9370 C   0  0  0  0  0  3  0  0  0  0  0  0
  -22.1190   -5.1290   22.7420 C   0  0  0  0  0  0  0  0  0  0  0  0
  -22.5770   -4.4860   21.6400 F   0  0  0  0  0  0  0  0  0  0  0  0
  -21.2500   -4.3820   26.2270 F   0  0  0  0  0  0  0  0  0  0  0  0
  -23.1410  -13.7610   20.9350 C   0  0  0  0  0  0  0  0  0  0  0  0
  -22.4230  -13.1070   21.8440 N   0  0  0  0  0  0  0  0  0  0  0  0
  -22.7060  -14.7740   20.3900 O   0  0  0  0  0  0  0  0  0  0  0  0
  -22.7890  -12.2890   22.3070 H   0  0  0  0  0  0  0  0  0  0  0  0
  -21.4970  -13.4340   22.0820 H   0  0  0  0  0  0  0  0  0  0  0  0
  -25.7830  -15.3470   20.0050 N   0  0  0  0  0  0  0  0  0  0  0  0
  -25.0340  -16.0210   20.1150 H   0  0  0  0  0  0  0  0  0  0  0  0
  -26.6410  -15.7590   19.6560 H   0  0  0  0  0  0  0  0  0  0  0  0
  1  8  1  0
  2  4  1  0
  2  5  1  0
  2  1  1  0
  3  2  1  0
  8  6  1  1
  8  7  1  0
  9 10  1  0
  9  8  1  0
 10 12  1  0
 11 22  2  0
 12 17  1  0
 13 21  1  0
 13 23  1  0
 14 20  1  0
 14 16  1  0
 15 21  1  0
 16 15  1  0
 17 16  2  0
 18 19  1  0
 18 12  2  0
 19 14  2  0
 20 13  1  0
 21 11  1  0
 23 25  2  0
 24 23  1  0
 26 24  1  0
 27 36  2  0
 27 32  1  0
 28 24  1  0
 28 32  1  0
 29 28  1  0
 30 31  1  0
 30 29  1  0
 31 27  1  0
 32 33  2  0
 33 34  1  0
 35 34  2  0
 36 35  1  0
 37 11  1  0
 37 42  1  0
 37 38  1  0
 38 41  1  1
 38 39  1  0
 40 38  1  0
 42 45  1  0
 43 47  1  0
 43 42  1  0
 44 43  2  0
 47 46  1  0
 49 47  1  0
 49 50  1  0
 49 48  1  0
 52  1  1  0
 52 51  1  0
 54 59  1  0
 54 53  1  0
 55 52  1  0
 55 53  1  0
 56 54  1  0
 56 55  1  0
 57 56  1  0
 58 56  1  0
 60 59  2  0
 61 60  1  0
 61 71  1  0
 62 71  1  0
 63 68  1  0
 64 65  1  0
 64 63  1  0
 66 65  1  0
 66 75  1  0
 66 67  1  0
 68 62  1  0
 68 67  1  0
 69 62  2  0
 71 70  1  0
 72 73  2  0
 73 92  1  0
 74 73  1  0
 74 77  1  0
 75 72  1  0
 75 76  1  0
 76 74  2  0
 77 78  1  0
 78 79  2  0
 80 83  1  0
 80 79  1  0
 81 80  2  0
 82 81  1  0
 82 77  2  0
 83 84  1  0
 84 89  2  0
 84 85  1  0
 85 86  2  0
 86 87  1  0
 87 91  1  0
 88 87  2  0
 89 88  1  0
 90 89  1  0
 92 93  1  0
 93 96  1  0
 93 95  1  0
 94 92  2  0
 97 98  1  0
 97 72  1  0
 99 97  1  0
M  ISO  4   9 101  10 101  62 100  71 100
M  END
>  <TORSDO>  (43) 
F 23

>  <SCORE>  (43) 
-11.998

>  <name>  (43) 
43

>  <ligand_id>  (43) 
43

>  <original_smiles>  (43) 
[H]C(=C([H])C1([H])C([H])([H])C([H])(C([H])(C([H])([H])[H])C([H])(C(C([H])([H])[H])(C([H])([H])[H])C([H])([H])Oc2c([H])c([H])c3c(c2[H])C([H])([H])N(C(=O)C([H])(N([H])C(=O)C([H])(N([H])C([H])([H])[H])C([H])([H])[H])C(C([H])([H])[H])(C([H])([H])[H])C([H])([H])[H])C([H])(C(=O)N([H])C2([H])c4c([H])c([H])c([H])c([H])c4C([H])([H])C([H])([H])C2([H])[H])C3([H])[H])[N+]([H])([H])[H])[N+]1([H])[H])C([H])([H])N(C(=O)N1C([H])([H])C([H])([H])C([H])([H])C([H])(n2nc(-c3c([H])c([H])c(Oc4c([H])c([H])c(F)c([H])c4F)c([H])c3[H])c(C(=O)N([H])[H])c2N([H])[H])C1([H])[H])C([H])([H])[H]

>  <smiles>  (43) 
[H]C(=C([H])C1([H])C([H])([H])C([H])(C([H])(C([H])([H])[H])C([H])(C(C([H])([H])[H])(C([H])([H])[H])C([H])([H])Oc2c([H])c([H])c3c(c2[H])C([H])([H])N(C(=O)C([H])(N([H])C(=O)C([H])(N([H])C([H])([H])[H])C([H])([H])[H])C(C([H])([H])[H])(C([H])([H])[H])C([H])([H])[H])C([H])(C(=O)N([H])C2([H])c4c([H])c([H])c([H])c([H])c4C([H])([H])C([H])([H])C2([H])[H])C3([H])[H])[N+]([H])([H])[H])[N+]1([H])[H])C([H])([H])N(C(=O)N1C([H])([H])C([H])([H])C([H])([H])C([H])(n2nc(-c3c([H])c([H])c(Oc4c([H])c([H])c(F)c([H])c4F)c([H])c3[H])c(C(=O)N([H])[H])c2N([H])[H])C1([H])[H])C([H])([H])[H]

$$$$
44:0:0
     RDKit          3D

 95103  0  0  1  0  0  0  0  0999 V2000
  -31.2240  -20.7140   20.9060 C   0  0  0  0  0  1  0  0  0  0  0  0
  -29.7990  -20.5070   20.5710 N   0  0  2  0  0  4  0  0  0  0  0  0
  -29.3790  -20.5620   21.4850 H   0  0  0  0  0  0  0  0  0  0  0  0
  -30.5500  -15.0260   20.2890 C   0  0  0  0  0  0  0  0  0  0  0  0
  -30.3430  -12.6620   19.3700 C   0  0  0  0  0  2  0  0  0  0  0  0
  -29.4030  -12.5890   18.1420 C   0  0  0  0  0  2  0  0  0  0  0  0
  -27.9430  -12.3860   18.5870 C   0  0  0  0  0  2  0  0  0  0  0  0
  -27.5470  -13.3240   19.7530 C   0  0  0  0  0  3  0  0  0  0  0  0
  -28.6240  -13.3880   20.8640 C   0  0  0  0  0  2  0  0  0  0  0  0
  -29.8830  -13.7980   20.2230 N   0  0  0  0  0  0  0  0  0  0  0  0
  -31.7760  -14.9920   20.1380 O   0  0  0  0  0  0  0  0  0  0  0  0
  -29.2590  -16.8170   19.0180 C   0  0  0  0  0  2  0  0  0  0  0  0
  -30.2630  -17.6660   20.9080 C   0  0  0  0  0  2  0  0  0  0  0  0
  -29.3920  -18.4020   18.8290 C   0  0  0  0  0  3  0  0  0  0  0  0
  -29.4760  -18.9560   20.2610 C   0  0  0  0  0  3  0  0  0  0  0  0
  -29.8770  -16.3010   20.2730 N   0  0  0  0  0  0  0  0  0  0  0  0
  -25.1850  -13.8990   20.5300 C   0  0  0  0  0  0  0  0  0  0  0  0
  -24.1190  -13.1210   20.8950 C   0  0  0  0  0  0  0  0  0  0  0  0
  -24.5810  -11.7720   20.8630 C   0  0  0  0  0  0  0  0  0  0  0  0
  -26.2210  -13.0180   20.2790 N   0  0  0  0  0  0  0  0  0  0  0  0
  -25.8730  -11.7320   20.5510 N   0  0  0  0  0  0  0  0  0  0  0  0
  -23.8510  -10.5100   21.0560 C   0  0  0  0  0  0  0  0  0  0  0  0
  -24.2880   -9.5360   21.9790 C   0  0  0  0  0  3  0  0  0  0  0  0
  -23.5590   -8.3400   22.1580 C   0  0  0  0  0  3  0  0  0  0  0  0
  -22.3800   -8.1090   21.4130 C   0  0  0  0  0  0  0  0  0  0  0  0
  -21.9650   -9.0700   20.4770 C   0  0  0  0  0  3  0  0  0  0  0  0
  -22.6940  -10.2580   20.2950 C   0  0  0  0  0  3  0  0  0  0  0  0
  -21.6210   -6.9670   21.5030 O   0  0  0  0  0  0  0  0  0  0  0  0
  -21.5880   -6.2140   22.6480 C   0  0  0  0  0  0  0  0  0  0  0  0
  -21.1940   -6.7640   23.8880 C   0  0  0  0  0  3  0  0  0  0  0  0
  -21.1040   -5.9370   25.0260 C   0  0  0  0  0  3  0  0  0  0  0  0
  -21.4020   -4.5650   24.9280 C   0  0  0  0  0  0  0  0  0  0  0  0
  -21.7970   -4.0180   23.6940 C   0  0  0  0  0  3  0  0  0  0  0  0
  -21.8890   -4.8410   22.5590 C   0  0  0  0  0  0  0  0  0  0  0  0
  -22.2470   -4.3040   21.3650 F   0  0  0  0  0  0  0  0  0  0  0  0
  -21.3120   -3.7700   26.0180 F   0  0  0  0  0  0  0  0  0  0  0  0
  -22.7240  -13.6020   21.1650 C   0  0  0  0  0  0  0  0  0  0  0  0
  -22.0000  -12.8960   22.0300 N   0  0  0  0  0  0  0  0  0  0  0  0
  -22.2890  -14.6280   20.6490 O   0  0  0  0  0  0  0  0  0  0  0  0
  -22.3820  -12.0730   22.4650 H   0  0  0  0  0  0  0  0  0  0  0  0
  -21.0610  -13.1870   22.2540 H   0  0  0  0  0  0  0  0  0  0  0  0
  -25.3530  -15.2670   20.3600 N   0  0  0  0  0  0  0  0  0  0  0  0
  -24.5910  -15.9240   20.4610 H   0  0  0  0  0  0  0  0  0  0  0  0
  -26.2100  -15.6970   20.0380 H   0  0  0  0  0  0  0  0  0  0  0  0
  -30.5930  -18.7950   17.9300 C   0  0  0  0  0  2  0  0  0  0  0  0
  -30.4000  -18.3440   16.5410 N   0  0  0  0  0  4  0  0  0  0  0  0
  -30.0190  -17.4170   16.4960 H   0  0  0  0  0  0  0  0  0  0  0  0
  -31.2870  -18.3520   16.0750 H   0  0  0  0  0  0  0  0  0  0  0  0
  -29.7880  -18.9650   16.0420 H   0  0  0  0  0  0  0  0  0  0  0  0
  -29.1190  -21.7960   19.8840 C   0  0  0  0  0  2  0  0  0  0  0  0
  -30.7410  -23.9140   20.1060 C   0  0  0  0  0  1  0  0  0  0  0  0
  -29.1220  -23.4490   21.9250 C   0  0  0  0  0  1  0  0  0  0  0  0
  -29.2930  -23.4420   20.4000 C   0  0  2  0  0  0  0  0  0  0  0  0
  -28.3360  -24.7370   19.8200 C   0  0  0  0  0  2  0  0  0  0  0  0
  -28.3650  -26.2370   20.2760 O   0  0  0  0  0  0  0  0  0  0  0  0
  -24.6120  -31.8800   23.2470 C   0  0  0  0  0  0  0  0  0  0  0  0
  -27.2570  -27.1690   20.2080 C   0  0  0  0  0  0  0  0  0  0  0  0
  -23.4270  -30.4680   21.6100 C   0  0  0  0  0  3  0  0  0  0  0  0
  -24.8930  -28.8870   20.1980 C   0  0  0  0  0  0  0  0  0  0  0  0
  -25.9830  -30.7350   21.4600 C   0  0  0  0  0  2  0  0  0  0  0  0
  -26.0670  -29.3440   20.8050 C   0  0  0  0  0  0  0  0  0  0  0  0
  -27.2460  -28.5050   20.7880 C   0  0  0  0  0  3  0  0  0  0  0  0
  -26.0480  -26.8110   19.5680 C   0  0  0  0  0  3  0  0  0  0  0  0
  -24.8970  -27.6350   19.5610 C   0  0  0  0  0  3  0  0  0  0  0  0
  -23.6540  -29.7670   20.2460 C   0  0  0  0  0  2  0  0  0  0  0  0
  -24.6930  -31.0510   22.1600 N   0  0  0  0  0  0  0  0  0  0  0  0
  -23.5250  -32.1670   23.7710 O   0  0  0  0  0  0  0  0  0  0  0  0
  -22.7410  -29.4750   22.5810 C   0  0  0  0  0  0  0  0  0  0  0  0
  -21.4110  -29.3170   22.4590 N   0  0  0  0  0  0  0  0  0  0  0  0
  -23.4070  -28.8430   23.4070 O   0  0  0  0  0  0  0  0  0  0  0  0
  -20.9300  -29.8730   21.7660 H   0  0  0  0  0  0  0  0  0  0  0  0
  -18.0270  -28.1200   22.9600 C   0  0  0  0  0  0  0  0  0  0  0  0
  -20.5860  -28.3840   23.2310 C   0  0  0  0  0  3  0  0  0  0  0  0
  -20.6860  -26.9510   22.6620 C   0  0  0  0  0  2  0  0  0  0  0  0
  -19.5830  -26.6250   21.6480 C   0  0  0  0  0  2  0  0  0  0  0  0
  -18.2020  -26.7700   22.2900 C   0  0  0  0  0  2  0  0  0  0  0  0
  -19.1440  -28.8850   23.3880 C   0  0  0  0  0  0  0  0  0  0  0  0
  -18.9220  -30.1490   23.9780 C   0  0  0  0  0  3  0  0  0  0  0  0
  -17.6140  -30.6450   24.1480 C   0  0  0  0  0  3  0  0  0  0  0  0
  -16.5110  -29.8780   23.7330 C   0  0  0  0  0  3  0  0  0  0  0  0
  -16.7200  -28.6190   23.1430 C   0  0  0  0  0  3  0  0  0  0  0  0
  -25.8870  -32.5210   23.8840 C   0  0  0  0  0  3  0  0  0  0  0  0
  -25.5740  -33.9230   24.2040 N   0  0  0  0  0  0  0  0  0  0  0  0
  -25.9110  -34.9760   23.4450 C   0  0  0  0  0  0  0  0  0  0  0  0
  -26.5820  -34.8680   22.4160 O   0  0  0  0  0  0  0  0  0  0  0  0
  -24.9710  -34.0790   24.9990 H   0  0  0  0  0  0  0  0  0  0  0  0
  -24.1810  -36.7730   23.1080 C   0  0  0  0  0  1  0  0  0  0  0  0
  -25.4300  -36.3660   23.9040 C   0  0  0  0  0  3  0  0  0  0  0  0
  -27.5740  -37.2580   24.7050 C   0  0  0  0  0  1  0  0  0  0  0  0
  -26.4620  -37.4180   23.7710 N   0  0  0  0  0  0  0  0  0  0  0  0
  -26.0580  -38.3370   23.9250 H   0  0  0  0  0  0  0  0  0  0  0  0
  -26.3870  -31.7630   25.1770 C   0  0  1  0  0  0  0  0  0  0  0  0
  -25.2790  -31.5490   26.2340 C   0  0  0  0  0  1  0  0  0  0  0  0
  -26.9710  -30.3770   24.8190 C   0  0  0  0  0  1  0  0  0  0  0  0
  -27.5330  -32.5670   25.8410 C   0  0  0  0  0  1  0  0  0  0  0  0
  2  1  1  0
  2  3  1  1
  5 10  1  0
  6  7  1  0
  6  5  1  0
  8  7  1  0
  8 20  1  0
  8  9  1  0
 10  4  1  0
 10  9  1  0
 11  4  2  0
 12 16  1  0
 14 45  1  0
 14 12  1  0
 14 15  1  0
 15  2  1  0
 15 13  1  0
 16  4  1  0
 16 13  1  0
 17 18  2  0
 18 37  1  0
 19 18  1  0
 19 22  1  0
 20 17  1  0
 20 21  1  0
 21 19  2  0
 22 23  1  0
 23 24  2  0
 25 28  1  0
 25 24  1  0
 26 25  2  0
 27 26  1  0
 27 22  2  0
 28 29  1  0
 29 30  1  0
 30 31  2  0
 32 31  1  0
 32 36  1  0
 33 32  2  0
 34 29  2  0
 34 33  1  0
 35 34  1  0
 37 38  1  0
 38 41  1  0
 38 40  1  0
 39 37  2  0
 42 43  1  0
 42 17  1  0
 44 42  1  0
 46 45  1  0
 47 46  1  0
 48 46  1  0
 49 46  1  0
 50 53  1  0
 50  2  1  0
 53 51  1  1
 53 52  1  0
 54 55  1  0
 54 53  1  0
 56 67  2  0
 57 55  1  0
 57 62  1  0
 58 66  1  0
 58 68  1  0
 59 65  1  0
 59 61  1  0
 60 66  1  0
 61 60  1  0
 62 61  2  0
 63 57  2  0
 64 63  1  0
 64 59  2  0
 65 58  1  0
 66 56  1  0
 68 70  2  0
 69 68  1  0
 71 69  1  0
 72 81  2  0
 72 77  1  0
 73 69  1  0
 73 77  1  0
 74 73  1  0
 75 76  1  0
 75 74  1  0
 76 72  1  0
 77 78  2  0
 78 79  1  0
 80 79  2  0
 81 80  1  0
 82 56  1  0
 82 83  1  0
 82 92  1  0
 83 86  1  0
 84 88  1  0
 84 83  1  0
 85 84  2  0
 88 87  1  0
 90 88  1  0
 90 91  1  0
 90 89  1  0
 92 95  1  1
 92 93  1  0
 94 92  1  0
M  ISO  4   4 100  16 100  54 101  55 101
M  END
>  <TORSDO>  (44) 
F 21

>  <SCORE>  (44) 
-15.103

>  <name>  (44) 
44

>  <ligand_id>  (44) 
44

>  <original_smiles>  (44) 
[H]c1c([H])c([H])c2c(c1[H])C([H])([H])C([H])([H])C([H])([H])C2([H])N([H])C(=O)C1([H])N(C(=O)C([H])(N([H])C(=O)C([H])(N([H])C([H])([H])[H])C([H])([H])[H])C(C([H])([H])[H])(C([H])([H])[H])C([H])([H])[H])C([H])([H])c2c([H])c(OC([H])([H])C(C([H])([H])[H])(C([H])([H])[H])C([H])([H])[N+]([H])(C([H])([H])[H])C3([H])C([H])([H])N(C(=O)N4C([H])([H])C([H])([H])C([H])([H])C([H])(n5nc(-c6c([H])c([H])c(Oc7c([H])c([H])c(F)c([H])c7F)c([H])c6[H])c(C(=O)N([H])[H])c5N([H])[H])C4([H])[H])C([H])([H])C3([H])C([H])([H])[N+]([H])([H])[H])c([H])c([H])c2C1([H])[H]

>  <smiles>  (44) 
[H]c1c([H])c([H])c2c(c1[H])C([H])([H])C([H])([H])C([H])([H])C2([H])N([H])C(=O)C1([H])N(C(=O)C([H])(N([H])C(=O)C([H])(N([H])C([H])([H])[H])C([H])([H])[H])C(C([H])([H])[H])(C([H])([H])[H])C([H])([H])[H])C([H])([H])c2c([H])c(OC([H])([H])C(C([H])([H])[H])(C([H])([H])[H])C([H])([H])[N+]([H])(C([H])([H])[H])C3([H])C([H])([H])N(C(=O)N4C([H])([H])C([H])([H])C([H])([H])C([H])(n5nc(-c6c([H])c([H])c(Oc7c([H])c([H])c(F)c([H])c7F)c([H])c6[H])c(C(=O)N([H])[H])c5N([H])[H])C4([H])[H])C([H])([H])C3([H])C([H])([H])[N+]([H])([H])[H])c([H])c([H])c2C1([H])[H]

$$$$
45:0:0
     RDKit          3D

 96104  0  0  1  0  0  0  0  0999 V2000
  -30.8900  -15.0360   20.0070 C   0  0  0  0  0  0  0  0  0  0  0  0
  -30.7950  -12.5390   19.5570 C   0  0  0  0  0  2  0  0  0  0  0  0
  -29.8950  -12.1750   18.3560 C   0  0  0  0  0  2  0  0  0  0  0  0
  -28.4380  -11.9830   18.8190 C   0  0  0  0  0  2  0  0  0  0  0  0
  -27.9640  -13.1250   19.7500 C   0  0  0  0  0  3  0  0  0  0  0  0
  -28.9980  -13.4730   20.8460 C   0  0  0  0  0  2  0  0  0  0  0  0
  -30.2610  -13.7960   20.1640 N   0  0  0  0  0  0  0  0  0  0  0  0
  -32.1150  -15.0060   19.8410 O   0  0  0  0  0  0  0  0  0  0  0  0
  -28.7780  -16.5380   19.5610 C   0  0  0  0  0  2  0  0  0  0  0  0
  -30.7710  -17.7130   19.5990 C   0  0  0  0  0  2  0  0  0  0  0  0
  -28.5770  -18.0010   19.0020 C   0  0  0  0  0  3  0  0  0  0  0  0
  -29.6470  -18.9290   19.6390 C   0  0  1  0  0  0  0  0  0  0  0  0
  -30.2040  -16.2870   19.8290 N   0  0  0  0  0  0  0  0  0  0  0  0
  -25.6520  -13.8390   20.5780 C   0  0  0  0  0  0  0  0  0  0  0  0
  -24.5540  -13.1230   20.9600 C   0  0  0  0  0  0  0  0  0  0  0  0
  -24.9340  -11.7480   20.8810 C   0  0  0  0  0  0  0  0  0  0  0  0
  -26.6310  -12.9040   20.2860 N   0  0  0  0  0  0  0  0  0  0  0  0
  -26.2120  -11.6400   20.5390 N   0  0  0  0  0  0  0  0  0  0  0  0
  -24.1410  -10.5270   21.0470 C   0  0  0  0  0  0  0  0  0  0  0  0
  -24.5280   -9.5160   21.9530 C   0  0  0  0  0  3  0  0  0  0  0  0
  -23.7370   -8.3590   22.1120 C   0  0  0  0  0  3  0  0  0  0  0  0
  -22.5450   -8.2080   21.3650 C   0  0  0  0  0  0  0  0  0  0  0  0
  -22.1760   -9.2070   20.4480 C   0  0  0  0  0  3  0  0  0  0  0  0
  -22.9670  -10.3560   20.2860 C   0  0  0  0  0  3  0  0  0  0  0  0
  -21.7280   -7.1050   21.4380 O   0  0  0  0  0  0  0  0  0  0  0  0
  -21.6430   -6.3450   22.5760 C   0  0  0  0  0  0  0  0  0  0  0  0
  -21.2320   -6.8950   23.8100 C   0  0  0  0  0  3  0  0  0  0  0  0
  -21.0930   -6.0640   24.9400 C   0  0  0  0  0  3  0  0  0  0  0  0
  -21.3530   -4.6840   24.8360 C   0  0  0  0  0  0  0  0  0  0  0  0
  -21.7570   -4.1340   23.6060 C   0  0  0  0  0  3  0  0  0  0  0  0
  -21.8990   -4.9620   22.4790 C   0  0  0  0  0  0  0  0  0  0  0  0
  -22.2680   -4.4250   21.2910 F   0  0  0  0  0  0  0  0  0  0  0  0
  -21.2120   -3.8830   25.9170 F   0  0  0  0  0  0  0  0  0  0  0  0
  -23.1930  -13.6760   21.2680 C   0  0  0  0  0  0  0  0  0  0  0  0
  -22.4380  -13.0030   22.1270 N   0  0  0  0  0  0  0  0  0  0  0  0
  -22.8110  -14.7400   20.7800 O   0  0  0  0  0  0  0  0  0  0  0  0
  -22.7580  -12.1410   22.5430 H   0  0  0  0  0  0  0  0  0  0  0  0
  -21.5220  -13.3550   22.3730 H   0  0  0  0  0  0  0  0  0  0  0  0
  -25.8850  -15.2020   20.4110 N   0  0  0  0  0  0  0  0  0  0  0  0
  -25.0640  -15.7980   20.4330 H   0  0  0  0  0  0  0  0  0  0  0  0
  -26.5400  -15.4670   19.6900 H   0  0  0  0  0  0  0  0  0  0  0  0
  -29.3400  -19.2240   21.1400 C   0  0  0  0  0  0  0  0  0  0  0  0
  -28.5640  -20.2560   21.4490 N   0  0  0  0  0  0  0  0  0  0  0  0
  -29.7940  -18.5230   22.0430 O   0  0  0  0  0  0  0  0  0  0  0  0
  -28.2110  -20.8860   20.7380 H   0  0  0  0  0  0  0  0  0  0  0  0
  -28.3570  -20.4520   22.4190 H   0  0  0  0  0  0  0  0  0  0  0  0
  -27.1730  -18.4660   19.0770 N   0  0  0  0  0  4  0  0  0  0  0  0
  -26.8250  -18.4480   20.0210 H   0  0  0  0  0  0  0  0  0  0  0  0
  -26.5760  -17.8870   18.5130 H   0  0  0  0  0  0  0  0  0  0  0  0
  -27.0930  -19.4100   18.7280 H   0  0  0  0  0  0  0  0  0  0  0  0
  -29.9210  -20.4200   18.8750 C   0  0  0  0  0  2  0  0  0  0  0  0
  -28.8340  -21.6430   18.6460 C   0  0  0  0  0  0  0  0  0  0  0  0
  -27.6450  -21.3080   18.6440 O   0  0  0  0  0  0  0  0  0  0  0  0
  -29.1890  -23.2440   18.4280 C   0  0  0  0  0  3  0  0  0  0  0  0
  -28.0620  -24.4910   18.3830 C   0  0  0  0  0  3  0  0  0  0  0  0
  -28.2920  -26.0230   18.5570 O   0  0  0  0  0  0  0  0  0  0  0  0
  -24.7160  -30.9380   22.7350 C   0  0  0  0  0  0  0  0  0  0  0  0
  -27.1990  -26.9460   18.7490 C   0  0  0  0  0  0  0  0  0  0  0  0
  -23.4400  -29.8180   20.9490 C   0  0  0  0  0  3  0  0  0  0  0  0
  -24.8270  -28.5760   19.1780 C   0  0  0  0  0  0  0  0  0  0  0  0
  -25.9710  -30.1970   20.6790 C   0  0  0  0  0  2  0  0  0  0  0  0
  -26.0330  -28.9490   19.7820 C   0  0  0  0  0  0  0  0  0  0  0  0
  -27.2190  -28.1540   19.5530 C   0  0  0  0  0  3  0  0  0  0  0  0
  -25.9590  -26.6740   18.1300 C   0  0  0  0  0  3  0  0  0  0  0  0
  -24.8000  -27.4530   18.3380 C   0  0  0  0  0  3  0  0  0  0  0  0
  -23.5850  -29.4080   19.4600 C   0  0  0  0  0  2  0  0  0  0  0  0
  -24.7320  -30.3300   21.5100 N   0  0  0  0  0  0  0  0  0  0  0  0
  -23.6610  -31.0870   23.3720 O   0  0  0  0  0  0  0  0  0  0  0  0
  -22.8520  -28.6310   21.7530 C   0  0  0  0  0  0  0  0  0  0  0  0
  -21.5260  -28.4250   21.6620 N   0  0  0  0  0  0  0  0  0  0  0  0
  -23.5890  -27.9040   22.4240 O   0  0  0  0  0  0  0  0  0  0  0  0
  -20.9830  -29.0700   21.1040 H   0  0  0  0  0  0  0  0  0  0  0  0
  -18.2220  -27.0080   22.1100 C   0  0  0  0  0  0  0  0  0  0  0  0
  -20.7810  -27.3350   22.2990 C   0  0  0  0  0  3  0  0  0  0  0  0
  -20.9020  -26.0260   21.4860 C   0  0  0  0  0  2  0  0  0  0  0  0
  -19.7600  -25.8300   20.4840 C   0  0  0  0  0  2  0  0  0  0  0  0
  -18.4110  -25.8020   21.2070 C   0  0  0  0  0  2  0  0  0  0  0  0
  -19.3340  -27.7370   22.6110 C   0  0  0  0  0  0  0  0  0  0  0  0
  -19.1000  -28.8690   23.4220 C   0  0  0  0  0  3  0  0  0  0  0  0
  -17.7890  -29.2730   23.7330 C   0  0  0  0  0  3  0  0  0  0  0  0
  -16.6930  -28.5410   23.2460 C   0  0  0  0  0  3  0  0  0  0  0  0
  -16.9110  -27.4090   22.4410 C   0  0  0  0  0  3  0  0  0  0  0  0
  -26.0180  -31.4970   23.3840 C   0  0  0  0  0  3  0  0  0  0  0  0
  -25.7040  -32.8190   23.9490 N   0  0  0  0  0  0  0  0  0  0  0  0
  -25.9610  -33.9880   23.3460 C   0  0  0  0  0  0  0  0  0  0  0  0
  -26.5560  -34.0660   22.2680 O   0  0  0  0  0  0  0  0  0  0  0  0
  -25.1670  -32.8290   24.8030 H   0  0  0  0  0  0  0  0  0  0  0  0
  -24.1750  -35.7610   23.4100 C   0  0  0  0  0  1  0  0  0  0  0  0
  -25.4850  -35.2750   24.0510 C   0  0  0  0  0  3  0  0  0  0  0  0
  -27.6600  -36.0910   24.8490 C   0  0  0  0  0  1  0  0  0  0  0  0
  -26.4850  -36.3650   24.0250 N   0  0  0  0  0  0  0  0  0  0  0  0
  -26.0730  -37.2380   24.3400 H   0  0  0  0  0  0  0  0  0  0  0  0
  -26.6100  -30.5510   24.5010 C   0  0  1  0  0  0  0  0  0  0  0  0
  -25.5800  -30.1380   25.5780 C   0  0  0  0  0  1  0  0  0  0  0  0
  -27.1820  -29.2550   23.8790 C   0  0  0  0  0  1  0  0  0  0  0  0
  -27.7890  -31.2540   25.2140 C   0  0  0  0  0  1  0  0  0  0  0  0
  1  7  1  0
  2  7  1  0
  3  4  1  0
  3  2  1  0
  5  4  1  0
  5 17  1  0
  5  6  1  0
  7  6  1  0
  8  1  2  0
  9 13  1  0
 10 12  1  0
 10 13  1  0
 11 47  1  0
 11  9  1  0
 11 12  1  0
 12 51  1  6
 12 42  1  0
 13  1  1  0
 14 15  2  0
 15 34  1  0
 16 15  1  0
 16 19  1  0
 17 18  1  0
 17 14  1  0
 18 16  2  0
 19 20  1  0
 20 21  2  0
 22 25  1  0
 22 21  1  0
 23 22  2  0
 24 23  1  0
 24 19  2  0
 25 26  1  0
 26 27  1  0
 27 28  2  0
 29 28  1  0
 29 33  1  0
 30 29  2  0
 31 26  2  0
 31 30  1  0
 32 31  1  0
 34 35  1  0
 35 38  1  0
 35 37  1  0
 36 34  2  0
 39 40  1  0
 39 14  1  0
 41 39  1  0
 42 43  1  0
 42 44  2  0
 43 46  1  0
 45 43  1  0
 47 48  1  0
 49 47  1  0
 50 47  1  0
 52 51  1  0
 53 52  2  0
 54 52  1  0
 55 54  2  0
 55 56  1  0
 56 58  1  0
 57 68  2  0
 58 63  1  0
 59 67  1  0
 59 69  1  0
 60 66  1  0
 60 62  1  0
 61 67  1  0
 62 61  1  0
 63 62  2  0
 64 65  1  0
 64 58  2  0
 65 60  2  0
 66 59  1  0
 67 57  1  0
 69 71  2  0
 70 69  1  0
 72 70  1  0
 73 82  2  0
 73 78  1  0
 74 70  1  0
 74 78  1  0
 75 74  1  0
 76 77  1  0
 76 75  1  0
 77 73  1  0
 78 79  2  0
 79 80  1  0
 81 80  2  0
 82 81  1  0
 83 57  1  0
 83 84  1  0
 83 93  1  0
 84 87  1  0
 85 84  1  0
 85 89  1  0
 86 85  2  0
 89 88  1  0
 91 89  1  0
 91 92  1  0
 91 90  1  0
 93 96  1  1
 93 94  1  0
 95 93  1  0
M  ISO  4   1 100  13 100  55 101  56 101
M  END
>  <TORSDO>  (45) 
F 21

>  <SCORE>  (45) 
-10.844

>  <name>  (45) 
45

>  <ligand_id>  (45) 
45

>  <original_smiles>  (45) 
[H]c1c([H])c([H])c2c(c1[H])C([H])([H])C([H])([H])C([H])([H])C2([H])N([H])C(=O)C1([H])N(C(=O)C([H])(N([H])C(=O)C([H])(N([H])C([H])([H])[H])C([H])([H])[H])C(C([H])([H])[H])(C([H])([H])[H])C([H])([H])[H])C([H])([H])c2c([H])c(OC([H])([H])C([H])([H])C(=O)C([H])([H])C3(C(=O)N([H])[H])C([H])([H])N(C(=O)N4C([H])([H])C([H])([H])C([H])([H])C([H])(n5nc(-c6c([H])c([H])c(Oc7c([H])c([H])c(F)c([H])c7F)c([H])c6[H])c(C(=O)N([H])[H])c5N([H])[H])C4([H])[H])C([H])([H])C3([H])[N+]([H])([H])[H])c([H])c([H])c2C1([H])[H]

>  <smiles>  (45) 
[H]c1c([H])c([H])c2c(c1[H])C([H])([H])C([H])([H])C([H])([H])C2([H])N([H])C(=O)C1([H])N(C(=O)C([H])(N([H])C(=O)C([H])(N([H])C([H])([H])[H])C([H])([H])[H])C(C([H])([H])[H])(C([H])([H])[H])C([H])([H])[H])C([H])([H])c2c([H])c(OC([H])([H])C([H])([H])C(=O)C([H])([H])C3(C(=O)N([H])[H])C([H])([H])N(C(=O)N4C([H])([H])C([H])([H])C([H])([H])C([H])(n5nc(-c6c([H])c([H])c(Oc7c([H])c([H])c(F)c([H])c7F)c([H])c6[H])c(C(=O)N([H])[H])c5N([H])[H])C4([H])[H])C([H])([H])C3([H])[N+]([H])([H])[H])c([H])c([H])c2C1([H])[H]

$$$$
46:0:0
     RDKit          3D

 94102  0  0  1  0  0  0  0  0999 V2000
  -28.7380  -22.4590   21.6780 C   0  0  0  0  0  0  0  0  0  0  0  0
  -28.8840  -23.7730   21.9030 N   0  0  0  0  0  0  0  0  0  0  0  0
  -27.7800  -21.9950   21.0610 O   0  0  0  0  0  0  0  0  0  0  0  0
  -29.7040  -24.0680   22.4170 H   0  0  0  0  0  0  0  0  0  0  0  0
  -29.8350  -21.5290   22.2240 C   0  0  0  0  0  2  0  0  0  0  0  0
  -30.2690  -20.4150   21.2330 C   0  0  0  0  0  2  0  0  0  0  0  0
  -30.6480  -16.8630   22.1860 C   0  0  0  0  0  0  0  0  0  0  0  0
  -30.7150  -18.3440   22.5730 C   0  0  0  0  0  2  0  0  0  0  0  0
  -29.6970  -18.1440   20.4210 C   0  0  0  0  0  2  0  0  0  0  0  0
  -29.7960  -16.6960   20.9310 C   0  0  0  0  0  3  0  0  0  0  0  0
  -29.8270  -19.0350   21.5980 N   0  0  2  0  0  4  0  0  0  0  0  0
  -31.1900  -15.9630   22.8360 O   0  0  0  0  0  0  0  0  0  0  0  0
  -28.9030  -19.0890   22.0040 H   0  0  0  0  0  0  0  0  0  0  0  0
  -30.9080  -14.5720   20.1500 C   0  0  0  0  0  0  0  0  0  0  0  0
  -30.5160  -12.4220   19.0420 C   0  0  0  0  0  2  0  0  0  0  0  0
  -29.5250  -12.6210   17.8710 C   0  0  0  0  0  2  0  0  0  0  0  0
  -28.0640  -12.5510   18.3610 C   0  0  0  0  0  2  0  0  0  0  0  0
  -27.7930  -13.3830   19.6440 C   0  0  0  0  0  3  0  0  0  0  0  0
  -28.8970  -13.1660   20.7040 C   0  0  0  0  0  2  0  0  0  0  0  0
  -30.1960  -13.4180   20.0680 N   0  0  0  0  0  0  0  0  0  0  0  0
  -32.1090  -14.6470   19.8820 O   0  0  0  0  0  0  0  0  0  0  0  0
  -30.0410  -16.0610   18.4780 C   0  0  0  0  0  1  0  0  0  0  0  0
  -30.1590  -15.6740   19.9040 N   0  0  0  0  0  0  0  0  0  0  0  0
  -25.4400  -14.0150   20.4690 C   0  0  0  0  0  0  0  0  0  0  0  0
  -24.3700  -13.2510   20.8480 C   0  0  0  0  0  0  0  0  0  0  0  0
  -24.8050  -11.8920   20.7640 C   0  0  0  0  0  0  0  0  0  0  0  0
  -26.4590  -13.1220   20.1750 N   0  0  0  0  0  0  0  0  0  0  0  0
  -26.0850  -11.8400   20.4170 N   0  0  0  0  0  0  0  0  0  0  0  0
  -24.0660  -10.6360   20.9390 C   0  0  0  0  0  0  0  0  0  0  0  0
  -24.5120   -9.6400   21.8360 C   0  0  0  0  0  3  0  0  0  0  0  0
  -23.7750   -8.4470   22.0040 C   0  0  0  0  0  3  0  0  0  0  0  0
  -22.5800   -8.2420   21.2760 C   0  0  0  0  0  0  0  0  0  0  0  0
  -22.1530   -9.2260   20.3670 C   0  0  0  0  0  3  0  0  0  0  0  0
  -22.8890  -10.4120   20.1960 C   0  0  0  0  0  3  0  0  0  0  0  0
  -21.8140   -7.1050   21.3550 O   0  0  0  0  0  0  0  0  0  0  0  0
  -21.7750   -6.3410   22.4930 C   0  0  0  0  0  0  0  0  0  0  0  0
  -21.4020   -6.8830   23.7420 C   0  0  0  0  0  3  0  0  0  0  0  0
  -21.3080   -6.0470   24.8730 C   0  0  0  0  0  3  0  0  0  0  0  0
  -21.5750   -4.6700   24.7550 C   0  0  0  0  0  0  0  0  0  0  0  0
  -21.9400   -4.1270   23.5110 C   0  0  0  0  0  3  0  0  0  0  0  0
  -22.0370   -4.9600   22.3820 C   0  0  0  0  0  0  0  0  0  0  0  0
  -22.3680   -4.4290   21.1810 F   0  0  0  0  0  0  0  0  0  0  0  0
  -21.4770   -3.8640   25.8400 F   0  0  0  0  0  0  0  0  0  0  0  0
  -22.9880  -13.7410   21.1760 C   0  0  0  0  0  0  0  0  0  0  0  0
  -22.2820  -13.0410   22.0570 N   0  0  0  0  0  0  0  0  0  0  0  0
  -22.5450  -14.7800   20.6830 O   0  0  0  0  0  0  0  0  0  0  0  0
  -22.6550  -12.2030   22.4780 H   0  0  0  0  0  0  0  0  0  0  0  0
  -21.3520  -13.3430   22.3110 H   0  0  0  0  0  0  0  0  0  0  0  0
  -25.6250  -15.3890   20.3280 N   0  0  0  0  0  0  0  0  0  0  0  0
  -24.8750  -16.0470   20.5100 H   0  0  0  0  0  0  0  0  0  0  0  0
  -26.4600  -15.8280   19.9630 H   0  0  0  0  0  0  0  0  0  0  0  0
  -27.9820  -24.8370   21.4580 C   0  0  0  0  0  2  0  0  0  0  0  0
  -28.3500  -25.3700   20.0550 C   0  0  0  0  0  2  0  0  0  0  0  0
  -28.3260  -26.7980   20.0200 O   0  0  0  0  0  0  0  0  0  0  0  0
  -24.5370  -31.8820   23.1980 C   0  0  0  0  0  0  0  0  0  0  0  0
  -27.1190  -27.4600   20.0540 C   0  0  0  0  0  0  0  0  0  0  0  0
  -23.2980  -30.4950   21.5670 C   0  0  0  0  0  3  0  0  0  0  0  0
  -24.7200  -28.9540   20.1170 C   0  0  0  0  0  0  0  0  0  0  0  0
  -25.8170  -30.8490   21.3250 C   0  0  0  0  0  2  0  0  0  0  0  0
  -25.8870  -29.4800   20.6840 C   0  0  0  0  0  0  0  0  0  0  0  0
  -27.0870  -28.7410   20.6440 C   0  0  0  0  0  3  0  0  0  0  0  0
  -25.9320  -26.9370   19.4920 C   0  0  0  0  0  3  0  0  0  0  0  0
  -24.7360  -27.6800   19.5220 C   0  0  0  0  0  3  0  0  0  0  0  0
  -23.4820  -29.8190   20.1820 C   0  0  0  0  0  2  0  0  0  0  0  0
  -24.5700  -31.0900   22.0890 N   0  0  0  0  0  0  0  0  0  0  0  0
  -23.4660  -32.1550   23.7570 O   0  0  0  0  0  0  0  0  0  0  0  0
  -22.6580  -29.4710   22.5330 C   0  0  0  0  0  0  0  0  0  0  0  0
  -21.3330  -29.2850   22.4130 N   0  0  0  0  0  0  0  0  0  0  0  0
  -23.3490  -28.8480   23.3410 O   0  0  0  0  0  0  0  0  0  0  0  0
  -20.8340  -29.8440   21.7350 H   0  0  0  0  0  0  0  0  0  0  0  0
  -17.9720  -28.0580   22.9060 C   0  0  0  0  0  0  0  0  0  0  0  0
  -20.5250  -28.3450   23.1890 C   0  0  0  0  0  3  0  0  0  0  0  0
  -20.6470  -26.9100   22.6270 C   0  0  0  0  0  2  0  0  0  0  0  0
  -19.5550  -26.5650   21.6100 C   0  0  0  0  0  2  0  0  0  0  0  0
  -18.1680  -26.7040   22.2440 C   0  0  0  0  0  2  0  0  0  0  0  0
  -19.0810  -28.8350   23.3340 C   0  0  0  0  0  0  0  0  0  0  0  0
  -18.8480  -30.1030   23.9110 C   0  0  0  0  0  3  0  0  0  0  0  0
  -17.5380  -30.5930   24.0650 C   0  0  0  0  0  3  0  0  0  0  0  0
  -16.4430  -29.8130   23.6560 C   0  0  0  0  0  3  0  0  0  0  0  0
  -16.6610  -28.5480   23.0810 C   0  0  0  0  0  3  0  0  0  0  0  0
  -25.8350  -32.5050   23.8010 C   0  0  0  0  0  3  0  0  0  0  0  0
  -25.5380  -33.9010   24.1500 N   0  0  0  0  0  0  0  0  0  0  0  0
  -25.8680  -34.9590   23.3980 C   0  0  0  0  0  0  0  0  0  0  0  0
  -26.5300  -34.8630   22.3610 O   0  0  0  0  0  0  0  0  0  0  0  0
  -24.9570  -34.0510   24.9620 H   0  0  0  0  0  0  0  0  0  0  0  0
  -24.1490  -36.7630   23.0720 C   0  0  0  0  0  1  0  0  0  0  0  0
  -25.3910  -36.3430   23.8750 C   0  0  0  0  0  3  0  0  0  0  0  0
  -27.5350  -37.2010   24.7070 C   0  0  0  0  0  1  0  0  0  0  0  0
  -26.4280  -37.3940   23.7730 N   0  0  0  0  0  0  0  0  0  0  0  0
  -26.0280  -38.3120   23.9430 H   0  0  0  0  0  0  0  0  0  0  0  0
  -26.3780  -31.7200   25.0580 C   0  0  1  0  0  0  0  0  0  0  0  0
  -25.3090  -31.4710   26.1470 C   0  0  0  0  0  1  0  0  0  0  0  0
  -26.9490  -30.3480   24.6310 C   0  0  0  0  0  1  0  0  0  0  0  0
  -27.5430  -32.5060   25.7060 C   0  0  0  0  0  1  0  0  0  0  0  0
  1  2  1  0
  1  5  1  0
  2  4  1  0
  3  1  2  0
  6 11  1  0
  6  5  1  0
  7  8  1  0
  7 12  2  0
  9 10  1  0
  9 11  1  0
 10 23  1  0
 10  7  1  0
 11 13  1  1
 11  8  1  0
 15 20  1  0
 16 17  1  0
 16 15  1  0
 18 17  1  0
 18 27  1  0
 18 19  1  0
 20 14  1  0
 20 19  1  0
 21 14  2  0
 22 23  1  0
 23 14  1  0
 24 25  2  0
 25 44  1  0
 26 25  1  0
 26 29  1  0
 27 28  1  0
 27 24  1  0
 28 26  2  0
 29 30  1  0
 30 31  2  0
 32 35  1  0
 32 31  1  0
 33 32  2  0
 34 33  1  0
 34 29  2  0
 35 36  1  0
 36 37  1  0
 37 38  2  0
 39 38  1  0
 39 43  1  0
 40 39  2  0
 41 36  2  0
 41 40  1  0
 42 41  1  0
 44 45  1  0
 45 48  1  0
 45 47  1  0
 46 44  2  0
 49 24  1  0
 49 50  1  0
 51 49  1  0
 52  2  1  0
 53 52  1  0
 54 56  1  0
 54 53  1  0
 55 66  2  0
 56 61  1  0
 57 65  1  0
 57 67  1  0
 58 64  1  0
 58 60  1  0
 59 65  1  0
 60 59  1  0
 61 60  2  0
 62 63  1  0
 62 56  2  0
 63 58  2  0
 64 57  1  0
 65 55  1  0
 67 69  2  0
 68 67  1  0
 70 68  1  0
 71 80  2  0
 71 76  1  0
 72 68  1  0
 72 76  1  0
 73 72  1  0
 74 75  1  0
 74 73  1  0
 75 71  1  0
 76 77  2  0
 77 78  1  0
 79 78  2  0
 80 79  1  0
 81 55  1  0
 81 82  1  0
 81 91  1  0
 82 85  1  0
 83 87  1  0
 83 82  1  0
 84 83  2  0
 87 86  1  0
 89 87  1  0
 89 90  1  0
 89 88  1  0
 91 94  1  1
 91 92  1  0
 93 91  1  0
M  ISO  4  14 100  23 100  53 101  54 101
M  END
>  <TORSDO>  (46) 
F 21

>  <SCORE>  (46) 
-13.012

>  <name>  (46) 
46

>  <ligand_id>  (46) 
46

>  <original_smiles>  (46) 
[H]c1c([H])c([H])c2c(c1[H])C([H])([H])C([H])([H])C([H])([H])C2([H])N([H])C(=O)C1([H])N(C(=O)C([H])(N([H])C(=O)C([H])(N([H])C([H])([H])[H])C([H])([H])[H])C(C([H])([H])[H])(C([H])([H])[H])C([H])([H])[H])C([H])([H])c2c([H])c(OC([H])([H])C([H])([H])N([H])C(=O)C([H])([H])C([H])([H])[N+]3([H])C([H])([H])C(=O)C([H])(N(C(=O)N4C([H])([H])C([H])([H])C([H])([H])C([H])(n5nc(-c6c([H])c([H])c(Oc7c([H])c([H])c(F)c([H])c7F)c([H])c6[H])c(C(=O)N([H])[H])c5N([H])[H])C4([H])[H])C([H])([H])[H])C3([H])[H])c([H])c([H])c2C1([H])[H]

>  <smiles>  (46) 
[H]c1c([H])c([H])c2c(c1[H])C([H])([H])C([H])([H])C([H])([H])C2([H])N([H])C(=O)C1([H])N(C(=O)C([H])(N([H])C(=O)C([H])(N([H])C([H])([H])[H])C([H])([H])[H])C(C([H])([H])[H])(C([H])([H])[H])C([H])([H])[H])C([H])([H])c2c([H])c(OC([H])([H])C([H])([H])N([H])C(=O)C([H])([H])C([H])([H])[N+]3([H])C([H])([H])C(=O)C([H])(N(C(=O)N4C([H])([H])C([H])([H])C([H])([H])C([H])(n5nc(-c6c([H])c([H])c(Oc7c([H])c([H])c(F)c([H])c7F)c([H])c6[H])c(C(=O)N([H])[H])c5N([H])[H])C4([H])[H])C([H])([H])[H])C3([H])[H])c([H])c([H])c2C1([H])[H]

$$$$
47:0:0
     RDKit          3D

 93101  0  0  1  0  0  0  0  0999 V2000
  -27.9530  -20.3800   18.4210 C   0  0  0  0  0  0  0  0  0  0  0  0
  -26.9190  -20.5500   20.2220 C   0  0  0  0  0  2  0  0  0  0  0  0
  -27.6510  -19.3770   19.5480 C   0  0  0  0  0  3  0  0  0  0  0  0
  -27.0850  -21.2990   18.9640 N   0  0  0  0  0  0  0  0  0  0  0  0
  -28.6030  -20.4020   17.3940 O   0  0  0  0  0  0  0  0  0  0  0  0
  -29.8570  -19.7090   20.7450 C   0  0  0  0  0  1  0  0  0  0  0  0
  -28.8190  -18.7630   20.2580 N   0  0  2  0  0  4  0  0  0  0  0  0
  -28.4160  -18.3480   21.0830 H   0  0  0  0  0  0  0  0  0  0  0  0
  -29.4010  -17.6230   19.5000 C   0  0  0  0  0  2  0  0  0  0  0  0
  -29.8900  -16.4650   20.4000 C   0  0  0  0  0  2  0  0  0  0  0  0
  -31.2970  -14.4420   19.9340 C   0  0  0  0  0  0  0  0  0  0  0  0
  -30.8660  -12.2490   18.9600 C   0  0  0  0  0  2  0  0  0  0  0  0
  -29.8930  -12.4410   17.7770 C   0  0  0  0  0  2  0  0  0  0  0  0
  -28.4310  -12.3770   18.2630 C   0  0  0  0  0  2  0  0  0  0  0  0
  -28.1600  -13.2910   19.4900 C   0  0  0  0  0  3  0  0  0  0  0  0
  -29.2550  -13.1120   20.5710 C   0  0  0  0  0  2  0  0  0  0  0  0
  -30.5630  -13.3040   19.9300 N   0  0  0  0  0  0  0  0  0  0  0  0
  -32.4850  -14.4870   19.6290 O   0  0  0  0  0  0  0  0  0  0  0  0
  -30.5930  -15.5100   19.5540 N   0  0  0  0  0  0  0  0  0  0  0  0
  -31.1140  -15.9890   18.8360 H   0  0  0  0  0  0  0  0  0  0  0  0
  -25.8320  -14.0120   20.3240 C   0  0  0  0  0  0  0  0  0  0  0  0
  -24.7430  -13.2900   20.7310 C   0  0  0  0  0  0  0  0  0  0  0  0
  -25.1270  -11.9160   20.6490 C   0  0  0  0  0  0  0  0  0  0  0  0
  -26.8180  -13.0810   20.0290 N   0  0  0  0  0  0  0  0  0  0  0  0
  -26.4000  -11.8140   20.2850 N   0  0  0  0  0  0  0  0  0  0  0  0
  -24.3420  -10.6900   20.8400 C   0  0  0  0  0  0  0  0  0  0  0  0
  -24.7090   -9.7240   21.8020 C   0  0  0  0  0  3  0  0  0  0  0  0
  -23.9290   -8.5600   21.9810 C   0  0  0  0  0  3  0  0  0  0  0  0
  -22.7690   -8.3570   21.1980 C   0  0  0  0  0  0  0  0  0  0  0  0
  -22.4220   -9.3090   20.2240 C   0  0  0  0  0  3  0  0  0  0  0  0
  -23.2000  -10.4650   20.0440 C   0  0  0  0  0  3  0  0  0  0  0  0
  -21.9640   -7.2460   21.2860 O   0  0  0  0  0  0  0  0  0  0  0  0
  -21.7860   -6.5790   22.4720 C   0  0  0  0  0  0  0  0  0  0  0  0
  -21.2410   -7.2140   23.6100 C   0  0  0  0  0  3  0  0  0  0  0  0
  -21.0110   -6.4740   24.7870 C   0  0  0  0  0  3  0  0  0  0  0  0
  -21.3120   -5.0990   24.8250 C   0  0  0  0  0  0  0  0  0  0  0  0
  -21.8490   -4.4640   23.6920 C   0  0  0  0  0  3  0  0  0  0  0  0
  -22.0830   -5.2020   22.5180 C   0  0  0  0  0  0  0  0  0  0  0  0
  -22.5790   -4.5810   21.4210 F   0  0  0  0  0  0  0  0  0  0  0  0
  -21.0840   -4.3860   25.9520 F   0  0  0  0  0  0  0  0  0  0  0  0
  -23.3850  -13.8330   21.0740 C   0  0  0  0  0  0  0  0  0  0  0  0
  -22.6580  -13.1600   21.9590 N   0  0  0  0  0  0  0  0  0  0  0  0
  -22.9810  -14.8880   20.5870 O   0  0  0  0  0  0  0  0  0  0  0  0
  -22.9950  -12.3050   22.3760 H   0  0  0  0  0  0  0  0  0  0  0  0
  -21.7460  -13.5060   22.2270 H   0  0  0  0  0  0  0  0  0  0  0  0
  -26.0640  -15.3740   20.1510 N   0  0  0  0  0  0  0  0  0  0  0  0
  -25.2850  -16.0230   20.1800 H   0  0  0  0  0  0  0  0  0  0  0  0
  -26.8230  -15.6930   19.5660 H   0  0  0  0  0  0  0  0  0  0  0  0
  -26.4600  -22.5130   18.4520 C   0  0  0  0  0  2  0  0  0  0  0  0
  -27.4370  -23.6560   18.1160 C   0  0  0  0  0  2  0  0  0  0  0  0
  -27.9870  -24.4420   19.3220 C   0  0  0  0  0  2  0  0  0  0  0  0
  -28.6100  -25.7870   18.8630 C   0  0  0  0  0  2  0  0  0  0  0  0
  -28.4410  -26.8670   19.7880 O   0  0  0  0  0  0  0  0  0  0  0  0
  -24.5660  -31.7960   23.1380 C   0  0  0  0  0  0  0  0  0  0  0  0
  -27.2430  -27.5570   19.8050 C   0  0  0  0  0  0  0  0  0  0  0  0
  -23.3640  -30.4650   21.4370 C   0  0  0  0  0  3  0  0  0  0  0  0
  -24.8230  -29.0270   19.9270 C   0  0  0  0  0  0  0  0  0  0  0  0
  -25.8850  -30.8590   21.2490 C   0  0  0  0  0  2  0  0  0  0  0  0
  -25.9770  -29.5240   20.5420 C   0  0  0  0  0  0  0  0  0  0  0  0
  -27.1840  -28.7920   20.4910 C   0  0  0  0  0  3  0  0  0  0  0  0
  -26.0670  -27.0870   19.1690 C   0  0  0  0  0  3  0  0  0  0  0  0
  -24.8610  -27.8010   19.2440 C   0  0  0  0  0  3  0  0  0  0  0  0
  -23.5710  -29.8670   20.0240 C   0  0  0  0  0  2  0  0  0  0  0  0
  -24.6230  -31.0510   22.0000 N   0  0  0  0  0  0  0  0  0  0  0  0
  -23.4860  -32.0300   23.6970 O   0  0  0  0  0  0  0  0  0  0  0  0
  -22.7330  -29.3870   22.3460 C   0  0  0  0  0  0  0  0  0  0  0  0
  -21.4100  -29.1910   22.2180 N   0  0  0  0  0  0  0  0  0  0  0  0
  -23.4300  -28.7300   23.1240 O   0  0  0  0  0  0  0  0  0  0  0  0
  -20.9070  -29.7630   21.5550 H   0  0  0  0  0  0  0  0  0  0  0  0
  -18.0510  -27.9610   22.6970 C   0  0  0  0  0  0  0  0  0  0  0  0
  -20.6100  -28.2100   22.9530 C   0  0  0  0  0  3  0  0  0  0  0  0
  -20.7080  -26.8110   22.3000 C   0  0  0  0  0  2  0  0  0  0  0  0
  -19.5960  -26.5440   21.2790 C   0  0  0  0  0  2  0  0  0  0  0  0
  -18.2240  -26.6490   21.9500 C   0  0  0  0  0  2  0  0  0  0  0  0
  -19.1720  -28.6990   23.1580 C   0  0  0  0  0  0  0  0  0  0  0  0
  -18.9590  -29.9290   23.8190 C   0  0  0  0  0  3  0  0  0  0  0  0
  -17.6530  -30.4160   24.0240 C   0  0  0  0  0  3  0  0  0  0  0  0
  -16.5460  -29.6730   23.5780 C   0  0  0  0  0  3  0  0  0  0  0  0
  -16.7460  -28.4470   22.9220 C   0  0  0  0  0  3  0  0  0  0  0  0
  -25.8500  -32.4100   23.7790 C   0  0  0  0  0  3  0  0  0  0  0  0
  -25.5390  -33.7980   24.1460 N   0  0  0  0  0  0  0  0  0  0  0  0
  -25.8770  -34.8710   23.4190 C   0  0  0  0  0  0  0  0  0  0  0  0
  -26.5540  -34.7970   22.3890 O   0  0  0  0  0  0  0  0  0  0  0  0
  -24.9410  -33.9310   24.9480 H   0  0  0  0  0  0  0  0  0  0  0  0
  -24.1500  -36.6700   23.0960 C   0  0  0  0  0  1  0  0  0  0  0  0
  -25.3810  -36.2440   23.9100 C   0  0  0  0  0  3  0  0  0  0  0  0
  -27.5000  -37.1080   24.7990 C   0  0  0  0  0  1  0  0  0  0  0  0
  -26.4150  -37.3010   23.8420 N   0  0  0  0  0  0  0  0  0  0  0  0
  -26.0060  -38.2160   24.0060 H   0  0  0  0  0  0  0  0  0  0  0  0
  -26.3700  -31.6020   25.0310 C   0  0  1  0  0  0  0  0  0  0  0  0
  -25.2790  -31.3280   26.0890 C   0  0  0  0  0  1  0  0  0  0  0  0
  -26.9590  -30.2390   24.5970 C   0  0  0  0  0  1  0  0  0  0  0  0
  -27.5170  -32.3810   25.7170 C   0  0  0  0  0  1  0  0  0  0  0  0
  1  4  1  0
  1  3  1  0
  3  2  1  0
  3  7  1  0
  4  2  1  0
  5  1  2  0
  7  6  1  0
  7  8  1  1
  9  7  1  0
  9 10  1  0
 12 17  1  0
 13 14  1  0
 13 12  1  0
 15 14  1  0
 15 24  1  0
 15 16  1  0
 17 11  1  0
 17 16  1  0
 18 11  2  0
 19 11  1  0
 19 10  1  0
 20 19  1  0
 21 22  2  0
 22 41  1  0
 23 22  1  0
 23 26  1  0
 24 25  1  0
 24 21  1  0
 25 23  2  0
 26 27  1  0
 27 28  2  0
 29 32  1  0
 29 28  1  0
 30 29  2  0
 31 30  1  0
 31 26  2  0
 32 33  1  0
 33 38  2  0
 33 34  1  0
 34 35  2  0
 35 36  1  0
 36 40  1  0
 37 36  2  0
 38 37  1  0
 39 38  1  0
 41 42  1  0
 42 45  1  0
 42 44  1  0
 43 41  2  0
 46 47  1  0
 46 21  1  0
 48 46  1  0
 49  4  1  0
 50 49  1  0
 50 51  1  0
 52 51  1  0
 52 53  1  0
 53 55  1  0
 54 65  2  0
 55 60  1  0
 56 64  1  0
 56 66  1  0
 57 63  1  0
 57 59  1  0
 58 64  1  0
 59 58  1  0
 60 59  2  0
 61 62  1  0
 61 55  2  0
 62 57  2  0
 63 56  1  0
 64 54  1  0
 66 68  2  0
 67 66  1  0
 69 67  1  0
 70 79  2  0
 70 75  1  0
 71 67  1  0
 71 75  1  0
 72 71  1  0
 73 74  1  0
 73 72  1  0
 74 70  1  0
 75 76  2  0
 76 77  1  0
 78 77  2  0
 79 78  1  0
 80 54  1  0
 80 81  1  0
 80 90  1  0
 81 84  1  0
 82 86  1  0
 82 81  1  0
 83 82  2  0
 86 85  1  0
 88 86  1  0
 88 89  1  0
 88 87  1  0
 90 93  1  1
 90 91  1  0
 92 90  1  0
M  ISO  4  11 100  19 100  52 101  53 101
M  END
>  <TORSDO>  (47) 
F 23

>  <SCORE>  (47) 
-11.688

>  <name>  (47) 
47

>  <ligand_id>  (47) 
47

>  <original_smiles>  (47) 
[H]c1c([H])c([H])c2c(c1[H])C([H])([H])C([H])([H])C([H])([H])C2([H])N([H])C(=O)C1([H])N(C(=O)C([H])(N([H])C(=O)C([H])(N([H])C([H])([H])[H])C([H])([H])[H])C(C([H])([H])[H])(C([H])([H])[H])C([H])([H])[H])C([H])([H])c2c([H])c(OC([H])([H])C([H])([H])C([H])([H])C([H])([H])N3C(=O)C([H])([N+]([H])(C([H])([H])[H])C([H])([H])C([H])([H])N([H])C(=O)N4C([H])([H])C([H])([H])C([H])([H])C([H])(n5nc(-c6c([H])c([H])c(Oc7c([H])c([H])c(F)c([H])c7F)c([H])c6[H])c(C(=O)N([H])[H])c5N([H])[H])C4([H])[H])C3([H])[H])c([H])c([H])c2C1([H])[H]

>  <smiles>  (47) 
[H]c1c([H])c([H])c2c(c1[H])C([H])([H])C([H])([H])C([H])([H])C2([H])N([H])C(=O)C1([H])N(C(=O)C([H])(N([H])C(=O)C([H])(N([H])C([H])([H])[H])C([H])([H])[H])C(C([H])([H])[H])(C([H])([H])[H])C([H])([H])[H])C([H])([H])c2c([H])c(OC([H])([H])C([H])([H])C([H])([H])C([H])([H])N3C(=O)C([H])([N+]([H])(C([H])([H])[H])C([H])([H])C([H])([H])N([H])C(=O)N4C([H])([H])C([H])([H])C([H])([H])C([H])(n5nc(-c6c([H])c([H])c(Oc7c([H])c([H])c(F)c([H])c7F)c([H])c6[H])c(C(=O)N([H])[H])c5N([H])[H])C4([H])[H])C3([H])[H])c([H])c([H])c2C1([H])[H]

$$$$
48:0:0
     RDKit          3D

 93101  0  0  1  0  0  0  0  0999 V2000
  -29.9620  -21.9390   19.0940 C   0  0  0  0  0  2  0  0  0  0  0  0
  -31.2870  -21.6280   19.8240 C   0  0  0  0  0  3  0  0  0  0  0  0
  -30.8750  -20.8570   21.0900 C   0  0  0  0  0  3  0  0  0  0  0  0
  -29.3740  -20.5990   20.8860 C   0  0  0  0  0  3  0  0  0  0  0  0
  -32.2660  -20.8240   18.9500 C   0  0  0  0  0  1  0  0  0  0  0  0
  -28.9240  -21.9000   20.1260 N   0  0  0  0  0  0  0  0  0  0  0  0
  -31.1290  -21.5970   22.3410 N   0  0  0  0  0  4  0  0  0  0  0  0
  -30.6310  -22.4670   22.3440 H   0  0  0  0  0  0  0  0  0  0  0  0
  -32.1090  -21.7720   22.4590 H   0  0  0  0  0  0  0  0  0  0  0  0
  -30.8210  -21.0510   23.1270 H   0  0  0  0  0  0  0  0  0  0  0  0
  -29.1820  -19.0200   20.2920 C   0  0  0  0  0  3  0  0  0  0  0  0
  -30.0910  -17.6730   20.7580 C   0  0  0  0  0  3  0  0  0  0  0  0
  -30.5190  -14.9850   20.3680 C   0  0  0  0  0  0  0  0  0  0  0  0
  -30.4150  -12.6620   19.3690 C   0  0  0  0  0  2  0  0  0  0  0  0
  -29.4720  -12.6140   18.1440 C   0  0  0  0  0  2  0  0  0  0  0  0
  -28.0150  -12.3820   18.5890 C   0  0  0  0  0  2  0  0  0  0  0  0
  -27.6030  -13.3090   19.7610 C   0  0  0  0  0  3  0  0  0  0  0  0
  -28.6560  -13.3110   20.8880 C   0  0  0  0  0  2  0  0  0  0  0  0
  -29.9240  -13.7320   20.2800 N   0  0  0  0  0  0  0  0  0  0  0  0
  -31.7270  -15.0630   20.1180 O   0  0  0  0  0  0  0  0  0  0  0  0
  -29.7300  -16.1540   20.5380 N   0  0  0  0  0  0  0  0  0  0  0  0
  -28.7470  -15.9470   20.6300 H   0  0  0  0  0  0  0  0  0  0  0  0
  -25.2080  -13.8750   20.4760 C   0  0  0  0  0  0  0  0  0  0  0  0
  -24.1510  -13.0920   20.8440 C   0  0  0  0  0  0  0  0  0  0  0  0
  -24.6290  -11.7440   20.8260 C   0  0  0  0  0  0  0  0  0  0  0  0
  -26.2630  -13.0070   20.2540 N   0  0  0  0  0  0  0  0  0  0  0  0
  -25.9240  -11.7210   20.5290 N   0  0  0  0  0  0  0  0  0  0  0  0
  -23.9190  -10.4750   21.0140 C   0  0  0  0  0  0  0  0  0  0  0  0
  -24.3490   -9.5190   21.9600 C   0  0  0  0  0  3  0  0  0  0  0  0
  -23.6330   -8.3140   22.1360 C   0  0  0  0  0  3  0  0  0  0  0  0
  -22.4760   -8.0560   21.3640 C   0  0  0  0  0  0  0  0  0  0  0  0
  -22.0640   -9.0020   20.4100 C   0  0  0  0  0  3  0  0  0  0  0  0
  -22.7790  -10.1970   20.2310 C   0  0  0  0  0  3  0  0  0  0  0  0
  -21.7330   -6.9030   21.4500 O   0  0  0  0  0  0  0  0  0  0  0  0
  -21.6700   -6.1710   22.6090 C   0  0  0  0  0  0  0  0  0  0  0  0
  -21.1990   -6.7300   23.8180 C   0  0  0  0  0  3  0  0  0  0  0  0
  -21.0860   -5.9240   24.9690 C   0  0  0  0  0  3  0  0  0  0  0  0
  -21.4340   -4.5610   24.9130 C   0  0  0  0  0  0  0  0  0  0  0  0
  -21.8990   -4.0020   23.7080 C   0  0  0  0  0  3  0  0  0  0  0  0
  -22.0130   -4.8050   22.5590 C   0  0  0  0  0  0  0  0  0  0  0  0
  -22.4410   -4.2550   21.3960 F   0  0  0  0  0  0  0  0  0  0  0  0
  -21.3200   -3.7850   26.0160 F   0  0  0  0  0  0  0  0  0  0  0  0
  -22.7460  -13.5530   21.0970 C   0  0  0  0  0  0  0  0  0  0  0  0
  -22.0150  -12.8500   21.9550 N   0  0  0  0  0  0  0  0  0  0  0  0
  -22.3040  -14.5720   20.5670 O   0  0  0  0  0  0  0  0  0  0  0  0
  -22.3850  -12.0240   22.4040 H   0  0  0  0  0  0  0  0  0  0  0  0
  -21.0720  -13.1430   22.1690 H   0  0  0  0  0  0  0  0  0  0  0  0
  -25.3580  -15.2460   20.2860 N   0  0  0  0  0  0  0  0  0  0  0  0
  -24.5780  -15.8880   20.3710 H   0  0  0  0  0  0  0  0  0  0  0  0
  -26.1910  -15.6890   19.9220 H   0  0  0  0  0  0  0  0  0  0  0  0
  -28.8340  -23.3540   20.7300 C   0  0  0  0  0  3  0  0  0  0  0  0
  -28.0780  -24.6850   20.0150 C   0  0  0  0  0  3  0  0  0  0  0  0
  -28.2660  -26.2040   20.3320 O   0  0  0  0  0  0  0  0  0  0  0  0
  -24.6560  -31.9100   23.2610 C   0  0  0  0  0  0  0  0  0  0  0  0
  -27.2140  -27.1910   20.2220 C   0  0  0  0  0  0  0  0  0  0  0  0
  -23.4480  -30.5160   21.6250 C   0  0  0  0  0  3  0  0  0  0  0  0
  -24.8890  -28.9440   20.1860 C   0  0  0  0  0  0  0  0  0  0  0  0
  -25.9990  -30.7760   21.4570 C   0  0  0  0  0  2  0  0  0  0  0  0
  -26.0690  -29.3850   20.8000 C   0  0  0  0  0  0  0  0  0  0  0  0
  -27.2300  -28.5240   20.8030 C   0  0  0  0  0  3  0  0  0  0  0  0
  -26.0130  -26.8610   19.5510 C   0  0  0  0  0  3  0  0  0  0  0  0
  -24.8750  -27.6970   19.5460 C   0  0  0  0  0  3  0  0  0  0  0  0
  -23.6640  -29.8420   20.2420 C   0  0  0  0  0  2  0  0  0  0  0  0
  -24.7210  -31.0900   22.1690 N   0  0  0  0  0  0  0  0  0  0  0  0
  -23.5730  -32.1960   23.7930 O   0  0  0  0  0  0  0  0  0  0  0  0
  -22.7740  -29.5090   22.5890 C   0  0  0  0  0  0  0  0  0  0  0  0
  -21.4460  -29.3330   22.4590 N   0  0  0  0  0  0  0  0  0  0  0  0
  -23.4480  -28.8840   23.4130 O   0  0  0  0  0  0  0  0  0  0  0  0
  -20.9580  -29.8890   21.7690 H   0  0  0  0  0  0  0  0  0  0  0  0
  -18.0700  -28.1120   22.9560 C   0  0  0  0  0  0  0  0  0  0  0  0
  -20.6260  -28.3950   23.2310 C   0  0  0  0  0  3  0  0  0  0  0  0
  -20.7380  -26.9580   22.6690 C   0  0  0  0  0  2  0  0  0  0  0  0
  -19.6430  -26.6230   21.6480 C   0  0  0  0  0  2  0  0  0  0  0  0
  -18.2580  -26.7600   22.2880 C   0  0  0  0  0  2  0  0  0  0  0  0
  -19.1810  -28.8860   23.3850 C   0  0  0  0  0  0  0  0  0  0  0  0
  -18.9490  -30.1500   23.9700 C   0  0  0  0  0  3  0  0  0  0  0  0
  -17.6410  -30.6420   24.1280 C   0  0  0  0  0  3  0  0  0  0  0  0
  -16.5440  -29.8650   23.7150 C   0  0  0  0  0  3  0  0  0  0  0  0
  -16.7590  -28.6020   23.1360 C   0  0  0  0  0  3  0  0  0  0  0  0
  -25.9400  -32.5420   23.8840 C   0  0  0  0  0  3  0  0  0  0  0  0
  -25.6320  -33.9460   24.1980 N   0  0  0  0  0  0  0  0  0  0  0  0
  -25.9690  -34.9940   23.4330 C   0  0  0  0  0  0  0  0  0  0  0  0
  -26.6350  -34.8790   22.3990 O   0  0  0  0  0  0  0  0  0  0  0  0
  -25.0350  -34.1070   24.9950 H   0  0  0  0  0  0  0  0  0  0  0  0
  -24.2540  -36.8030   23.0740 C   0  0  0  0  0  1  0  0  0  0  0  0
  -25.4940  -36.3880   23.8820 C   0  0  0  0  0  3  0  0  0  0  0  0
  -27.6360  -37.2710   24.7010 C   0  0  0  0  0  1  0  0  0  0  0  0
  -26.5320  -37.4350   23.7590 N   0  0  0  0  0  0  0  0  0  0  0  0
  -26.1340  -38.3590   23.9000 H   0  0  0  0  0  0  0  0  0  0  0  0
  -26.4430  -31.7870   25.1770 C   0  0  1  0  0  0  0  0  0  0  0  0
  -25.3440  -31.5730   26.2430 C   0  0  0  0  0  1  0  0  0  0  0  0
  -27.0220  -30.3980   24.8200 C   0  0  0  0  0  1  0  0  0  0  0  0
  -27.5950  -32.5870   25.8310 C   0  0  0  0  0  1  0  0  0  0  0  0
  1  2  1  0
  1  6  1  0
  2  5  1  0
  2  3  1  0
  3  7  1  0
  4 11  1  0
  4  3  1  0
  6 51  1  0
  6  4  1  0
  7  8  1  0
  7  9  1  0
  7 10  1  0
 11 12  2  0
 13 21  1  0
 14 19  1  0
 15 16  1  0
 15 14  1  0
 17 16  1  0
 17 26  1  0
 17 18  1  0
 19 13  1  0
 19 18  1  0
 20 13  2  0
 21 22  1  0
 21 12  1  0
 23 24  2  0
 24 43  1  0
 25 24  1  0
 25 28  1  0
 26 23  1  0
 26 27  1  0
 27 25  2  0
 28 29  1  0
 29 30  2  0
 31 34  1  0
 31 30  1  0
 32 31  2  0
 33 32  1  0
 33 28  2  0
 34 35  1  0
 35 36  1  0
 36 37  2  0
 38 37  1  0
 38 42  1  0
 39 38  2  0
 40 35  2  0
 40 39  1  0
 41 40  1  0
 43 44  1  0
 44 47  1  0
 44 46  1  0
 45 43  2  0
 48 49  1  0
 48 23  1  0
 50 48  1  0
 52 53  1  0
 52 51  2  0
 54 65  2  0
 55 53  1  0
 55 60  1  0
 56 64  1  0
 56 66  1  0
 57 63  1  0
 57 59  1  0
 58 64  1  0
 59 60  2  0
 59 58  1  0
 61 55  2  0
 62 61  1  0
 62 57  2  0
 63 56  1  0
 64 54  1  0
 66 68  2  0
 67 66  1  0
 69 67  1  0
 70 79  2  0
 70 75  1  0
 71 67  1  0
 71 75  1  0
 72 71  1  0
 73 74  1  0
 73 72  1  0
 74 70  1  0
 75 76  2  0
 76 77  1  0
 78 77  2  0
 79 78  1  0
 80 54  1  0
 80 81  1  0
 80 90  1  0
 81 84  1  0
 82 86  1  0
 82 81  1  0
 83 82  2  0
 86 85  1  0
 88 86  1  0
 88 89  1  0
 88 87  1  0
 90 93  1  1
 90 91  1  0
 92 90  1  0
M  ISO  4  13 100  21 100  52 101  53 101
M  END
>  <TORSDO>  (48) 
F 21

>  <SCORE>  (48) 
-14.316

>  <name>  (48) 
48

>  <ligand_id>  (48) 
48

>  <original_smiles>  (48) 
[H]c1c([H])c([H])c2c(c1[H])C([H])([H])C([H])([H])C([H])([H])C2([H])N([H])C(=O)C1([H])N(C(=O)C([H])(N([H])C(=O)C([H])(N([H])C([H])([H])[H])C([H])([H])[H])C(C([H])([H])[H])(C([H])([H])[H])C([H])([H])[H])C([H])([H])c2c([H])c(OC([H])([H])C([H])([H])N3C([H])([H])C([H])(C([H])([H])[H])C([H])([N+]([H])([H])[H])C3([H])C([H])([H])C([H])([H])N([H])C(=O)N3C([H])([H])C([H])([H])C([H])([H])C([H])(n4nc(-c5c([H])c([H])c(Oc6c([H])c([H])c(F)c([H])c6F)c([H])c5[H])c(C(=O)N([H])[H])c4N([H])[H])C3([H])[H])c([H])c([H])c2C1([H])[H]

>  <smiles>  (48) 
[H]c1c([H])c([H])c2c(c1[H])C([H])([H])C([H])([H])C([H])([H])C2([H])N([H])C(=O)C1([H])N(C(=O)C([H])(N([H])C(=O)C([H])(N([H])C([H])([H])[H])C([H])([H])[H])C(C([H])([H])[H])(C([H])([H])[H])C([H])([H])[H])C([H])([H])c2c([H])c(OC([H])([H])C([H])([H])N3C([H])([H])C([H])(C([H])([H])[H])C([H])([N+]([H])([H])[H])C3([H])C([H])([H])C([H])([H])N([H])C(=O)N3C([H])([H])C([H])([H])C([H])([H])C([H])(n4nc(-c5c([H])c([H])c(Oc6c([H])c([H])c(F)c([H])c6F)c([H])c5[H])c(C(=O)N([H])[H])c4N([H])[H])C3([H])[H])c([H])c([H])c2C1([H])[H]

$$$$
49:0:0
     RDKit          3D

 97105  0  0  1  0  0  0  0  0999 V2000
  -28.2020  -21.0720   20.3950 N   0  0  2  0  0  4  0  0  0  0  0  0
  -27.4980  -20.5290   20.8730 H   0  0  0  0  0  0  0  0  0  0  0  0
  -28.2370  -22.2200   22.6340 C   0  0  0  0  0  1  0  0  0  0  0  0
  -29.0600  -21.5810   21.4990 C   0  0  0  0  0  2  0  0  0  0  0  0
  -28.7740  -19.9560   19.5900 C   0  0  0  0  0  2  0  0  0  0  0  0
  -28.6090  -18.6250   20.3290 C   0  0  0  0  0  0  0  0  0  0  0  0
  -27.4730  -18.1040   20.5500 N   0  0  0  0  0  0  0  0  0  0  0  0
  -26.6730  -18.6030   20.1800 H   0  0  0  0  0  0  0  0  0  0  0  0
  -30.1050  -17.8650   22.2840 C   0  0  0  0  0  2  0  0  0  0  0  0
  -30.4650  -16.5780   22.2340 C   0  0  0  0  0  2  0  0  0  0  0  0
  -29.9180  -17.9570   20.7830 C   0  0  0  0  0  3  0  0  0  0  0  0
  -29.9150  -16.3970   20.8220 C   0  0  0  0  0  3  0  0  0  0  0  0
  -31.5150  -14.6050   19.9960 C   0  0  0  0  0  0  0  0  0  0  0  0
  -31.0350  -12.4470   18.9420 C   0  0  0  0  0  2  0  0  0  0  0  0
  -30.0520  -12.6970   17.7770 C   0  0  0  0  0  2  0  0  0  0  0  0
  -28.5960  -12.6220   18.2690 C   0  0  0  0  0  2  0  0  0  0  0  0
  -28.3560  -13.4840   19.5320 C   0  0  0  0  0  3  0  0  0  0  0  0
  -29.4560  -13.2560   20.5950 C   0  0  0  0  0  2  0  0  0  0  0  0
  -30.7600  -13.4750   19.9520 N   0  0  0  0  0  0  0  0  0  0  0  0
  -32.6920  -14.6160   19.6190 O   0  0  0  0  0  0  0  0  0  0  0  0
  -31.0730  -16.5990   18.6520 C   0  0  0  0  0  1  0  0  0  0  0  0
  -30.8130  -15.7540   19.8370 N   0  0  0  0  0  0  0  0  0  0  0  0
  -26.0680  -14.2380   20.4450 C   0  0  0  0  0  0  0  0  0  0  0  0
  -24.9590  -13.5370   20.8210 C   0  0  0  0  0  0  0  0  0  0  0  0
  -25.2950  -12.1560   20.6580 C   0  0  0  0  0  0  0  0  0  0  0  0
  -27.0160  -13.2930   20.0820 N   0  0  0  0  0  0  0  0  0  0  0  0
  -26.5560  -12.0270   20.2690 N   0  0  0  0  0  0  0  0  0  0  0  0
  -24.4730  -10.9510   20.7940 C   0  0  0  0  0  0  0  0  0  0  0  0
  -24.8300   -9.9060   21.6750 C   0  0  0  0  0  3  0  0  0  0  0  0
  -24.0070   -8.7660   21.7970 C   0  0  0  0  0  3  0  0  0  0  0  0
  -22.8130   -8.6650   21.0420 C   0  0  0  0  0  0  0  0  0  0  0  0
  -22.4770   -9.6990   20.1490 C   0  0  0  0  0  3  0  0  0  0  0  0
  -23.3000  -10.8300   20.0240 C   0  0  0  0  0  3  0  0  0  0  0  0
  -21.9700   -7.5820   21.0790 O   0  0  0  0  0  0  0  0  0  0  0  0
  -21.8170   -6.8240   22.2120 C   0  0  0  0  0  0  0  0  0  0  0  0
  -21.4140   -7.3970   23.4390 C   0  0  0  0  0  3  0  0  0  0  0  0
  -21.2090   -6.5760   24.5640 C   0  0  0  0  0  3  0  0  0  0  0  0
  -21.3900   -5.1840   24.4610 C   0  0  0  0  0  0  0  0  0  0  0  0
  -21.7850   -4.6100   23.2400 C   0  0  0  0  0  3  0  0  0  0  0  0
  -21.9950   -5.4290   22.1160 C   0  0  0  0  0  0  0  0  0  0  0  0
  -22.3590   -4.8720   20.9350 F   0  0  0  0  0  0  0  0  0  0  0  0
  -21.1820   -4.3900   25.5400 F   0  0  0  0  0  0  0  0  0  0  0  0
  -23.6280  -14.1110   21.2190 C   0  0  0  0  0  0  0  0  0  0  0  0
  -22.9090  -13.4300   22.1010 N   0  0  0  0  0  0  0  0  0  0  0  0
  -23.2420  -15.1970   20.7860 O   0  0  0  0  0  0  0  0  0  0  0  0
  -23.2350  -12.5450   22.4670 H   0  0  0  0  0  0  0  0  0  0  0  0
  -22.0220  -13.7900   22.4240 H   0  0  0  0  0  0  0  0  0  0  0  0
  -26.3400  -15.6020   20.3600 N   0  0  0  0  0  0  0  0  0  0  0  0
  -25.6440  -16.3090   20.5710 H   0  0  0  0  0  0  0  0  0  0  0  0
  -27.2410  -15.9990   20.1350 H   0  0  0  0  0  0  0  0  0  0  0  0
  -27.3650  -22.0920   19.6800 C   0  0  0  0  0  2  0  0  0  0  0  0
  -26.7680  -23.6810   17.8810 C   0  0  0  0  0  1  0  0  0  0  0  0
  -28.8770  -22.3790   17.6040 C   0  0  0  0  0  1  0  0  0  0  0  0
  -27.9880  -23.1050   18.6480 C   0  0  2  0  0  0  0  0  0  0  0  0
  -28.8300  -24.3110   19.2210 C   0  0  0  0  0  2  0  0  0  0  0  0
  -28.1970  -25.3360   20.2050 C   0  0  0  0  0  2  0  0  0  0  0  0
  -28.3360  -26.7140   19.7720 O   0  0  0  0  0  0  0  0  0  0  0  0
  -24.6080  -31.6900   23.2340 C   0  0  0  0  0  0  0  0  0  0  0  0
  -27.1850  -27.4710   19.8340 C   0  0  0  0  0  0  0  0  0  0  0  0
  -23.3710  -30.3870   21.5450 C   0  0  0  0  0  3  0  0  0  0  0  0
  -24.7830  -28.9570   19.9910 C   0  0  0  0  0  0  0  0  0  0  0  0
  -25.8840  -30.7930   21.2870 C   0  0  0  0  0  2  0  0  0  0  0  0
  -25.9640  -29.4630   20.5550 C   0  0  0  0  0  0  0  0  0  0  0  0
  -27.1750  -28.7380   20.4600 C   0  0  0  0  0  3  0  0  0  0  0  0
  -25.9870  -26.9880   19.2690 C   0  0  0  0  0  3  0  0  0  0  0  0
  -24.7890  -27.7100   19.3500 C   0  0  0  0  0  3  0  0  0  0  0  0
  -23.5380  -29.8040   20.1210 C   0  0  0  0  0  2  0  0  0  0  0  0
  -24.6460  -30.9630   22.0800 N   0  0  0  0  0  0  0  0  0  0  0  0
  -23.5390  -31.9140   23.8180 O   0  0  0  0  0  0  0  0  0  0  0  0
  -22.7600  -29.2990   22.4540 C   0  0  0  0  0  0  0  0  0  0  0  0
  -21.4420  -29.0700   22.3120 N   0  0  0  0  0  0  0  0  0  0  0  0
  -23.4680  -28.6590   23.2400 O   0  0  0  0  0  0  0  0  0  0  0  0
  -20.9250  -29.6290   21.6460 H   0  0  0  0  0  0  0  0  0  0  0  0
  -18.1250  -27.6960   22.7450 C   0  0  0  0  0  0  0  0  0  0  0  0
  -20.6620  -28.0780   23.0520 C   0  0  0  0  0  3  0  0  0  0  0  0
  -20.8430  -26.6670   22.4420 C   0  0  0  0  0  2  0  0  0  0  0  0
  -19.7620  -26.2980   21.4190 C   0  0  0  0  0  2  0  0  0  0  0  0
  -18.3750  -26.3650   22.0600 C   0  0  0  0  0  2  0  0  0  0  0  0
  -19.1960  -28.5050   23.2060 C   0  0  0  0  0  0  0  0  0  0  0  0
  -18.8980  -29.7400   23.8230 C   0  0  0  0  0  3  0  0  0  0  0  0
  -17.5630  -30.1710   23.9710 C   0  0  0  0  0  3  0  0  0  0  0  0
  -16.5070  -29.3580   23.5230 C   0  0  0  0  0  3  0  0  0  0  0  0
  -16.7900  -28.1220   22.9160 C   0  0  0  0  0  3  0  0  0  0  0  0
  -25.9030  -32.3070   23.8470 C   0  0  0  0  0  3  0  0  0  0  0  0
  -26.4480  -31.4910   25.0820 C   0  0  1  0  0  0  0  0  0  0  0  0
  -25.3770  -31.1980   26.1590 C   0  0  0  0  0  1  0  0  0  0  0  0
  -27.0260  -30.1320   24.6170 C   0  0  0  0  0  1  0  0  0  0  0  0
  -27.6040  -32.2660   25.7560 C   0  0  0  0  0  1  0  0  0  0  0  0
  -25.5920  -33.6910   24.2280 N   0  0  0  0  0  0  0  0  0  0  0  0
  -25.9200  -34.7730   23.5070 C   0  0  0  0  0  0  0  0  0  0  0  0
  -26.5830  -34.7040   22.4680 O   0  0  0  0  0  0  0  0  0  0  0  0
  -24.9940  -33.8170   25.0320 H   0  0  0  0  0  0  0  0  0  0  0  0
  -24.1790  -36.5650   23.2400 C   0  0  0  0  0  1  0  0  0  0  0  0
  -25.4350  -36.1420   24.0190 C   0  0  0  0  0  3  0  0  0  0  0  0
  -27.5770  -37.0020   24.8510 C   0  0  0  0  0  1  0  0  0  0  0  0
  -26.4620  -37.2000   23.9270 N   0  0  0  0  0  0  0  0  0  0  0  0
  -26.0580  -38.1120   24.1170 H   0  0  0  0  0  0  0  0  0  0  0  0
  1  2  1  1
  1  4  1  0
  4  3  1  0
  5  6  1  0
  5  1  1  0
  6  7  2  0
  8  7  1  0
 10  9  1  0
 11  6  1  0
 11 12  1  0
 11  9  1  0
 12 22  1  0
 12 10  1  0
 14 19  1  0
 15 16  1  0
 15 14  1  0
 17 16  1  0
 17 26  1  0
 17 18  1  0
 19 13  1  0
 19 18  1  0
 20 13  2  0
 21 22  1  0
 22 13  1  0
 23 24  2  0
 24 43  1  0
 25 28  1  0
 25 24  1  0
 26 27  1  0
 26 23  1  0
 27 25  2  0
 28 29  1  0
 29 30  2  0
 31 34  1  0
 31 30  1  0
 32 31  2  0
 33 32  1  0
 33 28  2  0
 34 35  1  0
 35 36  1  0
 36 37  2  0
 38 37  1  0
 38 42  1  0
 39 38  2  0
 40 35  2  0
 40 39  1  0
 41 40  1  0
 43 44  1  0
 44 47  1  0
 44 46  1  0
 45 43  2  0
 48 23  1  0
 48 49  1  0
 50 48  1  0
 51  1  1  0
 54 52  1  6
 53 54  1  0
 54 55  1  0
 54 51  1  0
 55 56  1  0
 57 59  1  0
 57 56  1  0
 58 69  2  0
 59 64  1  0
 60 68  1  0
 60 70  1  0
 61 67  1  0
 61 63  1  0
 62 68  1  0
 63 62  1  0
 64 63  2  0
 65 66  1  0
 65 59  2  0
 66 61  2  0
 67 60  1  0
 68 58  1  0
 70 72  2  0
 71 70  1  0
 73 71  1  0
 74 83  2  0
 74 79  1  0
 75 71  1  0
 75 79  1  0
 76 75  1  0
 77 78  1  0
 77 76  1  0
 78 74  1  0
 79 80  2  0
 80 81  1  0
 82 81  2  0
 83 82  1  0
 84 58  1  0
 84 89  1  0
 84 85  1  0
 85 88  1  1
 85 86  1  0
 87 85  1  0
 89 92  1  0
 90 94  1  0
 90 89  1  0
 91 90  2  0
 94 93  1  0
 96 94  1  0
 96 97  1  0
 96 95  1  0
M  ISO  4  13 100  22 100  56 101  57 101
M  END
>  <TORSDO>  (49) 
F 24

>  <SCORE>  (49) 
-11.224

>  <name>  (49) 
49

>  <ligand_id>  (49) 
49

>  <original_smiles>  (49) 
[H]N=C(C1([H])C([H])=C([H])C1([H])N(C(=O)N1C([H])([H])C([H])([H])C([H])([H])C([H])(n2nc(-c3c([H])c([H])c(Oc4c([H])c([H])c(F)c([H])c4F)c([H])c3[H])c(C(=O)N([H])[H])c2N([H])[H])C1([H])[H])C([H])([H])[H])C([H])([H])[N+]([H])(C([H])([H])C([H])([H])[H])C([H])([H])C(C([H])([H])[H])(C([H])([H])[H])C([H])([H])C([H])([H])Oc1c([H])c([H])c2c(c1[H])C([H])([H])N(C(=O)C([H])(N([H])C(=O)C([H])(N([H])C([H])([H])[H])C([H])([H])[H])C(C([H])([H])[H])(C([H])([H])[H])C([H])([H])[H])C([H])(C(=O)N([H])C1([H])c3c([H])c([H])c([H])c([H])c3C([H])([H])C([H])([H])C1([H])[H])C2([H])[H]

>  <smiles>  (49) 
[H]N=C(C1([H])C([H])=C([H])C1([H])N(C(=O)N1C([H])([H])C([H])([H])C([H])([H])C([H])(n2nc(-c3c([H])c([H])c(Oc4c([H])c([H])c(F)c([H])c4F)c([H])c3[H])c(C(=O)N([H])[H])c2N([H])[H])C1([H])[H])C([H])([H])[H])C([H])([H])[N+]([H])(C([H])([H])C([H])([H])[H])C([H])([H])C(C([H])([H])[H])(C([H])([H])[H])C([H])([H])C([H])([H])Oc1c([H])c([H])c2c(c1[H])C([H])([H])N(C(=O)C([H])(N([H])C(=O)C([H])(N([H])C([H])([H])[H])C([H])([H])[H])C(C([H])([H])[H])(C([H])([H])[H])C([H])([H])[H])C([H])(C(=O)N([H])C1([H])c3c([H])c([H])c([H])c([H])c3C([H])([H])C([H])([H])C1([H])[H])C2([H])[H]

$$$$
50:0:0
     RDKit          3D

100108  0  0  1  0  0  0  0  0999 V2000
  -29.1670  -22.7880   19.9420 C   0  0  0  0  0  3  0  0  0  0  0  0
  -33.0260  -21.0530   18.5730 C   0  0  0  0  0  3  0  0  0  0  0  0
  -32.5290  -22.2550   18.0780 C   0  0  0  0  0  3  0  0  0  0  0  0
  -32.2930  -20.3560   19.5420 C   0  0  0  0  0  3  0  0  0  0  0  0
  -31.3150  -22.7530   18.5660 C   0  0  0  0  0  3  0  0  0  0  0  0
  -31.0240  -20.7770   20.0170 C   0  0  0  0  0  0  0  0  0  0  0  0
  -30.5120  -22.0630   19.5190 C   0  0  0  0  0  0  0  0  0  0  0  0
  -30.4360  -19.8390   21.0660 C   0  0  0  0  0  0  0  0  0  0  0  0
  -30.4540  -18.4520   21.0910 C   0  0  0  0  0  0  0  0  0  0  0  0
  -29.8850  -20.5720   22.2910 C   0  0  0  0  0  1  0  0  0  0  0  0
  -29.8640  -17.8710   22.1530 F   0  0  0  0  0  0  0  0  0  0  0  0
  -31.0580  -17.4090   20.1060 C   0  0  0  0  0  2  0  0  0  0  0  0
  -31.3250  -14.8730   19.9710 C   0  0  0  0  0  0  0  0  0  0  0  0
  -30.9780  -12.6450   18.9500 C   0  0  0  0  0  2  0  0  0  0  0  0
  -29.9930  -12.7940   17.7710 C   0  0  0  0  0  2  0  0  0  0  0  0
  -28.5370  -12.6780   18.2620 C   0  0  0  0  0  2  0  0  0  0  0  0
  -28.2490  -13.5660   19.5020 C   0  0  0  0  0  3  0  0  0  0  0  0
  -29.3490  -13.4120   20.5770 C   0  0  0  0  0  2  0  0  0  0  0  0
  -30.6430  -13.6900   19.9380 N   0  0  0  0  0  0  0  0  0  0  0  0
  -32.4670  -14.9730   19.5190 O   0  0  0  0  0  0  0  0  0  0  0  0
  -30.6270  -15.9880   20.3230 N   0  0  0  0  0  0  0  0  0  0  0  0
  -29.6920  -15.8540   20.6760 H   0  0  0  0  0  0  0  0  0  0  0  0
  -25.9160  -14.2220   20.3590 C   0  0  0  0  0  0  0  0  0  0  0  0
  -24.8420  -13.4750   20.7580 C   0  0  0  0  0  0  0  0  0  0  0  0
  -25.2520  -12.1100   20.6630 C   0  0  0  0  0  0  0  0  0  0  0  0
  -26.9160  -13.3150   20.0450 N   0  0  0  0  0  0  0  0  0  0  0  0
  -26.5230  -12.0370   20.2880 N   0  0  0  0  0  0  0  0  0  0  0  0
  -24.4900  -10.8670   20.8510 C   0  0  0  0  0  0  0  0  0  0  0  0
  -24.8640   -9.9110   21.8210 C   0  0  0  0  0  3  0  0  0  0  0  0
  -24.1050   -8.7340   21.9960 C   0  0  0  0  0  3  0  0  0  0  0  0
  -22.9570   -8.5050   21.1990 C   0  0  0  0  0  0  0  0  0  0  0  0
  -22.6020   -9.4490   20.2200 C   0  0  0  0  0  3  0  0  0  0  0  0
  -23.3620  -10.6180   20.0430 C   0  0  0  0  0  3  0  0  0  0  0  0
  -22.1760   -7.3780   21.2810 O   0  0  0  0  0  0  0  0  0  0  0  0
  -21.9710   -6.7290   22.4720 C   0  0  0  0  0  0  0  0  0  0  0  0
  -21.3940   -7.3760   23.5860 C   0  0  0  0  0  3  0  0  0  0  0  0
  -21.1390   -6.6530   24.7680 C   0  0  0  0  0  3  0  0  0  0  0  0
  -21.4500   -5.2810   24.8340 C   0  0  0  0  0  0  0  0  0  0  0  0
  -22.0180   -4.6320   23.7240 C   0  0  0  0  0  3  0  0  0  0  0  0
  -22.2750   -5.3540   22.5460 C   0  0  0  0  0  0  0  0  0  0  0  0
  -22.8030   -4.7200   21.4710 F   0  0  0  0  0  0  0  0  0  0  0  0
  -21.1970   -4.5820   25.9660 F   0  0  0  0  0  0  0  0  0  0  0  0
  -23.4770  -13.9910   21.1140 C   0  0  0  0  0  0  0  0  0  0  0  0
  -22.7790  -13.3070   22.0150 N   0  0  0  0  0  0  0  0  0  0  0  0
  -23.0420  -15.0350   20.6320 O   0  0  0  0  0  0  0  0  0  0  0  0
  -23.1460  -12.4630   22.4310 H   0  0  0  0  0  0  0  0  0  0  0  0
  -21.8630  -13.6300   22.2920 H   0  0  0  0  0  0  0  0  0  0  0  0
  -26.1210  -15.5900   20.2170 N   0  0  0  0  0  0  0  0  0  0  0  0
  -25.3880  -16.2670   20.4000 H   0  0  0  0  0  0  0  0  0  0  0  0
  -26.9680  -16.0130   19.8610 H   0  0  0  0  0  0  0  0  0  0  0  0
  -28.8720  -24.2740   19.4530 C   0  0  0  0  0  0  0  0  0  0  0  0
  -28.8340  -24.5930   18.2170 N   0  0  0  0  0  0  0  0  0  0  0  0
  -29.0370  -23.8150   17.6030 H   0  0  0  0  0  0  0  0  0  0  0  0
  -28.5800  -25.3680   20.5350 C   0  0  2  0  0  0  0  0  0  0  0  0
  -29.5290  -25.2990   21.4990 F   0  0  0  0  0  0  0  0  0  0  0  0
  -27.4140  -25.0650   21.1620 F   0  0  0  0  0  0  0  0  0  0  0  0
  -28.5660  -26.6730   20.0370 O   0  0  0  0  0  0  0  0  0  0  0  0
  -24.6910  -31.7830   23.2920 C   0  0  0  0  0  0  0  0  0  0  0  0
  -27.4100  -27.4480   20.0740 C   0  0  0  0  0  0  0  0  0  0  0  0
  -23.5170  -30.4250   21.5930 C   0  0  0  0  0  3  0  0  0  0  0  0
  -25.0020  -28.9640   20.1130 C   0  0  0  0  0  0  0  0  0  0  0  0
  -26.0420  -30.8190   21.4230 C   0  0  0  0  0  2  0  0  0  0  0  0
  -26.1530  -29.4690   20.7320 C   0  0  0  0  0  0  0  0  0  0  0  0
  -27.3610  -28.7210   20.7070 C   0  0  0  0  0  3  0  0  0  0  0  0
  -26.2470  -26.9870   19.4230 C   0  0  0  0  0  3  0  0  0  0  0  0
  -25.0480  -27.7250   19.4500 C   0  0  0  0  0  3  0  0  0  0  0  0
  -23.7450  -29.8040   20.1890 C   0  0  0  0  0  2  0  0  0  0  0  0
  -24.7670  -31.0240   22.1600 N   0  0  0  0  0  0  0  0  0  0  0  0
  -23.6030  -32.0150   23.8380 O   0  0  0  0  0  0  0  0  0  0  0  0
  -22.8770  -29.3580   22.5120 C   0  0  0  0  0  0  0  0  0  0  0  0
  -21.5630  -29.1310   22.3480 N   0  0  0  0  0  0  0  0  0  0  0  0
  -23.5640  -28.7370   23.3270 O   0  0  0  0  0  0  0  0  0  0  0  0
  -21.0690  -29.6870   21.6640 H   0  0  0  0  0  0  0  0  0  0  0  0
  -18.2350  -27.7650   22.7010 C   0  0  0  0  0  0  0  0  0  0  0  0
  -20.7640  -28.1440   23.0750 C   0  0  0  0  0  3  0  0  0  0  0  0
  -20.9600  -26.7270   22.4860 C   0  0  0  0  0  2  0  0  0  0  0  0
  -19.9150  -26.3660   21.4260 C   0  0  0  0  0  2  0  0  0  0  0  0
  -18.5040  -26.4350   22.0160 C   0  0  0  0  0  2  0  0  0  0  0  0
  -19.2970  -28.5740   23.1830 C   0  0  0  0  0  0  0  0  0  0  0  0
  -18.9940  -29.8160   23.7810 C   0  0  0  0  0  3  0  0  0  0  0  0
  -17.6610  -30.2510   23.9030 C   0  0  0  0  0  3  0  0  0  0  0  0
  -16.6120  -29.4390   23.4360 C   0  0  0  0  0  3  0  0  0  0  0  0
  -16.9000  -28.1980   22.8410 C   0  0  0  0  0  3  0  0  0  0  0  0
  -25.9620  -32.4130   23.9400 C   0  0  0  0  0  3  0  0  0  0  0  0
  -25.6430  -33.8060   24.2800 N   0  0  0  0  0  0  0  0  0  0  0  0
  -25.9820  -34.8680   23.5360 C   0  0  0  0  0  0  0  0  0  0  0  0
  -26.6660  -34.7770   22.5130 O   0  0  0  0  0  0  0  0  0  0  0  0
  -25.0360  -33.9500   25.0730 H   0  0  0  0  0  0  0  0  0  0  0  0
  -24.2500  -36.6560   23.1730 C   0  0  0  0  0  1  0  0  0  0  0  0
  -25.4810  -36.2490   23.9990 C   0  0  0  0  0  3  0  0  0  0  0  0
  -27.5960  -37.1400   24.8750 C   0  0  0  0  0  1  0  0  0  0  0  0
  -26.5110  -37.3080   23.9120 N   0  0  0  0  0  0  0  0  0  0  0  0
  -26.0970  -38.2250   24.0560 H   0  0  0  0  0  0  0  0  0  0  0  0
  -26.4640  -31.6290   25.2150 C   0  0  1  0  0  0  0  0  0  0  0  0
  -25.3550  -31.3720   26.2610 C   0  0  0  0  0  1  0  0  0  0  0  0
  -27.0630  -30.2600   24.8170 C   0  0  0  0  0  1  0  0  0  0  0  0
  -27.5980  -32.4230   25.9060 C   0  0  0  0  0  1  0  0  0  0  0  0
  -27.9330  -21.9500   19.5600 C   0  0  0  0  0  0  0  0  0  0  0  0
  -27.9480  -21.2010   18.2310 C   0  0  0  0  0  1  0  0  0  0  0  0
  -26.9420  -21.8890   20.2930 O   0  0  0  0  0  0  0  0  0  0  0  0
  1 51  1  0
  2  4  1  0
  3  5  1  0
  3  2  2  0
  4  6  2  0
  5  7  2  0
  6  8  1  0
  7  1  1  0
  7  6  1  0
  8  9  2  0
  8 10  1  0
  9 11  1  0
 12 21  1  0
 12  9  1  0
 13 21  1  0
 14 19  1  0
 15 16  1  0
 15 14  1  0
 17 16  1  0
 17 26  1  0
 17 18  1  0
 19 13  1  0
 19 18  1  0
 20 13  2  0
 21 22  1  0
 23 24  2  0
 24 43  1  0
 25 24  1  0
 25 28  1  0
 26 27  1  0
 26 23  1  0
 27 25  2  0
 28 29  1  0
 29 30  2  0
 31 34  1  0
 31 30  1  0
 32 31  2  0
 33 32  1  0
 33 28  2  0
 34 35  1  0
 35 40  2  0
 35 36  1  0
 36 37  2  0
 37 38  1  0
 38 42  1  0
 39 38  2  0
 40 39  1  0
 41 40  1  0
 43 44  1  0
 44 47  1  0
 44 46  1  0
 45 43  2  0
 48 23  1  0
 48 49  1  0
 50 48  1  0
 51 54  1  0
 52 51  2  0
 53 52  1  0
 54 56  1  1
 54 55  1  0
 57 59  1  0
 57 54  1  0
 58 69  2  0
 59 64  1  0
 60 68  1  0
 60 70  1  0
 61 67  1  0
 61 63  1  0
 62 68  1  0
 63 62  1  0
 64 63  2  0
 65 66  1  0
 65 59  2  0
 66 61  2  0
 67 60  1  0
 68 58  1  0
 70 72  2  0
 71 70  1  0
 73 71  1  0
 74 83  2  0
 74 79  1  0
 75 71  1  0
 75 79  1  0
 76 75  1  0
 77 78  1  0
 77 76  1  0
 78 74  1  0
 79 80  2  0
 80 81  1  0
 82 81  2  0
 83 82  1  0
 84 58  1  0
 84 85  1  0
 84 94  1  0
 85 88  1  0
 86 90  1  0
 86 85  1  0
 87 86  2  0
 90 89  1  0
 92 90  1  0
 92 93  1  0
 92 91  1  0
 94 97  1  1
 94 95  1  0
 96 94  1  0
 98  1  1  0
 98100  2  0
 99 98  1  0
M  ISO  4  13 100  21 100  54 101  57 101
M  END
>  <TORSDO>  (50) 
F 22

>  <SCORE>  (50) 
-12.093

>  <name>  (50) 
50

>  <ligand_id>  (50) 
50

>  <original_smiles>  (50) 
[H]N=C(C(F)(F)Oc1c([H])c([H])c2c(c1[H])C([H])([H])N(C(=O)C([H])(N([H])C(=O)C([H])(N([H])C([H])([H])[H])C([H])([H])[H])C(C([H])([H])[H])(C([H])([H])[H])C([H])([H])[H])C([H])(C(=O)N([H])C1([H])c3c([H])c([H])c([H])c([H])c3C([H])([H])C([H])([H])C1([H])[H])C2([H])[H])C([H])(C(=O)C([H])([H])[H])c1c([H])c([H])c([H])c([H])c1C(=C(F)C([H])([H])N([H])C(=O)N1C([H])([H])C([H])([H])C([H])([H])C([H])(n2nc(-c3c([H])c([H])c(Oc4c([H])c([H])c(F)c([H])c4F)c([H])c3[H])c(C(=O)N([H])[H])c2N([H])[H])C1([H])[H])C([H])([H])[H]

>  <smiles>  (50) 
[H]N=C(C(F)(F)Oc1c([H])c([H])c2c(c1[H])C([H])([H])N(C(=O)C([H])(N([H])C(=O)C([H])(N([H])C([H])([H])[H])C([H])([H])[H])C(C([H])([H])[H])(C([H])([H])[H])C([H])([H])[H])C([H])(C(=O)N([H])C1([H])c3c([H])c([H])c([H])c([H])c3C([H])([H])C([H])([H])C1([H])[H])C2([H])[H])C([H])(C(=O)C([H])([H])[H])c1c([H])c([H])c([H])c([H])c1C(=C(F)C([H])([H])N([H])C(=O)N1C([H])([H])C([H])([H])C([H])([H])C([H])(n2nc(-c3c([H])c([H])c(Oc4c([H])c([H])c(F)c([H])c4F)c([H])c3[H])c(C(=O)N([H])[H])c2N([H])[H])C1([H])[H])C([H])([H])[H]

$$$$
51:0:0
     RDKit          3D

 92100  0  0  1  0  0  0  0  0999 V2000
  -30.2230  -20.8440   21.9200 C   0  0  0  0  0  3  0  0  0  0  0  0
  -30.6590  -22.1080   21.7520 C   0  0  0  0  0  3  0  0  0  0  0  0
  -29.5800  -23.0150   23.8860 C   0  0  0  0  0  1  0  0  0  0  0  0
  -30.1860  -23.3430   22.5100 C   0  0  0  0  0  3  0  0  0  0  0  0
  -29.2030  -24.1960   21.6830 C   0  0  0  0  0  2  0  0  0  0  0  0
  -29.7420  -24.6950   20.3280 C   0  0  0  0  0  2  0  0  0  0  0  0
  -28.6780  -25.4800   19.5460 C   0  0  0  0  0  2  0  0  0  0  0  0
  -28.5350  -26.7780   20.1300 O   0  0  0  0  0  0  0  0  0  0  0  0
  -24.6250  -31.8170   23.2310 C   0  0  0  0  0  0  0  0  0  0  0  0
  -27.3240  -27.4410   20.1020 C   0  0  0  0  0  0  0  0  0  0  0  0
  -23.4360  -30.4170   21.5780 C   0  0  0  0  0  3  0  0  0  0  0  0
  -24.9040  -28.9120   20.1390 C   0  0  0  0  0  0  0  0  0  0  0  0
  -25.9560  -30.8040   21.3870 C   0  0  0  0  0  2  0  0  0  0  0  0
  -26.0540  -29.4410   20.7350 C   0  0  0  0  0  0  0  0  0  0  0  0
  -27.2610  -28.7100   20.7210 C   0  0  0  0  0  3  0  0  0  0  0  0
  -26.1520  -26.9280   19.4940 C   0  0  0  0  0  3  0  0  0  0  0  0
  -24.9470  -27.6520   19.5220 C   0  0  0  0  0  3  0  0  0  0  0  0
  -23.6520  -29.7550   20.1910 C   0  0  0  0  0  2  0  0  0  0  0  0
  -24.6900  -31.0280   22.1230 N   0  0  0  0  0  0  0  0  0  0  0  0
  -23.5410  -32.0710   23.7730 O   0  0  0  0  0  0  0  0  0  0  0  0
  -22.7980  -29.3770   22.5270 C   0  0  0  0  0  0  0  0  0  0  0  0
  -21.4850  -29.1460   22.3660 N   0  0  0  0  0  0  0  0  0  0  0  0
  -23.4820  -28.7800   23.3630 O   0  0  0  0  0  0  0  0  0  0  0  0
  -20.9930  -29.6830   21.6640 H   0  0  0  0  0  0  0  0  0  0  0  0
  -18.1500  -27.8120   22.7530 C   0  0  0  0  0  0  0  0  0  0  0  0
  -20.6810  -28.1860   23.1200 C   0  0  0  0  0  3  0  0  0  0  0  0
  -20.8690  -26.7510   22.5750 C   0  0  0  0  0  2  0  0  0  0  0  0
  -19.8240  -26.3640   21.5240 C   0  0  0  0  0  2  0  0  0  0  0  0
  -18.4120  -26.4600   22.1100 C   0  0  0  0  0  2  0  0  0  0  0  0
  -19.2170  -28.6290   23.2120 C   0  0  0  0  0  0  0  0  0  0  0  0
  -18.9210  -29.8920   23.7690 C   0  0  0  0  0  3  0  0  0  0  0  0
  -17.5900  -30.3400   23.8700 C   0  0  0  0  0  3  0  0  0  0  0  0
  -16.5370  -29.5210   23.4280 C   0  0  0  0  0  3  0  0  0  0  0  0
  -16.8180  -28.2590   22.8760 C   0  0  0  0  0  3  0  0  0  0  0  0
  -25.9040  -32.4550   23.8570 C   0  0  0  0  0  3  0  0  0  0  0  0
  -25.5850  -33.8510   24.1860 N   0  0  0  0  0  0  0  0  0  0  0  0
  -25.9140  -34.9060   23.4290 C   0  0  0  0  0  0  0  0  0  0  0  0
  -26.5920  -34.8070   22.4020 O   0  0  0  0  0  0  0  0  0  0  0  0
  -24.9870  -34.0010   24.9850 H   0  0  0  0  0  0  0  0  0  0  0  0
  -24.1770  -36.6850   23.0560 C   0  0  0  0  0  1  0  0  0  0  0  0
  -25.4120  -36.2900   23.8820 C   0  0  0  0  0  3  0  0  0  0  0  0
  -27.5300  -37.1890   24.7380 C   0  0  0  0  0  1  0  0  0  0  0  0
  -26.4400  -37.3500   23.7800 N   0  0  0  0  0  0  0  0  0  0  0  0
  -26.0270  -38.2670   23.9210 H   0  0  0  0  0  0  0  0  0  0  0  0
  -26.4250  -31.6860   25.1320 C   0  0  1  0  0  0  0  0  0  0  0  0
  -25.3320  -31.4310   26.1960 C   0  0  0  0  0  1  0  0  0  0  0  0
  -27.0240  -30.3160   24.7340 C   0  0  0  0  0  1  0  0  0  0  0  0
  -27.5650  -32.4900   25.8010 C   0  0  0  0  0  1  0  0  0  0  0  0
  -30.7580  -19.6480   21.1530 C   0  0  0  0  0  2  0  0  0  0  0  0
  -29.7300  -17.5500   22.0860 C   0  0  0  0  0  2  0  0  0  0  0  0
  -31.6920  -17.3250   21.5210 C   0  0  0  0  0  2  0  0  0  0  0  0
  -30.3900  -16.7690   20.9470 C   0  0  0  0  0  3  0  0  0  0  0  0
  -30.8930  -18.4540   22.0310 N   0  0  1  0  0  4  0  0  0  0  0  0
  -31.2090  -18.7280   22.9500 H   0  0  0  0  0  0  0  0  0  0  0  0
  -30.7980  -14.4420   20.1650 C   0  0  0  0  0  0  0  0  0  0  0  0
  -30.4340  -12.3570   18.9020 C   0  0  0  0  0  2  0  0  0  0  0  0
  -29.4170  -12.6140   17.7720 C   0  0  0  0  0  2  0  0  0  0  0  0
  -27.9700  -12.4600   18.2840 C   0  0  0  0  0  2  0  0  0  0  0  0
  -27.7140  -13.2420   19.5990 C   0  0  0  0  0  3  0  0  0  0  0  0
  -28.8270  -12.9440   20.6300 C   0  0  0  0  0  2  0  0  0  0  0  0
  -30.1260  -13.2720   20.0110 N   0  0  0  0  0  0  0  0  0  0  0  0
  -31.8180  -14.7370   19.5320 O   0  0  0  0  0  0  0  0  0  0  0  0
  -30.1990  -15.3190   20.9810 N   0  0  0  0  0  0  0  0  0  0  0  0
  -29.3890  -14.9710   21.4720 H   0  0  0  0  0  0  0  0  0  0  0  0
  -25.3500  -13.8280   20.4420 C   0  0  0  0  0  0  0  0  0  0  0  0
  -24.3070  -13.0440   20.8580 C   0  0  0  0  0  0  0  0  0  0  0  0
  -24.7730  -11.6960   20.7780 C   0  0  0  0  0  0  0  0  0  0  0  0
  -26.3870  -12.9580   20.1420 N   0  0  0  0  0  0  0  0  0  0  0  0
  -26.0430  -11.6680   20.3970 N   0  0  0  0  0  0  0  0  0  0  0  0
  -24.0670  -10.4260   20.9900 C   0  0  0  0  0  0  0  0  0  0  0  0
  -24.5140   -9.4810   21.9390 C   0  0  0  0  0  3  0  0  0  0  0  0
  -23.8090   -8.2740   22.1370 C   0  0  0  0  0  3  0  0  0  0  0  0
  -22.6410   -8.0050   21.3840 C   0  0  0  0  0  0  0  0  0  0  0  0
  -22.2120   -8.9380   20.4250 C   0  0  0  0  0  3  0  0  0  0  0  0
  -22.9190  -10.1360   20.2260 C   0  0  0  0  0  3  0  0  0  0  0  0
  -21.9060   -6.8490   21.4890 O   0  0  0  0  0  0  0  0  0  0  0  0
  -21.8150   -6.1590   22.6710 C   0  0  0  0  0  0  0  0  0  0  0  0
  -21.3040   -6.7540   23.8450 C   0  0  0  0  0  3  0  0  0  0  0  0
  -21.1630   -5.9870   25.0190 C   0  0  0  0  0  3  0  0  0  0  0  0
  -21.5250   -4.6270   25.0200 C   0  0  0  0  0  0  0  0  0  0  0  0
  -22.0310   -4.0320   23.8520 C   0  0  0  0  0  3  0  0  0  0  0  0
  -22.1720   -4.7940   22.6790 C   0  0  0  0  0  0  0  0  0  0  0  0
  -22.6400   -4.2110   21.5500 F   0  0  0  0  0  0  0  0  0  0  0  0
  -21.3830   -3.8890   26.1460 F   0  0  0  0  0  0  0  0  0  0  0  0
  -22.9260  -13.5080   21.2180 C   0  0  0  0  0  0  0  0  0  0  0  0
  -22.2490  -12.7890   22.1080 N   0  0  0  0  0  0  0  0  0  0  0  0
  -22.4540  -14.5420   20.7460 O   0  0  0  0  0  0  0  0  0  0  0  0
  -22.6420  -11.9520   22.5110 H   0  0  0  0  0  0  0  0  0  0  0  0
  -21.3250  -13.0810   22.3900 H   0  0  0  0  0  0  0  0  0  0  0  0
  -25.4960  -15.2040   20.2790 N   0  0  0  0  0  0  0  0  0  0  0  0
  -24.7320  -15.8490   20.4460 H   0  0  0  0  0  0  0  0  0  0  0  0
  -26.3230  -15.6550   19.9090 H   0  0  0  0  0  0  0  0  0  0  0  0
  2  1  2  0
  2  4  1  0
  4  3  1  0
  5  4  1  0
  6  5  1  0
  7  8  1  0
  7  6  1  0
  9 20  2  0
 10  8  1  0
 10 15  1  0
 11 19  1  0
 11 21  1  0
 12 18  1  0
 12 14  1  0
 13 19  1  0
 14 13  1  0
 15 14  2  0
 16 17  1  0
 16 10  2  0
 17 12  2  0
 18 11  1  0
 19  9  1  0
 21 23  2  0
 22 21  1  0
 24 22  1  0
 25 34  2  0
 25 30  1  0
 26 22  1  0
 26 30  1  0
 27 26  1  0
 28 29  1  0
 28 27  1  0
 29 25  1  0
 30 31  2  0
 31 32  1  0
 33 32  2  0
 34 33  1  0
 35  9  1  0
 35 36  1  0
 35 45  1  0
 36 39  1  0
 37 41  1  0
 37 36  1  0
 38 37  2  0
 41 40  1  0
 43 41  1  0
 43 44  1  0
 43 42  1  0
 45 48  1  1
 45 46  1  0
 47 45  1  0
 49  1  1  0
 49 53  1  0
 51 53  1  0
 52 63  1  0
 52 51  1  0
 52 50  1  0
 53 50  1  0
 53 54  1  1
 55 63  1  0
 56 61  1  0
 57 58  1  0
 57 56  1  0
 59 58  1  0
 59 68  1  0
 59 60  1  0
 61 55  1  0
 61 60  1  0
 62 55  2  0
 63 64  1  0
 65 66  2  0
 66 85  1  0
 67 66  1  0
 67 70  1  0
 68 69  1  0
 68 65  1  0
 69 67  2  0
 70 71  1  0
 71 72  2  0
 73 76  1  0
 73 72  1  0
 74 73  2  0
 75 74  1  0
 75 70  2  0
 76 77  1  0
 77 82  2  0
 77 78  1  0
 78 79  2  0
 79 80  1  0
 80 84  1  0
 81 80  2  0
 82 81  1  0
 83 82  1  0
 85 86  1  0
 86 89  1  0
 86 88  1  0
 87 85  2  0
 90 65  1  0
 90 91  1  0
 92 90  1  0
M  ISO  4   7 101   8 101  55 100  63 100
M  END
>  <TORSDO>  (51) 
F 22

>  <SCORE>  (51) 
-12.331

>  <name>  (51) 
51

>  <ligand_id>  (51) 
51

>  <original_smiles>  (51) 
[H]C(=C([H])C([H])([H])[N+]1([H])C([H])([H])C([H])(N([H])C(=O)N2C([H])([H])C([H])([H])C([H])([H])C([H])(n3nc(-c4c([H])c([H])c(Oc5c([H])c([H])c(F)c([H])c5F)c([H])c4[H])c(C(=O)N([H])[H])c3N([H])[H])C2([H])[H])C1([H])[H])C([H])(C([H])([H])[H])C([H])([H])C([H])([H])C([H])([H])Oc1c([H])c([H])c2c(c1[H])C([H])([H])N(C(=O)C([H])(N([H])C(=O)C([H])(N([H])C([H])([H])[H])C([H])([H])[H])C(C([H])([H])[H])(C([H])([H])[H])C([H])([H])[H])C([H])(C(=O)N([H])C1([H])c3c([H])c([H])c([H])c([H])c3C([H])([H])C([H])([H])C1([H])[H])C2([H])[H]

>  <smiles>  (51) 
[H]C(=C([H])C([H])([H])[N+]1([H])C([H])([H])C([H])(N([H])C(=O)N2C([H])([H])C([H])([H])C([H])([H])C([H])(n3nc(-c4c([H])c([H])c(Oc5c([H])c([H])c(F)c([H])c5F)c([H])c4[H])c(C(=O)N([H])[H])c3N([H])[H])C2([H])[H])C1([H])[H])C([H])(C([H])([H])[H])C([H])([H])C([H])([H])C([H])([H])Oc1c([H])c([H])c2c(c1[H])C([H])([H])N(C(=O)C([H])(N([H])C(=O)C([H])(N([H])C([H])([H])[H])C([H])([H])[H])C(C([H])([H])[H])(C([H])([H])[H])C([H])([H])[H])C([H])(C(=O)N([H])C1([H])c3c([H])c([H])c([H])c([H])c3C([H])([H])C([H])([H])C1([H])[H])C2([H])[H]

$$$$
52:0:0
     RDKit          3D

 94103  0  0  1  0  0  0  0  0999 V2000
  -29.4000  -21.8380   17.1590 C   0  0  0  0  0  2  0  0  0  0  0  0
  -29.5870  -20.8210   18.2710 C   0  0  0  0  0  2  0  0  0  0  0  0
  -28.4100  -22.8610   17.7190 C   0  0  0  0  0  2  0  0  0  0  0  0
  -29.2850  -21.5680   19.5820 C   0  0  0  0  0  3  0  0  0  0  0  0
  -28.3690  -22.7180   19.2070 N   0  0  1  0  0  4  0  0  0  0  0  0
  -27.4390  -22.3570   19.3640 H   0  0  0  0  0  0  0  0  0  0  0  0
  -28.7450  -20.5340   20.6410 C   0  0  0  0  0  2  0  0  0  0  0  0
  -31.7410  -18.5580   22.0200 C   0  0  0  0  0  3  0  0  0  0  0  0
  -30.8950  -19.6190   21.6610 C   0  0  0  0  0  3  0  0  0  0  0  0
  -31.3550  -17.2470   21.7030 C   0  0  0  0  0  3  0  0  0  0  0  0
  -29.6920  -19.3480   20.9870 C   0  0  0  0  0  0  0  0  0  0  0  0
  -30.1530  -17.0020   21.0050 C   0  0  0  0  0  0  0  0  0  0  0  0
  -29.3360  -18.0580   20.6750 N   0  0  0  0  0  0  0  0  0  0  0  0
  -30.5550  -14.5680   20.4060 C   0  0  0  0  0  0  0  0  0  0  0  0
  -30.2890  -12.3800   19.2730 C   0  0  0  0  0  2  0  0  0  0  0  0
  -29.3370  -12.5710   18.0730 C   0  0  0  0  0  2  0  0  0  0  0  0
  -27.8640  -12.4310   18.5100 C   0  0  0  0  0  2  0  0  0  0  0  0
  -27.5340  -13.2520   19.7870 C   0  0  0  0  0  3  0  0  0  0  0  0
  -28.6030  -13.0400   20.8830 C   0  0  0  0  0  2  0  0  0  0  0  0
  -29.9070  -13.3740   20.2920 N   0  0  0  0  0  0  0  0  0  0  0  0
  -31.7180  -14.7050   20.0080 O   0  0  0  0  0  0  0  0  0  0  0  0
  -29.7790  -15.6300   20.7620 N   0  0  0  0  0  0  0  0  0  0  0  0
  -28.7960  -15.4230   20.8400 H   0  0  0  0  0  0  0  0  0  0  0  0
  -25.1370  -13.8470   20.4930 C   0  0  0  0  0  0  0  0  0  0  0  0
  -24.0750  -13.0710   20.8710 C   0  0  0  0  0  0  0  0  0  0  0  0
  -24.5460  -11.7200   20.8430 C   0  0  0  0  0  0  0  0  0  0  0  0
  -26.1880  -12.9700   20.2720 N   0  0  0  0  0  0  0  0  0  0  0  0
  -25.8370  -11.6860   20.5410 N   0  0  0  0  0  0  0  0  0  0  0  0
  -23.8270  -10.4560   21.0360 C   0  0  0  0  0  0  0  0  0  0  0  0
  -24.2640   -9.4920   21.9710 C   0  0  0  0  0  3  0  0  0  0  0  0
  -23.5410   -8.2940   22.1500 C   0  0  0  0  0  3  0  0  0  0  0  0
  -22.3680   -8.0510   21.3970 C   0  0  0  0  0  0  0  0  0  0  0  0
  -21.9550   -9.0030   20.4490 C   0  0  0  0  0  3  0  0  0  0  0  0
  -22.6770  -10.1920   20.2660 C   0  0  0  0  0  3  0  0  0  0  0  0
  -21.6180   -6.9030   21.4850 O   0  0  0  0  0  0  0  0  0  0  0  0
  -21.5760   -6.1590   22.6380 C   0  0  0  0  0  0  0  0  0  0  0  0
  -21.1470   -6.7080   23.8670 C   0  0  0  0  0  3  0  0  0  0  0  0
  -21.0540   -5.8890   25.0090 C   0  0  0  0  0  3  0  0  0  0  0  0
  -21.3800   -4.5220   24.9260 C   0  0  0  0  0  0  0  0  0  0  0  0
  -21.8000   -3.9720   23.7030 C   0  0  0  0  0  3  0  0  0  0  0  0
  -21.8960   -4.7890   22.5620 C   0  0  0  0  0  0  0  0  0  0  0  0
  -22.2800   -4.2490   21.3800 F   0  0  0  0  0  0  0  0  0  0  0  0
  -21.2870   -3.7330   26.0210 F   0  0  0  0  0  0  0  0  0  0  0  0
  -22.6760  -13.5430   21.1410 C   0  0  0  0  0  0  0  0  0  0  0  0
  -21.9510  -12.8400   22.0040 N   0  0  0  0  0  0  0  0  0  0  0  0
  -22.2340  -14.5660   20.6230 O   0  0  0  0  0  0  0  0  0  0  0  0
  -22.3210  -12.0080   22.4410 H   0  0  0  0  0  0  0  0  0  0  0  0
  -21.0140  -13.1360   22.2340 H   0  0  0  0  0  0  0  0  0  0  0  0
  -25.2900  -15.2170   20.3000 N   0  0  0  0  0  0  0  0  0  0  0  0
  -24.5100  -15.8590   20.3870 H   0  0  0  0  0  0  0  0  0  0  0  0
  -26.1320  -15.6630   19.9560 H   0  0  0  0  0  0  0  0  0  0  0  0
  -28.4140  -24.0020   20.0340 C   0  0  0  0  0  3  0  0  0  0  0  0
  -28.4730  -25.4040   19.2910 C   0  0  0  0  0  3  0  0  0  0  0  0
  -28.3450  -26.6180   20.0990 O   0  0  0  0  0  0  0  0  0  0  0  0
  -24.5740  -31.8770   23.2270 C   0  0  0  0  0  0  0  0  0  0  0  0
  -27.1730  -27.3790   20.0950 C   0  0  0  0  0  0  0  0  0  0  0  0
  -23.3550  -30.4840   21.5910 C   0  0  0  0  0  3  0  0  0  0  0  0
  -24.7900  -28.9440   20.1500 C   0  0  0  0  0  0  0  0  0  0  0  0
  -25.8900  -30.8170   21.3830 C   0  0  0  0  0  2  0  0  0  0  0  0
  -25.9630  -29.4480   20.7240 C   0  0  0  0  0  0  0  0  0  0  0  0
  -27.1540  -28.6730   20.6890 C   0  0  0  0  0  3  0  0  0  0  0  0
  -25.9610  -26.8990   19.5430 C   0  0  0  0  0  3  0  0  0  0  0  0
  -24.7870  -27.6720   19.5590 C   0  0  0  0  0  3  0  0  0  0  0  0
  -23.5540  -29.8140   20.2080 C   0  0  0  0  0  2  0  0  0  0  0  0
  -24.6260  -31.0760   22.1220 N   0  0  0  0  0  0  0  0  0  0  0  0
  -23.4960  -32.1500   23.7730 O   0  0  0  0  0  0  0  0  0  0  0  0
  -22.7050  -29.4600   22.5510 C   0  0  0  0  0  0  0  0  0  0  0  0
  -21.3790  -29.2770   22.4310 N   0  0  0  0  0  0  0  0  0  0  0  0
  -23.3920  -28.8350   23.3640 O   0  0  0  0  0  0  0  0  0  0  0  0
  -20.8850  -29.8340   21.7470 H   0  0  0  0  0  0  0  0  0  0  0  0
  -18.0080  -28.0700   22.9380 C   0  0  0  0  0  0  0  0  0  0  0  0
  -20.5670  -28.3360   23.2010 C   0  0  0  0  0  3  0  0  0  0  0  0
  -20.6720  -26.9050   22.6210 C   0  0  0  0  0  2  0  0  0  0  0  0
  -19.5680  -26.5810   21.6110 C   0  0  0  0  0  2  0  0  0  0  0  0
  -18.1870  -26.7220   22.2590 C   0  0  0  0  0  2  0  0  0  0  0  0
  -19.1260  -28.8350   23.3640 C   0  0  0  0  0  0  0  0  0  0  0  0
  -18.9050  -30.0980   23.9550 C   0  0  0  0  0  3  0  0  0  0  0  0
  -17.5980  -30.5950   24.1260 C   0  0  0  0  0  3  0  0  0  0  0  0
  -16.4950  -29.8260   23.7150 C   0  0  0  0  0  3  0  0  0  0  0  0
  -16.7020  -28.5650   23.1290 C   0  0  0  0  0  3  0  0  0  0  0  0
  -25.8650  -32.5050   23.8410 C   0  0  0  0  0  3  0  0  0  0  0  0
  -26.3870  -31.7340   25.1150 C   0  0  1  0  0  0  0  0  0  0  0  0
  -25.3020  -31.5000   26.1900 C   0  0  0  0  0  1  0  0  0  0  0  0
  -26.9640  -30.3540   24.7210 C   0  0  0  0  0  1  0  0  0  0  0  0
  -27.5420  -32.5290   25.7690 C   0  0  0  0  0  1  0  0  0  0  0  0
  -25.5620  -33.9050   24.1710 N   0  0  0  0  0  0  0  0  0  0  0  0
  -25.8990  -34.9570   23.4110 C   0  0  0  0  0  0  0  0  0  0  0  0
  -26.5660  -34.8500   22.3790 O   0  0  0  0  0  0  0  0  0  0  0  0
  -24.9790  -34.0640   24.9780 H   0  0  0  0  0  0  0  0  0  0  0  0
  -24.1860  -36.7630   23.0490 C   0  0  0  0  0  1  0  0  0  0  0  0
  -25.4180  -36.3450   23.8700 C   0  0  0  0  0  3  0  0  0  0  0  0
  -27.5510  -37.2150   24.7240 C   0  0  0  0  0  1  0  0  0  0  0  0
  -26.4590  -37.3930   23.7700 N   0  0  0  0  0  0  0  0  0  0  0  0
  -26.0570  -38.3150   23.9190 H   0  0  0  0  0  0  0  0  0  0  0  0
  1  3  1  0
  1  2  1  0
  2  4  1  0
  3  5  1  0
  4  7  1  0
  5  6  1  6
  5  4  1  0
  5 52  1  0
  7 11  1  0
  9  8  2  0
 10  8  1  0
 11  9  1  0
 12 10  2  0
 13 11  2  0
 13 12  1  0
 14 22  1  0
 15 20  1  0
 16 17  1  0
 16 15  1  0
 18 17  1  0
 18 27  1  0
 18 19  1  0
 20 14  1  0
 20 19  1  0
 21 14  2  0
 22 23  1  0
 22 12  1  0
 24 25  2  0
 25 44  1  0
 26 25  1  0
 26 29  1  0
 27 24  1  0
 27 28  1  0
 28 26  2  0
 29 30  1  0
 30 31  2  0
 32 35  1  0
 32 31  1  0
 33 32  2  0
 34 33  1  0
 34 29  2  0
 35 36  1  0
 36 37  1  0
 37 38  2  0
 39 38  1  0
 39 43  1  0
 40 39  2  0
 41 36  2  0
 41 40  1  0
 42 41  1  0
 44 45  1  0
 45 48  1  0
 45 47  1  0
 46 44  2  0
 49 50  1  0
 49 24  1  0
 51 49  1  0
 53 52  2  0
 53 54  1  0
 55 66  2  0
 56 54  1  0
 56 61  1  0
 57 65  1  0
 57 67  1  0
 58 64  1  0
 58 60  1  0
 59 65  1  0
 60 59  1  0
 61 60  2  0
 62 63  1  0
 62 56  2  0
 63 58  2  0
 64 57  1  0
 65 55  1  0
 67 69  2  0
 68 67  1  0
 70 68  1  0
 71 80  2  0
 71 76  1  0
 72 68  1  0
 72 76  1  0
 73 72  1  0
 74 75  1  0
 74 73  1  0
 75 71  1  0
 76 77  2  0
 77 78  1  0
 79 78  2  0
 80 79  1  0
 81 55  1  0
 81 86  1  0
 81 82  1  0
 82 85  1  1
 82 83  1  0
 84 82  1  0
 86 89  1  0
 87 91  1  0
 87 86  1  0
 88 87  2  0
 91 90  1  0
 93 91  1  0
 93 94  1  0
 93 92  1  0
M  ISO  4  14 100  22 100  53 101  54 101
M  END
>  <TORSDO>  (52) 
F 20

>  <SCORE>  (52) 
-13.881

>  <name>  (52) 
52

>  <ligand_id>  (52) 
52

>  <original_smiles>  (52) 
[H]c1c(N([H])C(=O)N2C([H])([H])C([H])([H])C([H])([H])C([H])(n3nc(-c4c([H])c([H])c(Oc5c([H])c([H])c(F)c([H])c5F)c([H])c4[H])c(C(=O)N([H])[H])c3N([H])[H])C2([H])[H])nc(C([H])([H])C2([H])C([H])([H])C([H])([H])C([H])([H])[N+]2([H])C([H])([H])C([H])([H])Oc2c([H])c([H])c3c(c2[H])C([H])([H])N(C(=O)C([H])(N([H])C(=O)C([H])(N([H])C([H])([H])[H])C([H])([H])[H])C(C([H])([H])[H])(C([H])([H])[H])C([H])([H])[H])C([H])(C(=O)N([H])C2([H])c4c([H])c([H])c([H])c([H])c4C([H])([H])C([H])([H])C2([H])[H])C3([H])[H])c([H])c1[H]

>  <smiles>  (52) 
[H]c1c(N([H])C(=O)N2C([H])([H])C([H])([H])C([H])([H])C([H])(n3nc(-c4c([H])c([H])c(Oc5c([H])c([H])c(F)c([H])c5F)c([H])c4[H])c(C(=O)N([H])[H])c3N([H])[H])C2([H])[H])nc(C([H])([H])C2([H])C([H])([H])C([H])([H])C([H])([H])[N+]2([H])C([H])([H])C([H])([H])Oc2c([H])c([H])c3c(c2[H])C([H])([H])N(C(=O)C([H])(N([H])C(=O)C([H])(N([H])C([H])([H])[H])C([H])([H])[H])C(C([H])([H])[H])(C([H])([H])[H])C([H])([H])[H])C([H])(C(=O)N([H])C2([H])c4c([H])c([H])c([H])c([H])c4C([H])([H])C([H])([H])C2([H])[H])C3([H])[H])c([H])c1[H]

$$$$
53:0:0
     RDKit          3D

 92100  0  0  1  0  0  0  0  0999 V2000
  -30.3270  -22.2470   20.6080 C   0  0  0  0  0  3  0  0  0  0  0  0
  -29.6190  -23.1670   19.9180 C   0  0  0  0  0  2  0  0  0  0  0  0
  -30.9830  -19.8710   21.0370 C   0  0  0  0  0  2  0  0  0  0  0  0
  -30.3230  -20.9040   20.4680 C   0  0  0  0  0  0  0  0  0  0  0  0
  -29.5810  -20.0390   19.5630 C   0  0  0  0  0  0  0  0  0  0  0  0
  -30.4440  -18.8520   20.0090 C   0  0  0  0  0  3  0  0  0  0  0  0
  -28.6440  -20.2460   18.7840 O   0  0  0  0  0  0  0  0  0  0  0  0
  -29.6680  -17.6620   20.5790 C   0  0  0  0  0  2  0  0  0  0  0  0
  -30.5500  -16.7130   21.4200 C   0  0  0  0  0  2  0  0  0  0  0  0
  -30.7010  -14.4030   20.5040 C   0  0  0  0  0  0  0  0  0  0  0  0
  -30.3460  -12.3090   19.2530 C   0  0  0  0  0  2  0  0  0  0  0  0
  -29.3970  -12.5770   18.0660 C   0  0  0  0  0  2  0  0  0  0  0  0
  -27.9250  -12.4450   18.5030 C   0  0  0  0  0  2  0  0  0  0  0  0
  -27.6120  -13.2410   19.7990 C   0  0  0  0  0  3  0  0  0  0  0  0
  -28.6690  -12.9550   20.8890 C   0  0  0  0  0  2  0  0  0  0  0  0
  -30.0000  -13.2520   20.3270 N   0  0  0  0  0  0  0  0  0  0  0  0
  -31.7620  -14.6420   19.9230 O   0  0  0  0  0  0  0  0  0  0  0  0
  -30.1180  -15.3180   21.2920 N   0  0  0  0  0  0  0  0  0  0  0  0
  -29.2650  -15.0480   21.7610 H   0  0  0  0  0  0  0  0  0  0  0  0
  -25.2130  -13.8610   20.4990 C   0  0  0  0  0  0  0  0  0  0  0  0
  -24.1440  -13.0910   20.8690 C   0  0  0  0  0  0  0  0  0  0  0  0
  -24.6010  -11.7380   20.8430 C   0  0  0  0  0  0  0  0  0  0  0  0
  -26.2560  -12.9750   20.2740 N   0  0  0  0  0  0  0  0  0  0  0  0
  -25.8890  -11.6940   20.5310 N   0  0  0  0  0  0  0  0  0  0  0  0
  -23.8730  -10.4790   21.0410 C   0  0  0  0  0  0  0  0  0  0  0  0
  -24.3140   -9.5100   21.9670 C   0  0  0  0  0  3  0  0  0  0  0  0
  -23.5900   -8.3140   22.1510 C   0  0  0  0  0  3  0  0  0  0  0  0
  -22.4080   -8.0790   21.4070 C   0  0  0  0  0  0  0  0  0  0  0  0
  -21.9860   -9.0380   20.4700 C   0  0  0  0  0  3  0  0  0  0  0  0
  -22.7110  -10.2250   20.2850 C   0  0  0  0  0  3  0  0  0  0  0  0
  -21.6530   -6.9360   21.5010 O   0  0  0  0  0  0  0  0  0  0  0  0
  -21.6230   -6.1860   22.6500 C   0  0  0  0  0  0  0  0  0  0  0  0
  -21.2180   -6.7320   23.8890 C   0  0  0  0  0  3  0  0  0  0  0  0
  -21.1370   -5.9080   25.0290 C   0  0  0  0  0  3  0  0  0  0  0  0
  -21.4480   -4.5370   24.9310 C   0  0  0  0  0  0  0  0  0  0  0  0
  -21.8450   -3.9910   23.6990 C   0  0  0  0  0  3  0  0  0  0  0  0
  -21.9290   -4.8130   22.5600 C   0  0  0  0  0  0  0  0  0  0  0  0
  -22.2910   -4.2780   21.3700 F   0  0  0  0  0  0  0  0  0  0  0  0
  -21.3630   -3.7430   26.0230 F   0  0  0  0  0  0  0  0  0  0  0  0
  -22.7480  -13.5720   21.1450 C   0  0  0  0  0  0  0  0  0  0  0  0
  -22.0240  -12.8800   22.0170 N   0  0  0  0  0  0  0  0  0  0  0  0
  -22.3090  -14.5990   20.6260 O   0  0  0  0  0  0  0  0  0  0  0  0
  -22.3900  -12.0500   22.4580 H   0  0  0  0  0  0  0  0  0  0  0  0
  -21.0870  -13.1840   22.2440 H   0  0  0  0  0  0  0  0  0  0  0  0
  -25.3780  -15.2310   20.3160 N   0  0  0  0  0  0  0  0  0  0  0  0
  -24.6100  -15.8860   20.4170 H   0  0  0  0  0  0  0  0  0  0  0  0
  -26.2330  -15.6670   19.9920 H   0  0  0  0  0  0  0  0  0  0  0  0
  -30.6600  -25.1600   21.1430 C   0  0  0  0  0  1  0  0  0  0  0  0
  -30.3030  -25.1730   18.6580 C   0  0  0  0  0  1  0  0  0  0  0  0
  -29.7280  -24.6960   20.0030 C   0  0  1  0  0  0  0  0  0  0  0  0
  -28.3200  -25.3110   20.1720 C   0  0  0  0  0  2  0  0  0  0  0  0
  -28.3830  -26.7450   20.1700 O   0  0  0  0  0  0  0  0  0  0  0  0
  -24.5770  -31.8930   23.2600 C   0  0  0  0  0  0  0  0  0  0  0  0
  -27.1950  -27.4430   20.1730 C   0  0  0  0  0  0  0  0  0  0  0  0
  -23.3610  -30.4960   21.6210 C   0  0  0  0  0  3  0  0  0  0  0  0
  -24.8020  -28.9570   20.1930 C   0  0  0  0  0  0  0  0  0  0  0  0
  -25.8880  -30.8490   21.4150 C   0  0  0  0  0  2  0  0  0  0  0  0
  -25.9650  -29.4790   20.7720 C   0  0  0  0  0  0  0  0  0  0  0  0
  -27.1650  -28.7320   20.7530 C   0  0  0  0  0  3  0  0  0  0  0  0
  -26.0060  -26.9320   19.5980 C   0  0  0  0  0  3  0  0  0  0  0  0
  -24.8180  -27.6830   19.6040 C   0  0  0  0  0  3  0  0  0  0  0  0
  -23.5620  -29.8180   20.2410 C   0  0  0  0  0  2  0  0  0  0  0  0
  -24.6280  -31.0920   22.1570 N   0  0  0  0  0  0  0  0  0  0  0  0
  -23.4990  -32.1670   23.8030 O   0  0  0  0  0  0  0  0  0  0  0  0
  -22.7120  -29.4740   22.5830 C   0  0  0  0  0  0  0  0  0  0  0  0
  -21.3870  -29.2880   22.4550 N   0  0  0  0  0  0  0  0  0  0  0  0
  -23.3970  -28.8490   23.3980 O   0  0  0  0  0  0  0  0  0  0  0  0
  -20.8970  -29.8440   21.7690 H   0  0  0  0  0  0  0  0  0  0  0  0
  -18.0150  -28.0950   22.9510 C   0  0  0  0  0  0  0  0  0  0  0  0
  -20.5710  -28.3530   23.2270 C   0  0  0  0  0  3  0  0  0  0  0  0
  -20.6750  -26.9190   22.6540 C   0  0  0  0  0  2  0  0  0  0  0  0
  -19.5750  -26.5950   21.6390 C   0  0  0  0  0  2  0  0  0  0  0  0
  -18.1920  -26.7430   22.2810 C   0  0  0  0  0  2  0  0  0  0  0  0
  -19.1330  -28.8570   23.3810 C   0  0  0  0  0  0  0  0  0  0  0  0
  -18.9140  -30.1220   23.9680 C   0  0  0  0  0  3  0  0  0  0  0  0
  -17.6100  -30.6270   24.1280 C   0  0  0  0  0  3  0  0  0  0  0  0
  -16.5060  -29.8610   23.7140 C   0  0  0  0  0  3  0  0  0  0  0  0
  -16.7090  -28.5970   23.1320 C   0  0  0  0  0  3  0  0  0  0  0  0
  -25.8690  -32.5190   23.8730 C   0  0  0  0  0  3  0  0  0  0  0  0
  -25.5670  -33.9190   24.2000 N   0  0  0  0  0  0  0  0  0  0  0  0
  -25.9010  -34.9650   23.4350 C   0  0  0  0  0  0  0  0  0  0  0  0
  -26.5660  -34.8550   22.4000 O   0  0  0  0  0  0  0  0  0  0  0  0
  -24.9740  -34.0790   25.0010 H   0  0  0  0  0  0  0  0  0  0  0  0
  -24.1770  -36.7620   23.0750 C   0  0  0  0  0  1  0  0  0  0  0  0
  -25.4180  -36.3570   23.8870 C   0  0  0  0  0  3  0  0  0  0  0  0
  -27.5570  -37.2360   24.7120 C   0  0  0  0  0  1  0  0  0  0  0  0
  -26.4540  -37.4070   23.7690 N   0  0  0  0  0  0  0  0  0  0  0  0
  -26.0520  -38.3290   23.9170 H   0  0  0  0  0  0  0  0  0  0  0  0
  -26.3890  -31.7480   25.1480 C   0  0  1  0  0  0  0  0  0  0  0  0
  -25.3000  -31.5150   26.2210 C   0  0  0  0  0  1  0  0  0  0  0  0
  -26.9650  -30.3680   24.7540 C   0  0  0  0  0  1  0  0  0  0  0  0
  -27.5450  -32.5390   25.8040 C   0  0  0  0  0  1  0  0  0  0  0  0
  2 50  1  0
  2  1  1  0
  4  1  2  0
  4  3  1  0
  5  6  1  0
  5  4  1  0
  6  8  1  0
  6  3  1  0
  7  5  2  0
  8  9  1  0
 10 18  1  0
 11 16  1  0
 12 13  1  0
 12 11  1  0
 14 13  1  0
 14 23  1  0
 14 15  1  0
 16 10  1  0
 16 15  1  0
 17 10  2  0
 18  9  1  0
 18 19  1  0
 20 21  2  0
 21 40  1  0
 22 21  1  0
 22 25  1  0
 23 20  1  0
 23 24  1  0
 24 22  2  0
 25 26  1  0
 26 27  2  0
 28 31  1  0
 28 27  1  0
 29 28  2  0
 30 29  1  0
 30 25  2  0
 31 32  1  0
 32 33  1  0
 33 34  2  0
 35 34  1  0
 35 39  1  0
 36 35  2  0
 37 32  2  0
 37 36  1  0
 38 37  1  0
 40 41  1  0
 41 44  1  0
 41 43  1  0
 42 40  2  0
 45 46  1  0
 45 20  1  0
 47 45  1  0
 50 49  1  6
 50 51  1  0
 50 48  1  0
 52 51  1  0
 52 54  1  0
 53 64  2  0
 54 59  1  0
 55 63  1  0
 55 65  1  0
 56 62  1  0
 56 58  1  0
 57 63  1  0
 58 57  1  0
 59 58  2  0
 60 61  1  0
 60 54  2  0
 61 56  2  0
 62 55  1  0
 63 53  1  0
 65 67  2  0
 66 65  1  0
 68 66  1  0
 69 78  2  0
 69 74  1  0
 70 66  1  0
 70 74  1  0
 71 70  1  0
 72 73  1  0
 72 71  1  0
 73 69  1  0
 74 75  2  0
 75 76  1  0
 77 76  2  0
 78 77  1  0
 79 53  1  0
 79 80  1  0
 79 89  1  0
 80 83  1  0
 81 85  1  0
 81 80  1  0
 82 81  2  0
 85 84  1  0
 87 85  1  0
 87 88  1  0
 87 86  1  0
 89 92  1  1
 89 90  1  0
 91 89  1  0
M  ISO  4  10 100  18 100  51 101  52 101
M  END
>  <TORSDO>  (53) 
F 21

>  <SCORE>  (53) 
-13.689

>  <name>  (53) 
53

>  <ligand_id>  (53) 
53

>  <original_smiles>  (53) 
[H]C(C1=C([H])C([H])(C([H])([H])C([H])([H])N([H])C(=O)N2C([H])([H])C([H])([H])C([H])([H])C([H])(n3nc(-c4c([H])c([H])c(Oc5c([H])c([H])c(F)c([H])c5F)c([H])c4[H])c(C(=O)N([H])[H])c3N([H])[H])C2([H])[H])C1=O)=C([H])C(C([H])([H])[H])(C([H])([H])[H])C([H])([H])Oc1c([H])c([H])c2c(c1[H])C([H])([H])N(C(=O)C([H])(N([H])C(=O)C([H])(N([H])C([H])([H])[H])C([H])([H])[H])C(C([H])([H])[H])(C([H])([H])[H])C([H])([H])[H])C([H])(C(=O)N([H])C1([H])c3c([H])c([H])c([H])c([H])c3C([H])([H])C([H])([H])C1([H])[H])C2([H])[H]

>  <smiles>  (53) 
[H]C(C1=C([H])C([H])(C([H])([H])C([H])([H])N([H])C(=O)N2C([H])([H])C([H])([H])C([H])([H])C([H])(n3nc(-c4c([H])c([H])c(Oc5c([H])c([H])c(F)c([H])c5F)c([H])c4[H])c(C(=O)N([H])[H])c3N([H])[H])C2([H])[H])C1=O)=C([H])C(C([H])([H])[H])(C([H])([H])[H])C([H])([H])Oc1c([H])c([H])c2c(c1[H])C([H])([H])N(C(=O)C([H])(N([H])C(=O)C([H])(N([H])C([H])([H])[H])C([H])([H])[H])C(C([H])([H])[H])(C([H])([H])[H])C([H])([H])[H])C([H])(C(=O)N([H])C1([H])c3c([H])c([H])c([H])c([H])c3C([H])([H])C([H])([H])C1([H])[H])C2([H])[H]

$$$$
54:0:0
     RDKit          3D

 92100  0  0  1  0  0  0  0  0999 V2000
  -30.4500  -21.5940   21.3930 C   0  0  0  0  0  3  0  0  0  0  0  0
  -29.6770  -21.2020   19.1270 C   0  0  0  0  0  3  0  0  0  0  0  0
  -30.7920  -20.2270   21.5100 C   0  0  0  0  0  3  0  0  0  0  0  0
  -30.0200  -19.8320   19.2440 C   0  0  0  0  0  3  0  0  0  0  0  0
  -29.9110  -22.1050   20.1910 C   0  0  0  0  0  0  0  0  0  0  0  0
  -30.6080  -19.3330   20.4280 C   0  0  0  0  0  0  0  0  0  0  0  0
  -29.7070  -23.6230   20.0060 C   0  0  0  0  0  2  0  0  0  0  0  0
  -28.3680  -24.2280   20.4510 C   0  0  0  0  0  0  0  0  0  0  0  0
  -27.2730  -23.6190   20.2690 N   0  0  0  0  0  0  0  0  0  0  0  0
  -27.4280  -22.7220   19.8230 H   0  0  0  0  0  0  0  0  0  0  0  0
  -28.4150  -25.6120   21.1310 C   0  0  0  0  0  2  0  0  0  0  0  0
  -28.3740  -26.7340   20.2260 O   0  0  0  0  0  0  0  0  0  0  0  0
  -24.5010  -31.8870   23.3110 C   0  0  0  0  0  0  0  0  0  0  0  0
  -27.2100  -27.4720   20.2450 C   0  0  0  0  0  0  0  0  0  0  0  0
  -23.3280  -30.4980   21.6330 C   0  0  0  0  0  3  0  0  0  0  0  0
  -24.8120  -28.9730   20.2230 C   0  0  0  0  0  0  0  0  0  0  0  0
  -25.8550  -30.8650   21.4810 C   0  0  0  0  0  2  0  0  0  0  0  0
  -25.9580  -29.4960   20.8360 C   0  0  0  0  0  0  0  0  0  0  0  0
  -27.1630  -28.7540   20.8420 C   0  0  0  0  0  3  0  0  0  0  0  0
  -26.0510  -26.9630   19.6290 C   0  0  0  0  0  3  0  0  0  0  0  0
  -24.8540  -27.7040   19.6170 C   0  0  0  0  0  3  0  0  0  0  0  0
  -23.5640  -29.8280   20.2540 C   0  0  0  0  0  2  0  0  0  0  0  0
  -24.5790  -31.0980   22.2010 N   0  0  0  0  0  0  0  0  0  0  0  0
  -23.4100  -32.1540   23.8340 O   0  0  0  0  0  0  0  0  0  0  0  0
  -22.6600  -29.4690   22.5740 C   0  0  0  0  0  0  0  0  0  0  0  0
  -21.3360  -29.2940   22.4270 N   0  0  0  0  0  0  0  0  0  0  0  0
  -23.3310  -28.8300   23.3890 O   0  0  0  0  0  0  0  0  0  0  0  0
  -20.8570  -29.8610   21.7410 H   0  0  0  0  0  0  0  0  0  0  0  0
  -17.9450  -28.1340   22.8920 C   0  0  0  0  0  0  0  0  0  0  0  0
  -20.5060  -28.3500   23.1740 C   0  0  0  0  0  3  0  0  0  0  0  0
  -20.5900  -26.9320   22.5630 C   0  0  0  0  0  2  0  0  0  0  0  0
  -19.4860  -26.6480   21.5400 C   0  0  0  0  0  2  0  0  0  0  0  0
  -18.1040  -26.7990   22.1850 C   0  0  0  0  0  2  0  0  0  0  0  0
  -19.0740  -28.8690   23.3430 C   0  0  0  0  0  0  0  0  0  0  0  0
  -18.8730  -30.1220   23.9620 C   0  0  0  0  0  3  0  0  0  0  0  0
  -17.5770  -30.6400   24.1360 C   0  0  0  0  0  3  0  0  0  0  0  0
  -16.4620  -29.9000   23.7040 C   0  0  0  0  0  3  0  0  0  0  0  0
  -16.6470  -28.6500   23.0880 C   0  0  0  0  0  3  0  0  0  0  0  0
  -25.7750  -32.5140   23.9590 C   0  0  0  0  0  3  0  0  0  0  0  0
  -25.4670  -33.9150   24.2760 N   0  0  0  0  0  0  0  0  0  0  0  0
  -25.8540  -34.9640   23.5380 C   0  0  0  0  0  0  0  0  0  0  0  0
  -26.5790  -34.8530   22.5440 O   0  0  0  0  0  0  0  0  0  0  0  0
  -24.8330  -34.0770   25.0440 H   0  0  0  0  0  0  0  0  0  0  0  0
  -24.1930  -36.7930   23.0720 C   0  0  0  0  0  1  0  0  0  0  0  0
  -25.3600  -36.3570   23.9710 C   0  0  0  0  0  3  0  0  0  0  0  0
  -27.4390  -37.1920   24.9730 C   0  0  0  0  0  1  0  0  0  0  0  0
  -26.4170  -37.3900   23.9480 N   0  0  0  0  0  0  0  0  0  0  0  0
  -26.0190  -38.3160   24.0740 H   0  0  0  0  0  0  0  0  0  0  0  0
  -26.2610  -31.7430   25.2470 C   0  0  1  0  0  0  0  0  0  0  0  0
  -25.1390  -31.5010   26.2850 C   0  0  0  0  0  1  0  0  0  0  0  0
  -26.8560  -30.3660   24.8660 C   0  0  0  0  0  1  0  0  0  0  0  0
  -27.3930  -32.5370   25.9390 C   0  0  0  0  0  1  0  0  0  0  0  0
  -31.1220  -17.8860   20.5210 C   0  0  0  0  0  3  0  0  0  0  0  0
  -30.0350  -16.7830   20.4600 C   0  0  0  0  0  3  0  0  0  0  0  0
  -31.0190  -14.5130   20.0370 C   0  0  0  0  0  0  0  0  0  0  0  0
  -30.6390  -12.3720   18.8450 C   0  0  0  0  0  2  0  0  0  0  0  0
  -29.6260  -12.5660   17.6970 C   0  0  0  0  0  2  0  0  0  0  0  0
  -28.1800  -12.4280   18.2090 C   0  0  0  0  0  2  0  0  0  0  0  0
  -27.9170  -13.2760   19.4810 C   0  0  0  0  0  3  0  0  0  0  0  0
  -29.0240  -13.0350   20.5290 C   0  0  0  0  0  2  0  0  0  0  0  0
  -30.3270  -13.3440   19.9070 N   0  0  0  0  0  0  0  0  0  0  0  0
  -32.0140  -14.7740   19.3490 O   0  0  0  0  0  0  0  0  0  0  0  0
  -30.6570  -15.2740   22.3270 C   0  0  0  0  0  1  0  0  0  0  0  0
  -30.4830  -15.4330   20.8790 N   0  0  0  0  0  0  0  0  0  0  0  0
  -25.5800  -13.9140   20.3540 C   0  0  0  0  0  0  0  0  0  0  0  0
  -24.5210  -13.1540   20.7700 C   0  0  0  0  0  0  0  0  0  0  0  0
  -24.9490  -11.7950   20.6750 C   0  0  0  0  0  0  0  0  0  0  0  0
  -26.5880  -13.0190   20.0330 N   0  0  0  0  0  0  0  0  0  0  0  0
  -26.2150  -11.7370   20.2810 N   0  0  0  0  0  0  0  0  0  0  0  0
  -24.2090  -10.5430   20.8800 C   0  0  0  0  0  0  0  0  0  0  0  0
  -24.6340   -9.5790   21.8200 C   0  0  0  0  0  3  0  0  0  0  0  0
  -23.8960   -8.3910   22.0110 C   0  0  0  0  0  3  0  0  0  0  0  0
  -22.7180   -8.1590   21.2620 C   0  0  0  0  0  0  0  0  0  0  0  0
  -22.3120   -9.1110   20.3100 C   0  0  0  0  0  3  0  0  0  0  0  0
  -23.0500  -10.2910   20.1180 C   0  0  0  0  0  3  0  0  0  0  0  0
  -21.9520   -7.0230   21.3620 O   0  0  0  0  0  0  0  0  0  0  0  0
  -21.8440   -6.3290   22.5410 C   0  0  0  0  0  0  0  0  0  0  0  0
  -21.3610   -6.9360   23.7200 C   0  0  0  0  0  3  0  0  0  0  0  0
  -21.2000   -6.1680   24.8910 C   0  0  0  0  0  3  0  0  0  0  0  0
  -21.5130   -4.7950   24.8830 C   0  0  0  0  0  0  0  0  0  0  0  0
  -21.9890   -4.1880   23.7060 C   0  0  0  0  0  3  0  0  0  0  0  0
  -22.1510   -4.9530   22.5380 C   0  0  0  0  0  0  0  0  0  0  0  0
  -22.5900   -4.3600   21.4030 F   0  0  0  0  0  0  0  0  0  0  0  0
  -21.3510   -4.0560   26.0050 F   0  0  0  0  0  0  0  0  0  0  0  0
  -23.1540  -13.6530   21.1450 C   0  0  0  0  0  0  0  0  0  0  0  0
  -22.4740  -12.9560   22.0510 N   0  0  0  0  0  0  0  0  0  0  0  0
  -22.7000  -14.6930   20.6710 O   0  0  0  0  0  0  0  0  0  0  0  0
  -22.8540  -12.1150   22.4570 H   0  0  0  0  0  0  0  0  0  0  0  0
  -21.5600  -13.2720   22.3420 H   0  0  0  0  0  0  0  0  0  0  0  0
  -25.7640  -15.2860   20.2030 N   0  0  0  0  0  0  0  0  0  0  0  0
  -25.0250  -15.9560   20.3910 H   0  0  0  0  0  0  0  0  0  0  0  0
  -26.6120  -15.7170   19.8560 H   0  0  0  0  0  0  0  0  0  0  0  0
  1  3  1  0
  2  4  2  0
  2  5  1  0
  4  6  1  0
  5  1  2  0
  6 53  1  0
  6  3  2  0
  7  5  1  0
  7  8  1  0
  8 11  1  0
  9  8  2  0
 10  9  1  0
 12 14  1  0
 12 11  1  0
 13 24  2  0
 14 19  1  0
 15 23  1  0
 15 25  1  0
 16 22  1  0
 16 18  1  0
 17 23  1  0
 18 19  2  0
 18 17  1  0
 20 14  2  0
 21 20  1  0
 21 16  2  0
 22 15  1  0
 23 13  1  0
 25 27  2  0
 26 25  1  0
 28 26  1  0
 29 38  2  0
 29 34  1  0
 30 26  1  0
 30 34  1  0
 31 30  1  0
 32 33  1  0
 32 31  1  0
 33 29  1  0
 34 35  2  0
 35 36  1  0
 37 36  2  0
 38 37  1  0
 39 13  1  0
 39 40  1  0
 39 49  1  0
 40 43  1  0
 41 45  1  0
 41 40  1  0
 42 41  2  0
 45 44  1  0
 47 45  1  0
 47 48  1  0
 47 46  1  0
 49 52  1  1
 49 50  1  0
 51 49  1  0
 54 53  2  0
 54 64  1  0
 55 64  1  0
 56 61  1  0
 57 58  1  0
 57 56  1  0
 59 58  1  0
 59 68  1  0
 59 60  1  0
 61 55  1  0
 61 60  1  0
 62 55  2  0
 64 63  1  0
 65 66  2  0
 66 85  1  0
 67 66  1  0
 67 70  1  0
 68 69  1  0
 68 65  1  0
 69 67  2  0
 70 71  1  0
 71 72  2  0
 73 76  1  0
 73 72  1  0
 74 73  2  0
 75 74  1  0
 75 70  2  0
 76 77  1  0
 77 78  1  0
 78 79  2  0
 80 79  1  0
 80 84  1  0
 81 80  2  0
 82 77  2  0
 82 81  1  0
 83 82  1  0
 85 86  1  0
 86 89  1  0
 86 88  1  0
 87 85  2  0
 90 65  1  0
 90 91  1  0
 92 90  1  0
M  ISO  4  11 101  12 101  55 100  64 100
M  END
>  <TORSDO>  (54) 
F 21

>  <SCORE>  (54) 
-12.648

>  <name>  (54) 
54

>  <ligand_id>  (54) 
54

>  <original_smiles>  (54) 
[H]N=C(C([H])([H])Oc1c([H])c([H])c2c(c1[H])C([H])([H])N(C(=O)C([H])(N([H])C(=O)C([H])(N([H])C([H])([H])[H])C([H])([H])[H])C(C([H])([H])[H])(C([H])([H])[H])C([H])([H])[H])C([H])(C(=O)N([H])C1([H])c3c([H])c([H])c([H])c([H])c3C([H])([H])C([H])([H])C1([H])[H])C2([H])[H])C([H])([H])c1c([H])c([H])c(C([H])([H])C([H])([H])N(C(=O)N2C([H])([H])C([H])([H])C([H])([H])C([H])(n3nc(-c4c([H])c([H])c(Oc5c([H])c([H])c(F)c([H])c5F)c([H])c4[H])c(C(=O)N([H])[H])c3N([H])[H])C2([H])[H])C([H])([H])[H])c([H])c1[H]

>  <smiles>  (54) 
[H]N=C(C([H])([H])Oc1c([H])c([H])c2c(c1[H])C([H])([H])N(C(=O)C([H])(N([H])C(=O)C([H])(N([H])C([H])([H])[H])C([H])([H])[H])C(C([H])([H])[H])(C([H])([H])[H])C([H])([H])[H])C([H])(C(=O)N([H])C1([H])c3c([H])c([H])c([H])c([H])c3C([H])([H])C([H])([H])C1([H])[H])C2([H])[H])C([H])([H])c1c([H])c([H])c(C([H])([H])C([H])([H])N(C(=O)N2C([H])([H])C([H])([H])C([H])([H])C([H])(n3nc(-c4c([H])c([H])c(Oc5c([H])c([H])c(F)c([H])c5F)c([H])c4[H])c(C(=O)N([H])[H])c3N([H])[H])C2([H])[H])C([H])([H])[H])c([H])c1[H]

$$$$
55:0:0
     RDKit          3D

 91 99  0  0  1  0  0  0  0  0999 V2000
  -28.1270  -19.5050   20.1240 C   0  0  0  0  0  3  0  0  0  0  0  0
  -27.8420  -20.8370   19.9740 C   0  0  0  0  0  3  0  0  0  0  0  0
  -30.1340  -20.7140   20.4600 C   0  0  0  0  0  2  0  0  0  0  0  0
  -29.5470  -19.1540   20.5870 C   0  0  0  0  0  3  0  0  0  0  0  0
  -29.0410  -21.7520   20.0760 N   0  0  2  0  0  4  0  0  0  0  0  0
  -29.2850  -21.9390   19.1120 H   0  0  0  0  0  0  0  0  0  0  0  0
  -30.2920  -17.6430   20.1960 C   0  0  0  0  0  0  0  0  0  0  0  0
  -29.8720  -16.3680   20.5120 N   0  0  0  0  0  0  0  0  0  0  0  0
  -30.6160  -15.0720   20.2960 C   0  0  0  0  0  0  0  0  0  0  0  0
  -30.4490  -12.7050   19.3690 C   0  0  0  0  0  2  0  0  0  0  0  0
  -29.5280  -12.6490   18.1280 C   0  0  0  0  0  2  0  0  0  0  0  0
  -28.0660  -12.4310   18.5520 C   0  0  0  0  0  2  0  0  0  0  0  0
  -27.6490  -13.3600   19.7230 C   0  0  0  0  0  3  0  0  0  0  0  0
  -28.7020  -13.4230   20.8500 C   0  0  0  0  0  2  0  0  0  0  0  0
  -29.9790  -13.8250   20.2490 N   0  0  0  0  0  0  0  0  0  0  0  0
  -31.8180  -15.0000   20.0320 O   0  0  0  0  0  0  0  0  0  0  0  0
  -25.2690  -13.9090   20.4730 C   0  0  0  0  0  0  0  0  0  0  0  0
  -24.2130  -13.1230   20.8430 C   0  0  0  0  0  0  0  0  0  0  0  0
  -24.6920  -11.7770   20.8180 C   0  0  0  0  0  0  0  0  0  0  0  0
  -26.3190  -13.0420   20.2310 N   0  0  0  0  0  0  0  0  0  0  0  0
  -25.9830  -11.7540   20.5080 N   0  0  0  0  0  0  0  0  0  0  0  0
  -23.9760  -10.5070   21.0090 C   0  0  0  0  0  0  0  0  0  0  0  0
  -24.4040   -9.5470   21.9540 C   0  0  0  0  0  3  0  0  0  0  0  0
  -23.6810   -8.3470   22.1310 C   0  0  0  0  0  3  0  0  0  0  0  0
  -22.5180   -8.0980   21.3640 C   0  0  0  0  0  0  0  0  0  0  0  0
  -22.1110   -9.0460   20.4100 C   0  0  0  0  0  3  0  0  0  0  0  0
  -22.8340  -10.2370   20.2300 C   0  0  0  0  0  3  0  0  0  0  0  0
  -21.7690   -6.9490   21.4520 O   0  0  0  0  0  0  0  0  0  0  0  0
  -21.7000   -6.2200   22.6130 C   0  0  0  0  0  0  0  0  0  0  0  0
  -21.2090   -6.7770   23.8130 C   0  0  0  0  0  3  0  0  0  0  0  0
  -21.0900   -5.9750   24.9660 C   0  0  0  0  0  3  0  0  0  0  0  0
  -21.4530   -4.6150   24.9180 C   0  0  0  0  0  0  0  0  0  0  0  0
  -21.9370   -4.0570   23.7220 C   0  0  0  0  0  3  0  0  0  0  0  0
  -22.0560   -4.8570   22.5720 C   0  0  0  0  0  0  0  0  0  0  0  0
  -22.5020   -4.3080   21.4160 F   0  0  0  0  0  0  0  0  0  0  0  0
  -21.3320   -3.8410   26.0210 F   0  0  0  0  0  0  0  0  0  0  0  0
  -22.8110  -13.5880   21.1050 C   0  0  0  0  0  0  0  0  0  0  0  0
  -22.0860  -12.8880   21.9700 N   0  0  0  0  0  0  0  0  0  0  0  0
  -22.3670  -14.6100   20.5810 O   0  0  0  0  0  0  0  0  0  0  0  0
  -22.4570  -12.0600   22.4120 H   0  0  0  0  0  0  0  0  0  0  0  0
  -21.1430  -13.1820   22.1900 H   0  0  0  0  0  0  0  0  0  0  0  0
  -25.4230  -15.2810   20.2950 N   0  0  0  0  0  0  0  0  0  0  0  0
  -24.6620  -15.9390   20.4240 H   0  0  0  0  0  0  0  0  0  0  0  0
  -26.2860  -15.7230   20.0020 H   0  0  0  0  0  0  0  0  0  0  0  0
  -32.0580  -18.9610   18.6330 C   0  0  0  0  0  1  0  0  0  0  0  0
  -31.6610  -17.7420   19.4660 C   0  0  0  0  0  2  0  0  0  0  0  0
  -29.0340  -23.2710   20.6230 C   0  0  0  0  0  2  0  0  0  0  0  0
  -27.9090  -24.3110   18.5760 C   0  0  0  0  0  1  0  0  0  0  0  0
  -26.6960  -24.1630   20.8630 C   0  0  0  0  0  1  0  0  0  0  0  0
  -27.9970  -24.5230   20.1020 C   0  0  1  0  0  0  0  0  0  0  0  0
  -28.2130  -26.0980   20.3020 O   0  0  0  0  0  0  0  0  0  0  0  0
  -24.6280  -31.9000   23.2490 C   0  0  0  0  0  0  0  0  0  0  0  0
  -27.1910  -27.1410   20.1910 C   0  0  0  0  0  0  0  0  0  0  0  0
  -23.4350  -30.5140   21.6020 C   0  0  0  0  0  3  0  0  0  0  0  0
  -24.8860  -28.9540   20.1590 C   0  0  0  0  0  0  0  0  0  0  0  0
  -25.9960  -30.7520   21.4620 C   0  0  0  0  0  2  0  0  0  0  0  0
  -26.0650  -29.3610   20.7960 C   0  0  0  0  0  0  0  0  0  0  0  0
  -27.2120  -28.4670   20.8040 C   0  0  0  0  0  3  0  0  0  0  0  0
  -25.9990  -26.8910   19.4680 C   0  0  0  0  0  3  0  0  0  0  0  0
  -24.8740  -27.7350   19.4740 C   0  0  0  0  0  3  0  0  0  0  0  0
  -23.6610  -29.8520   20.2180 C   0  0  0  0  0  2  0  0  0  0  0  0
  -24.7070  -31.0780   22.1580 N   0  0  0  0  0  0  0  0  0  0  0  0
  -23.5390  -32.1880   23.7690 O   0  0  0  0  0  0  0  0  0  0  0  0
  -22.7480  -29.5030   22.5540 C   0  0  0  0  0  0  0  0  0  0  0  0
  -21.4170  -29.3390   22.4230 N   0  0  0  0  0  0  0  0  0  0  0  0
  -23.4110  -28.8670   23.3750 O   0  0  0  0  0  0  0  0  0  0  0  0
  -20.9370  -29.9060   21.7390 H   0  0  0  0  0  0  0  0  0  0  0  0
  -18.0280  -28.1570   22.9250 C   0  0  0  0  0  0  0  0  0  0  0  0
  -20.5910  -28.4010   23.1870 C   0  0  0  0  0  3  0  0  0  0  0  0
  -20.6820  -26.9740   22.5990 C   0  0  0  0  0  2  0  0  0  0  0  0
  -19.5750  -26.6660   21.5870 C   0  0  0  0  0  2  0  0  0  0  0  0
  -18.1950  -26.8130   22.2350 C   0  0  0  0  0  2  0  0  0  0  0  0
  -19.1520  -28.9080   23.3580 C   0  0  0  0  0  0  0  0  0  0  0  0
  -18.9440  -30.1630   23.9690 C   0  0  0  0  0  3  0  0  0  0  0  0
  -17.6430  -30.6700   24.1470 C   0  0  0  0  0  3  0  0  0  0  0  0
  -16.5320  -29.9150   23.7340 C   0  0  0  0  0  3  0  0  0  0  0  0
  -16.7250  -28.6600   23.1280 C   0  0  0  0  0  3  0  0  0  0  0  0
  -25.9030  -32.5330   23.8850 C   0  0  0  0  0  3  0  0  0  0  0  0
  -26.3980  -31.7630   25.1710 C   0  0  1  0  0  0  0  0  0  0  0  0
  -25.2860  -31.5310   26.2250 C   0  0  0  0  0  1  0  0  0  0  0  0
  -26.9840  -30.3820   24.7990 C   0  0  0  0  0  1  0  0  0  0  0  0
  -27.5470  -32.5550   25.8410 C   0  0  0  0  0  1  0  0  0  0  0  0
  -25.5940  -33.9330   24.2140 N   0  0  0  0  0  0  0  0  0  0  0  0
  -25.9150  -34.9870   23.4510 C   0  0  0  0  0  0  0  0  0  0  0  0
  -26.5680  -34.8810   22.4090 O   0  0  0  0  0  0  0  0  0  0  0  0
  -25.0110  -34.0880   25.0250 H   0  0  0  0  0  0  0  0  0  0  0  0
  -24.1880  -36.7850   23.1210 C   0  0  0  0  0  1  0  0  0  0  0  0
  -25.4400  -36.3790   23.9120 C   0  0  0  0  0  3  0  0  0  0  0  0
  -27.5840  -37.2670   24.7120 C   0  0  0  0  0  1  0  0  0  0  0  0
  -26.4740  -37.4280   23.7780 N   0  0  0  0  0  0  0  0  0  0  0  0
  -26.0730  -38.3510   23.9210 H   0  0  0  0  0  0  0  0  0  0  0  0
  1  4  1  0
  2  5  1  0
  2  1  2  0
  3  4  1  0
  4  7  1  0
  5  3  1  0
  5 47  1  0
  5  6  1  6
  7  8  2  0
  9  8  1  0
 10 15  1  0
 11 12  1  0
 11 10  1  0
 13 12  1  0
 13 20  1  0
 13 14  1  0
 15  9  1  0
 15 14  1  0
 16  9  2  0
 17 18  2  0
 18 37  1  0
 19 18  1  0
 19 22  1  0
 20 17  1  0
 20 21  1  0
 21 19  2  0
 22 23  1  0
 23 24  2  0
 25 28  1  0
 25 24  1  0
 26 25  2  0
 27 26  1  0
 27 22  2  0
 28 29  1  0
 29 30  1  0
 30 31  2  0
 32 31  1  0
 32 36  1  0
 33 32  2  0
 34 29  2  0
 34 33  1  0
 35 34  1  0
 37 38  1  0
 38 41  1  0
 38 40  1  0
 39 37  2  0
 42 43  1  0
 42 17  1  0
 44 42  1  0
 45 46  1  0
 46  7  1  0
 50 48  1  6
 50 51  1  0
 50 47  1  0
 50 49  1  0
 52 63  2  0
 53 51  1  0
 53 58  1  0
 54 62  1  0
 54 64  1  0
 55 61  1  0
 55 57  1  0
 56 62  1  0
 57 58  2  0
 57 56  1  0
 59 60  1  0
 59 53  2  0
 60 55  2  0
 61 54  1  0
 62 52  1  0
 64 66  2  0
 65 64  1  0
 67 65  1  0
 68 77  2  0
 68 73  1  0
 69 65  1  0
 69 73  1  0
 70 69  1  0
 71 72  1  0
 71 70  1  0
 72 68  1  0
 73 74  2  0
 74 75  1  0
 76 75  2  0
 77 76  1  0
 78 52  1  0
 78 83  1  0
 78 79  1  0
 79 82  1  1
 79 80  1  0
 81 79  1  0
 83 86  1  0
 84 88  1  0
 84 83  1  0
 85 84  2  0
 88 87  1  0
 90 88  1  0
 90 91  1  0
 90 89  1  0
M  ISO  4   8 100   9 100  50 101  51 101
M  END
>  <TORSDO>  (55) 
F 20

>  <SCORE>  (55) 
-14.910

>  <name>  (55) 
55

>  <ligand_id>  (55) 
55

>  <original_smiles>  (55) 
[H]C1=C([H])[N+]([H])(C([H])([H])C(Oc2c([H])c([H])c3c(c2[H])C([H])([H])N(C(=O)C([H])(N([H])C(=O)C([H])(N([H])C([H])([H])[H])C([H])([H])[H])C(C([H])([H])[H])(C([H])([H])[H])C([H])([H])[H])C([H])(C(=O)N([H])C2([H])c4c([H])c([H])c([H])c([H])c4C([H])([H])C([H])([H])C2([H])[H])C3([H])[H])(C([H])([H])[H])C([H])([H])[H])C([H])([H])C1([H])C(=NC(=O)N1C([H])([H])C([H])([H])C([H])([H])C([H])(n2nc(-c3c([H])c([H])c(Oc4c([H])c([H])c(F)c([H])c4F)c([H])c3[H])c(C(=O)N([H])[H])c2N([H])[H])C1([H])[H])C([H])([H])C([H])([H])[H]

>  <smiles>  (55) 
[H]C1=C([H])[N+]([H])(C([H])([H])C(Oc2c([H])c([H])c3c(c2[H])C([H])([H])N(C(=O)C([H])(N([H])C(=O)C([H])(N([H])C([H])([H])[H])C([H])([H])[H])C(C([H])([H])[H])(C([H])([H])[H])C([H])([H])[H])C([H])(C(=O)N([H])C2([H])c4c([H])c([H])c([H])c([H])c4C([H])([H])C([H])([H])C2([H])[H])C3([H])[H])(C([H])([H])[H])C([H])([H])[H])C([H])([H])C1([H])C(=NC(=O)N1C([H])([H])C([H])([H])C([H])([H])C([H])(n2nc(-c3c([H])c([H])c(Oc4c([H])c([H])c(F)c([H])c4F)c([H])c3[H])c(C(=O)N([H])[H])c2N([H])[H])C1([H])[H])C([H])([H])C([H])([H])[H]

$$$$
56:0:0
     RDKit          3D

 97105  0  0  1  0  0  0  0  0999 V2000
  -26.6210  -22.2270   20.2100 C   0  0  0  0  0  1  0  0  0  0  0  0
  -28.4060  -21.9510   21.9160 C   0  0  0  0  0  1  0  0  0  0  0  0
  -28.1230  -21.9030   20.4010 C   0  0  2  0  0  0  0  0  0  0  0  0
  -28.9840  -22.9430   19.7120 N   0  0  0  0  0  4  0  0  0  0  0  0
  -29.8320  -23.0600   20.2460 H   0  0  0  0  0  0  0  0  0  0  0  0
  -29.2830  -22.5210   18.8450 H   0  0  0  0  0  0  0  0  0  0  0  0
  -28.4530  -24.3100   19.3020 C   0  0  0  0  0  2  0  0  0  0  0  0
  -28.3090  -25.4260   20.4020 C   0  0  0  0  0  2  0  0  0  0  0  0
  -28.3780  -26.8130   19.9280 O   0  0  0  0  0  0  0  0  0  0  0  0
  -24.6310  -31.9770   23.2150 C   0  0  0  0  0  0  0  0  0  0  0  0
  -27.2220  -27.5820   19.9740 C   0  0  0  0  0  0  0  0  0  0  0  0
  -23.3980  -30.6010   21.5740 C   0  0  0  0  0  3  0  0  0  0  0  0
  -24.8270  -29.1100   20.0720 C   0  0  0  0  0  0  0  0  0  0  0  0
  -25.9180  -30.9810   21.3170 C   0  0  0  0  0  2  0  0  0  0  0  0
  -26.0010  -29.6210   20.6390 C   0  0  0  0  0  0  0  0  0  0  0  0
  -27.2050  -28.8710   20.5760 C   0  0  0  0  0  3  0  0  0  0  0  0
  -26.0300  -27.1000   19.3950 C   0  0  0  0  0  3  0  0  0  0  0  0
  -24.8410  -27.8530   19.4420 C   0  0  0  0  0  3  0  0  0  0  0  0
  -23.5780  -29.9590   20.1720 C   0  0  0  0  0  2  0  0  0  0  0  0
  -24.6700  -31.2010   22.0940 N   0  0  0  0  0  0  0  0  0  0  0  0
  -23.5620  -32.2240   23.7900 O   0  0  0  0  0  0  0  0  0  0  0  0
  -22.7820  -29.5510   22.5280 C   0  0  0  0  0  0  0  0  0  0  0  0
  -21.4580  -29.3460   22.4230 N   0  0  0  0  0  0  0  0  0  0  0  0
  -23.4910  -28.9250   23.3190 O   0  0  0  0  0  0  0  0  0  0  0  0
  -20.9440  -29.9060   21.7560 H   0  0  0  0  0  0  0  0  0  0  0  0
  -18.1230  -28.0490   22.9370 C   0  0  0  0  0  0  0  0  0  0  0  0
  -20.6740  -28.3760   23.1890 C   0  0  0  0  0  3  0  0  0  0  0  0
  -20.8120  -26.9550   22.5950 C   0  0  0  0  0  2  0  0  0  0  0  0
  -19.7100  -26.6130   21.5870 C   0  0  0  0  0  2  0  0  0  0  0  0
  -18.3300  -26.7120   22.2450 C   0  0  0  0  0  2  0  0  0  0  0  0
  -19.2240  -28.8360   23.3670 C   0  0  0  0  0  0  0  0  0  0  0  0
  -18.9740  -30.0870   23.9740 C   0  0  0  0  0  3  0  0  0  0  0  0
  -17.6590  -30.5500   24.1580 C   0  0  0  0  0  3  0  0  0  0  0  0
  -16.5720  -29.7580   23.7460 C   0  0  0  0  0  3  0  0  0  0  0  0
  -16.8050  -28.5100   23.1420 C   0  0  0  0  0  3  0  0  0  0  0  0
  -25.9240  -32.6110   23.8160 C   0  0  0  0  0  3  0  0  0  0  0  0
  -25.6150  -34.0050   24.1640 N   0  0  0  0  0  0  0  0  0  0  0  0
  -25.9360  -35.0660   23.4110 C   0  0  0  0  0  0  0  0  0  0  0  0
  -26.5920  -34.9750   22.3710 O   0  0  0  0  0  0  0  0  0  0  0  0
  -25.0310  -34.1500   24.9740 H   0  0  0  0  0  0  0  0  0  0  0  0
  -24.2040  -36.8620   23.0890 C   0  0  0  0  0  1  0  0  0  0  0  0
  -25.4490  -36.4480   23.8890 C   0  0  0  0  0  3  0  0  0  0  0  0
  -27.5870  -37.3260   24.7200 C   0  0  0  0  0  1  0  0  0  0  0  0
  -26.4810  -37.5030   23.7830 N   0  0  0  0  0  0  0  0  0  0  0  0
  -26.0740  -38.4220   23.9420 H   0  0  0  0  0  0  0  0  0  0  0  0
  -26.4710  -31.8330   25.0750 C   0  0  1  0  0  0  0  0  0  0  0  0
  -25.4020  -31.5780   26.1630 C   0  0  0  0  0  1  0  0  0  0  0  0
  -27.0530  -30.4620   24.6570 C   0  0  0  0  0  1  0  0  0  0  0  0
  -27.6310  -32.6270   25.7190 C   0  0  0  0  0  1  0  0  0  0  0  0
  -28.2950  -20.4150   19.8360 C   0  0  0  0  0  2  0  0  0  0  0  0
  -29.5230  -19.4740   20.1240 C   0  0  0  0  0  0  0  0  0  0  0  0
  -30.5240  -19.9900   20.6290 O   0  0  0  0  0  0  0  0  0  0  0  0
  -30.9390  -14.8740   20.3510 C   0  0  0  0  0  0  0  0  0  0  0  0
  -30.6830  -12.6140   19.3870 C   0  0  0  0  0  2  0  0  0  0  0  0
  -29.7680  -12.7030   18.1490 C   0  0  0  0  0  2  0  0  0  0  0  0
  -28.2890  -12.5650   18.5640 C   0  0  0  0  0  2  0  0  0  0  0  0
  -27.9070  -13.4830   19.7580 C   0  0  0  0  0  3  0  0  0  0  0  0
  -28.9520  -13.4070   20.8940 C   0  0  0  0  0  2  0  0  0  0  0  0
  -30.2620  -13.6900   20.2990 N   0  0  0  0  0  0  0  0  0  0  0  0
  -32.1490  -14.9190   20.1170 O   0  0  0  0  0  0  0  0  0  0  0  0
  -29.3040  -16.8710   20.8440 C   0  0  0  0  0  2  0  0  0  0  0  0
  -30.7740  -17.2210   19.4480 C   0  0  0  0  0  2  0  0  0  0  0  0
  -29.4320  -17.9540   19.7110 C   0  0  2  0  0  0  0  0  0  0  0  0
  -30.2130  -16.0000   20.0650 N   0  0  0  0  0  0  0  0  0  0  0  0
  -25.5130  -14.0880   20.4660 C   0  0  0  0  0  0  0  0  0  0  0  0
  -24.4430  -13.3190   20.8300 C   0  0  0  0  0  0  0  0  0  0  0  0
  -24.9000  -11.9670   20.8020 C   0  0  0  0  0  0  0  0  0  0  0  0
  -26.5560  -13.2060   20.2380 N   0  0  0  0  0  0  0  0  0  0  0  0
  -26.1930  -11.9240   20.5040 N   0  0  0  0  0  0  0  0  0  0  0  0
  -24.1660  -10.7090   20.9850 C   0  0  0  0  0  0  0  0  0  0  0  0
  -24.5680   -9.7510   21.9430 C   0  0  0  0  0  3  0  0  0  0  0  0
  -23.8330   -8.5580   22.1150 C   0  0  0  0  0  3  0  0  0  0  0  0
  -22.6820   -8.3140   21.3270 C   0  0  0  0  0  0  0  0  0  0  0  0
  -22.2990   -9.2600   20.3600 C   0  0  0  0  0  3  0  0  0  0  0  0
  -23.0350  -10.4450   20.1870 C   0  0  0  0  0  3  0  0  0  0  0  0
  -21.9210   -7.1720   21.4070 O   0  0  0  0  0  0  0  0  0  0  0  0
  -21.8050   -6.4660   22.5780 C   0  0  0  0  0  0  0  0  0  0  0  0
  -21.2870   -7.0520   23.7530 C   0  0  0  0  0  3  0  0  0  0  0  0
  -21.1190   -6.2720   24.9140 C   0  0  0  0  0  3  0  0  0  0  0  0
  -21.4590   -4.9050   24.9000 C   0  0  0  0  0  0  0  0  0  0  0  0
  -21.9680   -4.3190   23.7290 C   0  0  0  0  0  3  0  0  0  0  0  0
  -22.1380   -5.0970   22.5700 C   0  0  0  0  0  0  0  0  0  0  0  0
  -22.6100   -4.5210   21.4380 F   0  0  0  0  0  0  0  0  0  0  0  0
  -21.2890   -4.1530   26.0120 F   0  0  0  0  0  0  0  0  0  0  0  0
  -23.0440  -13.8030   21.0840 C   0  0  0  0  0  0  0  0  0  0  0  0
  -22.3080  -13.1190   21.9510 N   0  0  0  0  0  0  0  0  0  0  0  0
  -22.6140  -14.8250   20.5480 O   0  0  0  0  0  0  0  0  0  0  0  0
  -22.6680  -12.2940   22.4060 H   0  0  0  0  0  0  0  0  0  0  0  0
  -21.3690  -13.4270   22.1650 H   0  0  0  0  0  0  0  0  0  0  0  0
  -25.6680  -15.4570   20.2890 N   0  0  0  0  0  0  0  0  0  0  0  0
  -24.8620  -16.0700   20.3460 H   0  0  0  0  0  0  0  0  0  0  0  0
  -26.4400  -15.8920   19.7830 H   0  0  0  0  0  0  0  0  0  0  0  0
  -28.4450  -17.7390   18.5250 C   0  0  0  0  0  0  0  0  0  0  0  0
  -28.7800  -18.1770   17.3110 N   0  0  0  0  0  0  0  0  0  0  0  0
  -27.3750  -17.1560   18.6870 O   0  0  0  0  0  0  0  0  0  0  0  0
  -29.6670  -18.6280   17.1350 H   0  0  0  0  0  0  0  0  0  0  0  0
  -28.1500  -18.0320   16.5360 H   0  0  0  0  0  0  0  0  0  0  0  0
  3  1  1  1
  3  2  1  0
  4  5  1  0
  4  3  1  0
  6  4  1  0
  7  4  1  0
  7  8  1  0
  9 11  1  0
  9  8  1  0
 10 21  2  0
 11 16  1  0
 12 20  1  0
 12 22  1  0
 13 19  1  0
 13 15  1  0
 14 20  1  0
 15 14  1  0
 16 15  2  0
 17 18  1  0
 17 11  2  0
 18 13  2  0
 19 12  1  0
 20 10  1  0
 22 24  2  0
 23 22  1  0
 25 23  1  0
 26 35  2  0
 26 31  1  0
 27 23  1  0
 27 31  1  0
 28 27  1  0
 29 30  1  0
 29 28  1  0
 30 26  1  0
 31 32  2  0
 32 33  1  0
 34 33  2  0
 35 34  1  0
 36 10  1  0
 36 37  1  0
 36 46  1  0
 37 40  1  0
 38 42  1  0
 38 37  1  0
 39 38  2  0
 42 41  1  0
 44 42  1  0
 44 45  1  0
 44 43  1  0
 46 49  1  1
 46 47  1  0
 48 46  1  0
 50 51  1  0
 50  3  1  0
 51 52  2  0
 54 59  1  0
 55 56  1  0
 55 54  1  0
 57 56  1  0
 57 68  1  0
 57 58  1  0
 59 53  1  0
 59 58  1  0
 60 53  2  0
 62 63  1  0
 62 64  1  0
 63 93  1  6
 63 51  1  0
 63 61  1  0
 64 53  1  0
 64 61  1  0
 65 66  2  0
 66 85  1  0
 67 66  1  0
 67 70  1  0
 68 65  1  0
 68 69  1  0
 69 67  2  0
 70 71  1  0
 71 72  2  0
 73 76  1  0
 73 72  1  0
 74 73  2  0
 75 74  1  0
 75 70  2  0
 76 77  1  0
 77 78  1  0
 78 79  2  0
 80 79  1  0
 80 84  1  0
 81 80  2  0
 82 77  2  0
 82 81  1  0
 83 82  1  0
 85 86  1  0
 86 89  1  0
 86 88  1  0
 87 85  2  0
 90 91  1  0
 90 65  1  0
 92 90  1  0
 93 95  2  0
 94 93  1  0
 96 94  1  0
 97 94  1  0
M  ISO  4   8 101   9 101  53 100  64 100
M  END
>  <TORSDO>  (56) 
F 22

>  <SCORE>  (56) 
-13.212

>  <name>  (56) 
56

>  <ligand_id>  (56) 
56

>  <original_smiles>  (56) 
[H]c1c([H])c([H])c2c(c1[H])C([H])([H])C([H])([H])C([H])([H])C2([H])N([H])C(=O)C1([H])N(C(=O)C([H])(N([H])C(=O)C([H])(N([H])C([H])([H])[H])C([H])([H])[H])C(C([H])([H])[H])(C([H])([H])[H])C([H])([H])[H])C([H])([H])c2c([H])c(OC([H])([H])C([H])([H])[N+]([H])([H])C(C([H])([H])[H])(C([H])([H])[H])C([H])([H])C(=O)C3(C(=O)N([H])[H])C([H])([H])N(C(=O)N4C([H])([H])C([H])([H])C([H])([H])C([H])(n5nc(-c6c([H])c([H])c(Oc7c([H])c([H])c(F)c([H])c7F)c([H])c6[H])c(C(=O)N([H])[H])c5N([H])[H])C4([H])[H])C3([H])[H])c([H])c([H])c2C1([H])[H]

>  <smiles>  (56) 
[H]c1c([H])c([H])c2c(c1[H])C([H])([H])C([H])([H])C([H])([H])C2([H])N([H])C(=O)C1([H])N(C(=O)C([H])(N([H])C(=O)C([H])(N([H])C([H])([H])[H])C([H])([H])[H])C(C([H])([H])[H])(C([H])([H])[H])C([H])([H])[H])C([H])([H])c2c([H])c(OC([H])([H])C([H])([H])[N+]([H])([H])C(C([H])([H])[H])(C([H])([H])[H])C([H])([H])C(=O)C3(C(=O)N([H])[H])C([H])([H])N(C(=O)N4C([H])([H])C([H])([H])C([H])([H])C([H])(n5nc(-c6c([H])c([H])c(Oc7c([H])c([H])c(F)c([H])c7F)c([H])c6[H])c(C(=O)N([H])[H])c5N([H])[H])C4([H])[H])C3([H])[H])c([H])c([H])c2C1([H])[H]

$$$$
57:0:0
     RDKit          3D

 89 97  0  0  1  0  0  0  0  0999 V2000
  -29.4610  -20.6970   20.2490 C   0  0  0  0  0  3  0  0  0  0  0  0
  -30.3440  -21.8420   20.3300 C   0  0  0  0  0  0  0  0  0  0  0  0
  -28.2890  -21.6410   20.4750 C   0  0  0  0  0  2  0  0  0  0  0  0
  -29.4940  -19.4860   19.8570 N   0  0  0  0  0  2  0  0  0  0  0  0
  -29.2960  -22.7500   20.4660 N   0  0  0  0  0  0  0  0  0  0  0  0
  -31.5540  -21.9080   20.2710 O   0  0  0  0  0  0  0  0  0  0  0  0
  -29.4940  -18.3150   20.7660 C   0  0  0  0  0  2  0  0  0  0  0  0
  -30.2350  -17.0720   20.1270 C   0  0  0  0  0  2  0  0  0  0  0  0
  -30.6520  -14.5870   20.3450 C   0  0  0  0  0  0  0  0  0  0  0  0
  -30.3600  -12.3800   19.2740 C   0  0  0  0  0  2  0  0  0  0  0  0
  -29.4220  -12.5590   18.0600 C   0  0  0  0  0  2  0  0  0  0  0  0
  -27.9500  -12.4170   18.4930 C   0  0  0  0  0  2  0  0  0  0  0  0
  -27.6080  -13.2690   19.7470 C   0  0  0  0  0  3  0  0  0  0  0  0
  -28.6700  -13.0940   20.8570 C   0  0  0  0  0  2  0  0  0  0  0  0
  -29.9850  -13.3960   20.2760 N   0  0  0  0  0  0  0  0  0  0  0  0
  -31.8100  -14.7030   19.9330 O   0  0  0  0  0  0  0  0  0  0  0  0
  -29.9170  -15.6990   20.6350 N   0  0  0  0  0  0  0  0  0  0  0  0
  -28.9810  -15.5410   20.9770 H   0  0  0  0  0  0  0  0  0  0  0  0
  -25.2150  -13.8720   20.4700 C   0  0  0  0  0  0  0  0  0  0  0  0
  -24.1500  -13.1020   20.8470 C   0  0  0  0  0  0  0  0  0  0  0  0
  -24.6110  -11.7500   20.8210 C   0  0  0  0  0  0  0  0  0  0  0  0
  -26.2590  -12.9920   20.2360 N   0  0  0  0  0  0  0  0  0  0  0  0
  -25.9010  -11.7100   20.5080 N   0  0  0  0  0  0  0  0  0  0  0  0
  -23.8850  -10.4890   21.0190 C   0  0  0  0  0  0  0  0  0  0  0  0
  -24.3240   -9.5210   21.9500 C   0  0  0  0  0  3  0  0  0  0  0  0
  -23.5960   -8.3260   22.1360 C   0  0  0  0  0  3  0  0  0  0  0  0
  -22.4160   -8.0890   21.3910 C   0  0  0  0  0  0  0  0  0  0  0  0
  -21.9970   -9.0440   20.4480 C   0  0  0  0  0  3  0  0  0  0  0  0
  -22.7250  -10.2320   20.2600 C   0  0  0  0  0  3  0  0  0  0  0  0
  -21.6600   -6.9460   21.4870 O   0  0  0  0  0  0  0  0  0  0  0  0
  -21.6260   -6.2010   22.6380 C   0  0  0  0  0  0  0  0  0  0  0  0
  -21.2220   -6.7540   23.8720 C   0  0  0  0  0  3  0  0  0  0  0  0
  -21.1350   -5.9350   25.0160 C   0  0  0  0  0  3  0  0  0  0  0  0
  -21.4400   -4.5630   24.9260 C   0  0  0  0  0  0  0  0  0  0  0  0
  -21.8370   -4.0100   23.6960 C   0  0  0  0  0  3  0  0  0  0  0  0
  -21.9260   -4.8250   22.5550 C   0  0  0  0  0  0  0  0  0  0  0  0
  -22.2880   -4.2820   21.3680 F   0  0  0  0  0  0  0  0  0  0  0  0
  -21.3490   -3.7750   26.0220 F   0  0  0  0  0  0  0  0  0  0  0  0
  -22.7540  -13.5820   21.1190 C   0  0  0  0  0  0  0  0  0  0  0  0
  -22.0260  -12.8900   21.9910 N   0  0  0  0  0  0  0  0  0  0  0  0
  -22.3160  -14.6040   20.5930 O   0  0  0  0  0  0  0  0  0  0  0  0
  -22.3930  -12.0670   22.4420 H   0  0  0  0  0  0  0  0  0  0  0  0
  -21.0870  -13.1910   22.2090 H   0  0  0  0  0  0  0  0  0  0  0  0
  -25.3750  -15.2420   20.2820 N   0  0  0  0  0  0  0  0  0  0  0  0
  -24.6000  -15.8870   20.3830 H   0  0  0  0  0  0  0  0  0  0  0  0
  -26.2050  -15.6810   19.9040 H   0  0  0  0  0  0  0  0  0  0  0  0
  -29.3150  -24.2280   20.7040 C   0  0  0  0  0  3  0  0  0  0  0  0
  -28.1980  -25.1080   20.0420 C   0  0  0  0  0  3  0  0  0  0  0  0
  -28.3400  -26.5550   20.2530 O   0  0  0  0  0  0  0  0  0  0  0  0
  -24.5900  -31.8900   23.2470 C   0  0  0  0  0  0  0  0  0  0  0  0
  -27.1980  -27.3580   20.1940 C   0  0  0  0  0  0  0  0  0  0  0  0
  -23.3790  -30.4900   21.6100 C   0  0  0  0  0  3  0  0  0  0  0  0
  -24.8260  -28.9400   20.1870 C   0  0  0  0  0  0  0  0  0  0  0  0
  -25.9130  -30.8150   21.4200 C   0  0  0  0  0  2  0  0  0  0  0  0
  -25.9910  -29.4380   20.7810 C   0  0  0  0  0  0  0  0  0  0  0  0
  -27.1790  -28.6570   20.7770 C   0  0  0  0  0  3  0  0  0  0  0  0
  -26.0110  -26.9040   19.5720 C   0  0  0  0  0  3  0  0  0  0  0  0
  -24.8350  -27.6780   19.5750 C   0  0  0  0  0  3  0  0  0  0  0  0
  -23.5890  -29.8100   20.2330 C   0  0  0  0  0  2  0  0  0  0  0  0
  -24.6460  -31.0820   22.1510 N   0  0  0  0  0  0  0  0  0  0  0  0
  -23.5080  -32.1710   23.7840 O   0  0  0  0  0  0  0  0  0  0  0  0
  -22.7180  -29.4760   22.5720 C   0  0  0  0  0  0  0  0  0  0  0  0
  -21.3920  -29.3030   22.4470 N   0  0  0  0  0  0  0  0  0  0  0  0
  -23.3960  -28.8490   23.3900 O   0  0  0  0  0  0  0  0  0  0  0  0
  -20.9050  -29.8610   21.7590 H   0  0  0  0  0  0  0  0  0  0  0  0
  -18.0100  -28.1250   22.9470 C   0  0  0  0  0  0  0  0  0  0  0  0
  -20.5690  -28.3710   23.2190 C   0  0  0  0  0  3  0  0  0  0  0  0
  -20.6630  -26.9370   22.6460 C   0  0  0  0  0  2  0  0  0  0  0  0
  -19.5600  -26.6200   21.6310 C   0  0  0  0  0  2  0  0  0  0  0  0
  -18.1800  -26.7740   22.2740 C   0  0  0  0  0  2  0  0  0  0  0  0
  -19.1320  -28.8820   23.3770 C   0  0  0  0  0  0  0  0  0  0  0  0
  -18.9190  -30.1480   23.9670 C   0  0  0  0  0  3  0  0  0  0  0  0
  -17.6170  -30.6580   24.1270 C   0  0  0  0  0  3  0  0  0  0  0  0
  -16.5100  -29.8980   23.7130 C   0  0  0  0  0  3  0  0  0  0  0  0
  -16.7070  -28.6320   23.1300 C   0  0  0  0  0  3  0  0  0  0  0  0
  -25.8770  -32.5180   23.8670 C   0  0  0  0  0  3  0  0  0  0  0  0
  -26.3910  -31.7460   25.1430 C   0  0  1  0  0  0  0  0  0  0  0  0
  -25.2960  -31.5130   26.2100 C   0  0  0  0  0  1  0  0  0  0  0  0
  -26.9670  -30.3650   24.7500 C   0  0  0  0  0  1  0  0  0  0  0  0
  -27.5480  -32.5320   25.8030 C   0  0  0  0  0  1  0  0  0  0  0  0
  -25.5730  -33.9170   24.1960 N   0  0  0  0  0  0  0  0  0  0  0  0
  -25.9070  -34.9670   23.4330 C   0  0  0  0  0  0  0  0  0  0  0  0
  -26.5720  -34.8580   22.4000 O   0  0  0  0  0  0  0  0  0  0  0  0
  -24.9830  -34.0760   24.9990 H   0  0  0  0  0  0  0  0  0  0  0  0
  -24.1820  -36.7640   23.0800 C   0  0  0  0  0  1  0  0  0  0  0  0
  -25.4260  -36.3580   23.8880 C   0  0  0  0  0  3  0  0  0  0  0  0
  -27.5670  -37.2390   24.7080 C   0  0  0  0  0  1  0  0  0  0  0  0
  -26.4620  -37.4070   23.7680 N   0  0  0  0  0  0  0  0  0  0  0  0
  -26.0590  -38.3290   23.9150 H   0  0  0  0  0  0  0  0  0  0  0  0
  1  4  1  0
  1  2  1  0
  1  3  1  0
  2  5  1  0
  4  7  1  0
  5  3  1  0
  5 47  1  0
  6  2  2  0
  8 17  1  0
  8  7  1  0
  9 17  1  0
 10 15  1  0
 11 12  1  0
 11 10  1  0
 13 12  1  0
 13 22  1  0
 13 14  1  0
 15  9  1  0
 15 14  1  0
 16  9  2  0
 17 18  1  0
 19 20  2  0
 20 39  1  0
 21 20  1  0
 21 24  1  0
 22 19  1  0
 22 23  1  0
 23 21  2  0
 24 25  1  0
 25 26  2  0
 27 30  1  0
 27 26  1  0
 28 27  2  0
 29 28  1  0
 29 24  2  0
 30 31  1  0
 31 32  1  0
 32 33  2  0
 34 33  1  0
 34 38  1  0
 35 34  2  0
 36 31  2  0
 36 35  1  0
 37 36  1  0
 39 40  1  0
 40 43  1  0
 40 42  1  0
 41 39  2  0
 44 45  1  0
 44 19  1  0
 46 44  1  0
 48 49  1  0
 48 47  2  0
 50 61  2  0
 51 49  1  0
 51 56  1  0
 52 60  1  0
 52 62  1  0
 53 59  1  0
 53 55  1  0
 54 60  1  0
 55 54  1  0
 56 55  2  0
 57 58  1  0
 57 51  2  0
 58 53  2  0
 59 52  1  0
 60 50  1  0
 62 64  2  0
 63 62  1  0
 65 63  1  0
 66 75  2  0
 66 71  1  0
 67 63  1  0
 67 71  1  0
 68 67  1  0
 69 70  1  0
 69 68  1  0
 70 66  1  0
 71 72  2  0
 72 73  1  0
 74 73  2  0
 75 74  1  0
 76 50  1  0
 76 81  1  0
 76 77  1  0
 77 80  1  1
 77 78  1  0
 79 77  1  0
 81 84  1  0
 82 86  1  0
 82 81  1  0
 83 82  2  0
 86 85  1  0
 88 86  1  0
 88 89  1  0
 88 87  1  0
M  ISO  4   9 100  17 100  48 101  49 101
M  END
>  <TORSDO>  (57) 
F 20

>  <SCORE>  (57) 
-13.769

>  <name>  (57) 
57

>  <ligand_id>  (57) 
57

>  <original_smiles>  (57) 
[H]c1c([H])c([H])c2c(c1[H])C([H])([H])C([H])([H])C([H])([H])C2([H])N([H])C(=O)C1([H])N(C(=O)C([H])(N([H])C(=O)C([H])(N([H])C([H])([H])[H])C([H])([H])[H])C(C([H])([H])[H])(C([H])([H])[H])C([H])([H])[H])C([H])([H])c2c([H])c(OC([H])([H])C([H])([H])N3C(=O)C(=NC([H])([H])C([H])([H])N([H])C(=O)N4C([H])([H])C([H])([H])C([H])([H])C([H])(n5nc(-c6c([H])c([H])c(Oc7c([H])c([H])c(F)c([H])c7F)c([H])c6[H])c(C(=O)N([H])[H])c5N([H])[H])C4([H])[H])C3([H])[H])c([H])c([H])c2C1([H])[H]

>  <smiles>  (57) 
[H]c1c([H])c([H])c2c(c1[H])C([H])([H])C([H])([H])C([H])([H])C2([H])N([H])C(=O)C1([H])N(C(=O)C([H])(N([H])C(=O)C([H])(N([H])C([H])([H])[H])C([H])([H])[H])C(C([H])([H])[H])(C([H])([H])[H])C([H])([H])[H])C([H])([H])c2c([H])c(OC([H])([H])C([H])([H])N3C(=O)C(=NC([H])([H])C([H])([H])N([H])C(=O)N4C([H])([H])C([H])([H])C([H])([H])C([H])(n5nc(-c6c([H])c([H])c(Oc7c([H])c([H])c(F)c([H])c7F)c([H])c6[H])c(C(=O)N([H])[H])c5N([H])[H])C4([H])[H])C3([H])[H])c([H])c([H])c2C1([H])[H]

$$$$
58:0:0
     RDKit          3D

 93101  0  0  1  0  0  0  0  0999 V2000
  -29.0560  -19.8440   20.2690 C   0  0  0  0  0  0  0  0  0  0  0  0
  -30.5550  -21.5810   19.3630 C   0  0  0  0  0  1  0  0  0  0  0  0
  -29.2780  -21.3180   20.0350 N   0  0  0  0  0  0  0  0  0  0  0  0
  -27.9670  -19.5510   20.9900 N   0  0  0  0  0  4  0  0  0  0  0  0
  -27.3700  -20.2670   21.3710 H   0  0  0  0  0  0  0  0  0  0  0  0
  -27.7900  -18.6000   21.2810 H   0  0  0  0  0  0  0  0  0  0  0  0
  -30.4570  -15.4380   20.0580 C   0  0  0  0  0  0  0  0  0  0  0  0
  -30.4440  -12.9710   19.2380 C   0  0  0  0  0  2  0  0  0  0  0  0
  -29.5050  -12.7080   18.0340 C   0  0  0  0  0  2  0  0  0  0  0  0
  -28.0740  -12.4150   18.5150 C   0  0  0  0  0  2  0  0  0  0  0  0
  -27.6210  -13.3950   19.6230 C   0  0  0  0  0  3  0  0  0  0  0  0
  -28.6920  -13.6140   20.7160 C   0  0  0  0  0  2  0  0  0  0  0  0
  -29.8950  -14.1260   20.0400 N   0  0  0  0  0  0  0  0  0  0  0  0
  -31.6840  -15.4240   19.8780 O   0  0  0  0  0  0  0  0  0  0  0  0
  -28.6300  -16.8760   19.0520 C   0  0  0  0  0  2  0  0  0  0  0  0
  -29.9200  -18.3840   19.8020 C   0  0  0  0  0  3  0  0  0  0  0  0
  -29.5120  -17.9410   18.3900 C   0  0  0  0  0  3  0  0  0  0  0  0
  -29.6900  -16.7280   20.0640 N   0  0  0  0  0  0  0  0  0  0  0  0
  -25.2730  -13.9500   20.4350 C   0  0  0  0  0  0  0  0  0  0  0  0
  -24.2190  -13.1690   20.8160 C   0  0  0  0  0  0  0  0  0  0  0  0
  -24.6900  -11.8200   20.7680 C   0  0  0  0  0  0  0  0  0  0  0  0
  -26.3120  -13.0760   20.1660 N   0  0  0  0  0  0  0  0  0  0  0  0
  -25.9760  -11.7900   20.4350 N   0  0  0  0  0  0  0  0  0  0  0  0
  -23.9730  -10.5560   20.9640 C   0  0  0  0  0  0  0  0  0  0  0  0
  -24.4070   -9.5980   21.9070 C   0  0  0  0  0  3  0  0  0  0  0  0
  -23.6880   -8.3990   22.0910 C   0  0  0  0  0  3  0  0  0  0  0  0
  -22.5200   -8.1470   21.3320 C   0  0  0  0  0  0  0  0  0  0  0  0
  -22.1050   -9.0930   20.3790 C   0  0  0  0  0  3  0  0  0  0  0  0
  -22.8260  -10.2840   20.1920 C   0  0  0  0  0  3  0  0  0  0  0  0
  -21.7720   -6.9990   21.4270 O   0  0  0  0  0  0  0  0  0  0  0  0
  -21.7010   -6.2800   22.5930 C   0  0  0  0  0  0  0  0  0  0  0  0
  -21.1940   -6.8420   23.7850 C   0  0  0  0  0  3  0  0  0  0  0  0
  -21.0740   -6.0470   24.9420 C   0  0  0  0  0  3  0  0  0  0  0  0
  -21.4510   -4.6910   24.9080 C   0  0  0  0  0  0  0  0  0  0  0  0
  -21.9500   -4.1280   23.7200 C   0  0  0  0  0  3  0  0  0  0  0  0
  -22.0720   -4.9210   22.5650 C   0  0  0  0  0  0  0  0  0  0  0  0
  -22.5340   -4.3690   21.4170 F   0  0  0  0  0  0  0  0  0  0  0  0
  -21.3280   -3.9250   26.0170 F   0  0  0  0  0  0  0  0  0  0  0  0
  -22.8260  -13.6400   21.1100 C   0  0  0  0  0  0  0  0  0  0  0  0
  -22.1150  -12.9390   21.9840 N   0  0  0  0  0  0  0  0  0  0  0  0
  -22.3790  -14.6680   20.6010 O   0  0  0  0  0  0  0  0  0  0  0  0
  -22.4900  -12.1090   22.4170 H   0  0  0  0  0  0  0  0  0  0  0  0
  -21.1790  -13.2370   22.2240 H   0  0  0  0  0  0  0  0  0  0  0  0
  -25.4300  -15.3230   20.2650 N   0  0  0  0  0  0  0  0  0  0  0  0
  -24.6710  -15.9790   20.4100 H   0  0  0  0  0  0  0  0  0  0  0  0
  -26.2830  -15.7620   19.9480 H   0  0  0  0  0  0  0  0  0  0  0  0
  -28.8270  -18.8610   17.4460 N   0  0  0  0  0  4  0  0  0  0  0  0
  -27.9910  -19.2750   17.8150 H   0  0  0  0  0  0  0  0  0  0  0  0
  -28.5480  -18.3390   16.6320 H   0  0  0  0  0  0  0  0  0  0  0  0
  -29.4380  -19.5780   17.1010 H   0  0  0  0  0  0  0  0  0  0  0  0
  -28.6020  -22.7700   20.5890 C   0  0  0  0  0  2  0  0  0  0  0  0
  -28.3150  -24.3910   19.8320 C   0  0  0  0  0  2  0  0  0  0  0  0
  -28.2890  -25.9750   20.3260 O   0  0  0  0  0  0  0  0  0  0  0  0
  -24.6540  -31.8890   23.2500 C   0  0  0  0  0  0  0  0  0  0  0  0
  -27.2670  -27.0590   20.2050 C   0  0  0  0  0  0  0  0  0  0  0  0
  -23.4820  -30.5030   21.5890 C   0  0  0  0  0  3  0  0  0  0  0  0
  -24.9530  -28.9250   20.1540 C   0  0  0  0  0  0  0  0  0  0  0  0
  -26.0460  -30.7330   21.4650 C   0  0  0  0  0  2  0  0  0  0  0  0
  -26.1290  -29.3310   20.7930 C   0  0  0  0  0  0  0  0  0  0  0  0
  -27.2760  -28.4180   20.8000 C   0  0  0  0  0  3  0  0  0  0  0  0
  -26.0650  -26.8120   19.5050 C   0  0  0  0  0  3  0  0  0  0  0  0
  -24.9460  -27.6880   19.4880 C   0  0  0  0  0  3  0  0  0  0  0  0
  -23.7250  -29.8350   20.2050 C   0  0  0  0  0  2  0  0  0  0  0  0
  -24.7480  -31.0700   22.1550 N   0  0  0  0  0  0  0  0  0  0  0  0
  -23.5600  -32.1670   23.7680 O   0  0  0  0  0  0  0  0  0  0  0  0
  -22.7880  -29.4920   22.5410 C   0  0  0  0  0  0  0  0  0  0  0  0
  -21.4600  -29.3260   22.4110 N   0  0  0  0  0  0  0  0  0  0  0  0
  -23.4540  -28.8600   23.3630 O   0  0  0  0  0  0  0  0  0  0  0  0
  -20.9750  -29.8890   21.7250 H   0  0  0  0  0  0  0  0  0  0  0  0
  -18.0750  -28.1170   22.9130 C   0  0  0  0  0  0  0  0  0  0  0  0
  -20.6370  -28.3770   23.1680 C   0  0  0  0  0  3  0  0  0  0  0  0
  -20.7340  -26.9550   22.5670 C   0  0  0  0  0  2  0  0  0  0  0  0
  -19.6260  -26.6530   21.5520 C   0  0  0  0  0  2  0  0  0  0  0  0
  -18.2480  -26.7840   22.2050 C   0  0  0  0  0  2  0  0  0  0  0  0
  -19.1970  -28.8730   23.3510 C   0  0  0  0  0  0  0  0  0  0  0  0
  -18.9790  -30.1200   23.9760 C   0  0  0  0  0  3  0  0  0  0  0  0
  -17.6730  -30.6130   24.1640 C   0  0  0  0  0  3  0  0  0  0  0  0
  -16.5680  -29.8550   23.7410 C   0  0  0  0  0  3  0  0  0  0  0  0
  -16.7700  -28.6090   23.1210 C   0  0  0  0  0  3  0  0  0  0  0  0
  -25.9170  -32.5360   23.9000 C   0  0  0  0  0  3  0  0  0  0  0  0
  -26.3890  -31.7900   25.2090 C   0  0  1  0  0  0  0  0  0  0  0  0
  -25.2640  -31.5840   26.2500 C   0  0  0  0  0  1  0  0  0  0  0  0
  -26.9760  -30.4000   24.8740 C   0  0  0  0  0  1  0  0  0  0  0  0
  -27.5240  -32.5940   25.8860 C   0  0  0  0  0  1  0  0  0  0  0  0
  -25.6000  -33.9430   24.2050 N   0  0  0  0  0  0  0  0  0  0  0  0
  -25.9540  -34.9920   23.4500 C   0  0  0  0  0  0  0  0  0  0  0  0
  -26.6430  -34.8770   22.4330 O   0  0  0  0  0  0  0  0  0  0  0  0
  -24.9910  -34.1050   24.9920 H   0  0  0  0  0  0  0  0  0  0  0  0
  -24.2530  -36.8060   23.0510 C   0  0  0  0  0  1  0  0  0  0  0  0
  -25.4700  -36.3880   23.8920 C   0  0  0  0  0  3  0  0  0  0  0  0
  -27.5850  -37.2690   24.7780 C   0  0  0  0  0  1  0  0  0  0  0  0
  -26.5150  -37.4320   23.7990 N   0  0  0  0  0  0  0  0  0  0  0  0
  -26.1130  -38.3580   23.9190 H   0  0  0  0  0  0  0  0  0  0  0  0
  1  4  2  0
  2  3  1  0
  3  1  1  0
  3 51  1  0
  4  6  1  0
  4  5  1  0
  7 18  1  0
  8 13  1  0
  9 10  1  0
  9  8  1  0
 11 10  1  0
 11 22  1  0
 11 12  1  0
 13  7  1  0
 13 12  1  0
 14  7  2  0
 15 18  1  0
 16 18  1  0
 16  1  1  0
 17 47  1  0
 17 15  1  0
 17 16  1  0
 19 20  2  0
 20 39  1  0
 21 20  1  0
 21 24  1  0
 22 23  1  0
 22 19  1  0
 23 21  2  0
 24 25  1  0
 25 26  2  0
 27 30  1  0
 27 26  1  0
 28 27  2  0
 29 28  1  0
 29 24  2  0
 30 31  1  0
 31 32  1  0
 32 33  2  0
 34 33  1  0
 34 38  1  0
 35 34  2  0
 36 31  2  0
 36 35  1  0
 37 36  1  0
 39 40  1  0
 40 43  1  0
 40 42  1  0
 41 39  2  0
 44 45  1  0
 44 19  1  0
 46 44  1  0
 47 48  1  0
 49 47  1  0
 50 47  1  0
 52 53  1  0
 52 51  1  0
 54 65  2  0
 55 53  1  0
 55 60  1  0
 56 64  1  0
 56 66  1  0
 57 63  1  0
 57 59  1  0
 58 64  1  0
 59 60  2  0
 59 58  1  0
 61 55  2  0
 62 61  1  0
 62 57  2  0
 63 56  1  0
 64 54  1  0
 66 68  2  0
 67 66  1  0
 69 67  1  0
 70 79  2  0
 70 75  1  0
 71 67  1  0
 71 75  1  0
 72 71  1  0
 73 74  1  0
 73 72  1  0
 74 70  1  0
 75 76  2  0
 76 77  1  0
 78 77  2  0
 79 78  1  0
 80 54  1  0
 80 85  1  0
 80 81  1  0
 81 84  1  1
 81 82  1  0
 83 81  1  0
 85 88  1  0
 86 90  1  0
 86 85  1  0
 87 86  2  0
 90 89  1  0
 92 90  1  0
 92 93  1  0
 92 91  1  0
M  ISO  4   7 100  18 100  52 101  53 101
M  END
>  <TORSDO>  (58) 
F 19

>  <SCORE>  (58) 
-16.608

>  <name>  (58) 
58

>  <ligand_id>  (58) 
58

>  <original_smiles>  (58) 
[H]c1c([H])c([H])c2c(c1[H])C([H])([H])C([H])([H])C([H])([H])C2([H])N([H])C(=O)C1([H])N(C(=O)C([H])(N([H])C(=O)C([H])(N([H])C([H])([H])[H])C([H])([H])[H])C(C([H])([H])[H])(C([H])([H])[H])C([H])([H])[H])C([H])([H])c2c([H])c(OC([H])([H])C([H])([H])N(C(=[N+]([H])[H])C3([H])N(C(=O)N4C([H])([H])C([H])([H])C([H])([H])C([H])(n5nc(-c6c([H])c([H])c(Oc7c([H])c([H])c(F)c([H])c7F)c([H])c6[H])c(C(=O)N([H])[H])c5N([H])[H])C4([H])[H])C([H])([H])C3([H])[N+]([H])([H])[H])C([H])([H])[H])c([H])c([H])c2C1([H])[H]

>  <smiles>  (58) 
[H]c1c([H])c([H])c2c(c1[H])C([H])([H])C([H])([H])C([H])([H])C2([H])N([H])C(=O)C1([H])N(C(=O)C([H])(N([H])C(=O)C([H])(N([H])C([H])([H])[H])C([H])([H])[H])C(C([H])([H])[H])(C([H])([H])[H])C([H])([H])[H])C([H])([H])c2c([H])c(OC([H])([H])C([H])([H])N(C(=[N+]([H])[H])C3([H])N(C(=O)N4C([H])([H])C([H])([H])C([H])([H])C([H])(n5nc(-c6c([H])c([H])c(Oc7c([H])c([H])c(F)c([H])c7F)c([H])c6[H])c(C(=O)N([H])[H])c5N([H])[H])C4([H])[H])C([H])([H])C3([H])[N+]([H])([H])[H])C([H])([H])[H])c([H])c([H])c2C1([H])[H]

$$$$
59:0:0
     RDKit          3D

 93101  0  0  1  0  0  0  0  0999 V2000
  -29.6190  -19.8380   19.5480 C   0  0  0  0  0  0  0  0  0  0  0  0
  -29.7130  -18.4870   19.5230 C   0  0  0  0  0  0  0  0  0  0  0  0
  -30.4580  -20.9570   20.1100 C   0  0  0  0  0  2  0  0  0  0  0  0
  -28.6400  -20.8120   18.9670 C   0  0  0  0  0  2  0  0  0  0  0  0
  -29.5180  -21.8980   19.4580 N   0  0  1  0  0  4  0  0  0  0  0  0
  -29.9490  -22.3420   18.6600 H   0  0  0  0  0  0  0  0  0  0  0  0
  -28.6910  -17.7200   18.7660 C   0  0  0  0  0  3  0  0  0  0  0  0
  -28.7100  -16.4650   18.6260 N   0  0  0  0  0  0  0  0  0  0  0  0
  -29.5090  -16.0740   19.1080 H   0  0  0  0  0  0  0  0  0  0  0  0
  -30.8840  -17.7070   20.1320 C   0  0  0  0  0  2  0  0  0  0  0  0
  -30.5600  -16.8540   21.3950 C   0  0  0  0  0  2  0  0  0  0  0  0
  -30.7160  -14.4720   20.5910 C   0  0  0  0  0  0  0  0  0  0  0  0
  -30.3770  -12.3490   19.3910 C   0  0  0  0  0  2  0  0  0  0  0  0
  -29.4630  -12.6020   18.1770 C   0  0  0  0  0  2  0  0  0  0  0  0
  -27.9820  -12.4730   18.5770 C   0  0  0  0  0  2  0  0  0  0  0  0
  -27.6340  -13.2850   19.8550 C   0  0  0  0  0  3  0  0  0  0  0  0
  -28.6690  -13.0410   20.9760 C   0  0  0  0  0  2  0  0  0  0  0  0
  -30.0080  -13.3230   20.4290 N   0  0  0  0  0  0  0  0  0  0  0  0
  -31.8490  -14.6340   20.1380 O   0  0  0  0  0  0  0  0  0  0  0  0
  -30.0460  -15.4970   21.1470 N   0  0  0  0  0  0  0  0  0  0  0  0
  -29.1070  -15.2990   21.4590 H   0  0  0  0  0  0  0  0  0  0  0  0
  -25.2250  -13.9040   20.5070 C   0  0  0  0  0  0  0  0  0  0  0  0
  -24.1450  -13.1380   20.8560 C   0  0  0  0  0  0  0  0  0  0  0  0
  -24.6010  -11.7840   20.8450 C   0  0  0  0  0  0  0  0  0  0  0  0
  -26.2700  -13.0170   20.3050 N   0  0  0  0  0  0  0  0  0  0  0  0
  -25.8980  -11.7370   20.5650 N   0  0  0  0  0  0  0  0  0  0  0  0
  -23.8650  -10.5270   21.0300 C   0  0  0  0  0  0  0  0  0  0  0  0
  -24.2750   -9.5670   21.9820 C   0  0  0  0  0  3  0  0  0  0  0  0
  -23.5450   -8.3720   22.1550 C   0  0  0  0  0  3  0  0  0  0  0  0
  -22.3900   -8.1280   21.3750 C   0  0  0  0  0  0  0  0  0  0  0  0
  -21.9980   -9.0740   20.4120 C   0  0  0  0  0  3  0  0  0  0  0  0
  -22.7290  -10.2620   20.2390 C   0  0  0  0  0  3  0  0  0  0  0  0
  -21.6320   -6.9850   21.4550 O   0  0  0  0  0  0  0  0  0  0  0  0
  -21.5480   -6.2560   22.6150 C   0  0  0  0  0  0  0  0  0  0  0  0
  -21.0800   -6.8250   23.8190 C   0  0  0  0  0  3  0  0  0  0  0  0
  -20.9460   -6.0230   24.9690 C   0  0  0  0  0  3  0  0  0  0  0  0
  -21.2670   -4.6520   24.9160 C   0  0  0  0  0  0  0  0  0  0  0  0
  -21.7270   -4.0840   23.7150 C   0  0  0  0  0  3  0  0  0  0  0  0
  -21.8640   -4.8830   22.5670 C   0  0  0  0  0  0  0  0  0  0  0  0
  -22.2890   -4.3270   21.4070 F   0  0  0  0  0  0  0  0  0  0  0  0
  -21.1290   -3.8790   26.0180 F   0  0  0  0  0  0  0  0  0  0  0  0
  -22.7450  -13.6220   21.1000 C   0  0  0  0  0  0  0  0  0  0  0  0
  -22.0000  -12.9310   21.9550 N   0  0  0  0  0  0  0  0  0  0  0  0
  -22.3190  -14.6450   20.5640 O   0  0  0  0  0  0  0  0  0  0  0  0
  -22.3620  -12.1040   22.4070 H   0  0  0  0  0  0  0  0  0  0  0  0
  -21.0580  -13.2320   22.1640 H   0  0  0  0  0  0  0  0  0  0  0  0
  -25.4030  -15.2720   20.3250 N   0  0  0  0  0  0  0  0  0  0  0  0
  -24.6370  -15.9330   20.3910 H   0  0  0  0  0  0  0  0  0  0  0  0
  -26.2610  -15.6850   19.9770 H   0  0  0  0  0  0  0  0  0  0  0  0
  -28.8440  -22.9020   20.3280 C   0  0  0  0  0  2  0  0  0  0  0  0
  -29.3430  -24.3670   20.1710 C   0  0  0  0  0  2  0  0  0  0  0  0
  -28.1470  -25.3100   19.9300 C   0  0  0  0  0  2  0  0  0  0  0  0
  -28.3570  -26.7180   20.1320 O   0  0  0  0  0  0  0  0  0  0  0  0
  -24.5800  -31.9130   23.2610 C   0  0  0  0  0  0  0  0  0  0  0  0
  -27.1970  -27.4810   20.1240 C   0  0  0  0  0  0  0  0  0  0  0  0
  -23.3640  -30.5260   21.6190 C   0  0  0  0  0  3  0  0  0  0  0  0
  -24.8070  -29.0090   20.1750 C   0  0  0  0  0  0  0  0  0  0  0  0
  -25.8950  -30.8800   21.4120 C   0  0  0  0  0  2  0  0  0  0  0  0
  -25.9750  -29.5160   20.7570 C   0  0  0  0  0  0  0  0  0  0  0  0
  -27.1750  -28.7610   20.7280 C   0  0  0  0  0  3  0  0  0  0  0  0
  -25.9980  -27.0040   19.5320 C   0  0  0  0  0  3  0  0  0  0  0  0
  -24.8140  -27.7500   19.5620 C   0  0  0  0  0  3  0  0  0  0  0  0
  -23.5660  -29.8660   20.2330 C   0  0  0  0  0  2  0  0  0  0  0  0
  -24.6310  -31.1170   22.1560 N   0  0  0  0  0  0  0  0  0  0  0  0
  -23.5010  -32.1830   23.8060 O   0  0  0  0  0  0  0  0  0  0  0  0
  -22.7180  -29.4930   22.5700 C   0  0  0  0  0  0  0  0  0  0  0  0
  -21.3950  -29.3030   22.4380 N   0  0  0  0  0  0  0  0  0  0  0  0
  -23.4020  -28.8660   23.3820 O   0  0  0  0  0  0  0  0  0  0  0  0
  -20.9020  -29.8590   21.7540 H   0  0  0  0  0  0  0  0  0  0  0  0
  -18.0260  -28.0900   22.9140 C   0  0  0  0  0  0  0  0  0  0  0  0
  -20.5800  -28.3610   23.2040 C   0  0  0  0  0  3  0  0  0  0  0  0
  -20.6940  -26.9300   22.6280 C   0  0  0  0  0  2  0  0  0  0  0  0
  -19.6020  -26.6020   21.6060 C   0  0  0  0  0  2  0  0  0  0  0  0
  -18.2150  -26.7410   22.2410 C   0  0  0  0  0  2  0  0  0  0  0  0
  -19.1370  -28.8570   23.3520 C   0  0  0  0  0  0  0  0  0  0  0  0
  -18.9080  -30.1200   23.9390 C   0  0  0  0  0  3  0  0  0  0  0  0
  -17.6000  -30.6160   24.0930 C   0  0  0  0  0  3  0  0  0  0  0  0
  -16.5020  -29.8450   23.6730 C   0  0  0  0  0  3  0  0  0  0  0  0
  -16.7160  -28.5840   23.0890 C   0  0  0  0  0  3  0  0  0  0  0  0
  -25.8700  -32.5380   23.8770 C   0  0  0  0  0  3  0  0  0  0  0  0
  -25.5700  -33.9390   24.2020 N   0  0  0  0  0  0  0  0  0  0  0  0
  -25.9050  -34.9840   23.4340 C   0  0  0  0  0  0  0  0  0  0  0  0
  -26.5740  -34.8700   22.4020 O   0  0  0  0  0  0  0  0  0  0  0  0
  -24.9800  -34.1010   25.0040 H   0  0  0  0  0  0  0  0  0  0  0  0
  -24.1910  -36.7820   23.0590 C   0  0  0  0  0  1  0  0  0  0  0  0
  -25.4230  -36.3760   23.8820 C   0  0  0  0  0  3  0  0  0  0  0  0
  -27.5550  -37.2510   24.7290 C   0  0  0  0  0  1  0  0  0  0  0  0
  -26.4630  -37.4220   23.7730 N   0  0  0  0  0  0  0  0  0  0  0  0
  -26.0610  -38.3450   23.9140 H   0  0  0  0  0  0  0  0  0  0  0  0
  -26.3830  -31.7670   25.1530 C   0  0  1  0  0  0  0  0  0  0  0  0
  -25.2880  -31.5360   26.2210 C   0  0  0  0  0  1  0  0  0  0  0  0
  -26.9570  -30.3850   24.7590 C   0  0  0  0  0  1  0  0  0  0  0  0
  -27.5380  -32.5540   25.8140 C   0  0  0  0  0  1  0  0  0  0  0  0
  1  3  1  0
  2  1  2  0
  2 10  1  0
  4  5  1  0
  4  1  1  0
  5  3  1  0
  5 50  1  0
  5  6  1  6
  7  2  1  0
  8  7  2  0
  8  9  1  0
 10 11  1  0
 12 20  1  0
 13 18  1  0
 14 15  1  0
 14 13  1  0
 16 15  1  0
 16 25  1  0
 16 17  1  0
 18 12  1  0
 18 17  1  0
 19 12  2  0
 20 11  1  0
 20 21  1  0
 22 23  2  0
 23 42  1  0
 24 23  1  0
 24 27  1  0
 25 22  1  0
 25 26  1  0
 26 24  2  0
 27 28  1  0
 28 29  2  0
 30 33  1  0
 30 29  1  0
 31 30  2  0
 32 31  1  0
 32 27  2  0
 33 34  1  0
 34 35  1  0
 35 36  2  0
 37 36  1  0
 37 41  1  0
 38 37  2  0
 39 34  2  0
 39 38  1  0
 40 39  1  0
 42 43  1  0
 43 46  1  0
 43 45  1  0
 44 42  2  0
 47 48  1  0
 47 22  1  0
 49 47  1  0
 51 50  1  0
 52 53  1  0
 52 51  1  0
 54 65  2  0
 55 53  1  0
 55 60  1  0
 56 64  1  0
 56 66  1  0
 57 63  1  0
 57 59  1  0
 58 64  1  0
 59 58  1  0
 60 59  2  0
 61 62  1  0
 61 55  2  0
 62 57  2  0
 63 56  1  0
 64 54  1  0
 66 68  2  0
 67 66  1  0
 69 67  1  0
 70 79  2  0
 70 75  1  0
 71 67  1  0
 71 75  1  0
 72 71  1  0
 73 74  1  0
 73 72  1  0
 74 70  1  0
 75 76  2  0
 76 77  1  0
 78 77  2  0
 79 78  1  0
 80 54  1  0
 80 81  1  0
 80 90  1  0
 81 84  1  0
 82 86  1  0
 82 81  1  0
 83 82  2  0
 86 85  1  0
 88 86  1  0
 88 89  1  0
 88 87  1  0
 90 93  1  1
 90 91  1  0
 92 90  1  0
M  ISO  4  12 100  20 100  52 101  53 101
M  END
>  <TORSDO>  (59) 
F 22

>  <SCORE>  (59) 
-13.294

>  <name>  (59) 
59

>  <ligand_id>  (59) 
59

>  <original_smiles>  (59) 
[H]N=C([H])C(=C1C([H])([H])[N+]([H])(C([H])([H])C([H])([H])C([H])([H])Oc2c([H])c([H])c3c(c2[H])C([H])([H])N(C(=O)C([H])(N([H])C(=O)C([H])(N([H])C([H])([H])[H])C([H])([H])[H])C(C([H])([H])[H])(C([H])([H])[H])C([H])([H])[H])C([H])(C(=O)N([H])C2([H])c4c([H])c([H])c([H])c([H])c4C([H])([H])C([H])([H])C2([H])[H])C3([H])[H])C1([H])[H])C([H])([H])C([H])([H])N([H])C(=O)N1C([H])([H])C([H])([H])C([H])([H])C([H])(n2nc(-c3c([H])c([H])c(Oc4c([H])c([H])c(F)c([H])c4F)c([H])c3[H])c(C(=O)N([H])[H])c2N([H])[H])C1([H])[H]

>  <smiles>  (59) 
[H]N=C([H])C(=C1C([H])([H])[N+]([H])(C([H])([H])C([H])([H])C([H])([H])Oc2c([H])c([H])c3c(c2[H])C([H])([H])N(C(=O)C([H])(N([H])C(=O)C([H])(N([H])C([H])([H])[H])C([H])([H])[H])C(C([H])([H])[H])(C([H])([H])[H])C([H])([H])[H])C([H])(C(=O)N([H])C2([H])c4c([H])c([H])c([H])c([H])c4C([H])([H])C([H])([H])C2([H])[H])C3([H])[H])C1([H])[H])C([H])([H])C([H])([H])N([H])C(=O)N1C([H])([H])C([H])([H])C([H])([H])C([H])(n2nc(-c3c([H])c([H])c(Oc4c([H])c([H])c(F)c([H])c4F)c([H])c3[H])c(C(=O)N([H])[H])c2N([H])[H])C1([H])[H]

$$$$
60:0:0
     RDKit          3D

 95103  0  0  1  0  0  0  0  0999 V2000
  -29.8460  -21.7280   20.2370 C   0  0  0  0  0  0  0  0  0  0  0  0
  -29.0480  -22.7610   20.3160 N   0  0  0  0  0  0  0  0  0  0  0  0
  -29.4170  -20.2500   20.6120 C   0  0  0  0  0  0  0  0  0  0  0  0
  -27.9200  -20.1070   20.8980 C   0  0  0  0  0  1  0  0  0  0  0  0
  -30.2290  -19.2280   20.7120 N   0  0  0  0  0  0  0  0  0  0  0  0
  -31.0130  -14.7810   20.3840 C   0  0  0  0  0  0  0  0  0  0  0  0
  -30.7040  -12.5850   19.2610 C   0  0  0  0  0  2  0  0  0  0  0  0
  -29.7630  -12.7480   18.0520 C   0  0  0  0  0  2  0  0  0  0  0  0
  -28.2920  -12.5990   18.4930 C   0  0  0  0  0  2  0  0  0  0  0  0
  -27.9530  -13.4560   19.7410 C   0  0  0  0  0  3  0  0  0  0  0  0
  -29.0150  -13.2900   20.8480 C   0  0  0  0  0  2  0  0  0  0  0  0
  -30.3230  -13.6040   20.2570 N   0  0  0  0  0  0  0  0  0  0  0  0
  -32.1680  -14.8880   19.9630 O   0  0  0  0  0  0  0  0  0  0  0  0
  -29.6920  -16.8070   20.2300 C   0  0  0  0  0  0  0  0  0  0  0  0
  -30.9740  -16.9730   21.7080 C   0  0  0  0  0  2  0  0  0  0  0  0
  -29.8080  -17.8990   21.2720 C   0  0  0  0  0  3  0  0  0  0  0  0
  -30.3660  -15.8580   20.9240 N   0  0  0  0  0  0  0  0  0  0  0  0
  -29.1260  -16.8200   19.1340 O   0  0  0  0  0  0  0  0  0  0  0  0
  -25.5810  -14.0840   20.4930 C   0  0  0  0  0  0  0  0  0  0  0  0
  -24.5060  -13.3220   20.8650 C   0  0  0  0  0  0  0  0  0  0  0  0
  -24.9450  -11.9650   20.8090 C   0  0  0  0  0  0  0  0  0  0  0  0
  -26.6060  -13.1890   20.2350 N   0  0  0  0  0  0  0  0  0  0  0  0
  -26.2310  -11.9090   20.4840 N   0  0  0  0  0  0  0  0  0  0  0  0
  -24.2010  -10.7110   20.9870 C   0  0  0  0  0  0  0  0  0  0  0  0
  -24.5830   -9.7570   21.9560 C   0  0  0  0  0  3  0  0  0  0  0  0
  -23.8410   -8.5680   22.1190 C   0  0  0  0  0  3  0  0  0  0  0  0
  -22.7020   -8.3240   21.3160 C   0  0  0  0  0  0  0  0  0  0  0  0
  -22.3410   -9.2660   20.3360 C   0  0  0  0  0  3  0  0  0  0  0  0
  -23.0840  -10.4460   20.1700 C   0  0  0  0  0  3  0  0  0  0  0  0
  -21.9370   -7.1850   21.3880 O   0  0  0  0  0  0  0  0  0  0  0  0
  -21.7750   -6.5020   22.5670 C   0  0  0  0  0  0  0  0  0  0  0  0
  -21.1690   -7.0940   23.6960 C   0  0  0  0  0  3  0  0  0  0  0  0
  -20.9590   -6.3320   24.8630 C   0  0  0  0  0  3  0  0  0  0  0  0
  -21.3430   -4.9780   24.8990 C   0  0  0  0  0  0  0  0  0  0  0  0
  -21.9400   -4.3870   23.7740 C   0  0  0  0  0  3  0  0  0  0  0  0
  -22.1530   -5.1450   22.6100 C   0  0  0  0  0  0  0  0  0  0  0  0
  -22.7090   -4.5630   21.5210 F   0  0  0  0  0  0  0  0  0  0  0  0
  -21.1360   -4.2440   26.0180 F   0  0  0  0  0  0  0  0  0  0  0  0
  -23.1190  -13.8160   21.1570 C   0  0  0  0  0  0  0  0  0  0  0  0
  -22.3880  -13.1190   22.0190 N   0  0  0  0  0  0  0  0  0  0  0  0
  -22.6920  -14.8570   20.6550 O   0  0  0  0  0  0  0  0  0  0  0  0
  -22.7460  -12.2770   22.4470 H   0  0  0  0  0  0  0  0  0  0  0  0
  -21.4560  -13.4300   22.2540 H   0  0  0  0  0  0  0  0  0  0  0  0
  -25.7650  -15.4540   20.3290 N   0  0  0  0  0  0  0  0  0  0  0  0
  -25.0000  -16.1130   20.4200 H   0  0  0  0  0  0  0  0  0  0  0  0
  -26.5940  -15.8640   19.9160 H   0  0  0  0  0  0  0  0  0  0  0  0
  -31.5090  -21.3460   18.3230 C   0  0  0  0  0  1  0  0  0  0  0  0
  -31.3230  -21.8480   19.7680 C   0  0  0  0  0  3  0  0  0  0  0  0
  -32.2880  -21.2480   20.7130 N   0  0  0  0  0  4  0  0  0  0  0  0
  -32.0440  -20.2830   20.8690 H   0  0  0  0  0  0  0  0  0  0  0  0
  -32.2580  -21.7320   21.5950 H   0  0  0  0  0  0  0  0  0  0  0  0
  -33.2240  -21.3030   20.3550 H   0  0  0  0  0  0  0  0  0  0  0  0
  -29.4410  -24.1820   20.0490 C   0  0  0  0  0  2  0  0  0  0  0  0
  -28.2130  -25.1530   19.8800 C   0  0  0  0  0  2  0  0  0  0  0  0
  -28.4420  -26.6100   19.8740 O   0  0  0  0  0  0  0  0  0  0  0  0
  -24.6110  -31.7610   23.1270 C   0  0  0  0  0  0  0  0  0  0  0  0
  -27.2990  -27.4170   19.8670 C   0  0  0  0  0  0  0  0  0  0  0  0
  -23.4230  -30.3970   21.4490 C   0  0  0  0  0  3  0  0  0  0  0  0
  -24.8920  -28.9500   19.9500 C   0  0  0  0  0  0  0  0  0  0  0  0
  -25.9500  -30.7970   21.2480 C   0  0  0  0  0  2  0  0  0  0  0  0
  -26.0570  -29.4530   20.5450 C   0  0  0  0  0  0  0  0  0  0  0  0
  -27.2650  -28.7000   20.4910 C   0  0  0  0  0  3  0  0  0  0  0  0
  -26.1060  -26.9650   19.2540 C   0  0  0  0  0  3  0  0  0  0  0  0
  -24.9170  -27.7100   19.2990 C   0  0  0  0  0  3  0  0  0  0  0  0
  -23.6340  -29.7850   20.0410 C   0  0  0  0  0  2  0  0  0  0  0  0
  -24.6810  -30.9980   21.9990 N   0  0  0  0  0  0  0  0  0  0  0  0
  -23.5260  -31.9900   23.6810 O   0  0  0  0  0  0  0  0  0  0  0  0
  -22.8020  -29.3220   22.3730 C   0  0  0  0  0  0  0  0  0  0  0  0
  -21.4800  -29.1190   22.2550 N   0  0  0  0  0  0  0  0  0  0  0  0
  -23.5080  -28.6770   23.1530 O   0  0  0  0  0  0  0  0  0  0  0  0
  -20.9690  -29.6890   21.5960 H   0  0  0  0  0  0  0  0  0  0  0  0
  -18.1300  -27.8590   22.7790 C   0  0  0  0  0  0  0  0  0  0  0  0
  -20.6910  -28.1360   22.9990 C   0  0  0  0  0  3  0  0  0  0  0  0
  -20.7960  -26.7360   22.3510 C   0  0  0  0  0  2  0  0  0  0  0  0
  -19.6720  -26.4490   21.3510 C   0  0  0  0  0  2  0  0  0  0  0  0
  -18.3050  -26.5470   22.0340 C   0  0  0  0  0  2  0  0  0  0  0  0
  -19.2510  -28.6130   23.2170 C   0  0  0  0  0  0  0  0  0  0  0  0
  -19.0330  -29.8450   23.8740 C   0  0  0  0  0  3  0  0  0  0  0  0
  -17.7290  -30.3210   24.0970 C   0  0  0  0  0  3  0  0  0  0  0  0
  -16.6230  -29.5640   23.6740 C   0  0  0  0  0  3  0  0  0  0  0  0
  -16.8240  -28.3350   23.0200 C   0  0  0  0  0  3  0  0  0  0  0  0
  -25.8840  -32.4010   23.7580 C   0  0  0  0  0  3  0  0  0  0  0  0
  -25.5510  -33.7870   24.1140 N   0  0  0  0  0  0  0  0  0  0  0  0
  -25.8640  -34.8590   23.3740 C   0  0  0  0  0  0  0  0  0  0  0  0
  -26.5330  -34.7860   22.3390 O   0  0  0  0  0  0  0  0  0  0  0  0
  -24.9560  -33.9190   24.9180 H   0  0  0  0  0  0  0  0  0  0  0  0
  -24.1160  -36.6360   23.0440 C   0  0  0  0  0  1  0  0  0  0  0  0
  -25.3550  -36.2300   23.8590 C   0  0  0  0  0  3  0  0  0  0  0  0
  -27.4570  -37.1320   24.7490 C   0  0  0  0  0  1  0  0  0  0  0  0
  -26.3740  -37.2990   23.7830 N   0  0  0  0  0  0  0  0  0  0  0  0
  -25.9520  -38.2110   23.9360 H   0  0  0  0  0  0  0  0  0  0  0  0
  -26.4160  -31.6140   25.0190 C   0  0  1  0  0  0  0  0  0  0  0  0
  -25.3240  -31.3300   26.0760 C   0  0  0  0  0  1  0  0  0  0  0  0
  -27.0310  -30.2580   24.6000 C   0  0  0  0  0  1  0  0  0  0  0  0
  -27.5470  -32.4200   25.7010 C   0  0  0  0  0  1  0  0  0  0  0  0
  1  2  2  0
  1  3  1  0
  3  5  2  0
  3  4  1  0
  6 17  1  0
  7 12  1  0
  8  9  1  0
  8  7  1  0
 10  9  1  0
 10 22  1  0
 10 11  1  0
 12  6  1  0
 12 11  1  0
 13  6  2  0
 14 17  1  0
 14 16  1  0
 16  5  1  0
 16 15  1  0
 17 15  1  0
 18 14  2  0
 19 20  2  0
 20 39  1  0
 21 20  1  0
 21 24  1  0
 22 23  1  0
 22 19  1  0
 23 21  2  0
 24 25  1  0
 25 26  2  0
 27 30  1  0
 27 26  1  0
 28 27  2  0
 29 28  1  0
 29 24  2  0
 30 31  1  0
 31 36  2  0
 31 32  1  0
 32 33  2  0
 33 34  1  0
 34 38  1  0
 35 34  2  0
 36 35  1  0
 37 36  1  0
 39 40  1  0
 40 43  1  0
 40 42  1  0
 41 39  2  0
 44 45  1  0
 44 19  1  0
 46 44  1  0
 48 47  1  0
 48  1  1  0
 48 49  1  0
 49 50  1  0
 49 51  1  0
 52 49  1  0
 53  2  1  0
 54 53  1  0
 55 54  1  0
 56 67  2  0
 57 55  1  0
 57 62  1  0
 58 66  1  0
 58 68  1  0
 59 65  1  0
 59 61  1  0
 60 66  1  0
 61 60  1  0
 62 61  2  0
 63 64  1  0
 63 57  2  0
 64 59  2  0
 65 58  1  0
 66 56  1  0
 68 70  2  0
 69 68  1  0
 71 69  1  0
 72 81  2  0
 72 77  1  0
 73 69  1  0
 73 77  1  0
 74 73  1  0
 75 76  1  0
 75 74  1  0
 76 72  1  0
 77 78  2  0
 78 79  1  0
 80 79  2  0
 81 80  1  0
 82 56  1  0
 82 83  1  0
 82 92  1  0
 83 86  1  0
 84 88  1  0
 84 83  1  0
 85 84  2  0
 88 87  1  0
 90 88  1  0
 90 91  1  0
 90 89  1  0
 92 95  1  1
 92 93  1  0
 94 92  1  0
M  ISO  4   6 100  17 100  54 101  55 101
M  END
>  <TORSDO>  (60) 
F 21

>  <SCORE>  (60) 
-13.056

>  <name>  (60) 
60

>  <ligand_id>  (60) 
60

>  <original_smiles>  (60) 
[H]c1c([H])c([H])c2c(c1[H])C([H])([H])C([H])([H])C([H])([H])C2([H])N([H])C(=O)C1([H])N(C(=O)C([H])(N([H])C(=O)C([H])(N([H])C([H])([H])[H])C([H])([H])[H])C(C([H])([H])[H])(C([H])([H])[H])C([H])([H])[H])C([H])([H])c2c([H])c(OC([H])([H])C([H])([H])N=C(C(=NC3([H])C(=O)N(C(=O)N4C([H])([H])C([H])([H])C([H])([H])C([H])(n5nc(-c6c([H])c([H])c(Oc7c([H])c([H])c(F)c([H])c7F)c([H])c6[H])c(C(=O)N([H])[H])c5N([H])[H])C4([H])[H])C3([H])[H])C([H])([H])[H])C([H])(C([H])([H])[H])[N+]([H])([H])[H])c([H])c([H])c2C1([H])[H]

>  <smiles>  (60) 
[H]c1c([H])c([H])c2c(c1[H])C([H])([H])C([H])([H])C([H])([H])C2([H])N([H])C(=O)C1([H])N(C(=O)C([H])(N([H])C(=O)C([H])(N([H])C([H])([H])[H])C([H])([H])[H])C(C([H])([H])[H])(C([H])([H])[H])C([H])([H])[H])C([H])([H])c2c([H])c(OC([H])([H])C([H])([H])N=C(C(=NC3([H])C(=O)N(C(=O)N4C([H])([H])C([H])([H])C([H])([H])C([H])(n5nc(-c6c([H])c([H])c(Oc7c([H])c([H])c(F)c([H])c7F)c([H])c6[H])c(C(=O)N([H])[H])c5N([H])[H])C4([H])[H])C3([H])[H])C([H])([H])[H])C([H])(C([H])([H])[H])[N+]([H])([H])[H])c([H])c([H])c2C1([H])[H]

$$$$
61:0:0
     RDKit          3D

 92100  0  0  1  0  0  0  0  0999 V2000
  -30.5350  -20.1810   18.6130 C   0  0  0  0  0  2  0  0  0  0  0  0
  -30.5210  -19.1050   19.7720 C   0  0  0  0  0  3  0  0  0  0  0  0
  -30.7780  -20.4140   20.6020 C   0  0  0  0  0  3  0  0  0  0  0  0
  -30.0250  -21.2230   19.5670 N   0  0  1  0  0  4  0  0  0  0  0  0
  -29.0390  -21.0810   19.7300 H   0  0  0  0  0  0  0  0  0  0  0  0
  -30.1480  -20.3810   21.9950 C   0  0  0  0  0  0  0  0  0  0  0  0
  -30.3860  -19.1040   22.7790 C   0  0  0  0  0  1  0  0  0  0  0  0
  -29.4920  -21.3380   22.5040 N   0  0  0  0  0  0  0  0  0  0  0  0
  -29.4160  -22.1720   21.9370 H   0  0  0  0  0  0  0  0  0  0  0  0
  -31.5120  -17.8090   19.8320 C   0  0  0  0  0  0  0  0  0  0  0  0
  -32.9610  -18.1990   19.5490 C   0  0  0  0  0  1  0  0  0  0  0  0
  -31.1220  -16.5580   20.1070 N   0  0  0  0  0  0  0  0  0  0  0  0
  -31.9100  -15.3460   19.9230 C   0  0  0  0  0  0  0  0  0  0  0  0
  -31.6000  -13.0190   19.0280 C   0  0  0  0  0  2  0  0  0  0  0  0
  -30.6040  -13.0610   17.8460 C   0  0  0  0  0  2  0  0  0  0  0  0
  -29.1570  -12.9300   18.3570 C   0  0  0  0  0  2  0  0  0  0  0  0
  -28.8600  -13.8720   19.5540 C   0  0  0  0  0  3  0  0  0  0  0  0
  -29.9780  -13.8350   20.6180 C   0  0  0  0  0  2  0  0  0  0  0  0
  -31.2550  -14.1270   19.9560 N   0  0  0  0  0  0  0  0  0  0  0  0
  -33.0880  -15.3330   19.5600 O   0  0  0  0  0  0  0  0  0  0  0  0
  -26.5940  -14.5390   20.5440 C   0  0  0  0  0  0  0  0  0  0  0  0
  -25.5030  -13.8080   20.9220 C   0  0  0  0  0  0  0  0  0  0  0  0
  -25.8540  -12.4370   20.7210 C   0  0  0  0  0  0  0  0  0  0  0  0
  -27.5430  -13.6190   20.1330 N   0  0  0  0  0  0  0  0  0  0  0  0
  -27.1110  -12.3420   20.3020 N   0  0  0  0  0  0  0  0  0  0  0  0
  -25.0460  -11.2160   20.8480 C   0  0  0  0  0  0  0  0  0  0  0  0
  -25.3790  -10.2000   21.7710 C   0  0  0  0  0  3  0  0  0  0  0  0
  -24.5750   -9.0450   21.8880 C   0  0  0  0  0  3  0  0  0  0  0  0
  -23.4220   -8.8980   21.0810 C   0  0  0  0  0  0  0  0  0  0  0  0
  -23.1060   -9.9020   20.1490 C   0  0  0  0  0  3  0  0  0  0  0  0
  -23.9110  -11.0480   20.0300 C   0  0  0  0  0  3  0  0  0  0  0  0
  -22.5980   -7.7980   21.1060 O   0  0  0  0  0  0  0  0  0  0  0  0
  -22.2910   -7.1560   22.2790 C   0  0  0  0  0  0  0  0  0  0  0  0
  -21.6470   -7.8190   23.3450 C   0  0  0  0  0  3  0  0  0  0  0  0
  -21.2860   -7.1040   24.5050 C   0  0  0  0  0  3  0  0  0  0  0  0
  -21.5620   -5.7260   24.5970 C   0  0  0  0  0  0  0  0  0  0  0  0
  -22.1970   -5.0630   23.5330 C   0  0  0  0  0  3  0  0  0  0  0  0
  -22.5580   -5.7750   22.3770 C   0  0  0  0  0  0  0  0  0  0  0  0
  -23.1510   -5.1260   21.3460 F   0  0  0  0  0  0  0  0  0  0  0  0
  -21.2090   -5.0370   25.7080 F   0  0  0  0  0  0  0  0  0  0  0  0
  -24.1700  -14.3510   21.3530 C   0  0  0  0  0  0  0  0  0  0  0  0
  -23.4820  -13.6460   22.2420 N   0  0  0  0  0  0  0  0  0  0  0  0
  -23.7560  -15.4330   20.9380 O   0  0  0  0  0  0  0  0  0  0  0  0
  -23.8320  -12.7670   22.5950 H   0  0  0  0  0  0  0  0  0  0  0  0
  -22.5920  -13.9900   22.5750 H   0  0  0  0  0  0  0  0  0  0  0  0
  -26.8540  -15.9060   20.4900 N   0  0  0  0  0  0  0  0  0  0  0  0
  -26.1660  -16.6070   20.7370 H   0  0  0  0  0  0  0  0  0  0  0  0
  -27.7290  -16.2980   20.1650 H   0  0  0  0  0  0  0  0  0  0  0  0
  -30.3400  -22.7500   19.4350 C   0  0  0  0  0  2  0  0  0  0  0  0
  -29.3110  -23.8620   18.7870 C   0  0  0  0  0  2  0  0  0  0  0  0
  -29.0340  -25.2980   19.5430 C   0  0  0  0  0  2  0  0  0  0  0  0
  -28.8350  -26.6540   18.8910 O   0  0  0  0  0  0  0  0  0  0  0  0
  -24.6850  -31.0850   22.9430 C   0  0  0  0  0  0  0  0  0  0  0  0
  -27.6310  -27.3720   19.0970 C   0  0  0  0  0  0  0  0  0  0  0  0
  -23.5530  -29.7430   21.2090 C   0  0  0  0  0  3  0  0  0  0  0  0
  -25.0760  -28.6350   19.4720 C   0  0  0  0  0  0  0  0  0  0  0  0
  -25.9950  -30.4670   20.8910 C   0  0  0  0  0  2  0  0  0  0  0  0
  -26.2180  -29.2090   20.0470 C   0  0  0  0  0  0  0  0  0  0  0  0
  -27.4990  -28.5970   19.8400 C   0  0  0  0  0  3  0  0  0  0  0  0
  -26.4560  -26.8630   18.5090 C   0  0  0  0  0  3  0  0  0  0  0  0
  -25.1990  -27.4740   18.6900 C   0  0  0  0  0  3  0  0  0  0  0  0
  -23.7380  -29.3010   19.7330 C   0  0  0  0  0  2  0  0  0  0  0  0
  -24.7660  -30.4450   21.7390 N   0  0  0  0  0  0  0  0  0  0  0  0
  -23.6240  -31.1170   23.5870 O   0  0  0  0  0  0  0  0  0  0  0  0
  -23.1350  -28.5170   22.0570 C   0  0  0  0  0  0  0  0  0  0  0  0
  -21.8980  -28.0300   21.8540 N   0  0  0  0  0  0  0  0  0  0  0  0
  -23.9230  -28.0110   22.8610 O   0  0  0  0  0  0  0  0  0  0  0  0
  -21.3060  -28.5070   21.1880 H   0  0  0  0  0  0  0  0  0  0  0  0
  -19.0000  -25.8610   21.9390 C   0  0  0  0  0  0  0  0  0  0  0  0
  -21.3180  -26.8550   22.5080 C   0  0  0  0  0  3  0  0  0  0  0  0
  -21.9060  -25.5460   21.9330 C   0  0  0  0  0  2  0  0  0  0  0  0
  -21.0690  -24.9600   20.7920 C   0  0  0  0  0  2  0  0  0  0  0  0
  -19.6450  -24.6580   21.2700 C   0  0  0  0  0  2  0  0  0  0  0  0
  -19.7860  -26.8990   22.5060 C   0  0  0  0  0  0  0  0  0  0  0  0
  -19.1370  -28.0110   23.0850 C   0  0  0  0  0  3  0  0  0  0  0  0
  -17.7320  -28.0950   23.1040 C   0  0  0  0  0  3  0  0  0  0  0  0
  -16.9590  -27.0570   22.5550 C   0  0  0  0  0  3  0  0  0  0  0  0
  -17.5930  -25.9420   21.9780 C   0  0  0  0  0  3  0  0  0  0  0  0
  -25.9110  -31.8260   23.5600 C   0  0  0  0  0  3  0  0  0  0  0  0
  -25.4590  -33.1610   23.9780 N   0  0  0  0  0  0  0  0  0  0  0  0
  -25.6950  -34.2940   23.3020 C   0  0  0  0  0  0  0  0  0  0  0  0
  -26.3820  -34.3290   22.2790 O   0  0  0  0  0  0  0  0  0  0  0  0
  -24.8400  -33.1990   24.7740 H   0  0  0  0  0  0  0  0  0  0  0  0
  -23.7960  -35.9270   23.0520 C   0  0  0  0  0  1  0  0  0  0  0  0
  -25.0660  -35.5910   23.8480 C   0  0  0  0  0  3  0  0  0  0  0  0
  -27.0940  -36.6280   24.7670 C   0  0  0  0  0  1  0  0  0  0  0  0
  -25.9890  -36.7470   23.8190 N   0  0  0  0  0  0  0  0  0  0  0  0
  -25.4920  -37.6090   24.0230 H   0  0  0  0  0  0  0  0  0  0  0  0
  -26.5540  -31.0530   24.7770 C   0  0  1  0  0  0  0  0  0  0  0  0
  -25.5350  -30.6530   25.8700 C   0  0  0  0  0  1  0  0  0  0  0  0
  -27.2570  -29.7640   24.2960 C   0  0  0  0  0  1  0  0  0  0  0  0
  -27.6450  -31.9320   25.4340 C   0  0  0  0  0  1  0  0  0  0  0  0
  1  4  1  0
  1  2  1  0
  2 10  1  0
  2  3  1  0
  3  6  1  0
  4  5  1  1
  4  3  1  0
  6  8  2  0
  6  7  1  0
  9  8  1  0
 10 12  2  0
 11 10  1  0
 13 19  1  0
 13 12  1  0
 14 19  1  0
 15 16  1  0
 15 14  1  0
 17 16  1  0
 17 24  1  0
 17 18  1  0
 19 18  1  0
 20 13  2  0
 21 22  2  0
 22 41  1  0
 23 26  1  0
 23 22  1  0
 24 25  1  0
 24 21  1  0
 25 23  2  0
 26 27  1  0
 27 28  2  0
 29 32  1  0
 29 28  1  0
 30 29  2  0
 31 30  1  0
 31 26  2  0
 32 33  1  0
 33 38  2  0
 33 34  1  0
 34 35  2  0
 35 36  1  0
 36 40  1  0
 37 36  2  0
 38 37  1  0
 39 38  1  0
 41 42  1  0
 42 45  1  0
 42 44  1  0
 43 41  2  0
 46 21  1  0
 46 47  1  0
 48 46  1  0
 49  4  1  0
 50 49  1  0
 50 51  1  0
 52 54  1  0
 52 51  1  0
 53 64  2  0
 54 59  1  0
 55 63  1  0
 55 65  1  0
 56 62  1  0
 56 58  1  0
 57 63  1  0
 58 57  1  0
 59 58  2  0
 60 61  1  0
 60 54  2  0
 61 56  2  0
 62 55  1  0
 63 53  1  0
 65 67  2  0
 66 65  1  0
 68 66  1  0
 69 78  2  0
 69 74  1  0
 70 66  1  0
 71 70  1  0
 72 73  1  0
 72 71  1  0
 73 69  1  0
 74 70  1  0
 74 75  2  0
 75 76  1  0
 77 76  2  0
 78 77  1  0
 79 53  1  0
 79 80  1  0
 79 89  1  0
 80 83  1  0
 81 85  1  0
 81 80  1  0
 82 81  2  0
 85 84  1  0
 87 85  1  0
 87 88  1  0
 87 86  1  0
 89 92  1  1
 89 90  1  0
 91 89  1  0
M  ISO  4  12 100  13 100  51 101  52 101
M  END
>  <TORSDO>  (61) 
F 21

>  <SCORE>  (61) 
-8.737

>  <name>  (61) 
61

>  <ligand_id>  (61) 
61

>  <original_smiles>  (61) 
[H]N=C(C([H])([H])[H])C1([H])C([H])(C(=NC(=O)N2C([H])([H])C([H])([H])C([H])([H])C([H])(n3nc(-c4c([H])c([H])c(Oc5c([H])c([H])c(F)c([H])c5F)c([H])c4[H])c(C(=O)N([H])[H])c3N([H])[H])C2([H])[H])C([H])([H])[H])C([H])([H])[N+]1([H])C([H])([H])C([H])([H])C([H])([H])Oc1c([H])c([H])c2c(c1[H])C([H])([H])N(C(=O)C([H])(N([H])C(=O)C([H])(N([H])C([H])([H])[H])C([H])([H])[H])C(C([H])([H])[H])(C([H])([H])[H])C([H])([H])[H])C([H])(C(=O)N([H])C1([H])c3c([H])c([H])c([H])c([H])c3C([H])([H])C([H])([H])C1([H])[H])C2([H])[H]

>  <smiles>  (61) 
[H]N=C(C([H])([H])[H])C1([H])C([H])(C(=NC(=O)N2C([H])([H])C([H])([H])C([H])([H])C([H])(n3nc(-c4c([H])c([H])c(Oc5c([H])c([H])c(F)c([H])c5F)c([H])c4[H])c(C(=O)N([H])[H])c3N([H])[H])C2([H])[H])C([H])([H])[H])C([H])([H])[N+]1([H])C([H])([H])C([H])([H])C([H])([H])Oc1c([H])c([H])c2c(c1[H])C([H])([H])N(C(=O)C([H])(N([H])C(=O)C([H])(N([H])C([H])([H])[H])C([H])([H])[H])C(C([H])([H])[H])(C([H])([H])[H])C([H])([H])[H])C([H])(C(=O)N([H])C1([H])c3c([H])c([H])c([H])c([H])c3C([H])([H])C([H])([H])C1([H])[H])C2([H])[H]

$$$$
62:0:0
     RDKit          3D

 89 97  0  0  1  0  0  0  0  0999 V2000
  -28.8350  -20.1720   20.5830 C   0  0  0  0  0  0  0  0  0  0  0  0
  -28.3490  -18.8260   20.2810 C   0  0  0  0  0  0  0  0  0  0  0  0
  -28.1940  -21.3780   20.6130 C   0  0  0  0  0  3  0  0  0  0  0  0
  -30.2550  -19.6510   20.8820 C   0  0  0  0  0  2  0  0  0  0  0  0
  -29.8140  -18.3270   20.1170 C   0  0  0  0  0  3  0  0  0  0  0  0
  -27.2060  -18.3680   20.1930 O   0  0  0  0  0  0  0  0  0  0  0  0
  -30.2400  -16.9100   20.6560 C   0  0  0  0  0  3  0  0  0  0  0  0
  -31.3160  -16.9770   21.7450 C   0  0  0  0  0  1  0  0  0  0  0  0
  -29.8010  -15.8040   20.1210 N   0  0  0  0  0  2  0  0  0  0  0  0
  -30.6250  -14.6580   20.0080 C   0  0  0  0  0  0  0  0  0  0  0  0
  -30.3320  -12.4080   19.0450 C   0  0  0  0  0  2  0  0  0  0  0  0
  -29.3480  -12.5510   17.8620 C   0  0  0  0  0  2  0  0  0  0  0  0
  -27.8920  -12.4110   18.3480 C   0  0  0  0  0  2  0  0  0  0  0  0
  -27.5890  -13.2950   19.5880 C   0  0  0  0  0  3  0  0  0  0  0  0
  -28.6910  -13.1710   20.6610 C   0  0  0  0  0  2  0  0  0  0  0  0
  -29.9880  -13.4500   20.0320 N   0  0  0  0  0  0  0  0  0  0  0  0
  -31.8090  -14.7200   19.6720 O   0  0  0  0  0  0  0  0  0  0  0  0
  -25.2470  -13.9000   20.4520 C   0  0  0  0  0  0  0  0  0  0  0  0
  -24.1910  -13.1300   20.8590 C   0  0  0  0  0  0  0  0  0  0  0  0
  -24.6370  -11.7750   20.7780 C   0  0  0  0  0  0  0  0  0  0  0  0
  -26.2660  -13.0150   20.1420 N   0  0  0  0  0  0  0  0  0  0  0  0
  -25.9090  -11.7300   20.4000 N   0  0  0  0  0  0  0  0  0  0  0  0
  -23.9060  -10.5170   20.9820 C   0  0  0  0  0  0  0  0  0  0  0  0
  -24.3480   -9.5470   21.9080 C   0  0  0  0  0  3  0  0  0  0  0  0
  -23.6200   -8.3530   22.0990 C   0  0  0  0  0  3  0  0  0  0  0  0
  -22.4340   -8.1210   21.3630 C   0  0  0  0  0  0  0  0  0  0  0  0
  -22.0100   -9.0790   20.4250 C   0  0  0  0  0  3  0  0  0  0  0  0
  -22.7400  -10.2630   20.2320 C   0  0  0  0  0  3  0  0  0  0  0  0
  -21.6750   -6.9800   21.4620 O   0  0  0  0  0  0  0  0  0  0  0  0
  -21.6250   -6.2480   22.6210 C   0  0  0  0  0  0  0  0  0  0  0  0
  -21.1670   -6.8040   23.8360 C   0  0  0  0  0  3  0  0  0  0  0  0
  -21.0670   -5.9960   24.9870 C   0  0  0  0  0  3  0  0  0  0  0  0
  -21.4140   -4.6340   24.9230 C   0  0  0  0  0  0  0  0  0  0  0  0
  -21.8640   -4.0760   23.7130 C   0  0  0  0  0  3  0  0  0  0  0  0
  -21.9660   -4.8800   22.5660 C   0  0  0  0  0  0  0  0  0  0  0  0
  -22.3810   -4.3340   21.3960 F   0  0  0  0  0  0  0  0  0  0  0  0
  -21.3100   -3.8550   26.0260 F   0  0  0  0  0  0  0  0  0  0  0  0
  -22.8160  -13.6150   21.2150 C   0  0  0  0  0  0  0  0  0  0  0  0
  -22.1230  -12.9010   22.0950 N   0  0  0  0  0  0  0  0  0  0  0  0
  -22.3670  -14.6610   20.7470 O   0  0  0  0  0  0  0  0  0  0  0  0
  -22.5020  -12.0560   22.4950 H   0  0  0  0  0  0  0  0  0  0  0  0
  -21.2010  -13.2050   22.3740 H   0  0  0  0  0  0  0  0  0  0  0  0
  -25.4180  -15.2730   20.3010 N   0  0  0  0  0  0  0  0  0  0  0  0
  -24.6790  -15.9390   20.4950 H   0  0  0  0  0  0  0  0  0  0  0  0
  -26.2850  -15.7160   20.0190 H   0  0  0  0  0  0  0  0  0  0  0  0
  -28.7330  -22.7530   21.0860 C   0  0  0  0  0  2  0  0  0  0  0  0
  -28.3420  -24.0410   20.2590 C   0  0  0  0  0  2  0  0  0  0  0  0
  -28.4150  -25.3940   21.0670 C   0  0  0  0  0  2  0  0  0  0  0  0
  -28.4570  -26.6570   20.3390 O   0  0  0  0  0  0  0  0  0  0  0  0
  -24.5450  -31.9210   23.2650 C   0  0  0  0  0  0  0  0  0  0  0  0
  -27.3030  -27.4240   20.3260 C   0  0  0  0  0  0  0  0  0  0  0  0
  -23.4010  -30.4920   21.6030 C   0  0  0  0  0  3  0  0  0  0  0  0
  -24.9090  -28.9470   20.2370 C   0  0  0  0  0  0  0  0  0  0  0  0
  -25.9320  -30.8610   21.4770 C   0  0  0  0  0  2  0  0  0  0  0  0
  -26.0490  -29.4800   20.8530 C   0  0  0  0  0  0  0  0  0  0  0  0
  -27.2530  -28.7290   20.8870 C   0  0  0  0  0  3  0  0  0  0  0  0
  -26.1460  -26.9160   19.7040 C   0  0  0  0  0  3  0  0  0  0  0  0
  -24.9560  -27.6680   19.6570 C   0  0  0  0  0  3  0  0  0  0  0  0
  -23.6590  -29.8010   20.2370 C   0  0  0  0  0  2  0  0  0  0  0  0
  -24.6430  -31.1090   22.1730 N   0  0  0  0  0  0  0  0  0  0  0  0
  -23.4450  -32.1900   23.7690 O   0  0  0  0  0  0  0  0  0  0  0  0
  -22.7290  -29.4760   22.5560 C   0  0  0  0  0  0  0  0  0  0  0  0
  -21.4060  -29.2980   22.4070 N   0  0  0  0  0  0  0  0  0  0  0  0
  -23.3970  -28.8510   23.3840 O   0  0  0  0  0  0  0  0  0  0  0  0
  -20.9300  -29.8520   21.7100 H   0  0  0  0  0  0  0  0  0  0  0  0
  -18.0100  -28.1610   22.9070 C   0  0  0  0  0  0  0  0  0  0  0  0
  -20.5750  -28.3620   23.1660 C   0  0  0  0  0  3  0  0  0  0  0  0
  -20.6440  -26.9410   22.5590 C   0  0  0  0  0  2  0  0  0  0  0  0
  -19.5280  -26.6610   21.5470 C   0  0  0  0  0  2  0  0  0  0  0  0
  -18.1550  -26.8220   22.2040 C   0  0  0  0  0  2  0  0  0  0  0  0
  -19.1470  -28.8910   23.3440 C   0  0  0  0  0  0  0  0  0  0  0  0
  -18.9590  -30.1470   23.9620 C   0  0  0  0  0  3  0  0  0  0  0  0
  -17.6670  -30.6720   24.1470 C   0  0  0  0  0  3  0  0  0  0  0  0
  -16.5440  -29.9390   23.7260 C   0  0  0  0  0  3  0  0  0  0  0  0
  -16.7170  -28.6840   23.1120 C   0  0  0  0  0  3  0  0  0  0  0  0
  -25.8060  -32.5700   23.9160 C   0  0  0  0  0  3  0  0  0  0  0  0
  -26.2810  -31.8310   25.2270 C   0  0  1  0  0  0  0  0  0  0  0  0
  -25.1500  -31.6030   26.2570 C   0  0  0  0  0  1  0  0  0  0  0  0
  -26.8910  -30.4520   24.8850 C   0  0  0  0  0  1  0  0  0  0  0  0
  -27.3990  -32.6500   25.9140 C   0  0  0  0  0  1  0  0  0  0  0  0
  -25.4830  -33.9760   24.2020 N   0  0  0  0  0  0  0  0  0  0  0  0
  -25.8520  -35.0110   23.4370 C   0  0  0  0  0  0  0  0  0  0  0  0
  -26.5680  -34.8860   22.4400 O   0  0  0  0  0  0  0  0  0  0  0  0
  -24.8510  -34.1470   24.9700 H   0  0  0  0  0  0  0  0  0  0  0  0
  -24.1570  -36.8050   22.9480 C   0  0  0  0  0  1  0  0  0  0  0  0
  -25.3450  -36.4090   23.8400 C   0  0  0  0  0  3  0  0  0  0  0  0
  -27.4230  -37.3050   24.7930 C   0  0  0  0  0  1  0  0  0  0  0  0
  -26.3880  -37.4550   23.7740 N   0  0  0  0  0  0  0  0  0  0  0  0
  -25.9760  -38.3790   23.8730 H   0  0  0  0  0  0  0  0  0  0  0  0
  1  3  2  0
  1  4  1  0
  2  1  1  0
  3 46  1  0
  5  2  1  0
  5  7  1  0
  5  4  1  0
  6  2  2  0
  7  8  1  0
  9  7  1  0
 10 16  1  0
 10  9  1  0
 11 16  1  0
 12 13  1  0
 12 11  1  0
 14 13  1  0
 14 21  1  0
 14 15  1  0
 16 15  1  0
 17 10  2  0
 18 19  2  0
 19 38  1  0
 20 19  1  0
 20 23  1  0
 21 22  1  0
 21 18  1  0
 22 20  2  0
 23 24  1  0
 24 25  2  0
 26 29  1  0
 26 25  1  0
 27 26  2  0
 28 27  1  0
 28 23  2  0
 29 30  1  0
 30 31  1  0
 31 32  2  0
 33 32  1  0
 33 37  1  0
 34 33  2  0
 35 30  2  0
 35 34  1  0
 36 35  1  0
 38 39  1  0
 39 42  1  0
 39 41  1  0
 40 38  2  0
 43 18  1  0
 43 44  1  0
 45 43  1  0
 47 48  1  0
 47 46  1  0
 49 48  1  0
 50 61  2  0
 51 49  1  0
 51 56  1  0
 52 60  1  0
 52 62  1  0
 53 59  1  0
 53 55  1  0
 54 60  1  0
 55 56  2  0
 55 54  1  0
 57 51  2  0
 58 57  1  0
 58 53  2  0
 59 52  1  0
 60 50  1  0
 62 64  2  0
 63 62  1  0
 65 63  1  0
 66 75  2  0
 66 71  1  0
 67 63  1  0
 67 71  1  0
 68 67  1  0
 69 70  1  0
 69 68  1  0
 70 66  1  0
 71 72  2  0
 72 73  1  0
 74 73  2  0
 75 74  1  0
 76 50  1  0
 76 81  1  0
 76 77  1  0
 77 80  1  1
 77 78  1  0
 79 77  1  0
 81 84  1  0
 82 86  1  0
 82 81  1  0
 83 82  2  0
 86 85  1  0
 88 86  1  0
 88 89  1  0
 88 87  1  0
M  ISO  4   9 100  10 100  48 101  49 101
M  END
>  <TORSDO>  (62) 
F 20

>  <SCORE>  (62) 
-14.032

>  <name>  (62) 
62

>  <ligand_id>  (62) 
62

>  <original_smiles>  (62) 
[H]C(=C1C(=O)C([H])(C(=NC(=O)N2C([H])([H])C([H])([H])C([H])([H])C([H])(n3nc(-c4c([H])c([H])c(Oc5c([H])c([H])c(F)c([H])c5F)c([H])c4[H])c(C(=O)N([H])[H])c3N([H])[H])C2([H])[H])C([H])([H])[H])C1([H])[H])C([H])([H])C([H])([H])C([H])([H])Oc1c([H])c([H])c2c(c1[H])C([H])([H])N(C(=O)C([H])(N([H])C(=O)C([H])(N([H])C([H])([H])[H])C([H])([H])[H])C(C([H])([H])[H])(C([H])([H])[H])C([H])([H])[H])C([H])(C(=O)N([H])C1([H])c3c([H])c([H])c([H])c([H])c3C([H])([H])C([H])([H])C1([H])[H])C2([H])[H]

>  <smiles>  (62) 
[H]C(=C1C(=O)C([H])(C(=NC(=O)N2C([H])([H])C([H])([H])C([H])([H])C([H])(n3nc(-c4c([H])c([H])c(Oc5c([H])c([H])c(F)c([H])c5F)c([H])c4[H])c(C(=O)N([H])[H])c3N([H])[H])C2([H])[H])C([H])([H])[H])C1([H])[H])C([H])([H])C([H])([H])C([H])([H])Oc1c([H])c([H])c2c(c1[H])C([H])([H])N(C(=O)C([H])(N([H])C(=O)C([H])(N([H])C([H])([H])[H])C([H])([H])[H])C(C([H])([H])[H])(C([H])([H])[H])C([H])([H])[H])C([H])(C(=O)N([H])C1([H])c3c([H])c([H])c([H])c([H])c3C([H])([H])C([H])([H])C1([H])[H])C2([H])[H]

$$$$
63:0:0
     RDKit          3D

 91 99  0  0  1  0  0  0  0  0999 V2000
  -29.1060  -22.3420   20.0080 C   0  0  0  0  0  3  0  0  0  0  0  0
  -28.4840  -22.1550   21.3980 C   0  0  0  0  0  0  0  0  0  0  0  0
  -27.3960  -21.1040   21.5550 C   0  0  0  0  0  1  0  0  0  0  0  0
  -28.8410  -22.8300   22.3680 O   0  0  0  0  0  0  0  0  0  0  0  0
  -30.7140  -21.2790   18.2830 C   0  0  0  0  0  1  0  0  0  0  0  0
  -30.2660  -21.1940   19.7510 C   0  0  0  0  0  3  0  0  0  0  0  0
  -30.3440  -17.5560   20.3210 C   0  0  0  0  0  3  0  0  0  0  0  0
  -31.0160  -18.7850   20.7600 C   0  0  0  0  0  0  0  0  0  0  0  0
  -29.3980  -18.4860   19.5360 C   0  0  0  0  0  2  0  0  0  0  0  0
  -30.2240  -16.2990   20.6060 N   0  0  0  0  0  2  0  0  0  0  0  0
  -30.1420  -19.6800   20.0910 N   0  0  0  0  0  0  0  0  0  0  0  0
  -32.0100  -18.9110   21.4450 O   0  0  0  0  0  0  0  0  0  0  0  0
  -31.0710  -15.1890   20.2430 C   0  0  0  0  0  0  0  0  0  0  0  0
  -30.9260  -12.8840   19.2450 C   0  0  0  0  0  2  0  0  0  0  0  0
  -29.9830  -12.9450   18.0200 C   0  0  0  0  0  2  0  0  0  0  0  0
  -28.5140  -12.7570   18.4470 C   0  0  0  0  0  2  0  0  0  0  0  0
  -28.1330  -13.6440   19.6610 C   0  0  0  0  0  3  0  0  0  0  0  0
  -29.1920  -13.5550   20.7800 C   0  0  0  0  0  2  0  0  0  0  0  0
  -30.4920  -13.9320   20.2030 N   0  0  0  0  0  0  0  0  0  0  0  0
  -32.2390  -15.3020   19.8620 O   0  0  0  0  0  0  0  0  0  0  0  0
  -25.7520  -14.2310   20.4140 C   0  0  0  0  0  0  0  0  0  0  0  0
  -24.6830  -13.4550   20.7730 C   0  0  0  0  0  0  0  0  0  0  0  0
  -25.1400  -12.1030   20.7130 C   0  0  0  0  0  0  0  0  0  0  0  0
  -26.7890  -13.3520   20.1540 N   0  0  0  0  0  0  0  0  0  0  0  0
  -26.4290  -12.0640   20.3960 N   0  0  0  0  0  0  0  0  0  0  0  0
  -24.4060  -10.8410   20.8840 C   0  0  0  0  0  0  0  0  0  0  0  0
  -24.7640   -9.9060   21.8810 C   0  0  0  0  0  3  0  0  0  0  0  0
  -24.0320   -8.7100   22.0360 C   0  0  0  0  0  3  0  0  0  0  0  0
  -22.9270   -8.4390   21.1940 C   0  0  0  0  0  0  0  0  0  0  0  0
  -22.5900   -9.3620   20.1880 C   0  0  0  0  0  3  0  0  0  0  0  0
  -23.3230  -10.5500   20.0310 C   0  0  0  0  0  3  0  0  0  0  0  0
  -22.1740   -7.2910   21.2540 O   0  0  0  0  0  0  0  0  0  0  0  0
  -21.9370   -6.6480   22.4430 C   0  0  0  0  0  0  0  0  0  0  0  0
  -21.2530   -7.2770   23.5060 C   0  0  0  0  0  3  0  0  0  0  0  0
  -20.9680   -6.5570   24.6840 C   0  0  0  0  0  3  0  0  0  0  0  0
  -21.3560   -5.2090   24.7970 C   0  0  0  0  0  0  0  0  0  0  0  0
  -22.0320   -4.5790   23.7370 C   0  0  0  0  0  3  0  0  0  0  0  0
  -22.3180   -5.2970   22.5620 C   0  0  0  0  0  0  0  0  0  0  0  0
  -22.9510   -4.6780   21.5360 F   0  0  0  0  0  0  0  0  0  0  0  0
  -21.0750   -4.5150   25.9250 F   0  0  0  0  0  0  0  0  0  0  0  0
  -23.2900  -13.9340   21.0620 C   0  0  0  0  0  0  0  0  0  0  0  0
  -22.5680  -13.2310   21.9260 N   0  0  0  0  0  0  0  0  0  0  0  0
  -22.8520  -14.9680   20.5580 O   0  0  0  0  0  0  0  0  0  0  0  0
  -22.9370  -12.3950   22.3550 H   0  0  0  0  0  0  0  0  0  0  0  0
  -21.6350  -13.5340   22.1660 H   0  0  0  0  0  0  0  0  0  0  0  0
  -25.9260  -15.6040   20.2660 N   0  0  0  0  0  0  0  0  0  0  0  0
  -25.1760  -16.2700   20.4120 H   0  0  0  0  0  0  0  0  0  0  0  0
  -26.7940  -16.0390   19.9780 H   0  0  0  0  0  0  0  0  0  0  0  0
  -29.4380  -23.9480   19.7640 C   0  0  0  0  0  3  0  0  0  0  0  0
  -28.2700  -25.1010   19.7140 C   0  0  0  0  0  3  0  0  0  0  0  0
  -28.5070  -26.6050   19.7880 O   0  0  0  0  0  0  0  0  0  0  0  0
  -24.6960  -31.8090   23.2320 C   0  0  0  0  0  0  0  0  0  0  0  0
  -27.3930  -27.4950   19.8170 C   0  0  0  0  0  0  0  0  0  0  0  0
  -23.5240  -30.5200   21.4890 C   0  0  0  0  0  3  0  0  0  0  0  0
  -25.0030  -29.1140   19.9410 C   0  0  0  0  0  0  0  0  0  0  0  0
  -26.0630  -30.8840   21.3360 C   0  0  0  0  0  2  0  0  0  0  0  0
  -26.1700  -29.5590   20.5750 C   0  0  0  0  0  0  0  0  0  0  0  0
  -27.3660  -28.7640   20.5000 C   0  0  0  0  0  3  0  0  0  0  0  0
  -26.1940  -27.1330   19.1590 C   0  0  0  0  0  3  0  0  0  0  0  0
  -25.0220  -27.9100   19.2250 C   0  0  0  0  0  3  0  0  0  0  0  0
  -23.7520  -29.9640   20.0600 C   0  0  0  0  0  2  0  0  0  0  0  0
  -24.7800  -31.0860   22.0760 N   0  0  0  0  0  0  0  0  0  0  0  0
  -23.6070  -32.0200   23.7860 O   0  0  0  0  0  0  0  0  0  0  0  0
  -22.8790  -29.4150   22.3640 C   0  0  0  0  0  0  0  0  0  0  0  0
  -21.5590  -29.2080   22.2100 N   0  0  0  0  0  0  0  0  0  0  0  0
  -23.5670  -28.7510   23.1440 O   0  0  0  0  0  0  0  0  0  0  0  0
  -21.0600  -29.7990   21.5600 H   0  0  0  0  0  0  0  0  0  0  0  0
  -18.2140  -27.8800   22.6030 C   0  0  0  0  0  0  0  0  0  0  0  0
  -20.7640  -28.1910   22.9010 C   0  0  0  0  0  3  0  0  0  0  0  0
  -20.9070  -26.8120   22.2190 C   0  0  0  0  0  2  0  0  0  0  0  0
  -19.8180  -26.5380   21.1770 C   0  0  0  0  0  2  0  0  0  0  0  0
  -18.4320  -26.5920   21.8250 C   0  0  0  0  0  2  0  0  0  0  0  0
  -19.3100  -28.6390   23.0950 C   0  0  0  0  0  0  0  0  0  0  0  0
  -19.0530  -29.8430   23.7840 C   0  0  0  0  0  3  0  0  0  0  0  0
  -17.7340  -30.2920   23.9840 C   0  0  0  0  0  3  0  0  0  0  0  0
  -16.6530  -29.5300   23.5060 C   0  0  0  0  0  3  0  0  0  0  0  0
  -16.8940  -28.3250   22.8230 C   0  0  0  0  0  3  0  0  0  0  0  0
  -25.9610  -32.4230   23.9040 C   0  0  0  0  0  3  0  0  0  0  0  0
  -25.6540  -33.8180   24.2480 N   0  0  0  0  0  0  0  0  0  0  0  0
  -25.9430  -34.8750   23.4760 C   0  0  0  0  0  0  0  0  0  0  0  0
  -26.5650  -34.7780   22.4150 O   0  0  0  0  0  0  0  0  0  0  0  0
  -25.0940  -33.9690   25.0750 H   0  0  0  0  0  0  0  0  0  0  0  0
  -24.1630  -36.6380   23.2350 C   0  0  0  0  0  1  0  0  0  0  0  0
  -25.4670  -36.2600   23.9580 C   0  0  0  0  0  3  0  0  0  0  0  0
  -27.6330  -37.1910   24.6390 C   0  0  0  0  0  1  0  0  0  0  0  0
  -26.4710  -37.3300   23.7650 N   0  0  0  0  0  0  0  0  0  0  0  0
  -26.0590  -38.2450   23.9300 H   0  0  0  0  0  0  0  0  0  0  0  0
  -26.4300  -31.6280   25.1850 C   0  0  1  0  0  0  0  0  0  0  0  0
  -25.3000  -31.3840   26.2140 C   0  0  0  0  0  1  0  0  0  0  0  0
  -27.0150  -30.2510   24.7950 C   0  0  0  0  0  1  0  0  0  0  0  0
  -27.5670  -32.4020   25.8930 C   0  0  0  0  0  1  0  0  0  0  0  0
  1 49  1  0
  1  2  1  0
  2  3  1  0
  2  4  2  0
  6  5  1  0
  6  1  1  0
  6 11  1  0
  7 10  1  0
  7  8  1  0
  8 12  2  0
  9 11  1  0
  9  7  1  0
 11  8  1  0
 13 10  1  0
 14 19  1  0
 15 16  1  0
 15 14  1  0
 17 16  1  0
 17 24  1  0
 17 18  1  0
 19 13  1  0
 19 18  1  0
 20 13  2  0
 21 22  2  0
 22 41  1  0
 23 22  1  0
 23 26  1  0
 24 25  1  0
 24 21  1  0
 25 23  2  0
 26 27  1  0
 27 28  2  0
 29 32  1  0
 29 28  1  0
 30 29  2  0
 31 30  1  0
 31 26  2  0
 32 33  1  0
 33 38  2  0
 33 34  1  0
 34 35  2  0
 35 36  1  0
 36 40  1  0
 37 36  2  0
 38 37  1  0
 39 38  1  0
 41 42  1  0
 42 45  1  0
 42 44  1  0
 43 41  2  0
 46 47  1  0
 46 21  1  0
 48 46  1  0
 50 49  2  0
 50 51  1  0
 51 53  1  0
 52 63  2  0
 53 58  1  0
 54 62  1  0
 54 64  1  0
 55 61  1  0
 55 57  1  0
 56 62  1  0
 57 56  1  0
 58 57  2  0
 59 60  1  0
 59 53  2  0
 60 55  2  0
 61 54  1  0
 62 52  1  0
 64 66  2  0
 65 64  1  0
 67 65  1  0
 68 77  2  0
 68 73  1  0
 69 65  1  0
 69 73  1  0
 70 69  1  0
 71 72  1  0
 71 70  1  0
 72 68  1  0
 73 74  2  0
 74 75  1  0
 76 75  2  0
 77 76  1  0
 78 52  1  0
 78 79  1  0
 78 88  1  0
 79 82  1  0
 80 84  1  0
 80 79  1  0
 81 80  2  0
 84 83  1  0
 86 87  1  0
 86 84  1  0
 86 85  1  0
 88 91  1  1
 88 89  1  0
 90 88  1  0
M  ISO  4  10 100  13 100  50 101  51 101
M  END
>  <TORSDO>  (63) 
F 21

>  <SCORE>  (63) 
-11.694

>  <name>  (63) 
63

>  <ligand_id>  (63) 
63

>  <original_smiles>  (63) 
[H]c1c([H])c([H])c2c(c1[H])C([H])([H])C([H])([H])C([H])([H])C2([H])N([H])C(=O)C1([H])N(C(=O)C([H])(N([H])C(=O)C([H])(N([H])C([H])([H])[H])C([H])([H])[H])C(C([H])([H])[H])(C([H])([H])[H])C([H])([H])[H])C([H])([H])c2c([H])c(OC([H])([H])C([H])([H])C([H])(C(=O)C([H])([H])[H])C([H])(N3C(=O)C(=NC(=O)N4C([H])([H])C([H])([H])C([H])([H])C([H])(n5nc(-c6c([H])c([H])c(Oc7c([H])c([H])c(F)c([H])c7F)c([H])c6[H])c(C(=O)N([H])[H])c5N([H])[H])C4([H])[H])C3([H])[H])C([H])([H])[H])c([H])c([H])c2C1([H])[H]

>  <smiles>  (63) 
[H]c1c([H])c([H])c2c(c1[H])C([H])([H])C([H])([H])C([H])([H])C2([H])N([H])C(=O)C1([H])N(C(=O)C([H])(N([H])C(=O)C([H])(N([H])C([H])([H])[H])C([H])([H])[H])C(C([H])([H])[H])(C([H])([H])[H])C([H])([H])[H])C([H])([H])c2c([H])c(OC([H])([H])C([H])([H])C([H])(C(=O)C([H])([H])[H])C([H])(N3C(=O)C(=NC(=O)N4C([H])([H])C([H])([H])C([H])([H])C([H])(n5nc(-c6c([H])c([H])c(Oc7c([H])c([H])c(F)c([H])c7F)c([H])c6[H])c(C(=O)N([H])[H])c5N([H])[H])C4([H])[H])C3([H])[H])C([H])([H])[H])c([H])c([H])c2C1([H])[H]

$$$$
64:0:0
     RDKit          3D

 93102  0  0  1  0  0  0  0  0999 V2000
  -30.6550  -23.3270   18.4140 C   0  0  0  0  0  3  0  0  0  0  0  0
  -30.8260  -22.1220   19.1260 C   0  0  0  0  0  3  0  0  0  0  0  0
  -29.9420  -24.3970   18.9880 C   0  0  0  0  0  3  0  0  0  0  0  0
  -29.5700  -23.0500   20.9850 C   0  0  0  0  0  3  0  0  0  0  0  0
  -30.2860  -21.9650   20.4240 C   0  0  0  0  0  0  0  0  0  0  0  0
  -29.3970  -24.2660   20.2810 C   0  0  0  0  0  0  0  0  0  0  0  0
  -31.8600  -20.0320   21.2380 C   0  0  0  0  0  2  0  0  0  0  0  0
  -30.4960  -20.6970   21.2240 C   0  0  0  0  0  3  0  0  0  0  0  0
  -30.6880  -19.3240   20.5990 C   0  0  0  0  0  3  0  0  0  0  0  0
  -28.6530  -17.8780   20.7280 C   0  0  0  0  0  1  0  0  0  0  0  0
  -30.2240  -17.8680   22.6720 C   0  0  0  0  0  1  0  0  0  0  0  0
  -30.1340  -17.9890   21.1330 C   0  0  2  0  0  0  0  0  0  0  0  0
  -30.9680  -16.8610   20.4750 C   0  0  0  0  0  2  0  0  0  0  0  0
  -31.0810  -14.4360   20.1250 C   0  0  0  0  0  0  0  0  0  0  0  0
  -30.6530  -12.3140   18.9590 C   0  0  0  0  0  2  0  0  0  0  0  0
  -29.6790  -12.5770   17.7930 C   0  0  0  0  0  2  0  0  0  0  0  0
  -28.2170  -12.4850   18.2750 C   0  0  0  0  0  2  0  0  0  0  0  0
  -27.9530  -13.2970   19.5720 C   0  0  0  0  0  3  0  0  0  0  0  0
  -29.0460  -13.0330   20.6330 C   0  0  0  0  0  2  0  0  0  0  0  0
  -30.3560  -13.2930   20.0150 N   0  0  0  0  0  0  0  0  0  0  0  0
  -32.1930  -14.5750   19.6100 O   0  0  0  0  0  0  0  0  0  0  0  0
  -30.4520  -15.4970   20.6550 N   0  0  0  0  0  0  0  0  0  0  0  0
  -29.5270  -15.3720   21.0380 H   0  0  0  0  0  0  0  0  0  0  0  0
  -25.5910  -13.9280   20.3790 C   0  0  0  0  0  0  0  0  0  0  0  0
  -24.5290  -13.1660   20.7890 C   0  0  0  0  0  0  0  0  0  0  0  0
  -24.9730  -11.8090   20.7340 C   0  0  0  0  0  0  0  0  0  0  0  0
  -26.6160  -13.0360   20.1020 N   0  0  0  0  0  0  0  0  0  0  0  0
  -26.2500  -11.7570   20.3740 N   0  0  0  0  0  0  0  0  0  0  0  0
  -24.2400  -10.5540   20.9460 C   0  0  0  0  0  0  0  0  0  0  0  0
  -24.6420   -9.6210   21.9260 C   0  0  0  0  0  3  0  0  0  0  0  0
  -23.9090   -8.4300   22.1230 C   0  0  0  0  0  3  0  0  0  0  0  0
  -22.7600   -8.1650   21.3400 C   0  0  0  0  0  0  0  0  0  0  0  0
  -22.3790   -9.0880   20.3500 C   0  0  0  0  0  3  0  0  0  0  0  0
  -23.1120  -10.2680   20.1510 C   0  0  0  0  0  3  0  0  0  0  0  0
  -22.0020   -7.0240   21.4430 O   0  0  0  0  0  0  0  0  0  0  0  0
  -21.8370   -6.3750   22.6420 C   0  0  0  0  0  0  0  0  0  0  0  0
  -21.2830   -7.0210   23.7690 C   0  0  0  0  0  3  0  0  0  0  0  0
  -21.0660   -6.2990   24.9590 C   0  0  0  0  0  3  0  0  0  0  0  0
  -21.3940   -4.9320   25.0240 C   0  0  0  0  0  0  0  0  0  0  0  0
  -21.9420   -4.2850   23.9010 C   0  0  0  0  0  3  0  0  0  0  0  0
  -22.1600   -5.0050   22.7130 C   0  0  0  0  0  0  0  0  0  0  0  0
  -22.6680   -4.3720   21.6280 F   0  0  0  0  0  0  0  0  0  0  0  0
  -21.1800   -4.2350   26.1640 F   0  0  0  0  0  0  0  0  0  0  0  0
  -23.1490  -13.6580   21.1180 C   0  0  0  0  0  0  0  0  0  0  0  0
  -22.4490  -12.9710   22.0150 N   0  0  0  0  0  0  0  0  0  0  0  0
  -22.6990  -14.6870   20.6120 O   0  0  0  0  0  0  0  0  0  0  0  0
  -22.8230  -12.1370   22.4430 H   0  0  0  0  0  0  0  0  0  0  0  0
  -21.5240  -13.2810   22.2730 H   0  0  0  0  0  0  0  0  0  0  0  0
  -25.7620  -15.2960   20.1980 N   0  0  0  0  0  0  0  0  0  0  0  0
  -25.0090  -15.9590   20.3480 H   0  0  0  0  0  0  0  0  0  0  0  0
  -26.5950  -15.7240   19.8140 H   0  0  0  0  0  0  0  0  0  0  0  0
  -28.6080  -25.3970   20.9310 C   0  0  0  0  0  2  0  0  0  0  0  0
  -28.7190  -26.6660   20.2690 O   0  0  0  0  0  0  0  0  0  0  0  0
  -24.6860  -31.7360   23.2220 C   0  0  0  0  0  0  0  0  0  0  0  0
  -27.5450  -27.3790   20.2350 C   0  0  0  0  0  0  0  0  0  0  0  0
  -23.5710  -30.3050   21.5410 C   0  0  0  0  0  3  0  0  0  0  0  0
  -25.1110  -28.8100   20.1640 C   0  0  0  0  0  0  0  0  0  0  0  0
  -26.0910  -30.7370   21.4220 C   0  0  0  0  0  2  0  0  0  0  0  0
  -26.2350  -29.3690   20.7870 C   0  0  0  0  0  0  0  0  0  0  0  0
  -27.4590  -28.6620   20.8170 C   0  0  0  0  0  3  0  0  0  0  0  0
  -26.4080  -26.8310   19.6030 C   0  0  0  0  0  3  0  0  0  0  0  0
  -25.1910  -27.5370   19.5700 C   0  0  0  0  0  3  0  0  0  0  0  0
  -23.8420  -29.6330   20.1690 C   0  0  0  0  0  2  0  0  0  0  0  0
  -24.7990  -30.9420   22.1210 N   0  0  0  0  0  0  0  0  0  0  0  0
  -23.5820  -31.9750   23.7310 O   0  0  0  0  0  0  0  0  0  0  0  0
  -22.9200  -29.2640   22.4800 C   0  0  0  0  0  0  0  0  0  0  0  0
  -21.6060  -29.0410   22.3060 N   0  0  0  0  0  0  0  0  0  0  0  0
  -23.5930  -28.6580   23.3170 O   0  0  0  0  0  0  0  0  0  0  0  0
  -21.1250  -29.5790   21.6000 H   0  0  0  0  0  0  0  0  0  0  0  0
  -18.2590  -27.7290   22.6670 C   0  0  0  0  0  0  0  0  0  0  0  0
  -20.7920  -28.0810   23.0510 C   0  0  0  0  0  3  0  0  0  0  0  0
  -20.9730  -26.6510   22.4940 C   0  0  0  0  0  2  0  0  0  0  0  0
  -19.9300  -26.2820   21.4330 C   0  0  0  0  0  2  0  0  0  0  0  0
  -18.5150  -26.3820   22.0120 C   0  0  0  0  0  2  0  0  0  0  0  0
  -19.3300  -28.5340   23.1400 C   0  0  0  0  0  0  0  0  0  0  0  0
  -19.0390  -29.7940   23.7070 C   0  0  0  0  0  3  0  0  0  0  0  0
  -17.7120  -30.2500   23.8080 C   0  0  0  0  0  3  0  0  0  0  0  0
  -16.6560  -29.4420   23.3520 C   0  0  0  0  0  3  0  0  0  0  0  0
  -16.9290  -28.1840   22.7870 C   0  0  0  0  0  3  0  0  0  0  0  0
  -25.9350  -32.4000   23.8830 C   0  0  0  0  0  3  0  0  0  0  0  0
  -26.4340  -31.6420   25.1740 C   0  0  1  0  0  0  0  0  0  0  0  0
  -25.3150  -31.3720   26.2070 C   0  0  0  0  0  1  0  0  0  0  0  0
  -27.0670  -30.2830   24.7960 C   0  0  0  0  0  1  0  0  0  0  0  0
  -27.5390  -32.4680   25.8740 C   0  0  0  0  0  1  0  0  0  0  0  0
  -25.5820  -33.7890   24.2020 N   0  0  0  0  0  0  0  0  0  0  0  0
  -25.9000  -34.8480   23.4450 C   0  0  0  0  0  0  0  0  0  0  0  0
  -26.5940  -34.7600   22.4280 O   0  0  0  0  0  0  0  0  0  0  0  0
  -24.9710  -33.9320   24.9930 H   0  0  0  0  0  0  0  0  0  0  0  0
  -24.1210  -36.5780   23.0490 C   0  0  0  0  0  1  0  0  0  0  0  0
  -25.3610  -36.2220   23.8840 C   0  0  0  0  0  3  0  0  0  0  0  0
  -27.4510  -37.1800   24.7450 C   0  0  0  0  0  1  0  0  0  0  0  0
  -26.3620  -37.3060   23.7800 N   0  0  0  0  0  0  0  0  0  0  0  0
  -25.9230  -38.2140   23.9130 H   0  0  0  0  0  0  0  0  0  0  0  0
  1  3  2  0
  1  2  1  0
  2  5  2  0
  3  6  1  0
  5  4  1  0
  6 52  1  0
  6  4  2  0
  8  5  1  0
  8  7  1  0
  9 12  1  0
  9  8  1  0
  9  7  1  0
 12 10  1  1
 12 11  1  0
 13 22  1  0
 13 12  1  0
 14 22  1  0
 15 20  1  0
 16 17  1  0
 16 15  1  0
 18 17  1  0
 18 27  1  0
 18 19  1  0
 20 14  1  0
 20 19  1  0
 21 14  2  0
 22 23  1  0
 24 25  2  0
 25 44  1  0
 26 25  1  0
 26 29  1  0
 27 28  1  0
 27 24  1  0
 28 26  2  0
 29 30  1  0
 30 31  2  0
 32 35  1  0
 32 31  1  0
 33 32  2  0
 34 33  1  0
 34 29  2  0
 35 36  1  0
 36 41  2  0
 36 37  1  0
 37 38  2  0
 38 39  1  0
 39 43  1  0
 40 39  2  0
 41 40  1  0
 42 41  1  0
 44 45  1  0
 45 48  1  0
 45 47  1  0
 46 44  2  0
 49 50  1  0
 49 24  1  0
 51 49  1  0
 53 52  1  0
 54 65  2  0
 55 53  1  0
 55 60  1  0
 56 64  1  0
 56 66  1  0
 57 63  1  0
 57 59  1  0
 58 64  1  0
 59 60  2  0
 59 58  1  0
 61 55  2  0
 62 61  1  0
 62 57  2  0
 63 56  1  0
 64 54  1  0
 66 68  2  0
 67 66  1  0
 69 67  1  0
 70 79  2  0
 70 75  1  0
 71 67  1  0
 71 75  1  0
 72 71  1  0
 73 74  1  0
 73 72  1  0
 74 70  1  0
 75 76  2  0
 76 77  1  0
 78 77  2  0
 79 78  1  0
 80 54  1  0
 80 85  1  0
 80 81  1  0
 81 84  1  1
 81 82  1  0
 83 81  1  0
 85 88  1  0
 86 90  1  0
 86 85  1  0
 87 86  2  0
 90 89  1  0
 92 90  1  0
 92 93  1  0
 92 91  1  0
M  ISO  4  14 100  22 100  52 101  53 101
M  END
>  <TORSDO>  (64) 
F 20

>  <SCORE>  (64) 
-13.047

>  <name>  (64) 
64

>  <ligand_id>  (64) 
64

>  <original_smiles>  (64) 
[H]c1c([H])c([H])c2c(c1[H])C([H])([H])C([H])([H])C([H])([H])C2([H])N([H])C(=O)C1([H])N(C(=O)C([H])(N([H])C(=O)C([H])(N([H])C([H])([H])[H])C([H])([H])[H])C(C([H])([H])[H])(C([H])([H])[H])C([H])([H])[H])C([H])([H])c2c([H])c(OC([H])([H])c3c([H])c([H])c([H])c(C4([H])C([H])([H])C4([H])C(C([H])([H])[H])(C([H])([H])[H])C([H])([H])N([H])C(=O)N4C([H])([H])C([H])([H])C([H])([H])C([H])(n5nc(-c6c([H])c([H])c(Oc7c([H])c([H])c(F)c([H])c7F)c([H])c6[H])c(C(=O)N([H])[H])c5N([H])[H])C4([H])[H])c3[H])c([H])c([H])c2C1([H])[H]

>  <smiles>  (64) 
[H]c1c([H])c([H])c2c(c1[H])C([H])([H])C([H])([H])C([H])([H])C2([H])N([H])C(=O)C1([H])N(C(=O)C([H])(N([H])C(=O)C([H])(N([H])C([H])([H])[H])C([H])([H])[H])C(C([H])([H])[H])(C([H])([H])[H])C([H])([H])[H])C([H])([H])c2c([H])c(OC([H])([H])c3c([H])c([H])c([H])c(C4([H])C([H])([H])C4([H])C(C([H])([H])[H])(C([H])([H])[H])C([H])([H])N([H])C(=O)N4C([H])([H])C([H])([H])C([H])([H])C([H])(n5nc(-c6c([H])c([H])c(Oc7c([H])c([H])c(F)c([H])c7F)c([H])c6[H])c(C(=O)N([H])[H])c5N([H])[H])C4([H])[H])c3[H])c([H])c([H])c2C1([H])[H]

$$$$
65:0:0
     RDKit          3D

 94102  0  0  1  0  0  0  0  0999 V2000
  -28.7580  -22.9440   21.9210 C   0  0  0  0  0  0  0  0  0  0  0  0
  -29.2050  -21.5170   22.2070 C   0  0  0  0  0  2  0  0  0  0  0  0
  -28.7480  -21.8940   19.8550 C   0  0  0  0  0  2  0  0  0  0  0  0
  -28.8560  -20.7520   20.9150 C   0  0  0  0  0  3  0  0  0  0  0  0
  -28.5120  -23.1350   20.6170 N   0  0  0  0  0  0  0  0  0  0  0  0
  -28.6100  -23.7810   22.8130 O   0  0  0  0  0  0  0  0  0  0  0  0
  -29.8520  -19.5960   20.6150 C   0  0  0  0  0  0  0  0  0  0  0  0
  -31.0720  -19.8710   20.4060 N   0  0  0  0  0  0  0  0  0  0  0  0
  -31.2480  -20.8670   20.4640 H   0  0  0  0  0  0  0  0  0  0  0  0
  -29.3410  -18.1380   20.6110 C   0  0  0  0  0  0  0  0  0  0  0  0
  -28.1300  -17.7910   20.7550 N   0  0  0  0  0  0  0  0  0  0  0  0
  -27.5180  -18.5910   20.8700 H   0  0  0  0  0  0  0  0  0  0  0  0
  -30.4310  -17.0610   20.4250 C   0  0  0  0  0  2  0  0  0  0  0  0
  -30.7250  -14.5840   20.3280 C   0  0  0  0  0  0  0  0  0  0  0  0
  -30.4530  -12.3690   19.2930 C   0  0  0  0  0  2  0  0  0  0  0  0
  -29.5190  -12.5210   18.0740 C   0  0  0  0  0  2  0  0  0  0  0  0
  -28.0420  -12.4040   18.4980 C   0  0  0  0  0  2  0  0  0  0  0  0
  -27.6930  -13.2800   19.7300 C   0  0  0  0  0  3  0  0  0  0  0  0
  -28.7440  -13.1160   20.8500 C   0  0  0  0  0  2  0  0  0  0  0  0
  -30.0630  -13.3980   20.2680 N   0  0  0  0  0  0  0  0  0  0  0  0
  -31.8840  -14.7210   19.9310 O   0  0  0  0  0  0  0  0  0  0  0  0
  -29.9800  -15.6650   20.6310 N   0  0  0  0  0  0  0  0  0  0  0  0
  -29.0120  -15.5450   20.8920 H   0  0  0  0  0  0  0  0  0  0  0  0
  -25.3000  -13.8940   20.4440 C   0  0  0  0  0  0  0  0  0  0  0  0
  -24.2300  -13.1260   20.8160 C   0  0  0  0  0  0  0  0  0  0  0  0
  -24.6880  -11.7720   20.7880 C   0  0  0  0  0  0  0  0  0  0  0  0
  -26.3420  -13.0100   20.2150 N   0  0  0  0  0  0  0  0  0  0  0  0
  -25.9770  -11.7280   20.4780 N   0  0  0  0  0  0  0  0  0  0  0  0
  -23.9570  -10.5130   20.9800 C   0  0  0  0  0  0  0  0  0  0  0  0
  -24.3750   -9.5530   21.9270 C   0  0  0  0  0  3  0  0  0  0  0  0
  -23.6470   -8.3580   22.1060 C   0  0  0  0  0  3  0  0  0  0  0  0
  -22.4840   -8.1150   21.3350 C   0  0  0  0  0  0  0  0  0  0  0  0
  -22.0860   -9.0620   20.3760 C   0  0  0  0  0  3  0  0  0  0  0  0
  -22.8150  -10.2490   20.1960 C   0  0  0  0  0  3  0  0  0  0  0  0
  -21.7280   -6.9710   21.4240 O   0  0  0  0  0  0  0  0  0  0  0  0
  -21.6400   -6.2510   22.5890 C   0  0  0  0  0  0  0  0  0  0  0  0
  -21.1770   -6.8310   23.7890 C   0  0  0  0  0  3  0  0  0  0  0  0
  -21.0350   -6.0380   24.9460 C   0  0  0  0  0  3  0  0  0  0  0  0
  -21.3480   -4.6660   24.9020 C   0  0  0  0  0  0  0  0  0  0  0  0
  -21.8040   -4.0850   23.7060 C   0  0  0  0  0  3  0  0  0  0  0  0
  -21.9470   -4.8760   22.5520 C   0  0  0  0  0  0  0  0  0  0  0  0
  -22.3660   -4.3060   21.3960 F   0  0  0  0  0  0  0  0  0  0  0  0
  -21.2060   -3.9030   26.0110 F   0  0  0  0  0  0  0  0  0  0  0  0
  -22.8350  -13.6090   21.0930 C   0  0  0  0  0  0  0  0  0  0  0  0
  -22.1060  -12.9150   21.9580 N   0  0  0  0  0  0  0  0  0  0  0  0
  -22.3990  -14.6370   20.5750 O   0  0  0  0  0  0  0  0  0  0  0  0
  -22.4690  -12.0830   22.3990 H   0  0  0  0  0  0  0  0  0  0  0  0
  -21.1710  -13.2220   22.1820 H   0  0  0  0  0  0  0  0  0  0  0  0
  -25.4700  -15.2650   20.2670 N   0  0  0  0  0  0  0  0  0  0  0  0
  -24.7080  -15.9240   20.3830 H   0  0  0  0  0  0  0  0  0  0  0  0
  -26.3460  -15.7170   20.0320 H   0  0  0  0  0  0  0  0  0  0  0  0
  -27.7770  -24.3010   20.0690 C   0  0  0  0  0  2  0  0  0  0  0  0
  -28.6450  -25.4900   19.5510 C   0  0  0  0  0  2  0  0  0  0  0  0
  -28.4720  -26.7780   20.1820 O   0  0  0  0  0  0  0  0  0  0  0  0
  -24.6120  -31.9200   23.2210 C   0  0  0  0  0  0  0  0  0  0  0  0
  -27.2830  -27.4890   20.1150 C   0  0  0  0  0  0  0  0  0  0  0  0
  -23.4110  -30.5190   21.5730 C   0  0  0  0  0  3  0  0  0  0  0  0
  -24.8730  -28.9940   20.1310 C   0  0  0  0  0  0  0  0  0  0  0  0
  -25.9340  -30.8870   21.3740 C   0  0  0  0  0  2  0  0  0  0  0  0
  -26.0260  -29.5170   20.7290 C   0  0  0  0  0  0  0  0  0  0  0  0
  -27.2270  -28.7680   20.7240 C   0  0  0  0  0  3  0  0  0  0  0  0
  -26.1140  -26.9960   19.4880 C   0  0  0  0  0  3  0  0  0  0  0  0
  -24.9150  -27.7360   19.5060 C   0  0  0  0  0  3  0  0  0  0  0  0
  -23.6210  -29.8440   20.1880 C   0  0  0  0  0  2  0  0  0  0  0  0
  -24.6700  -31.1250   22.1140 N   0  0  0  0  0  0  0  0  0  0  0  0
  -23.5300  -32.1850   23.7640 O   0  0  0  0  0  0  0  0  0  0  0  0
  -22.7680  -29.4900   22.5320 C   0  0  0  0  0  0  0  0  0  0  0  0
  -21.4430  -29.3040   22.4090 N   0  0  0  0  0  0  0  0  0  0  0  0
  -23.4560  -28.8630   23.3410 O   0  0  0  0  0  0  0  0  0  0  0  0
  -20.9460  -29.8640   21.7290 H   0  0  0  0  0  0  0  0  0  0  0  0
  -18.0790  -28.0880   22.9180 C   0  0  0  0  0  0  0  0  0  0  0  0
  -20.6360  -28.3550   23.1780 C   0  0  0  0  0  3  0  0  0  0  0  0
  -20.7410  -26.9290   22.5890 C   0  0  0  0  0  2  0  0  0  0  0  0
  -19.6340  -26.6090   21.5790 C   0  0  0  0  0  2  0  0  0  0  0  0
  -18.2570  -26.7440   22.2320 C   0  0  0  0  0  2  0  0  0  0  0  0
  -19.1970  -28.8510   23.3480 C   0  0  0  0  0  0  0  0  0  0  0  0
  -18.9770  -30.1090   23.9500 C   0  0  0  0  0  3  0  0  0  0  0  0
  -17.6710  -30.6070   24.1240 C   0  0  0  0  0  3  0  0  0  0  0  0
  -16.5670  -29.8410   23.7100 C   0  0  0  0  0  3  0  0  0  0  0  0
  -16.7720  -28.5830   23.1150 C   0  0  0  0  0  3  0  0  0  0  0  0
  -25.8960  -32.5560   23.8400 C   0  0  0  0  0  3  0  0  0  0  0  0
  -25.5830  -33.9530   24.1710 N   0  0  0  0  0  0  0  0  0  0  0  0
  -25.9110  -35.0070   23.4130 C   0  0  0  0  0  0  0  0  0  0  0  0
  -26.5840  -34.9070   22.3840 O   0  0  0  0  0  0  0  0  0  0  0  0
  -24.9880  -34.1070   24.9730 H   0  0  0  0  0  0  0  0  0  0  0  0
  -24.1780  -36.7920   23.0560 C   0  0  0  0  0  1  0  0  0  0  0  0
  -25.4190  -36.3930   23.8700 C   0  0  0  0  0  3  0  0  0  0  0  0
  -27.5500  -37.2840   24.7050 C   0  0  0  0  0  1  0  0  0  0  0  0
  -26.4480  -37.4490   23.7610 N   0  0  0  0  0  0  0  0  0  0  0  0
  -26.0380  -38.3680   23.9100 H   0  0  0  0  0  0  0  0  0  0  0  0
  -26.4220  -31.7850   25.1140 C   0  0  1  0  0  0  0  0  0  0  0  0
  -25.3330  -31.5380   26.1840 C   0  0  0  0  0  1  0  0  0  0  0  0
  -27.0110  -30.4110   24.7130 C   0  0  0  0  0  1  0  0  0  0  0  0
  -27.5700  -32.5840   25.7720 C   0  0  0  0  0  1  0  0  0  0  0  0
  1  2  1  0
  1  6  2  0
  3  5  1  0
  3  4  1  0
  4  7  1  0
  4  2  1  0
  5  1  1  0
  8  9  1  0
  8  7  2  0
 10  7  1  0
 10 11  2  0
 11 12  1  0
 13 10  1  0
 13 22  1  0
 14 22  1  0
 15 20  1  0
 16 17  1  0
 16 15  1  0
 18 17  1  0
 18 27  1  0
 18 19  1  0
 20 14  1  0
 20 19  1  0
 21 14  2  0
 22 23  1  0
 24 25  2  0
 25 44  1  0
 26 25  1  0
 26 29  1  0
 27 24  1  0
 27 28  1  0
 28 26  2  0
 29 30  1  0
 30 31  2  0
 32 35  1  0
 32 31  1  0
 33 32  2  0
 34 33  1  0
 34 29  2  0
 35 36  1  0
 36 37  1  0
 37 38  2  0
 39 38  1  0
 39 43  1  0
 40 39  2  0
 41 36  2  0
 41 40  1  0
 42 41  1  0
 44 45  1  0
 45 48  1  0
 45 47  1  0
 46 44  2  0
 49 50  1  0
 49 24  1  0
 51 49  1  0
 52  5  1  0
 53 52  1  0
 53 54  1  0
 55 66  2  0
 56 54  1  0
 56 61  1  0
 57 65  1  0
 57 67  1  0
 58 64  1  0
 58 60  1  0
 59 65  1  0
 60 59  1  0
 61 60  2  0
 62 63  1  0
 62 56  2  0
 63 58  2  0
 64 57  1  0
 65 55  1  0
 67 69  2  0
 68 67  1  0
 70 68  1  0
 71 80  2  0
 71 76  1  0
 72 68  1  0
 72 76  1  0
 73 72  1  0
 74 75  1  0
 74 73  1  0
 75 71  1  0
 76 77  2  0
 77 78  1  0
 79 78  2  0
 80 79  1  0
 81 55  1  0
 81 82  1  0
 81 91  1  0
 82 85  1  0
 83 87  1  0
 83 82  1  0
 84 83  2  0
 87 86  1  0
 89 87  1  0
 89 90  1  0
 89 88  1  0
 91 94  1  1
 91 92  1  0
 93 91  1  0
M  ISO  4  14 100  22 100  53 101  54 101
M  END
>  <TORSDO>  (65) 
F 21

>  <SCORE>  (65) 
-13.600

>  <name>  (65) 
65

>  <ligand_id>  (65) 
65

>  <original_smiles>  (65) 
[H]N=C(C(=N[H])C1([H])C([H])([H])C(=O)N(C([H])([H])C([H])([H])Oc2c([H])c([H])c3c(c2[H])C([H])([H])N(C(=O)C([H])(N([H])C(=O)C([H])(N([H])C([H])([H])[H])C([H])([H])[H])C(C([H])([H])[H])(C([H])([H])[H])C([H])([H])[H])C([H])(C(=O)N([H])C2([H])c4c([H])c([H])c([H])c([H])c4C([H])([H])C([H])([H])C2([H])[H])C3([H])[H])C1([H])[H])C([H])([H])N([H])C(=O)N1C([H])([H])C([H])([H])C([H])([H])C([H])(n2nc(-c3c([H])c([H])c(Oc4c([H])c([H])c(F)c([H])c4F)c([H])c3[H])c(C(=O)N([H])[H])c2N([H])[H])C1([H])[H]

>  <smiles>  (65) 
[H]N=C(C(=N[H])C1([H])C([H])([H])C(=O)N(C([H])([H])C([H])([H])Oc2c([H])c([H])c3c(c2[H])C([H])([H])N(C(=O)C([H])(N([H])C(=O)C([H])(N([H])C([H])([H])[H])C([H])([H])[H])C(C([H])([H])[H])(C([H])([H])[H])C([H])([H])[H])C([H])(C(=O)N([H])C2([H])c4c([H])c([H])c([H])c([H])c4C([H])([H])C([H])([H])C2([H])[H])C3([H])[H])C1([H])[H])C([H])([H])N([H])C(=O)N1C([H])([H])C([H])([H])C([H])([H])C([H])(n2nc(-c3c([H])c([H])c(Oc4c([H])c([H])c(F)c([H])c4F)c([H])c3[H])c(C(=O)N([H])[H])c2N([H])[H])C1([H])[H]

$$$$
66:0:0
     RDKit          3D

 98106  0  0  1  0  0  0  0  0999 V2000
  -31.0010  -20.3340   19.6940 C   0  0  0  0  0  3  0  0  0  0  0  0
  -29.2880  -20.3630   21.4220 C   0  0  0  0  0  3  0  0  0  0  0  0
  -31.3340  -19.0110   20.0500 C   0  0  0  0  0  3  0  0  0  0  0  0
  -29.6220  -19.0370   21.7770 C   0  0  0  0  0  3  0  0  0  0  0  0
  -29.9630  -21.0180   20.3650 C   0  0  0  0  0  0  0  0  0  0  0  0
  -30.6360  -18.3400   21.0780 C   0  0  0  0  0  0  0  0  0  0  0  0
  -29.5540  -22.4240   19.9240 C   0  0  0  0  0  2  0  0  0  0  0  0
  -30.4350  -23.5370   20.5330 C   0  0  0  0  0  2  0  0  0  0  0  0
  -30.2990  -25.1670   18.5650 C   0  0  0  0  0  1  0  0  0  0  0  0
  -31.2180  -25.8880   20.7810 C   0  0  0  0  0  1  0  0  0  0  0  0
  -30.1510  -25.0070   20.0920 C   0  0  2  0  0  0  0  0  0  0  0  0
  -28.7290  -25.4890   20.4980 C   0  0  0  0  0  2  0  0  0  0  0  0
  -28.6370  -26.8850   20.2070 O   0  0  0  0  0  0  0  0  0  0  0  0
  -24.6310  -31.9070   23.2190 C   0  0  0  0  0  0  0  0  0  0  0  0
  -27.4120  -27.5070   20.2270 C   0  0  0  0  0  0  0  0  0  0  0  0
  -23.4770  -30.4780   21.5600 C   0  0  0  0  0  3  0  0  0  0  0  0
  -24.9810  -28.9490   20.1800 C   0  0  0  0  0  0  0  0  0  0  0  0
  -25.9960  -30.8820   21.4060 C   0  0  0  0  0  2  0  0  0  0  0  0
  -26.1150  -29.5080   20.7810 C   0  0  0  0  0  0  0  0  0  0  0  0
  -27.3310  -28.7950   20.7960 C   0  0  0  0  0  3  0  0  0  0  0  0
  -26.2590  -26.9480   19.6310 C   0  0  0  0  0  3  0  0  0  0  0  0
  -25.0470  -27.6670   19.6040 C   0  0  0  0  0  3  0  0  0  0  0  0
  -23.7230  -29.7890   20.1910 C   0  0  0  0  0  2  0  0  0  0  0  0
  -24.7180  -31.1040   22.1210 N   0  0  0  0  0  0  0  0  0  0  0  0
  -23.5370  -32.1630   23.7400 O   0  0  0  0  0  0  0  0  0  0  0  0
  -22.8250  -29.4520   22.5140 C   0  0  0  0  0  0  0  0  0  0  0  0
  -21.5020  -29.2660   22.3770 N   0  0  0  0  0  0  0  0  0  0  0  0
  -23.5050  -28.8260   23.3310 O   0  0  0  0  0  0  0  0  0  0  0  0
  -21.0160  -29.8210   21.6870 H   0  0  0  0  0  0  0  0  0  0  0  0
  -18.1200  -28.1030   22.8820 C   0  0  0  0  0  0  0  0  0  0  0  0
  -20.6830  -28.3240   23.1370 C   0  0  0  0  0  3  0  0  0  0  0  0
  -20.7640  -26.9030   22.5330 C   0  0  0  0  0  2  0  0  0  0  0  0
  -19.6490  -26.6130   21.5230 C   0  0  0  0  0  2  0  0  0  0  0  0
  -18.2750  -26.7620   22.1810 C   0  0  0  0  0  2  0  0  0  0  0  0
  -19.2520  -28.8420   23.3170 C   0  0  0  0  0  0  0  0  0  0  0  0
  -19.0520  -30.0980   23.9310 C   0  0  0  0  0  3  0  0  0  0  0  0
  -17.7550  -30.6130   24.1140 C   0  0  0  0  0  3  0  0  0  0  0  0
  -16.6390  -29.8690   23.6970 C   0  0  0  0  0  3  0  0  0  0  0  0
  -16.8220  -28.6150   23.0860 C   0  0  0  0  0  3  0  0  0  0  0  0
  -25.8970  -32.5580   23.8600 C   0  0  0  0  0  3  0  0  0  0  0  0
  -25.5670  -33.9560   24.1680 N   0  0  0  0  0  0  0  0  0  0  0  0
  -25.9130  -35.0030   23.4080 C   0  0  0  0  0  0  0  0  0  0  0  0
  -26.6130  -34.8950   22.3970 O   0  0  0  0  0  0  0  0  0  0  0  0
  -24.9460  -34.1120   24.9490 H   0  0  0  0  0  0  0  0  0  0  0  0
  -24.1920  -36.7830   22.9670 C   0  0  0  0  0  1  0  0  0  0  0  0
  -25.3990  -36.3920   23.8340 C   0  0  0  0  0  3  0  0  0  0  0  0
  -27.4880  -37.2940   24.7550 C   0  0  0  0  0  1  0  0  0  0  0  0
  -26.4320  -37.4480   23.7590 N   0  0  0  0  0  0  0  0  0  0  0  0
  -26.0150  -38.3680   23.8800 H   0  0  0  0  0  0  0  0  0  0  0  0
  -26.3980  -31.8050   25.1540 C   0  0  1  0  0  0  0  0  0  0  0  0
  -25.2860  -31.5570   26.1990 C   0  0  0  0  0  1  0  0  0  0  0  0
  -27.0110  -30.4330   24.7830 C   0  0  0  0  0  1  0  0  0  0  0  0
  -27.5220  -32.6210   25.8340 C   0  0  0  0  0  1  0  0  0  0  0  0
  -30.9680  -16.8830   21.4110 C   0  0  0  0  0  2  0  0  0  0  0  0
  -30.0410  -15.8270   20.7320 C   0  0  0  0  0  3  0  0  0  0  0  0
  -30.7630  -14.5480   20.1920 C   0  0  0  0  0  0  0  0  0  0  0  0
  -30.4130  -12.4090   19.0100 C   0  0  0  0  0  2  0  0  0  0  0  0
  -29.4260  -12.6700   17.8530 C   0  0  0  0  0  2  0  0  0  0  0  0
  -27.9680  -12.5350   18.3320 C   0  0  0  0  0  2  0  0  0  0  0  0
  -27.6960  -13.3210   19.6410 C   0  0  0  0  0  3  0  0  0  0  0  0
  -28.7960  -13.0450   20.6890 C   0  0  0  0  0  2  0  0  0  0  0  0
  -30.0960  -13.3650   20.0840 N   0  0  0  0  0  0  0  0  0  0  0  0
  -31.8860  -14.6900   19.6920 O   0  0  0  0  0  0  0  0  0  0  0  0
  -25.3440  -13.9330   20.4840 C   0  0  0  0  0  0  0  0  0  0  0  0
  -24.2900  -13.1630   20.8920 C   0  0  0  0  0  0  0  0  0  0  0  0
  -24.7320  -11.8080   20.7940 C   0  0  0  0  0  0  0  0  0  0  0  0
  -26.3640  -13.0490   20.1720 N   0  0  0  0  0  0  0  0  0  0  0  0
  -26.0020  -11.7640   20.4130 N   0  0  0  0  0  0  0  0  0  0  0  0
  -24.0000  -10.5510   20.9830 C   0  0  0  0  0  0  0  0  0  0  0  0
  -24.4470   -9.5690   21.8940 C   0  0  0  0  0  3  0  0  0  0  0  0
  -23.7200   -8.3730   22.0710 C   0  0  0  0  0  3  0  0  0  0  0  0
  -22.5300   -8.1500   21.3380 C   0  0  0  0  0  0  0  0  0  0  0  0
  -22.1010   -9.1200   20.4150 C   0  0  0  0  0  3  0  0  0  0  0  0
  -22.8280  -10.3100   20.2360 C   0  0  0  0  0  3  0  0  0  0  0  0
  -21.7720   -7.0070   21.4270 O   0  0  0  0  0  0  0  0  0  0  0  0
  -21.7180   -6.2670   22.5800 C   0  0  0  0  0  0  0  0  0  0  0  0
  -21.2600   -6.8130   23.7980 C   0  0  0  0  0  3  0  0  0  0  0  0
  -21.1580   -5.9990   24.9410 C   0  0  0  0  0  3  0  0  0  0  0  0
  -21.5010   -4.6360   24.8670 C   0  0  0  0  0  0  0  0  0  0  0  0
  -21.9490   -4.0870   23.6520 C   0  0  0  0  0  3  0  0  0  0  0  0
  -22.0570   -4.9010   22.5130 C   0  0  0  0  0  0  0  0  0  0  0  0
  -22.4720   -4.3630   21.3410 F   0  0  0  0  0  0  0  0  0  0  0  0
  -21.3940   -3.8490   25.9620 F   0  0  0  0  0  0  0  0  0  0  0  0
  -22.9140  -13.6480   21.2450 C   0  0  0  0  0  0  0  0  0  0  0  0
  -22.2200  -12.9300   22.1210 N   0  0  0  0  0  0  0  0  0  0  0  0
  -22.4630  -14.6930   20.7780 O   0  0  0  0  0  0  0  0  0  0  0  0
  -22.5910  -12.0790   22.5140 H   0  0  0  0  0  0  0  0  0  0  0  0
  -21.2980  -13.2350   22.3980 H   0  0  0  0  0  0  0  0  0  0  0  0
  -25.5050  -15.3020   20.3230 N   0  0  0  0  0  0  0  0  0  0  0  0
  -24.6980  -15.9180   20.3730 H   0  0  0  0  0  0  0  0  0  0  0  0
  -26.2240  -15.6450   19.7010 H   0  0  0  0  0  0  0  0  0  0  0  0
  -29.2600  -16.5070   19.6140 C   0  0  0  0  0  0  0  0  0  0  0  0
  -29.7820  -16.6730   18.3820 N   0  0  0  0  0  4  0  0  0  0  0  0
  -28.0350  -17.0070   19.8640 N   0  0  0  0  0  0  0  0  0  0  0  0
  -29.3090  -17.1610   17.6360 H   0  0  0  0  0  0  0  0  0  0  0  0
  -30.7260  -16.3730   18.1720 H   0  0  0  0  0  0  0  0  0  0  0  0
  -27.6460  -16.9760   20.8010 H   0  0  0  0  0  0  0  0  0  0  0  0
  -27.5520  -17.6050   19.2070 H   0  0  0  0  0  0  0  0  0  0  0  0
  1  3  2  0
  1  5  1  0
  2  4  1  0
  3  6  1  0
  5  2  2  0
  6 54  1  0
  6  4  2  0
  7  5  1  0
  7  8  1  0
 11  9  1  6
 11 12  1  0
 11  8  1  0
 11 10  1  0
 13 15  1  0
 13 12  1  0
 14 25  2  0
 15 20  1  0
 16 24  1  0
 16 26  1  0
 17 23  1  0
 17 19  1  0
 18 24  1  0
 19 20  2  0
 19 18  1  0
 21 15  2  0
 22 21  1  0
 22 17  2  0
 23 16  1  0
 24 14  1  0
 26 28  2  0
 27 26  1  0
 29 27  1  0
 30 39  2  0
 30 35  1  0
 31 27  1  0
 31 35  1  0
 32 31  1  0
 33 34  1  0
 33 32  1  0
 34 30  1  0
 35 36  2  0
 36 37  1  0
 38 37  2  0
 39 38  1  0
 40 14  1  0
 40 41  1  0
 40 50  1  0
 41 44  1  0
 42 46  1  0
 42 41  1  0
 43 42  2  0
 46 45  1  0
 48 46  1  0
 48 49  1  0
 48 47  1  0
 50 53  1  1
 50 51  1  0
 52 50  1  0
 55 54  1  0
 56 55  1  0
 57 62  1  0
 58 59  1  0
 58 57  1  0
 60 59  1  0
 60 67  1  0
 60 61  1  0
 62 56  1  0
 62 61  1  0
 63 56  2  0
 64 65  2  0
 65 84  1  0
 66 65  1  0
 66 69  1  0
 67 68  1  0
 67 64  1  0
 68 66  2  0
 69 70  1  0
 70 71  2  0
 72 75  1  0
 72 71  1  0
 73 72  2  0
 74 73  1  0
 74 69  2  0
 75 76  1  0
 76 77  1  0
 77 78  2  0
 79 78  1  0
 79 83  1  0
 80 79  2  0
 81 76  2  0
 81 80  1  0
 82 81  1  0
 84 85  1  0
 85 88  1  0
 85 87  1  0
 86 84  2  0
 89 90  1  0
 89 64  1  0
 91 89  1  0
 92 94  1  0
 92 55  1  0
 93 92  2  0
 94 97  1  0
 95 93  1  0
 96 93  1  0
 98 94  1  0
M  ISO  4  12 101  13 101  55 100  56 100
M  END
>  <TORSDO>  (66) 
F 23

>  <SCORE>  (66) 
-12.446

>  <name>  (66) 
66

>  <ligand_id>  (66) 
66

>  <original_smiles>  (66) 
[H]c1c([H])c([H])c2c(c1[H])C([H])([H])C([H])([H])C([H])([H])C2([H])N([H])C(=O)C1([H])N(C(=O)C([H])(N([H])C(=O)C([H])(N([H])C([H])([H])[H])C([H])([H])[H])C(C([H])([H])[H])(C([H])([H])[H])C([H])([H])[H])C([H])([H])c2c([H])c(OC([H])([H])C(C([H])([H])[H])(C([H])([H])[H])C([H])([H])C([H])([H])c3c([H])c([H])c(C([H])([H])C([H])(C(=O)N4C([H])([H])C([H])([H])C([H])([H])C([H])(n5nc(-c6c([H])c([H])c(Oc7c([H])c([H])c(F)c([H])c7F)c([H])c6[H])c(C(=O)N([H])[H])c5N([H])[H])C4([H])[H])C(N([H])[H])=[N+]([H])[H])c([H])c3[H])c([H])c([H])c2C1([H])[H]

>  <smiles>  (66) 
[H]c1c([H])c([H])c2c(c1[H])C([H])([H])C([H])([H])C([H])([H])C2([H])N([H])C(=O)C1([H])N(C(=O)C([H])(N([H])C(=O)C([H])(N([H])C([H])([H])[H])C([H])([H])[H])C(C([H])([H])[H])(C([H])([H])[H])C([H])([H])[H])C([H])([H])c2c([H])c(OC([H])([H])C(C([H])([H])[H])(C([H])([H])[H])C([H])([H])C([H])([H])c3c([H])c([H])c(C([H])([H])C([H])(C(=O)N4C([H])([H])C([H])([H])C([H])([H])C([H])(n5nc(-c6c([H])c([H])c(Oc7c([H])c([H])c(F)c([H])c7F)c([H])c6[H])c(C(=O)N([H])[H])c5N([H])[H])C4([H])[H])C(N([H])[H])=[N+]([H])[H])c([H])c3[H])c([H])c([H])c2C1([H])[H]

$$$$
67:0:0
     RDKit          3D

 92100  0  0  1  0  0  0  0  0999 V2000
  -28.9740  -21.8240   19.8680 C   0  0  0  0  0  0  0  0  0  0  0  0
  -27.8260  -21.4460   20.1160 O   0  0  0  0  0  0  0  0  0  0  0  0
  -29.2630  -23.4800   19.8340 C   0  0  0  0  0  2  0  0  0  0  0  0
  -27.0000  -24.3480   20.6900 C   0  0  0  0  0  1  0  0  0  0  0  0
  -27.6260  -24.5140   18.1800 C   0  0  0  0  0  1  0  0  0  0  0  0
  -28.0940  -24.7170   19.6450 C   0  0  2  0  0  0  0  0  0  0  0  0
  -28.3380  -26.2840   19.8020 O   0  0  0  0  0  0  0  0  0  0  0  0
  -24.6730  -31.7960   23.1330 C   0  0  0  0  0  0  0  0  0  0  0  0
  -27.2930  -27.3060   19.7760 C   0  0  0  0  0  0  0  0  0  0  0  0
  -23.4880  -30.4850   21.4280 C   0  0  0  0  0  3  0  0  0  0  0  0
  -24.9480  -29.0500   19.8850 C   0  0  0  0  0  0  0  0  0  0  0  0
  -26.0420  -30.7930   21.2680 C   0  0  0  0  0  2  0  0  0  0  0  0
  -26.1300  -29.4520   20.5200 C   0  0  0  0  0  0  0  0  0  0  0  0
  -27.3040  -28.5990   20.4520 C   0  0  0  0  0  3  0  0  0  0  0  0
  -26.0850  -27.0500   19.0890 C   0  0  0  0  0  3  0  0  0  0  0  0
  -24.9410  -27.8610   19.1520 C   0  0  0  0  0  3  0  0  0  0  0  0
  -23.7070  -29.9150   20.0050 C   0  0  0  0  0  2  0  0  0  0  0  0
  -24.7550  -31.0440   21.9960 N   0  0  0  0  0  0  0  0  0  0  0  0
  -23.5850  -32.0300   23.6840 O   0  0  0  0  0  0  0  0  0  0  0  0
  -22.8350  -29.4020   22.3230 C   0  0  0  0  0  0  0  0  0  0  0  0
  -21.5170  -29.1860   22.1680 N   0  0  0  0  0  0  0  0  0  0  0  0
  -23.5220  -28.7660   23.1260 O   0  0  0  0  0  0  0  0  0  0  0  0
  -21.0190  -29.7540   21.4950 H   0  0  0  0  0  0  0  0  0  0  0  0
  -18.1780  -27.8390   22.5620 C   0  0  0  0  0  0  0  0  0  0  0  0
  -20.7230  -28.1790   22.8770 C   0  0  0  0  0  3  0  0  0  0  0  0
  -20.8840  -26.7830   22.2300 C   0  0  0  0  0  2  0  0  0  0  0  0
  -19.8070  -26.4720   21.1880 C   0  0  0  0  0  2  0  0  0  0  0  0
  -18.4140  -26.5340   21.8210 C   0  0  0  0  0  2  0  0  0  0  0  0
  -19.2630  -28.6190   23.0440 C   0  0  0  0  0  0  0  0  0  0  0  0
  -18.9870  -29.8420   23.6940 C   0  0  0  0  0  3  0  0  0  0  0  0
  -17.6620  -30.2840   23.8710 C   0  0  0  0  0  3  0  0  0  0  0  0
  -16.5930  -29.4980   23.4080 C   0  0  0  0  0  3  0  0  0  0  0  0
  -16.8520  -28.2770   22.7590 C   0  0  0  0  0  3  0  0  0  0  0  0
  -25.9430  -32.4190   23.7830 C   0  0  0  0  0  3  0  0  0  0  0  0
  -26.4640  -31.5980   25.0260 C   0  0  1  0  0  0  0  0  0  0  0  0
  -25.3700  -31.2850   26.0730 C   0  0  0  0  0  1  0  0  0  0  0  0
  -27.0800  -30.2530   24.5830 C   0  0  0  0  0  1  0  0  0  0  0  0
  -27.5930  -32.3830   25.7310 C   0  0  0  0  0  1  0  0  0  0  0  0
  -25.6130  -33.7970   24.1830 N   0  0  0  0  0  0  0  0  0  0  0  0
  -25.8730  -34.8880   23.4500 C   0  0  0  0  0  0  0  0  0  0  0  0
  -26.4790  -34.8440   22.3790 O   0  0  0  0  0  0  0  0  0  0  0  0
  -25.0640  -33.9060   25.0250 H   0  0  0  0  0  0  0  0  0  0  0  0
  -24.0540  -36.6210   23.3030 C   0  0  0  0  0  1  0  0  0  0  0  0
  -25.3780  -36.2460   23.9870 C   0  0  0  0  0  3  0  0  0  0  0  0
  -27.5390  -37.1990   24.6590 C   0  0  0  0  0  1  0  0  0  0  0  0
  -26.3570  -37.3420   23.8140 N   0  0  0  0  0  0  0  0  0  0  0  0
  -25.9290  -38.2420   24.0170 H   0  0  0  0  0  0  0  0  0  0  0  0
  -30.0690  -20.6100   19.5880 C   0  0  0  0  0  2  0  0  0  0  0  0
  -31.0770  -15.2820   19.7360 C   0  0  0  0  0  0  0  0  0  0  0  0
  -30.8980  -12.8950   18.8540 C   0  0  0  0  0  2  0  0  0  0  0  0
  -29.8440  -12.7340   17.7340 C   0  0  0  0  0  2  0  0  0  0  0  0
  -28.4560  -12.4650   18.3380 C   0  0  0  0  0  2  0  0  0  0  0  0
  -28.1340  -13.4270   19.5140 C   0  0  0  0  0  3  0  0  0  0  0  0
  -29.3010  -13.5550   20.5170 C   0  0  0  0  0  2  0  0  0  0  0  0
  -30.4800  -14.0120   19.7620 N   0  0  0  0  0  0  0  0  0  0  0  0
  -32.1890  -15.3320   19.1970 O   0  0  0  0  0  0  0  0  0  0  0  0
  -29.5440  -18.5980   21.1990 C   0  0  0  0  0  2  0  0  0  0  0  0
  -30.5440  -17.8830   19.2850 C   0  0  0  0  0  2  0  0  0  0  0  0
  -29.7560  -17.0130   21.2680 C   0  0  0  0  0  3  0  0  0  0  0  0
  -30.3820  -16.5200   19.9980 N   0  0  0  0  0  0  0  0  0  0  0  0
  -29.6930  -19.0700   19.8050 N   0  0  2  0  0  4  0  0  0  0  0  0
  -28.7850  -18.9670   19.3740 H   0  0  0  0  0  0  0  0  0  0  0  0
  -25.9510  -13.9450   20.7390 C   0  0  0  0  0  0  0  0  0  0  0  0
  -24.9120  -13.1560   21.1440 C   0  0  0  0  0  0  0  0  0  0  0  0
  -25.2690  -11.8170   20.7920 C   0  0  0  0  0  0  0  0  0  0  0  0
  -26.8780  -13.0890   20.1710 N   0  0  0  0  0  0  0  0  0  0  0  0
  -26.4880  -11.7900   20.2630 N   0  0  0  0  0  0  0  0  0  0  0  0
  -24.4980  -10.5710   20.8800 C   0  0  0  0  0  0  0  0  0  0  0  0
  -24.8050   -9.5770   21.8360 C   0  0  0  0  0  3  0  0  0  0  0  0
  -24.0340   -8.3960   21.9140 C   0  0  0  0  0  3  0  0  0  0  0  0
  -22.9420   -8.2000   21.0360 C   0  0  0  0  0  0  0  0  0  0  0  0
  -22.6550   -9.1820   20.0710 C   0  0  0  0  0  3  0  0  0  0  0  0
  -23.4260  -10.3540   19.9910 C   0  0  0  0  0  3  0  0  0  0  0  0
  -22.1570   -7.0720   21.0220 O   0  0  0  0  0  0  0  0  0  0  0  0
  -21.6930   -6.5020   22.1810 C   0  0  0  0  0  0  0  0  0  0  0  0
  -20.9420   -7.2350   23.1250 C   0  0  0  0  0  3  0  0  0  0  0  0
  -20.4260   -6.5910   24.2680 C   0  0  0  0  0  3  0  0  0  0  0  0
  -20.6530   -5.2170   24.4630 C   0  0  0  0  0  0  0  0  0  0  0  0
  -21.3970   -4.4830   23.5220 C   0  0  0  0  0  3  0  0  0  0  0  0
  -21.9130   -5.1230   22.3820 C   0  0  0  0  0  0  0  0  0  0  0  0
  -22.6100   -4.4080   21.4670 F   0  0  0  0  0  0  0  0  0  0  0  0
  -20.1530   -4.5960   25.5570 F   0  0  0  0  0  0  0  0  0  0  0  0
  -23.6110  -13.6250   21.7330 C   0  0  0  0  0  0  0  0  0  0  0  0
  -23.0150  -12.8340   22.6140 N   0  0  0  0  0  0  0  0  0  0  0  0
  -23.1470  -14.7290   21.4470 O   0  0  0  0  0  0  0  0  0  0  0  0
  -23.4090  -11.9420   22.8720 H   0  0  0  0  0  0  0  0  0  0  0  0
  -22.1480  -13.1270   23.0440 H   0  0  0  0  0  0  0  0  0  0  0  0
  -26.1770  -15.3180   20.7760 N   0  0  0  0  0  0  0  0  0  0  0  0
  -25.4780  -15.9660   21.1200 H   0  0  0  0  0  0  0  0  0  0  0  0
  -26.9710  -15.7780   20.3520 H   0  0  0  0  0  0  0  0  0  0  0  0
  -30.1190  -17.3530   23.8260 C   0  0  0  0  0  1  0  0  0  0  0  0
  -30.5560  -16.6190   22.5470 C   0  0  0  0  0  2  0  0  0  0  0  0
  1  2  2  0
  3  1  1  0
  6  5  1  6
  6  7  1  0
  6  3  1  0
  6  4  1  0
  8 19  2  0
  9  7  1  0
  9 14  1  0
 10 18  1  0
 10 20  1  0
 11 17  1  0
 11 13  1  0
 12 18  1  0
 13 12  1  0
 14 13  2  0
 15 16  1  0
 15  9  2  0
 16 11  2  0
 17 10  1  0
 18  8  1  0
 20 22  2  0
 21 20  1  0
 23 21  1  0
 24 33  2  0
 24 29  1  0
 25 21  1  0
 25 29  1  0
 26 25  1  0
 27 28  1  0
 27 26  1  0
 28 24  1  0
 29 30  2  0
 30 31  1  0
 32 31  2  0
 33 32  1  0
 34  8  1  0
 34 39  1  0
 34 35  1  0
 35 38  1  1
 35 36  1  0
 37 35  1  0
 39 42  1  0
 40 44  1  0
 40 39  1  0
 41 40  2  0
 44 43  1  0
 46 44  1  0
 46 47  1  0
 46 45  1  0
 48 61  1  0
 48  1  1  0
 49 55  1  0
 49 60  1  0
 50 55  1  0
 51 52  1  0
 51 50  1  0
 53 52  1  0
 53 66  1  0
 53 54  1  0
 55 54  1  0
 56 49  2  0
 57 59  1  0
 58 61  1  0
 58 60  1  0
 59 92  1  0
 60 59  1  0
 61 57  1  0
 61 62  1  6
 63 88  1  0
 63 64  2  0
 64 83  1  0
 65 68  1  0
 65 64  1  0
 66 67  1  0
 66 63  1  0
 67 65  2  0
 68 69  1  0
 69 70  2  0
 71 70  1  0
 72 71  2  0
 73 72  1  0
 73 68  2  0
 74 71  1  0
 74 75  1  0
 75 80  2  0
 75 76  1  0
 76 77  2  0
 77 78  1  0
 78 82  1  0
 79 78  2  0
 80 79  1  0
 81 80  1  0
 83 84  1  0
 84 86  1  0
 84 87  1  0
 85 83  2  0
 88 89  1  0
 90 88  1  0
 92 91  1  0
M  ISO  4   6 101   7 101  49 100  60 100
M  END
>  <TORSDO>  (67) 
F 20

>  <SCORE>  (67) 
-10.104

>  <name>  (67) 
67

>  <ligand_id>  (67) 
67

>  <original_smiles>  (67) 
[H]c1c([H])c([H])c2c(c1[H])C([H])([H])C([H])([H])C([H])([H])C2([H])N([H])C(=O)C1([H])N(C(=O)C([H])(N([H])C(=O)C([H])(N([H])C([H])([H])[H])C([H])([H])[H])C(C([H])([H])[H])(C([H])([H])[H])C([H])([H])[H])C([H])([H])c2c([H])c(OC(C([H])([H])[H])(C([H])([H])[H])C([H])([H])C(=O)C([H])([H])[N+]3([H])C([H])([H])N(C(=O)N4C([H])([H])C([H])([H])C([H])([H])C([H])(n5nc(-c6c([H])c([H])c(Oc7c([H])c([H])c(F)c([H])c7F)c([H])c6[H])c(C(=O)N([H])[H])c5N([H])[H])C4([H])[H])C([H])(C([H])([H])C([H])([H])[H])C3([H])[H])c([H])c([H])c2C1([H])[H]

>  <smiles>  (67) 
[H]c1c([H])c([H])c2c(c1[H])C([H])([H])C([H])([H])C([H])([H])C2([H])N([H])C(=O)C1([H])N(C(=O)C([H])(N([H])C(=O)C([H])(N([H])C([H])([H])[H])C([H])([H])[H])C(C([H])([H])[H])(C([H])([H])[H])C([H])([H])[H])C([H])([H])c2c([H])c(OC(C([H])([H])[H])(C([H])([H])[H])C([H])([H])C(=O)C([H])([H])[N+]3([H])C([H])([H])N(C(=O)N4C([H])([H])C([H])([H])C([H])([H])C([H])(n5nc(-c6c([H])c([H])c(Oc7c([H])c([H])c(F)c([H])c7F)c([H])c6[H])c(C(=O)N([H])[H])c5N([H])[H])C4([H])[H])C([H])(C([H])([H])C([H])([H])[H])C3([H])[H])c([H])c([H])c2C1([H])[H]

$$$$
68:0:0
     RDKit          3D

 95103  0  0  1  0  0  0  0  0999 V2000
  -29.5220  -21.9580   20.3730 C   0  0  0  0  0  2  0  0  0  0  0  0
  -27.7080  -18.9520   19.9660 C   0  0  0  0  0  0  0  0  0  0  0  0
  -27.5390  -20.4840   19.9890 C   0  0  0  0  0  2  0  0  0  0  0  0
  -29.1750  -19.0930   20.3930 C   0  0  0  0  0  3  0  0  0  0  0  0
  -28.9990  -20.5830   19.8100 N   0  0  0  0  0  0  0  0  0  0  0  0
  -26.9760  -17.9910   19.7160 O   0  0  0  0  0  0  0  0  0  0  0  0
  -30.5540  -15.0890   19.9370 C   0  0  0  0  0  0  0  0  0  0  0  0
  -30.4290  -12.6950   19.1080 C   0  0  0  0  0  2  0  0  0  0  0  0
  -29.4460  -12.5850   17.9180 C   0  0  0  0  0  2  0  0  0  0  0  0
  -28.0080  -12.3630   18.4240 C   0  0  0  0  0  2  0  0  0  0  0  0
  -27.6310  -13.3270   19.5790 C   0  0  0  0  0  3  0  0  0  0  0  0
  -28.7340  -13.4060   20.6580 C   0  0  0  0  0  2  0  0  0  0  0  0
  -29.9750  -13.8170   19.9860 N   0  0  0  0  0  0  0  0  0  0  0  0
  -31.7160  -15.1690   19.5090 O   0  0  0  0  0  0  0  0  0  0  0  0
  -29.9940  -17.7800   19.8410 C   0  0  0  0  0  0  0  0  0  0  0  0
  -29.7580  -16.3980   20.1890 N   0  0  0  0  0  0  0  0  0  0  0  0
  -31.0120  -18.1170   19.0280 N   0  0  0  0  0  4  0  0  0  0  0  0
  -28.8600  -16.3160   20.6360 H   0  0  0  0  0  0  0  0  0  0  0  0
  -31.6730  -17.4390   18.6780 H   0  0  0  0  0  0  0  0  0  0  0  0
  -31.1510  -19.0900   18.7930 H   0  0  0  0  0  0  0  0  0  0  0  0
  -25.2980  -13.8840   20.4720 C   0  0  0  0  0  0  0  0  0  0  0  0
  -24.2540  -13.1020   20.8760 C   0  0  0  0  0  0  0  0  0  0  0  0
  -24.7120  -11.7520   20.7770 C   0  0  0  0  0  0  0  0  0  0  0  0
  -26.3240  -13.0150   20.1450 N   0  0  0  0  0  0  0  0  0  0  0  0
  -25.9840  -11.7230   20.3950 N   0  0  0  0  0  0  0  0  0  0  0  0
  -23.9910  -10.4870   20.9710 C   0  0  0  0  0  0  0  0  0  0  0  0
  -24.4370   -9.5140   21.8920 C   0  0  0  0  0  3  0  0  0  0  0  0
  -23.7130   -8.3180   22.0750 C   0  0  0  0  0  3  0  0  0  0  0  0
  -22.5280   -8.0850   21.3370 C   0  0  0  0  0  0  0  0  0  0  0  0
  -22.1010   -9.0460   20.4050 C   0  0  0  0  0  3  0  0  0  0  0  0
  -22.8260  -10.2350   20.2200 C   0  0  0  0  0  3  0  0  0  0  0  0
  -21.7750   -6.9390   21.4300 O   0  0  0  0  0  0  0  0  0  0  0  0
  -21.6990   -6.2200   22.5960 C   0  0  0  0  0  0  0  0  0  0  0  0
  -21.1960   -6.7850   23.7880 C   0  0  0  0  0  3  0  0  0  0  0  0
  -21.0700   -5.9900   24.9460 C   0  0  0  0  0  3  0  0  0  0  0  0
  -21.4380   -4.6320   24.9110 C   0  0  0  0  0  0  0  0  0  0  0  0
  -21.9350   -4.0670   23.7240 C   0  0  0  0  0  3  0  0  0  0  0  0
  -22.0630   -4.8580   22.5690 C   0  0  0  0  0  0  0  0  0  0  0  0
  -22.5210   -4.3040   21.4220 F   0  0  0  0  0  0  0  0  0  0  0  0
  -21.3110   -3.8660   26.0200 F   0  0  0  0  0  0  0  0  0  0  0  0
  -22.8790  -13.5760   21.2430 C   0  0  0  0  0  0  0  0  0  0  0  0
  -22.2070  -12.8660   22.1420 N   0  0  0  0  0  0  0  0  0  0  0  0
  -22.4140  -14.6120   20.7710 O   0  0  0  0  0  0  0  0  0  0  0  0
  -22.6010  -12.0280   22.5440 H   0  0  0  0  0  0  0  0  0  0  0  0
  -21.2870  -13.1630   22.4330 H   0  0  0  0  0  0  0  0  0  0  0  0
  -25.4430  -15.2600   20.3360 N   0  0  0  0  0  0  0  0  0  0  0  0
  -24.6870  -15.8900   20.5770 H   0  0  0  0  0  0  0  0  0  0  0  0
  -26.2790  -15.7670   20.0660 H   0  0  0  0  0  0  0  0  0  0  0  0
  -28.7770  -23.4750   20.7090 C   0  0  0  0  0  3  0  0  0  0  0  0
  -27.5700  -23.3300   21.5510 N   0  0  0  0  0  4  0  0  0  0  0  0
  -26.7770  -23.0440   21.0050 H   0  0  0  0  0  0  0  0  0  0  0  0
  -27.3470  -24.2140   21.9780 H   0  0  0  0  0  0  0  0  0  0  0  0
  -27.7190  -22.6710   22.2960 H   0  0  0  0  0  0  0  0  0  0  0  0
  -28.6430  -24.9000   19.8160 C   0  0  0  0  0  2  0  0  0  0  0  0
  -28.5200  -26.3560   20.3820 O   0  0  0  0  0  0  0  0  0  0  0  0
  -24.6340  -31.8850   23.2720 C   0  0  0  0  0  0  0  0  0  0  0  0
  -27.4190  -27.2820   20.2530 C   0  0  0  0  0  0  0  0  0  0  0  0
  -23.5200  -30.4930   21.5680 C   0  0  0  0  0  3  0  0  0  0  0  0
  -25.0490  -28.9740   20.1650 C   0  0  0  0  0  0  0  0  0  0  0  0
  -26.0700  -30.8170   21.4930 C   0  0  0  0  0  2  0  0  0  0  0  0
  -26.1950  -29.4380   20.8230 C   0  0  0  0  0  0  0  0  0  0  0  0
  -27.3750  -28.6070   20.8520 C   0  0  0  0  0  3  0  0  0  0  0  0
  -26.2450  -26.9180   19.5550 C   0  0  0  0  0  3  0  0  0  0  0  0
  -25.0880  -27.7290   19.5170 C   0  0  0  0  0  3  0  0  0  0  0  0
  -23.8010  -29.8430   20.1860 C   0  0  0  0  0  2  0  0  0  0  0  0
  -24.7590  -31.0860   22.1670 N   0  0  0  0  0  0  0  0  0  0  0  0
  -23.5260  -32.1380   23.7680 O   0  0  0  0  0  0  0  0  0  0  0  0
  -22.8310  -29.4570   22.4910 C   0  0  0  0  0  0  0  0  0  0  0  0
  -21.5120  -29.2620   22.3160 N   0  0  0  0  0  0  0  0  0  0  0  0
  -23.4890  -28.8320   23.3280 O   0  0  0  0  0  0  0  0  0  0  0  0
  -21.0390  -29.8190   21.6200 H   0  0  0  0  0  0  0  0  0  0  0  0
  -18.1420  -27.9880   22.6850 C   0  0  0  0  0  0  0  0  0  0  0  0
  -20.6850  -28.2920   23.0410 C   0  0  0  0  0  3  0  0  0  0  0  0
  -20.8350  -26.8750   22.4420 C   0  0  0  0  0  2  0  0  0  0  0  0
  -19.7720  -26.5500   21.3870 C   0  0  0  0  0  2  0  0  0  0  0  0
  -18.3670  -26.6570   21.9890 C   0  0  0  0  0  2  0  0  0  0  0  0
  -19.2310  -28.7630   23.1650 C   0  0  0  0  0  0  0  0  0  0  0  0
  -18.9670  -30.0080   23.7760 C   0  0  0  0  0  3  0  0  0  0  0  0
  -17.6470  -30.4790   23.9110 C   0  0  0  0  0  3  0  0  0  0  0  0
  -16.5730  -29.7000   23.4470 C   0  0  0  0  0  3  0  0  0  0  0  0
  -16.8210  -28.4560   22.8400 C   0  0  0  0  0  3  0  0  0  0  0  0
  -25.8780  -32.5350   23.9530 C   0  0  0  0  0  3  0  0  0  0  0  0
  -26.3200  -31.7900   25.2730 C   0  0  1  0  0  0  0  0  0  0  0  0
  -25.1660  -31.5680   26.2790 C   0  0  0  0  0  1  0  0  0  0  0  0
  -26.9310  -30.4080   24.9480 C   0  0  0  0  0  1  0  0  0  0  0  0
  -27.4260  -32.6030   25.9870 C   0  0  0  0  0  1  0  0  0  0  0  0
  -25.5480  -33.9390   24.2430 N   0  0  0  0  0  0  0  0  0  0  0  0
  -25.8960  -34.9810   23.4750 C   0  0  0  0  0  0  0  0  0  0  0  0
  -26.5930  -34.8600   22.4640 O   0  0  0  0  0  0  0  0  0  0  0  0
  -24.9290  -34.1050   25.0230 H   0  0  0  0  0  0  0  0  0  0  0  0
  -24.1590  -36.7530   23.0540 C   0  0  0  0  0  1  0  0  0  0  0  0
  -25.3910  -36.3760   23.8920 C   0  0  0  0  0  3  0  0  0  0  0  0
  -27.4960  -37.3110   24.7430 C   0  0  0  0  0  1  0  0  0  0  0  0
  -26.4160  -37.4350   23.7680 N   0  0  0  0  0  0  0  0  0  0  0  0
  -25.9980  -38.3560   23.8740 H   0  0  0  0  0  0  0  0  0  0  0  0
  1 49  1  0
  2  3  1  0
  2  4  1  0
  4 15  1  0
  5  3  1  0
  5  1  1  0
  5  4  1  0
  6  2  2  0
  7 13  1  0
  7 16  1  0
  8 13  1  0
  9 10  1  0
  9  8  1  0
 11 10  1  0
 11 24  1  0
 11 12  1  0
 13 12  1  0
 14  7  2  0
 15 16  1  0
 16 18  1  0
 17 15  2  0
 19 17  1  0
 20 17  1  0
 21 22  2  0
 22 41  1  0
 23 22  1  0
 23 26  1  0
 24 25  1  0
 24 21  1  0
 25 23  2  0
 26 27  1  0
 27 28  2  0
 29 32  1  0
 29 28  1  0
 30 29  2  0
 31 30  1  0
 31 26  2  0
 32 33  1  0
 33 34  1  0
 34 35  2  0
 36 35  1  0
 36 40  1  0
 37 36  2  0
 38 33  2  0
 38 37  1  0
 39 38  1  0
 41 42  1  0
 42 45  1  0
 42 44  1  0
 43 41  2  0
 46 21  1  0
 46 47  1  0
 48 46  1  0
 49 54  1  0
 49 50  1  0
 50 52  1  0
 50 53  1  0
 51 50  1  0
 54 55  1  0
 56 67  2  0
 57 55  1  0
 57 62  1  0
 58 66  1  0
 58 68  1  0
 59 65  1  0
 59 61  1  0
 60 66  1  0
 61 62  2  0
 61 60  1  0
 63 57  2  0
 64 63  1  0
 64 59  2  0
 65 58  1  0
 66 56  1  0
 68 70  2  0
 69 68  1  0
 71 69  1  0
 72 81  2  0
 72 77  1  0
 73 69  1  0
 73 77  1  0
 74 73  1  0
 75 76  1  0
 75 74  1  0
 76 72  1  0
 77 78  2  0
 78 79  1  0
 80 79  2  0
 81 80  1  0
 82 56  1  0
 82 87  1  0
 82 83  1  0
 83 86  1  1
 83 84  1  0
 85 83  1  0
 87 90  1  0
 88 92  1  0
 88 87  1  0
 89 88  2  0
 92 91  1  0
 94 95  1  0
 94 92  1  0
 94 93  1  0
M  ISO  4   7 100  16 100  54 101  55 101
M  END
>  <TORSDO>  (68) 
F 20

>  <SCORE>  (68) 
-14.600

>  <name>  (68) 
68

>  <ligand_id>  (68) 
68

>  <original_smiles>  (68) 
[H]c1c([H])c([H])c2c(c1[H])C([H])([H])C([H])([H])C([H])([H])C2([H])N([H])C(=O)C1([H])N(C(=O)C([H])(N([H])C(=O)C([H])(N([H])C([H])([H])[H])C([H])([H])[H])C(C([H])([H])[H])(C([H])([H])[H])C([H])([H])[H])C([H])([H])c2c([H])c(OC([H])([H])C([H])(C([H])([H])N3C([H])([H])C(=O)C3([H])C(N([H])C(=O)N3C([H])([H])C([H])([H])C([H])([H])C([H])(n4nc(-c5c([H])c([H])c(Oc6c([H])c([H])c(F)c([H])c6F)c([H])c5[H])c(C(=O)N([H])[H])c4N([H])[H])C3([H])[H])=[N+]([H])[H])[N+]([H])([H])[H])c([H])c([H])c2C1([H])[H]

>  <smiles>  (68) 
[H]c1c([H])c([H])c2c(c1[H])C([H])([H])C([H])([H])C([H])([H])C2([H])N([H])C(=O)C1([H])N(C(=O)C([H])(N([H])C(=O)C([H])(N([H])C([H])([H])[H])C([H])([H])[H])C(C([H])([H])[H])(C([H])([H])[H])C([H])([H])[H])C([H])([H])c2c([H])c(OC([H])([H])C([H])(C([H])([H])N3C([H])([H])C(=O)C3([H])C(N([H])C(=O)N3C([H])([H])C([H])([H])C([H])([H])C([H])(n4nc(-c5c([H])c([H])c(Oc6c([H])c([H])c(F)c([H])c6F)c([H])c5[H])c(C(=O)N([H])[H])c4N([H])[H])C3([H])[H])=[N+]([H])[H])[N+]([H])([H])[H])c([H])c([H])c2C1([H])[H]

$$$$
69:0:0
     RDKit          3D

 94102  0  0  1  0  0  0  0  0999 V2000
  -28.0580  -21.8020   21.5520 C   0  0  0  0  0  0  0  0  0  0  0  0
  -27.6360  -23.2270   21.2380 C   0  0  0  0  0  2  0  0  0  0  0  0
  -29.3640  -22.0280   20.7760 C   0  0  0  0  0  3  0  0  0  0  0  0
  -28.7090  -23.2730   20.2190 N   0  0  2  0  0  4  0  0  0  0  0  0
  -27.5500  -20.8570   22.1680 O   0  0  0  0  0  0  0  0  0  0  0  0
  -28.2850  -23.0440   19.3320 H   0  0  0  0  0  0  0  0  0  0  0  0
  -29.6890  -20.8530   19.7830 C   0  0  0  0  0  2  0  0  0  0  0  0
  -30.4500  -18.4100   20.1010 C   0  0  0  0  0  0  0  0  0  0  0  0
  -29.6450  -19.4690   20.3530 N   0  0  0  0  0  0  0  0  0  0  0  0
  -31.5170  -18.5280   19.4980 O   0  0  0  0  0  0  0  0  0  0  0  0
  -28.8200  -19.2520   20.8980 H   0  0  0  0  0  0  0  0  0  0  0  0
  -29.9620  -16.9970   20.5370 C   0  0  0  0  0  2  0  0  0  0  0  0
  -31.4790  -15.0070   20.1630 C   0  0  0  0  0  0  0  0  0  0  0  0
  -31.1350  -12.7530   19.1950 C   0  0  0  0  0  2  0  0  0  0  0  0
  -30.2020  -12.8130   17.9710 C   0  0  0  0  0  2  0  0  0  0  0  0
  -28.7310  -12.6940   18.4130 C   0  0  0  0  0  2  0  0  0  0  0  0
  -28.3820  -13.6620   19.5730 C   0  0  0  0  0  3  0  0  0  0  0  0
  -29.4340  -13.6030   20.7040 C   0  0  0  0  0  2  0  0  0  0  0  0
  -30.7570  -13.8470   20.1120 N   0  0  0  0  0  0  0  0  0  0  0  0
  -32.5820  -15.1100   19.6260 O   0  0  0  0  0  0  0  0  0  0  0  0
  -31.0250  -16.0380   20.9060 N   0  0  0  0  0  0  0  0  0  0  0  0
  -31.8180  -16.5660   21.2420 H   0  0  0  0  0  0  0  0  0  0  0  0
  -26.0260  -14.3560   20.3310 C   0  0  0  0  0  0  0  0  0  0  0  0
  -24.9330  -13.6240   20.7100 C   0  0  0  0  0  0  0  0  0  0  0  0
  -25.3390  -12.2550   20.6600 C   0  0  0  0  0  0  0  0  0  0  0  0
  -27.0300  -13.4360   20.0740 N   0  0  0  0  0  0  0  0  0  0  0  0
  -26.6230  -12.1670   20.3330 N   0  0  0  0  0  0  0  0  0  0  0  0
  -24.5660  -11.0210   20.8490 C   0  0  0  0  0  0  0  0  0  0  0  0
  -24.9150  -10.0750   21.8380 C   0  0  0  0  0  3  0  0  0  0  0  0
  -24.1450   -8.9050   22.0130 C   0  0  0  0  0  3  0  0  0  0  0  0
  -23.0120   -8.6730   21.1960 C   0  0  0  0  0  0  0  0  0  0  0  0
  -22.6830   -9.6070   20.1980 C   0  0  0  0  0  3  0  0  0  0  0  0
  -23.4530  -10.7680   20.0230 C   0  0  0  0  0  3  0  0  0  0  0  0
  -22.2210   -7.5520   21.2770 O   0  0  0  0  0  0  0  0  0  0  0  0
  -22.0010   -6.9110   22.4690 C   0  0  0  0  0  0  0  0  0  0  0  0
  -21.3910   -7.5620   23.5640 C   0  0  0  0  0  3  0  0  0  0  0  0
  -21.1200   -6.8460   24.7460 C   0  0  0  0  0  3  0  0  0  0  0  0
  -21.4480   -5.4790   24.8340 C   0  0  0  0  0  0  0  0  0  0  0  0
  -22.0510   -4.8280   23.7440 C   0  0  0  0  0  3  0  0  0  0  0  0
  -22.3240   -5.5420   22.5630 C   0  0  0  0  0  0  0  0  0  0  0  0
  -22.8840   -4.9050   21.5070 F   0  0  0  0  0  0  0  0  0  0  0  0
  -21.1810   -4.7890   25.9680 F   0  0  0  0  0  0  0  0  0  0  0  0
  -23.5610  -14.1550   21.0050 C   0  0  0  0  0  0  0  0  0  0  0  0
  -22.8180  -13.4850   21.8800 N   0  0  0  0  0  0  0  0  0  0  0  0
  -23.1560  -15.1990   20.4960 O   0  0  0  0  0  0  0  0  0  0  0  0
  -23.1580  -12.6400   22.3140 H   0  0  0  0  0  0  0  0  0  0  0  0
  -21.8970  -13.8230   22.1190 H   0  0  0  0  0  0  0  0  0  0  0  0
  -26.2420  -15.7200   20.1600 N   0  0  0  0  0  0  0  0  0  0  0  0
  -25.4970  -16.3990   20.2700 H   0  0  0  0  0  0  0  0  0  0  0  0
  -27.0930  -16.1190   19.7860 H   0  0  0  0  0  0  0  0  0  0  0  0
  -29.4630  -24.5870   20.0990 C   0  0  0  0  0  2  0  0  0  0  0  0
  -29.2820  -26.3680   21.9500 C   0  0  0  0  0  1  0  0  0  0  0  0
  -28.7040  -25.8850   20.6070 C   0  0  0  0  0  3  0  0  0  0  0  0
  -28.7220  -27.0610   19.7400 O   0  0  0  0  0  0  0  0  0  0  0  0
  -24.5810  -31.8230   23.1340 C   0  0  0  0  0  0  0  0  0  0  0  0
  -27.5390  -27.7900   19.7590 C   0  0  0  0  0  0  0  0  0  0  0  0
  -23.4740  -30.4330   21.4140 C   0  0  0  0  0  3  0  0  0  0  0  0
  -25.0340  -29.1170   19.8760 C   0  0  0  0  0  0  0  0  0  0  0  0
  -25.9620  -31.0070   21.2200 C   0  0  0  0  0  2  0  0  0  0  0  0
  -26.1560  -29.6910   20.4890 C   0  0  0  0  0  0  0  0  0  0  0  0
  -27.4150  -29.0370   20.4240 C   0  0  0  0  0  3  0  0  0  0  0  0
  -26.4010  -27.2510   19.1230 C   0  0  0  0  0  3  0  0  0  0  0  0
  -25.1530  -27.8990   19.1850 C   0  0  0  0  0  3  0  0  0  0  0  0
  -23.7220  -29.8640   19.9920 C   0  0  0  0  0  2  0  0  0  0  0  0
  -24.6910  -31.1000   21.9820 N   0  0  0  0  0  0  0  0  0  0  0  0
  -23.4880  -31.9670   23.7000 O   0  0  0  0  0  0  0  0  0  0  0  0
  -22.9230  -29.3020   22.3130 C   0  0  0  0  0  0  0  0  0  0  0  0
  -21.6200  -29.0030   22.1710 N   0  0  0  0  0  0  0  0  0  0  0  0
  -23.6630  -28.6990   23.0950 O   0  0  0  0  0  0  0  0  0  0  0  0
  -21.0780  -29.5490   21.5160 H   0  0  0  0  0  0  0  0  0  0  0  0
  -18.3740  -27.4730   22.5990 C   0  0  0  0  0  0  0  0  0  0  0  0
  -20.8980  -27.9490   22.8850 C   0  0  0  0  0  3  0  0  0  0  0  0
  -21.1280  -26.5710   22.2220 C   0  0  0  0  0  2  0  0  0  0  0  0
  -20.0540  -26.2110   21.1910 C   0  0  0  0  0  2  0  0  0  0  0  0
  -18.6690  -26.1900   21.8440 C   0  0  0  0  0  2  0  0  0  0  0  0
  -19.4200  -28.3080   23.0760 C   0  0  0  0  0  0  0  0  0  0  0  0
  -19.0900  -29.5070   23.7430 C   0  0  0  0  0  3  0  0  0  0  0  0
  -17.7450  -29.8760   23.9390 C   0  0  0  0  0  3  0  0  0  0  0  0
  -16.7130  -29.0390   23.4780 C   0  0  0  0  0  3  0  0  0  0  0  0
  -17.0290  -27.8400   22.8150 C   0  0  0  0  0  3  0  0  0  0  0  0
  -25.8170  -32.5200   23.7820 C   0  0  0  0  0  3  0  0  0  0  0  0
  -25.4220  -33.8940   24.1240 N   0  0  0  0  0  0  0  0  0  0  0  0
  -25.7130  -34.9750   23.3860 C   0  0  0  0  0  0  0  0  0  0  0  0
  -26.4130  -34.9230   22.3710 O   0  0  0  0  0  0  0  0  0  0  0  0
  -24.7980  -34.0030   24.9110 H   0  0  0  0  0  0  0  0  0  0  0  0
  -23.8960  -36.6710   23.0120 C   0  0  0  0  0  1  0  0  0  0  0  0
  -25.1370  -36.3270   23.8500 C   0  0  0  0  0  3  0  0  0  0  0  0
  -27.1950  -37.3210   24.7500 C   0  0  0  0  0  1  0  0  0  0  0  0
  -26.1120  -37.4380   23.7750 N   0  0  0  0  0  0  0  0  0  0  0  0
  -25.6510  -38.3320   23.9190 H   0  0  0  0  0  0  0  0  0  0  0  0
  -26.3600  -31.7640   25.0560 C   0  0  1  0  0  0  0  0  0  0  0  0
  -25.2660  -31.4450   26.1030 C   0  0  0  0  0  1  0  0  0  0  0  0
  -27.0310  -30.4300   24.6540 C   0  0  0  0  0  1  0  0  0  0  0  0
  -27.4490  -32.6170   25.7480 C   0  0  0  0  0  1  0  0  0  0  0  0
  1  5  2  0
  2  1  1  0
  3  7  1  0
  3  1  1  0
  4  3  1  0
  4  2  1  0
  4  6  1  6
  7  9  1  0
  8  9  1  0
  8 12  1  0
  9 11  1  0
 10  8  2  0
 12 21  1  0
 13 21  1  0
 14 19  1  0
 15 16  1  0
 15 14  1  0
 17 16  1  0
 17 26  1  0
 17 18  1  0
 19 13  1  0
 19 18  1  0
 20 13  2  0
 21 22  1  0
 23 24  2  0
 24 43  1  0
 25 24  1  0
 25 28  1  0
 26 23  1  0
 26 27  1  0
 27 25  2  0
 28 29  1  0
 29 30  2  0
 31 34  1  0
 31 30  1  0
 32 31  2  0
 33 32  1  0
 33 28  2  0
 34 35  1  0
 35 40  2  0
 35 36  1  0
 36 37  2  0
 37 38  1  0
 38 42  1  0
 39 38  2  0
 40 39  1  0
 41 40  1  0
 43 44  1  0
 44 47  1  0
 44 46  1  0
 45 43  2  0
 48 49  1  0
 48 23  1  0
 50 48  1  0
 51  4  1  0
 51 53  1  0
 53 52  1  0
 54 56  1  0
 54 53  1  0
 55 66  2  0
 56 61  1  0
 57 65  1  0
 57 67  1  0
 58 64  1  0
 58 60  1  0
 59 65  1  0
 60 59  1  0
 61 60  2  0
 62 63  1  0
 62 56  2  0
 63 58  2  0
 64 57  1  0
 65 55  1  0
 67 69  2  0
 68 67  1  0
 70 68  1  0
 71 80  2  0
 71 76  1  0
 72 68  1  0
 72 76  1  0
 73 72  1  0
 74 75  1  0
 74 73  1  0
 75 71  1  0
 76 77  2  0
 77 78  1  0
 79 78  2  0
 80 79  1  0
 81 55  1  0
 81 82  1  0
 81 91  1  0
 82 85  1  0
 83 87  1  0
 83 82  1  0
 84 83  2  0
 87 86  1  0
 89 87  1  0
 89 90  1  0
 89 88  1  0
 91 94  1  1
 91 92  1  0
 93 91  1  0
M  ISO  4  13 100  21 100  53 101  54 101
M  END
>  <TORSDO>  (69) 
F 21

>  <SCORE>  (69) 
-10.570

>  <name>  (69) 
69

>  <ligand_id>  (69) 
69

>  <original_smiles>  (69) 
[H]c1c([H])c([H])c2c(c1[H])C([H])([H])C([H])([H])C([H])([H])C2([H])N([H])C(=O)C1([H])N(C(=O)C([H])(N([H])C(=O)C([H])(N([H])C([H])([H])[H])C([H])([H])[H])C(C([H])([H])[H])(C([H])([H])[H])C([H])([H])[H])C([H])([H])c2c([H])c(OC([H])(C([H])([H])[H])C([H])([H])[N+]3([H])C([H])([H])C(=O)C3([H])C([H])([H])N([H])C(=O)C([H])([H])N([H])C(=O)N3C([H])([H])C([H])([H])C([H])([H])C([H])(n4nc(-c5c([H])c([H])c(Oc6c([H])c([H])c(F)c([H])c6F)c([H])c5[H])c(C(=O)N([H])[H])c4N([H])[H])C3([H])[H])c([H])c([H])c2C1([H])[H]

>  <smiles>  (69) 
[H]c1c([H])c([H])c2c(c1[H])C([H])([H])C([H])([H])C([H])([H])C2([H])N([H])C(=O)C1([H])N(C(=O)C([H])(N([H])C(=O)C([H])(N([H])C([H])([H])[H])C([H])([H])[H])C(C([H])([H])[H])(C([H])([H])[H])C([H])([H])[H])C([H])([H])c2c([H])c(OC([H])(C([H])([H])[H])C([H])([H])[N+]3([H])C([H])([H])C(=O)C3([H])C([H])([H])N([H])C(=O)C([H])([H])N([H])C(=O)N3C([H])([H])C([H])([H])C([H])([H])C([H])(n4nc(-c5c([H])c([H])c(Oc6c([H])c([H])c(F)c([H])c6F)c([H])c5[H])c(C(=O)N([H])[H])c4N([H])[H])C3([H])[H])c([H])c([H])c2C1([H])[H]

$$$$
70:0:0
     RDKit          3D

 95103  0  0  1  0  0  0  0  0999 V2000
  -27.1030  -21.5970   21.3490 C   0  0  0  0  0  3  0  0  0  0  0  0
  -28.4320  -21.1700   21.2440 C   0  0  0  0  0  3  0  0  0  0  0  0
  -26.7300  -22.8460   20.8280 C   0  0  0  0  0  3  0  0  0  0  0  0
  -29.0120  -23.2600   20.0960 C   0  0  0  0  0  3  0  0  0  0  0  0
  -29.3850  -21.9710   20.5810 C   0  0  0  0  0  0  0  0  0  0  0  0
  -27.6760  -23.7270   20.2350 C   0  0  0  0  0  0  0  0  0  0  0  0
  -26.0210  -25.5380   20.6210 C   0  0  0  0  0  1  0  0  0  0  0  0
  -26.6570  -24.5790   18.2390 C   0  0  0  0  0  1  0  0  0  0  0  0
  -27.1400  -25.0590   19.6310 C   0  0  2  0  0  0  0  0  0  0  0  0
  -28.1520  -26.2650   19.4250 C   0  0  0  0  0  2  0  0  0  0  0  0
  -27.8220  -27.3820   18.5220 O   0  0  0  0  0  0  0  0  0  0  0  0
  -24.5880  -31.6930   23.2220 C   0  0  0  0  0  0  0  0  0  0  0  0
  -26.7300  -28.1760   18.8180 C   0  0  0  0  0  0  0  0  0  0  0  0
  -23.1640  -30.6800   21.4830 C   0  0  0  0  0  3  0  0  0  0  0  0
  -24.3920  -29.6160   19.5170 C   0  0  0  0  0  0  0  0  0  0  0  0
  -25.6410  -31.1480   21.0310 C   0  0  0  0  0  2  0  0  0  0  0  0
  -25.6260  -29.9790   20.0680 C   0  0  0  0  0  0  0  0  0  0  0  0
  -26.8010  -29.2580   19.7330 C   0  0  0  0  0  3  0  0  0  0  0  0
  -25.4900  -27.9260   18.1880 C   0  0  0  0  0  3  0  0  0  0  0  0
  -24.3220  -28.5910   18.5680 C   0  0  0  0  0  3  0  0  0  0  0  0
  -23.1650  -30.3750   19.9630 C   0  0  0  0  0  2  0  0  0  0  0  0
  -24.4930  -31.1740   21.9670 N   0  0  0  0  0  0  0  0  0  0  0  0
  -23.5950  -31.7910   23.9560 O   0  0  0  0  0  0  0  0  0  0  0  0
  -22.6650  -29.4300   22.2440 C   0  0  0  0  0  0  0  0  0  0  0  0
  -21.3540  -29.1530   22.1440 N   0  0  0  0  0  0  0  0  0  0  0  0
  -23.4480  -28.7270   22.8900 O   0  0  0  0  0  0  0  0  0  0  0  0
  -20.7790  -29.7820   21.6000 H   0  0  0  0  0  0  0  0  0  0  0  0
  -18.1670  -27.4710   22.4400 C   0  0  0  0  0  0  0  0  0  0  0  0
  -20.6750  -28.0070   22.7520 C   0  0  0  0  0  3  0  0  0  0  0  0
  -20.9410  -26.7120   21.9510 C   0  0  0  0  0  2  0  0  0  0  0  0
  -19.8710  -26.4190   20.8970 C   0  0  0  0  0  2  0  0  0  0  0  0
  -18.5010  -26.2760   21.5630 C   0  0  0  0  0  2  0  0  0  0  0  0
  -19.1890  -28.2920   22.9880 C   0  0  0  0  0  0  0  0  0  0  0  0
  -18.8250  -29.4090   23.7710 C   0  0  0  0  0  3  0  0  0  0  0  0
  -17.4720  -29.7110   24.0080 C   0  0  0  0  0  3  0  0  0  0  0  0
  -16.4650  -28.8890   23.4760 C   0  0  0  0  0  3  0  0  0  0  0  0
  -16.8140  -27.7700   22.6980 C   0  0  0  0  0  3  0  0  0  0  0  0
  -25.9480  -32.2090   23.7890 C   0  0  0  0  0  3  0  0  0  0  0  0
  -25.7010  -33.5350   24.3720 N   0  0  0  0  0  0  0  0  0  0  0  0
  -26.0330  -34.6950   23.7910 C   0  0  0  0  0  0  0  0  0  0  0  0
  -26.6560  -34.7570   22.7270 O   0  0  0  0  0  0  0  0  0  0  0  0
  -25.1400  -33.5590   25.2100 H   0  0  0  0  0  0  0  0  0  0  0  0
  -24.3940  -36.6010   23.8000 C   0  0  0  0  0  1  0  0  0  0  0  0
  -25.6150  -35.9940   24.5090 C   0  0  0  0  0  3  0  0  0  0  0  0
  -27.7940  -36.6050   25.4640 C   0  0  0  0  0  1  0  0  0  0  0  0
  -26.6990  -36.9960   24.5810 N   0  0  0  0  0  0  0  0  0  0  0  0
  -26.3400  -37.8950   24.8940 H   0  0  0  0  0  0  0  0  0  0  0  0
  -26.5860  -31.2380   24.8550 C   0  0  1  0  0  0  0  0  0  0  0  0
  -25.6190  -30.8310   25.9900 C   0  0  0  0  0  1  0  0  0  0  0  0
  -27.0890  -29.9410   24.1800 C   0  0  0  0  0  1  0  0  0  0  0  0
  -27.8220  -31.9130   25.4960 C   0  0  0  0  0  1  0  0  0  0  0  0
  -30.7860  -21.3910   20.3780 C   0  0  0  0  0  2  0  0  0  0  0  0
  -30.7620  -20.1750   19.5280 N   0  0  0  0  0  4  0  0  0  0  0  0
  -31.5480  -20.2380   18.9020 H   0  0  0  0  0  0  0  0  0  0  0  0
  -29.9250  -20.2160   18.9690 H   0  0  0  0  0  0  0  0  0  0  0  0
  -30.8340  -18.8600   20.2260 C   0  0  0  0  0  2  0  0  0  0  0  0
  -30.9310  -17.6630   19.2450 C   0  0  0  0  0  2  0  0  0  0  0  0
  -31.4630  -15.2500   19.5570 C   0  0  0  0  0  0  0  0  0  0  0  0
  -31.2670  -12.8600   19.0030 C   0  0  0  0  0  2  0  0  0  0  0  0
  -30.3090  -12.7000   17.8030 C   0  0  0  0  0  2  0  0  0  0  0  0
  -28.8520  -12.5870   18.2900 C   0  0  0  0  0  2  0  0  0  0  0  0
  -28.4740  -13.7030   19.2980 C   0  0  0  0  0  3  0  0  0  0  0  0
  -29.5430  -13.8500   20.4080 C   0  0  0  0  0  2  0  0  0  0  0  0
  -30.8510  -14.0520   19.7600 N   0  0  0  0  0  0  0  0  0  0  0  0
  -32.5390  -15.3570   18.9670 O   0  0  0  0  0  0  0  0  0  0  0  0
  -30.7450  -16.3420   19.8770 N   0  0  0  0  0  0  0  0  0  0  0  0
  -29.8990  -16.1920   20.4100 H   0  0  0  0  0  0  0  0  0  0  0  0
  -26.1590  -14.4060   20.1730 C   0  0  0  0  0  0  0  0  0  0  0  0
  -25.0840  -13.6770   20.6000 C   0  0  0  0  0  0  0  0  0  0  0  0
  -25.4750  -12.3040   20.5110 C   0  0  0  0  0  0  0  0  0  0  0  0
  -27.1440  -13.4820   19.8570 N   0  0  0  0  0  0  0  0  0  0  0  0
  -26.7390  -12.2120   20.1160 N   0  0  0  0  0  0  0  0  0  0  0  0
  -24.7010  -11.0750   20.7210 C   0  0  0  0  0  0  0  0  0  0  0  0
  -25.0520  -10.1420   21.7210 C   0  0  0  0  0  3  0  0  0  0  0  0
  -24.2780   -8.9780   21.9190 C   0  0  0  0  0  3  0  0  0  0  0  0
  -23.1410   -8.7370   21.1120 C   0  0  0  0  0  0  0  0  0  0  0  0
  -22.8090   -9.6580   20.1020 C   0  0  0  0  0  3  0  0  0  0  0  0
  -23.5830  -10.8140   19.9040 C   0  0  0  0  0  3  0  0  0  0  0  0
  -22.3480   -7.6200   21.2120 O   0  0  0  0  0  0  0  0  0  0  0  0
  -22.0830   -7.0330   22.4240 C   0  0  0  0  0  0  0  0  0  0  0  0
  -21.4410   -7.7350   23.4660 C   0  0  0  0  0  3  0  0  0  0  0  0
  -21.1250   -7.0730   24.6690 C   0  0  0  0  0  3  0  0  0  0  0  0
  -21.4400   -5.7100   24.8290 C   0  0  0  0  0  0  0  0  0  0  0  0
  -22.0710   -5.0070   23.7860 C   0  0  0  0  0  3  0  0  0  0  0  0
  -22.3880   -5.6660   22.5870 C   0  0  0  0  0  0  0  0  0  0  0  0
  -22.9780   -4.9780   21.5790 F   0  0  0  0  0  0  0  0  0  0  0  0
  -21.1280   -5.0730   25.9800 F   0  0  0  0  0  0  0  0  0  0  0  0
  -23.7340  -14.2140   20.9780 C   0  0  0  0  0  0  0  0  0  0  0  0
  -23.0400  -13.5420   21.8870 N   0  0  0  0  0  0  0  0  0  0  0  0
  -23.3090  -15.2670   20.5030 O   0  0  0  0  0  0  0  0  0  0  0  0
  -23.3990  -12.6890   22.2910 H   0  0  0  0  0  0  0  0  0  0  0  0
  -22.1330  -13.8800   22.1810 H   0  0  0  0  0  0  0  0  0  0  0  0
  -26.3790  -15.7730   20.0100 N   0  0  0  0  0  0  0  0  0  0  0  0
  -25.6440  -16.4520   20.1720 H   0  0  0  0  0  0  0  0  0  0  0  0
  -27.2090  -16.1790   19.5990 H   0  0  0  0  0  0  0  0  0  0  0  0
  2  1  1  0
  3  1  2  0
  4  6  2  0
  4  5  1  0
  5  2  2  0
  6  3  1  0
  9  8  1  6
  9  6  1  0
  9  7  1  0
 10  9  1  0
 11 13  1  0
 11 10  1  0
 12 23  2  0
 13 18  1  0
 14 22  1  0
 14 24  1  0
 15 21  1  0
 15 17  1  0
 16 22  1  0
 17 16  1  0
 18 17  2  0
 19 20  1  0
 19 13  2  0
 20 15  2  0
 21 14  1  0
 22 12  1  0
 24 26  2  0
 25 24  1  0
 27 25  1  0
 28 37  2  0
 28 33  1  0
 29 25  1  0
 29 33  1  0
 30 29  1  0
 31 32  1  0
 31 30  1  0
 32 28  1  0
 33 34  2  0
 34 35  1  0
 36 35  2  0
 37 36  1  0
 38 12  1  0
 38 39  1  0
 38 48  1  0
 39 42  1  0
 40 39  1  0
 40 44  1  0
 41 40  2  0
 44 43  1  0
 44 46  1  0
 46 47  1  0
 46 45  1  0
 48 51  1  1
 48 49  1  0
 50 48  1  0
 52  5  1  0
 53 56  1  0
 53 52  1  0
 54 53  1  0
 55 53  1  0
 57 66  1  0
 57 56  1  0
 58 64  1  0
 58 66  1  0
 59 64  1  0
 60 61  1  0
 60 59  1  0
 62 61  1  0
 62 71  1  0
 62 63  1  0
 64 63  1  0
 65 58  2  0
 66 67  1  0
 68 69  2  0
 69 88  1  0
 70 69  1  0
 70 73  1  0
 71 72  1  0
 71 68  1  0
 72 70  2  0
 73 74  1  0
 74 75  2  0
 76 79  1  0
 76 75  1  0
 77 76  2  0
 78 77  1  0
 78 73  2  0
 79 80  1  0
 80 85  2  0
 80 81  1  0
 81 82  2  0
 82 83  1  0
 83 87  1  0
 84 83  2  0
 85 84  1  0
 86 85  1  0
 88 89  1  0
 89 92  1  0
 89 91  1  0
 90 88  2  0
 93 94  1  0
 93 68  1  0
 95 93  1  0
M  ISO  4  10 101  11 101  58 100  66 100
M  END
>  <TORSDO>  (70) 
F 22

>  <SCORE>  (70) 
-9.304

>  <name>  (70) 
70

>  <ligand_id>  (70) 
70

>  <original_smiles>  (70) 
[H]c1c([H])c([H])c2c(c1[H])C([H])([H])C([H])([H])C([H])([H])C2([H])N([H])C(=O)C1([H])N(C(=O)C([H])(N([H])C(=O)C([H])(N([H])C([H])([H])[H])C([H])([H])[H])C(C([H])([H])[H])(C([H])([H])[H])C([H])([H])[H])C([H])([H])c2c([H])c(OC([H])([H])C(c3c([H])c([H])c([H])c(C([H])([H])[N+]([H])([H])C([H])([H])C([H])([H])N([H])C(=O)N4C([H])([H])C([H])([H])C([H])([H])C([H])(n5nc(-c6c([H])c([H])c(Oc7c([H])c([H])c(F)c([H])c7F)c([H])c6[H])c(C(=O)N([H])[H])c5N([H])[H])C4([H])[H])c3[H])(C([H])([H])[H])C([H])([H])[H])c([H])c([H])c2C1([H])[H]

>  <smiles>  (70) 
[H]c1c([H])c([H])c2c(c1[H])C([H])([H])C([H])([H])C([H])([H])C2([H])N([H])C(=O)C1([H])N(C(=O)C([H])(N([H])C(=O)C([H])(N([H])C([H])([H])[H])C([H])([H])[H])C(C([H])([H])[H])(C([H])([H])[H])C([H])([H])[H])C([H])([H])c2c([H])c(OC([H])([H])C(c3c([H])c([H])c([H])c(C([H])([H])[N+]([H])([H])C([H])([H])C([H])([H])N([H])C(=O)N4C([H])([H])C([H])([H])C([H])([H])C([H])(n5nc(-c6c([H])c([H])c(Oc7c([H])c([H])c(F)c([H])c7F)c([H])c6[H])c(C(=O)N([H])[H])c5N([H])[H])C4([H])[H])c3[H])(C([H])([H])[H])C([H])([H])[H])c([H])c([H])c2C1([H])[H]

$$$$
71:0:0
     RDKit          3D

 95103  0  0  1  0  0  0  0  0999 V2000
  -29.3020  -22.9090   19.1020 C   0  0  0  0  0  2  0  0  0  0  0  0
  -29.0700  -23.1160   21.1380 C   0  0  0  0  0  3  0  0  0  0  0  0
  -29.2070  -24.1590   19.9950 C   0  0  0  0  0  3  0  0  0  0  0  0
  -29.6600  -22.0840   20.2670 N   0  0  1  0  0  4  0  0  0  0  0  0
  -30.6590  -22.0820   20.4070 H   0  0  0  0  0  0  0  0  0  0  0  0
  -29.9650  -23.3600   22.3660 C   0  0  0  0  0  0  0  0  0  0  0  0
  -29.8100  -22.5610   23.4180 N   0  0  0  0  0  0  0  0  0  0  0  0
  -30.8170  -24.2480   22.3810 O   0  0  0  0  0  0  0  0  0  0  0  0
  -29.0960  -21.8460   23.4430 H   0  0  0  0  0  0  0  0  0  0  0  0
  -30.4000  -22.6850   24.2290 H   0  0  0  0  0  0  0  0  0  0  0  0
  -28.0830  -25.1870   19.6980 C   0  0  0  0  0  2  0  0  0  0  0  0
  -28.2580  -26.5900   20.0570 O   0  0  0  0  0  0  0  0  0  0  0  0
  -24.5040  -31.8790   23.1240 C   0  0  0  0  0  0  0  0  0  0  0  0
  -27.1080  -27.3840   20.0270 C   0  0  0  0  0  0  0  0  0  0  0  0
  -23.2820  -30.4720   21.5060 C   0  0  0  0  0  3  0  0  0  0  0  0
  -24.7190  -28.9380   20.0630 C   0  0  0  0  0  0  0  0  0  0  0  0
  -25.8140  -30.8180   21.2810 C   0  0  0  0  0  2  0  0  0  0  0  0
  -25.8920  -29.4460   20.6360 C   0  0  0  0  0  0  0  0  0  0  0  0
  -27.0880  -28.6800   20.6140 C   0  0  0  0  0  3  0  0  0  0  0  0
  -25.9060  -26.9200   19.4340 C   0  0  0  0  0  3  0  0  0  0  0  0
  -24.7240  -27.6760   19.4560 C   0  0  0  0  0  3  0  0  0  0  0  0
  -23.4750  -29.7950   20.1250 C   0  0  0  0  0  2  0  0  0  0  0  0
  -24.5540  -31.0720   22.0270 N   0  0  0  0  0  0  0  0  0  0  0  0
  -23.4280  -32.1520   23.6740 O   0  0  0  0  0  0  0  0  0  0  0  0
  -22.6470  -29.4490   22.4760 C   0  0  0  0  0  0  0  0  0  0  0  0
  -21.3180  -29.2720   22.3750 N   0  0  0  0  0  0  0  0  0  0  0  0
  -23.3430  -28.8180   23.2770 O   0  0  0  0  0  0  0  0  0  0  0  0
  -20.8160  -29.8350   21.7030 H   0  0  0  0  0  0  0  0  0  0  0  0
  -17.9470  -28.0960   22.9440 C   0  0  0  0  0  0  0  0  0  0  0  0
  -20.5120  -28.3380   23.1610 C   0  0  0  0  0  3  0  0  0  0  0  0
  -20.5910  -26.9070   22.5790 C   0  0  0  0  0  2  0  0  0  0  0  0
  -19.4660  -26.5940   21.5880 C   0  0  0  0  0  2  0  0  0  0  0  0
  -18.1000  -26.7460   22.2630 C   0  0  0  0  0  2  0  0  0  0  0  0
  -19.0800  -28.8500   23.3510 C   0  0  0  0  0  0  0  0  0  0  0  0
  -18.8820  -30.1140   23.9490 C   0  0  0  0  0  3  0  0  0  0  0  0
  -17.5840  -30.6240   24.1430 C   0  0  0  0  0  3  0  0  0  0  0  0
  -16.4670  -29.8660   23.7530 C   0  0  0  0  0  3  0  0  0  0  0  0
  -16.6490  -28.6040   23.1600 C   0  0  0  0  0  3  0  0  0  0  0  0
  -25.7970  -32.5160   23.7240 C   0  0  0  0  0  3  0  0  0  0  0  0
  -25.4770  -33.9060   24.0770 N   0  0  0  0  0  0  0  0  0  0  0  0
  -25.7880  -34.9720   23.3290 C   0  0  0  0  0  0  0  0  0  0  0  0
  -26.4450  -34.8910   22.2870 O   0  0  0  0  0  0  0  0  0  0  0  0
  -24.8920  -34.0400   24.8890 H   0  0  0  0  0  0  0  0  0  0  0  0
  -24.0400  -36.7530   23.0170 C   0  0  0  0  0  1  0  0  0  0  0  0
  -25.2920  -36.3480   23.8110 C   0  0  0  0  0  3  0  0  0  0  0  0
  -27.4270  -37.2400   24.6340 C   0  0  0  0  0  1  0  0  0  0  0  0
  -26.3150  -37.4120   23.7040 N   0  0  0  0  0  0  0  0  0  0  0  0
  -25.9030  -38.3270   23.8680 H   0  0  0  0  0  0  0  0  0  0  0  0
  -26.3480  -31.7340   24.9780 C   0  0  1  0  0  0  0  0  0  0  0  0
  -25.2820  -31.4690   26.0670 C   0  0  0  0  0  1  0  0  0  0  0  0
  -26.9380  -30.3670   24.5550 C   0  0  0  0  0  1  0  0  0  0  0  0
  -27.5060  -32.5310   25.6240 C   0  0  0  0  0  1  0  0  0  0  0  0
  -29.0650  -20.6960   20.2890 C   0  0  0  0  0  3  0  0  0  0  0  0
  -30.0480  -19.5320   20.6690 C   0  0  0  0  0  3  0  0  0  0  0  0
  -29.2100  -17.7180   19.0340 C   0  0  0  0  0  1  0  0  0  0  0  0
  -29.4850  -18.0690   20.5110 C   0  0  0  0  0  3  0  0  0  0  0  0
  -30.4000  -16.9700   21.1570 C   0  0  0  0  0  2  0  0  0  0  0  0
  -30.5970  -14.5300   20.4830 C   0  0  0  0  0  0  0  0  0  0  0  0
  -30.2980  -12.3600   19.3360 C   0  0  0  0  0  2  0  0  0  0  0  0
  -29.3490  -12.5480   18.1330 C   0  0  0  0  0  2  0  0  0  0  0  0
  -27.8770  -12.4020   18.5710 C   0  0  0  0  0  2  0  0  0  0  0  0
  -27.5420  -13.2360   19.8370 C   0  0  0  0  0  3  0  0  0  0  0  0
  -28.6070  -13.0400   20.9400 C   0  0  0  0  0  2  0  0  0  0  0  0
  -29.9210  -13.3530   20.3560 N   0  0  0  0  0  0  0  0  0  0  0  0
  -31.7310  -14.6900   20.0250 O   0  0  0  0  0  0  0  0  0  0  0  0
  -29.9140  -15.5720   21.0090 N   0  0  0  0  0  0  0  0  0  0  0  0
  -28.9720  -15.3810   21.3210 H   0  0  0  0  0  0  0  0  0  0  0  0
  -25.1450  -13.8220   20.5570 C   0  0  0  0  0  0  0  0  0  0  0  0
  -24.0830  -13.0410   20.9260 C   0  0  0  0  0  0  0  0  0  0  0  0
  -24.5530  -11.6950   20.8940 C   0  0  0  0  0  0  0  0  0  0  0  0
  -26.1950  -12.9480   20.3220 N   0  0  0  0  0  0  0  0  0  0  0  0
  -25.8440  -11.6630   20.5850 N   0  0  0  0  0  0  0  0  0  0  0  0
  -23.8350  -10.4270   21.0840 C   0  0  0  0  0  0  0  0  0  0  0  0
  -24.2850   -9.4520   22.0010 C   0  0  0  0  0  3  0  0  0  0  0  0
  -23.5660   -8.2510   22.1820 C   0  0  0  0  0  3  0  0  0  0  0  0
  -22.3820   -8.0150   21.4430 C   0  0  0  0  0  0  0  0  0  0  0  0
  -21.9500   -8.9790   20.5150 C   0  0  0  0  0  3  0  0  0  0  0  0
  -22.6710  -10.1720   20.3320 C   0  0  0  0  0  3  0  0  0  0  0  0
  -21.6330   -6.8670   21.5340 O   0  0  0  0  0  0  0  0  0  0  0  0
  -21.6170   -6.1060   22.6750 C   0  0  0  0  0  0  0  0  0  0  0  0
  -21.2330   -6.6420   23.9230 C   0  0  0  0  0  3  0  0  0  0  0  0
  -21.1620   -5.8080   25.0560 C   0  0  0  0  0  3  0  0  0  0  0  0
  -21.4690   -4.4390   24.9440 C   0  0  0  0  0  0  0  0  0  0  0  0
  -21.8490   -3.9020   23.7010 C   0  0  0  0  0  3  0  0  0  0  0  0
  -21.9190   -4.7330   22.5690 C   0  0  0  0  0  0  0  0  0  0  0  0
  -22.2660   -4.2070   21.3710 F   0  0  0  0  0  0  0  0  0  0  0  0
  -21.3950   -3.6360   26.0310 F   0  0  0  0  0  0  0  0  0  0  0  0
  -22.6850  -13.5100   21.2020 C   0  0  0  0  0  0  0  0  0  0  0  0
  -21.9660  -12.8080   22.0720 N   0  0  0  0  0  0  0  0  0  0  0  0
  -22.2380  -14.5330   20.6840 O   0  0  0  0  0  0  0  0  0  0  0  0
  -22.3440  -11.9820   22.5100 H   0  0  0  0  0  0  0  0  0  0  0  0
  -21.0280  -13.1020   22.3040 H   0  0  0  0  0  0  0  0  0  0  0  0
  -25.2980  -15.1930   20.3800 N   0  0  0  0  0  0  0  0  0  0  0  0
  -24.5230  -15.8370   20.4890 H   0  0  0  0  0  0  0  0  0  0  0  0
  -26.1370  -15.6420   20.0370 H   0  0  0  0  0  0  0  0  0  0  0  0
  1  3  1  0
  1  4  1  0
  2  6  1  0
  3 11  1  0
  3  2  1  0
  4 53  1  0
  4  5  1  1
  4  2  1  0
  6  8  2  0
  6  7  1  0
  7  9  1  0
  7 10  1  0
 11 12  1  0
 13 24  2  0
 14 12  1  0
 14 19  1  0
 15 23  1  0
 15 25  1  0
 16 22  1  0
 16 18  1  0
 17 23  1  0
 18 17  1  0
 19 18  2  0
 20 21  1  0
 20 14  2  0
 21 16  2  0
 22 15  1  0
 23 13  1  0
 25 27  2  0
 26 25  1  0
 28 26  1  0
 29 38  2  0
 29 34  1  0
 30 26  1  0
 30 34  1  0
 31 30  1  0
 32 33  1  0
 32 31  1  0
 33 29  1  0
 34 35  2  0
 35 36  1  0
 37 36  2  0
 38 37  1  0
 39 13  1  0
 39 40  1  0
 39 49  1  0
 40 43  1  0
 41 45  1  0
 41 40  1  0
 42 41  2  0
 45 44  1  0
 47 45  1  0
 47 48  1  0
 47 46  1  0
 49 52  1  1
 49 50  1  0
 51 49  1  0
 53 54  2  0
 56 55  1  0
 56 54  1  0
 56 57  1  0
 58 66  1  0
 59 64  1  0
 60 61  1  0
 60 59  1  0
 62 61  1  0
 62 71  1  0
 62 63  1  0
 64 58  1  0
 64 63  1  0
 65 58  2  0
 66 57  1  0
 66 67  1  0
 68 69  2  0
 69 88  1  0
 70 69  1  0
 70 73  1  0
 71 68  1  0
 71 72  1  0
 72 70  2  0
 73 74  1  0
 74 75  2  0
 76 79  1  0
 76 75  1  0
 77 76  2  0
 78 77  1  0
 78 73  2  0
 79 80  1  0
 80 81  1  0
 81 82  2  0
 83 82  1  0
 83 87  1  0
 84 83  2  0
 85 80  2  0
 85 84  1  0
 86 85  1  0
 88 89  1  0
 89 92  1  0
 89 91  1  0
 90 88  2  0
 93 94  1  0
 93 68  1  0
 95 93  1  0
M  ISO  4  11 101  12 101  58 100  66 100
M  END
>  <TORSDO>  (71) 
F 22

>  <SCORE>  (71) 
-13.094

>  <name>  (71) 
71

>  <ligand_id>  (71) 
71

>  <original_smiles>  (71) 
[H]c1c([H])c([H])c2c(c1[H])C([H])([H])C([H])([H])C([H])([H])C2([H])N([H])C(=O)C1([H])N(C(=O)C([H])(N([H])C(=O)C([H])(N([H])C([H])([H])[H])C([H])([H])[H])C(C([H])([H])[H])(C([H])([H])[H])C([H])([H])[H])C([H])([H])c2c([H])c(OC([H])([H])C3([H])C([H])([H])[N+]([H])(C([H])([H])C([H])([H])C([H])(C([H])([H])[H])C([H])([H])N([H])C(=O)N4C([H])([H])C([H])([H])C([H])([H])C([H])(n5nc(-c6c([H])c([H])c(Oc7c([H])c([H])c(F)c([H])c7F)c([H])c6[H])c(C(=O)N([H])[H])c5N([H])[H])C4([H])[H])C3([H])C(=O)N([H])[H])c([H])c([H])c2C1([H])[H]

>  <smiles>  (71) 
[H]c1c([H])c([H])c2c(c1[H])C([H])([H])C([H])([H])C([H])([H])C2([H])N([H])C(=O)C1([H])N(C(=O)C([H])(N([H])C(=O)C([H])(N([H])C([H])([H])[H])C([H])([H])[H])C(C([H])([H])[H])(C([H])([H])[H])C([H])([H])[H])C([H])([H])c2c([H])c(OC([H])([H])C3([H])C([H])([H])[N+]([H])(C([H])([H])C([H])([H])C([H])(C([H])([H])[H])C([H])([H])N([H])C(=O)N4C([H])([H])C([H])([H])C([H])([H])C([H])(n5nc(-c6c([H])c([H])c(Oc7c([H])c([H])c(F)c([H])c7F)c([H])c6[H])c(C(=O)N([H])[H])c5N([H])[H])C4([H])[H])C3([H])C(=O)N([H])[H])c([H])c([H])c2C1([H])[H]

$$$$
72:0:0
     RDKit          3D

 95103  0  0  1  0  0  0  0  0999 V2000
  -29.9200  -18.5310   20.7210 C   0  0  0  0  0  0  0  0  0  0  0  0
  -31.1820  -18.4530   21.1610 N   0  0  0  0  0  4  0  0  0  0  0  0
  -29.2810  -19.7650   20.6140 N   0  0  0  0  0  0  0  0  0  0  0  0
  -31.6500  -17.5610   21.2150 H   0  0  0  0  0  0  0  0  0  0  0  0
  -31.7050  -19.2650   21.4490 H   0  0  0  0  0  0  0  0  0  0  0  0
  -28.3040  -19.7180   20.3630 H   0  0  0  0  0  0  0  0  0  0  0  0
  -30.6700  -14.8840   20.5310 C   0  0  0  0  0  0  0  0  0  0  0  0
  -30.5180  -12.6040   19.5600 C   0  0  0  0  0  2  0  0  0  0  0  0
  -29.5930  -12.6560   18.3240 C   0  0  0  0  0  2  0  0  0  0  0  0
  -28.1180  -12.4860   18.7370 C   0  0  0  0  0  2  0  0  0  0  0  0
  -27.7140  -13.3650   19.9530 C   0  0  0  0  0  3  0  0  0  0  0  0
  -28.7640  -13.3100   21.0810 C   0  0  0  0  0  2  0  0  0  0  0  0
  -30.0570  -13.6580   20.4830 N   0  0  0  0  0  0  0  0  0  0  0  0
  -31.8960  -14.9640   20.4340 O   0  0  0  0  0  0  0  0  0  0  0  0
  -30.2990  -16.4910   18.6450 C   0  0  0  0  0  2  0  0  0  0  0  0
  -29.2090  -17.2020   20.2980 C   0  0  0  0  0  3  0  0  0  0  0  0
  -29.0310  -17.3410   18.7720 C   0  0  0  0  0  3  0  0  0  0  0  0
  -29.9380  -15.9030   19.9420 N   0  0  0  0  0  0  0  0  0  0  0  0
  -25.3090  -13.9350   20.6330 C   0  0  0  0  0  0  0  0  0  0  0  0
  -24.2390  -13.1470   20.9650 C   0  0  0  0  0  0  0  0  0  0  0  0
  -24.7190  -11.8010   20.9420 C   0  0  0  0  0  0  0  0  0  0  0  0
  -26.3670  -13.0660   20.4230 N   0  0  0  0  0  0  0  0  0  0  0  0
  -26.0160  -11.7790   20.6700 N   0  0  0  0  0  0  0  0  0  0  0  0
  -24.0040  -10.5300   21.1080 C   0  0  0  0  0  0  0  0  0  0  0  0
  -24.4210   -9.5680   22.0550 C   0  0  0  0  0  3  0  0  0  0  0  0
  -23.7060   -8.3620   22.2100 C   0  0  0  0  0  3  0  0  0  0  0  0
  -22.5630   -8.1060   21.4150 C   0  0  0  0  0  0  0  0  0  0  0  0
  -22.1670   -9.0590   20.4590 C   0  0  0  0  0  3  0  0  0  0  0  0
  -22.8800  -10.2570   20.3030 C   0  0  0  0  0  3  0  0  0  0  0  0
  -21.8220   -6.9510   21.4770 O   0  0  0  0  0  0  0  0  0  0  0  0
  -21.7330   -6.2150   22.6310 C   0  0  0  0  0  0  0  0  0  0  0  0
  -21.2120   -6.7590   23.8250 C   0  0  0  0  0  3  0  0  0  0  0  0
  -21.0750   -5.9470   24.9680 C   0  0  0  0  0  3  0  0  0  0  0  0
  -21.4470   -4.5900   24.9180 C   0  0  0  0  0  0  0  0  0  0  0  0
  -21.9590   -4.0440   23.7280 C   0  0  0  0  0  3  0  0  0  0  0  0
  -22.0990   -4.8540   22.5880 C   0  0  0  0  0  0  0  0  0  0  0  0
  -22.5750   -4.3190   21.4380 F   0  0  0  0  0  0  0  0  0  0  0  0
  -21.3070   -3.8070   26.0130 F   0  0  0  0  0  0  0  0  0  0  0  0
  -22.8320  -13.6080   21.2090 C   0  0  0  0  0  0  0  0  0  0  0  0
  -22.0920  -12.8980   22.0550 N   0  0  0  0  0  0  0  0  0  0  0  0
  -22.3960  -14.6330   20.6880 O   0  0  0  0  0  0  0  0  0  0  0  0
  -22.4520  -12.0640   22.4970 H   0  0  0  0  0  0  0  0  0  0  0  0
  -21.1470  -13.1910   22.2630 H   0  0  0  0  0  0  0  0  0  0  0  0
  -25.4740  -15.3080   20.4770 N   0  0  0  0  0  0  0  0  0  0  0  0
  -24.6660  -15.8570   20.7550 H   0  0  0  0  0  0  0  0  0  0  0  0
  -26.3180  -15.6750   20.8950 H   0  0  0  0  0  0  0  0  0  0  0  0
  -27.8190  -16.7260   18.1720 N   0  0  0  0  0  4  0  0  0  0  0  0
  -27.7010  -15.7680   18.4420 H   0  0  0  0  0  0  0  0  0  0  0  0
  -27.8780  -16.7580   17.1690 H   0  0  0  0  0  0  0  0  0  0  0  0
  -26.9860  -17.2270   18.4270 H   0  0  0  0  0  0  0  0  0  0  0  0
  -29.7450  -21.1960   20.8950 C   0  0  0  0  0  3  0  0  0  0  0  0
  -28.7710  -22.4050   20.4590 C   0  0  0  0  0  3  0  0  0  0  0  0
  -29.1530  -23.9460   20.7530 C   0  0  0  0  0  3  0  0  0  0  0  0
  -28.1170  -25.0890   20.2960 C   0  0  0  0  0  3  0  0  0  0  0  0
  -28.3470  -26.5480   20.5380 O   0  0  0  0  0  0  0  0  0  0  0  0
  -24.5860  -32.0480   23.3840 C   0  0  0  0  0  0  0  0  0  0  0  0
  -27.2470  -27.4300   20.4340 C   0  0  0  0  0  0  0  0  0  0  0  0
  -23.4160  -30.6400   21.7300 C   0  0  0  0  0  3  0  0  0  0  0  0
  -24.8950  -29.0730   20.3490 C   0  0  0  0  0  0  0  0  0  0  0  0
  -25.9650  -30.9420   21.6050 C   0  0  0  0  0  2  0  0  0  0  0  0
  -26.0530  -29.5560   20.9710 C   0  0  0  0  0  0  0  0  0  0  0  0
  -27.2330  -28.7460   21.0010 C   0  0  0  0  0  3  0  0  0  0  0  0
  -26.0640  -27.0150   19.7780 C   0  0  0  0  0  3  0  0  0  0  0  0
  -24.9050  -27.8110   19.7410 C   0  0  0  0  0  3  0  0  0  0  0  0
  -23.6610  -29.9540   20.3610 C   0  0  0  0  0  2  0  0  0  0  0  0
  -24.6730  -31.2270   22.2960 N   0  0  0  0  0  0  0  0  0  0  0  0
  -23.4900  -32.3350   23.8880 O   0  0  0  0  0  0  0  0  0  0  0  0
  -22.7260  -29.6350   22.6820 C   0  0  0  0  0  0  0  0  0  0  0  0
  -21.4020  -29.4580   22.5190 N   0  0  0  0  0  0  0  0  0  0  0  0
  -23.3800  -29.0160   23.5260 O   0  0  0  0  0  0  0  0  0  0  0  0
  -20.9350  -30.0070   21.8120 H   0  0  0  0  0  0  0  0  0  0  0  0
  -18.0050  -28.2910   22.9570 C   0  0  0  0  0  0  0  0  0  0  0  0
  -20.5590  -28.5310   23.2780 C   0  0  0  0  0  3  0  0  0  0  0  0
  -20.6600  -27.0960   22.7120 C   0  0  0  0  0  2  0  0  0  0  0  0
  -19.5770  -26.7770   21.6770 C   0  0  0  0  0  2  0  0  0  0  0  0
  -18.1830  -26.9370   22.2920 C   0  0  0  0  0  2  0  0  0  0  0  0
  -19.1200  -29.0470   23.4060 C   0  0  0  0  0  0  0  0  0  0  0  0
  -18.8990  -30.3140   23.9870 C   0  0  0  0  0  3  0  0  0  0  0  0
  -17.5950  -30.8250   24.1250 C   0  0  0  0  0  3  0  0  0  0  0  0
  -16.4930  -30.0670   23.6930 C   0  0  0  0  0  3  0  0  0  0  0  0
  -16.7000  -28.8020   23.1150 C   0  0  0  0  0  3  0  0  0  0  0  0
  -25.8550  -32.6820   24.0310 C   0  0  0  0  0  3  0  0  0  0  0  0
  -25.5530  -34.0920   24.3130 N   0  0  0  0  0  0  0  0  0  0  0  0
  -25.9020  -35.1190   23.5260 C   0  0  0  0  0  0  0  0  0  0  0  0
  -26.5820  -34.9770   22.5060 O   0  0  0  0  0  0  0  0  0  0  0  0
  -24.9520  -34.2770   25.1030 H   0  0  0  0  0  0  0  0  0  0  0  0
  -24.1850  -36.9090   23.1110 C   0  0  0  0  0  1  0  0  0  0  0  0
  -25.4240  -36.5250   23.9350 C   0  0  0  0  0  3  0  0  0  0  0  0
  -27.5590  -37.4290   24.7410 C   0  0  0  0  0  1  0  0  0  0  0  0
  -26.4620  -37.5670   23.7870 N   0  0  0  0  0  0  0  0  0  0  0  0
  -26.0600  -38.4940   23.8980 H   0  0  0  0  0  0  0  0  0  0  0  0
  -26.3170  -31.9400   25.3450 C   0  0  1  0  0  0  0  0  0  0  0  0
  -25.1820  -31.7370   26.3770 C   0  0  0  0  0  1  0  0  0  0  0  0
  -26.9030  -30.5480   25.0120 C   0  0  0  0  0  1  0  0  0  0  0  0
  -27.4490  -32.7420   26.0290 C   0  0  0  0  0  1  0  0  0  0  0  0
  1  2  2  0
  2  4  1  0
  2  5  1  0
  3  1  1  0
  3 51  1  0
  6  3  1  0
  8 13  1  0
  9 10  1  0
  9  8  1  0
 11 10  1  0
 11 22  1  0
 11 12  1  0
 13  7  1  0
 13 12  1  0
 14  7  2  0
 15 17  1  0
 15 18  1  0
 16  1  1  0
 17 47  1  0
 17 16  1  0
 18 16  1  0
 18  7  1  0
 19 20  2  0
 20 39  1  0
 21 20  1  0
 21 24  1  0
 22 19  1  0
 22 23  1  0
 23 21  2  0
 24 25  1  0
 25 26  2  0
 27 30  1  0
 27 26  1  0
 28 27  2  0
 29 28  1  0
 29 24  2  0
 30 31  1  0
 31 32  1  0
 32 33  2  0
 34 33  1  0
 34 38  1  0
 35 34  2  0
 36 31  2  0
 36 35  1  0
 37 36  1  0
 39 40  1  0
 40 43  1  0
 40 42  1  0
 41 39  2  0
 44 19  1  0
 44 45  1  0
 44 46  1  0
 47 50  1  0
 47 48  1  0
 49 47  1  0
 52 53  1  0
 52 51  2  0
 54 55  1  0
 54 53  2  0
 56 67  2  0
 57 55  1  0
 57 62  1  0
 58 66  1  0
 58 68  1  0
 59 65  1  0
 59 61  1  0
 60 66  1  0
 61 62  2  0
 61 60  1  0
 63 57  2  0
 64 63  1  0
 64 59  2  0
 65 58  1  0
 66 56  1  0
 68 70  2  0
 69 68  1  0
 71 69  1  0
 72 81  2  0
 72 77  1  0
 73 69  1  0
 73 77  1  0
 74 73  1  0
 75 76  1  0
 75 74  1  0
 76 72  1  0
 77 78  2  0
 78 79  1  0
 80 79  2  0
 81 80  1  0
 82 56  1  0
 82 83  1  0
 82 92  1  0
 83 86  1  0
 84 88  1  0
 84 83  1  0
 85 84  2  0
 88 87  1  0
 90 91  1  0
 90 88  1  0
 90 89  1  0
 92 95  1  1
 92 93  1  0
 94 92  1  0
M  ISO  4   7 100  18 100  54 101  55 101
M  END
>  <TORSDO>  (72) 
F 21

>  <SCORE>  (72) 
-13.216

>  <name>  (72) 
72

>  <ligand_id>  (72) 
72

>  <original_smiles>  (72) 
[H]c1c([H])c([H])c2c(c1[H])C([H])([H])C([H])([H])C([H])([H])C2([H])N([H])C(=O)C1([H])N(C(=O)C([H])(N([H])C(=O)C([H])(N([H])C([H])([H])[H])C([H])([H])[H])C(C([H])([H])[H])(C([H])([H])[H])C([H])([H])[H])C([H])([H])c2c([H])c(OC([H])([H])C([H])([H])C([H])([H])C([H])([H])[N+]([H])=C(N([H])[H])C3([H])N(C(=O)N4C([H])([H])C([H])([H])C([H])([H])C([H])(n5nc(-c6c([H])c([H])c(Oc7c([H])c([H])c(F)c([H])c7F)c([H])c6[H])c(C(=O)N([H])[H])c5N([H])[H])C4([H])[H])C([H])([H])C3([H])[N+]([H])([H])[H])c([H])c([H])c2C1([H])[H]

>  <smiles>  (72) 
[H]c1c([H])c([H])c2c(c1[H])C([H])([H])C([H])([H])C([H])([H])C2([H])N([H])C(=O)C1([H])N(C(=O)C([H])(N([H])C(=O)C([H])(N([H])C([H])([H])[H])C([H])([H])[H])C(C([H])([H])[H])(C([H])([H])[H])C([H])([H])[H])C([H])([H])c2c([H])c(OC([H])([H])C([H])([H])C([H])([H])C([H])([H])[N+]([H])=C(N([H])[H])C3([H])N(C(=O)N4C([H])([H])C([H])([H])C([H])([H])C([H])(n5nc(-c6c([H])c([H])c(Oc7c([H])c([H])c(F)c([H])c7F)c([H])c6[H])c(C(=O)N([H])[H])c5N([H])[H])C4([H])[H])C([H])([H])C3([H])[N+]([H])([H])[H])c([H])c([H])c2C1([H])[H]

$$$$
73:0:0
     RDKit          3D

 98107  0  0  1  0  0  0  0  0999 V2000
  -27.4970  -20.2530   18.9900 C   0  0  0  0  0  0  0  0  0  0  0  0
  -27.3880  -19.0280   19.5380 C   0  0  0  0  0  0  0  0  0  0  0  0
  -26.5350  -21.4110   18.8670 C   0  0  0  0  0  2  0  0  0  0  0  0
  -28.6360  -20.9330   18.2590 C   0  0  0  0  0  2  0  0  0  0  0  0
  -27.8120  -22.2110   18.5050 C   0  0  0  0  0  3  0  0  0  0  0  0
  -26.1100  -18.5460   20.1970 C   0  0  0  0  0  1  0  0  0  0  0  0
  -30.0560  -16.9510   17.8490 C   0  0  0  0  0  3  0  0  0  0  0  0
  -28.9540  -17.7930   18.0510 C   0  0  0  0  0  3  0  0  0  0  0  0
  -30.6580  -16.3250   18.9480 C   0  0  0  0  0  3  0  0  0  0  0  0
  -29.0390  -17.3590   20.4480 C   0  0  0  0  0  3  0  0  0  0  0  0
  -28.4630  -18.0390   19.3520 C   0  0  0  0  0  0  0  0  0  0  0  0
  -30.1290  -16.4840   20.2530 C   0  0  0  0  0  0  0  0  0  0  0  0
  -31.4230  -14.7020   21.2820 C   0  0  0  0  0  0  0  0  0  0  0  0
  -31.2340  -12.4510   20.2900 C   0  0  0  0  0  2  0  0  0  0  0  0
  -30.4910  -12.4810   18.9390 C   0  0  0  0  0  2  0  0  0  0  0  0
  -28.9650  -12.4280   19.1440 C   0  0  0  0  0  2  0  0  0  0  0  0
  -28.4500  -13.4140   20.2280 C   0  0  0  0  0  3  0  0  0  0  0  0
  -29.3170  -13.3410   21.5030 C   0  0  0  0  0  2  0  0  0  0  0  0
  -30.7190  -13.5530   21.1090 N   0  0  0  0  0  0  0  0  0  0  0  0
  -32.6380  -14.7950   21.1000 O   0  0  0  0  0  0  0  0  0  0  0  0
  -30.6960  -15.8230   21.3810 N   0  0  0  0  0  0  0  0  0  0  0  0
  -31.0490  -16.4670   22.0740 H   0  0  0  0  0  0  0  0  0  0  0  0
  -25.9980  -14.1230   20.5530 C   0  0  0  0  0  0  0  0  0  0  0  0
  -24.8610  -13.3950   20.7830 C   0  0  0  0  0  0  0  0  0  0  0  0
  -25.2770  -12.0320   20.8770 C   0  0  0  0  0  0  0  0  0  0  0  0
  -27.0350  -13.2030   20.5170 N   0  0  0  0  0  0  0  0  0  0  0  0
  -26.5970  -11.9450   20.7730 N   0  0  0  0  0  0  0  0  0  0  0  0
  -24.4930  -10.7980   21.0000 C   0  0  0  0  0  0  0  0  0  0  0  0
  -24.7910   -9.8320   21.9870 C   0  0  0  0  0  3  0  0  0  0  0  0
  -24.0110   -8.6600   22.0980 C   0  0  0  0  0  3  0  0  0  0  0  0
  -22.9210   -8.4490   21.2220 C   0  0  0  0  0  0  0  0  0  0  0  0
  -22.6430   -9.4030   20.2280 C   0  0  0  0  0  3  0  0  0  0  0  0
  -23.4230  -10.5660   20.1140 C   0  0  0  0  0  3  0  0  0  0  0  0
  -22.1240   -7.3290   21.2400 O   0  0  0  0  0  0  0  0  0  0  0  0
  -21.9360   -6.5980   22.3860 C   0  0  0  0  0  0  0  0  0  0  0  0
  -21.3740   -7.1680   23.5490 C   0  0  0  0  0  3  0  0  0  0  0  0
  -21.1340   -6.3650   24.6820 C   0  0  0  0  0  3  0  0  0  0  0  0
  -21.4440   -4.9920   24.6500 C   0  0  0  0  0  0  0  0  0  0  0  0
  -21.9980   -4.4210   23.4910 C   0  0  0  0  0  3  0  0  0  0  0  0
  -22.2400   -5.2230   22.3600 C   0  0  0  0  0  0  0  0  0  0  0  0
  -22.7550   -4.6640   21.2390 F   0  0  0  0  0  0  0  0  0  0  0  0
  -21.2070   -4.2180   25.7340 F   0  0  0  0  0  0  0  0  0  0  0  0
  -23.4540  -13.9190   20.8180 C   0  0  0  0  0  0  0  0  0  0  0  0
  -22.5900  -13.3050   21.6180 N   0  0  0  0  0  0  0  0  0  0  0  0
  -23.1240  -14.9110   20.1690 O   0  0  0  0  0  0  0  0  0  0  0  0
  -22.8640  -12.5030   22.1670 H   0  0  0  0  0  0  0  0  0  0  0  0
  -21.6400  -13.6420   21.6840 H   0  0  0  0  0  0  0  0  0  0  0  0
  -26.2340  -15.4790   20.3490 N   0  0  0  0  0  0  0  0  0  0  0  0
  -25.4850  -16.1610   20.3320 H   0  0  0  0  0  0  0  0  0  0  0  0
  -27.1440  -15.8790   20.1580 H   0  0  0  0  0  0  0  0  0  0  0  0
  -28.3090  -23.0540   19.6220 N   0  0  0  0  0  4  0  0  0  0  0  0
  -29.3170  -23.0830   19.5870 H   0  0  0  0  0  0  0  0  0  0  0  0
  -28.0410  -22.6520   20.5080 H   0  0  0  0  0  0  0  0  0  0  0  0
  -27.7990  -24.4350   19.4860 C   0  0  0  0  0  2  0  0  0  0  0  0
  -27.8020  -25.4600   21.8330 C   0  0  0  0  0  1  0  0  0  0  0  0
  -29.9410  -25.4020   20.4940 C   0  0  0  0  0  1  0  0  0  0  0  0
  -28.4080  -25.5100   20.4170 C   0  0  1  0  0  0  0  0  0  0  0  0
  -28.2260  -26.8280   19.8590 O   0  0  0  0  0  0  0  0  0  0  0  0
  -24.6010  -31.9390   23.2200 C   0  0  0  0  0  0  0  0  0  0  0  0
  -27.0270  -27.5050   19.9670 C   0  0  0  0  0  0  0  0  0  0  0  0
  -23.2910  -30.5650   21.6370 C   0  0  0  0  0  3  0  0  0  0  0  0
  -24.6470  -29.0290   20.1300 C   0  0  0  0  0  0  0  0  0  0  0  0
  -25.8070  -30.8980   21.3080 C   0  0  0  0  0  2  0  0  0  0  0  0
  -25.8390  -29.5310   20.6620 C   0  0  0  0  0  0  0  0  0  0  0  0
  -27.0290  -28.7750   20.5840 C   0  0  0  0  0  3  0  0  0  0  0  0
  -25.8170  -27.0360   19.4030 C   0  0  0  0  0  3  0  0  0  0  0  0
  -24.6280  -27.7760   19.5030 C   0  0  0  0  0  3  0  0  0  0  0  0
  -23.4180  -29.8980   20.2430 C   0  0  0  0  0  2  0  0  0  0  0  0
  -24.5880  -31.1480   22.1120 N   0  0  0  0  0  0  0  0  0  0  0  0
  -23.5540  -32.2180   23.8200 O   0  0  0  0  0  0  0  0  0  0  0  0
  -22.6850  -29.5380   22.6190 C   0  0  0  0  0  0  0  0  0  0  0  0
  -21.3830  -29.2540   22.4560 N   0  0  0  0  0  0  0  0  0  0  0  0
  -23.3830  -29.0000   23.4820 O   0  0  0  0  0  0  0  0  0  0  0  0
  -20.8780  -29.7440   21.7310 H   0  0  0  0  0  0  0  0  0  0  0  0
  -18.1060  -27.7820   22.8370 C   0  0  0  0  0  0  0  0  0  0  0  0
  -20.6070  -28.2950   23.2410 C   0  0  0  0  0  3  0  0  0  0  0  0
  -20.8750  -26.8460   22.7740 C   0  0  0  0  0  2  0  0  0  0  0  0
  -19.8750  -26.3560   21.7230 C   0  0  0  0  0  2  0  0  0  0  0  0
  -18.4460  -26.4130   22.2730 C   0  0  0  0  0  2  0  0  0  0  0  0
  -19.1210  -28.6720   23.2770 C   0  0  0  0  0  0  0  0  0  0  0  0
  -18.7540  -29.9470   23.7610 C   0  0  0  0  0  3  0  0  0  0  0  0
  -17.4020  -30.3340   23.8100 C   0  0  0  0  0  3  0  0  0  0  0  0
  -16.3990  -29.4440   23.3890 C   0  0  0  0  0  3  0  0  0  0  0  0
  -16.7520  -28.1700   22.9080 C   0  0  0  0  0  3  0  0  0  0  0  0
  -25.9270  -32.5490   23.7720 C   0  0  0  0  0  3  0  0  0  0  0  0
  -26.5160  -31.7490   24.9980 C   0  0  1  0  0  0  0  0  0  0  0  0
  -25.4760  -31.4460   26.1000 C   0  0  0  0  0  1  0  0  0  0  0  0
  -27.1180  -30.4020   24.5320 C   0  0  0  0  0  1  0  0  0  0  0  0
  -27.6720  -32.5520   25.6390 C   0  0  0  0  0  1  0  0  0  0  0  0
  -25.6480  -33.9420   24.1440 N   0  0  0  0  0  0  0  0  0  0  0  0
  -25.9590  -35.0060   23.3900 C   0  0  0  0  0  0  0  0  0  0  0  0
  -26.5830  -34.9160   22.3290 O   0  0  0  0  0  0  0  0  0  0  0  0
  -25.0910  -34.0870   24.9730 H   0  0  0  0  0  0  0  0  0  0  0  0
  -24.2350  -36.8200   23.1420 C   0  0  0  0  0  1  0  0  0  0  0  0
  -25.5050  -36.3890   23.8930 C   0  0  0  0  0  3  0  0  0  0  0  0
  -27.6750  -37.2420   24.6600 C   0  0  0  0  0  1  0  0  0  0  0  0
  -26.5420  -37.4330   23.7590 N   0  0  0  0  0  0  0  0  0  0  0  0
  -26.1500  -38.3560   23.9330 H   0  0  0  0  0  0  0  0  0  0  0  0
  1  2  2  0
  2  6  1  0
  3  1  1  0
  4  5  1  0
  4  1  1  0
  5  3  1  0
  5 51  1  0
  7  8  2  0
  7  9  1  0
  8 11  1  0
  9 12  2  0
 11  2  1  0
 11 10  2  0
 12 10  1  0
 12 21  1  0
 13 21  1  0
 14 19  1  0
 15 16  1  0
 15 14  1  0
 17 16  1  0
 17 26  1  0
 17 18  1  0
 19 13  1  0
 19 18  1  0
 20 13  2  0
 21 22  1  0
 23 24  2  0
 24 43  1  0
 24 25  1  0
 25 28  1  0
 26 23  1  0
 26 27  1  0
 27 25  2  0
 28 29  1  0
 29 30  2  0
 31 34  1  0
 31 30  1  0
 32 31  2  0
 33 32  1  0
 33 28  2  0
 34 35  1  0
 35 36  1  0
 36 37  2  0
 38 37  1  0
 38 42  1  0
 39 38  2  0
 40 35  2  0
 40 39  1  0
 41 40  1  0
 43 44  1  0
 44 47  1  0
 44 46  1  0
 45 43  2  0
 48 23  1  0
 49 48  1  0
 50 48  1  0
 51 53  1  0
 52 51  1  0
 54 51  1  0
 54 57  1  0
 57 56  1  1
 57 55  1  0
 58 60  1  0
 58 57  1  0
 59 70  2  0
 60 65  1  0
 61 69  1  0
 61 71  1  0
 62 68  1  0
 62 64  1  0
 63 69  1  0
 64 63  1  0
 65 64  2  0
 66 67  1  0
 66 60  2  0
 67 62  2  0
 68 61  1  0
 69 59  1  0
 71 73  2  0
 72 71  1  0
 74 72  1  0
 75 84  2  0
 75 80  1  0
 76 72  1  0
 76 80  1  0
 77 76  1  0
 78 79  1  0
 78 77  1  0
 79 75  1  0
 80 81  2  0
 81 82  1  0
 83 82  2  0
 84 83  1  0
 85 59  1  0
 85 90  1  0
 85 86  1  0
 86 89  1  1
 86 87  1  0
 88 86  1  0
 90 93  1  0
 91 95  1  0
 91 90  1  0
 92 91  2  0
 95 94  1  0
 97 95  1  0
 97 98  1  0
 97 96  1  0
M  ISO  4  13 100  21 100  57 101  58 101
M  END
>  <TORSDO>  (73) 
F 20

>  <SCORE>  (73) 
-11.665

>  <name>  (73) 
73

>  <ligand_id>  (73) 
73

>  <original_smiles>  (73) 
[H]c1c([H])c(C(=C2C([H])([H])C([H])([N+]([H])([H])C([H])([H])C(Oc3c([H])c([H])c4c(c3[H])C([H])([H])N(C(=O)C([H])(N([H])C(=O)C([H])(N([H])C([H])([H])[H])C([H])([H])[H])C(C([H])([H])[H])(C([H])([H])[H])C([H])([H])[H])C([H])(C(=O)N([H])C3([H])c5c([H])c([H])c([H])c([H])c5C([H])([H])C([H])([H])C3([H])[H])C4([H])[H])(C([H])([H])[H])C([H])([H])[H])C2([H])[H])C([H])([H])[H])c([H])c(N([H])C(=O)N2C([H])([H])C([H])([H])C([H])([H])C([H])(n3nc(-c4c([H])c([H])c(Oc5c([H])c([H])c(F)c([H])c5F)c([H])c4[H])c(C(=O)N([H])[H])c3N([H])[H])C2([H])[H])c1[H]

>  <smiles>  (73) 
[H]c1c([H])c(C(=C2C([H])([H])C([H])([N+]([H])([H])C([H])([H])C(Oc3c([H])c([H])c4c(c3[H])C([H])([H])N(C(=O)C([H])(N([H])C(=O)C([H])(N([H])C([H])([H])[H])C([H])([H])[H])C(C([H])([H])[H])(C([H])([H])[H])C([H])([H])[H])C([H])(C(=O)N([H])C3([H])c5c([H])c([H])c([H])c([H])c5C([H])([H])C([H])([H])C3([H])[H])C4([H])[H])(C([H])([H])[H])C([H])([H])[H])C2([H])[H])C([H])([H])[H])c([H])c(N([H])C(=O)N2C([H])([H])C([H])([H])C([H])([H])C([H])(n3nc(-c4c([H])c([H])c(Oc5c([H])c([H])c(F)c([H])c5F)c([H])c4[H])c(C(=O)N([H])[H])c3N([H])[H])C2([H])[H])c1[H]

$$$$
74:0:0
     RDKit          3D

 99107  0  0  1  0  0  0  0  0999 V2000
  -26.7740  -21.0250   18.0700 C   0  0  0  0  0  0  0  0  0  0  0  0
  -27.5110  -21.2990   19.1620 C   0  0  0  0  0  0  0  0  0  0  0  0
  -26.1570  -22.2910   17.5180 C   0  0  0  0  0  2  0  0  0  0  0  0
  -26.4220  -23.3320   18.6140 C   0  0  0  0  0  2  0  0  0  0  0  0
  -28.3110  -20.4680   20.1580 C   0  0  0  0  0  1  0  0  0  0  0  0
  -27.4470  -22.7380   19.5060 N   0  0  2  0  0  4  0  0  0  0  0  0
  -27.0850  -22.8150   20.4450 H   0  0  0  0  0  0  0  0  0  0  0  0
  -26.4900  -19.7280   17.3770 C   0  0  0  0  0  0  0  0  0  0  0  0
  -25.5300  -18.6370   15.4610 C   0  0  0  0  0  1  0  0  0  0  0  0
  -25.9530  -19.8040   16.2190 N   0  0  0  0  0  0  0  0  0  0  0  0
  -26.7940  -18.3980   18.0790 C   0  0  0  0  0  2  0  0  0  0  0  0
  -28.1620  -17.7520   17.7540 C   0  0  0  0  0  2  0  0  0  0  0  0
  -30.1330  -19.1300   17.2150 C   0  0  0  0  0  1  0  0  0  0  0  0
  -29.3630  -18.4650   18.2950 N   0  0  2  0  0  4  0  0  0  0  0  0
  -29.0650  -19.2020   18.9140 H   0  0  0  0  0  0  0  0  0  0  0  0
  -30.2240  -17.5530   19.0950 C   0  0  0  0  0  2  0  0  0  0  0  0
  -29.7980  -17.4270   20.5910 C   0  0  0  0  0  2  0  0  0  0  0  0
  -30.7080  -15.0960   20.7170 C   0  0  0  0  0  0  0  0  0  0  0  0
  -30.5440  -12.9990   19.4540 C   0  0  0  0  0  2  0  0  0  0  0  0
  -29.6330  -13.2600   18.2340 C   0  0  0  0  0  2  0  0  0  0  0  0
  -28.1490  -13.0560   18.6030 C   0  0  0  0  0  2  0  0  0  0  0  0
  -27.7440  -13.8030   19.9030 C   0  0  0  0  0  3  0  0  0  0  0  0
  -28.7690  -13.5270   21.0310 C   0  0  0  0  0  2  0  0  0  0  0  0
  -30.1090  -13.8930   20.5330 N   0  0  0  0  0  0  0  0  0  0  0  0
  -31.8300  -15.3850   20.2940 O   0  0  0  0  0  0  0  0  0  0  0  0
  -29.8470  -16.0500   21.0910 N   0  0  0  0  0  0  0  0  0  0  0  0
  -28.9920  -15.7010   21.4980 H   0  0  0  0  0  0  0  0  0  0  0  0
  -25.2940  -14.3050   20.5280 C   0  0  0  0  0  0  0  0  0  0  0  0
  -24.2400  -13.4850   20.8180 C   0  0  0  0  0  0  0  0  0  0  0  0
  -24.7560  -12.1540   20.7650 C   0  0  0  0  0  0  0  0  0  0  0  0
  -26.3820  -13.4720   20.3130 N   0  0  0  0  0  0  0  0  0  0  0  0
  -26.0580  -12.1700   20.5070 N   0  0  0  0  0  0  0  0  0  0  0  0
  -24.0770  -10.8580   20.8850 C   0  0  0  0  0  0  0  0  0  0  0  0
  -24.4980   -9.8880   21.8190 C   0  0  0  0  0  3  0  0  0  0  0  0
  -23.8180   -8.6570   21.9270 C   0  0  0  0  0  3  0  0  0  0  0  0
  -22.7020   -8.3880   21.0990 C   0  0  0  0  0  0  0  0  0  0  0  0
  -22.3020   -9.3490   20.1540 C   0  0  0  0  0  3  0  0  0  0  0  0
  -22.9850  -10.5710   20.0430 C   0  0  0  0  0  3  0  0  0  0  0  0
  -21.9970   -7.2100   21.1150 O   0  0  0  0  0  0  0  0  0  0  0  0
  -21.8710   -6.4620   22.2590 C   0  0  0  0  0  0  0  0  0  0  0  0
  -21.3080   -6.9960   23.4380 C   0  0  0  0  0  3  0  0  0  0  0  0
  -21.1280   -6.1720   24.5670 C   0  0  0  0  0  3  0  0  0  0  0  0
  -21.5040   -4.8150   24.5180 C   0  0  0  0  0  0  0  0  0  0  0  0
  -22.0630   -4.2830   23.3410 C   0  0  0  0  0  3  0  0  0  0  0  0
  -22.2390   -5.1040   22.2140 C   0  0  0  0  0  0  0  0  0  0  0  0
  -22.7570   -4.5800   21.0760 F   0  0  0  0  0  0  0  0  0  0  0  0
  -21.3290   -4.0220   25.5980 F   0  0  0  0  0  0  0  0  0  0  0  0
  -22.8170  -13.9000   21.0540 C   0  0  0  0  0  0  0  0  0  0  0  0
  -22.0880  -13.1540   21.8760 N   0  0  0  0  0  0  0  0  0  0  0  0
  -22.3550  -14.9210   20.5430 O   0  0  0  0  0  0  0  0  0  0  0  0
  -22.4710  -12.3220   22.3020 H   0  0  0  0  0  0  0  0  0  0  0  0
  -21.1290  -13.4040   22.0750 H   0  0  0  0  0  0  0  0  0  0  0  0
  -25.4120  -15.6880   20.4170 N   0  0  0  0  0  0  0  0  0  0  0  0
  -24.6280  -16.3010   20.6100 H   0  0  0  0  0  0  0  0  0  0  0  0
  -26.2940  -16.1740   20.3640 H   0  0  0  0  0  0  0  0  0  0  0  0
  -28.7290  -23.4860   19.4940 C   0  0  0  0  0  2  0  0  0  0  0  0
  -28.6400  -24.7020   20.4300 C   0  0  0  0  0  2  0  0  0  0  0  0
  -29.1030  -26.0110   19.7790 C   0  0  0  0  0  2  0  0  0  0  0  0
  -28.8160  -27.0960   20.6510 O   0  0  0  0  0  0  0  0  0  0  0  0
  -24.6980  -32.1070   23.5030 C   0  0  0  0  0  0  0  0  0  0  0  0
  -27.5750  -27.6940   20.6100 C   0  0  0  0  0  0  0  0  0  0  0  0
  -23.5810  -30.6240   21.8670 C   0  0  0  0  0  3  0  0  0  0  0  0
  -25.1180  -29.0920   20.5310 C   0  0  0  0  0  0  0  0  0  0  0  0
  -26.0960  -31.0540   21.7370 C   0  0  0  0  0  2  0  0  0  0  0  0
  -26.2380  -29.6720   21.1390 C   0  0  0  0  0  0  0  0  0  0  0  0
  -27.4610  -28.9750   21.1860 C   0  0  0  0  0  3  0  0  0  0  0  0
  -26.4280  -27.1090   20.0190 C   0  0  0  0  0  3  0  0  0  0  0  0
  -25.2060  -27.8030   19.9800 C   0  0  0  0  0  3  0  0  0  0  0  0
  -23.8460  -29.9120   20.5130 C   0  0  0  0  0  2  0  0  0  0  0  0
  -24.8070  -31.2780   22.4280 N   0  0  0  0  0  0  0  0  0  0  0  0
  -23.5940  -32.3650   24.0010 O   0  0  0  0  0  0  0  0  0  0  0  0
  -22.9330  -29.6090   22.8360 C   0  0  0  0  0  0  0  0  0  0  0  0
  -21.6440  -29.3100   22.6070 N   0  0  0  0  0  0  0  0  0  0  0  0
  -23.5900  -29.0900   23.7420 O   0  0  0  0  0  0  0  0  0  0  0  0
  -21.1810  -29.7770   21.8410 H   0  0  0  0  0  0  0  0  0  0  0  0
  -18.3560  -27.8410   22.8620 C   0  0  0  0  0  0  0  0  0  0  0  0
  -20.8370  -28.3560   23.3670 C   0  0  0  0  0  3  0  0  0  0  0  0
  -21.1260  -26.9080   22.9170 C   0  0  0  0  0  2  0  0  0  0  0  0
  -20.1710  -26.4110   21.8270 C   0  0  0  0  0  2  0  0  0  0  0  0
  -18.7210  -26.4690   22.3160 C   0  0  0  0  0  2  0  0  0  0  0  0
  -19.3530  -28.7330   23.3380 C   0  0  0  0  0  0  0  0  0  0  0  0
  -18.9660  -30.0090   23.8020 C   0  0  0  0  0  3  0  0  0  0  0  0
  -17.6140  -30.4000   23.7930 C   0  0  0  0  0  3  0  0  0  0  0  0
  -16.6280  -29.5060   23.3380 C   0  0  0  0  0  3  0  0  0  0  0  0
  -17.0000  -28.2280   22.8810 C   0  0  0  0  0  3  0  0  0  0  0  0
  -25.9500  -32.7860   24.1400 C   0  0  0  0  0  3  0  0  0  0  0  0
  -26.4280  -32.0900   25.4740 C   0  0  1  0  0  0  0  0  0  0  0  0
  -25.2840  -31.8510   26.4870 C   0  0  0  0  0  1  0  0  0  0  0  0
  -27.0880  -30.7240   25.1730 C   0  0  0  0  0  1  0  0  0  0  0  0
  -27.5060  -32.9590   26.1610 C   0  0  0  0  0  1  0  0  0  0  0  0
  -25.6110  -34.1950   24.3810 N   0  0  0  0  0  0  0  0  0  0  0  0
  -25.9520  -35.2070   23.5730 C   0  0  0  0  0  0  0  0  0  0  0  0
  -26.6580  -35.0570   22.5720 O   0  0  0  0  0  0  0  0  0  0  0  0
  -24.9940  -34.3830   25.1580 H   0  0  0  0  0  0  0  0  0  0  0  0
  -24.1970  -36.9320   23.0660 C   0  0  0  0  0  1  0  0  0  0  0  0
  -25.4250  -36.6090   23.9310 C   0  0  0  0  0  3  0  0  0  0  0  0
  -27.5190  -37.5880   24.7600 C   0  0  0  0  0  1  0  0  0  0  0  0
  -26.4410  -37.6740   23.7800 N   0  0  0  0  0  0  0  0  0  0  0  0
  -26.0150  -38.5930   23.8590 H   0  0  0  0  0  0  0  0  0  0  0  0
  1  2  2  0
  2  6  1  0
  2  5  1  0
  3  1  1  0
  3  4  1  0
  4  6  1  0
  6  7  1  1
  8  1  1  0
  8 11  1  0
  9 10  1  0
 10  8  2  0
 12 11  1  0
 12 14  1  0
 13 14  1  0
 14 15  1  1
 14 16  1  0
 16 17  1  0
 17 26  1  0
 18 26  1  0
 19 24  1  0
 20 21  1  0
 20 19  1  0
 22 21  1  0
 22 31  1  0
 22 23  1  0
 24 18  1  0
 24 23  1  0
 25 18  2  0
 26 27  1  0
 28 29  2  0
 29 48  1  0
 30 29  1  0
 30 33  1  0
 31 32  1  0
 31 28  1  0
 32 30  2  0
 33 34  1  0
 34 35  2  0
 36 39  1  0
 36 35  1  0
 37 36  2  0
 38 37  1  0
 38 33  2  0
 39 40  1  0
 40 41  1  0
 41 42  2  0
 43 42  1  0
 43 47  1  0
 44 43  2  0
 45 40  2  0
 45 44  1  0
 46 45  1  0
 48 49  1  0
 49 52  1  0
 49 51  1  0
 50 48  2  0
 53 28  1  0
 53 54  1  0
 55 53  1  0
 56  6  1  0
 56 57  1  0
 58 57  1  0
 58 59  1  0
 60 71  2  0
 61 59  1  0
 61 66  1  0
 62 70  1  0
 62 72  1  0
 63 65  1  0
 64 70  1  0
 65 66  2  0
 65 64  1  0
 67 61  2  0
 68 67  1  0
 68 63  2  0
 69 63  1  0
 69 62  1  0
 70 60  1  0
 72 74  2  0
 73 72  1  0
 75 73  1  0
 76 85  2  0
 76 81  1  0
 77 73  1  0
 78 77  1  0
 79 80  1  0
 79 78  1  0
 80 76  1  0
 81 77  1  0
 81 82  2  0
 83 82  1  0
 84 83  2  0
 85 84  1  0
 86 60  1  0
 86 91  1  0
 86 87  1  0
 87 90  1  1
 87 88  1  0
 89 87  1  0
 91 94  1  0
 92 96  1  0
 92 91  1  0
 93 92  2  0
 96 95  1  0
 98 99  1  0
 98 96  1  0
 98 97  1  0
M  ISO  4  18 100  26 100  58 101  59 101
M  END
>  <TORSDO>  (74) 
F 25

>  <SCORE>  (74) 
-8.818

>  <name>  (74) 
74

>  <ligand_id>  (74) 
74

>  <original_smiles>  (74) 
[H]c1c([H])c([H])c2c(c1[H])C([H])([H])C([H])([H])C([H])([H])C2([H])N([H])C(=O)C1([H])N(C(=O)C([H])(N([H])C(=O)C([H])(N([H])C([H])([H])[H])C([H])([H])[H])C(C([H])([H])[H])(C([H])([H])[H])C([H])([H])[H])C([H])([H])c2c([H])c(OC([H])([H])C([H])([H])C([H])([H])[N+]3([H])C(C([H])([H])[H])=C(C(=NC([H])([H])[H])C([H])([H])C([H])([H])[N+]([H])(C([H])([H])[H])C([H])([H])C([H])([H])N([H])C(=O)N4C([H])([H])C([H])([H])C([H])([H])C([H])(n5nc(-c6c([H])c([H])c(Oc7c([H])c([H])c(F)c([H])c7F)c([H])c6[H])c(C(=O)N([H])[H])c5N([H])[H])C4([H])[H])C([H])([H])C3([H])[H])c([H])c([H])c2C1([H])[H]

>  <smiles>  (74) 
[H]c1c([H])c([H])c2c(c1[H])C([H])([H])C([H])([H])C([H])([H])C2([H])N([H])C(=O)C1([H])N(C(=O)C([H])(N([H])C(=O)C([H])(N([H])C([H])([H])[H])C([H])([H])[H])C(C([H])([H])[H])(C([H])([H])[H])C([H])([H])[H])C([H])([H])c2c([H])c(OC([H])([H])C([H])([H])C([H])([H])[N+]3([H])C(C([H])([H])[H])=C(C(=NC([H])([H])[H])C([H])([H])C([H])([H])[N+]([H])(C([H])([H])[H])C([H])([H])C([H])([H])N([H])C(=O)N4C([H])([H])C([H])([H])C([H])([H])C([H])(n5nc(-c6c([H])c([H])c(Oc7c([H])c([H])c(F)c([H])c7F)c([H])c6[H])c(C(=O)N([H])[H])c5N([H])[H])C4([H])[H])C([H])([H])C3([H])[H])c([H])c([H])c2C1([H])[H]

$$$$
75:0:0
     RDKit          3D

 95104  0  0  1  0  0  0  0  0999 V2000
  -30.0910  -20.2750   22.0410 C   0  0  0  0  0  2  0  0  0  0  0  0
  -29.8180  -21.3990   20.2560 C   0  0  0  0  0  3  0  0  0  0  0  0
  -30.7510  -21.5350   21.4610 C   0  0  0  0  0  3  0  0  0  0  0  0
  -29.3220  -20.0620   20.8120 N   0  0  1  0  0  4  0  0  0  0  0  0
  -28.3380  -20.1230   21.0210 H   0  0  0  0  0  0  0  0  0  0  0  0
  -27.5970  -23.5330   17.9420 C   0  0  0  0  0  3  0  0  0  0  0  0
  -28.1850  -22.4420   18.6050 C   0  0  0  0  0  3  0  0  0  0  0  0
  -27.6730  -24.8360   18.4700 C   0  0  0  0  0  3  0  0  0  0  0  0
  -28.8730  -23.9650   20.3810 C   0  0  0  0  0  3  0  0  0  0  0  0
  -28.8870  -22.6170   19.8140 C   0  0  0  0  0  0  0  0  0  0  0  0
  -28.2340  -25.1090   19.7430 C   0  0  0  0  0  0  0  0  0  0  0  0
  -28.2540  -26.4630   20.2310 O   0  0  0  0  0  0  0  0  0  0  0  0
  -24.6210  -31.9680   23.3520 C   0  0  0  0  0  0  0  0  0  0  0  0
  -27.1410  -27.3470   20.2320 C   0  0  0  0  0  0  0  0  0  0  0  0
  -23.3950  -30.6080   21.7060 C   0  0  0  0  0  3  0  0  0  0  0  0
  -24.8130  -29.0490   20.2640 C   0  0  0  0  0  0  0  0  0  0  0  0
  -25.9490  -30.8710   21.5200 C   0  0  0  0  0  2  0  0  0  0  0  0
  -26.0020  -29.4970   20.8520 C   0  0  0  0  0  0  0  0  0  0  0  0
  -27.1700  -28.6630   20.8170 C   0  0  0  0  0  3  0  0  0  0  0  0
  -25.8970  -26.9530   19.6830 C   0  0  0  0  0  3  0  0  0  0  0  0
  -24.7640  -27.7830   19.6730 C   0  0  0  0  0  3  0  0  0  0  0  0
  -23.5970  -29.9530   20.3180 C   0  0  0  0  0  2  0  0  0  0  0  0
  -24.6760  -31.1650   22.2480 N   0  0  0  0  0  0  0  0  0  0  0  0
  -23.5410  -32.2580   23.8850 O   0  0  0  0  0  0  0  0  0  0  0  0
  -22.7160  -29.5900   22.6540 C   0  0  0  0  0  0  0  0  0  0  0  0
  -21.3920  -29.4080   22.5020 N   0  0  0  0  0  0  0  0  0  0  0  0
  -23.3790  -28.9670   23.4870 O   0  0  0  0  0  0  0  0  0  0  0  0
  -20.9150  -29.9610   21.8030 H   0  0  0  0  0  0  0  0  0  0  0  0
  -18.0070  -28.2110   22.9480 C   0  0  0  0  0  0  0  0  0  0  0  0
  -20.5600  -28.4720   23.2610 C   0  0  0  0  0  3  0  0  0  0  0  0
  -20.6740  -27.0390   22.6910 C   0  0  0  0  0  2  0  0  0  0  0  0
  -19.5900  -26.7130   21.6590 C   0  0  0  0  0  2  0  0  0  0  0  0
  -18.1970  -26.8590   22.2790 C   0  0  0  0  0  2  0  0  0  0  0  0
  -19.1170  -28.9750   23.3950 C   0  0  0  0  0  0  0  0  0  0  0  0
  -18.8870  -30.2390   23.9790 C   0  0  0  0  0  3  0  0  0  0  0  0
  -17.5790  -30.7400   24.1210 C   0  0  0  0  0  3  0  0  0  0  0  0
  -16.4830  -29.9730   23.6910 C   0  0  0  0  0  3  0  0  0  0  0  0
  -16.6970  -28.7100   23.1100 C   0  0  0  0  0  3  0  0  0  0  0  0
  -25.9110  -32.5770   23.9790 C   0  0  0  0  0  3  0  0  0  0  0  0
  -26.3920  -31.8100   25.2720 C   0  0  1  0  0  0  0  0  0  0  0  0
  -25.2800  -31.6110   26.3280 C   0  0  0  0  0  1  0  0  0  0  0  0
  -26.9490  -30.4150   24.9060 C   0  0  0  0  0  1  0  0  0  0  0  0
  -27.5520  -32.5860   25.9380 C   0  0  0  0  0  1  0  0  0  0  0  0
  -25.6290  -33.9860   24.2910 N   0  0  0  0  0  0  0  0  0  0  0  0
  -25.9850  -35.0230   23.5220 C   0  0  0  0  0  0  0  0  0  0  0  0
  -26.6540  -34.8920   22.4920 O   0  0  0  0  0  0  0  0  0  0  0  0
  -25.0360  -34.1630   25.0890 H   0  0  0  0  0  0  0  0  0  0  0  0
  -24.3020  -36.8530   23.1390 C   0  0  0  0  0  1  0  0  0  0  0  0
  -25.5290  -36.4270   23.9630 C   0  0  0  0  0  3  0  0  0  0  0  0
  -27.6710  -37.2770   24.8110 C   0  0  0  0  0  1  0  0  0  0  0  0
  -26.5880  -37.4540   23.8470 N   0  0  0  0  0  0  0  0  0  0  0  0
  -26.2010  -38.3860   23.9720 H   0  0  0  0  0  0  0  0  0  0  0  0
  -32.2280  -21.4550   21.1650 C   0  0  0  0  0  0  0  0  0  0  0  0
  -32.7630  -22.5400   20.2360 C   0  0  0  0  0  1  0  0  0  0  0  0
  -33.0120  -20.6080   21.5990 O   0  0  0  0  0  0  0  0  0  0  0  0
  -29.6200  -18.7400   20.0750 C   0  0  0  0  0  3  0  0  0  0  0  0
  -29.7630  -17.3230   20.8920 C   0  0  0  0  0  3  0  0  0  0  0  0
  -30.5990  -14.8560   20.4310 C   0  0  0  0  0  0  0  0  0  0  0  0
  -30.4830  -12.5260   19.5330 C   0  0  0  0  0  2  0  0  0  0  0  0
  -29.5720  -12.4520   18.2860 C   0  0  0  0  0  2  0  0  0  0  0  0
  -28.0780  -12.3600   18.6710 C   0  0  0  0  0  2  0  0  0  0  0  0
  -27.6610  -13.2800   19.8510 C   0  0  0  0  0  3  0  0  0  0  0  0
  -28.6980  -13.2720   20.9890 C   0  0  0  0  0  2  0  0  0  0  0  0
  -29.9940  -13.6200   20.3950 N   0  0  0  0  0  0  0  0  0  0  0  0
  -31.8270  -14.9470   20.3360 O   0  0  0  0  0  0  0  0  0  0  0  0
  -29.4740  -16.1560   18.7380 C   0  0  0  0  0  1  0  0  0  0  0  0
  -29.8080  -15.9760   20.1580 N   0  0  0  0  0  0  0  0  0  0  0  0
  -25.2570  -13.8550   20.5370 C   0  0  0  0  0  0  0  0  0  0  0  0
  -24.1900  -13.0740   20.8830 C   0  0  0  0  0  0  0  0  0  0  0  0
  -24.6670  -11.7270   20.8710 C   0  0  0  0  0  0  0  0  0  0  0  0
  -26.3120  -12.9840   20.3270 N   0  0  0  0  0  0  0  0  0  0  0  0
  -25.9630  -11.7000   20.5960 N   0  0  0  0  0  0  0  0  0  0  0  0
  -23.9530  -10.4570   21.0470 C   0  0  0  0  0  0  0  0  0  0  0  0
  -24.3580   -9.5140   22.0180 C   0  0  0  0  0  3  0  0  0  0  0  0
  -23.6470   -8.3070   22.1830 C   0  0  0  0  0  3  0  0  0  0  0  0
  -22.5160   -8.0350   21.3760 C   0  0  0  0  0  0  0  0  0  0  0  0
  -22.1320   -8.9670   20.3960 C   0  0  0  0  0  3  0  0  0  0  0  0
  -22.8440  -10.1660   20.2290 C   0  0  0  0  0  3  0  0  0  0  0  0
  -21.7760   -6.8790   21.4490 O   0  0  0  0  0  0  0  0  0  0  0  0
  -21.6610   -6.1720   22.6190 C   0  0  0  0  0  0  0  0  0  0  0  0
  -21.0980   -6.7390   23.7840 C   0  0  0  0  0  3  0  0  0  0  0  0
  -20.9350   -5.9530   24.9400 C   0  0  0  0  0  3  0  0  0  0  0  0
  -21.3210   -4.6000   24.9350 C   0  0  0  0  0  0  0  0  0  0  0  0
  -21.8760   -4.0310   23.7750 C   0  0  0  0  0  3  0  0  0  0  0  0
  -22.0430   -4.8140   22.6190 C   0  0  0  0  0  0  0  0  0  0  0  0
  -22.5560   -4.2550   21.4980 F   0  0  0  0  0  0  0  0  0  0  0  0
  -21.1580   -3.8430   26.0450 F   0  0  0  0  0  0  0  0  0  0  0  0
  -22.7810  -13.5360   21.1210 C   0  0  0  0  0  0  0  0  0  0  0  0
  -22.0350  -12.8230   21.9570 N   0  0  0  0  0  0  0  0  0  0  0  0
  -22.3490  -14.5620   20.5960 O   0  0  0  0  0  0  0  0  0  0  0  0
  -22.3980  -11.9900   22.3980 H   0  0  0  0  0  0  0  0  0  0  0  0
  -21.0880  -13.1090   22.1570 H   0  0  0  0  0  0  0  0  0  0  0  0
  -25.4180  -15.2270   20.3530 N   0  0  0  0  0  0  0  0  0  0  0  0
  -24.6560  -15.8880   20.4420 H   0  0  0  0  0  0  0  0  0  0  0  0
  -26.2850  -15.6610   20.0630 H   0  0  0  0  0  0  0  0  0  0  0  0
  2 10  1  0
  2  4  1  0
  2  3  1  0
  3 53  1  0
  3  1  1  0
  4  5  1  1
  4  1  1  0
  6  8  2  0
  6  7  1  0
  7 10  2  0
  8 11  1  0
 10  9  1  0
 11 12  1  0
 11  9  2  0
 12 14  1  0
 13 24  2  0
 14 19  1  0
 15 23  1  0
 15 25  1  0
 16 22  1  0
 16 18  1  0
 17 23  1  0
 18 17  1  0
 19 18  2  0
 20 14  2  0
 21 20  1  0
 21 16  2  0
 22 15  1  0
 23 13  1  0
 25 27  2  0
 26 25  1  0
 28 26  1  0
 29 38  2  0
 29 34  1  0
 30 26  1  0
 30 34  1  0
 31 30  1  0
 32 33  1  0
 32 31  1  0
 33 29  1  0
 34 35  2  0
 35 36  1  0
 37 36  2  0
 38 37  1  0
 39 13  1  0
 39 44  1  0
 39 40  1  0
 40 43  1  1
 40 41  1  0
 42 40  1  0
 44 47  1  0
 45 49  1  0
 45 44  1  0
 46 45  2  0
 49 48  1  0
 51 49  1  0
 51 52  1  0
 51 50  1  0
 53 55  2  0
 54 53  1  0
 56  4  1  0
 56 57  2  0
 59 64  1  0
 60 61  1  0
 60 59  1  0
 62 61  1  0
 62 71  1  0
 62 63  1  0
 64 58  1  0
 64 63  1  0
 65 58  2  0
 66 67  1  0
 67 58  1  0
 67 57  1  0
 68 69  2  0
 69 88  1  0
 70 69  1  0
 70 73  1  0
 71 68  1  0
 71 72  1  0
 72 70  2  0
 73 74  1  0
 74 75  2  0
 76 79  1  0
 76 75  1  0
 77 76  2  0
 78 77  1  0
 78 73  2  0
 79 80  1  0
 80 85  2  0
 80 81  1  0
 81 82  2  0
 83 82  1  0
 83 87  1  0
 84 83  2  0
 85 84  1  0
 86 85  1  0
 88 89  1  0
 89 92  1  0
 89 91  1  0
 90 88  2  0
 93 94  1  0
 93 68  1  0
 95 93  1  0
M  ISO  4  11 101  12 101  58 100  67 100
M  END
>  <TORSDO>  (75) 
F 20

>  <SCORE>  (75) 
-13.620

>  <name>  (75) 
75

>  <ligand_id>  (75) 
75

>  <original_smiles>  (75) 
[H]c1c([H])c([H])c2c(c1[H])C([H])([H])C([H])([H])C([H])([H])C2([H])N([H])C(=O)C1([H])N(C(=O)C([H])(N([H])C(=O)C([H])(N([H])C([H])([H])[H])C([H])([H])[H])C(C([H])([H])[H])(C([H])([H])[H])C([H])([H])[H])C([H])([H])c2c([H])c(Oc3c([H])c([H])c([H])c(C4([H])C([H])(C(=O)C([H])([H])[H])C([H])([H])[N+]4([H])C([H])([H])C([H])([H])N(C(=O)N4C([H])([H])C([H])([H])C([H])([H])C([H])(n5nc(-c6c([H])c([H])c(Oc7c([H])c([H])c(F)c([H])c7F)c([H])c6[H])c(C(=O)N([H])[H])c5N([H])[H])C4([H])[H])C([H])([H])[H])c3[H])c([H])c([H])c2C1([H])[H]

>  <smiles>  (75) 
[H]c1c([H])c([H])c2c(c1[H])C([H])([H])C([H])([H])C([H])([H])C2([H])N([H])C(=O)C1([H])N(C(=O)C([H])(N([H])C(=O)C([H])(N([H])C([H])([H])[H])C([H])([H])[H])C(C([H])([H])[H])(C([H])([H])[H])C([H])([H])[H])C([H])([H])c2c([H])c(Oc3c([H])c([H])c([H])c(C4([H])C([H])(C(=O)C([H])([H])[H])C([H])([H])[N+]4([H])C([H])([H])C([H])([H])N(C(=O)N4C([H])([H])C([H])([H])C([H])([H])C([H])(n5nc(-c6c([H])c([H])c(Oc7c([H])c([H])c(F)c([H])c7F)c([H])c6[H])c(C(=O)N([H])[H])c5N([H])[H])C4([H])[H])C([H])([H])[H])c3[H])c([H])c([H])c2C1([H])[H]

$$$$
76:0:0
     RDKit          3D

 95103  0  0  1  0  0  0  0  0999 V2000
  -28.4570  -18.8780   19.5440 C   0  0  0  0  0  2  0  0  0  0  0  0
  -28.0970  -20.3730   19.7720 C   0  0  0  0  0  2  0  0  0  0  0  0
  -30.2600  -20.0050   20.5530 C   0  0  0  0  0  2  0  0  0  0  0  0
  -29.5980  -18.5340   20.5260 C   0  0  2  0  0  0  0  0  0  0  0  0
  -29.3750  -21.0630   19.9430 N   0  0  0  0  0  0  0  0  0  0  0  0
  -30.8660  -14.7960   19.8460 C   0  0  0  0  0  0  0  0  0  0  0  0
  -30.5420  -12.5440   18.8150 C   0  0  0  0  0  2  0  0  0  0  0  0
  -29.5150  -12.6550   17.6670 C   0  0  0  0  0  2  0  0  0  0  0  0
  -28.0850  -12.4730   18.2120 C   0  0  0  0  0  2  0  0  0  0  0  0
  -27.8110  -13.3400   19.4700 C   0  0  0  0  0  3  0  0  0  0  0  0
  -28.9560  -13.2400   20.5030 C   0  0  0  0  0  2  0  0  0  0  0  0
  -30.2050  -13.5880   19.8150 N   0  0  0  0  0  0  0  0  0  0  0  0
  -32.0190  -14.8420   19.4120 O   0  0  0  0  0  0  0  0  0  0  0  0
  -30.5150  -17.2890   20.0520 C   0  0  0  0  0  0  0  0  0  0  0  0
  -30.1500  -15.9470   20.1880 N   0  0  0  0  0  0  0  0  0  0  0  0
  -31.6030  -17.5990   19.5580 O   0  0  0  0  0  0  0  0  0  0  0  0
  -29.2200  -15.7510   20.5140 H   0  0  0  0  0  0  0  0  0  0  0  0
  -25.5070  -13.9210   20.4320 C   0  0  0  0  0  0  0  0  0  0  0  0
  -24.4690  -13.1430   20.8670 C   0  0  0  0  0  0  0  0  0  0  0  0
  -24.9090  -11.7900   20.7390 C   0  0  0  0  0  0  0  0  0  0  0  0
  -26.5120  -13.0420   20.0630 N   0  0  0  0  0  0  0  0  0  0  0  0
  -26.1650  -11.7530   20.3120 N   0  0  0  0  0  0  0  0  0  0  0  0
  -24.1850  -10.5270   20.9370 C   0  0  0  0  0  0  0  0  0  0  0  0
  -24.6150   -9.5670   21.8780 C   0  0  0  0  0  3  0  0  0  0  0  0
  -23.8900   -8.3720   22.0680 C   0  0  0  0  0  3  0  0  0  0  0  0
  -22.7170   -8.1260   21.3140 C   0  0  0  0  0  0  0  0  0  0  0  0
  -22.3050   -9.0750   20.3610 C   0  0  0  0  0  3  0  0  0  0  0  0
  -23.0330  -10.2610   20.1710 C   0  0  0  0  0  3  0  0  0  0  0  0
  -21.9630   -6.9820   21.4100 O   0  0  0  0  0  0  0  0  0  0  0  0
  -21.8230   -6.3100   22.5990 C   0  0  0  0  0  0  0  0  0  0  0  0
  -21.2570   -6.9210   23.7390 C   0  0  0  0  0  3  0  0  0  0  0  0
  -21.0670   -6.1720   24.9180 C   0  0  0  0  0  3  0  0  0  0  0  0
  -21.4350   -4.8140   24.9570 C   0  0  0  0  0  0  0  0  0  0  0  0
  -21.9950   -4.2030   23.8220 C   0  0  0  0  0  3  0  0  0  0  0  0
  -22.1870   -4.9490   22.6450 C   0  0  0  0  0  0  0  0  0  0  0  0
  -22.7070   -4.3490   21.5480 F   0  0  0  0  0  0  0  0  0  0  0  0
  -21.2460   -4.0940   26.0870 F   0  0  0  0  0  0  0  0  0  0  0  0
  -23.1060  -13.6220   21.2770 C   0  0  0  0  0  0  0  0  0  0  0  0
  -22.4440  -12.9030   22.1760 N   0  0  0  0  0  0  0  0  0  0  0  0
  -22.6380  -14.6700   20.8330 O   0  0  0  0  0  0  0  0  0  0  0  0
  -22.8350  -12.0550   22.5590 H   0  0  0  0  0  0  0  0  0  0  0  0
  -21.5330  -13.2100   22.4870 H   0  0  0  0  0  0  0  0  0  0  0  0
  -25.6740  -15.2970   20.2920 N   0  0  0  0  0  0  0  0  0  0  0  0
  -24.8850  -15.9230   20.4200 H   0  0  0  0  0  0  0  0  0  0  0  0
  -26.3900  -15.6900   19.6940 H   0  0  0  0  0  0  0  0  0  0  0  0
  -29.0710  -18.2280   21.8770 N   0  0  0  0  0  4  0  0  0  0  0  0
  -28.3900  -17.4920   21.8720 H   0  0  0  0  0  0  0  0  0  0  0  0
  -28.6390  -19.0370   22.2840 H   0  0  0  0  0  0  0  0  0  0  0  0
  -29.8190  -17.9480   22.4870 H   0  0  0  0  0  0  0  0  0  0  0  0
  -29.3100  -22.4380   20.5870 C   0  0  0  0  0  3  0  0  0  0  0  0
  -28.7940  -23.7580   19.7900 C   0  0  0  0  0  3  0  0  0  0  0  0
  -29.8380  -25.4370   21.4400 C   0  0  0  0  0  1  0  0  0  0  0  0
  -27.3830  -24.9720   21.5580 C   0  0  0  0  0  1  0  0  0  0  0  0
  -28.5800  -25.1560   20.5980 C   0  0  2  0  0  0  0  0  0  0  0  0
  -28.4930  -26.4500   19.8350 O   0  0  0  0  0  0  0  0  0  0  0  0
  -24.6490  -31.7200   23.0390 C   0  0  0  0  0  0  0  0  0  0  0  0
  -27.3630  -27.2900   19.8740 C   0  0  0  0  0  0  0  0  0  0  0  0
  -23.4820  -30.3540   21.3440 C   0  0  0  0  0  3  0  0  0  0  0  0
  -24.9740  -28.8700   19.8850 C   0  0  0  0  0  0  0  0  0  0  0  0
  -26.0190  -30.7220   21.1910 C   0  0  0  0  0  2  0  0  0  0  0  0
  -26.1310  -29.3620   20.5070 C   0  0  0  0  0  0  0  0  0  0  0  0
  -27.3300  -28.5850   20.4880 C   0  0  0  0  0  3  0  0  0  0  0  0
  -26.1910  -26.8580   19.2260 C   0  0  0  0  0  3  0  0  0  0  0  0
  -25.0060  -27.6250   19.2350 C   0  0  0  0  0  3  0  0  0  0  0  0
  -23.7230  -29.7260   19.9450 C   0  0  0  0  0  2  0  0  0  0  0  0
  -24.7350  -30.9480   21.9160 N   0  0  0  0  0  0  0  0  0  0  0  0
  -23.5570  -31.9610   23.5730 O   0  0  0  0  0  0  0  0  0  0  0  0
  -22.8300  -29.2970   22.2660 C   0  0  0  0  0  0  0  0  0  0  0  0
  -21.5000  -29.1380   22.1610 N   0  0  0  0  0  0  0  0  0  0  0  0
  -23.5190  -28.6220   23.0360 O   0  0  0  0  0  0  0  0  0  0  0  0
  -21.0010  -29.7380   21.5190 H   0  0  0  0  0  0  0  0  0  0  0  0
  -18.1200  -27.9750   22.7300 C   0  0  0  0  0  0  0  0  0  0  0  0
  -20.6910  -28.1670   22.9000 C   0  0  0  0  0  3  0  0  0  0  0  0
  -20.7370  -26.7770   22.2230 C   0  0  0  0  0  2  0  0  0  0  0  0
  -19.5820  -26.5490   21.2420 C   0  0  0  0  0  2  0  0  0  0  0  0
  -18.2370  -26.6690   21.9650 C   0  0  0  0  0  2  0  0  0  0  0  0
  -19.2730  -28.6870   23.1550 C   0  0  0  0  0  0  0  0  0  0  0  0
  -19.1110  -29.9150   23.8310 C   0  0  0  0  0  3  0  0  0  0  0  0
  -17.8270  -30.4320   24.0870 C   0  0  0  0  0  3  0  0  0  0  0  0
  -16.6880  -29.7150   23.6800 C   0  0  0  0  0  3  0  0  0  0  0  0
  -16.8340  -28.4870   23.0100 C   0  0  0  0  0  3  0  0  0  0  0  0
  -25.9150  -32.3550   23.6930 C   0  0  0  0  0  3  0  0  0  0  0  0
  -26.4290  -31.5590   24.9550 C   0  0  1  0  0  0  0  0  0  0  0  0
  -25.3280  -31.2850   26.0060 C   0  0  0  0  0  1  0  0  0  0  0  0
  -27.0340  -30.1980   24.5390 C   0  0  0  0  0  1  0  0  0  0  0  0
  -27.5620  -32.3510   25.6480 C   0  0  0  0  0  1  0  0  0  0  0  0
  -25.5800  -33.7400   24.0570 N   0  0  0  0  0  0  0  0  0  0  0  0
  -25.8970  -34.8170   23.3270 C   0  0  0  0  0  0  0  0  0  0  0  0
  -26.5710  -34.7520   22.2960 O   0  0  0  0  0  0  0  0  0  0  0  0
  -24.9830  -33.8640   24.8610 H   0  0  0  0  0  0  0  0  0  0  0  0
  -24.1480  -36.5970   23.0030 C   0  0  0  0  0  1  0  0  0  0  0  0
  -25.3850  -36.1860   23.8170 C   0  0  0  0  0  3  0  0  0  0  0  0
  -27.4920  -37.0810   24.7040 C   0  0  0  0  0  1  0  0  0  0  0  0
  -26.4050  -37.2550   23.7450 N   0  0  0  0  0  0  0  0  0  0  0  0
  -25.9840  -38.1670   23.9060 H   0  0  0  0  0  0  0  0  0  0  0  0
  1  2  1  0
  1  4  1  0
  2  5  1  0
  4 14  1  0
  4  3  1  0
  4 46  1  1
  5  3  1  0
  5 50  1  0
  6 15  1  0
  7 12  1  0
  8  9  1  0
  8  7  1  0
 10  9  1  0
 10 21  1  0
 10 11  1  0
 12  6  1  0
 12 11  1  0
 13  6  2  0
 14 15  1  0
 15 17  1  0
 16 14  2  0
 18 19  2  0
 19 38  1  0
 20 19  1  0
 20 23  1  0
 21 22  1  0
 21 18  1  0
 22 20  2  0
 23 24  1  0
 24 25  2  0
 26 29  1  0
 26 25  1  0
 27 26  2  0
 28 27  1  0
 28 23  2  0
 29 30  1  0
 30 35  2  0
 30 31  1  0
 31 32  2  0
 32 33  1  0
 33 37  1  0
 34 33  2  0
 35 34  1  0
 36 35  1  0
 38 39  1  0
 39 42  1  0
 39 41  1  0
 40 38  2  0
 43 44  1  0
 43 18  1  0
 45 43  1  0
 46 48  1  0
 46 49  1  0
 47 46  1  0
 51 50  2  0
 51 54  1  0
 54 52  1  1
 54 53  1  0
 55 57  1  0
 55 54  1  0
 56 67  2  0
 57 62  1  0
 58 66  1  0
 58 68  1  0
 59 65  1  0
 59 61  1  0
 60 66  1  0
 61 60  1  0
 62 61  2  0
 63 64  1  0
 63 57  2  0
 64 59  2  0
 65 58  1  0
 66 56  1  0
 68 70  2  0
 69 68  1  0
 71 69  1  0
 72 81  2  0
 72 77  1  0
 73 69  1  0
 73 77  1  0
 74 73  1  0
 75 76  1  0
 75 74  1  0
 76 72  1  0
 77 78  2  0
 78 79  1  0
 80 79  2  0
 81 80  1  0
 82 56  1  0
 82 87  1  0
 82 83  1  0
 83 86  1  1
 83 84  1  0
 85 83  1  0
 87 90  1  0
 88 92  1  0
 88 87  1  0
 89 88  2  0
 92 91  1  0
 94 92  1  0
 94 95  1  0
 94 93  1  0
M  ISO  4   6 100  15 100  54 101  55 101
M  END
>  <TORSDO>  (76) 
F 20

>  <SCORE>  (76) 
-12.813

>  <name>  (76) 
76

>  <ligand_id>  (76) 
76

>  <original_smiles>  (76) 
[H]c1c([H])c([H])c2c(c1[H])C([H])([H])C([H])([H])C([H])([H])C2([H])N([H])C(=O)C1([H])N(C(=O)C([H])(N([H])C(=O)C([H])(N([H])C([H])([H])[H])C([H])([H])[H])C(C([H])([H])[H])(C([H])([H])[H])C([H])([H])[H])C([H])([H])c2c([H])c(OC(C([H])([H])[H])(C([H])([H])[H])C([H])([H])C([H])([H])N3C([H])([H])C([H])([H])C(C(=O)N([H])C(=O)N4C([H])([H])C([H])([H])C([H])([H])C([H])(n5nc(-c6c([H])c([H])c(Oc7c([H])c([H])c(F)c([H])c7F)c([H])c6[H])c(C(=O)N([H])[H])c5N([H])[H])C4([H])[H])([N+]([H])([H])[H])C3([H])[H])c([H])c([H])c2C1([H])[H]

>  <smiles>  (76) 
[H]c1c([H])c([H])c2c(c1[H])C([H])([H])C([H])([H])C([H])([H])C2([H])N([H])C(=O)C1([H])N(C(=O)C([H])(N([H])C(=O)C([H])(N([H])C([H])([H])[H])C([H])([H])[H])C(C([H])([H])[H])(C([H])([H])[H])C([H])([H])[H])C([H])([H])c2c([H])c(OC(C([H])([H])[H])(C([H])([H])[H])C([H])([H])C([H])([H])N3C([H])([H])C([H])([H])C(C(=O)N([H])C(=O)N4C([H])([H])C([H])([H])C([H])([H])C([H])(n5nc(-c6c([H])c([H])c(Oc7c([H])c([H])c(F)c([H])c7F)c([H])c6[H])c(C(=O)N([H])[H])c5N([H])[H])C4([H])[H])([N+]([H])([H])[H])C3([H])[H])c([H])c([H])c2C1([H])[H]

$$$$
77:0:0
     RDKit          3D

 95103  0  0  1  0  0  0  0  0999 V2000
  -27.9010  -19.8540   21.3470 C   0  0  0  0  0  1  0  0  0  0  0  0
  -29.7090  -21.0180   22.6470 C   0  0  0  0  0  1  0  0  0  0  0  0
  -29.0840  -20.8480   21.2470 C   0  0  2  0  0  0  0  0  0  0  0  0
  -28.4560  -22.2080   20.7760 C   0  0  0  0  0  2  0  0  0  0  0  0
  -29.2870  -23.5130   20.8720 C   0  0  0  0  0  2  0  0  0  0  0  0
  -28.5450  -24.7340   20.2610 C   0  0  0  0  0  2  0  0  0  0  0  0
  -29.0210  -26.1110   20.7800 C   0  0  0  0  0  2  0  0  0  0  0  0
  -28.7300  -27.1970   19.8950 O   0  0  0  0  0  0  0  0  0  0  0  0
  -24.6180  -31.9760   23.2530 C   0  0  0  0  0  0  0  0  0  0  0  0
  -27.5070  -27.8150   20.0150 C   0  0  0  0  0  0  0  0  0  0  0  0
  -23.4940  -30.5870   21.5420 C   0  0  0  0  0  3  0  0  0  0  0  0
  -25.0310  -29.1790   20.0730 C   0  0  0  0  0  0  0  0  0  0  0  0
  -25.9950  -31.0830   21.3770 C   0  0  0  0  0  2  0  0  0  0  0  0
  -26.1560  -29.7430   20.6880 C   0  0  0  0  0  0  0  0  0  0  0  0
  -27.3970  -29.0680   20.6560 C   0  0  0  0  0  3  0  0  0  0  0  0
  -26.3660  -27.2550   19.4020 C   0  0  0  0  0  3  0  0  0  0  0  0
  -25.1290  -27.9300   19.4310 C   0  0  0  0  0  3  0  0  0  0  0  0
  -23.7440  -29.9730   20.1380 C   0  0  0  0  0  2  0  0  0  0  0  0
  -24.7200  -31.2300   22.1160 N   0  0  0  0  0  0  0  0  0  0  0  0
  -23.5230  -32.1690   23.7980 O   0  0  0  0  0  0  0  0  0  0  0  0
  -22.8880  -29.4960   22.4530 C   0  0  0  0  0  0  0  0  0  0  0  0
  -21.5760  -29.2520   22.3050 N   0  0  0  0  0  0  0  0  0  0  0  0
  -23.5970  -28.8710   23.2470 O   0  0  0  0  0  0  0  0  0  0  0  0
  -21.0670  -29.8110   21.6360 H   0  0  0  0  0  0  0  0  0  0  0  0
  -18.2510  -27.9120   22.7540 C   0  0  0  0  0  0  0  0  0  0  0  0
  -20.8010  -28.2430   23.0250 C   0  0  0  0  0  3  0  0  0  0  0  0
  -20.9490  -26.8530   22.3660 C   0  0  0  0  0  2  0  0  0  0  0  0
  -19.8500  -26.5530   21.3410 C   0  0  0  0  0  2  0  0  0  0  0  0
  -18.4690  -26.6110   22.0010 C   0  0  0  0  0  2  0  0  0  0  0  0
  -19.3450  -28.6880   23.2210 C   0  0  0  0  0  0  0  0  0  0  0  0
  -19.0880  -29.9060   23.8840 C   0  0  0  0  0  3  0  0  0  0  0  0
  -17.7680  -30.3520   24.0870 C   0  0  0  0  0  3  0  0  0  0  0  0
  -16.6880  -29.5730   23.6380 C   0  0  0  0  0  3  0  0  0  0  0  0
  -16.9300  -28.3550   22.9770 C   0  0  0  0  0  3  0  0  0  0  0  0
  -25.8690  -32.6400   23.9100 C   0  0  0  0  0  3  0  0  0  0  0  0
  -26.3460  -31.9030   25.2220 C   0  0  1  0  0  0  0  0  0  0  0  0
  -25.2100  -31.6410   26.2380 C   0  0  0  0  0  1  0  0  0  0  0  0
  -26.9940  -30.5430   24.8750 C   0  0  0  0  0  1  0  0  0  0  0  0
  -27.4350  -32.7440   25.9290 C   0  0  0  0  0  1  0  0  0  0  0  0
  -25.5270  -34.0380   24.1980 N   0  0  0  0  0  0  0  0  0  0  0  0
  -25.8710  -35.0790   23.4280 C   0  0  0  0  0  0  0  0  0  0  0  0
  -26.5830  -34.9650   22.4260 O   0  0  0  0  0  0  0  0  0  0  0  0
  -24.8970  -34.1980   24.9720 H   0  0  0  0  0  0  0  0  0  0  0  0
  -24.1210  -36.8260   22.9730 C   0  0  0  0  0  1  0  0  0  0  0  0
  -25.3430  -36.4680   23.8330 C   0  0  0  0  0  3  0  0  0  0  0  0
  -27.4280  -37.4190   24.7120 C   0  0  0  0  0  1  0  0  0  0  0  0
  -26.3580  -37.5390   23.7260 N   0  0  0  0  0  0  0  0  0  0  0  0
  -25.9290  -38.4540   23.8340 H   0  0  0  0  0  0  0  0  0  0  0  0
  -30.1450  -20.3350   20.2130 C   0  0  0  0  0  2  0  0  0  0  0  0
  -30.3420  -18.8440   20.1380 N   0  0  1  0  0  4  0  0  0  0  0  0
  -29.5310  -18.4340   20.5720 H   0  0  0  0  0  0  0  0  0  0  0  0
  -28.9200  -17.0220   17.9830 C   0  0  0  0  0  2  0  0  0  0  0  0
  -30.1330  -16.8950   18.5330 C   0  0  0  0  0  2  0  0  0  0  0  0
  -28.9620  -18.5390   18.0050 C   0  0  0  0  0  2  0  0  0  0  0  0
  -30.3340  -18.3950   18.7120 C   0  0  0  0  0  3  0  0  0  0  0  0
  -31.5360  -18.3360   20.8870 C   0  0  0  0  0  2  0  0  0  0  0  0
  -31.2390  -17.2320   21.9470 C   0  0  0  0  0  2  0  0  0  0  0  0
  -31.4750  -14.9660   20.8570 C   0  0  0  0  0  0  0  0  0  0  0  0
  -31.2010  -12.8980   19.5360 C   0  0  0  0  0  2  0  0  0  0  0  0
  -30.3090  -13.1680   18.3070 C   0  0  0  0  0  2  0  0  0  0  0  0
  -28.8140  -13.0540   18.6660 C   0  0  0  0  0  2  0  0  0  0  0  0
  -28.4410  -13.8330   19.9560 C   0  0  0  0  0  3  0  0  0  0  0  0
  -29.4370  -13.5080   21.0910 C   0  0  0  0  0  2  0  0  0  0  0  0
  -30.7910  -13.8200   20.6030 N   0  0  0  0  0  0  0  0  0  0  0  0
  -32.6210  -15.1770   20.4550 O   0  0  0  0  0  0  0  0  0  0  0  0
  -30.7550  -15.9310   21.4550 N   0  0  0  0  0  0  0  0  0  0  0  0
  -29.8160  -15.6660   21.7120 H   0  0  0  0  0  0  0  0  0  0  0  0
  -26.0180  -14.4740   20.5450 C   0  0  0  0  0  0  0  0  0  0  0  0
  -24.9200  -13.7150   20.8480 C   0  0  0  0  0  0  0  0  0  0  0  0
  -25.3600  -12.3560   20.8210 C   0  0  0  0  0  0  0  0  0  0  0  0
  -27.0600  -13.5780   20.3560 N   0  0  0  0  0  0  0  0  0  0  0  0
  -26.6640  -12.2980   20.5790 N   0  0  0  0  0  0  0  0  0  0  0  0
  -24.6060  -11.1030   20.9530 C   0  0  0  0  0  0  0  0  0  0  0  0
  -24.9580  -10.1280   21.9120 C   0  0  0  0  0  3  0  0  0  0  0  0
  -24.2070   -8.9380   22.0320 C   0  0  0  0  0  3  0  0  0  0  0  0
  -23.0910   -8.7160   21.1910 C   0  0  0  0  0  0  0  0  0  0  0  0
  -22.7600   -9.6810   20.2220 C   0  0  0  0  0  3  0  0  0  0  0  0
  -23.5110  -10.8610   20.1000 C   0  0  0  0  0  3  0  0  0  0  0  0
  -22.3180   -7.5800   21.2180 O   0  0  0  0  0  0  0  0  0  0  0  0
  -22.1170   -6.8750   22.3770 C   0  0  0  0  0  0  0  0  0  0  0  0
  -21.5160   -7.4630   23.5120 C   0  0  0  0  0  3  0  0  0  0  0  0
  -21.2640   -6.6820   24.6590 C   0  0  0  0  0  3  0  0  0  0  0  0
  -21.6030   -5.3160   24.6700 C   0  0  0  0  0  0  0  0  0  0  0  0
  -22.1970   -4.7290   23.5390 C   0  0  0  0  0  3  0  0  0  0  0  0
  -22.4500   -5.5060   22.3960 C   0  0  0  0  0  0  0  0  0  0  0  0
  -23.0040   -4.9290   21.3000 F   0  0  0  0  0  0  0  0  0  0  0  0
  -21.3550   -4.5650   25.7680 F   0  0  0  0  0  0  0  0  0  0  0  0
  -23.5170  -14.2110   21.0530 C   0  0  0  0  0  0  0  0  0  0  0  0
  -22.7410  -13.5270   21.8860 N   0  0  0  0  0  0  0  0  0  0  0  0
  -23.1170  -15.2390   20.5080 O   0  0  0  0  0  0  0  0  0  0  0  0
  -23.0750  -12.6950   22.3480 H   0  0  0  0  0  0  0  0  0  0  0  0
  -21.7970  -13.8430   22.0640 H   0  0  0  0  0  0  0  0  0  0  0  0
  -26.2160  -15.8430   20.3920 N   0  0  0  0  0  0  0  0  0  0  0  0
  -25.4480  -16.5030   20.4520 H   0  0  0  0  0  0  0  0  0  0  0  0
  -27.0690  -16.2560   20.0420 H   0  0  0  0  0  0  0  0  0  0  0  0
  3  1  1  1
  3  2  1  0
  4  5  1  0
  4  3  1  0
  6  7  1  0
  6  5  1  0
  8 10  1  0
  8  7  1  0
  9 20  2  0
 10 15  1  0
 11 19  1  0
 11 21  1  0
 12 18  1  0
 12 14  1  0
 13 19  1  0
 14 13  1  0
 15 14  2  0
 16 17  1  0
 16 10  2  0
 17 12  2  0
 18 11  1  0
 19  9  1  0
 21 23  2  0
 22 21  1  0
 24 22  1  0
 25 34  2  0
 25 30  1  0
 26 22  1  0
 26 30  1  0
 27 26  1  0
 28 29  1  0
 28 27  1  0
 29 25  1  0
 30 31  2  0
 31 32  1  0
 33 32  2  0
 34 33  1  0
 35  9  1  0
 35 40  1  0
 35 36  1  0
 36 39  1  1
 36 37  1  0
 38 36  1  0
 40 43  1  0
 41 45  1  0
 41 40  1  0
 42 41  2  0
 45 44  1  0
 47 45  1  0
 47 48  1  0
 47 46  1  0
 49  3  1  0
 50 49  1  0
 50 51  1  1
 50 56  1  0
 52 54  1  0
 52 53  1  0
 53 55  1  0
 54 55  1  0
 55 50  1  0
 56 57  1  0
 58 66  1  0
 59 64  1  0
 60 61  1  0
 60 59  1  0
 62 61  1  0
 62 71  1  0
 62 63  1  0
 64 58  1  0
 64 63  1  0
 65 58  2  0
 66 67  1  0
 66 57  1  0
 68 69  2  0
 69 88  1  0
 70 69  1  0
 70 73  1  0
 71 68  1  0
 71 72  1  0
 72 70  2  0
 73 74  1  0
 74 75  2  0
 76 79  1  0
 76 75  1  0
 77 76  2  0
 78 77  1  0
 78 73  2  0
 79 80  1  0
 80 85  2  0
 80 81  1  0
 81 82  2  0
 82 83  1  0
 83 87  1  0
 84 83  2  0
 85 84  1  0
 86 85  1  0
 88 89  1  0
 89 92  1  0
 89 91  1  0
 90 88  2  0
 93 94  1  0
 93 68  1  0
 95 93  1  0
M  ISO  4   7 101   8 101  58 100  66 100
M  END
>  <TORSDO>  (77) 
F 25

>  <SCORE>  (77) 
-9.495

>  <name>  (77) 
77

>  <ligand_id>  (77) 
77

>  <original_smiles>  (77) 
[H]C1=C([H])C([H])([N+]([H])(C([H])([H])C([H])([H])N([H])C(=O)N2C([H])([H])C([H])([H])C([H])([H])C([H])(n3nc(-c4c([H])c([H])c(Oc5c([H])c([H])c(F)c([H])c5F)c([H])c4[H])c(C(=O)N([H])[H])c3N([H])[H])C2([H])[H])C([H])([H])C(C([H])([H])[H])(C([H])([H])[H])C([H])([H])C([H])([H])C([H])([H])C([H])([H])Oc2c([H])c([H])c3c(c2[H])C([H])([H])N(C(=O)C([H])(N([H])C(=O)C([H])(N([H])C([H])([H])[H])C([H])([H])[H])C(C([H])([H])[H])(C([H])([H])[H])C([H])([H])[H])C([H])(C(=O)N([H])C2([H])c4c([H])c([H])c([H])c([H])c4C([H])([H])C([H])([H])C2([H])[H])C3([H])[H])C1([H])[H]

>  <smiles>  (77) 
[H]C1=C([H])C([H])([N+]([H])(C([H])([H])C([H])([H])N([H])C(=O)N2C([H])([H])C([H])([H])C([H])([H])C([H])(n3nc(-c4c([H])c([H])c(Oc5c([H])c([H])c(F)c([H])c5F)c([H])c4[H])c(C(=O)N([H])[H])c3N([H])[H])C2([H])[H])C([H])([H])C(C([H])([H])[H])(C([H])([H])[H])C([H])([H])C([H])([H])C([H])([H])C([H])([H])Oc2c([H])c([H])c3c(c2[H])C([H])([H])N(C(=O)C([H])(N([H])C(=O)C([H])(N([H])C([H])([H])[H])C([H])([H])[H])C(C([H])([H])[H])(C([H])([H])[H])C([H])([H])[H])C([H])(C(=O)N([H])C2([H])c4c([H])c([H])c([H])c([H])c4C([H])([H])C([H])([H])C2([H])[H])C3([H])[H])C1([H])[H]

$$$$
78:0:0
     RDKit          3D

 98106  0  0  1  0  0  0  0  0999 V2000
  -28.4620  -21.4610   17.7440 C   0  0  0  0  0  2  0  0  0  0  0  0
  -26.6580  -22.9140   17.3020 C   0  0  0  0  0  2  0  0  0  0  0  0
  -27.3930  -21.1460   18.8000 C   0  0  0  0  0  3  0  0  0  0  0  0
  -26.1340  -21.7500   18.1700 C   0  0  0  0  0  3  0  0  0  0  0  0
  -28.1310  -22.8100   17.2710 N   0  0  0  0  0  0  0  0  0  0  0  0
  -25.1600  -22.1920   19.1840 N   0  0  0  0  0  4  0  0  0  0  0  0
  -25.5580  -22.8670   19.8120 H   0  0  0  0  0  0  0  0  0  0  0  0
  -24.8340  -21.4110   19.7250 H   0  0  0  0  0  0  0  0  0  0  0  0
  -24.3580  -22.5990   18.7310 H   0  0  0  0  0  0  0  0  0  0  0  0
  -27.2690  -19.6500   19.1610 C   0  0  0  0  0  2  0  0  0  0  0  0
  -28.4000  -19.1460   20.0610 C   0  0  0  0  0  0  0  0  0  0  0  0
  -29.1000  -18.0970   19.6190 N   0  0  0  0  0  0  0  0  0  0  0  0
  -28.6050  -19.6840   21.1500 O   0  0  0  0  0  0  0  0  0  0  0  0
  -28.8760  -17.7640   18.6920 H   0  0  0  0  0  0  0  0  0  0  0  0
  -30.1150  -17.3490   20.3610 C   0  0  0  0  0  2  0  0  0  0  0  0
  -29.6720  -15.8790   20.4900 C   0  0  0  0  0  2  0  0  0  0  0  0
  -31.2210  -14.0280   20.1170 C   0  0  0  0  0  0  0  0  0  0  0  0
  -30.7270  -11.9110   18.9590 C   0  0  0  0  0  2  0  0  0  0  0  0
  -29.7610  -12.1430   17.7820 C   0  0  0  0  0  2  0  0  0  0  0  0
  -28.2960  -12.0720   18.2550 C   0  0  0  0  0  2  0  0  0  0  0  0
  -28.0390  -12.9490   19.5060 C   0  0  0  0  0  3  0  0  0  0  0  0
  -29.1160  -12.7090   20.5920 C   0  0  0  0  0  2  0  0  0  0  0  0
  -30.4400  -12.9240   19.9840 N   0  0  0  0  0  0  0  0  0  0  0  0
  -32.3130  -14.1580   19.5630 O   0  0  0  0  0  0  0  0  0  0  0  0
  -30.7670  -15.0040   20.9080 N   0  0  0  0  0  0  0  0  0  0  0  0
  -31.5360  -15.5370   21.2870 H   0  0  0  0  0  0  0  0  0  0  0  0
  -25.7090  -13.7260   20.2720 C   0  0  0  0  0  0  0  0  0  0  0  0
  -24.6090  -13.0290   20.6860 C   0  0  0  0  0  0  0  0  0  0  0  0
  -24.9830  -11.6500   20.6610 C   0  0  0  0  0  0  0  0  0  0  0  0
  -26.6900  -12.7750   20.0270 N   0  0  0  0  0  0  0  0  0  0  0  0
  -26.2590  -11.5250   20.3200 N   0  0  0  0  0  0  0  0  0  0  0  0
  -24.1920  -10.4390   20.8880 C   0  0  0  0  0  0  0  0  0  0  0  0
  -24.5570   -9.4950   21.8710 C   0  0  0  0  0  3  0  0  0  0  0  0
  -23.7730   -8.3400   22.0820 C   0  0  0  0  0  3  0  0  0  0  0  0
  -22.6080   -8.1260   21.3100 C   0  0  0  0  0  0  0  0  0  0  0  0
  -22.2600   -9.0560   20.3150 C   0  0  0  0  0  3  0  0  0  0  0  0
  -23.0460  -10.2030   20.1020 C   0  0  0  0  0  3  0  0  0  0  0  0
  -21.7990   -7.0240   21.4280 O   0  0  0  0  0  0  0  0  0  0  0  0
  -21.6430   -6.3680   22.6230 C   0  0  0  0  0  0  0  0  0  0  0  0
  -21.1470   -7.0200   23.7730 C   0  0  0  0  0  3  0  0  0  0  0  0
  -20.9390   -6.2920   24.9600 C   0  0  0  0  0  3  0  0  0  0  0  0
  -21.2150   -4.9130   25.0000 C   0  0  0  0  0  0  0  0  0  0  0  0
  -21.7030   -4.2610   23.8540 C   0  0  0  0  0  3  0  0  0  0  0  0
  -21.9130   -4.9850   22.6690 C   0  0  0  0  0  0  0  0  0  0  0  0
  -22.3640   -4.3450   21.5630 F   0  0  0  0  0  0  0  0  0  0  0  0
  -21.0060   -4.2120   26.1380 F   0  0  0  0  0  0  0  0  0  0  0  0
  -23.2500  -13.5950   20.9860 C   0  0  0  0  0  0  0  0  0  0  0  0
  -22.5040  -12.9600   21.8840 N   0  0  0  0  0  0  0  0  0  0  0  0
  -22.8640  -14.6380   20.4610 O   0  0  0  0  0  0  0  0  0  0  0  0
  -22.8300  -12.1210   22.3400 H   0  0  0  0  0  0  0  0  0  0  0  0
  -21.5890  -13.3210   22.1220 H   0  0  0  0  0  0  0  0  0  0  0  0
  -25.9510  -15.0820   20.0600 N   0  0  0  0  0  0  0  0  0  0  0  0
  -25.2170  -15.7740   20.1660 H   0  0  0  0  0  0  0  0  0  0  0  0
  -26.8020  -15.4640   19.6700 H   0  0  0  0  0  0  0  0  0  0  0  0
  -28.9310  -23.8270   17.9820 C   0  0  0  0  0  2  0  0  0  0  0  0
  -28.6160  -25.2990   18.3520 C   0  0  0  0  0  2  0  0  0  0  0  0
  -28.5590  -25.4960   19.8880 C   0  0  0  0  0  2  0  0  0  0  0  0
  -28.4600  -26.8510   20.2850 O   0  0  0  0  0  0  0  0  0  0  0  0
  -24.5490  -31.9380   23.2630 C   0  0  0  0  0  0  0  0  0  0  0  0
  -27.2320  -27.4750   20.2830 C   0  0  0  0  0  0  0  0  0  0  0  0
  -23.3570  -30.5130   21.6290 C   0  0  0  0  0  3  0  0  0  0  0  0
  -24.8210  -28.9410   20.2610 C   0  0  0  0  0  0  0  0  0  0  0  0
  -25.8790  -30.8720   21.4480 C   0  0  0  0  0  2  0  0  0  0  0  0
  -25.9680  -29.4870   20.8470 C   0  0  0  0  0  0  0  0  0  0  0  0
  -27.1730  -28.7580   20.8600 C   0  0  0  0  0  3  0  0  0  0  0  0
  -26.0560  -26.9200   19.7220 C   0  0  0  0  0  3  0  0  0  0  0  0
  -24.8550  -27.6520   19.7040 C   0  0  0  0  0  3  0  0  0  0  0  0
  -23.5830  -29.8050   20.2650 C   0  0  0  0  0  2  0  0  0  0  0  0
  -24.6130  -31.1210   22.1740 N   0  0  0  0  0  0  0  0  0  0  0  0
  -23.4620  -32.2240   23.7830 O   0  0  0  0  0  0  0  0  0  0  0  0
  -22.6900  -29.5130   22.5970 C   0  0  0  0  0  0  0  0  0  0  0  0
  -21.3750  -29.3090   22.4270 N   0  0  0  0  0  0  0  0  0  0  0  0
  -23.3530  -28.9240   23.4550 O   0  0  0  0  0  0  0  0  0  0  0  0
  -20.9040  -29.8340   21.7040 H   0  0  0  0  0  0  0  0  0  0  0  0
  -18.0090  -28.0580   22.8040 C   0  0  0  0  0  0  0  0  0  0  0  0
  -20.5440  -28.3830   23.1930 C   0  0  0  0  0  3  0  0  0  0  0  0
  -20.7040  -26.9330   22.6800 C   0  0  0  0  0  2  0  0  0  0  0  0
  -19.6620  -26.5460   21.6260 C   0  0  0  0  0  2  0  0  0  0  0  0
  -18.2470  -26.6870   22.1960 C   0  0  0  0  0  2  0  0  0  0  0  0
  -19.0880  -28.8620   23.2580 C   0  0  0  0  0  0  0  0  0  0  0  0
  -18.8170  -30.1420   23.7840 C   0  0  0  0  0  3  0  0  0  0  0  0
  -17.4960  -30.6220   23.8610 C   0  0  0  0  0  3  0  0  0  0  0  0
  -16.4300  -29.8170   23.4260 C   0  0  0  0  0  3  0  0  0  0  0  0
  -16.6860  -28.5380   22.9050 C   0  0  0  0  0  3  0  0  0  0  0  0
  -25.8320  -32.5710   23.8910 C   0  0  0  0  0  3  0  0  0  0  0  0
  -26.3310  -31.8100   25.1790 C   0  0  1  0  0  0  0  0  0  0  0  0
  -25.2220  -31.5680   26.2280 C   0  0  0  0  0  1  0  0  0  0  0  0
  -26.9280  -30.4360   24.7970 C   0  0  0  0  0  1  0  0  0  0  0  0
  -27.4640  -32.6130   25.8590 C   0  0  0  0  0  1  0  0  0  0  0  0
  -25.5260  -33.9740   24.1970 N   0  0  0  0  0  0  0  0  0  0  0  0
  -25.8660  -35.0110   23.4200 C   0  0  0  0  0  0  0  0  0  0  0  0
  -26.5410  -34.8860   22.3950 O   0  0  0  0  0  0  0  0  0  0  0  0
  -24.9260  -34.1420   24.9910 H   0  0  0  0  0  0  0  0  0  0  0  0
  -24.1380  -36.7940   23.0260 C   0  0  0  0  0  1  0  0  0  0  0  0
  -25.3780  -36.4080   23.8480 C   0  0  0  0  0  3  0  0  0  0  0  0
  -27.5110  -37.3100   24.6670 C   0  0  0  0  0  1  0  0  0  0  0  0
  -26.4120  -37.4580   23.7150 N   0  0  0  0  0  0  0  0  0  0  0  0
  -26.0050  -38.3820   23.8410 H   0  0  0  0  0  0  0  0  0  0  0  0
  1  3  1  0
  2  4  1  0
  3 10  1  0
  4  3  1  0
  4  6  1  0
  5  2  1  0
  5  1  1  0
  5 55  1  0
  6  8  1  0
  6  7  1  0
  9  6  1  0
 10 11  1  0
 11 13  2  0
 12 11  1  0
 12 15  1  0
 14 12  1  0
 15 16  1  0
 16 25  1  0
 17 25  1  0
 18 23  1  0
 19 20  1  0
 19 18  1  0
 21 20  1  0
 21 30  1  0
 21 22  1  0
 23 17  1  0
 23 22  1  0
 24 17  2  0
 25 26  1  0
 27 28  2  0
 28 47  1  0
 29 28  1  0
 29 32  1  0
 30 27  1  0
 30 31  1  0
 31 29  2  0
 32 33  1  0
 33 34  2  0
 35 38  1  0
 35 34  1  0
 36 35  2  0
 37 36  1  0
 37 32  2  0
 38 39  1  0
 39 44  2  0
 39 40  1  0
 40 41  2  0
 41 42  1  0
 42 46  1  0
 43 42  2  0
 44 43  1  0
 45 44  1  0
 47 48  1  0
 48 51  1  0
 48 50  1  0
 49 47  2  0
 52 53  1  0
 52 27  1  0
 54 52  1  0
 55 56  1  0
 56 57  1  0
 57 58  1  0
 59 70  2  0
 60 58  1  0
 60 65  1  0
 61 69  1  0
 61 71  1  0
 62 68  1  0
 62 64  1  0
 63 69  1  0
 64 65  2  0
 64 63  1  0
 66 60  2  0
 67 66  1  0
 67 62  2  0
 68 61  1  0
 69 59  1  0
 71 73  2  0
 72 71  1  0
 74 72  1  0
 75 84  2  0
 75 80  1  0
 76 72  1  0
 76 80  1  0
 77 76  1  0
 78 79  1  0
 78 77  1  0
 79 75  1  0
 80 81  2  0
 81 82  1  0
 83 82  2  0
 84 83  1  0
 85 59  1  0
 85 90  1  0
 85 86  1  0
 86 89  1  1
 86 87  1  0
 88 86  1  0
 90 93  1  0
 91 95  1  0
 91 90  1  0
 92 91  2  0
 95 94  1  0
 97 98  1  0
 97 95  1  0
 97 96  1  0
M  ISO  4  17 100  25 100  57 101  58 101
M  END
>  <TORSDO>  (78) 
F 24

>  <SCORE>  (78) 
-12.138

>  <name>  (78) 
78

>  <ligand_id>  (78) 
78

>  <original_smiles>  (78) 
[H]c1c([H])c([H])c2c(c1[H])C([H])([H])C([H])([H])C([H])([H])C2([H])N([H])C(=O)C1([H])N(C(=O)C([H])(N([H])C(=O)C([H])(N([H])C([H])([H])[H])C([H])([H])[H])C(C([H])([H])[H])(C([H])([H])[H])C([H])([H])[H])C([H])([H])c2c([H])c(OC([H])([H])C([H])([H])C([H])([H])N3C([H])([H])C([H])(C([H])([H])C(=O)N([H])C([H])([H])C([H])([H])N([H])C(=O)N4C([H])([H])C([H])([H])C([H])([H])C([H])(n5nc(-c6c([H])c([H])c(Oc7c([H])c([H])c(F)c([H])c7F)c([H])c6[H])c(C(=O)N([H])[H])c5N([H])[H])C4([H])[H])C([H])([N+]([H])([H])[H])C3([H])[H])c([H])c([H])c2C1([H])[H]

>  <smiles>  (78) 
[H]c1c([H])c([H])c2c(c1[H])C([H])([H])C([H])([H])C([H])([H])C2([H])N([H])C(=O)C1([H])N(C(=O)C([H])(N([H])C(=O)C([H])(N([H])C([H])([H])[H])C([H])([H])[H])C(C([H])([H])[H])(C([H])([H])[H])C([H])([H])[H])C([H])([H])c2c([H])c(OC([H])([H])C([H])([H])C([H])([H])N3C([H])([H])C([H])(C([H])([H])C(=O)N([H])C([H])([H])C([H])([H])N([H])C(=O)N4C([H])([H])C([H])([H])C([H])([H])C([H])(n5nc(-c6c([H])c([H])c(Oc7c([H])c([H])c(F)c([H])c7F)c([H])c6[H])c(C(=O)N([H])[H])c5N([H])[H])C4([H])[H])C([H])([N+]([H])([H])[H])C3([H])[H])c([H])c([H])c2C1([H])[H]

$$$$
79:0:0
     RDKit          3D

 94102  0  0  1  0  0  0  0  0999 V2000
  -30.7410  -22.5410   22.2920 C   0  0  0  0  0  2  0  0  0  0  0  0
  -30.3300  -23.5560   21.5170 C   0  0  0  0  0  2  0  0  0  0  0  0
  -30.6560  -21.2480   21.6530 C   0  0  0  0  0  3  0  0  0  0  0  0
  -31.2660  -20.0800   21.9070 C   0  0  0  0  0  0  0  0  0  0  0  0
  -32.2850  -19.8500   23.0080 C   0  0  0  0  0  1  0  0  0  0  0  0
  -30.3130  -18.2830   18.7080 C   0  0  0  0  0  3  0  0  0  0  0  0
  -30.8120  -19.2460   19.5960 C   0  0  0  0  0  3  0  0  0  0  0  0
  -29.9800  -17.0110   19.1920 C   0  0  0  0  0  3  0  0  0  0  0  0
  -30.6350  -17.6830   21.4590 C   0  0  0  0  0  3  0  0  0  0  0  0
  -30.9360  -18.9760   20.9840 C   0  0  0  0  0  0  0  0  0  0  0  0
  -30.1860  -16.6990   20.5550 C   0  0  0  0  0  0  0  0  0  0  0  0
  -30.6400  -14.3720   20.4010 C   0  0  0  0  0  0  0  0  0  0  0  0
  -30.3070  -12.2490   19.2370 C   0  0  0  0  0  2  0  0  0  0  0  0
  -29.3440  -12.4800   18.0560 C   0  0  0  0  0  2  0  0  0  0  0  0
  -27.8830  -12.3200   18.5130 C   0  0  0  0  0  2  0  0  0  0  0  0
  -27.5580  -13.1420   19.7910 C   0  0  0  0  0  3  0  0  0  0  0  0
  -28.6370  -12.9200   20.8780 C   0  0  0  0  0  2  0  0  0  0  0  0
  -29.9550  -13.2120   20.2890 N   0  0  0  0  0  0  0  0  0  0  0  0
  -31.7430  -14.5660   19.8780 O   0  0  0  0  0  0  0  0  0  0  0  0
  -29.9850  -15.3750   20.9940 N   0  0  0  0  0  0  0  0  0  0  0  0
  -29.1260  -15.1580   21.4740 H   0  0  0  0  0  0  0  0  0  0  0  0
  -25.1640  -13.6960   20.5600 C   0  0  0  0  0  0  0  0  0  0  0  0
  -24.1170  -12.8970   20.9380 C   0  0  0  0  0  0  0  0  0  0  0  0
  -24.6000  -11.5540   20.8670 C   0  0  0  0  0  0  0  0  0  0  0  0
  -26.2190  -12.8370   20.2910 N   0  0  0  0  0  0  0  0  0  0  0  0
  -25.8830  -11.5430   20.5290 N   0  0  0  0  0  0  0  0  0  0  0  0
  -23.9020  -10.2740   21.0480 C   0  0  0  0  0  0  0  0  0  0  0  0
  -24.3320   -9.3260   22.0020 C   0  0  0  0  0  3  0  0  0  0  0  0
  -23.6340   -8.1120   22.1690 C   0  0  0  0  0  3  0  0  0  0  0  0
  -22.4900   -7.8370   21.3830 C   0  0  0  0  0  0  0  0  0  0  0  0
  -22.0800   -8.7740   20.4190 C   0  0  0  0  0  3  0  0  0  0  0  0
  -22.7790   -9.9800   20.2490 C   0  0  0  0  0  3  0  0  0  0  0  0
  -21.7650   -6.6720   21.4570 O   0  0  0  0  0  0  0  0  0  0  0  0
  -21.6470   -5.9720   22.6300 C   0  0  0  0  0  0  0  0  0  0  0  0
  -21.0500   -6.5380   23.7780 C   0  0  0  0  0  3  0  0  0  0  0  0
  -20.8840   -5.7610   24.9430 C   0  0  0  0  0  3  0  0  0  0  0  0
  -21.3060   -4.4180   24.9580 C   0  0  0  0  0  0  0  0  0  0  0  0
  -21.8970   -3.8520   23.8150 C   0  0  0  0  0  3  0  0  0  0  0  0
  -22.0640   -4.6260   22.6530 C   0  0  0  0  0  0  0  0  0  0  0  0
  -22.6140   -4.0680   21.5480 F   0  0  0  0  0  0  0  0  0  0  0  0
  -21.1420   -3.6680   26.0730 F   0  0  0  0  0  0  0  0  0  0  0  0
  -22.7190  -13.3440   21.2550 C   0  0  0  0  0  0  0  0  0  0  0  0
  -22.0180  -12.6090   22.1120 N   0  0  0  0  0  0  0  0  0  0  0  0
  -22.2550  -14.3810   20.7820 O   0  0  0  0  0  0  0  0  0  0  0  0
  -22.4030  -11.7680   22.5170 H   0  0  0  0  0  0  0  0  0  0  0  0
  -21.0830  -12.8950   22.3680 H   0  0  0  0  0  0  0  0  0  0  0  0
  -25.3020  -15.0720   20.4060 N   0  0  0  0  0  0  0  0  0  0  0  0
  -24.5280  -15.7140   20.5430 H   0  0  0  0  0  0  0  0  0  0  0  0
  -26.1390  -15.5300   20.0680 H   0  0  0  0  0  0  0  0  0  0  0  0
  -29.9040  -25.7060   20.7350 C   0  0  0  0  0  3  0  0  0  0  0  0
  -30.0530  -24.9390   21.8280 C   0  0  0  0  0  0  0  0  0  0  0  0
  -29.8230  -25.4510   23.2380 C   0  0  0  0  0  1  0  0  0  0  0  0
  -29.2780  -27.0620   20.6020 C   0  0  0  0  0  2  0  0  0  0  0  0
  -28.1590  -26.8100   19.7620 O   0  0  0  0  0  0  0  0  0  0  0  0
  -24.4810  -31.9090   23.1090 C   0  0  0  0  0  0  0  0  0  0  0  0
  -27.0180  -27.5490   19.9020 C   0  0  0  0  0  0  0  0  0  0  0  0
  -23.2070  -30.5200   21.5010 C   0  0  0  0  0  3  0  0  0  0  0  0
  -24.6060  -28.9940   20.0190 C   0  0  0  0  0  0  0  0  0  0  0  0
  -25.7130  -30.9000   21.2020 C   0  0  0  0  0  2  0  0  0  0  0  0
  -25.7780  -29.5320   20.5650 C   0  0  0  0  0  0  0  0  0  0  0  0
  -26.9860  -28.8170   20.5130 C   0  0  0  0  0  3  0  0  0  0  0  0
  -25.8350  -27.0070   19.3590 C   0  0  0  0  0  3  0  0  0  0  0  0
  -24.6240  -27.7220   19.4190 C   0  0  0  0  0  3  0  0  0  0  0  0
  -23.3620  -29.8440   20.1120 C   0  0  0  0  0  2  0  0  0  0  0  0
  -24.4870  -31.1230   21.9970 N   0  0  0  0  0  0  0  0  0  0  0  0
  -23.4230  -32.1780   23.6940 O   0  0  0  0  0  0  0  0  0  0  0  0
  -22.5940  -29.4940   22.4780 C   0  0  0  0  0  0  0  0  0  0  0  0
  -21.2760  -29.2690   22.3540 N   0  0  0  0  0  0  0  0  0  0  0  0
  -23.2980  -28.8990   23.2990 O   0  0  0  0  0  0  0  0  0  0  0  0
  -20.7700  -29.8020   21.6610 H   0  0  0  0  0  0  0  0  0  0  0  0
  -17.9480  -27.9510   22.8300 C   0  0  0  0  0  0  0  0  0  0  0  0
  -20.4860  -28.3200   23.1380 C   0  0  0  0  0  3  0  0  0  0  0  0
  -20.6580  -26.8790   22.6030 C   0  0  0  0  0  2  0  0  0  0  0  0
  -19.5890  -26.4840   21.5820 C   0  0  0  0  0  2  0  0  0  0  0  0
  -18.1900  -26.5910   22.1990 C   0  0  0  0  0  2  0  0  0  0  0  0
  -19.0270  -28.7700   23.2560 C   0  0  0  0  0  0  0  0  0  0  0  0
  -18.7470  -30.0400   23.8040 C   0  0  0  0  0  3  0  0  0  0  0  0
  -17.4220  -30.4940   23.9320 C   0  0  0  0  0  3  0  0  0  0  0  0
  -16.3560  -29.6730   23.5240 C   0  0  0  0  0  3  0  0  0  0  0  0
  -16.6200  -28.4030   22.9790 C   0  0  0  0  0  3  0  0  0  0  0  0
  -25.7940  -32.5280   23.6830 C   0  0  0  0  0  3  0  0  0  0  0  0
  -26.3720  -31.7300   24.9150 C   0  0  1  0  0  0  0  0  0  0  0  0
  -25.3220  -31.4280   26.0090 C   0  0  0  0  0  1  0  0  0  0  0  0
  -26.9770  -30.3830   24.4530 C   0  0  0  0  0  1  0  0  0  0  0  0
  -27.5240  -32.5330   25.5660 C   0  0  0  0  0  1  0  0  0  0  0  0
  -25.5020  -33.9190   24.0510 N   0  0  0  0  0  0  0  0  0  0  0  0
  -25.8630  -34.9870   23.3270 C   0  0  0  0  0  0  0  0  0  0  0  0
  -26.5480  -34.9030   22.3030 O   0  0  0  0  0  0  0  0  0  0  0  0
  -24.8990  -34.0610   24.8480 H   0  0  0  0  0  0  0  0  0  0  0  0
  -24.2060  -36.8390   22.9510 C   0  0  0  0  0  1  0  0  0  0  0  0
  -25.3870  -36.3680   23.8150 C   0  0  0  0  0  3  0  0  0  0  0  0
  -27.4890  -37.1580   24.8060 C   0  0  0  0  0  1  0  0  0  0  0  0
  -26.4510  -37.3950   23.8060 N   0  0  0  0  0  0  0  0  0  0  0  0
  -26.0610  -38.3200   23.9680 H   0  0  0  0  0  0  0  0  0  0  0  0
  2 51  1  0
  2  1  1  0
  3  4  2  0
  3  1  1  0
  4  5  1  0
  6  8  2  0
  6  7  1  0
  7 10  2  0
  8 11  1  0
 10  9  1  0
 10  4  1  0
 11 20  1  0
 11  9  2  0
 12 20  1  0
 13 18  1  0
 14 15  1  0
 14 13  1  0
 16 15  1  0
 16 25  1  0
 16 17  1  0
 18 12  1  0
 18 17  1  0
 19 12  2  0
 20 21  1  0
 22 23  2  0
 23 42  1  0
 24 23  1  0
 24 27  1  0
 25 26  1  0
 25 22  1  0
 26 24  2  0
 27 28  1  0
 28 29  2  0
 30 33  1  0
 30 29  1  0
 31 30  2  0
 32 31  1  0
 32 27  2  0
 33 34  1  0
 34 39  2  0
 34 35  1  0
 35 36  2  0
 36 37  1  0
 37 41  1  0
 38 37  2  0
 39 38  1  0
 40 39  1  0
 42 43  1  0
 43 46  1  0
 43 45  1  0
 44 42  2  0
 47 48  1  0
 47 22  1  0
 49 47  1  0
 50 51  2  0
 51 52  1  0
 53 50  1  0
 54 56  1  0
 54 53  1  0
 55 66  2  0
 56 61  1  0
 57 65  1  0
 57 67  1  0
 58 64  1  0
 58 60  1  0
 59 65  1  0
 60 59  1  0
 61 60  2  0
 62 63  1  0
 62 56  2  0
 63 58  2  0
 64 57  1  0
 65 55  1  0
 67 69  2  0
 68 67  1  0
 70 68  1  0
 71 80  2  0
 71 76  1  0
 72 68  1  0
 72 76  1  0
 73 72  1  0
 74 75  1  0
 74 73  1  0
 75 71  1  0
 76 77  2  0
 77 78  1  0
 79 78  2  0
 80 79  1  0
 81 55  1  0
 81 86  1  0
 81 82  1  0
 82 85  1  1
 82 83  1  0
 84 82  1  0
 86 89  1  0
 87 91  1  0
 87 86  1  0
 88 87  2  0
 91 90  1  0
 93 91  1  0
 93 94  1  0
 93 92  1  0
M  ISO  4  12 100  20 100  53 101  54 101
M  END
>  <TORSDO>  (79) 
F 20

>  <SCORE>  (79) 
-13.806

>  <name>  (79) 
79

>  <ligand_id>  (79) 
79

>  <original_smiles>  (79) 
[H]C(=C([H])C(=C([H])C([H])([H])Oc1c([H])c([H])c2c(c1[H])C([H])([H])N(C(=O)C([H])(N([H])C(=O)C([H])(N([H])C([H])([H])[H])C([H])([H])[H])C(C([H])([H])[H])(C([H])([H])[H])C([H])([H])[H])C([H])(C(=O)N([H])C1([H])c3c([H])c([H])c([H])c([H])c3C([H])([H])C([H])([H])C1([H])[H])C2([H])[H])C([H])([H])[H])C([H])=C(c1c([H])c([H])c([H])c(N([H])C(=O)N2C([H])([H])C([H])([H])C([H])([H])C([H])(n3nc(-c4c([H])c([H])c(Oc5c([H])c([H])c(F)c([H])c5F)c([H])c4[H])c(C(=O)N([H])[H])c3N([H])[H])C2([H])[H])c1[H])C([H])([H])[H]

>  <smiles>  (79) 
[H]C(=C([H])C(=C([H])C([H])([H])Oc1c([H])c([H])c2c(c1[H])C([H])([H])N(C(=O)C([H])(N([H])C(=O)C([H])(N([H])C([H])([H])[H])C([H])([H])[H])C(C([H])([H])[H])(C([H])([H])[H])C([H])([H])[H])C([H])(C(=O)N([H])C1([H])c3c([H])c([H])c([H])c([H])c3C([H])([H])C([H])([H])C1([H])[H])C2([H])[H])C([H])([H])[H])C([H])=C(c1c([H])c([H])c([H])c(N([H])C(=O)N2C([H])([H])C([H])([H])C([H])([H])C([H])(n3nc(-c4c([H])c([H])c(Oc5c([H])c([H])c(F)c([H])c5F)c([H])c4[H])c(C(=O)N([H])[H])c3N([H])[H])C2([H])[H])c1[H])C([H])([H])[H]

$$$$
80:0:0
     RDKit          3D

102110  0  0  1  0  0  0  0  0999 V2000
  -27.1380  -19.7310   20.0680 C   0  0  0  0  0  0  0  0  0  0  0  0
  -27.9690  -21.9180   19.9350 C   0  0  0  0  0  2  0  0  0  0  0  0
  -28.4630  -20.4730   20.0440 C   0  0  0  0  0  3  0  0  0  0  0  0
  -26.0300  -20.5780   19.4490 C   0  0  0  0  0  3  0  0  0  0  0  0
  -25.4930  -19.9310   18.1590 C   0  0  0  0  0  1  0  0  0  0  0  0
  -26.6810  -21.8910   19.1970 N   0  0  1  0  0  4  0  0  0  0  0  0
  -27.0050  -18.5990   20.5410 O   0  0  0  0  0  0  0  0  0  0  0  0
  -26.9180  -21.8910   18.2160 H   0  0  0  0  0  0  0  0  0  0  0  0
  -29.3920  -20.2100   21.2550 C   0  0  0  0  0  2  0  0  0  0  0  0
  -30.6930  -19.4760   20.8770 C   0  0  0  0  0  0  0  0  0  0  0  0
  -31.8490  -20.5840   22.7660 C   0  0  0  0  0  1  0  0  0  0  0  0
  -31.8330  -19.7360   21.5650 N   0  0  0  0  0  0  0  0  0  0  0  0
  -30.6610  -18.6640   19.9480 O   0  0  0  0  0  0  0  0  0  0  0  0
  -33.1010  -19.0420   21.2630 C   0  0  0  0  0  2  0  0  0  0  0  0
  -35.4480  -19.3270   20.4150 C   0  0  0  0  0  1  0  0  0  0  0  0
  -33.8400  -21.2180   20.1470 C   0  0  0  0  0  1  0  0  0  0  0  0
  -33.9700  -19.6810   20.1330 C   0  0  2  0  0  0  0  0  0  0  0  0
  -33.5880  -19.1800   18.7150 C   0  0  0  0  0  2  0  0  0  0  0  0
  -34.2430  -17.2430   17.2980 C   0  0  0  0  0  0  0  0  0  0  0  0
  -35.4300  -15.3870   16.1880 C   0  0  0  0  0  2  0  0  0  0  0  0
  -34.4870  -14.3070   15.6350 C   0  0  0  0  0  2  0  0  0  0  0  0
  -34.1530  -13.2700   16.7210 C   0  0  0  0  0  2  0  0  0  0  0  0
  -33.6790  -13.9310   18.0410 C   0  0  0  0  0  3  0  0  0  0  0  0
  -34.6470  -15.0530   18.4770 C   0  0  0  0  0  2  0  0  0  0  0  0
  -34.8010  -16.0090   17.3610 N   0  0  0  0  0  0  0  0  0  0  0  0
  -34.1040  -17.8780   16.2480 O   0  0  0  0  0  0  0  0  0  0  0  0
  -33.9920  -17.7960   18.4880 N   0  0  0  0  0  0  0  0  0  0  0  0
  -34.1560  -17.2210   19.2990 H   0  0  0  0  0  0  0  0  0  0  0  0
  -32.3570  -12.6140   19.8180 C   0  0  0  0  0  0  0  0  0  0  0  0
  -32.7080  -11.5670   20.6280 C   0  0  0  0  0  0  0  0  0  0  0  0
  -34.0820  -11.2920   20.3460 C   0  0  0  0  0  0  0  0  0  0  0  0
  -33.4980  -12.9360   19.0970 N   0  0  0  0  0  0  0  0  0  0  0  0
  -34.5520  -12.1620   19.4610 N   0  0  0  0  0  0  0  0  0  0  0  0
  -34.9610  -10.2180   20.8260 C   0  0  0  0  0  0  0  0  0  0  0  0
  -36.2290  -10.4930   21.3820 C   0  0  0  0  0  3  0  0  0  0  0  0
  -37.0500   -9.4450   21.8510 C   0  0  0  0  0  3  0  0  0  0  0  0
  -36.6020   -8.1050   21.7720 C   0  0  0  0  0  0  0  0  0  0  0  0
  -35.3470   -7.8330   21.1970 C   0  0  0  0  0  3  0  0  0  0  0  0
  -34.5360   -8.8780   20.7250 C   0  0  0  0  0  3  0  0  0  0  0  0
  -37.3400   -7.0200   22.1780 O   0  0  0  0  0  0  0  0  0  0  0  0
  -38.3070   -7.1280   23.1450 C   0  0  0  0  0  0  0  0  0  0  0  0
  -38.0230   -7.6440   24.4280 C   0  0  0  0  0  3  0  0  0  0  0  0
  -39.0300   -7.6720   25.4140 C   0  0  0  0  0  3  0  0  0  0  0  0
  -40.3170   -7.1800   25.1230 C   0  0  0  0  0  0  0  0  0  0  0  0
  -40.5990   -6.6630   23.8460 C   0  0  0  0  0  3  0  0  0  0  0  0
  -39.5970   -6.6340   22.8620 C   0  0  0  0  0  0  0  0  0  0  0  0
  -39.8680   -6.1140   21.6410 F   0  0  0  0  0  0  0  0  0  0  0  0
  -41.2820   -7.2020   26.0710 F   0  0  0  0  0  0  0  0  0  0  0  0
  -31.8000  -10.8010   21.5470 C   0  0  0  0  0  0  0  0  0  0  0  0
  -32.3370  -10.2810   22.6450 N   0  0  0  0  0  0  0  0  0  0  0  0
  -30.5950  -10.6990   21.3190 O   0  0  0  0  0  0  0  0  0  0  0  0
  -33.3210  -10.3800   22.8440 H   0  0  0  0  0  0  0  0  0  0  0  0
  -31.7540   -9.7770   23.2990 H   0  0  0  0  0  0  0  0  0  0  0  0
  -31.1680  -13.3080   19.6240 N   0  0  0  0  0  0  0  0  0  0  0  0
  -30.3190  -13.0940   20.1360 H   0  0  0  0  0  0  0  0  0  0  0  0
  -31.0690  -14.1200   19.0290 H   0  0  0  0  0  0  0  0  0  0  0  0
  -25.7770  -23.0520   19.4310 C   0  0  0  0  0  2  0  0  0  0  0  0
  -25.9810  -24.1470   17.1050 C   0  0  0  0  0  1  0  0  0  0  0  0
  -26.1100  -24.3430   18.6270 C   0  0  0  0  0  3  0  0  0  0  0  0
  -27.4320  -25.0570   19.0140 C   0  0  0  0  0  2  0  0  0  0  0  0
  -27.3990  -25.7740   20.3760 C   0  0  0  0  0  2  0  0  0  0  0  0
  -26.6010  -26.9460   20.2650 O   0  0  0  0  0  0  0  0  0  0  0  0
  -27.8180  -31.6790   25.4270 C   0  0  0  0  0  0  0  0  0  0  0  0
  -26.1890  -27.4880   21.4550 C   0  0  0  0  0  0  0  0  0  0  0  0
  -25.9950  -30.0600   25.8540 C   0  0  0  0  0  3  0  0  0  0  0  0
  -25.2800  -28.6490   23.8560 C   0  0  0  0  0  0  0  0  0  0  0  0
  -26.6170  -30.7280   23.4650 C   0  0  0  0  0  2  0  0  0  0  0  0
  -26.1630  -29.3520   23.0280 C   0  0  0  0  0  0  0  0  0  0  0  0
  -26.6110  -28.7810   21.8190 C   0  0  0  0  0  3  0  0  0  0  0  0
  -25.3090  -26.7790   22.2990 C   0  0  0  0  0  3  0  0  0  0  0  0
  -24.8490  -27.3580   23.4970 C   0  0  0  0  0  3  0  0  0  0  0  0
  -24.8310  -29.3440   25.1210 C   0  0  0  0  0  2  0  0  0  0  0  0
  -26.8700  -30.8420   24.9200 N   0  0  0  0  0  0  0  0  0  0  0  0
  -27.9430  -31.8390   26.6490 O   0  0  0  0  0  0  0  0  0  0  0  0
  -26.7680  -29.0130   26.6890 C   0  0  0  0  0  0  0  0  0  0  0  0
  -26.3110  -28.7810   27.9300 N   0  0  0  0  0  0  0  0  0  0  0  0
  -27.7330  -28.4100   26.2100 O   0  0  0  0  0  0  0  0  0  0  0  0
  -25.5200  -29.3220   28.2510 H   0  0  0  0  0  0  0  0  0  0  0  0
  -26.0220  -27.5450   31.3120 C   0  0  0  0  0  0  0  0  0  0  0  0
  -26.8560  -27.8120   28.8800 C   0  0  0  0  0  3  0  0  0  0  0  0
  -26.2720  -26.4020   28.6330 C   0  0  0  0  0  2  0  0  0  0  0  0
  -25.0320  -26.1050   29.4810 C   0  0  0  0  0  2  0  0  0  0  0  0
  -25.3610  -26.2190   30.9730 C   0  0  0  0  0  2  0  0  0  0  0  0
  -26.7090  -28.3020   30.3250 C   0  0  0  0  0  0  0  0  0  0  0  0
  -27.2710  -29.5450   30.6840 C   0  0  0  0  0  3  0  0  0  0  0  0
  -27.1600  -30.0320   31.9990 C   0  0  0  0  0  3  0  0  0  0  0  0
  -26.4960  -29.2710   32.9770 C   0  0  0  0  0  3  0  0  0  0  0  0
  -25.9290  -28.0310   32.6330 C   0  0  0  0  0  3  0  0  0  0  0  0
  -28.7740  -32.4910   24.4990 C   0  0  0  0  0  3  0  0  0  0  0  0
  -30.1570  -31.7750   24.2460 C   0  0  1  0  0  0  0  0  0  0  0  0
  -30.8830  -31.3490   25.5430 C   0  0  0  0  0  1  0  0  0  0  0  0
  -29.9630  -30.5110   23.3760 C   0  0  0  0  0  1  0  0  0  0  0  0
  -31.0990  -32.7150   23.4560 C   0  0  0  0  0  1  0  0  0  0  0  0
  -28.9760  -33.8090   25.1160 N   0  0  0  0  0  0  0  0  0  0  0  0
  -28.3340  -34.9260   24.7490 C   0  0  0  0  0  0  0  0  0  0  0  0
  -27.5500  -34.9670   23.7950 O   0  0  0  0  0  0  0  0  0  0  0  0
  -29.5630  -33.8420   25.9350 H   0  0  0  0  0  0  0  0  0  0  0  0
  -27.4480  -36.4220   26.5630 C   0  0  0  0  0  1  0  0  0  0  0  0
  -28.6020  -36.1990   25.5730 C   0  0  0  0  0  3  0  0  0  0  0  0
  -30.0200  -37.3850   23.9580 C   0  0  0  0  0  1  0  0  0  0  0  0
  -28.7880  -37.4090   24.7440 N   0  0  0  0  0  0  0  0  0  0  0  0
  -28.8000  -38.2450   25.3230 H   0  0  0  0  0  0  0  0  0  0  0  0
  1  7  2  0
  2  3  1  0
  3  1  1  0
  3  9  1  0
  4  5  1  0
  4  1  1  0
  6 57  1  0
  6  4  1  0
  6  2  1  0
  6  8  1  6
 10  9  1  0
 10 12  1  0
 12 11  1  0
 13 10  2  0
 14 12  1  0
 17 16  1  6
 17 15  1  0
 17 14  1  0
 18 17  1  0
 19 25  1  0
 19 27  1  0
 20 25  1  0
 21 20  1  0
 21 22  1  0
 23 22  1  0
 23 24  1  0
 23 32  1  0
 25 24  1  0
 26 19  2  0
 27 18  1  0
 27 28  1  0
 29 30  2  0
 30 49  1  0
 31 30  1  0
 31 34  1  0
 32 33  1  0
 32 29  1  0
 33 31  2  0
 34 35  1  0
 35 36  2  0
 37 36  1  0
 37 40  1  0
 38 37  2  0
 39 34  2  0
 39 38  1  0
 40 41  1  0
 41 42  1  0
 42 43  2  0
 44 43  1  0
 44 48  1  0
 45 44  2  0
 46 41  2  0
 46 45  1  0
 47 46  1  0
 49 50  1  0
 50 52  1  0
 50 53  1  0
 51 49  2  0
 54 29  1  0
 54 55  1  0
 56 54  1  0
 59 58  1  0
 59 60  1  0
 59 57  1  0
 60 61  1  0
 62 61  1  0
 62 64  1  0
 63 74  2  0
 64 69  2  0
 64 70  1  0
 65 75  1  0
 66 72  1  0
 67 73  1  0
 68 67  1  0
 68 66  2  0
 69 68  1  0
 70 71  2  0
 71 66  1  0
 72 65  1  0
 73 63  1  0
 73 65  1  0
 75 76  1  0
 76 78  1  0
 77 75  2  0
 79 88  1  0
 80 76  1  0
 80 84  1  0
 81 80  1  0
 81 82  1  0
 82 83  1  0
 83 79  1  0
 84 85  1  0
 84 79  2  0
 85 86  2  0
 86 87  1  0
 88 87  2  0
 89 94  1  0
 89 63  1  0
 90 89  1  0
 90 91  1  1
 92 90  1  0
 93 90  1  0
 94 97  1  0
 95 94  1  0
 95 99  1  0
 96 95  2  0
 99 98  1  0
100101  1  0
101102  1  0
101 99  1  0
M  ISO  4  19 100  27 100  61 101  62 101
M  END
>  <TORSDO>  (80) 
F 25

>  <SCORE>  (80) 
-3.937

>  <name>  (80) 
80

>  <ligand_id>  (80) 
80

>  <original_smiles>  (80) 
[H]c1c([H])c([H])c2c(c1[H])C([H])([H])C([H])([H])C([H])([H])C2([H])N([H])C(=O)C1([H])N(C(=O)C([H])(N([H])C(=O)C([H])(N([H])C([H])([H])[H])C([H])([H])[H])C(C([H])([H])[H])(C([H])([H])[H])C([H])([H])[H])C([H])([H])c2c([H])c(OC([H])([H])C([H])([H])C([H])(C([H])([H])[H])C([H])([H])[N+]3([H])C([H])([H])C([H])(C([H])([H])C(=O)N(C([H])([H])[H])C([H])([H])C(C([H])([H])[H])(C([H])([H])[H])C([H])([H])N([H])C(=O)N4C([H])([H])C([H])([H])C([H])([H])C([H])(n5nc(-c6c([H])c([H])c(Oc7c([H])c([H])c(F)c([H])c7F)c([H])c6[H])c(C(=O)N([H])[H])c5N([H])[H])C4([H])[H])C(=O)C3([H])C([H])([H])[H])c([H])c([H])c2C1([H])[H]

>  <smiles>  (80) 
[H]c1c([H])c([H])c2c(c1[H])C([H])([H])C([H])([H])C([H])([H])C2([H])N([H])C(=O)C1([H])N(C(=O)C([H])(N([H])C(=O)C([H])(N([H])C([H])([H])[H])C([H])([H])[H])C(C([H])([H])[H])(C([H])([H])[H])C([H])([H])[H])C([H])([H])c2c([H])c(OC([H])([H])C([H])([H])C([H])(C([H])([H])[H])C([H])([H])[N+]3([H])C([H])([H])C([H])(C([H])([H])C(=O)N(C([H])([H])[H])C([H])([H])C(C([H])([H])[H])(C([H])([H])[H])C([H])([H])N([H])C(=O)N4C([H])([H])C([H])([H])C([H])([H])C([H])(n5nc(-c6c([H])c([H])c(Oc7c([H])c([H])c(F)c([H])c7F)c([H])c6[H])c(C(=O)N([H])[H])c5N([H])[H])C4([H])[H])C(=O)C3([H])C([H])([H])[H])c([H])c([H])c2C1([H])[H]

$$$$
81:0:0
     RDKit          3D

 97105  0  0  1  0  0  0  0  0999 V2000
  -31.4470  -21.7920   17.4970 C   0  0  0  0  0  3  0  0  0  0  0  0
  -31.3410  -20.4620   17.9370 C   0  0  0  0  0  3  0  0  0  0  0  0
  -30.3780  -22.6900   17.6750 C   0  0  0  0  0  3  0  0  0  0  0  0
  -29.0760  -20.9260   18.7190 C   0  0  0  0  0  3  0  0  0  0  0  0
  -30.1530  -20.0300   18.5600 C   0  0  0  0  0  0  0  0  0  0  0  0
  -29.1660  -22.2710   18.2810 C   0  0  0  0  0  0  0  0  0  0  0  0
  -27.7210  -24.0200   17.1400 C   0  0  0  0  0  1  0  0  0  0  0  0
  -26.6630  -22.5120   18.7660 C   0  0  0  0  0  1  0  0  0  0  0  0
  -27.9910  -23.2590   18.4680 C   0  0  1  0  0  0  0  0  0  0  0  0
  -28.2860  -24.2040   19.6870 C   0  0  0  0  0  2  0  0  0  0  0  0
  -28.8140  -25.6310   19.3810 C   0  0  0  0  0  2  0  0  0  0  0  0
  -28.5650  -26.5790   20.4330 O   0  0  0  0  0  0  0  0  0  0  0  0
  -24.6520  -31.8410   23.2800 C   0  0  0  0  0  0  0  0  0  0  0  0
  -27.3800  -27.2910   20.3970 C   0  0  0  0  0  0  0  0  0  0  0  0
  -23.4980  -30.3930   21.6420 C   0  0  0  0  0  3  0  0  0  0  0  0
  -24.9900  -28.8090   20.3210 C   0  0  0  0  0  0  0  0  0  0  0  0
  -26.0360  -30.7230   21.5350 C   0  0  0  0  0  2  0  0  0  0  0  0
  -26.1320  -29.3330   20.9430 C   0  0  0  0  0  0  0  0  0  0  0  0
  -27.3240  -28.5730   20.9960 C   0  0  0  0  0  3  0  0  0  0  0  0
  -26.2130  -26.7970   19.7660 C   0  0  0  0  0  3  0  0  0  0  0  0
  -25.0230  -27.5340   19.7430 C   0  0  0  0  0  3  0  0  0  0  0  0
  -23.7530  -29.6710   20.2950 C   0  0  0  0  0  2  0  0  0  0  0  0
  -24.7420  -31.0040   22.2090 N   0  0  0  0  0  0  0  0  0  0  0  0
  -23.5550  -32.1410   23.7680 O   0  0  0  0  0  0  0  0  0  0  0  0
  -22.8110  -29.4010   22.6080 C   0  0  0  0  0  0  0  0  0  0  0  0
  -21.4920  -29.2190   22.4370 N   0  0  0  0  0  0  0  0  0  0  0  0
  -23.4610  -28.7970   23.4660 O   0  0  0  0  0  0  0  0  0  0  0  0
  -21.0300  -29.7640   21.7220 H   0  0  0  0  0  0  0  0  0  0  0  0
  -18.0930  -28.0530   22.8420 C   0  0  0  0  0  0  0  0  0  0  0  0
  -20.6410  -28.3070   23.2020 C   0  0  0  0  0  3  0  0  0  0  0  0
  -20.7580  -26.8590   22.6740 C   0  0  0  0  0  2  0  0  0  0  0  0
  -19.6920  -26.5080   21.6320 C   0  0  0  0  0  2  0  0  0  0  0  0
  -18.2870  -26.6800   22.2180 C   0  0  0  0  0  2  0  0  0  0  0  0
  -19.2000  -28.8240   23.2860 C   0  0  0  0  0  0  0  0  0  0  0  0
  -18.9700  -30.1080   23.8230 C   0  0  0  0  0  3  0  0  0  0  0  0
  -17.6630  -30.6230   23.9240 C   0  0  0  0  0  3  0  0  0  0  0  0
  -16.5700  -29.8510   23.4990 C   0  0  0  0  0  3  0  0  0  0  0  0
  -16.7850  -28.5670   22.9640 C   0  0  0  0  0  3  0  0  0  0  0  0
  -25.9200  -32.4860   23.9240 C   0  0  0  0  0  3  0  0  0  0  0  0
  -25.5860  -33.8730   24.2720 N   0  0  0  0  0  0  0  0  0  0  0  0
  -25.8870  -34.9400   23.5180 C   0  0  0  0  0  0  0  0  0  0  0  0
  -26.5530  -34.8610   22.4810 O   0  0  0  0  0  0  0  0  0  0  0  0
  -25.0140  -34.0140   25.0910 H   0  0  0  0  0  0  0  0  0  0  0  0
  -24.1180  -36.6920   23.1930 C   0  0  0  0  0  1  0  0  0  0  0  0
  -25.3720  -36.3110   23.9930 C   0  0  0  0  0  3  0  0  0  0  0  0
  -27.4840  -37.2360   24.8310 C   0  0  0  0  0  1  0  0  0  0  0  0
  -26.3790  -37.3890   23.8900 N   0  0  0  0  0  0  0  0  0  0  0  0
  -25.9510  -38.2970   24.0510 H   0  0  0  0  0  0  0  0  0  0  0  0
  -26.4450  -31.7010   25.1890 C   0  0  1  0  0  0  0  0  0  0  0  0
  -25.3460  -31.4020   26.2350 C   0  0  0  0  0  1  0  0  0  0  0  0
  -27.0700  -30.3470   24.7740 C   0  0  0  0  0  1  0  0  0  0  0  0
  -27.5700  -32.5100   25.8770 C   0  0  0  0  0  1  0  0  0  0  0  0
  -30.0510  -18.6150   19.1020 C   0  0  0  0  0  2  0  0  0  0  0  0
  -30.3430  -18.5810   20.6160 C   0  0  0  0  0  2  0  0  0  0  0  0
  -30.2810  -17.1730   22.6290 C   0  0  0  0  0  1  0  0  0  0  0  0
  -30.5360  -17.2150   21.1660 N   0  0  2  0  0  4  0  0  0  0  0  0
  -29.8350  -16.6280   20.7410 H   0  0  0  0  0  0  0  0  0  0  0  0
  -31.8700  -16.6600   20.7970 C   0  0  0  0  0  2  0  0  0  0  0  0
  -32.1270  -15.2230   21.3010 C   0  0  0  0  0  2  0  0  0  0  0  0
  -31.2070  -13.5780   19.6830 C   0  0  0  0  0  0  0  0  0  0  0  0
  -30.4900  -11.5190   18.5380 C   0  0  0  0  0  2  0  0  0  0  0  0
  -29.4310  -11.7700   17.4520 C   0  0  0  0  0  2  0  0  0  0  0  0
  -28.0190  -11.7690   18.0630 C   0  0  0  0  0  2  0  0  0  0  0  0
  -27.9090  -12.6980   19.2990 C   0  0  0  0  0  3  0  0  0  0  0  0
  -29.0560  -12.4270   20.2980 C   0  0  0  0  0  2  0  0  0  0  0  0
  -30.3450  -12.5380   19.5860 N   0  0  0  0  0  0  0  0  0  0  0  0
  -32.0790  -13.8320   18.8470 O   0  0  0  0  0  0  0  0  0  0  0  0
  -31.1360  -14.2520   20.8370 N   0  0  0  0  0  0  0  0  0  0  0  0
  -30.4590  -13.9180   21.5090 H   0  0  0  0  0  0  0  0  0  0  0  0
  -25.7040  -13.5650   20.3150 C   0  0  0  0  0  0  0  0  0  0  0  0
  -24.6040  -12.9130   20.8040 C   0  0  0  0  0  0  0  0  0  0  0  0
  -24.8870  -11.5180   20.6850 C   0  0  0  0  0  0  0  0  0  0  0  0
  -26.5970  -12.5750   19.9370 N   0  0  0  0  0  0  0  0  0  0  0  0
  -26.1130  -11.3370   20.2130 N   0  0  0  0  0  0  0  0  0  0  0  0
  -24.0410  -10.3450   20.9410 C   0  0  0  0  0  0  0  0  0  0  0  0
  -24.4370   -9.3300   21.8400 C   0  0  0  0  0  3  0  0  0  0  0  0
  -23.5980   -8.2220   22.0810 C   0  0  0  0  0  3  0  0  0  0  0  0
  -22.3470   -8.1200   21.4270 C   0  0  0  0  0  0  0  0  0  0  0  0
  -21.9690   -9.1220   20.5150 C   0  0  0  0  0  3  0  0  0  0  0  0
  -22.8080  -10.2220   20.2710 C   0  0  0  0  0  3  0  0  0  0  0  0
  -21.4780   -7.0670   21.5810 O   0  0  0  0  0  0  0  0  0  0  0  0
  -21.4220   -6.3450   22.7460 C   0  0  0  0  0  0  0  0  0  0  0  0
  -21.1010   -6.9480   23.9820 C   0  0  0  0  0  3  0  0  0  0  0  0
  -20.9860   -6.1560   25.1420 C   0  0  0  0  0  3  0  0  0  0  0  0
  -21.1840   -4.7650   25.0690 C   0  0  0  0  0  0  0  0  0  0  0  0
  -21.4970   -4.1620   23.8370 C   0  0  0  0  0  3  0  0  0  0  0  0
  -21.6140   -4.9500   22.6800 C   0  0  0  0  0  0  0  0  0  0  0  0
  -21.8960   -4.3620   21.4910 F   0  0  0  0  0  0  0  0  0  0  0  0
  -21.0650   -4.0030   26.1820 F   0  0  0  0  0  0  0  0  0  0  0  0
  -23.3200  -13.5430   21.2640 C   0  0  0  0  0  0  0  0  0  0  0  0
  -22.6360  -12.9150   22.2140 N   0  0  0  0  0  0  0  0  0  0  0  0
  -22.9430  -14.6240   20.8160 O   0  0  0  0  0  0  0  0  0  0  0  0
  -22.9550  -12.0360   22.5950 H   0  0  0  0  0  0  0  0  0  0  0  0
  -21.7780  -13.3180   22.5660 H   0  0  0  0  0  0  0  0  0  0  0  0
  -26.0130  -14.9120   20.1440 N   0  0  0  0  0  0  0  0  0  0  0  0
  -25.3460  -15.6500   20.3450 H   0  0  0  0  0  0  0  0  0  0  0  0
  -26.8480  -15.2490   19.6810 H   0  0  0  0  0  0  0  0  0  0  0  0
  1  3  2  0
  1  2  1  0
  2  5  2  0
  3  6  1  0
  5  4  1  0
  5 53  1  0
  6  9  1  0
  6  4  2  0
  9  7  1  6
  9  8  1  0
  9 10  1  0
 11 10  1  0
 11 12  1  0
 13 24  2  0
 14 12  1  0
 14 19  1  0
 15 23  1  0
 15 25  1  0
 16 18  1  0
 17 23  1  0
 18 19  2  0
 18 17  1  0
 20 14  2  0
 21 20  1  0
 21 16  2  0
 22 16  1  0
 22 15  1  0
 23 13  1  0
 25 27  2  0
 26 25  1  0
 28 26  1  0
 29 38  2  0
 29 34  1  0
 30 26  1  0
 30 34  1  0
 31 30  1  0
 32 33  1  0
 32 31  1  0
 33 29  1  0
 34 35  2  0
 35 36  1  0
 37 36  2  0
 38 37  1  0
 39 13  1  0
 39 40  1  0
 39 49  1  0
 40 43  1  0
 41 45  1  0
 41 40  1  0
 42 41  2  0
 45 44  1  0
 47 45  1  0
 47 48  1  0
 47 46  1  0
 49 52  1  1
 49 50  1  0
 51 49  1  0
 53 54  1  0
 54 56  1  0
 56 55  1  0
 56 57  1  6
 58 56  1  0
 58 59  1  0
 60 68  1  0
 61 66  1  0
 62 63  1  0
 62 61  1  0
 64 63  1  0
 64 73  1  0
 64 65  1  0
 66 60  1  0
 66 65  1  0
 67 60  2  0
 68 59  1  0
 68 69  1  0
 70 71  2  0
 71 90  1  0
 72 71  1  0
 72 75  1  0
 73 74  1  0
 73 70  1  0
 74 72  2  0
 75 76  1  0
 76 77  2  0
 78 81  1  0
 78 77  1  0
 79 78  2  0
 80 79  1  0
 80 75  2  0
 81 82  1  0
 82 83  1  0
 83 84  2  0
 85 84  1  0
 85 89  1  0
 86 85  2  0
 87 82  2  0
 87 86  1  0
 88 87  1  0
 90 91  1  0
 91 94  1  0
 91 93  1  0
 92 90  2  0
 95 70  1  0
 95 96  1  0
 97 95  1  0
M  ISO  4  11 101  12 101  60 100  68 100
M  END
>  <TORSDO>  (81) 
F 24

>  <SCORE>  (81) 
-10.963

>  <name>  (81) 
81

>  <ligand_id>  (81) 
81

>  <original_smiles>  (81) 
[H]c1c([H])c([H])c2c(c1[H])C([H])([H])C([H])([H])C([H])([H])C2([H])N([H])C(=O)C1([H])N(C(=O)C([H])(N([H])C(=O)C([H])(N([H])C([H])([H])[H])C([H])([H])[H])C(C([H])([H])[H])(C([H])([H])[H])C([H])([H])[H])C([H])([H])c2c([H])c(OC([H])([H])C([H])([H])C(c3c([H])c([H])c([H])c(C([H])([H])C([H])([H])[N+]([H])(C([H])([H])[H])C([H])([H])C([H])([H])N([H])C(=O)N4C([H])([H])C([H])([H])C([H])([H])C([H])(n5nc(-c6c([H])c([H])c(Oc7c([H])c([H])c(F)c([H])c7F)c([H])c6[H])c(C(=O)N([H])[H])c5N([H])[H])C4([H])[H])c3[H])(C([H])([H])[H])C([H])([H])[H])c([H])c([H])c2C1([H])[H]

>  <smiles>  (81) 
[H]c1c([H])c([H])c2c(c1[H])C([H])([H])C([H])([H])C([H])([H])C2([H])N([H])C(=O)C1([H])N(C(=O)C([H])(N([H])C(=O)C([H])(N([H])C([H])([H])[H])C([H])([H])[H])C(C([H])([H])[H])(C([H])([H])[H])C([H])([H])[H])C([H])([H])c2c([H])c(OC([H])([H])C([H])([H])C(c3c([H])c([H])c([H])c(C([H])([H])C([H])([H])[N+]([H])(C([H])([H])[H])C([H])([H])C([H])([H])N([H])C(=O)N4C([H])([H])C([H])([H])C([H])([H])C([H])(n5nc(-c6c([H])c([H])c(Oc7c([H])c([H])c(F)c([H])c7F)c([H])c6[H])c(C(=O)N([H])[H])c5N([H])[H])C4([H])[H])c3[H])(C([H])([H])[H])C([H])([H])[H])c([H])c([H])c2C1([H])[H]

$$$$
82:0:0
     RDKit          3D

 98106  0  0  1  0  0  0  0  0999 V2000
  -30.8750  -17.4110   19.5730 C   0  0  0  0  0  3  0  0  0  0  0  0
  -31.2660  -18.7090   19.2200 C   0  0  0  0  0  3  0  0  0  0  0  0
  -31.0510  -18.0280   21.9060 C   0  0  0  0  0  3  0  0  0  0  0  0
  -30.8100  -17.0410   20.9310 C   0  0  0  0  0  0  0  0  0  0  0  0
  -31.5330  -19.6920   20.1990 C   0  0  0  0  0  0  0  0  0  0  0  0
  -31.3670  -19.3780   21.5880 C   0  0  0  0  0  0  0  0  0  0  0  0
  -30.9850  -19.8280   24.1030 C   0  0  0  0  0  1  0  0  0  0  0  0
  -30.7530  -21.7080   22.5700 C   0  0  0  0  0  1  0  0  0  0  0  0
  -33.0350  -20.6800   22.9810 C   0  0  0  0  0  1  0  0  0  0  0  0
  -31.5380  -20.3870   22.7660 C   0  0  2  0  0  0  0  0  0  0  0  0
  -30.3790  -15.6340   21.3740 C   0  0  1  0  0  0  0  0  0  0  0  0
  -30.6890  -15.4160   22.6540 F   0  0  0  0  0  0  0  0  0  0  0  0
  -29.0510  -15.6760   21.2650 F   0  0  0  0  0  0  0  0  0  0  0  0
  -30.9870  -14.4670   20.5360 C   0  0  0  0  0  0  0  0  0  0  0  0
  -30.6510  -12.3740   19.2660 C   0  0  0  0  0  2  0  0  0  0  0  0
  -29.7250  -12.6620   18.0660 C   0  0  0  0  0  2  0  0  0  0  0  0
  -28.2450  -12.5270   18.4760 C   0  0  0  0  0  2  0  0  0  0  0  0
  -27.9160  -13.3160   19.7710 C   0  0  0  0  0  3  0  0  0  0  0  0
  -28.9560  -13.0060   20.8740 C   0  0  0  0  0  2  0  0  0  0  0  0
  -30.2880  -13.3160   20.3350 N   0  0  0  0  0  0  0  0  0  0  0  0
  -32.1030  -14.6290   20.0230 O   0  0  0  0  0  0  0  0  0  0  0  0
  -25.5060  -13.9670   20.4080 C   0  0  0  0  0  0  0  0  0  0  0  0
  -24.4230  -13.2130   20.7660 C   0  0  0  0  0  0  0  0  0  0  0  0
  -24.8720  -11.8560   20.7700 C   0  0  0  0  0  0  0  0  0  0  0  0
  -26.5490  -13.0710   20.2210 N   0  0  0  0  0  0  0  0  0  0  0  0
  -26.1660  -11.7980   20.4910 N   0  0  0  0  0  0  0  0  0  0  0  0
  -24.1330  -10.6030   20.9690 C   0  0  0  0  0  0  0  0  0  0  0  0
  -24.5460   -9.6490   21.9260 C   0  0  0  0  0  3  0  0  0  0  0  0
  -23.8090   -8.4600   22.1120 C   0  0  0  0  0  3  0  0  0  0  0  0
  -22.6480   -8.2150   21.3420 C   0  0  0  0  0  0  0  0  0  0  0  0
  -22.2560   -9.1580   20.3740 C   0  0  0  0  0  3  0  0  0  0  0  0
  -22.9930  -10.3390   20.1850 C   0  0  0  0  0  3  0  0  0  0  0  0
  -21.8850   -7.0770   21.4360 O   0  0  0  0  0  0  0  0  0  0  0  0
  -21.8120   -6.3530   22.5990 C   0  0  0  0  0  0  0  0  0  0  0  0
  -21.3820   -6.9320   23.8120 C   0  0  0  0  0  3  0  0  0  0  0  0
  -21.2540   -6.1360   24.9670 C   0  0  0  0  0  3  0  0  0  0  0  0
  -21.5490   -4.7600   24.9100 C   0  0  0  0  0  0  0  0  0  0  0  0
  -21.9740   -4.1800   23.7020 C   0  0  0  0  0  3  0  0  0  0  0  0
  -22.1020   -4.9740   22.5480 C   0  0  0  0  0  0  0  0  0  0  0  0
  -22.4920   -4.4060   21.3820 F   0  0  0  0  0  0  0  0  0  0  0  0
  -21.4200   -3.9920   26.0160 F   0  0  0  0  0  0  0  0  0  0  0  0
  -23.0230  -13.7040   21.0000 C   0  0  0  0  0  0  0  0  0  0  0  0
  -22.2790  -13.0300   21.8670 N   0  0  0  0  0  0  0  0  0  0  0  0
  -22.6000  -14.7200   20.4470 O   0  0  0  0  0  0  0  0  0  0  0  0
  -22.6380  -12.2110   22.3350 H   0  0  0  0  0  0  0  0  0  0  0  0
  -21.3350  -13.3330   22.0650 H   0  0  0  0  0  0  0  0  0  0  0  0
  -25.6920  -15.3320   20.2070 N   0  0  0  0  0  0  0  0  0  0  0  0
  -24.9450  -16.0100   20.2990 H   0  0  0  0  0  0  0  0  0  0  0  0
  -26.5760  -15.7500   19.9440 H   0  0  0  0  0  0  0  0  0  0  0  0
  -32.0230  -21.0280   19.6480 C   0  0  0  0  0  2  0  0  0  0  0  0
  -30.9010  -21.8740   19.0130 C   0  0  0  0  0  2  0  0  0  0  0  0
  -31.3970  -23.1750   18.5080 N   0  0  0  0  0  4  0  0  0  0  0  0
  -31.9680  -22.9910   17.6980 H   0  0  0  0  0  0  0  0  0  0  0  0
  -31.9860  -23.6160   19.1970 H   0  0  0  0  0  0  0  0  0  0  0  0
  -30.3370  -24.1290   18.1140 C   0  0  0  0  0  2  0  0  0  0  0  0
  -29.9420  -25.0730   19.2690 C   0  0  0  0  0  2  0  0  0  0  0  0
  -28.5840  -25.7570   19.0410 C   0  0  0  0  0  2  0  0  0  0  0  0
  -28.3800  -26.7570   20.0410 O   0  0  0  0  0  0  0  0  0  0  0  0
  -24.5720  -31.8600   23.2230 C   0  0  0  0  0  0  0  0  0  0  0  0
  -27.1810  -27.4420   20.0560 C   0  0  0  0  0  0  0  0  0  0  0  0
  -23.3440  -30.4750   21.5830 C   0  0  0  0  0  3  0  0  0  0  0  0
  -24.7780  -28.9400   20.1340 C   0  0  0  0  0  0  0  0  0  0  0  0
  -25.8700  -30.8210   21.3670 C   0  0  0  0  0  2  0  0  0  0  0  0
  -25.9420  -29.4540   20.7170 C   0  0  0  0  0  0  0  0  0  0  0  0
  -27.1400  -28.7070   20.6860 C   0  0  0  0  0  3  0  0  0  0  0  0
  -25.9890  -26.9340   19.4830 C   0  0  0  0  0  3  0  0  0  0  0  0
  -24.7940  -27.6770   19.5230 C   0  0  0  0  0  3  0  0  0  0  0  0
  -23.5370  -29.8020   20.1980 C   0  0  0  0  0  2  0  0  0  0  0  0
  -24.6140  -31.0650   22.1160 N   0  0  0  0  0  0  0  0  0  0  0  0
  -23.4960  -32.1380   23.7700 O   0  0  0  0  0  0  0  0  0  0  0  0
  -22.6980  -29.4490   22.5410 C   0  0  0  0  0  0  0  0  0  0  0  0
  -21.3730  -29.2700   22.4170 N   0  0  0  0  0  0  0  0  0  0  0  0
  -23.3850  -28.8190   23.3500 O   0  0  0  0  0  0  0  0  0  0  0  0
  -20.8800  -29.8330   21.7370 H   0  0  0  0  0  0  0  0  0  0  0  0
  -18.0000  -28.0750   22.9060 C   0  0  0  0  0  0  0  0  0  0  0  0
  -20.5560  -28.3300   23.1830 C   0  0  0  0  0  3  0  0  0  0  0  0
  -20.6570  -26.9000   22.6050 C   0  0  0  0  0  2  0  0  0  0  0  0
  -19.5570  -26.5780   21.5880 C   0  0  0  0  0  2  0  0  0  0  0  0
  -18.1750  -26.7260   22.2310 C   0  0  0  0  0  2  0  0  0  0  0  0
  -19.1180  -28.8360   23.3390 C   0  0  0  0  0  0  0  0  0  0  0  0
  -18.8980  -30.1000   23.9270 C   0  0  0  0  0  3  0  0  0  0  0  0
  -17.5950  -30.6050   24.0860 C   0  0  0  0  0  3  0  0  0  0  0  0
  -16.4900  -29.8400   23.6730 C   0  0  0  0  0  3  0  0  0  0  0  0
  -16.6930  -28.5770   23.0890 C   0  0  0  0  0  3  0  0  0  0  0  0
  -25.8670  -32.4770   23.8370 C   0  0  0  0  0  3  0  0  0  0  0  0
  -25.5690  -33.8720   24.1830 N   0  0  0  0  0  0  0  0  0  0  0  0
  -25.9010  -34.9280   23.4270 C   0  0  0  0  0  0  0  0  0  0  0  0
  -26.5620  -34.8300   22.3900 O   0  0  0  0  0  0  0  0  0  0  0  0
  -24.9730  -34.0230   24.9840 H   0  0  0  0  0  0  0  0  0  0  0  0
  -24.1750  -36.7290   23.1030 C   0  0  0  0  0  1  0  0  0  0  0  0
  -25.4230  -36.3150   23.8980 C   0  0  0  0  0  3  0  0  0  0  0  0
  -27.5730  -37.1830   24.7090 C   0  0  0  0  0  1  0  0  0  0  0  0
  -26.4590  -37.3650   23.7810 N   0  0  0  0  0  0  0  0  0  0  0  0
  -26.0600  -38.2870   23.9400 H   0  0  0  0  0  0  0  0  0  0  0  0
  -26.3980  -31.6870   25.0950 C   0  0  1  0  0  0  0  0  0  0  0  0
  -25.3180  -31.4350   26.1750 C   0  0  0  0  0  1  0  0  0  0  0  0
  -26.9700  -30.3120   24.6760 C   0  0  0  0  0  1  0  0  0  0  0  0
  -27.5630  -32.4690   25.7480 C   0  0  0  0  0  1  0  0  0  0  0  0
  1  4  1  0
  2  1  2  0
  2  5  1  0
  4 11  1  0
  4  3  2  0
  5  6  2  0
  6  3  1  0
  6 10  1  0
 10  8  1  6
 10  9  1  0
 10  7  1  0
 11 12  1  1
 13 11  1  0
 14 11  1  0
 15 20  1  0
 16 17  1  0
 16 15  1  0
 18 17  1  0
 18 25  1  0
 18 19  1  0
 20 14  1  0
 20 19  1  0
 21 14  2  0
 22 23  2  0
 23 24  1  0
 23 42  1  0
 24 27  1  0
 25 22  1  0
 25 26  1  0
 26 24  2  0
 27 28  1  0
 28 29  2  0
 30 33  1  0
 30 29  1  0
 31 30  2  0
 32 31  1  0
 32 27  2  0
 33 34  1  0
 34 35  1  0
 35 36  2  0
 37 36  1  0
 37 41  1  0
 38 37  2  0
 39 34  2  0
 39 38  1  0
 40 39  1  0
 42 43  1  0
 43 46  1  0
 43 45  1  0
 44 42  2  0
 47 48  1  0
 47 22  1  0
 49 47  1  0
 50  5  1  0
 51 50  1  0
 52 51  1  0
 52 54  1  0
 53 52  1  0
 55 52  1  0
 55 56  1  0
 57 56  1  0
 57 58  1  0
 58 60  1  0
 59 70  2  0
 60 65  1  0
 61 69  1  0
 61 71  1  0
 62 68  1  0
 62 64  1  0
 63 69  1  0
 64 63  1  0
 65 64  2  0
 66 67  1  0
 66 60  2  0
 67 62  2  0
 68 61  1  0
 69 59  1  0
 71 73  2  0
 72 71  1  0
 74 72  1  0
 75 84  2  0
 75 80  1  0
 76 72  1  0
 76 80  1  0
 77 76  1  0
 78 79  1  0
 78 77  1  0
 79 75  1  0
 80 81  2  0
 81 82  1  0
 83 82  2  0
 84 83  1  0
 85 59  1  0
 85 86  1  0
 85 95  1  0
 86 89  1  0
 87 91  1  0
 87 86  1  0
 88 87  2  0
 91 90  1  0
 93 91  1  0
 93 94  1  0
 93 92  1  0
 95 98  1  1
 95 96  1  0
 97 95  1  0
M  ISO  4  11 100  14 100  57 101  58 101
M  END
>  <TORSDO>  (82) 
F 24

>  <SCORE>  (82) 
-12.710

>  <name>  (82) 
82

>  <ligand_id>  (82) 
82

>  <original_smiles>  (82) 
[H]c1c([H])c([H])c2c(c1[H])C([H])([H])C([H])([H])C([H])([H])C2([H])N([H])C(=O)C1([H])N(C(=O)C([H])(N([H])C(=O)C([H])(N([H])C([H])([H])[H])C([H])([H])[H])C(C([H])([H])[H])(C([H])([H])[H])C([H])([H])[H])C([H])([H])c2c([H])c(OC([H])([H])C([H])([H])C([H])([H])[N+]([H])([H])C([H])([H])C([H])([H])c3c([H])c([H])c(C(F)(F)C(=O)N4C([H])([H])C([H])([H])C([H])([H])C([H])(n5nc(-c6c([H])c([H])c(Oc7c([H])c([H])c(F)c([H])c7F)c([H])c6[H])c(C(=O)N([H])[H])c5N([H])[H])C4([H])[H])c([H])c3C(C([H])([H])[H])(C([H])([H])[H])C([H])([H])[H])c([H])c([H])c2C1([H])[H]

>  <smiles>  (82) 
[H]c1c([H])c([H])c2c(c1[H])C([H])([H])C([H])([H])C([H])([H])C2([H])N([H])C(=O)C1([H])N(C(=O)C([H])(N([H])C(=O)C([H])(N([H])C([H])([H])[H])C([H])([H])[H])C(C([H])([H])[H])(C([H])([H])[H])C([H])([H])[H])C([H])([H])c2c([H])c(OC([H])([H])C([H])([H])C([H])([H])[N+]([H])([H])C([H])([H])C([H])([H])c3c([H])c([H])c(C(F)(F)C(=O)N4C([H])([H])C([H])([H])C([H])([H])C([H])(n5nc(-c6c([H])c([H])c(Oc7c([H])c([H])c(F)c([H])c7F)c([H])c6[H])c(C(=O)N([H])[H])c5N([H])[H])C4([H])[H])c([H])c3C(C([H])([H])[H])(C([H])([H])[H])C([H])([H])[H])c([H])c([H])c2C1([H])[H]

$$$$
83:0:0
     RDKit          3D

 94102  0  0  1  0  0  0  0  0999 V2000
  -28.9360  -18.7160   20.6700 C   0  0  0  0  0  0  0  0  0  0  0  0
  -28.5010  -18.8550   21.8150 O   0  0  0  0  0  0  0  0  0  0  0  0
  -29.0990  -17.2980   20.0740 C   0  0  0  0  0  2  0  0  0  0  0  0
  -31.2890  -14.5720   19.6890 C   0  0  0  0  0  0  0  0  0  0  0  0
  -30.9570  -12.2400   19.0570 C   0  0  0  0  0  2  0  0  0  0  0  0
  -30.0020  -12.2500   17.8460 C   0  0  0  0  0  2  0  0  0  0  0  0
  -28.5290  -12.2360   18.3110 C   0  0  0  0  0  2  0  0  0  0  0  0
  -28.2230  -13.2660   19.4320 C   0  0  0  0  0  3  0  0  0  0  0  0
  -29.3120  -13.2720   20.5280 C   0  0  0  0  0  2  0  0  0  0  0  0
  -30.6120  -13.4110   19.8670 N   0  0  0  0  0  0  0  0  0  0  0  0
  -32.5160  -14.6110   19.6020 O   0  0  0  0  0  0  0  0  0  0  0  0
  -31.0850  -15.9080   17.6980 C   0  0  0  0  0  2  0  0  0  0  0  0
  -30.6540  -17.3260   17.9710 C   0  0  0  0  0  3  0  0  0  0  0  0
  -30.4720  -16.9670   19.4440 C   0  0  0  0  0  3  0  0  0  0  0  0
  -30.5640  -15.5270   19.0370 N   0  0  0  0  0  0  0  0  0  0  0  0
  -25.9460  -14.0340   20.3340 C   0  0  0  0  0  0  0  0  0  0  0  0
  -24.8370  -13.3410   20.7330 C   0  0  0  0  0  0  0  0  0  0  0  0
  -25.1700  -11.9560   20.6120 C   0  0  0  0  0  0  0  0  0  0  0  0
  -26.8890  -13.0780   19.9940 N   0  0  0  0  0  0  0  0  0  0  0  0
  -26.4310  -11.8190   20.2230 N   0  0  0  0  0  0  0  0  0  0  0  0
  -24.3420  -10.7570   20.7880 C   0  0  0  0  0  0  0  0  0  0  0  0
  -24.7160   -9.7260   21.6770 C   0  0  0  0  0  3  0  0  0  0  0  0
  -23.8930   -8.5920   21.8440 C   0  0  0  0  0  3  0  0  0  0  0  0
  -22.6830   -8.4820   21.1180 C   0  0  0  0  0  0  0  0  0  0  0  0
  -22.3270   -9.5000   20.2190 C   0  0  0  0  0  3  0  0  0  0  0  0
  -23.1490  -10.6260   20.0500 C   0  0  0  0  0  3  0  0  0  0  0  0
  -21.8340   -7.4020   21.1930 O   0  0  0  0  0  0  0  0  0  0  0  0
  -21.7190   -6.6540   22.3400 C   0  0  0  0  0  0  0  0  0  0  0  0
  -21.2960   -7.2230   23.5610 C   0  0  0  0  0  3  0  0  0  0  0  0
  -21.1290   -6.4070   24.6980 C   0  0  0  0  0  3  0  0  0  0  0  0
  -21.3710   -5.0230   24.6130 C   0  0  0  0  0  0  0  0  0  0  0  0
  -21.7890   -4.4530   23.3970 C   0  0  0  0  0  3  0  0  0  0  0  0
  -21.9600   -5.2660   22.2640 C   0  0  0  0  0  0  0  0  0  0  0  0
  -22.3410   -4.7120   21.0890 F   0  0  0  0  0  0  0  0  0  0  0  0
  -21.2030   -4.2390   25.7030 F   0  0  0  0  0  0  0  0  0  0  0  0
  -23.5070  -13.9280   21.1070 C   0  0  0  0  0  0  0  0  0  0  0  0
  -22.7760  -13.2690   21.9970 N   0  0  0  0  0  0  0  0  0  0  0  0
  -23.1300  -15.0040   20.6440 O   0  0  0  0  0  0  0  0  0  0  0  0
  -23.0990  -12.4020   22.3980 H   0  0  0  0  0  0  0  0  0  0  0  0
  -21.8870  -13.6470   22.2920 H   0  0  0  0  0  0  0  0  0  0  0  0
  -26.2180  -15.3940   20.2010 N   0  0  0  0  0  0  0  0  0  0  0  0
  -25.4960  -16.0930   20.3550 H   0  0  0  0  0  0  0  0  0  0  0  0
  -27.0500  -15.7550   19.7540 H   0  0  0  0  0  0  0  0  0  0  0  0
  -31.6440  -18.3750   17.6420 N   0  0  0  0  0  4  0  0  0  0  0  0
  -32.5440  -18.1820   18.0480 H   0  0  0  0  0  0  0  0  0  0  0  0
  -31.3540  -19.2770   17.9670 H   0  0  0  0  0  0  0  0  0  0  0  0
  -31.7710  -18.4370   16.6480 H   0  0  0  0  0  0  0  0  0  0  0  0
  -29.3040  -19.9640   19.8340 C   0  0  0  0  0  2  0  0  0  0  0  0
  -28.1490  -20.9760   19.6030 C   0  0  0  0  0  2  0  0  0  0  0  0
  -28.4320  -22.4520   20.0110 C   0  0  0  0  0  2  0  0  0  0  0  0
  -29.6950  -23.0830   19.3800 C   0  0  0  0  0  2  0  0  0  0  0  0
  -29.6820  -24.6250   19.1700 C   0  0  0  0  0  2  0  0  0  0  0  0
  -29.2680  -25.4910   20.3810 C   0  0  0  0  0  2  0  0  0  0  0  0
  -29.2490  -26.9010   20.0890 O   0  0  0  0  0  0  0  0  0  0  0  0
  -24.7110  -31.4080   23.2290 C   0  0  0  0  0  0  0  0  0  0  0  0
  -28.0080  -27.5040   20.0530 C   0  0  0  0  0  0  0  0  0  0  0  0
  -23.7660  -30.0150   21.4150 C   0  0  0  0  0  3  0  0  0  0  0  0
  -25.4640  -28.7480   19.9960 C   0  0  0  0  0  0  0  0  0  0  0  0
  -26.2430  -30.6560   21.4110 C   0  0  0  0  0  2  0  0  0  0  0  0
  -26.5200  -29.3530   20.6870 C   0  0  0  0  0  0  0  0  0  0  0  0
  -27.7960  -28.7460   20.7000 C   0  0  0  0  0  3  0  0  0  0  0  0
  -26.9260  -26.9060   19.3700 C   0  0  0  0  0  3  0  0  0  0  0  0
  -25.6600  -27.5230   19.3360 C   0  0  0  0  0  3  0  0  0  0  0  0
  -24.1310  -29.4590   20.0110 C   0  0  0  0  0  2  0  0  0  0  0  0
  -24.9200  -30.7050   22.0780 N   0  0  0  0  0  0  0  0  0  0  0  0
  -23.5730  -31.5220   23.7090 O   0  0  0  0  0  0  0  0  0  0  0  0
  -23.1750  -28.8600   22.2590 C   0  0  0  0  0  0  0  0  0  0  0  0
  -21.8890  -28.5490   22.0290 N   0  0  0  0  0  0  0  0  0  0  0  0
  -23.8740  -28.2490   23.0710 O   0  0  0  0  0  0  0  0  0  0  0  0
  -21.3820  -29.1010   21.3520 H   0  0  0  0  0  0  0  0  0  0  0  0
  -18.6320  -26.9950   22.2430 C   0  0  0  0  0  0  0  0  0  0  0  0
  -21.1350  -27.4740   22.6740 C   0  0  0  0  0  3  0  0  0  0  0  0
  -21.4100  -26.1140   21.9960 C   0  0  0  0  0  2  0  0  0  0  0  0
  -20.3970  -25.7710   20.8990 C   0  0  0  0  0  2  0  0  0  0  0  0
  -18.9780  -25.7280   21.4750 C   0  0  0  0  0  2  0  0  0  0  0  0
  -19.6470  -27.8230   22.7920 C   0  0  0  0  0  0  0  0  0  0  0  0
  -19.2760  -29.0060   23.4670 C   0  0  0  0  0  3  0  0  0  0  0  0
  -17.9210  -29.3660   23.5960 C   0  0  0  0  0  3  0  0  0  0  0  0
  -16.9190  -28.5350   23.0620 C   0  0  0  0  0  3  0  0  0  0  0  0
  -17.2760  -27.3500   22.3950 C   0  0  0  0  0  3  0  0  0  0  0  0
  -25.8790  -32.1210   23.9780 C   0  0  0  0  0  3  0  0  0  0  0  0
  -26.2910  -31.3960   25.3160 C   0  0  1  0  0  0  0  0  0  0  0  0
  -25.1030  -31.1150   26.2680 C   0  0  0  0  0  1  0  0  0  0  0  0
  -26.9820  -30.0500   25.0080 C   0  0  0  0  0  1  0  0  0  0  0  0
  -27.3210  -32.2580   26.0830 C   0  0  0  0  0  1  0  0  0  0  0  0
  -25.4580  -33.5030   24.2450 N   0  0  0  0  0  0  0  0  0  0  0  0
  -25.8150  -34.5580   23.5030 C   0  0  0  0  0  0  0  0  0  0  0  0
  -26.6000  -34.4750   22.5530 O   0  0  0  0  0  0  0  0  0  0  0  0
  -24.7730  -33.6370   24.9730 H   0  0  0  0  0  0  0  0  0  0  0  0
  -24.0320  -36.2290   22.9220 C   0  0  0  0  0  1  0  0  0  0  0  0
  -25.2020  -35.9240   23.8720 C   0  0  0  0  0  3  0  0  0  0  0  0
  -27.1700  -36.9580   24.9090 C   0  0  0  0  0  1  0  0  0  0  0  0
  -26.1770  -37.0360   23.8390 N   0  0  0  0  0  0  0  0  0  0  0  0
  -25.7020  -37.9310   23.9120 H   0  0  0  0  0  0  0  0  0  0  0  0
  1  2  2  0
  3  1  1  0
  4 10  1  0
  5 10  1  0
  6  7  1  0
  6  5  1  0
  8  7  1  0
  8 19  1  0
  8  9  1  0
 10  9  1  0
 11  4  2  0
 12 13  1  0
 12 15  1  0
 13 44  1  0
 13 14  1  0
 14  3  1  0
 15 14  1  0
 15  4  1  0
 16 17  2  0
 17 36  1  0
 18 17  1  0
 18 21  1  0
 19 20  1  0
 19 16  1  0
 20 18  2  0
 21 22  1  0
 22 23  2  0
 24 27  1  0
 24 23  1  0
 25 24  2  0
 26 25  1  0
 26 21  2  0
 27 28  1  0
 28 29  1  0
 29 30  2  0
 31 30  1  0
 31 35  1  0
 32 31  2  0
 33 28  2  0
 33 32  1  0
 34 33  1  0
 36 37  1  0
 37 40  1  0
 37 39  1  0
 38 36  2  0
 41 16  1  0
 41 42  1  0
 43 41  1  0
 44 46  1  0
 44 45  1  0
 47 44  1  0
 48  1  1  0
 49 48  1  0
 49 50  1  0
 51 50  1  0
 52 51  1  0
 52 53  1  0
 54 53  1  0
 55 66  2  0
 56 54  1  0
 56 61  1  0
 57 65  1  0
 57 67  1  0
 58 64  1  0
 58 60  1  0
 59 65  1  0
 60 61  2  0
 60 59  1  0
 62 56  2  0
 63 62  1  0
 63 58  2  0
 64 57  1  0
 65 55  1  0
 67 69  2  0
 68 67  1  0
 70 68  1  0
 71 80  2  0
 71 76  1  0
 72 68  1  0
 72 76  1  0
 73 72  1  0
 74 75  1  0
 74 73  1  0
 75 71  1  0
 76 77  2  0
 77 78  1  0
 79 78  2  0
 80 79  1  0
 81 55  1  0
 81 86  1  0
 81 82  1  0
 82 85  1  1
 82 83  1  0
 84 82  1  0
 86 89  1  0
 87 91  1  0
 87 86  1  0
 88 87  2  0
 91 90  1  0
 93 91  1  0
 93 94  1  0
 93 92  1  0
M  ISO  4   4 100  15 100  53 101  54 101
M  END
>  <TORSDO>  (83) 
F 24

>  <SCORE>  (83) 
-9.415

>  <name>  (83) 
83

>  <ligand_id>  (83) 
83

>  <original_smiles>  (83) 
[H]c1c([H])c([H])c2c(c1[H])C([H])([H])C([H])([H])C([H])([H])C2([H])N([H])C(=O)C1([H])N(C(=O)C([H])(N([H])C(=O)C([H])(N([H])C([H])([H])[H])C([H])([H])[H])C(C([H])([H])[H])(C([H])([H])[H])C([H])([H])[H])C([H])([H])c2c([H])c(OC([H])([H])C([H])([H])C([H])([H])C([H])([H])C([H])([H])C([H])([H])C(=O)C([H])([H])C3([H])N(C(=O)N4C([H])([H])C([H])([H])C([H])([H])C([H])(n5nc(-c6c([H])c([H])c(Oc7c([H])c([H])c(F)c([H])c7F)c([H])c6[H])c(C(=O)N([H])[H])c5N([H])[H])C4([H])[H])C([H])([H])C3([H])[N+]([H])([H])[H])c([H])c([H])c2C1([H])[H]

>  <smiles>  (83) 
[H]c1c([H])c([H])c2c(c1[H])C([H])([H])C([H])([H])C([H])([H])C2([H])N([H])C(=O)C1([H])N(C(=O)C([H])(N([H])C(=O)C([H])(N([H])C([H])([H])[H])C([H])([H])[H])C(C([H])([H])[H])(C([H])([H])[H])C([H])([H])[H])C([H])([H])c2c([H])c(OC([H])([H])C([H])([H])C([H])([H])C([H])([H])C([H])([H])C([H])([H])C(=O)C([H])([H])C3([H])N(C(=O)N4C([H])([H])C([H])([H])C([H])([H])C([H])(n5nc(-c6c([H])c([H])c(Oc7c([H])c([H])c(F)c([H])c7F)c([H])c6[H])c(C(=O)N([H])[H])c5N([H])[H])C4([H])[H])C([H])([H])C3([H])[N+]([H])([H])[H])c([H])c([H])c2C1([H])[H]

$$$$
84:0:0
     RDKit          3D

101109  0  0  1  0  0  0  0  0999 V2000
  -31.3940  -19.4140   17.8430 C   0  0  0  0  0  3  0  0  0  0  0  0
  -30.4330  -19.7930   18.7220 C   0  0  0  0  0  0  0  0  0  0  0  0
  -28.2400  -18.5390   18.1950 C   0  0  0  0  0  2  0  0  0  0  0  0
  -27.7330  -17.5920   19.2850 C   0  0  0  0  0  3  0  0  0  0  0  0
  -29.0830  -17.8210   19.9850 C   0  0  0  0  0  3  0  0  0  0  0  0
  -26.4380  -17.9490   20.0220 C   0  0  0  0  0  1  0  0  0  0  0  0
  -29.1850  -19.0630   19.1730 N   0  0  1  0  0  4  0  0  0  0  0  0
  -28.6480  -19.7350   19.7000 H   0  0  0  0  0  0  0  0  0  0  0  0
  -30.2090  -16.7730   19.8750 C   0  0  0  0  0  2  0  0  0  0  0  0
  -30.6460  -14.3880   20.3240 C   0  0  0  0  0  0  0  0  0  0  0  0
  -30.3290  -12.1870   19.2990 C   0  0  0  0  0  2  0  0  0  0  0  0
  -29.3800  -12.3670   18.0970 C   0  0  0  0  0  2  0  0  0  0  0  0
  -27.9080  -12.2410   18.5440 C   0  0  0  0  0  2  0  0  0  0  0  0
  -27.5790  -13.1040   19.7910 C   0  0  0  0  0  3  0  0  0  0  0  0
  -28.6550  -12.9390   20.8920 C   0  0  0  0  0  2  0  0  0  0  0  0
  -29.9710  -13.2100   20.2920 N   0  0  0  0  0  0  0  0  0  0  0  0
  -31.7980  -14.5130   19.9030 O   0  0  0  0  0  0  0  0  0  0  0  0
  -29.8940  -15.4860   20.5320 N   0  0  0  0  0  0  0  0  0  0  0  0
  -28.9620  -15.3490   20.8900 H   0  0  0  0  0  0  0  0  0  0  0  0
  -25.1900  -13.7040   20.5360 C   0  0  0  0  0  0  0  0  0  0  0  0
  -24.1280  -12.9330   20.9240 C   0  0  0  0  0  0  0  0  0  0  0  0
  -24.5900  -11.5830   20.8840 C   0  0  0  0  0  0  0  0  0  0  0  0
  -26.2350  -12.8260   20.2910 N   0  0  0  0  0  0  0  0  0  0  0  0
  -25.8760  -11.5440   20.5590 N   0  0  0  0  0  0  0  0  0  0  0  0
  -23.8630  -10.3230   21.0830 C   0  0  0  0  0  0  0  0  0  0  0  0
  -24.3170   -9.3440   21.9950 C   0  0  0  0  0  3  0  0  0  0  0  0
  -23.5890   -8.1490   22.1800 C   0  0  0  0  0  3  0  0  0  0  0  0
  -22.3950   -7.9240   21.4560 C   0  0  0  0  0  0  0  0  0  0  0  0
  -21.9620   -8.8910   20.5300 C   0  0  0  0  0  3  0  0  0  0  0  0
  -22.6900  -10.0770   20.3420 C   0  0  0  0  0  3  0  0  0  0  0  0
  -21.6370   -6.7830   21.5540 O   0  0  0  0  0  0  0  0  0  0  0  0
  -21.6310   -6.0190   22.6950 C   0  0  0  0  0  0  0  0  0  0  0  0
  -21.2620   -6.5560   23.9480 C   0  0  0  0  0  3  0  0  0  0  0  0
  -21.2020   -5.7200   25.0810 C   0  0  0  0  0  3  0  0  0  0  0  0
  -21.5030   -4.3500   24.9630 C   0  0  0  0  0  0  0  0  0  0  0  0
  -21.8660   -3.8140   23.7150 C   0  0  0  0  0  3  0  0  0  0  0  0
  -21.9280   -4.6470   22.5850 C   0  0  0  0  0  0  0  0  0  0  0  0
  -22.2590   -4.1200   21.3800 F   0  0  0  0  0  0  0  0  0  0  0  0
  -21.4390   -3.5460   26.0490 F   0  0  0  0  0  0  0  0  0  0  0  0
  -22.7350  -13.4140   21.2160 C   0  0  0  0  0  0  0  0  0  0  0  0
  -22.0190  -12.7240   22.0980 N   0  0  0  0  0  0  0  0  0  0  0  0
  -22.2900  -14.4380   20.6980 O   0  0  0  0  0  0  0  0  0  0  0  0
  -22.3900  -11.8970   22.5420 H   0  0  0  0  0  0  0  0  0  0  0  0
  -21.0860  -13.0310   22.3340 H   0  0  0  0  0  0  0  0  0  0  0  0
  -25.3460  -15.0720   20.3520 N   0  0  0  0  0  0  0  0  0  0  0  0
  -24.5740  -15.7180   20.4820 H   0  0  0  0  0  0  0  0  0  0  0  0
  -26.1780  -15.5160   19.9940 H   0  0  0  0  0  0  0  0  0  0  0  0
  -31.5560  -18.1790   16.9600 C   0  0  0  0  0  2  0  0  0  0  0  0
  -31.9750  -18.5480   15.5930 N   0  0  0  0  0  4  0  0  0  0  0  0
  -31.2950  -19.1280   15.1350 H   0  0  0  0  0  0  0  0  0  0  0  0
  -32.0990  -17.7220   15.0320 H   0  0  0  0  0  0  0  0  0  0  0  0
  -32.8550  -19.0340   15.6010 H   0  0  0  0  0  0  0  0  0  0  0  0
  -30.4540  -21.1790   19.3740 C   0  0  0  0  0  2  0  0  0  0  0  0
  -29.5960  -22.1900   18.5590 C   0  0  0  0  0  2  0  0  0  0  0  0
  -29.9220  -23.6820   18.7370 C   0  0  0  0  0  0  0  0  0  0  0  0
  -28.9870  -24.5420   18.3070 N   0  0  0  0  0  0  0  0  0  0  0  0
  -31.0090  -24.0460   19.1860 O   0  0  0  0  0  0  0  0  0  0  0  0
  -28.1140  -24.1410   17.9880 H   0  0  0  0  0  0  0  0  0  0  0  0
  -29.1440  -25.9810   18.0670 C   0  0  0  0  0  2  0  0  0  0  0  0
  -29.2930  -26.8250   19.3470 C   0  0  0  0  0  2  0  0  0  0  0  0
  -28.2430  -26.5500   20.2620 O   0  0  0  0  0  0  0  0  0  0  0  0
  -24.5100  -31.8040   23.2450 C   0  0  0  0  0  0  0  0  0  0  0  0
  -27.1280  -27.3440   20.1890 C   0  0  0  0  0  0  0  0  0  0  0  0
  -23.2970  -30.4090   21.5980 C   0  0  0  0  0  3  0  0  0  0  0  0
  -24.7450  -28.8530   20.1850 C   0  0  0  0  0  0  0  0  0  0  0  0
  -25.8250  -30.7470   21.4110 C   0  0  0  0  0  2  0  0  0  0  0  0
  -25.9030  -29.3750   20.7750 C   0  0  0  0  0  0  0  0  0  0  0  0
  -27.1000  -28.6260   20.7790 C   0  0  0  0  0  3  0  0  0  0  0  0
  -25.9570  -26.8220   19.6060 C   0  0  0  0  0  3  0  0  0  0  0  0
  -24.7650  -27.5740   19.5970 C   0  0  0  0  0  3  0  0  0  0  0  0
  -23.5060  -29.7200   20.2220 C   0  0  0  0  0  2  0  0  0  0  0  0
  -24.5620  -31.0010   22.1440 N   0  0  0  0  0  0  0  0  0  0  0  0
  -23.4290  -32.0910   23.7780 O   0  0  0  0  0  0  0  0  0  0  0  0
  -22.6280  -29.4010   22.5590 C   0  0  0  0  0  0  0  0  0  0  0  0
  -21.3000  -29.2460   22.4350 N   0  0  0  0  0  0  0  0  0  0  0  0
  -23.3010  -28.7600   23.3710 O   0  0  0  0  0  0  0  0  0  0  0  0
  -20.8200  -29.8150   21.7510 H   0  0  0  0  0  0  0  0  0  0  0  0
  -17.9010  -28.1340   22.9470 C   0  0  0  0  0  0  0  0  0  0  0  0
  -20.4670  -28.3250   23.2060 C   0  0  0  0  0  3  0  0  0  0  0  0
  -20.5290  -26.8950   22.6210 C   0  0  0  0  0  2  0  0  0  0  0  0
  -19.4130  -26.6070   21.6110 C   0  0  0  0  0  2  0  0  0  0  0  0
  -18.0400  -26.7850   22.2640 C   0  0  0  0  0  2  0  0  0  0  0  0
  -19.0410  -28.8650   23.3750 C   0  0  0  0  0  0  0  0  0  0  0  0
  -18.8590  -30.1310   23.9730 C   0  0  0  0  0  3  0  0  0  0  0  0
  -17.5690  -30.6650   24.1490 C   0  0  0  0  0  3  0  0  0  0  0  0
  -16.4430  -29.9310   23.7380 C   0  0  0  0  0  3  0  0  0  0  0  0
  -16.6100  -28.6680   23.1430 C   0  0  0  0  0  3  0  0  0  0  0  0
  -25.8020  -32.4200   23.8690 C   0  0  0  0  0  3  0  0  0  0  0  0
  -26.3020  -31.6500   25.1520 C   0  0  1  0  0  0  0  0  0  0  0  0
  -25.2020  -31.4340   26.2160 C   0  0  0  0  0  1  0  0  0  0  0  0
  -26.8670  -30.2620   24.7680 C   0  0  0  0  0  1  0  0  0  0  0  0
  -27.4610  -32.4310   25.8150 C   0  0  0  0  0  1  0  0  0  0  0  0
  -25.5130  -33.8250   24.1850 N   0  0  0  0  0  0  0  0  0  0  0  0
  -25.8710  -34.8650   23.4200 C   0  0  0  0  0  0  0  0  0  0  0  0
  -26.5500  -34.7420   22.3980 O   0  0  0  0  0  0  0  0  0  0  0  0
  -24.9140  -33.9970   24.9790 H   0  0  0  0  0  0  0  0  0  0  0  0
  -24.1770  -36.6810   23.0280 C   0  0  0  0  0  1  0  0  0  0  0  0
  -25.4010  -36.2640   23.8600 C   0  0  0  0  0  3  0  0  0  0  0  0
  -27.5380  -37.1200   24.7140 C   0  0  0  0  0  1  0  0  0  0  0  0
  -26.4520  -37.2990   23.7530 N   0  0  0  0  0  0  0  0  0  0  0  0
  -26.0590  -38.2270   23.8880 H   0  0  0  0  0  0  0  0  0  0  0  0
  1  2  2  0
  2  7  1  0
  2 53  1  0
  3  7  1  0
  3  4  1  0
  4  5  1  0
  4  6  1  0
  5  9  1  0
  7  8  1  1
  7  5  1  0
  9 18  1  0
 10 18  1  0
 11 16  1  0
 12 13  1  0
 12 11  1  0
 14 13  1  0
 14 23  1  0
 14 15  1  0
 16 10  1  0
 16 15  1  0
 17 10  2  0
 18 19  1  0
 20 21  2  0
 21 40  1  0
 22 21  1  0
 22 25  1  0
 23 20  1  0
 23 24  1  0
 24 22  2  0
 25 26  1  0
 26 27  2  0
 28 31  1  0
 28 27  1  0
 29 28  2  0
 30 29  1  0
 30 25  2  0
 31 32  1  0
 32 33  1  0
 33 34  2  0
 35 34  1  0
 35 39  1  0
 36 35  2  0
 37 32  2  0
 37 36  1  0
 38 37  1  0
 40 41  1  0
 41 44  1  0
 41 43  1  0
 42 40  2  0
 45 46  1  0
 45 20  1  0
 47 45  1  0
 48  1  1  0
 49 52  1  0
 49 48  1  0
 50 49  1  0
 51 49  1  0
 54 55  1  0
 54 53  1  0
 55 57  2  0
 56 55  1  0
 58 56  1  0
 59 56  1  0
 59 60  1  0
 60 61  1  0
 62 73  2  0
 63 61  1  0
 63 68  1  0
 64 72  1  0
 64 74  1  0
 65 71  1  0
 65 67  1  0
 66 72  1  0
 67 68  2  0
 67 66  1  0
 69 63  2  0
 70 69  1  0
 70 65  2  0
 71 64  1  0
 72 62  1  0
 74 76  2  0
 75 74  1  0
 77 75  1  0
 78 87  2  0
 78 83  1  0
 79 75  1  0
 79 83  1  0
 80 79  1  0
 81 82  1  0
 81 80  1  0
 82 78  1  0
 83 84  2  0
 84 85  1  0
 86 85  2  0
 87 86  1  0
 88 62  1  0
 88 93  1  0
 88 89  1  0
 89 92  1  1
 89 90  1  0
 91 89  1  0
 93 96  1  0
 94 98  1  0
 94 93  1  0
 95 94  2  0
 98 97  1  0
100 98  1  0
100101  1  0
100 99  1  0
M  ISO  4  10 100  18 100  60 101  61 101
M  END
>  <TORSDO>  (84) 
F 25

>  <SCORE>  (84) 
-12.418

>  <name>  (84) 
84

>  <ligand_id>  (84) 
84

>  <original_smiles>  (84) 
[H]C(=C(C([H])([H])C([H])([H])C(=O)N([H])C([H])([H])C([H])([H])Oc1c([H])c([H])c2c(c1[H])C([H])([H])N(C(=O)C([H])(N([H])C(=O)C([H])(N([H])C([H])([H])[H])C([H])([H])[H])C(C([H])([H])[H])(C([H])([H])[H])C([H])([H])[H])C([H])(C(=O)N([H])C1([H])c3c([H])c([H])c([H])c([H])c3C([H])([H])C([H])([H])C1([H])[H])C2([H])[H])[N+]1([H])C([H])([H])C([H])(C([H])([H])[H])C1([H])C([H])([H])N([H])C(=O)N1C([H])([H])C([H])([H])C([H])([H])C([H])(n2nc(-c3c([H])c([H])c(Oc4c([H])c([H])c(F)c([H])c4F)c([H])c3[H])c(C(=O)N([H])[H])c2N([H])[H])C1([H])[H])C([H])([H])[N+]([H])([H])[H]

>  <smiles>  (84) 
[H]C(=C(C([H])([H])C([H])([H])C(=O)N([H])C([H])([H])C([H])([H])Oc1c([H])c([H])c2c(c1[H])C([H])([H])N(C(=O)C([H])(N([H])C(=O)C([H])(N([H])C([H])([H])[H])C([H])([H])[H])C(C([H])([H])[H])(C([H])([H])[H])C([H])([H])[H])C([H])(C(=O)N([H])C1([H])c3c([H])c([H])c([H])c([H])c3C([H])([H])C([H])([H])C1([H])[H])C2([H])[H])[N+]1([H])C([H])([H])C([H])(C([H])([H])[H])C1([H])C([H])([H])N([H])C(=O)N1C([H])([H])C([H])([H])C([H])([H])C([H])(n2nc(-c3c([H])c([H])c(Oc4c([H])c([H])c(F)c([H])c4F)c([H])c3[H])c(C(=O)N([H])[H])c2N([H])[H])C1([H])[H])C([H])([H])[N+]([H])([H])[H]

$$$$
85:0:0
     RDKit          3D

 93101  0  0  1  0  0  0  0  0999 V2000
  -29.8300  -20.6220   20.0520 C   0  0  0  0  0  2  0  0  0  0  0  0
  -30.7180  -20.2560   21.2480 C   0  0  0  0  0  3  0  0  0  0  0  0
  -29.8290  -21.2790   21.9730 C   0  0  0  0  0  3  0  0  0  0  0  0
  -29.7390  -21.9640   20.6690 N   0  0  2  0  0  4  0  0  0  0  0  0
  -30.5900  -22.4730   20.4830 H   0  0  0  0  0  0  0  0  0  0  0  0
  -30.5310  -22.0950   23.0460 C   0  0  0  0  0  3  0  0  0  0  0  0
  -29.9540  -22.5320   24.0840 N   0  0  0  0  0  0  0  0  0  0  0  0
  -28.9740  -22.2670   24.1280 H   0  0  0  0  0  0  0  0  0  0  0  0
  -30.7480  -18.8240   21.7940 C   0  0  0  0  0  3  0  0  0  0  0  0
  -30.9370  -17.6830   21.0940 C   0  0  0  0  0  3  0  0  0  0  0  0
  -31.1360  -16.3150   21.7580 C   0  0  0  0  0  2  0  0  0  0  0  0
  -30.8420  -14.3750   20.1960 C   0  0  0  0  0  0  0  0  0  0  0  0
  -30.3970  -12.3020   18.9170 C   0  0  0  0  0  2  0  0  0  0  0  0
  -29.3970  -12.5700   17.7780 C   0  0  0  0  0  2  0  0  0  0  0  0
  -27.9440  -12.4420   18.2790 C   0  0  0  0  0  2  0  0  0  0  0  0
  -27.6940  -13.2470   19.5800 C   0  0  0  0  0  3  0  0  0  0  0  0
  -28.7960  -12.9520   20.6200 C   0  0  0  0  0  2  0  0  0  0  0  0
  -30.1020  -13.2480   20.0030 N   0  0  0  0  0  0  0  0  0  0  0  0
  -31.8650  -14.6310   19.5530 O   0  0  0  0  0  0  0  0  0  0  0  0
  -30.4010  -15.1950   21.1650 N   0  0  0  0  0  0  0  0  0  0  0  0
  -29.5830  -14.8770   21.6640 H   0  0  0  0  0  0  0  0  0  0  0  0
  -25.3400  -13.8860   20.4090 C   0  0  0  0  0  0  0  0  0  0  0  0
  -24.2780  -13.1250   20.8240 C   0  0  0  0  0  0  0  0  0  0  0  0
  -24.7170  -11.7680   20.7550 C   0  0  0  0  0  0  0  0  0  0  0  0
  -26.3600  -12.9920   20.1200 N   0  0  0  0  0  0  0  0  0  0  0  0
  -25.9900  -11.7130   20.3830 N   0  0  0  0  0  0  0  0  0  0  0  0
  -23.9820  -10.5140   20.9640 C   0  0  0  0  0  0  0  0  0  0  0  0
  -24.4280   -9.5430   21.8890 C   0  0  0  0  0  3  0  0  0  0  0  0
  -23.6950   -8.3520   22.0890 C   0  0  0  0  0  3  0  0  0  0  0  0
  -22.5010   -8.1250   21.3650 C   0  0  0  0  0  0  0  0  0  0  0  0
  -22.0740   -9.0810   20.4280 C   0  0  0  0  0  3  0  0  0  0  0  0
  -22.8090  -10.2620   20.2260 C   0  0  0  0  0  3  0  0  0  0  0  0
  -21.7380   -6.9860   21.4760 O   0  0  0  0  0  0  0  0  0  0  0  0
  -21.6920   -6.2620   22.6400 C   0  0  0  0  0  0  0  0  0  0  0  0
  -21.2670   -6.8360   23.8590 C   0  0  0  0  0  3  0  0  0  0  0  0
  -21.1680   -6.0390   25.0140 C   0  0  0  0  0  3  0  0  0  0  0  0
  -21.4800   -4.6660   24.9550 C   0  0  0  0  0  0  0  0  0  0  0  0
  -21.8980   -4.0920   23.7420 C   0  0  0  0  0  3  0  0  0  0  0  0
  -22.0010   -4.8880   22.5870 C   0  0  0  0  0  0  0  0  0  0  0  0
  -22.3850   -4.3240   21.4150 F   0  0  0  0  0  0  0  0  0  0  0  0
  -21.3720   -3.9000   26.0630 F   0  0  0  0  0  0  0  0  0  0  0  0
  -22.9030  -13.6160   21.1710 C   0  0  0  0  0  0  0  0  0  0  0  0
  -22.2040  -12.9210   22.0640 N   0  0  0  0  0  0  0  0  0  0  0  0
  -22.4570  -14.6580   20.6870 O   0  0  0  0  0  0  0  0  0  0  0  0
  -22.5790  -12.0840   22.4820 H   0  0  0  0  0  0  0  0  0  0  0  0
  -21.2830  -13.2320   22.3360 H   0  0  0  0  0  0  0  0  0  0  0  0
  -25.5160  -15.2540   20.2380 N   0  0  0  0  0  0  0  0  0  0  0  0
  -24.7680  -15.9180   20.4090 H   0  0  0  0  0  0  0  0  0  0  0  0
  -26.3600  -15.6840   19.8820 H   0  0  0  0  0  0  0  0  0  0  0  0
  -28.5160  -22.7840   20.3880 C   0  0  0  0  0  2  0  0  0  0  0  0
  -28.7960  -24.2480   19.8940 C   0  0  0  0  0  2  0  0  0  0  0  0
  -28.4820  -25.3850   20.9090 C   0  0  0  0  0  2  0  0  0  0  0  0
  -28.5940  -26.7200   20.3620 O   0  0  0  0  0  0  0  0  0  0  0  0
  -24.6690  -31.9420   23.2530 C   0  0  0  0  0  0  0  0  0  0  0  0
  -27.4260  -27.4590   20.3190 C   0  0  0  0  0  0  0  0  0  0  0  0
  -23.5120  -30.4910   21.6170 C   0  0  0  0  0  3  0  0  0  0  0  0
  -25.0140  -28.9450   20.2460 C   0  0  0  0  0  0  0  0  0  0  0  0
  -26.0390  -30.8760   21.4610 C   0  0  0  0  0  2  0  0  0  0  0  0
  -26.1540  -29.4920   20.8500 C   0  0  0  0  0  0  0  0  0  0  0  0
  -27.3620  -28.7560   20.8830 C   0  0  0  0  0  3  0  0  0  0  0  0
  -26.2730  -26.9320   19.6990 C   0  0  0  0  0  3  0  0  0  0  0  0
  -25.0700  -27.6650   19.6670 C   0  0  0  0  0  3  0  0  0  0  0  0
  -23.7570  -29.7880   20.2550 C   0  0  0  0  0  2  0  0  0  0  0  0
  -24.7570  -31.1210   22.1680 N   0  0  0  0  0  0  0  0  0  0  0  0
  -23.5740  -32.2110   23.7670 O   0  0  0  0  0  0  0  0  0  0  0  0
  -22.8560  -29.4830   22.5840 C   0  0  0  0  0  0  0  0  0  0  0  0
  -21.5350  -29.2930   22.4450 N   0  0  0  0  0  0  0  0  0  0  0  0
  -23.5330  -28.8750   23.4160 O   0  0  0  0  0  0  0  0  0  0  0  0
  -21.0510  -29.8410   21.7490 H   0  0  0  0  0  0  0  0  0  0  0  0
  -18.1630  -28.0780   22.9040 C   0  0  0  0  0  0  0  0  0  0  0  0
  -20.7140  -28.3570   23.2140 C   0  0  0  0  0  3  0  0  0  0  0  0
  -20.8380  -26.9230   22.6510 C   0  0  0  0  0  2  0  0  0  0  0  0
  -19.7530  -26.5800   21.6250 C   0  0  0  0  0  2  0  0  0  0  0  0
  -18.3620  -26.7230   22.2460 C   0  0  0  0  0  2  0  0  0  0  0  0
  -19.2690  -28.8530   23.3420 C   0  0  0  0  0  0  0  0  0  0  0  0
  -19.0340  -30.1210   23.9190 C   0  0  0  0  0  3  0  0  0  0  0  0
  -17.7240  -30.6160   24.0590 C   0  0  0  0  0  3  0  0  0  0  0  0
  -16.6320  -29.8400   23.6330 C   0  0  0  0  0  3  0  0  0  0  0  0
  -16.8510  -28.5720   23.0640 C   0  0  0  0  0  3  0  0  0  0  0  0
  -25.9360  -32.5990   23.8850 C   0  0  0  0  0  3  0  0  0  0  0  0
  -25.6000  -33.9930   24.2030 N   0  0  0  0  0  0  0  0  0  0  0  0
  -25.9190  -35.0470   23.4400 C   0  0  0  0  0  0  0  0  0  0  0  0
  -26.5980  -34.9510   22.4150 O   0  0  0  0  0  0  0  0  0  0  0  0
  -25.0000  -34.1440   25.0010 H   0  0  0  0  0  0  0  0  0  0  0  0
  -24.1580  -36.8030   23.0610 C   0  0  0  0  0  1  0  0  0  0  0  0
  -25.4000  -36.4290   23.8860 C   0  0  0  0  0  3  0  0  0  0  0  0
  -27.5070  -37.3640   24.7310 C   0  0  0  0  0  1  0  0  0  0  0  0
  -26.4110  -37.5020   23.7750 N   0  0  0  0  0  0  0  0  0  0  0  0
  -25.9840  -38.4150   23.9110 H   0  0  0  0  0  0  0  0  0  0  0  0
  -26.4560  -31.8420   25.1670 C   0  0  1  0  0  0  0  0  0  0  0  0
  -25.3550  -31.5860   26.2200 C   0  0  0  0  0  1  0  0  0  0  0  0
  -27.0720  -30.4760   24.7800 C   0  0  0  0  0  1  0  0  0  0  0  0
  -27.5810  -32.6620   25.8410 C   0  0  0  0  0  1  0  0  0  0  0  0
  1  4  1  0
  1  2  1  0
  2  9  1  0
  2  3  1  0
  3  6  1  0
  4  3  1  0
  4  5  1  6
  6  7  2  0
  7  8  1  0
 10 11  1  0
 10  9  2  0
 12 20  1  0
 13 18  1  0
 14 15  1  0
 14 13  1  0
 16 15  1  0
 16 25  1  0
 16 17  1  0
 18 12  1  0
 18 17  1  0
 19 12  2  0
 20 21  1  0
 20 11  1  0
 22 23  2  0
 23 42  1  0
 24 23  1  0
 24 27  1  0
 25 26  1  0
 25 22  1  0
 26 24  2  0
 27 28  1  0
 28 29  2  0
 30 33  1  0
 30 29  1  0
 31 30  2  0
 32 31  1  0
 32 27  2  0
 33 34  1  0
 34 35  1  0
 35 36  2  0
 37 36  1  0
 37 41  1  0
 38 37  2  0
 39 34  2  0
 39 38  1  0
 40 39  1  0
 42 43  1  0
 43 46  1  0
 43 45  1  0
 44 42  2  0
 47 48  1  0
 47 22  1  0
 49 47  1  0
 50  4  1  0
 51 50  1  0
 51 52  1  0
 53 52  1  0
 54 65  2  0
 55 53  1  0
 55 60  1  0
 56 64  1  0
 56 66  1  0
 57 63  1  0
 57 59  1  0
 58 64  1  0
 59 60  2  0
 59 58  1  0
 61 55  2  0
 62 61  1  0
 62 57  2  0
 63 56  1  0
 64 54  1  0
 66 68  2  0
 67 66  1  0
 69 67  1  0
 70 79  2  0
 70 75  1  0
 71 67  1  0
 71 75  1  0
 72 71  1  0
 73 74  1  0
 73 72  1  0
 74 70  1  0
 75 76  2  0
 76 77  1  0
 78 77  2  0
 79 78  1  0
 80 54  1  0
 80 81  1  0
 80 90  1  0
 81 84  1  0
 82 86  1  0
 82 81  1  0
 83 82  2  0
 86 85  1  0
 88 86  1  0
 88 89  1  0
 88 87  1  0
 90 93  1  1
 90 91  1  0
 92 90  1  0
M  ISO  4  12 100  20 100  52 101  53 101
M  END
>  <TORSDO>  (85) 
F 22

>  <SCORE>  (85) 
-13.536

>  <name>  (85) 
85

>  <ligand_id>  (85) 
85

>  <original_smiles>  (85) 
[H]N=C([H])C1([H])C([H])(C([H])=C([H])C([H])([H])N([H])C(=O)N2C([H])([H])C([H])([H])C([H])([H])C([H])(n3nc(-c4c([H])c([H])c(Oc5c([H])c([H])c(F)c([H])c5F)c([H])c4[H])c(C(=O)N([H])[H])c3N([H])[H])C2([H])[H])C([H])([H])[N+]1([H])C([H])([H])C([H])([H])C([H])([H])Oc1c([H])c([H])c2c(c1[H])C([H])([H])N(C(=O)C([H])(N([H])C(=O)C([H])(N([H])C([H])([H])[H])C([H])([H])[H])C(C([H])([H])[H])(C([H])([H])[H])C([H])([H])[H])C([H])(C(=O)N([H])C1([H])c3c([H])c([H])c([H])c([H])c3C([H])([H])C([H])([H])C1([H])[H])C2([H])[H]

>  <smiles>  (85) 
[H]N=C([H])C1([H])C([H])(C([H])=C([H])C([H])([H])N([H])C(=O)N2C([H])([H])C([H])([H])C([H])([H])C([H])(n3nc(-c4c([H])c([H])c(Oc5c([H])c([H])c(F)c([H])c5F)c([H])c4[H])c(C(=O)N([H])[H])c3N([H])[H])C2([H])[H])C([H])([H])[N+]1([H])C([H])([H])C([H])([H])C([H])([H])Oc1c([H])c([H])c2c(c1[H])C([H])([H])N(C(=O)C([H])(N([H])C(=O)C([H])(N([H])C([H])([H])[H])C([H])([H])[H])C(C([H])([H])[H])(C([H])([H])[H])C([H])([H])[H])C([H])(C(=O)N([H])C1([H])c3c([H])c([H])c([H])c([H])c3C([H])([H])C([H])([H])C1([H])[H])C2([H])[H]

$$$$
87:0:0
     RDKit          3D

 89 97  0  0  1  0  0  0  0  0999 V2000
  -29.3870  -21.4830   20.9250 C   0  0  0  0  0  2  0  0  0  0  0  0
  -29.7130  -19.1540   20.3720 N   0  0  0  0  0  2  0  0  0  0  0  0
  -28.8960  -20.1190   20.4600 N   0  0  0  0  0  2  0  0  0  0  0  0
  -30.6340  -14.6980   19.9760 C   0  0  0  0  0  0  0  0  0  0  0  0
  -30.3540  -12.5090   18.8560 C   0  0  0  0  0  2  0  0  0  0  0  0
  -29.3360  -12.6980   17.7090 C   0  0  0  0  0  2  0  0  0  0  0  0
  -27.8940  -12.5140   18.2270 C   0  0  0  0  0  2  0  0  0  0  0  0
  -27.6140  -13.3310   19.5170 C   0  0  0  0  0  3  0  0  0  0  0  0
  -28.7390  -13.1300   20.5540 C   0  0  0  0  0  2  0  0  0  0  0  0
  -30.0060  -13.4850   19.9010 N   0  0  0  0  0  0  0  0  0  0  0  0
  -31.8060  -14.8360   19.6110 O   0  0  0  0  0  0  0  0  0  0  0  0
  -29.6460  -16.8210   19.3660 C   0  0  0  0  0  0  0  0  0  0  0  0
  -29.0900  -17.7650   20.3940 C   0  0  0  0  0  3  0  0  0  0  0  0
  -29.8770  -16.7930   21.3150 C   0  0  0  0  0  3  0  0  0  0  0  0
  -29.1930  -16.2770   22.5750 C   0  0  0  0  0  1  0  0  0  0  0  0
  -29.8210  -15.7770   20.2140 N   0  0  0  0  0  0  0  0  0  0  0  0
  -29.7810  -16.9620   18.1460 O   0  0  0  0  0  0  0  0  0  0  0  0
  -25.2690  -13.9050   20.3980 C   0  0  0  0  0  0  0  0  0  0  0  0
  -24.2240  -13.1190   20.8020 C   0  0  0  0  0  0  0  0  0  0  0  0
  -24.6830  -11.7690   20.6980 C   0  0  0  0  0  0  0  0  0  0  0  0
  -26.2970  -13.0330   20.0730 N   0  0  0  0  0  0  0  0  0  0  0  0
  -25.9530  -11.7430   20.3120 N   0  0  0  0  0  0  0  0  0  0  0  0
  -23.9680  -10.4990   20.8840 C   0  0  0  0  0  0  0  0  0  0  0  0
  -24.4400   -9.5110   21.7740 C   0  0  0  0  0  3  0  0  0  0  0  0
  -23.7280   -8.3050   21.9490 C   0  0  0  0  0  3  0  0  0  0  0  0
  -22.5280   -8.0790   21.2330 C   0  0  0  0  0  0  0  0  0  0  0  0
  -22.0740   -9.0570   20.3300 C   0  0  0  0  0  3  0  0  0  0  0  0
  -22.7880  -10.2540   20.1530 C   0  0  0  0  0  3  0  0  0  0  0  0
  -21.7830   -6.9280   21.3210 O   0  0  0  0  0  0  0  0  0  0  0  0
  -21.7610   -6.1700   22.4650 C   0  0  0  0  0  0  0  0  0  0  0  0
  -21.3740   -6.7120   23.7110 C   0  0  0  0  0  3  0  0  0  0  0  0
  -21.2980   -5.8820   24.8460 C   0  0  0  0  0  3  0  0  0  0  0  0
  -21.6000   -4.5110   24.7390 C   0  0  0  0  0  0  0  0  0  0  0  0
  -21.9790   -3.9690   23.4990 C   0  0  0  0  0  3  0  0  0  0  0  0
  -22.0570   -4.7960   22.3640 C   0  0  0  0  0  0  0  0  0  0  0  0
  -22.4030   -4.2640   21.1680 F   0  0  0  0  0  0  0  0  0  0  0  0
  -21.5200   -3.7110   25.8280 F   0  0  0  0  0  0  0  0  0  0  0  0
  -22.8440  -13.5820   21.1730 C   0  0  0  0  0  0  0  0  0  0  0  0
  -22.1760  -12.8670   22.0710 N   0  0  0  0  0  0  0  0  0  0  0  0
  -22.3670  -14.6130   20.6990 O   0  0  0  0  0  0  0  0  0  0  0  0
  -22.5730  -12.0300   22.4750 H   0  0  0  0  0  0  0  0  0  0  0  0
  -21.2530  -13.1580   22.3620 H   0  0  0  0  0  0  0  0  0  0  0  0
  -25.4280  -15.2810   20.2560 N   0  0  0  0  0  0  0  0  0  0  0  0
  -24.6700  -15.9350   20.4120 H   0  0  0  0  0  0  0  0  0  0  0  0
  -26.2550  -15.7140   19.8720 H   0  0  0  0  0  0  0  0  0  0  0  0
  -28.9210  -22.6450   19.9590 C   0  0  0  0  0  2  0  0  0  0  0  0
  -28.9180  -24.1110   20.5690 C   0  0  0  0  0  3  0  0  0  0  0  0
  -28.6050  -25.3120   19.5950 C   0  0  0  0  0  3  0  0  0  0  0  0
  -28.4700  -26.6500   20.1970 O   0  0  0  0  0  0  0  0  0  0  0  0
  -24.5970  -31.8990   23.2180 C   0  0  0  0  0  0  0  0  0  0  0  0
  -27.2860  -27.3980   20.1550 C   0  0  0  0  0  0  0  0  0  0  0  0
  -23.4100  -30.4760   21.5860 C   0  0  0  0  0  3  0  0  0  0  0  0
  -24.8790  -28.9450   20.1640 C   0  0  0  0  0  0  0  0  0  0  0  0
  -25.9420  -30.8370   21.3960 C   0  0  0  0  0  2  0  0  0  0  0  0
  -26.0380  -29.4610   20.7550 C   0  0  0  0  0  0  0  0  0  0  0  0
  -27.2390  -28.6980   20.7420 C   0  0  0  0  0  3  0  0  0  0  0  0
  -26.0940  -26.9220   19.5560 C   0  0  0  0  0  3  0  0  0  0  0  0
  -24.9070  -27.6790   19.5630 C   0  0  0  0  0  3  0  0  0  0  0  0
  -23.6260  -29.7920   20.2110 C   0  0  0  0  0  2  0  0  0  0  0  0
  -24.6680  -31.0890   22.1230 N   0  0  0  0  0  0  0  0  0  0  0  0
  -23.5120  -32.1650   23.7530 O   0  0  0  0  0  0  0  0  0  0  0  0
  -22.7660  -29.4540   22.5540 C   0  0  0  0  0  0  0  0  0  0  0  0
  -21.4410  -29.2650   22.4360 N   0  0  0  0  0  0  0  0  0  0  0  0
  -23.4560  -28.8350   23.3680 O   0  0  0  0  0  0  0  0  0  0  0  0
  -20.9440  -29.8170   21.7510 H   0  0  0  0  0  0  0  0  0  0  0  0
  -18.0770  -28.0530   22.9600 C   0  0  0  0  0  0  0  0  0  0  0  0
  -20.6360  -28.3220   23.2110 C   0  0  0  0  0  3  0  0  0  0  0  0
  -20.7410  -26.8930   22.6270 C   0  0  0  0  0  2  0  0  0  0  0  0
  -19.6290  -26.5730   21.6220 C   0  0  0  0  0  2  0  0  0  0  0  0
  -18.2540  -26.7080   22.2800 C   0  0  0  0  0  2  0  0  0  0  0  0
  -19.1960  -28.8190   23.3830 C   0  0  0  0  0  0  0  0  0  0  0  0
  -18.9780  -30.0810   23.9760 C   0  0  0  0  0  3  0  0  0  0  0  0
  -17.6720  -30.5780   24.1530 C   0  0  0  0  0  3  0  0  0  0  0  0
  -16.5680  -29.8080   23.7500 C   0  0  0  0  0  3  0  0  0  0  0  0
  -16.7710  -28.5480   23.1600 C   0  0  0  0  0  3  0  0  0  0  0  0
  -25.8730  -32.5500   23.8370 C   0  0  0  0  0  3  0  0  0  0  0  0
  -26.3960  -31.7960   25.1210 C   0  0  1  0  0  0  0  0  0  0  0  0
  -25.3040  -31.5540   26.1870 C   0  0  0  0  0  1  0  0  0  0  0  0
  -26.9960  -30.4220   24.7420 C   0  0  0  0  0  1  0  0  0  0  0  0
  -27.5340  -32.6110   25.7790 C   0  0  0  0  0  1  0  0  0  0  0  0
  -25.5460  -33.9480   24.1560 N   0  0  0  0  0  0  0  0  0  0  0  0
  -25.8690  -35.0000   23.3930 C   0  0  0  0  0  0  0  0  0  0  0  0
  -26.5450  -34.8990   22.3660 O   0  0  0  0  0  0  0  0  0  0  0  0
  -24.9390  -34.0990   24.9480 H   0  0  0  0  0  0  0  0  0  0  0  0
  -24.1200  -36.7720   23.0270 C   0  0  0  0  0  1  0  0  0  0  0  0
  -25.3640  -36.3850   23.8410 C   0  0  0  0  0  3  0  0  0  0  0  0
  -27.4860  -37.3000   24.6710 C   0  0  0  0  0  1  0  0  0  0  0  0
  -26.3830  -37.4500   23.7250 N   0  0  0  0  0  0  0  0  0  0  0  0
  -25.9660  -38.3670   23.8660 H   0  0  0  0  0  0  0  0  0  0  0  0
  2  3  1  0
  3  1  1  0
  4 16  1  0
  5 10  1  0
  6  7  1  0
  6  5  1  0
  8  7  1  0
  8 21  1  0
  8  9  1  0
 10  4  1  0
 10  9  1  0
 11  4  2  0
 12 16  1  0
 12 13  1  0
 13  2  1  0
 13 14  1  0
 14 15  1  0
 16 14  1  0
 17 12  2  0
 18 19  2  0
 19 38  1  0
 20 19  1  0
 20 23  1  0
 21 22  1  0
 21 18  1  0
 22 20  2  0
 23 24  1  0
 24 25  2  0
 26 29  1  0
 26 25  1  0
 27 26  2  0
 28 27  1  0
 28 23  2  0
 29 30  1  0
 30 31  1  0
 31 32  2  0
 33 32  1  0
 33 37  1  0
 34 33  2  0
 35 30  2  0
 35 34  1  0
 36 35  1  0
 38 39  1  0
 39 42  1  0
 39 41  1  0
 40 38  2  0
 43 18  1  0
 43 44  1  0
 45 43  1  0
 46 47  1  0
 46  1  1  0
 48 49  1  0
 48 47  2  0
 50 61  2  0
 51 49  1  0
 51 56  1  0
 52 60  1  0
 52 62  1  0
 53 59  1  0
 53 55  1  0
 54 60  1  0
 55 54  1  0
 56 55  2  0
 57 58  1  0
 57 51  2  0
 58 53  2  0
 59 52  1  0
 60 50  1  0
 62 64  2  0
 63 62  1  0
 65 63  1  0
 66 75  2  0
 66 71  1  0
 67 63  1  0
 67 71  1  0
 68 67  1  0
 69 70  1  0
 69 68  1  0
 70 66  1  0
 71 72  2  0
 72 73  1  0
 74 73  2  0
 75 74  1  0
 76 50  1  0
 76 81  1  0
 76 77  1  0
 77 80  1  1
 77 78  1  0
 79 77  1  0
 81 84  1  0
 82 86  1  0
 82 81  1  0
 83 82  2  0
 86 85  1  0
 88 86  1  0
 88 89  1  0
 88 87  1  0
M  ISO  4   4 100  16 100  48 101  49 101
M  END
>  <TORSDO>  (86) 
F 20

>  <SCORE>  (86) 
-11.334

>  <name>  (86) 
87

>  <ligand_id>  (86) 
87

>  <original_smiles>  (86) 
[H]c1c([H])c([H])c2c(c1[H])C([H])([H])C([H])([H])C([H])([H])C2([H])N([H])C(=O)C1([H])N(C(=O)C([H])(N([H])C(=O)C([H])(N([H])C([H])([H])[H])C([H])([H])[H])C(C([H])([H])[H])(C([H])([H])[H])C([H])([H])[H])C([H])([H])c2c([H])c(OC([H])([H])C([H])([H])C([H])([H])C([H])([H])N=NC3([H])C(=O)N(C(=O)N4C([H])([H])C([H])([H])C([H])([H])C([H])(n5nc(-c6c([H])c([H])c(Oc7c([H])c([H])c(F)c([H])c7F)c([H])c6[H])c(C(=O)N([H])[H])c5N([H])[H])C4([H])[H])C3([H])C([H])([H])[H])c([H])c([H])c2C1([H])[H]

>  <smiles>  (86) 
[H]c1c([H])c([H])c2c(c1[H])C([H])([H])C([H])([H])C([H])([H])C2([H])N([H])C(=O)C1([H])N(C(=O)C([H])(N([H])C(=O)C([H])(N([H])C([H])([H])[H])C([H])([H])[H])C(C([H])([H])[H])(C([H])([H])[H])C([H])([H])[H])C([H])([H])c2c([H])c(OC([H])([H])C([H])([H])C([H])([H])C([H])([H])N=NC3([H])C(=O)N(C(=O)N4C([H])([H])C([H])([H])C([H])([H])C([H])(n5nc(-c6c([H])c([H])c(Oc7c([H])c([H])c(F)c([H])c7F)c([H])c6[H])c(C(=O)N([H])[H])c5N([H])[H])C4([H])[H])C3([H])C([H])([H])[H])c([H])c([H])c2C1([H])[H]

$$$$
88:0:0
     RDKit          3D

 95103  0  0  1  0  0  0  0  0999 V2000
  -30.9680  -22.9050   19.0230 C   0  0  0  0  0  3  0  0  0  0  0  0
  -30.6690  -21.5590   19.3450 C   0  0  0  0  0  3  0  0  0  0  0  0
  -30.1180  -23.9700   19.3960 C   0  0  0  0  0  3  0  0  0  0  0  0
  -28.6500  -22.3250   20.4330 C   0  0  0  0  0  3  0  0  0  0  0  0
  -29.4990  -21.1990   20.0570 C   0  0  0  0  0  0  0  0  0  0  0  0
  -28.9300  -23.7200   20.1090 C   0  0  0  0  0  0  0  0  0  0  0  0
  -29.2560  -19.6870   20.4090 C   0  0  0  0  0  0  0  0  0  0  0  0
  -28.6670  -19.3880   21.4850 N   0  0  0  0  0  0  0  0  0  0  0  0
  -28.4520  -20.2180   22.0300 H   0  0  0  0  0  0  0  0  0  0  0  0
  -29.6730  -18.4860   19.4210 C   0  0  0  0  0  3  0  0  0  0  0  0
  -28.9310  -18.8480   18.2000 N   0  0  0  0  0  4  0  0  0  0  0  0
  -27.9450  -18.7520   18.3670 H   0  0  0  0  0  0  0  0  0  0  0  0
  -29.1950  -18.2750   17.4180 H   0  0  0  0  0  0  0  0  0  0  0  0
  -29.1110  -19.8080   17.9690 H   0  0  0  0  0  0  0  0  0  0  0  0
  -29.3390  -16.9000   19.7150 C   0  0  0  0  0  2  0  0  0  0  0  0
  -30.8710  -14.7660   19.9310 C   0  0  0  0  0  0  0  0  0  0  0  0
  -30.6010  -12.4720   18.9740 C   0  0  0  0  0  2  0  0  0  0  0  0
  -29.6220  -12.4920   17.7810 C   0  0  0  0  0  2  0  0  0  0  0  0
  -28.1740  -12.3090   18.2730 C   0  0  0  0  0  2  0  0  0  0  0  0
  -27.8340  -13.2370   19.4700 C   0  0  0  0  0  3  0  0  0  0  0  0
  -28.9320  -13.2260   20.5540 C   0  0  0  0  0  2  0  0  0  0  0  0
  -30.2010  -13.5610   19.8990 N   0  0  0  0  0  0  0  0  0  0  0  0
  -32.0220  -14.8310   19.4980 O   0  0  0  0  0  0  0  0  0  0  0  0
  -30.2850  -15.9260   20.4080 N   0  0  0  0  0  0  0  0  0  0  0  0
  -30.9960  -16.4650   20.8880 H   0  0  0  0  0  0  0  0  0  0  0  0
  -25.4790  -13.8120   20.3080 C   0  0  0  0  0  0  0  0  0  0  0  0
  -24.4360  -13.0310   20.7220 C   0  0  0  0  0  0  0  0  0  0  0  0
  -24.9020  -11.6820   20.6640 C   0  0  0  0  0  0  0  0  0  0  0  0
  -26.5170  -12.9390   20.0210 N   0  0  0  0  0  0  0  0  0  0  0  0
  -26.1780  -11.6520   20.2970 N   0  0  0  0  0  0  0  0  0  0  0  0
  -24.1870  -10.4170   20.8780 C   0  0  0  0  0  0  0  0  0  0  0  0
  -24.6160   -9.4790   21.8430 C   0  0  0  0  0  3  0  0  0  0  0  0
  -23.8970   -8.2800   22.0440 C   0  0  0  0  0  3  0  0  0  0  0  0
  -22.7360   -8.0120   21.2810 C   0  0  0  0  0  0  0  0  0  0  0  0
  -22.3280   -8.9370   20.3050 C   0  0  0  0  0  3  0  0  0  0  0  0
  -23.0470  -10.1270   20.1010 C   0  0  0  0  0  3  0  0  0  0  0  0
  -21.9910   -6.8630   21.3900 O   0  0  0  0  0  0  0  0  0  0  0  0
  -21.8900   -6.1790   22.5740 C   0  0  0  0  0  0  0  0  0  0  0  0
  -21.3630   -6.7780   23.7380 C   0  0  0  0  0  3  0  0  0  0  0  0
  -21.2160   -6.0210   24.9170 C   0  0  0  0  0  3  0  0  0  0  0  0
  -21.5840   -4.6620   24.9300 C   0  0  0  0  0  0  0  0  0  0  0  0
  -22.1020   -4.0600   23.7700 C   0  0  0  0  0  3  0  0  0  0  0  0
  -22.2520   -4.8160   22.5940 C   0  0  0  0  0  0  0  0  0  0  0  0
  -22.7320   -4.2260   21.4730 F   0  0  0  0  0  0  0  0  0  0  0  0
  -21.4340   -3.9300   26.0590 F   0  0  0  0  0  0  0  0  0  0  0  0
  -23.0500  -13.5000   21.0600 C   0  0  0  0  0  0  0  0  0  0  0  0
  -22.3610  -12.7930   21.9480 N   0  0  0  0  0  0  0  0  0  0  0  0
  -22.5890  -14.5300   20.5680 O   0  0  0  0  0  0  0  0  0  0  0  0
  -22.7460  -11.9570   22.3640 H   0  0  0  0  0  0  0  0  0  0  0  0
  -21.4340  -13.0910   22.2200 H   0  0  0  0  0  0  0  0  0  0  0  0
  -25.6260  -15.1840   20.1320 N   0  0  0  0  0  0  0  0  0  0  0  0
  -24.8630  -15.8330   20.2960 H   0  0  0  0  0  0  0  0  0  0  0  0
  -26.4590  -15.6320   19.7780 H   0  0  0  0  0  0  0  0  0  0  0  0
  -27.9810  -24.9370   20.4980 C   0  0  0  0  0  2  0  0  0  0  0  0
  -28.2980  -26.3640   20.1290 O   0  0  0  0  0  0  0  0  0  0  0  0
  -24.5700  -31.8190   23.1430 C   0  0  0  0  0  0  0  0  0  0  0  0
  -27.2150  -27.2700   20.0800 C   0  0  0  0  0  0  0  0  0  0  0  0
  -23.3930  -30.4490   21.4590 C   0  0  0  0  0  3  0  0  0  0  0  0
  -24.8660  -28.9170   20.0350 C   0  0  0  0  0  0  0  0  0  0  0  0
  -25.9350  -30.7630   21.3200 C   0  0  0  0  0  2  0  0  0  0  0  0
  -26.0250  -29.3870   20.6640 C   0  0  0  0  0  0  0  0  0  0  0  0
  -27.2060  -28.5760   20.6760 C   0  0  0  0  0  3  0  0  0  0  0  0
  -26.0430  -26.8830   19.3950 C   0  0  0  0  0  3  0  0  0  0  0  0
  -24.8780  -27.6740   19.3850 C   0  0  0  0  0  3  0  0  0  0  0  0
  -23.6310  -29.7950   20.0720 C   0  0  0  0  0  2  0  0  0  0  0  0
  -24.6510  -31.0280   22.0320 N   0  0  0  0  0  0  0  0  0  0  0  0
  -23.4770  -32.0840   23.6650 O   0  0  0  0  0  0  0  0  0  0  0  0
  -22.7120  -29.4180   22.3930 C   0  0  0  0  0  0  0  0  0  0  0  0
  -21.3820  -29.2720   22.2710 N   0  0  0  0  0  0  0  0  0  0  0  0
  -23.3830  -28.7510   23.1870 O   0  0  0  0  0  0  0  0  0  0  0  0
  -20.9020  -29.8690   21.6130 H   0  0  0  0  0  0  0  0  0  0  0  0
  -17.9750  -28.1630   22.7980 C   0  0  0  0  0  0  0  0  0  0  0  0
  -20.5460  -28.3280   23.0180 C   0  0  0  0  0  3  0  0  0  0  0  0
  -20.5840  -26.9190   22.3810 C   0  0  0  0  0  2  0  0  0  0  0  0
  -19.4500  -26.6770   21.3800 C   0  0  0  0  0  2  0  0  0  0  0  0
  -18.0880  -26.8410   22.0610 C   0  0  0  0  0  2  0  0  0  0  0  0
  -19.1280  -28.8700   23.2340 C   0  0  0  0  0  0  0  0  0  0  0  0
  -18.9630  -30.1120   23.8850 C   0  0  0  0  0  3  0  0  0  0  0  0
  -17.6790  -30.6440   24.1050 C   0  0  0  0  0  3  0  0  0  0  0  0
  -16.5410  -29.9360   23.6800 C   0  0  0  0  0  3  0  0  0  0  0  0
  -16.6910  -28.6960   23.0330 C   0  0  0  0  0  3  0  0  0  0  0  0
  -25.8410  -32.4410   23.7970 C   0  0  0  0  0  3  0  0  0  0  0  0
  -25.5310  -33.8380   24.1320 N   0  0  0  0  0  0  0  0  0  0  0  0
  -25.8720  -34.8980   23.3840 C   0  0  0  0  0  0  0  0  0  0  0  0
  -26.5520  -34.8010   22.3590 O   0  0  0  0  0  0  0  0  0  0  0  0
  -24.9470  -33.9880   24.9410 H   0  0  0  0  0  0  0  0  0  0  0  0
  -24.1560  -36.7000   23.0140 C   0  0  0  0  0  1  0  0  0  0  0  0
  -25.3800  -36.2840   23.8440 C   0  0  0  0  0  3  0  0  0  0  0  0
  -27.4970  -37.1560   24.7290 C   0  0  0  0  0  1  0  0  0  0  0  0
  -26.4190  -37.3350   23.7620 N   0  0  0  0  0  0  0  0  0  0  0  0
  -26.0120  -38.2550   23.9070 H   0  0  0  0  0  0  0  0  0  0  0  0
  -26.3220  -31.6580   25.0810 C   0  0  1  0  0  0  0  0  0  0  0  0
  -25.2010  -31.4180   26.1190 C   0  0  0  0  0  1  0  0  0  0  0  0
  -26.9090  -30.2830   24.6890 C   0  0  0  0  0  1  0  0  0  0  0  0
  -27.4610  -32.4410   25.7750 C   0  0  0  0  0  1  0  0  0  0  0  0
  1  2  2  0
  1  3  1  0
  2  5  1  0
  3  6  2  0
  5  7  1  0
  5  4  2  0
  6  4  1  0
  6 54  1  0
  7  8  2  0
  8  9  1  0
 10 15  1  0
 10  7  1  0
 11 12  1  0
 11 10  1  0
 13 11  1  0
 14 11  1  0
 15 24  1  0
 16 24  1  0
 17 22  1  0
 18 19  1  0
 18 17  1  0
 20 19  1  0
 20 29  1  0
 20 21  1  0
 22 16  1  0
 22 21  1  0
 23 16  2  0
 24 25  1  0
 26 27  2  0
 27 46  1  0
 28 27  1  0
 28 31  1  0
 29 30  1  0
 29 26  1  0
 30 28  2  0
 31 32  1  0
 32 33  2  0
 34 37  1  0
 34 33  1  0
 35 34  2  0
 36 35  1  0
 36 31  2  0
 37 38  1  0
 38 43  2  0
 38 39  1  0
 39 40  2  0
 40 41  1  0
 41 45  1  0
 42 41  2  0
 43 42  1  0
 44 43  1  0
 46 47  1  0
 47 50  1  0
 47 49  1  0
 48 46  2  0
 51 52  1  0
 51 26  1  0
 53 51  1  0
 55 54  1  0
 56 67  2  0
 57 55  1  0
 57 62  1  0
 58 66  1  0
 58 68  1  0
 59 65  1  0
 59 61  1  0
 60 66  1  0
 61 62  2  0
 61 60  1  0
 63 57  2  0
 64 63  1  0
 64 59  2  0
 65 58  1  0
 66 56  1  0
 68 70  2  0
 69 68  1  0
 71 69  1  0
 72 81  2  0
 72 77  1  0
 73 69  1  0
 73 77  1  0
 74 73  1  0
 75 76  1  0
 75 74  1  0
 76 72  1  0
 77 78  2  0
 78 79  1  0
 80 79  2  0
 81 80  1  0
 82 56  1  0
 82 83  1  0
 82 92  1  0
 83 86  1  0
 84 88  1  0
 84 83  1  0
 85 84  2  0
 88 87  1  0
 90 88  1  0
 90 91  1  0
 90 89  1  0
 92 95  1  1
 92 93  1  0
 94 92  1  0
M  ISO  4  16 100  24 100  54 101  55 101
M  END
>  <TORSDO>  (87) 
F 21

>  <SCORE>  (87) 
-12.860

>  <name>  (87) 
88

>  <ligand_id>  (87) 
88

>  <original_smiles>  (87) 
[H]N=C(c1c([H])c([H])c([H])c(C([H])([H])Oc2c([H])c([H])c3c(c2[H])C([H])([H])N(C(=O)C([H])(N([H])C(=O)C([H])(N([H])C([H])([H])[H])C([H])([H])[H])C(C([H])([H])[H])(C([H])([H])[H])C([H])([H])[H])C([H])(C(=O)N([H])C2([H])c4c([H])c([H])c([H])c([H])c4C([H])([H])C([H])([H])C2([H])[H])C3([H])[H])c1[H])C([H])(C([H])([H])N([H])C(=O)N1C([H])([H])C([H])([H])C([H])([H])C([H])(n2nc(-c3c([H])c([H])c(Oc4c([H])c([H])c(F)c([H])c4F)c([H])c3[H])c(C(=O)N([H])[H])c2N([H])[H])C1([H])[H])[N+]([H])([H])[H]

>  <smiles>  (87) 
[H]N=C(c1c([H])c([H])c([H])c(C([H])([H])Oc2c([H])c([H])c3c(c2[H])C([H])([H])N(C(=O)C([H])(N([H])C(=O)C([H])(N([H])C([H])([H])[H])C([H])([H])[H])C(C([H])([H])[H])(C([H])([H])[H])C([H])([H])[H])C([H])(C(=O)N([H])C2([H])c4c([H])c([H])c([H])c([H])c4C([H])([H])C([H])([H])C2([H])[H])C3([H])[H])c1[H])C([H])(C([H])([H])N([H])C(=O)N1C([H])([H])C([H])([H])C([H])([H])C([H])(n2nc(-c3c([H])c([H])c(Oc4c([H])c([H])c(F)c([H])c4F)c([H])c3[H])c(C(=O)N([H])[H])c2N([H])[H])C1([H])[H])[N+]([H])([H])[H]

$$$$
89:0:0
     RDKit          3D

 96104  0  0  1  0  0  0  0  0999 V2000
  -28.3850  -22.5620   23.1190 C   0  0  0  0  0  2  0  0  0  0  0  0
  -29.3120  -22.4940   21.9190 C   0  0  0  0  0  3  0  0  0  0  0  0
  -28.6950  -23.8220   22.3540 C   0  0  0  0  0  3  0  0  0  0  0  0
  -26.5160  -24.9420   22.3620 C   0  0  0  0  0  1  0  0  0  0  0  0
  -27.5740  -24.3240   21.5210 N   0  0  1  0  0  4  0  0  0  0  0  0
  -27.1670  -23.5220   21.0630 H   0  0  0  0  0  0  0  0  0  0  0  0
  -28.0510  -25.2540   20.4630 C   0  0  0  0  0  2  0  0  0  0  0  0
  -27.0900  -25.3570   19.2590 C   0  0  0  0  0  2  0  0  0  0  0  0
  -27.0970  -26.6890   18.7240 O   0  0  0  0  0  0  0  0  0  0  0  0
  -24.8290  -31.6460   23.2890 C   0  0  0  0  0  0  0  0  0  0  0  0
  -26.0670  -27.5290   19.0890 C   0  0  0  0  0  0  0  0  0  0  0  0
  -23.1210  -30.7570   21.7350 C   0  0  0  0  0  3  0  0  0  0  0  0
  -24.0050  -29.3180   19.8290 C   0  0  0  0  0  0  0  0  0  0  0  0
  -25.5950  -30.7870   21.0810 C   0  0  0  0  0  2  0  0  0  0  0  0
  -25.3220  -29.5600   20.2370 C   0  0  0  0  0  0  0  0  0  0  0  0
  -26.3560  -28.6740   19.8650 C   0  0  0  0  0  3  0  0  0  0  0  0
  -24.7340  -27.3110   18.6720 C   0  0  0  0  0  3  0  0  0  0  0  0
  -23.7030  -28.1920   19.0460 C   0  0  0  0  0  3  0  0  0  0  0  0
  -22.9570  -30.3210   20.2560 C   0  0  0  0  0  2  0  0  0  0  0  0
  -24.5450  -31.0650   22.0900 N   0  0  0  0  0  0  0  0  0  0  0  0
  -23.9280  -31.9630   24.0770 O   0  0  0  0  0  0  0  0  0  0  0  0
  -22.4870  -29.6760   22.6380 C   0  0  0  0  0  0  0  0  0  0  0  0
  -21.1530  -29.5430   22.5670 N   0  0  0  0  0  0  0  0  0  0  0  0
  -23.1910  -28.9630   23.3590 O   0  0  0  0  0  0  0  0  0  0  0  0
  -20.6480  -30.1730   21.9590 H   0  0  0  0  0  0  0  0  0  0  0  0
  -17.8110  -28.2140   22.9130 C   0  0  0  0  0  0  0  0  0  0  0  0
  -20.3440  -28.5690   23.2970 C   0  0  0  0  0  3  0  0  0  0  0  0
  -20.5260  -27.1470   22.7190 C   0  0  0  0  0  2  0  0  0  0  0  0
  -19.4810  -26.7880   21.6560 C   0  0  0  0  0  2  0  0  0  0  0  0
  -18.0690  -26.8760   22.2410 C   0  0  0  0  0  2  0  0  0  0  0  0
  -18.8810  -29.0160   23.3940 C   0  0  0  0  0  0  0  0  0  0  0  0
  -18.5870  -30.2680   23.9770 C   0  0  0  0  0  3  0  0  0  0  0  0
  -17.2590  -30.7180   24.0870 C   0  0  0  0  0  3  0  0  0  0  0  0
  -16.2040  -29.9130   23.6250 C   0  0  0  0  0  3  0  0  0  0  0  0
  -16.4810  -28.6630   23.0410 C   0  0  0  0  0  3  0  0  0  0  0  0
  -26.2940  -31.9640   23.7180 C   0  0  0  0  0  3  0  0  0  0  0  0
  -26.9150  -30.8660   24.6660 C   0  0  1  0  0  0  0  0  0  0  0  0
  -26.0310  -30.5260   25.8900 C   0  0  0  0  0  1  0  0  0  0  0  0
  -27.1700  -29.5540   23.8890 C   0  0  0  0  0  1  0  0  0  0  0  0
  -28.2900  -31.3440   25.1910 C   0  0  0  0  0  1  0  0  0  0  0  0
  -26.2880  -33.2780   24.3770 N   0  0  0  0  0  0  0  0  0  0  0  0
  -26.7030  -34.4170   23.8060 C   0  0  0  0  0  0  0  0  0  0  0  0
  -27.2060  -34.4570   22.6800 O   0  0  0  0  0  0  0  0  0  0  0  0
  -25.8410  -33.3270   25.2810 H   0  0  0  0  0  0  0  0  0  0  0  0
  -25.3060  -36.4860   24.1010 C   0  0  0  0  0  1  0  0  0  0  0  0
  -26.5340  -35.7180   24.6130 C   0  0  0  0  0  3  0  0  0  0  0  0
  -28.8740  -36.0410   25.2820 C   0  0  0  0  0  1  0  0  0  0  0  0
  -27.7250  -36.5950   24.5710 N   0  0  0  0  0  0  0  0  0  0  0  0
  -27.5150  -37.5050   24.9710 H   0  0  0  0  0  0  0  0  0  0  0  0
  -30.8270  -22.3190   22.0130 C   0  0  0  0  0  2  0  0  0  0  0  0
  -31.3320  -21.6750   24.4530 C   0  0  0  0  0  1  0  0  0  0  0  0
  -31.3880  -21.2340   22.9750 C   0  0  0  0  0  3  0  0  0  0  0  0
  -30.8300  -19.7860   22.8070 C   0  0  0  0  0  2  0  0  0  0  0  0
  -32.5470  -19.3300   21.0360 C   0  0  0  0  0  1  0  0  0  0  0  0
  -31.1850  -19.0410   21.5540 N   0  0  1  0  0  4  0  0  0  0  0  0
  -30.5460  -19.3720   20.8460 H   0  0  0  0  0  0  0  0  0  0  0  0
  -30.9100  -17.5720   21.7170 C   0  0  0  0  0  2  0  0  0  0  0  0
  -31.4590  -16.6540   20.5890 C   0  0  0  0  0  2  0  0  0  0  0  0
  -31.3340  -14.2720   19.8780 C   0  0  0  0  0  0  0  0  0  0  0  0
  -30.9850  -11.9190   19.2030 C   0  0  0  0  0  2  0  0  0  0  0  0
  -30.0160  -11.8190   18.0130 C   0  0  0  0  0  2  0  0  0  0  0  0
  -28.5570  -11.7650   18.5040 C   0  0  0  0  0  2  0  0  0  0  0  0
  -28.2380  -12.8910   19.5240 C   0  0  0  0  0  3  0  0  0  0  0  0
  -29.3160  -12.9540   20.6300 C   0  0  0  0  0  2  0  0  0  0  0  0
  -30.6330  -13.1130   19.9880 N   0  0  0  0  0  0  0  0  0  0  0  0
  -32.3410  -14.3890   19.1750 O   0  0  0  0  0  0  0  0  0  0  0  0
  -30.8670  -15.3090   20.5930 N   0  0  0  0  0  0  0  0  0  0  0  0
  -30.0470  -15.1420   21.1590 H   0  0  0  0  0  0  0  0  0  0  0  0
  -25.9740  -13.7060   20.4410 C   0  0  0  0  0  0  0  0  0  0  0  0
  -24.8590  -13.0290   20.8570 C   0  0  0  0  0  0  0  0  0  0  0  0
  -25.1680  -11.6420   20.7250 C   0  0  0  0  0  0  0  0  0  0  0  0
  -26.8990  -12.7340   20.0880 N   0  0  0  0  0  0  0  0  0  0  0  0
  -26.4210  -11.4840   20.3160 N   0  0  0  0  0  0  0  0  0  0  0  0
  -24.3260  -10.4540   20.9110 C   0  0  0  0  0  0  0  0  0  0  0  0
  -24.6590   -9.4540   21.8510 C   0  0  0  0  0  3  0  0  0  0  0  0
  -23.8270   -8.3270   22.0270 C   0  0  0  0  0  3  0  0  0  0  0  0
  -22.6430   -8.1950   21.2630 C   0  0  0  0  0  0  0  0  0  0  0  0
  -22.3280   -9.1790   20.3100 C   0  0  0  0  0  3  0  0  0  0  0  0
  -23.1610  -10.2980   20.1320 C   0  0  0  0  0  3  0  0  0  0  0  0
  -21.7880   -7.1240   21.3470 O   0  0  0  0  0  0  0  0  0  0  0  0
  -21.5780   -6.4600   22.5300 C   0  0  0  0  0  0  0  0  0  0  0  0
  -21.1020   -7.1210   23.6830 C   0  0  0  0  0  3  0  0  0  0  0  0
  -20.8350   -6.3870   24.8560 C   0  0  0  0  0  3  0  0  0  0  0  0
  -21.0360   -4.9940   24.8750 C   0  0  0  0  0  0  0  0  0  0  0  0
  -21.5050   -4.3330   23.7270 C   0  0  0  0  0  3  0  0  0  0  0  0
  -21.7730   -5.0650   22.5570 C   0  0  0  0  0  0  0  0  0  0  0  0
  -22.2050   -4.4200   21.4450 F   0  0  0  0  0  0  0  0  0  0  0  0
  -20.7730   -4.2870   26.0000 F   0  0  0  0  0  0  0  0  0  0  0  0
  -23.5460  -13.6330   21.2600 C   0  0  0  0  0  0  0  0  0  0  0  0
  -22.8220  -12.9790   22.1640 N   0  0  0  0  0  0  0  0  0  0  0  0
  -23.1750  -14.7180   20.8140 O   0  0  0  0  0  0  0  0  0  0  0  0
  -23.1380  -12.1010   22.5500 H   0  0  0  0  0  0  0  0  0  0  0  0
  -21.9380  -13.3600   22.4710 H   0  0  0  0  0  0  0  0  0  0  0  0
  -26.2760  -15.0590   20.3160 N   0  0  0  0  0  0  0  0  0  0  0  0
  -25.6040  -15.7890   20.5250 H   0  0  0  0  0  0  0  0  0  0  0  0
  -27.1500  -15.4170   19.9510 H   0  0  0  0  0  0  0  0  0  0  0  0
  2 50  1  0
  2  3  1  0
  2  1  1  0
  3  5  1  0
  3  1  1  0
  5  4  1  0
  5  6  1  6
  7  5  1  0
  8  7  1  0
  9 11  1  0
  9  8  1  0
 10 21  2  0
 11 16  1  0
 12 20  1  0
 12 22  1  0
 13 15  1  0
 13 19  1  0
 14 20  1  0
 15 14  1  0
 16 15  2  0
 17 18  1  0
 17 11  2  0
 18 13  2  0
 19 12  1  0
 20 10  1  0
 22 24  2  0
 23 22  1  0
 25 23  1  0
 26 35  2  0
 26 31  1  0
 27 23  1  0
 27 31  1  0
 28 27  1  0
 29 30  1  0
 29 28  1  0
 30 26  1  0
 31 32  2  0
 32 33  1  0
 34 33  2  0
 35 34  1  0
 36 10  1  0
 36 41  1  0
 36 37  1  0
 37 40  1  1
 37 38  1  0
 39 37  1  0
 41 44  1  0
 42 41  1  0
 42 46  1  0
 43 42  2  0
 46 45  1  0
 48 46  1  0
 48 49  1  0
 48 47  1  0
 50 52  1  0
 52 51  1  0
 53 52  1  0
 54 55  1  0
 55 57  1  0
 55 53  1  0
 55 56  1  6
 58 67  1  0
 58 57  1  0
 59 65  1  0
 59 67  1  0
 60 65  1  0
 61 62  1  0
 61 60  1  0
 63 62  1  0
 63 72  1  0
 63 64  1  0
 65 64  1  0
 66 59  2  0
 67 68  1  0
 69 70  2  0
 70 89  1  0
 71 70  1  0
 71 74  1  0
 72 73  1  0
 72 69  1  0
 73 71  2  0
 74 75  1  0
 75 76  2  0
 77 80  1  0
 77 76  1  0
 78 77  2  0
 79 78  1  0
 79 74  2  0
 80 81  1  0
 81 86  2  0
 81 82  1  0
 82 83  2  0
 83 84  1  0
 84 88  1  0
 85 84  2  0
 86 85  1  0
 87 86  1  0
 89 90  1  0
 90 93  1  0
 90 92  1  0
 91 89  2  0
 94 69  1  0
 94 95  1  0
 96 94  1  0
M  ISO  4   8 101   9 101  59 100  67 100
M  END
>  <TORSDO>  (88) 
F 25

>  <SCORE>  (88) 
-9.882

>  <name>  (88) 
89

>  <ligand_id>  (88) 
89

>  <original_smiles>  (88) 
[H]c1c([H])c([H])c2c(c1[H])C([H])([H])C([H])([H])C([H])([H])C2([H])N([H])C(=O)C1([H])N(C(=O)C([H])(N([H])C(=O)C([H])(N([H])C([H])([H])[H])C([H])([H])[H])C(C([H])([H])[H])(C([H])([H])[H])C([H])([H])[H])C([H])([H])c2c([H])c(OC([H])([H])C([H])([H])[N+]([H])(C([H])([H])[H])C3([H])C([H])([H])C3([H])C([H])([H])C([H])(C([H])([H])[H])C([H])([H])[N+]([H])(C([H])([H])[H])C([H])([H])C([H])([H])N([H])C(=O)N3C([H])([H])C([H])([H])C([H])([H])C([H])(n4nc(-c5c([H])c([H])c(Oc6c([H])c([H])c(F)c([H])c6F)c([H])c5[H])c(C(=O)N([H])[H])c4N([H])[H])C3([H])[H])c([H])c([H])c2C1([H])[H]

>  <smiles>  (88) 
[H]c1c([H])c([H])c2c(c1[H])C([H])([H])C([H])([H])C([H])([H])C2([H])N([H])C(=O)C1([H])N(C(=O)C([H])(N([H])C(=O)C([H])(N([H])C([H])([H])[H])C([H])([H])[H])C(C([H])([H])[H])(C([H])([H])[H])C([H])([H])[H])C([H])([H])c2c([H])c(OC([H])([H])C([H])([H])[N+]([H])(C([H])([H])[H])C3([H])C([H])([H])C3([H])C([H])([H])C([H])(C([H])([H])[H])C([H])([H])[N+]([H])(C([H])([H])[H])C([H])([H])C([H])([H])N([H])C(=O)N3C([H])([H])C([H])([H])C([H])([H])C([H])(n4nc(-c5c([H])c([H])c(Oc6c([H])c([H])c(F)c([H])c6F)c([H])c5[H])c(C(=O)N([H])[H])c4N([H])[H])C3([H])[H])c([H])c([H])c2C1([H])[H]

$$$$
90:0:0
     RDKit          3D

 96105  0  0  1  0  0  0  0  0999 V2000
  -27.4110  -17.6870   20.1390 C   0  0  0  0  0  3  0  0  0  0  0  0
  -27.4220  -18.7660   19.2330 C   0  0  0  0  0  3  0  0  0  0  0  0
  -28.6210  -17.1590   20.6420 C   0  0  0  0  0  3  0  0  0  0  0  0
  -29.8680  -18.8010   19.3510 C   0  0  0  0  0  0  0  0  0  0  0  0
  -28.6630  -19.3040   18.8490 C   0  0  0  0  0  0  0  0  0  0  0  0
  -29.8720  -17.7050   20.2660 C   0  0  0  0  0  0  0  0  0  0  0  0
  -30.9720  -19.6200   18.7800 C   0  0  0  0  0  0  0  0  0  0  0  0
  -28.8540  -20.4580   17.8930 C   0  0  0  0  0  2  0  0  0  0  0  0
  -30.3850  -20.5790   17.7160 C   0  0  0  0  0  3  0  0  0  0  0  0
  -32.1650  -19.5650   19.0950 O   0  0  0  0  0  0  0  0  0  0  0  0
  -30.9150  -21.9530   17.9260 N   0  0  0  0  0  4  0  0  0  0  0  0
  -31.8780  -21.9270   17.6230 H   0  0  0  0  0  0  0  0  0  0  0  0
  -30.9260  -22.1450   18.9150 H   0  0  0  0  0  0  0  0  0  0  0  0
  -30.1930  -23.0230   17.1710 C   0  0  0  0  0  2  0  0  0  0  0  0
  -30.4080  -24.4480   17.7420 C   0  0  0  0  0  2  0  0  0  0  0  0
  -29.7950  -25.4650   16.9330 O   0  0  0  0  0  0  0  0  0  0  0  0
  -26.2600  -28.1450   22.5030 C   0  0  0  0  0  0  0  0  0  0  0  0
  -28.6240  -25.9960   17.4190 C   0  0  0  0  0  0  0  0  0  0  0  0
  -24.9050  -27.6780   20.4860 C   0  0  0  0  0  3  0  0  0  0  0  0
  -26.2230  -27.1420   18.3680 C   0  0  0  0  0  0  0  0  0  0  0  0
  -27.3880  -28.2520   20.2820 C   0  0  0  0  0  2  0  0  0  0  0  0
  -27.4270  -27.3810   19.0440 C   0  0  0  0  0  0  0  0  0  0  0  0
  -28.6320  -26.8170   18.5690 C   0  0  0  0  0  3  0  0  0  0  0  0
  -27.4070  -25.7700   16.7420 C   0  0  0  0  0  3  0  0  0  0  0  0
  -26.2060  -26.3350   17.2160 C   0  0  0  0  0  3  0  0  0  0  0  0
  -24.9800  -27.7880   18.9390 C   0  0  0  0  0  2  0  0  0  0  0  0
  -26.2100  -28.0090   21.1470 N   0  0  0  0  0  0  0  0  0  0  0  0
  -25.2380  -28.0430   23.1950 O   0  0  0  0  0  0  0  0  0  0  0  0
  -24.3700  -26.2760   20.8550 C   0  0  0  0  0  0  0  0  0  0  0  0
  -23.0660  -26.0520   20.6150 N   0  0  0  0  0  0  0  0  0  0  0  0
  -25.1210  -25.4130   21.3170 O   0  0  0  0  0  0  0  0  0  0  0  0
  -22.5170  -26.8140   20.2420 H   0  0  0  0  0  0  0  0  0  0  0  0
  -19.8820  -24.3980   20.2030 C   0  0  0  0  0  0  0  0  0  0  0  0
  -22.3530  -24.7970   20.8470 C   0  0  0  0  0  3  0  0  0  0  0  0
  -22.6980  -23.7510   19.7620 C   0  0  0  0  0  2  0  0  0  0  0  0
  -21.7180  -23.7580   18.5840 C   0  0  0  0  0  2  0  0  0  0  0  0
  -20.2940  -23.4740   19.0700 C   0  0  0  0  0  2  0  0  0  0  0  0
  -20.8490  -25.0310   21.0280 C   0  0  0  0  0  0  0  0  0  0  0  0
  -20.4140  -25.9060   22.0460 C   0  0  0  0  0  3  0  0  0  0  0  0
  -19.0420  -26.1510   22.2480 C   0  0  0  0  0  3  0  0  0  0  0  0
  -18.0890  -25.5100   21.4390 C   0  0  0  0  0  3  0  0  0  0  0  0
  -18.5080  -24.6320   20.4230 C   0  0  0  0  0  3  0  0  0  0  0  0
  -27.5970  -28.4600   23.2460 C   0  0  0  0  0  3  0  0  0  0  0  0
  -27.2910  -29.4070   24.3250 N   0  0  0  0  0  0  0  0  0  0  0  0
  -27.6440  -30.7000   24.3240 C   0  0  0  0  0  0  0  0  0  0  0  0
  -28.3320  -31.2050   23.4330 O   0  0  0  0  0  0  0  0  0  0  0  0
  -26.6820  -29.0760   25.0600 H   0  0  0  0  0  0  0  0  0  0  0  0
  -25.9800  -32.4460   25.0350 C   0  0  0  0  0  1  0  0  0  0  0  0
  -27.1550  -31.5700   25.4980 C   0  0  0  0  0  3  0  0  0  0  0  0
  -29.2380  -31.6660   26.7950 C   0  0  0  0  0  1  0  0  0  0  0  0
  -28.2150  -32.4240   26.0780 N   0  0  0  0  0  0  0  0  0  0  0  0
  -27.8180  -33.1050   26.7190 H   0  0  0  0  0  0  0  0  0  0  0  0
  -28.3100  -27.1720   23.8120 C   0  0  1  0  0  0  0  0  0  0  0  0
  -27.3880  -26.2850   24.6830 C   0  0  0  0  0  1  0  0  0  0  0  0
  -28.8520  -26.2990   22.6570 C   0  0  0  0  0  1  0  0  0  0  0  0
  -29.5330  -27.5820   24.6660 C   0  0  0  0  0  1  0  0  0  0  0  0
  -31.1320  -17.1300   20.9220 C   0  0  0  0  0  2  0  0  0  0  0  0
  -31.6870  -15.8200   20.3100 C   0  0  0  0  0  2  0  0  0  0  0  0
  -31.6800  -13.3810   20.7890 C   0  0  0  0  0  0  0  0  0  0  0  0
  -31.3410  -10.9360   20.7110 C   0  0  0  0  0  2  0  0  0  0  0  0
  -30.6320  -10.5540   19.3960 C   0  0  0  0  0  2  0  0  0  0  0  0
  -29.1030  -10.6540   19.5560 C   0  0  0  0  0  2  0  0  0  0  0  0
  -28.6550  -11.9980   20.1910 C   0  0  0  0  0  3  0  0  0  0  0  0
  -29.4870  -12.3210   21.4520 C   0  0  0  0  0  2  0  0  0  0  0  0
  -30.9110  -12.2960   21.0780 N   0  0  0  0  0  0  0  0  0  0  0  0
  -32.8610  -13.2830   20.4420 O   0  0  0  0  0  0  0  0  0  0  0  0
  -31.0600  -14.5750   20.7910 N   0  0  0  0  0  0  0  0  0  0  0  0
  -30.0880  -14.6010   21.0570 H   0  0  0  0  0  0  0  0  0  0  0  0
  -26.3410  -13.0710   20.5220 C   0  0  0  0  0  0  0  0  0  0  0  0
  -25.1050  -12.5300   20.7580 C   0  0  0  0  0  0  0  0  0  0  0  0
  -25.3030  -11.1170   20.8340 C   0  0  0  0  0  0  0  0  0  0  0  0
  -27.2220  -12.0020   20.4760 N   0  0  0  0  0  0  0  0  0  0  0  0
  -26.5910  -10.8240   20.7190 N   0  0  0  0  0  0  0  0  0  0  0  0
  -24.3310  -10.0230   20.9540 C   0  0  0  0  0  0  0  0  0  0  0  0
  -24.3910   -9.0970   22.0190 C   0  0  0  0  0  3  0  0  0  0  0  0
  -23.4340   -8.0640   22.1240 C   0  0  0  0  0  3  0  0  0  0  0  0
  -22.4030   -7.9520   21.1610 C   0  0  0  0  0  0  0  0  0  0  0  0
  -22.3630   -8.8620   20.0900 C   0  0  0  0  0  3  0  0  0  0  0  0
  -23.3180   -9.8860   19.9850 C   0  0  0  0  0  3  0  0  0  0  0  0
  -21.4470   -6.9660   21.1680 O   0  0  0  0  0  0  0  0  0  0  0  0
  -21.0670   -6.3380   22.3280 C   0  0  0  0  0  0  0  0  0  0  0  0
  -20.4280   -7.0350   23.3760 C   0  0  0  0  0  3  0  0  0  0  0  0
  -19.9930   -6.3390   24.5210 C   0  0  0  0  0  3  0  0  0  0  0  0
  -20.1860   -4.9470   24.6160 C   0  0  0  0  0  0  0  0  0  0  0  0
  -20.8160   -4.2510   23.5700 C   0  0  0  0  0  3  0  0  0  0  0  0
  -21.2530   -4.9450   22.4270 C   0  0  0  0  0  0  0  0  0  0  0  0
  -21.8410   -4.2660   21.4130 F   0  0  0  0  0  0  0  0  0  0  0  0
  -19.7600   -4.2760   25.7120 F   0  0  0  0  0  0  0  0  0  0  0  0
  -23.8010  -13.2720   20.8120 C   0  0  0  0  0  0  0  0  0  0  0  0
  -22.8400  -12.7630   21.5760 N   0  0  0  0  0  0  0  0  0  0  0  0
  -23.6430  -14.3350   20.2150 O   0  0  0  0  0  0  0  0  0  0  0  0
  -22.9750  -11.9020   22.0850 H   0  0  0  0  0  0  0  0  0  0  0  0
  -21.9530  -13.2410   21.6500 H   0  0  0  0  0  0  0  0  0  0  0  0
  -26.7840  -14.3720   20.3230 N   0  0  0  0  0  0  0  0  0  0  0  0
  -26.1560  -15.1670   20.3190 H   0  0  0  0  0  0  0  0  0  0  0  0
  -27.7490  -14.6350   20.1620 H   0  0  0  0  0  0  0  0  0  0  0  0
  1  3  1  0
  2  1  2  0
  4  6  1  0
  5  2  1  0
  5  4  2  0
  6  3  2  0
  6 57  1  0
  7 10  2  0
  7  4  1  0
  8  5  1  0
  9  8  1  0
  9 11  1  0
  9  7  1  0
 11 13  1  0
 12 11  1  0
 14 15  1  0
 14 11  1  0
 16 18  1  0
 16 15  1  0
 17 28  2  0
 18 23  1  0
 19 29  1  0
 19 27  1  0
 20 26  1  0
 20 22  1  0
 21 27  1  0
 22 21  1  0
 23 22  2  0
 24 25  1  0
 24 18  2  0
 25 20  2  0
 26 19  1  0
 27 17  1  0
 29 31  2  0
 30 29  1  0
 32 30  1  0
 33 42  2  0
 33 38  1  0
 34 30  1  0
 34 38  1  0
 35 34  1  0
 36 37  1  0
 36 35  1  0
 37 33  1  0
 38 39  2  0
 39 40  1  0
 41 40  2  0
 42 41  1  0
 43 17  1  0
 43 53  1  0
 43 44  1  0
 44 47  1  0
 45 44  1  0
 45 49  1  0
 46 45  2  0
 49 48  1  0
 49 51  1  0
 51 52  1  0
 51 50  1  0
 53 56  1  1
 53 54  1  0
 55 53  1  0
 58 67  1  0
 58 57  1  0
 59 67  1  0
 59 65  1  0
 60 65  1  0
 61 62  1  0
 61 60  1  0
 63 62  1  0
 63 72  1  0
 63 64  1  0
 65 64  1  0
 66 59  2  0
 67 68  1  0
 69 70  2  0
 70 89  1  0
 70 71  1  0
 71 74  1  0
 72 69  1  0
 72 73  1  0
 73 71  2  0
 74 75  1  0
 75 76  2  0
 77 80  1  0
 77 76  1  0
 78 77  2  0
 79 78  1  0
 79 74  2  0
 80 81  1  0
 81 86  2  0
 81 82  1  0
 82 83  2  0
 83 84  1  0
 84 88  1  0
 85 84  2  0
 86 85  1  0
 87 86  1  0
 89 90  1  0
 90 93  1  0
 90 92  1  0
 91 89  2  0
 94 69  1  0
 95 94  1  0
 96 94  1  0
M  ISO  4  15 101  16 101  59 100  67 100
M  END
>  <TORSDO>  (89) 
F 21

>  <SCORE>  (89) 
-9.310

>  <name>  (89) 
90

>  <ligand_id>  (89) 
90

>  <original_smiles>  (89) 
[H]c1c([H])c([H])c2c(c1[H])C([H])([H])C([H])([H])C([H])([H])C2([H])N([H])C(=O)C1([H])N(C(=O)C([H])(N([H])C(=O)C([H])(N([H])C([H])([H])[H])C([H])([H])[H])C(C([H])([H])[H])(C([H])([H])[H])C([H])([H])[H])C([H])([H])c2c([H])c(OC([H])([H])C([H])([H])[N+]([H])([H])C3([H])C(=O)c4c(C([H])([H])C([H])([H])N([H])C(=O)N5C([H])([H])C([H])([H])C([H])([H])C([H])(n6nc(-c7c([H])c([H])c(Oc8c([H])c([H])c(F)c([H])c8F)c([H])c7[H])c(C(=O)N([H])[H])c6N([H])[H])C5([H])[H])c([H])c([H])c([H])c4C3([H])[H])c([H])c([H])c2C1([H])[H]

>  <smiles>  (89) 
[H]c1c([H])c([H])c2c(c1[H])C([H])([H])C([H])([H])C([H])([H])C2([H])N([H])C(=O)C1([H])N(C(=O)C([H])(N([H])C(=O)C([H])(N([H])C([H])([H])[H])C([H])([H])[H])C(C([H])([H])[H])(C([H])([H])[H])C([H])([H])[H])C([H])([H])c2c([H])c(OC([H])([H])C([H])([H])[N+]([H])([H])C3([H])C(=O)c4c(C([H])([H])C([H])([H])N([H])C(=O)N5C([H])([H])C([H])([H])C([H])([H])C([H])(n6nc(-c7c([H])c([H])c(Oc8c([H])c([H])c(F)c([H])c8F)c([H])c7[H])c(C(=O)N([H])[H])c6N([H])[H])C5([H])[H])c([H])c([H])c([H])c4C3([H])[H])c([H])c([H])c2C1([H])[H]

$$$$
91:0:0
     RDKit          3D

 94102  0  0  1  0  0  0  0  0999 V2000
  -26.2720  -22.1990   20.4330 C   0  0  0  0  0  1  0  0  0  0  0  0
  -27.5920  -23.2990   22.2150 C   0  0  0  0  0  1  0  0  0  0  0  0
  -27.7000  -22.6500   20.8200 C   0  0  1  0  0  0  0  0  0  0  0  0
  -29.3890  -19.3780   21.0730 C   0  0  0  0  0  0  0  0  0  0  0  0
  -30.3810  -20.2720   21.3970 C   0  0  0  0  0  0  0  0  0  0  0  0
  -28.5990  -21.4210   20.9110 C   0  0  0  0  0  0  0  0  0  0  0  0
  -31.7940  -20.0970   21.8430 C   0  0  0  0  0  1  0  0  0  0  0  0
  -28.2590  -20.1330   20.7630 N   0  0  0  0  0  0  0  0  0  0  0  0
  -29.9020  -21.5570   21.2870 O   0  0  0  0  0  0  0  0  0  0  0  0
  -29.3710  -17.8590   21.0320 C   0  0  0  0  0  2  0  0  0  0  0  0
  -30.6890  -17.1860   20.5540 C   0  0  0  0  0  2  0  0  0  0  0  0
  -31.2210  -14.8060   20.1780 C   0  0  0  0  0  0  0  0  0  0  0  0
  -30.9680  -12.4950   19.4060 C   0  0  0  0  0  2  0  0  0  0  0  0
  -30.0640  -12.5070   18.1560 C   0  0  0  0  0  2  0  0  0  0  0  0
  -28.5760  -12.4450   18.5570 C   0  0  0  0  0  2  0  0  0  0  0  0
  -28.1910  -13.4390   19.6900 C   0  0  0  0  0  3  0  0  0  0  0  0
  -29.2220  -13.4210   20.8360 C   0  0  0  0  0  2  0  0  0  0  0  0
  -30.5510  -13.6250   20.2460 N   0  0  0  0  0  0  0  0  0  0  0  0
  -32.4410  -14.8770   20.0110 O   0  0  0  0  0  0  0  0  0  0  0  0
  -30.2630  -16.1310   18.4290 C   0  0  0  0  0  1  0  0  0  0  0  0
  -30.4520  -15.8900   19.8770 N   0  0  0  0  0  0  0  0  0  0  0  0
  -25.8160  -14.1410   20.3620 C   0  0  0  0  0  0  0  0  0  0  0  0
  -24.7150  -13.4130   20.7220 C   0  0  0  0  0  0  0  0  0  0  0  0
  -25.1310  -12.0460   20.7220 C   0  0  0  0  0  0  0  0  0  0  0  0
  -26.8290  -13.2180   20.1610 N   0  0  0  0  0  0  0  0  0  0  0  0
  -26.4230  -11.9550   20.4360 N   0  0  0  0  0  0  0  0  0  0  0  0
  -24.3600  -10.8110   20.9170 C   0  0  0  0  0  0  0  0  0  0  0  0
  -24.7270   -9.8530   21.8880 C   0  0  0  0  0  3  0  0  0  0  0  0
  -23.9550   -8.6850   22.0680 C   0  0  0  0  0  3  0  0  0  0  0  0
  -22.8030   -8.4670   21.2750 C   0  0  0  0  0  0  0  0  0  0  0  0
  -22.4590   -9.4130   20.2910 C   0  0  0  0  0  3  0  0  0  0  0  0
  -23.2310  -10.5710   20.1100 C   0  0  0  0  0  3  0  0  0  0  0  0
  -22.0080   -7.3500   21.3650 O   0  0  0  0  0  0  0  0  0  0  0  0
  -21.8680   -6.6620   22.5440 C   0  0  0  0  0  0  0  0  0  0  0  0
  -21.4070   -7.2860   23.7240 C   0  0  0  0  0  3  0  0  0  0  0  0
  -21.2070   -6.5220   24.8910 C   0  0  0  0  0  3  0  0  0  0  0  0
  -21.4670   -5.1380   24.8830 C   0  0  0  0  0  0  0  0  0  0  0  0
  -21.9280   -4.5160   23.7100 C   0  0  0  0  0  3  0  0  0  0  0  0
  -22.1250   -5.2760   22.5420 C   0  0  0  0  0  0  0  0  0  0  0  0
  -22.5480   -4.6660   21.4090 F   0  0  0  0  0  0  0  0  0  0  0  0
  -21.2690   -4.4040   26.0020 F   0  0  0  0  0  0  0  0  0  0  0  0
  -23.3300  -13.9440   20.9580 C   0  0  0  0  0  0  0  0  0  0  0  0
  -22.5680  -13.2930   21.8280 N   0  0  0  0  0  0  0  0  0  0  0  0
  -22.9350  -14.9670   20.4010 O   0  0  0  0  0  0  0  0  0  0  0  0
  -22.9050  -12.4640   22.2940 H   0  0  0  0  0  0  0  0  0  0  0  0
  -21.6380  -13.6270   22.0320 H   0  0  0  0  0  0  0  0  0  0  0  0
  -26.0340  -15.5010   20.1710 N   0  0  0  0  0  0  0  0  0  0  0  0
  -25.2920  -16.1860   20.2610 H   0  0  0  0  0  0  0  0  0  0  0  0
  -26.9170  -15.9030   19.8820 H   0  0  0  0  0  0  0  0  0  0  0  0
  -28.1600  -23.6610   19.7130 C   0  0  0  0  0  2  0  0  0  0  0  0
  -29.2310  -24.7270   20.0700 C   0  0  0  0  0  2  0  0  0  0  0  0
  -29.7460  -26.8800   21.3220 C   0  0  0  0  0  1  0  0  0  0  0  0
  -28.6800  -26.1080   20.5330 C   0  0  0  0  0  3  0  0  0  0  0  0
  -28.2960  -26.9100   19.4040 O   0  0  0  0  0  0  0  0  0  0  0  0
  -24.5640  -31.7570   23.0970 C   0  0  0  0  0  0  0  0  0  0  0  0
  -27.1360  -27.6350   19.5580 C   0  0  0  0  0  0  0  0  0  0  0  0
  -23.3010  -30.4640   21.4100 C   0  0  0  0  0  3  0  0  0  0  0  0
  -24.7120  -29.0740   19.7960 C   0  0  0  0  0  0  0  0  0  0  0  0
  -25.8040  -30.8960   21.1130 C   0  0  0  0  0  2  0  0  0  0  0  0
  -25.8870  -29.5800   20.3670 C   0  0  0  0  0  0  0  0  0  0  0  0
  -27.1030  -28.8710   20.2430 C   0  0  0  0  0  3  0  0  0  0  0  0
  -25.9480  -27.1450   18.9760 C   0  0  0  0  0  3  0  0  0  0  0  0
  -24.7370  -27.8540   19.0960 C   0  0  0  0  0  3  0  0  0  0  0  0
  -23.4540  -29.8980   19.9720 C   0  0  0  0  0  2  0  0  0  0  0  0
  -24.5780  -31.0490   21.9330 N   0  0  0  0  0  0  0  0  0  0  0  0
  -23.5080  -31.9620   23.7100 O   0  0  0  0  0  0  0  0  0  0  0  0
  -22.7180  -29.3570   22.3160 C   0  0  0  0  0  0  0  0  0  0  0  0
  -21.3960  -29.1350   22.2120 N   0  0  0  0  0  0  0  0  0  0  0  0
  -23.4470  -28.7040   23.0660 O   0  0  0  0  0  0  0  0  0  0  0  0
  -20.8660  -29.7220   21.5810 H   0  0  0  0  0  0  0  0  0  0  0  0
  -18.0950  -27.7390   22.6640 C   0  0  0  0  0  0  0  0  0  0  0  0
  -20.6360  -28.1170   22.9370 C   0  0  0  0  0  3  0  0  0  0  0  0
  -20.8100  -26.7250   22.2880 C   0  0  0  0  0  2  0  0  0  0  0  0
  -19.7200  -26.3960   21.2630 C   0  0  0  0  0  2  0  0  0  0  0  0
  -18.3380  -26.4360   21.9200 C   0  0  0  0  0  2  0  0  0  0  0  0
  -19.1750  -28.5360   23.1280 C   0  0  0  0  0  0  0  0  0  0  0  0
  -18.8960  -29.7540   23.7840 C   0  0  0  0  0  3  0  0  0  0  0  0
  -17.5690  -30.1790   23.9790 C   0  0  0  0  0  3  0  0  0  0  0  0
  -16.5020  -29.3780   23.5320 C   0  0  0  0  0  3  0  0  0  0  0  0
  -16.7670  -28.1590   22.8820 C   0  0  0  0  0  3  0  0  0  0  0  0
  -25.8710  -32.3620   23.7010 C   0  0  0  0  0  3  0  0  0  0  0  0
  -25.5600  -33.7230   24.1550 N   0  0  0  0  0  0  0  0  0  0  0  0
  -25.8460  -34.8360   23.4660 C   0  0  0  0  0  0  0  0  0  0  0  0
  -26.4760  -34.8260   22.4050 O   0  0  0  0  0  0  0  0  0  0  0  0
  -24.9950  -33.8060   24.9870 H   0  0  0  0  0  0  0  0  0  0  0  0
  -24.0760  -36.6160   23.3290 C   0  0  0  0  0  1  0  0  0  0  0  0
  -25.3600  -36.1770   24.0500 C   0  0  0  0  0  3  0  0  0  0  0  0
  -27.5190  -37.0340   24.8480 C   0  0  0  0  0  1  0  0  0  0  0  0
  -26.3690  -37.2540   23.9720 N   0  0  0  0  0  0  0  0  0  0  0  0
  -25.9570  -38.1500   24.2140 H   0  0  0  0  0  0  0  0  0  0  0  0
  -26.4660  -31.5010   24.8830 C   0  0  1  0  0  0  0  0  0  0  0  0
  -25.4360  -31.1650   25.9870 C   0  0  0  0  0  1  0  0  0  0  0  0
  -27.0390  -30.1660   24.3510 C   0  0  0  0  0  1  0  0  0  0  0  0
  -27.6440  -32.2570   25.5420 C   0  0  0  0  0  1  0  0  0  0  0  0
  3  1  1  6
  3  6  1  0
  3  2  1  0
  4  5  2  0
  5  7  1  0
  6  9  1  0
  8  6  2  0
  8  4  1  0
  9  5  1  0
 10  4  1  0
 11 10  1  0
 12 18  1  0
 13 18  1  0
 14 15  1  0
 14 13  1  0
 16 15  1  0
 16 25  1  0
 16 17  1  0
 18 17  1  0
 19 12  2  0
 20 21  1  0
 21 12  1  0
 21 11  1  0
 22 23  2  0
 23 42  1  0
 24 23  1  0
 24 27  1  0
 25 22  1  0
 25 26  1  0
 26 24  2  0
 27 28  1  0
 28 29  2  0
 30 33  1  0
 30 29  1  0
 31 30  2  0
 32 31  1  0
 32 27  2  0
 33 34  1  0
 34 35  1  0
 35 36  2  0
 37 36  1  0
 37 41  1  0
 38 37  2  0
 39 34  2  0
 39 38  1  0
 40 39  1  0
 42 43  1  0
 43 46  1  0
 43 45  1  0
 44 42  2  0
 47 48  1  0
 47 22  1  0
 49 47  1  0
 50 51  1  0
 50  3  1  0
 51 53  1  0
 53 52  1  0
 54 56  1  0
 54 53  1  0
 55 66  2  0
 56 61  1  0
 57 65  1  0
 57 67  1  0
 58 64  1  0
 58 60  1  0
 59 65  1  0
 60 59  1  0
 61 60  2  0
 62 63  1  0
 62 56  2  0
 63 58  2  0
 64 57  1  0
 65 55  1  0
 67 69  2  0
 68 67  1  0
 70 68  1  0
 71 80  2  0
 71 76  1  0
 72 68  1  0
 72 76  1  0
 73 72  1  0
 74 75  1  0
 74 73  1  0
 75 71  1  0
 76 77  2  0
 77 78  1  0
 79 78  2  0
 80 79  1  0
 81 55  1  0
 81 82  1  0
 81 91  1  0
 82 85  1  0
 83 87  1  0
 83 82  1  0
 84 83  2  0
 87 86  1  0
 89 87  1  0
 89 90  1  0
 89 88  1  0
 91 94  1  1
 91 92  1  0
 93 91  1  0
M  ISO  4  12 100  21 100  53 101  54 101
M  END
>  <TORSDO>  (90) 
F 22

>  <SCORE>  (90) 
-11.367

>  <name>  (90) 
91

>  <ligand_id>  (90) 
91

>  <original_smiles>  (90) 
[H]c1c([H])c([H])c2c(c1[H])C([H])([H])C([H])([H])C([H])([H])C2([H])N([H])C(=O)C1([H])N(C(=O)C([H])(N([H])C(=O)C([H])(N([H])C([H])([H])[H])C([H])([H])[H])C(C([H])([H])[H])(C([H])([H])[H])C([H])([H])[H])C([H])([H])c2c([H])c(OC([H])(C([H])([H])[H])C([H])([H])C([H])([H])C(c3nc(C([H])([H])C([H])([H])N(C(=O)N4C([H])([H])C([H])([H])C([H])([H])C([H])(n5nc(-c6c([H])c([H])c(Oc7c([H])c([H])c(F)c([H])c7F)c([H])c6[H])c(C(=O)N([H])[H])c5N([H])[H])C4([H])[H])C([H])([H])[H])c(C([H])([H])[H])o3)(C([H])([H])[H])C([H])([H])[H])c([H])c([H])c2C1([H])[H]

>  <smiles>  (90) 
[H]c1c([H])c([H])c2c(c1[H])C([H])([H])C([H])([H])C([H])([H])C2([H])N([H])C(=O)C1([H])N(C(=O)C([H])(N([H])C(=O)C([H])(N([H])C([H])([H])[H])C([H])([H])[H])C(C([H])([H])[H])(C([H])([H])[H])C([H])([H])[H])C([H])([H])c2c([H])c(OC([H])(C([H])([H])[H])C([H])([H])C([H])([H])C(c3nc(C([H])([H])C([H])([H])N(C(=O)N4C([H])([H])C([H])([H])C([H])([H])C([H])(n5nc(-c6c([H])c([H])c(Oc7c([H])c([H])c(F)c([H])c7F)c([H])c6[H])c(C(=O)N([H])[H])c5N([H])[H])C4([H])[H])C([H])([H])[H])c(C([H])([H])[H])o3)(C([H])([H])[H])C([H])([H])[H])c([H])c([H])c2C1([H])[H]

$$$$
92:0:0
     RDKit          3D

 95103  0  0  1  0  0  0  0  0999 V2000
  -30.2090  -19.2980   19.4150 C   0  0  0  0  0  2  0  0  0  0  0  0
  -29.3850  -20.5660   20.1350 C   0  0  0  0  0  0  0  0  0  0  0  0
  -29.3890  -21.9350   19.7200 N   0  0  0  0  0  0  0  0  0  0  0  0
  -28.7570  -20.2940   21.1580 O   0  0  0  0  0  0  0  0  0  0  0  0
  -29.8860  -22.0880   18.8510 H   0  0  0  0  0  0  0  0  0  0  0  0
  -28.9900  -23.2950   20.4510 C   0  0  0  0  0  2  0  0  0  0  0  0
  -28.3200  -24.6930   19.7550 C   0  0  0  0  0  2  0  0  0  0  0  0
  -28.3910  -26.1760   20.2720 O   0  0  0  0  0  0  0  0  0  0  0  0
  -24.6400  -31.8530   23.1260 C   0  0  0  0  0  0  0  0  0  0  0  0
  -27.3320  -27.1560   20.1460 C   0  0  0  0  0  0  0  0  0  0  0  0
  -23.4940  -30.4540   21.4480 C   0  0  0  0  0  3  0  0  0  0  0  0
  -24.9930  -28.8990   20.0520 C   0  0  0  0  0  0  0  0  0  0  0  0
  -26.0480  -30.7370   21.3560 C   0  0  0  0  0  2  0  0  0  0  0  0
  -26.1510  -29.3460   20.7010 C   0  0  0  0  0  0  0  0  0  0  0  0
  -27.3160  -28.4890   20.7340 C   0  0  0  0  0  3  0  0  0  0  0  0
  -26.1540  -26.8240   19.4430 C   0  0  0  0  0  3  0  0  0  0  0  0
  -25.0090  -27.6510   19.4070 C   0  0  0  0  0  3  0  0  0  0  0  0
  -23.7560  -29.7840   20.0730 C   0  0  0  0  0  2  0  0  0  0  0  0
  -24.7450  -31.0380   22.0310 N   0  0  0  0  0  0  0  0  0  0  0  0
  -23.5370  -32.1250   23.6270 O   0  0  0  0  0  0  0  0  0  0  0  0
  -22.7990  -29.4390   22.3890 C   0  0  0  0  0  0  0  0  0  0  0  0
  -21.4720  -29.2750   22.2460 N   0  0  0  0  0  0  0  0  0  0  0  0
  -23.4560  -28.8020   23.2160 O   0  0  0  0  0  0  0  0  0  0  0  0
  -20.9950  -29.8400   21.5560 H   0  0  0  0  0  0  0  0  0  0  0  0
  -18.0700  -28.1300   22.7360 C   0  0  0  0  0  0  0  0  0  0  0  0
  -20.6350  -28.3330   22.9960 C   0  0  0  0  0  3  0  0  0  0  0  0
  -20.7050  -26.9150   22.3800 C   0  0  0  0  0  2  0  0  0  0  0  0
  -19.5910  -26.6440   21.3640 C   0  0  0  0  0  2  0  0  0  0  0  0
  -18.2160  -26.7980   22.0200 C   0  0  0  0  0  2  0  0  0  0  0  0
  -19.2050  -28.8580   23.1800 C   0  0  0  0  0  0  0  0  0  0  0  0
  -19.0140  -30.1060   23.8120 C   0  0  0  0  0  3  0  0  0  0  0  0
  -17.7190  -30.6250   24.0050 C   0  0  0  0  0  3  0  0  0  0  0  0
  -16.5990  -29.8920   23.5760 C   0  0  0  0  0  3  0  0  0  0  0  0
  -16.7740  -28.6470   22.9470 C   0  0  0  0  0  3  0  0  0  0  0  0
  -25.8970  -32.4970   23.7860 C   0  0  0  0  0  3  0  0  0  0  0  0
  -25.5670  -33.8940   24.1050 N   0  0  0  0  0  0  0  0  0  0  0  0
  -25.8990  -34.9500   23.3510 C   0  0  0  0  0  0  0  0  0  0  0  0
  -26.5800  -34.8510   22.3280 O   0  0  0  0  0  0  0  0  0  0  0  0
  -24.9630  -34.0430   24.8990 H   0  0  0  0  0  0  0  0  0  0  0  0
  -24.1520  -36.7280   22.9960 C   0  0  0  0  0  1  0  0  0  0  0  0
  -25.3990  -36.3360   23.8040 C   0  0  0  0  0  3  0  0  0  0  0  0
  -27.5170  -37.2630   24.6340 C   0  0  0  0  0  1  0  0  0  0  0  0
  -26.4190  -37.4010   23.6820 N   0  0  0  0  0  0  0  0  0  0  0  0
  -26.0000  -38.3180   23.8120 H   0  0  0  0  0  0  0  0  0  0  0  0
  -26.3720  -31.7330   25.0830 C   0  0  1  0  0  0  0  0  0  0  0  0
  -25.2430  -31.4900   26.1120 C   0  0  0  0  0  1  0  0  0  0  0  0
  -26.9850  -30.3600   24.7250 C   0  0  0  0  0  1  0  0  0  0  0  0
  -27.4870  -32.5440   25.7870 C   0  0  0  0  0  1  0  0  0  0  0  0
  -29.7910  -17.6510   19.2320 C   0  0  0  0  0  0  0  0  0  0  0  0
  -30.5460  -16.6320   19.7210 N   0  0  0  0  0  0  0  0  0  0  0  0
  -30.7840  -15.1440   19.6860 C   0  0  0  0  0  0  0  0  0  0  0  0
  -30.3240  -12.8000   18.8460 C   0  0  0  0  0  2  0  0  0  0  0  0
  -29.3290  -12.7240   17.6720 C   0  0  0  0  0  2  0  0  0  0  0  0
  -27.9100  -12.5290   18.2190 C   0  0  0  0  0  2  0  0  0  0  0  0
  -27.5920  -13.5010   19.3830 C   0  0  0  0  0  3  0  0  0  0  0  0
  -28.7350  -13.6470   20.4150 C   0  0  0  0  0  2  0  0  0  0  0  0
  -29.9680  -13.9960   19.6900 N   0  0  0  0  0  0  0  0  0  0  0  0
  -31.9560  -14.8760   19.4380 O   0  0  0  0  0  0  0  0  0  0  0  0
  -25.3130  -14.0900   20.3730 C   0  0  0  0  0  0  0  0  0  0  0  0
  -24.2550  -13.3380   20.7810 C   0  0  0  0  0  0  0  0  0  0  0  0
  -24.6710  -11.9800   20.6500 C   0  0  0  0  0  0  0  0  0  0  0  0
  -26.3050  -13.2040   20.0000 N   0  0  0  0  0  0  0  0  0  0  0  0
  -25.9320  -11.9200   20.2370 N   0  0  0  0  0  0  0  0  0  0  0  0
  -23.9130  -10.7410   20.8430 C   0  0  0  0  0  0  0  0  0  0  0  0
  -24.3570   -9.7290   21.7220 C   0  0  0  0  0  3  0  0  0  0  0  0
  -23.5930   -8.5560   21.9020 C   0  0  0  0  0  3  0  0  0  0  0  0
  -22.3690   -8.3930   21.2100 C   0  0  0  0  0  0  0  0  0  0  0  0
  -21.9440   -9.3960   20.3220 C   0  0  0  0  0  3  0  0  0  0  0  0
  -22.7080  -10.5590   20.1380 C   0  0  0  0  0  3  0  0  0  0  0  0
  -21.5710   -7.2780   21.3070 O   0  0  0  0  0  0  0  0  0  0  0  0
  -21.5280   -6.5240   22.4530 C   0  0  0  0  0  0  0  0  0  0  0  0
  -21.1230   -7.0740   23.6880 C   0  0  0  0  0  3  0  0  0  0  0  0
  -21.0210   -6.2470   24.8240 C   0  0  0  0  0  3  0  0  0  0  0  0
  -21.3160   -4.8740   24.7260 C   0  0  0  0  0  0  0  0  0  0  0  0
  -21.7160   -4.3260   23.4940 C   0  0  0  0  0  3  0  0  0  0  0  0
  -21.8200   -5.1500   22.3600 C   0  0  0  0  0  0  0  0  0  0  0  0
  -22.1880   -4.6150   21.1700 F   0  0  0  0  0  0  0  0  0  0  0  0
  -21.2090   -4.0760   25.8140 F   0  0  0  0  0  0  0  0  0  0  0  0
  -22.9100  -13.8600   21.1910 C   0  0  0  0  0  0  0  0  0  0  0  0
  -22.2360  -13.1730   22.1020 N   0  0  0  0  0  0  0  0  0  0  0  0
  -22.4870  -14.9290   20.7480 O   0  0  0  0  0  0  0  0  0  0  0  0
  -22.6010  -12.3100   22.4780 H   0  0  0  0  0  0  0  0  0  0  0  0
  -21.3340  -13.5010   22.4170 H   0  0  0  0  0  0  0  0  0  0  0  0
  -25.4990  -15.4610   20.2990 N   0  0  0  0  0  0  0  0  0  0  0  0
  -24.5980  -15.8080   20.6260 H   0  0  0  0  0  0  0  0  0  0  0  0
  -26.1530  -15.5990   21.0620 H   0  0  0  0  0  0  0  0  0  0  0  0
  -27.2510  -17.5030   19.0670 C   0  0  0  0  0  0  0  0  0  0  0  0
  -26.6960  -18.5000   18.0220 C   0  0  0  0  0  2  0  0  0  0  0  0
  -28.5970  -17.3940   18.3200 C   0  0  0  0  0  3  0  0  0  0  0  0
  -28.1030  -18.5250   17.3550 C   0  0  0  0  0  3  0  0  0  0  0  0
  -26.7780  -16.9620   20.0710 O   0  0  0  0  0  0  0  0  0  0  0  0
  -28.1030  -18.1440   15.9180 N   0  0  0  0  0  4  0  0  0  0  0  0
  -29.0370  -18.0790   15.5500 H   0  0  0  0  0  0  0  0  0  0  0  0
  -27.6160  -18.8280   15.3650 H   0  0  0  0  0  0  0  0  0  0  0  0
  -27.6490  -17.2430   15.7860 H   0  0  0  0  0  0  0  0  0  0  0  0
  1  2  1  0
  2  4  2  0
  3  2  1  0
  3  6  1  0
  5  3  1  0
  7  8  1  0
  7  6  1  0
  9 20  2  0
 10  8  1  0
 10 15  1  0
 11 19  1  0
 11 21  1  0
 12 18  1  0
 12 14  1  0
 13 19  1  0
 14 15  2  0
 14 13  1  0
 16 10  2  0
 17 16  1  0
 17 12  2  0
 18 11  1  0
 19  9  1  0
 21 23  2  0
 22 21  1  0
 24 22  1  0
 25 34  2  0
 25 30  1  0
 26 22  1  0
 26 30  1  0
 27 26  1  0
 28 29  1  0
 28 27  1  0
 29 25  1  0
 30 31  2  0
 31 32  1  0
 33 32  2  0
 34 33  1  0
 35  9  1  0
 35 36  1  0
 35 45  1  0
 36 39  1  0
 37 41  1  0
 37 36  1  0
 38 37  2  0
 41 40  1  0
 43 41  1  0
 43 44  1  0
 43 42  1  0
 45 48  1  1
 45 46  1  0
 47 45  1  0
 49  1  1  0
 49 50  2  0
 51 57  1  0
 51 50  1  0
 52 57  1  0
 53 54  1  0
 53 52  1  0
 55 54  1  0
 55 62  1  0
 55 56  1  0
 57 56  1  0
 58 51  2  0
 59 60  2  0
 60 79  1  0
 61 60  1  0
 61 64  1  0
 62 63  1  0
 62 59  1  0
 63 61  2  0
 64 65  1  0
 65 66  2  0
 67 70  1  0
 67 66  1  0
 68 67  2  0
 69 68  1  0
 69 64  2  0
 70 71  1  0
 71 72  1  0
 72 73  2  0
 74 73  1  0
 74 78  1  0
 75 74  2  0
 76 71  2  0
 76 75  1  0
 77 76  1  0
 79 80  1  0
 80 83  1  0
 80 82  1  0
 81 79  2  0
 84 59  1  0
 84 85  1  0
 84 86  1  0
 87 91  2  0
 88 87  1  0
 89 87  1  0
 89 49  1  0
 90 92  1  0
 90 88  1  0
 90 89  1  0
 93 92  1  0
 94 92  1  0
 95 92  1  0
M  ISO  4   7 101   8 101  50 100  51 100
M  END
>  <TORSDO>  (91) 
F 22

>  <SCORE>  (91) 
-13.363

>  <name>  (91) 
92

>  <ligand_id>  (91) 
92

>  <original_smiles>  (91) 
[H]c1c([H])c([H])c2c(c1[H])C([H])([H])C([H])([H])C([H])([H])C2([H])N([H])C(=O)C1([H])N(C(=O)C([H])(N([H])C(=O)C([H])(N([H])C([H])([H])[H])C([H])([H])[H])C(C([H])([H])[H])(C([H])([H])[H])C([H])([H])[H])C([H])([H])c2c([H])c(OC([H])([H])C([H])([H])N([H])C(=O)C([H])([H])C(=NC(=O)N3C([H])([H])C([H])([H])C([H])([H])C([H])(n4nc(-c5c([H])c([H])c(Oc6c([H])c([H])c(F)c([H])c6F)c([H])c5[H])c(C(=O)N([H])[H])c4N([H])[H])C3([H])[H])C3([H])C(=O)C([H])([H])C3([H])[N+]([H])([H])[H])c([H])c([H])c2C1([H])[H]

>  <smiles>  (91) 
[H]c1c([H])c([H])c2c(c1[H])C([H])([H])C([H])([H])C([H])([H])C2([H])N([H])C(=O)C1([H])N(C(=O)C([H])(N([H])C(=O)C([H])(N([H])C([H])([H])[H])C([H])([H])[H])C(C([H])([H])[H])(C([H])([H])[H])C([H])([H])[H])C([H])([H])c2c([H])c(OC([H])([H])C([H])([H])N([H])C(=O)C([H])([H])C(=NC(=O)N3C([H])([H])C([H])([H])C([H])([H])C([H])(n4nc(-c5c([H])c([H])c(Oc6c([H])c([H])c(F)c([H])c6F)c([H])c5[H])c(C(=O)N([H])[H])c4N([H])[H])C3([H])[H])C3([H])C(=O)C([H])([H])C3([H])[N+]([H])([H])[H])c([H])c([H])c2C1([H])[H]

$$$$
93:0:0
     RDKit          3D

 88 97  0  0  1  0  0  0  0  0999 V2000
  -28.5650  -21.3530   20.5420 C   0  0  0  0  0  3  0  0  0  0  0  0
  -30.6020  -15.3500   21.1090 C   0  0  0  0  0  0  0  0  0  0  0  0
  -30.6890  -12.8900   20.3710 C   0  0  0  0  0  2  0  0  0  0  0  0
  -29.9370  -12.6330   19.0460 C   0  0  0  0  0  2  0  0  0  0  0  0
  -28.4410  -12.3840   19.3060 C   0  0  0  0  0  2  0  0  0  0  0  0
  -27.8440  -13.3880   20.3240 C   0  0  0  0  0  3  0  0  0  0  0  0
  -28.7380  -13.5980   21.5610 C   0  0  0  0  0  2  0  0  0  0  0  0
  -30.0430  -14.0540   21.0630 N   0  0  0  0  0  0  0  0  0  0  0  0
  -31.8370  -15.3650   21.0170 O   0  0  0  0  0  0  0  0  0  0  0  0
  -29.5150  -17.5950   20.1080 C   0  0  0  0  0  0  0  0  0  0  0  0
  -29.2480  -17.2830   18.8270 C   0  0  0  0  0  3  0  0  0  0  0  0
  -29.5910  -18.8010   20.7950 C   0  0  0  0  0  0  0  0  0  0  0  0
  -29.0800  -16.2150   17.8230 C   0  0  0  0  0  2  0  0  0  0  0  0
  -28.8950  -17.7390   17.4680 C   0  0  0  0  0  2  0  0  0  0  0  0
  -30.1090  -17.8870   21.9510 C   0  0  0  0  0  2  0  0  0  0  0  0
  -29.6220  -20.1130   20.5360 N   0  0  0  0  0  0  0  0  0  0  0  0
  -29.8430  -16.6030   21.1600 N   0  0  0  0  0  0  0  0  0  0  0  0
  -25.3930  -13.9280   20.7870 C   0  0  0  0  0  0  0  0  0  0  0  0
  -24.3050  -13.1410   21.0380 C   0  0  0  0  0  0  0  0  0  0  0  0
  -24.7880  -11.7970   21.0850 C   0  0  0  0  0  0  0  0  0  0  0  0
  -26.4680  -13.0650   20.6790 N   0  0  0  0  0  0  0  0  0  0  0  0
  -26.1080  -11.7780   20.9300 N   0  0  0  0  0  0  0  0  0  0  0  0
  -24.0600  -10.5260   21.2070 C   0  0  0  0  0  0  0  0  0  0  0  0
  -24.3950   -9.5760   22.1960 C   0  0  0  0  0  3  0  0  0  0  0  0
  -23.6660   -8.3740   22.3110 C   0  0  0  0  0  3  0  0  0  0  0  0
  -22.5860   -8.1110   21.4350 C   0  0  0  0  0  0  0  0  0  0  0  0
  -22.2710   -9.0510   20.4370 C   0  0  0  0  0  3  0  0  0  0  0  0
  -23.0020  -10.2460   20.3200 C   0  0  0  0  0  3  0  0  0  0  0  0
  -21.8360   -6.9590   21.4550 O   0  0  0  0  0  0  0  0  0  0  0  0
  -21.6730   -6.2240   22.6030 C   0  0  0  0  0  0  0  0  0  0  0  0
  -21.1170   -6.7860   23.7720 C   0  0  0  0  0  3  0  0  0  0  0  0
  -20.9000   -5.9810   24.9070 C   0  0  0  0  0  3  0  0  0  0  0  0
  -21.2320   -4.6130   24.8750 C   0  0  0  0  0  0  0  0  0  0  0  0
  -21.7810   -4.0490   23.7090 C   0  0  0  0  0  3  0  0  0  0  0  0
  -21.9970   -4.8530   22.5750 C   0  0  0  0  0  0  0  0  0  0  0  0
  -22.5060   -4.3000   21.4480 F   0  0  0  0  0  0  0  0  0  0  0  0
  -21.0170   -3.8370   25.9630 F   0  0  0  0  0  0  0  0  0  0  0  0
  -22.8790  -13.5980   21.1290 C   0  0  0  0  0  0  0  0  0  0  0  0
  -22.0660  -12.9130   21.9230 N   0  0  0  0  0  0  0  0  0  0  0  0
  -22.4930  -14.6020   20.5330 O   0  0  0  0  0  0  0  0  0  0  0  0
  -22.3910  -12.1040   22.4310 H   0  0  0  0  0  0  0  0  0  0  0  0
  -21.1030  -13.2010   22.0250 H   0  0  0  0  0  0  0  0  0  0  0  0
  -25.5580  -15.3000   20.6130 N   0  0  0  0  0  0  0  0  0  0  0  0
  -24.7780  -15.9470   20.6370 H   0  0  0  0  0  0  0  0  0  0  0  0
  -26.4390  -15.7490   20.4060 H   0  0  0  0  0  0  0  0  0  0  0  0
  -28.9490  -23.0600   20.3190 C   0  0  0  0  0  3  0  0  0  0  0  0
  -27.9160  -24.4870   20.2240 C   0  0  0  0  0  3  0  0  0  0  0  0
  -28.1920  -26.0820   20.2010 O   0  0  0  0  0  0  0  0  0  0  0  0
  -24.5800  -31.9400   23.1710 C   0  0  0  0  0  0  0  0  0  0  0  0
  -27.1560  -27.1280   20.1550 C   0  0  0  0  0  0  0  0  0  0  0  0
  -23.3820  -30.5270   21.5490 C   0  0  0  0  0  3  0  0  0  0  0  0
  -24.8320  -28.9420   20.1220 C   0  0  0  0  0  0  0  0  0  0  0  0
  -25.9430  -30.7760   21.3780 C   0  0  0  0  0  2  0  0  0  0  0  0
  -26.0190  -29.3730   20.7270 C   0  0  0  0  0  0  0  0  0  0  0  0
  -27.1800  -28.4880   20.7170 C   0  0  0  0  0  3  0  0  0  0  0  0
  -25.9370  -26.8300   19.5060 C   0  0  0  0  0  3  0  0  0  0  0  0
  -24.8120  -27.6880   19.4910 C   0  0  0  0  0  3  0  0  0  0  0  0
  -23.6030  -29.8450   20.1730 C   0  0  0  0  0  2  0  0  0  0  0  0
  -24.6560  -31.1060   22.0850 N   0  0  0  0  0  0  0  0  0  0  0  0
  -23.4930  -32.2220   23.7010 O   0  0  0  0  0  0  0  0  0  0  0  0
  -22.7100  -29.5250   22.5240 C   0  0  0  0  0  0  0  0  0  0  0  0
  -21.3800  -29.3470   22.4110 N   0  0  0  0  0  0  0  0  0  0  0  0
  -23.3890  -28.9090   23.3500 O   0  0  0  0  0  0  0  0  0  0  0  0
  -20.8850  -29.8960   21.7220 H   0  0  0  0  0  0  0  0  0  0  0  0
  -18.0110  -28.1220   22.9570 C   0  0  0  0  0  0  0  0  0  0  0  0
  -20.5710  -28.4080   23.1950 C   0  0  0  0  0  3  0  0  0  0  0  0
  -20.6790  -26.9730   22.6280 C   0  0  0  0  0  2  0  0  0  0  0  0
  -19.5690  -26.6360   21.6260 C   0  0  0  0  0  2  0  0  0  0  0  0
  -18.1930  -26.7720   22.2840 C   0  0  0  0  0  2  0  0  0  0  0  0
  -19.1280  -28.8970   23.3720 C   0  0  0  0  0  0  0  0  0  0  0  0
  -18.9020  -30.1580   23.9640 C   0  0  0  0  0  3  0  0  0  0  0  0
  -17.5940  -30.6450   24.1450 C   0  0  0  0  0  3  0  0  0  0  0  0
  -16.4930  -29.8680   23.7450 C   0  0  0  0  0  3  0  0  0  0  0  0
  -16.7030  -28.6080   23.1570 C   0  0  0  0  0  3  0  0  0  0  0  0
  -25.8520  -32.5970   23.7880 C   0  0  0  0  0  3  0  0  0  0  0  0
  -25.5190  -33.9900   24.1320 N   0  0  0  0  0  0  0  0  0  0  0  0
  -25.8320  -35.0600   23.3890 C   0  0  0  0  0  0  0  0  0  0  0  0
  -26.4940  -34.9790   22.3510 O   0  0  0  0  0  0  0  0  0  0  0  0
  -24.9250  -34.1250   24.9380 H   0  0  0  0  0  0  0  0  0  0  0  0
  -24.0770  -36.8410   23.0840 C   0  0  0  0  0  1  0  0  0  0  0  0
  -25.3350  -36.4380   23.8720 C   0  0  0  0  0  3  0  0  0  0  0  0
  -27.4710  -37.3410   24.6820 C   0  0  0  0  0  1  0  0  0  0  0  0
  -26.3530  -37.5060   23.7560 N   0  0  0  0  0  0  0  0  0  0  0  0
  -25.9380  -38.4200   23.9190 H   0  0  0  0  0  0  0  0  0  0  0  0
  -26.3860  -31.8330   25.0610 C   0  0  1  0  0  0  0  0  0  0  0  0
  -25.3050  -31.5840   26.1400 C   0  0  0  0  0  1  0  0  0  0  0  0
  -26.9830  -30.4610   24.6750 C   0  0  0  0  0  1  0  0  0  0  0  0
  -27.5330  -32.6420   25.7120 C   0  0  0  0  0  1  0  0  0  0  0  0
  2 17  1  0
  3  8  1  0
  4  5  1  0
  4  3  1  0
  6  5  1  0
  6 21  1  0
  6  7  1  0
  8  2  1  0
  8  7  1  0
  9  2  2  0
 10 12  2  0
 10 17  1  0
 11 10  1  0
 12 15  1  0
 13 11  1  0
 14 13  1  0
 14 11  1  0
 16  1  2  0
 16 12  1  0
 17 15  1  0
 18 19  2  0
 19 20  1  0
 19 38  1  0
 20 23  1  0
 21 18  1  0
 21 22  1  0
 22 20  2  0
 23 24  1  0
 24 25  2  0
 26 29  1  0
 26 25  1  0
 27 26  2  0
 28 27  1  0
 28 23  2  0
 29 30  1  0
 30 31  1  0
 31 32  2  0
 33 32  1  0
 33 37  1  0
 34 33  2  0
 35 30  2  0
 35 34  1  0
 36 35  1  0
 38 39  1  0
 39 42  1  0
 39 41  1  0
 40 38  2  0
 43 44  1  0
 43 18  1  0
 45 43  1  0
 46  1  1  0
 47 46  2  0
 48 47  1  0
 49 60  2  0
 50 48  1  0
 50 55  1  0
 51 59  1  0
 51 61  1  0
 52 58  1  0
 52 54  1  0
 53 59  1  0
 54 53  1  0
 55 54  2  0
 56 50  2  0
 57 56  1  0
 57 52  2  0
 58 51  1  0
 59 49  1  0
 61 63  2  0
 62 61  1  0
 64 62  1  0
 65 74  2  0
 65 70  1  0
 66 62  1  0
 66 70  1  0
 67 66  1  0
 68 69  1  0
 68 67  1  0
 69 65  1  0
 70 71  2  0
 71 72  1  0
 73 72  2  0
 74 73  1  0
 75 49  1  0
 75 76  1  0
 75 85  1  0
 76 79  1  0
 77 81  1  0
 77 76  1  0
 78 77  2  0
 81 80  1  0
 83 81  1  0
 83 84  1  0
 83 82  1  0
 85 88  1  1
 85 86  1  0
 87 85  1  0
M  ISO  4   2 100  17 100  47 101  48 101
M  END
>  <TORSDO>  (92) 
F 18

>  <SCORE>  (92) 
-13.240

>  <name>  (92) 
93

>  <ligand_id>  (92) 
93

>  <original_smiles>  (92) 
[H]c1c([H])c([H])c2c(c1[H])C([H])([H])C([H])([H])C([H])([H])C2([H])N([H])C(=O)C1([H])N(C(=O)C([H])(N([H])C(=O)C([H])(N([H])C([H])([H])[H])C([H])([H])[H])C(C([H])([H])[H])(C([H])([H])[H])C([H])([H])[H])C([H])([H])c2c([H])c(OC([H])([H])C([H])([H])C([H])([H])N=C3C(=C4C([H])([H])C4([H])[H])N(C(=O)N4C([H])([H])C([H])([H])C([H])([H])C([H])(n5nc(-c6c([H])c([H])c(Oc7c([H])c([H])c(F)c([H])c7F)c([H])c6[H])c(C(=O)N([H])[H])c5N([H])[H])C4([H])[H])C3([H])[H])c([H])c([H])c2C1([H])[H]

>  <smiles>  (92) 
[H]c1c([H])c([H])c2c(c1[H])C([H])([H])C([H])([H])C([H])([H])C2([H])N([H])C(=O)C1([H])N(C(=O)C([H])(N([H])C(=O)C([H])(N([H])C([H])([H])[H])C([H])([H])[H])C(C([H])([H])[H])(C([H])([H])[H])C([H])([H])[H])C([H])([H])c2c([H])c(OC([H])([H])C([H])([H])C([H])([H])N=C3C(=C4C([H])([H])C4([H])[H])N(C(=O)N4C([H])([H])C([H])([H])C([H])([H])C([H])(n5nc(-c6c([H])c([H])c(Oc7c([H])c([H])c(F)c([H])c7F)c([H])c6[H])c(C(=O)N([H])[H])c5N([H])[H])C4([H])[H])C3([H])[H])c([H])c([H])c2C1([H])[H]

$$$$
94:0:0
     RDKit          3D

 94105  0  0  1  0  0  0  0  0999 V2000
  -31.1790  -22.6420   19.5660 C   0  0  0  0  0  3  0  0  0  0  0  0
  -30.8970  -21.2780   19.8020 C   0  0  0  0  0  3  0  0  0  0  0  0
  -30.2050  -23.6490   19.7030 C   0  0  0  0  0  3  0  0  0  0  0  0
  -28.6240  -21.8750   20.2760 C   0  0  0  0  0  3  0  0  0  0  0  0
  -29.6100  -20.7590   20.1250 C   0  0  0  0  0  0  0  0  0  0  0  0
  -28.8920  -23.3400   20.0940 C   0  0  0  0  0  0  0  0  0  0  0  0
  -30.5260  -15.0040   20.2960 C   0  0  0  0  0  0  0  0  0  0  0  0
  -30.3390  -12.6580   19.3660 C   0  0  0  0  0  2  0  0  0  0  0  0
  -29.4000  -12.6240   18.1400 C   0  0  0  0  0  2  0  0  0  0  0  0
  -27.9440  -12.4170   18.5900 C   0  0  0  0  0  2  0  0  0  0  0  0
  -27.5590  -13.3190   19.7950 C   0  0  0  0  0  3  0  0  0  0  0  0
  -28.6330  -13.3480   20.9020 C   0  0  0  0  0  2  0  0  0  0  0  0
  -29.8790  -13.7680   20.2560 N   0  0  0  0  0  0  0  0  0  0  0  0
  -31.7160  -14.9920   19.9590 O   0  0  0  0  0  0  0  0  0  0  0  0
  -30.5320  -17.0750   21.6200 C   0  0  0  0  0  2  0  0  0  0  0  0
  -29.4750  -19.0910   20.4260 C   0  0  0  0  0  3  0  0  0  0  0  0
  -30.7870  -18.4270   20.9130 C   0  0  1  0  0  0  0  0  0  0  0  0
  -29.6970  -17.5720   19.6470 C   0  0  2  0  0  0  0  0  0  0  0  0
  -31.0590  -18.2110   19.3900 C   0  0  0  0  0  3  0  0  0  0  0  0
  -29.9060  -16.2830   20.5510 N   0  0  0  0  0  0  0  0  0  0  0  0
  -25.1940  -13.8830   20.5640 C   0  0  0  0  0  0  0  0  0  0  0  0
  -24.1330  -13.1020   20.9330 C   0  0  0  0  0  0  0  0  0  0  0  0
  -24.5970  -11.7540   20.8770 C   0  0  0  0  0  0  0  0  0  0  0  0
  -26.2320  -13.0080   20.3060 N   0  0  0  0  0  0  0  0  0  0  0  0
  -25.8860  -11.7180   20.5580 N   0  0  0  0  0  0  0  0  0  0  0  0
  -23.8720  -10.4880   21.0590 C   0  0  0  0  0  0  0  0  0  0  0  0
  -24.3010   -9.5180   21.9900 C   0  0  0  0  0  3  0  0  0  0  0  0
  -23.5740   -8.3200   22.1620 C   0  0  0  0  0  3  0  0  0  0  0  0
  -22.4030   -8.0830   21.4050 C   0  0  0  0  0  0  0  0  0  0  0  0
  -21.9940   -9.0420   20.4590 C   0  0  0  0  0  3  0  0  0  0  0  0
  -22.7220  -10.2320   20.2860 C   0  0  0  0  0  3  0  0  0  0  0  0
  -21.6500   -6.9380   21.4830 O   0  0  0  0  0  0  0  0  0  0  0  0
  -21.5760   -6.1980   22.6360 C   0  0  0  0  0  0  0  0  0  0  0  0
  -21.0980   -6.7490   23.8450 C   0  0  0  0  0  3  0  0  0  0  0  0
  -20.9740   -5.9380   24.9900 C   0  0  0  0  0  3  0  0  0  0  0  0
  -21.3200   -4.5750   24.9280 C   0  0  0  0  0  0  0  0  0  0  0  0
  -21.7870   -4.0210   23.7230 C   0  0  0  0  0  3  0  0  0  0  0  0
  -21.9130   -4.8300   22.5800 C   0  0  0  0  0  0  0  0  0  0  0  0
  -22.3440   -4.2870   21.4160 F   0  0  0  0  0  0  0  0  0  0  0  0
  -21.1940   -3.7920   26.0250 F   0  0  0  0  0  0  0  0  0  0  0  0
  -22.7410  -13.5760   21.2260 C   0  0  0  0  0  0  0  0  0  0  0  0
  -22.0280  -12.8660   22.0930 N   0  0  0  0  0  0  0  0  0  0  0  0
  -22.2970  -14.6080   20.7250 O   0  0  0  0  0  0  0  0  0  0  0  0
  -22.4050  -12.0280   22.5100 H   0  0  0  0  0  0  0  0  0  0  0  0
  -21.0940  -13.1600   22.3400 H   0  0  0  0  0  0  0  0  0  0  0  0
  -25.3670  -15.2530   20.4010 N   0  0  0  0  0  0  0  0  0  0  0  0
  -24.6200  -15.9280   20.5310 H   0  0  0  0  0  0  0  0  0  0  0  0
  -26.2280  -15.6810   20.0790 H   0  0  0  0  0  0  0  0  0  0  0  0
  -32.2290  -17.3760   19.0380 N   0  0  0  0  0  4  0  0  0  0  0  0
  -33.0860  -17.7980   19.3530 H   0  0  0  0  0  0  0  0  0  0  0  0
  -32.2940  -17.2820   18.0400 H   0  0  0  0  0  0  0  0  0  0  0  0
  -32.1610  -16.4380   19.4340 H   0  0  0  0  0  0  0  0  0  0  0  0
  -27.8510  -24.6100   20.2610 C   0  0  0  0  0  2  0  0  0  0  0  0
  -28.2080  -26.1390   20.2180 O   0  0  0  0  0  0  0  0  0  0  0  0
  -24.6310  -31.8980   23.2320 C   0  0  0  0  0  0  0  0  0  0  0  0
  -27.1710  -27.1480   20.1910 C   0  0  0  0  0  0  0  0  0  0  0  0
  -23.4300  -30.5020   21.5990 C   0  0  0  0  0  3  0  0  0  0  0  0
  -24.8700  -28.9270   20.1720 C   0  0  0  0  0  0  0  0  0  0  0  0
  -25.9860  -30.7490   21.4340 C   0  0  0  0  0  2  0  0  0  0  0  0
  -26.0530  -29.3540   20.7870 C   0  0  0  0  0  0  0  0  0  0  0  0
  -27.2080  -28.4800   20.7780 C   0  0  0  0  0  3  0  0  0  0  0  0
  -25.9570  -26.8350   19.5380 C   0  0  0  0  0  3  0  0  0  0  0  0
  -24.8350  -27.6830   19.5300 C   0  0  0  0  0  3  0  0  0  0  0  0
  -23.6470  -29.8250   20.2230 C   0  0  0  0  0  2  0  0  0  0  0  0
  -24.7040  -31.0710   22.1440 N   0  0  0  0  0  0  0  0  0  0  0  0
  -23.5430  -32.1860   23.7560 O   0  0  0  0  0  0  0  0  0  0  0  0
  -22.7440  -29.4990   22.5620 C   0  0  0  0  0  0  0  0  0  0  0  0
  -21.4140  -29.3440   22.4410 N   0  0  0  0  0  0  0  0  0  0  0  0
  -23.4120  -28.8630   23.3820 O   0  0  0  0  0  0  0  0  0  0  0  0
  -20.9350  -29.9040   21.7520 H   0  0  0  0  0  0  0  0  0  0  0  0
  -18.0180  -28.1840   22.9490 C   0  0  0  0  0  0  0  0  0  0  0  0
  -20.5820  -28.4150   23.2110 C   0  0  0  0  0  3  0  0  0  0  0  0
  -20.6660  -26.9840   22.6310 C   0  0  0  0  0  2  0  0  0  0  0  0
  -19.5560  -26.6770   21.6220 C   0  0  0  0  0  2  0  0  0  0  0  0
  -18.1770  -26.8360   22.2690 C   0  0  0  0  0  2  0  0  0  0  0  0
  -19.1470  -28.9340   23.3780 C   0  0  0  0  0  0  0  0  0  0  0  0
  -18.9390  -30.1970   23.9740 C   0  0  0  0  0  3  0  0  0  0  0  0
  -17.6380  -30.7060   24.1530 C   0  0  0  0  0  3  0  0  0  0  0  0
  -16.5260  -29.9530   23.7400 C   0  0  0  0  0  3  0  0  0  0  0  0
  -16.7170  -28.6950   23.1430 C   0  0  0  0  0  3  0  0  0  0  0  0
  -25.9050  -32.5320   23.8620 C   0  0  0  0  0  3  0  0  0  0  0  0
  -26.4060  -31.7620   25.1470 C   0  0  1  0  0  0  0  0  0  0  0  0
  -25.3010  -31.5320   26.2050 C   0  0  0  0  0  1  0  0  0  0  0  0
  -26.9830  -30.3800   24.7630 C   0  0  0  0  0  1  0  0  0  0  0  0
  -27.5580  -32.5500   25.8130 C   0  0  0  0  0  1  0  0  0  0  0  0
  -25.5960  -33.9340   24.1890 N   0  0  0  0  0  0  0  0  0  0  0  0
  -25.9150  -34.9850   23.4230 C   0  0  0  0  0  0  0  0  0  0  0  0
  -26.5600  -34.8750   22.3770 O   0  0  0  0  0  0  0  0  0  0  0  0
  -25.0210  -34.0920   25.0040 H   0  0  0  0  0  0  0  0  0  0  0  0
  -24.1710  -36.7750   23.1190 C   0  0  0  0  0  1  0  0  0  0  0  0
  -25.4430  -36.3770   23.8860 C   0  0  0  0  0  3  0  0  0  0  0  0
  -27.6000  -37.2810   24.6330 C   0  0  0  0  0  1  0  0  0  0  0  0
  -26.4670  -37.4330   23.7260 N   0  0  0  0  0  0  0  0  0  0  0  0
  -26.0640  -38.3520   23.8770 H   0  0  0  0  0  0  0  0  0  0  0  0
  1  3  2  0
  1  2  1  0
  2  5  2  0
  3  6  1  0
  5  4  1  0
  6 53  1  0
  6  4  2  0
  7 20  1  0
  8 13  1  0
  9 10  1  0
  9  8  1  0
 11 10  1  0
 11 24  1  0
 11 12  1  0
 13  7  1  0
 13 12  1  0
 14  7  2  0
 16  5  1  0
 16 17  1  0
 17 15  1  1
 18 16  1  6
 18 20  1  0
 18 17  1  0
 19 49  1  0
 19 18  1  0
 19 17  1  0
 20 15  1  0
 21 22  2  0
 22 41  1  0
 23 22  1  0
 23 26  1  0
 24 25  1  0
 24 21  1  0
 25 23  2  0
 26 27  1  0
 27 28  2  0
 29 32  1  0
 29 28  1  0
 30 29  2  0
 31 30  1  0
 31 26  2  0
 32 33  1  0
 33 34  1  0
 34 35  2  0
 36 35  1  0
 36 40  1  0
 37 36  2  0
 38 33  2  0
 38 37  1  0
 39 38  1  0
 41 42  1  0
 42 45  1  0
 42 44  1  0
 43 41  2  0
 46 47  1  0
 46 21  1  0
 48 46  1  0
 49 50  1  0
 49 52  1  0
 51 49  1  0
 54 53  1  0
 55 66  2  0
 56 54  1  0
 56 61  1  0
 57 65  1  0
 57 67  1  0
 58 64  1  0
 58 60  1  0
 59 65  1  0
 60 59  1  0
 61 60  2  0
 62 56  2  0
 63 62  1  0
 63 58  2  0
 64 57  1  0
 65 55  1  0
 67 69  2  0
 68 67  1  0
 70 68  1  0
 71 80  2  0
 71 76  1  0
 72 68  1  0
 72 76  1  0
 73 72  1  0
 74 75  1  0
 74 73  1  0
 75 71  1  0
 76 77  2  0
 77 78  1  0
 79 78  2  0
 80 79  1  0
 81 55  1  0
 81 86  1  0
 81 82  1  0
 82 85  1  1
 82 83  1  0
 84 82  1  0
 86 89  1  0
 87 91  1  0
 87 86  1  0
 88 87  2  0
 91 90  1  0
 93 94  1  0
 93 91  1  0
 93 92  1  0
M  ISO  4   7 100  20 100  53 101  54 101
M  END
>  <TORSDO>  (93) 
F 18

>  <SCORE>  (93) 
-15.522

>  <name>  (93) 
94

>  <ligand_id>  (93) 
94

>  <original_smiles>  (93) 
[H]c1c([H])c([H])c2c(c1[H])C([H])([H])C([H])([H])C([H])([H])C2([H])N([H])C(=O)C1([H])N(C(=O)C([H])(N([H])C(=O)C([H])(N([H])C([H])([H])[H])C([H])([H])[H])C(C([H])([H])[H])(C([H])([H])[H])C([H])([H])[H])C([H])([H])c2c([H])c(OC([H])([H])c3c([H])c([H])c([H])c(C4([H])C5([H])N(C(=O)N6C([H])([H])C([H])([H])C([H])([H])C([H])(n7nc(-c8c([H])c([H])c(Oc9c([H])c([H])c(F)c([H])c9F)c([H])c8[H])c(C(=O)N([H])[H])c7N([H])[H])C6([H])[H])C([H])([H])C4([H])C5([H])[N+]([H])([H])[H])c3[H])c([H])c([H])c2C1([H])[H]

>  <smiles>  (93) 
[H]c1c([H])c([H])c2c(c1[H])C([H])([H])C([H])([H])C([H])([H])C2([H])N([H])C(=O)C1([H])N(C(=O)C([H])(N([H])C(=O)C([H])(N([H])C([H])([H])[H])C([H])([H])[H])C(C([H])([H])[H])(C([H])([H])[H])C([H])([H])[H])C([H])([H])c2c([H])c(OC([H])([H])c3c([H])c([H])c([H])c(C4([H])C5([H])N(C(=O)N6C([H])([H])C([H])([H])C([H])([H])C([H])(n7nc(-c8c([H])c([H])c(Oc9c([H])c([H])c(F)c([H])c9F)c([H])c8[H])c(C(=O)N([H])[H])c7N([H])[H])C6([H])[H])C([H])([H])C4([H])C5([H])[N+]([H])([H])[H])c3[H])c([H])c([H])c2C1([H])[H]

$$$$
95:0:0
     RDKit          3D

 99107  0  0  1  0  0  0  0  0999 V2000
  -29.3230  -21.8240   20.4890 C   0  0  0  0  0  3  0  0  0  0  0  0
  -30.5620  -15.2970   21.0900 C   0  0  0  0  0  0  0  0  0  0  0  0
  -30.6580  -12.8120   20.4300 C   0  0  0  0  0  2  0  0  0  0  0  0
  -29.9100  -12.4520   19.1260 C   0  0  0  0  0  2  0  0  0  0  0  0
  -28.4260  -12.1500   19.4120 C   0  0  0  0  0  2  0  0  0  0  0  0
  -27.7930  -13.2050   20.3430 C   0  0  0  0  0  3  0  0  0  0  0  0
  -28.6840  -13.5440   21.5670 C   0  0  0  0  0  2  0  0  0  0  0  0
  -29.9870  -14.0040   21.0490 N   0  0  0  0  0  0  0  0  0  0  0  0
  -31.7950  -15.2910   21.1610 O   0  0  0  0  0  0  0  0  0  0  0  0
  -28.9820  -18.9060   20.4610 C   0  0  0  0  0  0  0  0  0  0  0  0
  -30.1180  -17.9520   20.9430 C   0  0  0  0  0  0  0  0  0  0  0  0
  -28.6610  -20.3200   20.3010 C   0  0  0  0  0  0  0  0  0  0  0  0
  -27.9260  -17.9040   20.0790 C   0  0  0  0  0  2  0  0  0  0  0  0
  -28.5860  -16.5190   20.0310 C   0  0  0  0  0  3  0  0  0  0  0  0
  -27.2500  -20.6500   19.7920 C   0  0  0  0  0  1  0  0  0  0  0  0
  -29.8210  -16.5390   20.8180 N   0  0  0  0  0  0  0  0  0  0  0  0
  -31.1750  -18.3600   21.4300 O   0  0  0  0  0  0  0  0  0  0  0  0
  -25.3390  -13.8070   20.7640 C   0  0  0  0  0  0  0  0  0  0  0  0
  -24.2430  -13.0350   21.0210 C   0  0  0  0  0  0  0  0  0  0  0  0
  -24.7230  -11.6940   21.1090 C   0  0  0  0  0  0  0  0  0  0  0  0
  -26.4120  -12.9290   20.6980 N   0  0  0  0  0  0  0  0  0  0  0  0
  -26.0420  -11.6580   20.9760 N   0  0  0  0  0  0  0  0  0  0  0  0
  -23.9930  -10.4320   21.2480 C   0  0  0  0  0  0  0  0  0  0  0  0
  -24.3650   -9.4710   22.2130 C   0  0  0  0  0  3  0  0  0  0  0  0
  -23.6360   -8.2690   22.3400 C   0  0  0  0  0  3  0  0  0  0  0  0
  -22.5250   -8.0230   21.4980 C   0  0  0  0  0  0  0  0  0  0  0  0
  -22.1760   -8.9730   20.5220 C   0  0  0  0  0  3  0  0  0  0  0  0
  -22.9040  -10.1660   20.3960 C   0  0  0  0  0  3  0  0  0  0  0  0
  -21.7740   -6.8740   21.5340 O   0  0  0  0  0  0  0  0  0  0  0  0
  -21.6660   -6.1240   22.6770 C   0  0  0  0  0  0  0  0  0  0  0  0
  -21.1680   -6.6670   23.8810 C   0  0  0  0  0  3  0  0  0  0  0  0
  -21.0090   -5.8410   25.0120 C   0  0  0  0  0  3  0  0  0  0  0  0
  -21.3390   -4.4740   24.9380 C   0  0  0  0  0  0  0  0  0  0  0  0
  -21.8310   -3.9320   23.7380 C   0  0  0  0  0  3  0  0  0  0  0  0
  -21.9900   -4.7540   22.6090 C   0  0  0  0  0  0  0  0  0  0  0  0
  -22.4460   -4.2230   21.4500 F   0  0  0  0  0  0  0  0  0  0  0  0
  -21.1760   -3.6780   26.0210 F   0  0  0  0  0  0  0  0  0  0  0  0
  -22.8190  -13.5060   21.0800 C   0  0  0  0  0  0  0  0  0  0  0  0
  -21.9950  -12.8480   21.8880 N   0  0  0  0  0  0  0  0  0  0  0  0
  -22.4450  -14.4940   20.4510 O   0  0  0  0  0  0  0  0  0  0  0  0
  -22.3130  -12.0540   22.4220 H   0  0  0  0  0  0  0  0  0  0  0  0
  -21.0340  -13.1460   21.9770 H   0  0  0  0  0  0  0  0  0  0  0  0
  -25.4870  -15.1710   20.5480 N   0  0  0  0  0  0  0  0  0  0  0  0
  -24.6830  -15.7890   20.5500 H   0  0  0  0  0  0  0  0  0  0  0  0
  -26.3480  -15.6410   20.3250 H   0  0  0  0  0  0  0  0  0  0  0  0
  -28.8030  -16.1180   18.5640 C   0  0  0  0  0  3  0  0  0  0  0  0
  -29.9200  -16.0940   17.9710 N   0  0  0  0  0  0  0  0  0  0  0  0
  -30.6980  -16.3710   18.5570 H   0  0  0  0  0  0  0  0  0  0  0  0
  -29.4190  -22.1910   21.9840 C   0  0  0  0  0  2  0  0  0  0  0  0
  -30.1010  -23.5560   22.2290 C   0  0  0  0  0  2  0  0  0  0  0  0
  -29.3880  -24.4410   23.2680 C   0  0  0  0  0  2  0  0  0  0  0  0
  -29.7350  -25.9320   23.0890 C   0  0  0  0  0  2  0  0  0  0  0  0
  -28.9060  -26.8100   23.9320 N   0  0  0  0  0  4  0  0  0  0  0  0
  -27.9350  -26.7230   23.6930 H   0  0  0  0  0  0  0  0  0  0  0  0
  -29.1730  -27.7670   23.7850 H   0  0  0  0  0  0  0  0  0  0  0  0
  -29.0260  -26.5910   24.9040 H   0  0  0  0  0  0  0  0  0  0  0  0
  -28.8310  -23.2520   19.6390 C   0  0  0  0  0  2  0  0  0  0  0  0
  -27.8940  -24.6100   20.1080 C   0  0  0  0  0  2  0  0  0  0  0  0
  -28.0640  -26.1420   19.7720 O   0  0  0  0  0  0  0  0  0  0  0  0
  -24.5460  -31.8050   23.0760 C   0  0  0  0  0  0  0  0  0  0  0  0
  -26.9940  -27.1250   19.8400 C   0  0  0  0  0  0  0  0  0  0  0  0
  -23.2800  -30.4600   21.4430 C   0  0  0  0  0  3  0  0  0  0  0  0
  -24.6730  -28.9010   19.9370 C   0  0  0  0  0  0  0  0  0  0  0  0
  -25.8300  -30.7030   21.2010 C   0  0  0  0  0  2  0  0  0  0  0  0
  -25.8770  -29.3200   20.5180 C   0  0  0  0  0  0  0  0  0  0  0  0
  -27.0370  -28.4520   20.4480 C   0  0  0  0  0  3  0  0  0  0  0  0
  -25.7600  -26.8130   19.2310 C   0  0  0  0  0  3  0  0  0  0  0  0
  -24.6290  -27.6600   19.2790 C   0  0  0  0  0  3  0  0  0  0  0  0
  -23.4540  -29.8100   20.0450 C   0  0  0  0  0  2  0  0  0  0  0  0
  -24.5740  -31.0100   21.9610 N   0  0  0  0  0  0  0  0  0  0  0  0
  -23.4790  -32.0840   23.6460 O   0  0  0  0  0  0  0  0  0  0  0  0
  -22.6240  -29.4370   22.4040 C   0  0  0  0  0  0  0  0  0  0  0  0
  -21.2920  -29.2720   22.3080 N   0  0  0  0  0  0  0  0  0  0  0  0
  -23.3170  -28.7960   23.1990 O   0  0  0  0  0  0  0  0  0  0  0  0
  -20.7880  -29.8420   21.6420 H   0  0  0  0  0  0  0  0  0  0  0  0
  -17.9270  -28.0530   22.8680 C   0  0  0  0  0  0  0  0  0  0  0  0
  -20.4890  -28.3200   23.0810 C   0  0  0  0  0  3  0  0  0  0  0  0
  -20.5830  -26.8970   22.4850 C   0  0  0  0  0  2  0  0  0  0  0  0
  -19.4600  -26.5870   21.4890 C   0  0  0  0  0  2  0  0  0  0  0  0
  -18.0920  -26.7160   22.1650 C   0  0  0  0  0  2  0  0  0  0  0  0
  -19.0510  -28.8120   23.2850 C   0  0  0  0  0  0  0  0  0  0  0  0
  -18.8410  -30.0620   23.9070 C   0  0  0  0  0  3  0  0  0  0  0  0
  -17.5390  -30.5530   24.1150 C   0  0  0  0  0  3  0  0  0  0  0  0
  -16.4280  -29.7910   23.7110 C   0  0  0  0  0  3  0  0  0  0  0  0
  -16.6230  -28.5430   23.0940 C   0  0  0  0  0  3  0  0  0  0  0  0
  -25.8490  -32.4140   23.6800 C   0  0  0  0  0  3  0  0  0  0  0  0
  -26.3990  -31.5980   24.9160 C   0  0  1  0  0  0  0  0  0  0  0  0
  -25.3420  -31.3480   26.0150 C   0  0  0  0  0  1  0  0  0  0  0  0
  -26.9470  -30.2200   24.4730 C   0  0  0  0  0  1  0  0  0  0  0  0
  -27.5830  -32.3570   25.5600 C   0  0  0  0  0  1  0  0  0  0  0  0
  -25.5550  -33.8040   24.0680 N   0  0  0  0  0  0  0  0  0  0  0  0
  -25.8870  -34.8840   23.3480 C   0  0  0  0  0  0  0  0  0  0  0  0
  -26.5380  -34.8120   22.3020 O   0  0  0  0  0  0  0  0  0  0  0  0
  -24.9810  -33.9380   24.8860 H   0  0  0  0  0  0  0  0  0  0  0  0
  -24.1770  -36.7140   23.0930 C   0  0  0  0  0  1  0  0  0  0  0  0
  -25.4270  -36.2600   23.8670 C   0  0  0  0  0  3  0  0  0  0  0  0
  -27.5820  -37.0900   24.6980 C   0  0  0  0  0  1  0  0  0  0  0  0
  -26.4690  -37.3060   23.7780 N   0  0  0  0  0  0  0  0  0  0  0  0
  -26.0760  -38.2240   23.9740 H   0  0  0  0  0  0  0  0  0  0  0  0
  1 57  1  0
  1 49  1  0
  2  9  2  0
  3  8  1  0
  4  5  1  0
  4  3  1  0
  6  5  1  0
  6 21  1  0
  6  7  1  0
  8  2  1  0
  8  7  1  0
 10 11  1  0
 11 17  2  0
 12 10  2  0
 12  1  1  0
 13 10  1  0
 14 46  1  0
 14 13  1  0
 14 16  1  0
 15 12  1  0
 16 11  1  0
 16  2  1  0
 18 19  2  0
 19 38  1  0
 19 20  1  0
 20 23  1  0
 21 18  1  0
 21 22  1  0
 22 20  2  0
 23 24  1  0
 24 25  2  0
 26 29  1  0
 26 25  1  0
 27 26  2  0
 28 27  1  0
 28 23  2  0
 29 30  1  0
 30 31  1  0
 31 32  2  0
 33 32  1  0
 33 37  1  0
 34 33  2  0
 35 30  2  0
 35 34  1  0
 36 35  1  0
 38 39  1  0
 39 42  1  0
 39 41  1  0
 40 38  2  0
 43 44  1  0
 43 18  1  0
 45 43  1  0
 47 48  1  0
 47 46  2  0
 49 50  1  0
 50 51  1  0
 52 51  1  0
 52 53  1  0
 53 56  1  0
 54 53  1  0
 55 53  1  0
 57 58  1  0
 59 61  1  0
 59 58  1  0
 60 71  2  0
 61 66  1  0
 62 70  1  0
 62 72  1  0
 63 69  1  0
 63 65  1  0
 64 70  1  0
 65 64  1  0
 66 65  2  0
 67 68  1  0
 67 61  2  0
 68 63  2  0
 69 62  1  0
 70 60  1  0
 72 74  2  0
 73 72  1  0
 75 73  1  0
 76 85  2  0
 76 81  1  0
 77 73  1  0
 77 81  1  0
 78 77  1  0
 79 80  1  0
 79 78  1  0
 80 76  1  0
 81 82  2  0
 82 83  1  0
 84 83  2  0
 85 84  1  0
 86 60  1  0
 86 91  1  0
 86 87  1  0
 87 90  1  1
 87 88  1  0
 89 87  1  0
 91 94  1  0
 92 96  1  0
 92 91  1  0
 93 92  2  0
 96 95  1  0
 98 96  1  0
 98 99  1  0
 98 97  1  0
M  ISO  4   2 100  16 100  58 101  59 101
M  END
>  <TORSDO>  (94) 
F 24

>  <SCORE>  (94) 
-12.308

>  <name>  (94) 
95

>  <ligand_id>  (94) 
95

>  <original_smiles>  (94) 
[H]N=C([H])C1([H])N(C(=O)N2C([H])([H])C([H])([H])C([H])([H])C([H])(n3nc(-c4c([H])c([H])c(Oc5c([H])c([H])c(F)c([H])c5F)c([H])c4[H])c(C(=O)N([H])[H])c3N([H])[H])C2([H])[H])C(=O)C(=C(C([H])([H])[H])C([H])(C([H])([H])C([H])([H])Oc2c([H])c([H])c3c(c2[H])C([H])([H])N(C(=O)C([H])(N([H])C(=O)C([H])(N([H])C([H])([H])[H])C([H])([H])[H])C(C([H])([H])[H])(C([H])([H])[H])C([H])([H])[H])C([H])(C(=O)N([H])C2([H])c4c([H])c([H])c([H])c([H])c4C([H])([H])C([H])([H])C2([H])[H])C3([H])[H])C([H])([H])C([H])([H])C([H])([H])C([H])([H])[N+]([H])([H])[H])C1([H])[H]

>  <smiles>  (94) 
[H]N=C([H])C1([H])N(C(=O)N2C([H])([H])C([H])([H])C([H])([H])C([H])(n3nc(-c4c([H])c([H])c(Oc5c([H])c([H])c(F)c([H])c5F)c([H])c4[H])c(C(=O)N([H])[H])c3N([H])[H])C2([H])[H])C(=O)C(=C(C([H])([H])[H])C([H])(C([H])([H])C([H])([H])Oc2c([H])c([H])c3c(c2[H])C([H])([H])N(C(=O)C([H])(N([H])C(=O)C([H])(N([H])C([H])([H])[H])C([H])([H])[H])C(C([H])([H])[H])(C([H])([H])[H])C([H])([H])[H])C([H])(C(=O)N([H])C2([H])c4c([H])c([H])c([H])c([H])c4C([H])([H])C([H])([H])C2([H])[H])C3([H])[H])C([H])([H])C([H])([H])C([H])([H])C([H])([H])[N+]([H])([H])[H])C1([H])[H]

$$$$
