0:0:0
     RDKit          3D

 91 99  0  0  1  0  0  0  0  0999 V2000
  -30.0920  -20.4450   20.9010 C   0  0  0  0  0  2  0  0  0  0  0  0
  -30.9090  -17.9520   20.4510 C   0  0  0  0  0  3  0  0  0  0  0  0
  -28.9990  -17.9650   20.9850 C   0  0  0  0  0  2  0  0  0  0  0  0
  -29.8550  -16.9000   20.2540 C   0  0  0  0  0  3  0  0  0  0  0  0
  -30.0130  -18.9710   20.5600 N   0  0  0  0  0  0  0  0  0  0  0  0
  -32.2460  -17.8190   20.4660 N   0  0  0  0  0  0  0  0  0  0  0  0
  -32.6420  -16.8870   20.4180 H   0  0  0  0  0  0  0  0  0  0  0  0
  -32.8810  -18.6010   20.5280 H   0  0  0  0  0  0  0  0  0  0  0  0
  -30.7060  -14.5540   20.3380 C   0  0  0  0  0  0  0  0  0  0  0  0
  -30.3860  -12.4090   19.1440 C   0  0  0  0  0  2  0  0  0  0  0  0
  -29.4110  -12.5820   17.9600 C   0  0  0  0  0  2  0  0  0  0  0  0
  -27.9510  -12.4320   18.4340 C   0  0  0  0  0  2  0  0  0  0  0  0
  -27.6430  -13.2850   19.6900 C   0  0  0  0  0  3  0  0  0  0  0  0
  -28.7120  -13.0630   20.7850 C   0  0  0  0  0  2  0  0  0  0  0  0
  -30.0270  -13.3760   20.2030 N   0  0  0  0  0  0  0  0  0  0  0  0
  -31.7920  -14.7540   19.7830 O   0  0  0  0  0  0  0  0  0  0  0  0
  -30.0620  -15.5850   20.9350 N   0  0  0  0  0  0  0  0  0  0  0  0
  -30.1120  -15.5720   21.9520 H   0  0  0  0  0  0  0  0  0  0  0  0
  -25.2520  -13.9070   20.4220 C   0  0  0  0  0  0  0  0  0  0  0  0
  -24.1840  -13.1500   20.8060 C   0  0  0  0  0  0  0  0  0  0  0  0
  -24.6350  -11.7920   20.7800 C   0  0  0  0  0  0  0  0  0  0  0  0
  -26.2910  -13.0220   20.1870 N   0  0  0  0  0  0  0  0  0  0  0  0
  -25.9220  -11.7430   20.4580 N   0  0  0  0  0  0  0  0  0  0  0  0
  -23.9010  -10.5350   20.9810 C   0  0  0  0  0  0  0  0  0  0  0  0
  -24.3390   -9.5670   21.9100 C   0  0  0  0  0  3  0  0  0  0  0  0
  -23.6100   -8.3720   22.1020 C   0  0  0  0  0  3  0  0  0  0  0  0
  -22.4230   -8.1400   21.3650 C   0  0  0  0  0  0  0  0  0  0  0  0
  -22.0030   -9.0980   20.4260 C   0  0  0  0  0  3  0  0  0  0  0  0
  -22.7340  -10.2810   20.2340 C   0  0  0  0  0  3  0  0  0  0  0  0
  -21.6630   -6.9980   21.4690 O   0  0  0  0  0  0  0  0  0  0  0  0
  -21.6280   -6.2560   22.6220 C   0  0  0  0  0  0  0  0  0  0  0  0
  -21.2300   -6.8170   23.8550 C   0  0  0  0  0  3  0  0  0  0  0  0
  -21.1430   -6.0040   25.0050 C   0  0  0  0  0  3  0  0  0  0  0  0
  -21.4450   -4.6300   24.9180 C   0  0  0  0  0  0  0  0  0  0  0  0
  -21.8370   -4.0700   23.6900 C   0  0  0  0  0  3  0  0  0  0  0  0
  -21.9240   -4.8810   22.5440 C   0  0  0  0  0  0  0  0  0  0  0  0
  -22.2820   -4.3310   21.3580 F   0  0  0  0  0  0  0  0  0  0  0  0
  -21.3520   -3.8500   26.0180 F   0  0  0  0  0  0  0  0  0  0  0  0
  -22.7920  -13.6350   21.0830 C   0  0  0  0  0  0  0  0  0  0  0  0
  -22.0730  -12.9540   21.9650 N   0  0  0  0  0  0  0  0  0  0  0  0
  -22.3560  -14.6620   20.5590 O   0  0  0  0  0  0  0  0  0  0  0  0
  -22.4430  -12.1280   22.4070 H   0  0  0  0  0  0  0  0  0  0  0  0
  -21.1380  -13.2640   22.1900 H   0  0  0  0  0  0  0  0  0  0  0  0
  -25.4340  -15.2760   20.2260 N   0  0  0  0  0  0  0  0  0  0  0  0
  -24.6780  -15.9420   20.3440 H   0  0  0  0  0  0  0  0  0  0  0  0
  -26.3060  -15.6990   19.9500 H   0  0  0  0  0  0  0  0  0  0  0  0
  -28.9100  -21.3900   20.4150 C   0  0  0  0  0  2  0  0  0  0  0  0
  -29.1800  -22.9430   20.6330 C   0  0  0  0  0  2  0  0  0  0  0  0
  -28.0880  -24.0030   20.1950 C   0  0  0  0  0  2  0  0  0  0  0  0
  -28.6030  -25.3690   19.5790 C   0  0  0  0  0  2  0  0  0  0  0  0
  -28.4110  -26.6290   20.2800 O   0  0  0  0  0  0  0  0  0  0  0  0
  -24.5920  -31.8810   23.2470 C   0  0  0  0  0  0  0  0  0  0  0  0
  -27.2390  -27.3780   20.1880 C   0  0  0  0  0  0  0  0  0  0  0  0
  -23.3900  -30.4740   21.6120 C   0  0  0  0  0  3  0  0  0  0  0  0
  -24.8440  -28.9230   20.1820 C   0  0  0  0  0  0  0  0  0  0  0  0
  -25.9210  -30.8200   21.4130 C   0  0  0  0  0  2  0  0  0  0  0  0
  -26.0020  -29.4390   20.7740 C   0  0  0  0  0  0  0  0  0  0  0  0
  -27.1980  -28.6750   20.7720 C   0  0  0  0  0  3  0  0  0  0  0  0
  -26.0650  -26.8970   19.5700 C   0  0  0  0  0  3  0  0  0  0  0  0
  -24.8740  -27.6540   19.5750 C   0  0  0  0  0  3  0  0  0  0  0  0
  -23.5960  -29.7840   20.2340 C   0  0  0  0  0  2  0  0  0  0  0  0
  -24.6560  -31.0740   22.1490 N   0  0  0  0  0  0  0  0  0  0  0  0
  -23.5080  -32.1600   23.7810 O   0  0  0  0  0  0  0  0  0  0  0  0
  -22.7360  -29.4610   22.5780 C   0  0  0  0  0  0  0  0  0  0  0  0
  -21.4100  -29.2780   22.4460 N   0  0  0  0  0  0  0  0  0  0  0  0
  -23.4160  -28.8410   23.3970 O   0  0  0  0  0  0  0  0  0  0  0  0
  -20.9240  -29.8230   21.7510 H   0  0  0  0  0  0  0  0  0  0  0  0
  -18.0390  -28.0820   22.9550 C   0  0  0  0  0  0  0  0  0  0  0  0
  -20.5930  -28.3430   23.2250 C   0  0  0  0  0  3  0  0  0  0  0  0
  -20.6950  -26.9080   22.6520 C   0  0  0  0  0  2  0  0  0  0  0  0
  -19.5990  -26.6060   21.6200 C   0  0  0  0  0  2  0  0  0  0  0  0
  -18.2150  -26.7360   22.2670 C   0  0  0  0  0  2  0  0  0  0  0  0
  -19.1540  -28.8440   23.3850 C   0  0  0  0  0  0  0  0  0  0  0  0
  -18.9360  -30.1100   23.9670 C   0  0  0  0  0  3  0  0  0  0  0  0
  -17.6320  -30.6160   24.1280 C   0  0  0  0  0  3  0  0  0  0  0  0
  -16.5300  -29.8500   23.7170 C   0  0  0  0  0  3  0  0  0  0  0  0
  -16.7330  -28.5830   23.1430 C   0  0  0  0  0  3  0  0  0  0  0  0
  -25.8780  -32.5170   23.8640 C   0  0  0  0  0  3  0  0  0  0  0  0
  -25.5680  -33.9150   24.1940 N   0  0  0  0  0  0  0  0  0  0  0  0
  -25.9050  -34.9660   23.4320 C   0  0  0  0  0  0  0  0  0  0  0  0
  -26.5780  -34.8580   22.4030 O   0  0  0  0  0  0  0  0  0  0  0  0
  -24.9660  -34.0690   24.9880 H   0  0  0  0  0  0  0  0  0  0  0  0
  -24.1780  -36.7570   23.0690 C   0  0  0  0  0  1  0  0  0  0  0  0
  -25.4170  -36.3570   23.8850 C   0  0  0  0  0  3  0  0  0  0  0  0
  -27.5490  -37.2400   24.7200 C   0  0  0  0  0  1  0  0  0  0  0  0
  -26.4520  -37.4070   23.7730 N   0  0  0  0  0  0  0  0  0  0  0  0
  -26.0470  -38.3290   23.9110 H   0  0  0  0  0  0  0  0  0  0  0  0
  -26.3950  -31.7480   25.1420 C   0  0  1  0  0  0  0  0  0  0  0  0
  -25.3060  -31.5100   26.2130 C   0  0  0  0  0  1  0  0  0  0  0  0
  -26.9800  -30.3720   24.7510 C   0  0  0  0  0  1  0  0  0  0  0  0
  -27.5430  -32.5450   25.7990 C   0  0  0  0  0  1  0  0  0  0  0  0
  2  6  1  0
  2  5  1  0
  4  2  1  0
  4 17  1  0
  4  3  1  0
  5  1  1  0
  5  3  1  0
  6  8  1  0
  7  6  1  0
  9 17  1  0
 10 15  1  0
 11 12  1  0
 11 10  1  0
 13 12  1  0
 13 22  1  0
 13 14  1  0
 15  9  1  0
 15 14  1  0
 16  9  2  0
 17 18  1  0
 19 20  2  0
 20 39  1  0
 21 20  1  0
 21 24  1  0
 22 19  1  0
 22 23  1  0
 23 21  2  0
 24 25  1  0
 25 26  2  0
 27 30  1  0
 27 26  1  0
 28 27  2  0
 29 28  1  0
 29 24  2  0
 30 31  1  0
 31 32  1  0
 32 33  2  0
 34 33  1  0
 34 38  1  0
 35 34  2  0
 36 31  2  0
 36 35  1  0
 37 36  1  0
 39 40  1  0
 40 43  1  0
 40 42  1  0
 41 39  2  0
 44 45  1  0
 44 19  1  0
 46 44  1  0
 47 48  1  0
 47  1  1  0
 49 48  1  0
 50 49  1  0
 50 51  1  0
 52 63  2  0
 53 51  1  0
 53 58  1  0
 54 62  1  0
 54 64  1  0
 55 61  1  0
 55 57  1  0
 56 62  1  0
 57 56  1  0
 58 57  2  0
 59 60  1  0
 59 53  2  0
 60 55  2  0
 61 54  1  0
 62 52  1  0
 64 66  2  0
 65 64  1  0
 67 65  1  0
 68 77  2  0
 68 73  1  0
 69 65  1  0
 69 73  1  0
 70 69  1  0
 71 72  1  0
 71 70  1  0
 72 68  1  0
 73 74  2  0
 74 75  1  0
 76 75  2  0
 77 76  1  0
 78 52  1  0
 78 79  1  0
 78 88  1  0
 79 82  1  0
 80 84  1  0
 80 79  1  0
 81 80  2  0
 84 83  1  0
 86 84  1  0
 86 87  1  0
 86 85  1  0
 88 91  1  1
 88 89  1  0
 90 88  1  0
M  ISO  4   9 100  17 100  50 101  51 101
M  END
>  <TORSDO>  (1) 
F 21

>  <SCORE>  (1) 
-13.349

>  <name>  (1) 
0

>  <ligand_id>  (1) 
0

>  <original_smiles>  (1) 
[H]c1c([H])c([H])c2c(c1[H])C([H])([H])C([H])([H])C([H])([H])C2([H])N([H])C(=O)C1([H])N(C(=O)C([H])(N([H])C(=O)C([H])(N([H])C([H])([H])[H])C([H])([H])[H])C(C([H])([H])[H])(C([H])([H])[H])C([H])([H])[H])C([H])([H])c2c([H])c(OC([H])([H])C([H])([H])C([H])([H])C([H])([H])C([H])([H])N3C(=[N+]([H])[H])C([H])(N([H])C(=O)N4C([H])([H])C([H])([H])C([H])([H])C([H])(n5nc(-c6c([H])c([H])c(Oc7c([H])c([H])c(F)c([H])c7F)c([H])c6[H])c(C(=O)N([H])[H])c5N([H])[H])C4([H])[H])C3([H])[H])c([H])c([H])c2C1([H])[H]

>  <smiles>  (1) 
[H]c1c([H])c([H])c2c(c1[H])C([H])([H])C([H])([H])C([H])([H])C2([H])N([H])C(=O)C1([H])N(C(=O)C([H])(N([H])C(=O)C([H])(N([H])C([H])([H])[H])C([H])([H])[H])C(C([H])([H])[H])(C([H])([H])[H])C([H])([H])[H])C([H])([H])c2c([H])c(OC([H])([H])C([H])([H])C([H])([H])C([H])([H])C([H])([H])N3C(=[N+]([H])[H])C([H])(N([H])C(=O)N4C([H])([H])C([H])([H])C([H])([H])C([H])(n5nc(-c6c([H])c([H])c(Oc7c([H])c([H])c(F)c([H])c7F)c([H])c6[H])c(C(=O)N([H])[H])c5N([H])[H])C4([H])[H])C3([H])[H])c([H])c([H])c2C1([H])[H]

$$$$
1:0:0
     RDKit          3D

 94102  0  0  1  0  0  0  0  0999 V2000
  -28.5250  -20.6000   20.1270 C   0  0  0  0  0  0  0  0  0  0  0  0
  -27.7260  -21.7360   20.0660 C   0  0  0  0  0  0  0  0  0  0  0  0
  -29.7110  -21.4260   20.5190 C   0  0  0  0  0  2  0  0  0  0  0  0
  -28.3390  -19.3870   19.8430 N   0  0  0  0  0  2  0  0  0  0  0  0
  -28.7240  -22.5410   20.5060 N   0  0  0  0  0  0  0  0  0  0  0  0
  -26.4640  -21.9470   19.6640 N   0  0  0  0  0  0  0  0  0  0  0  0
  -25.9140  -21.1700   19.3260 H   0  0  0  0  0  0  0  0  0  0  0  0
  -26.0460  -22.8630   19.6660 H   0  0  0  0  0  0  0  0  0  0  0  0
  -28.7670  -18.3890   20.8100 C   0  0  0  0  0  2  0  0  0  0  0  0
  -30.1480  -17.8240   20.4270 C   0  0  0  0  0  2  0  0  0  0  0  0
  -30.7100  -16.7810   21.4180 C   0  0  0  0  0  2  0  0  0  0  0  0
  -30.8150  -14.5390   20.3130 C   0  0  0  0  0  0  0  0  0  0  0  0
  -30.4540  -12.4460   19.0580 C   0  0  0  0  0  2  0  0  0  0  0  0
  -29.4680  -12.7090   17.9060 C   0  0  0  0  0  2  0  0  0  0  0  0
  -28.0090  -12.5530   18.3820 C   0  0  0  0  0  2  0  0  0  0  0  0
  -27.7260  -13.3450   19.6880 C   0  0  0  0  0  3  0  0  0  0  0  0
  -28.8230  -13.0570   20.7420 C   0  0  0  0  0  2  0  0  0  0  0  0
  -30.1290  -13.3800   20.1420 N   0  0  0  0  0  0  0  0  0  0  0  0
  -31.8570  -14.8030   19.7040 O   0  0  0  0  0  0  0  0  0  0  0  0
  -30.2420  -15.4190   21.1470 N   0  0  0  0  0  0  0  0  0  0  0  0
  -29.4040  -15.1110   21.6150 H   0  0  0  0  0  0  0  0  0  0  0  0
  -25.3530  -13.9430   20.4940 C   0  0  0  0  0  0  0  0  0  0  0  0
  -24.2990  -13.1620   20.8930 C   0  0  0  0  0  0  0  0  0  0  0  0
  -24.7560  -11.8120   20.8140 C   0  0  0  0  0  0  0  0  0  0  0  0
  -26.3890  -13.0660   20.2080 N   0  0  0  0  0  0  0  0  0  0  0  0
  -26.0330  -11.7780   20.4530 N   0  0  0  0  0  0  0  0  0  0  0  0
  -24.0350  -10.5460   21.0010 C   0  0  0  0  0  0  0  0  0  0  0  0
  -24.4670   -9.5830   21.9390 C   0  0  0  0  0  3  0  0  0  0  0  0
  -23.7480   -8.3800   22.1130 C   0  0  0  0  0  3  0  0  0  0  0  0
  -22.5820   -8.1340   21.3510 C   0  0  0  0  0  0  0  0  0  0  0  0
  -22.1680   -9.0850   20.4020 C   0  0  0  0  0  3  0  0  0  0  0  0
  -22.8890  -10.2780   20.2250 C   0  0  0  0  0  3  0  0  0  0  0  0
  -21.8310   -6.9860   21.4390 O   0  0  0  0  0  0  0  0  0  0  0  0
  -21.7430   -6.2710   22.6070 C   0  0  0  0  0  0  0  0  0  0  0  0
  -21.2080   -6.8320   23.7870 C   0  0  0  0  0  3  0  0  0  0  0  0
  -21.0730   -6.0400   24.9450 C   0  0  0  0  0  3  0  0  0  0  0  0
  -21.4610   -4.6860   24.9220 C   0  0  0  0  0  0  0  0  0  0  0  0
  -21.9890   -4.1240   23.7470 C   0  0  0  0  0  3  0  0  0  0  0  0
  -22.1280   -4.9150   22.5920 C   0  0  0  0  0  0  0  0  0  0  0  0
  -22.6160   -4.3620   21.4560 F   0  0  0  0  0  0  0  0  0  0  0  0
  -21.3220   -3.9220   26.0310 F   0  0  0  0  0  0  0  0  0  0  0  0
  -22.9140  -13.6340   21.2330 C   0  0  0  0  0  0  0  0  0  0  0  0
  -22.2150  -12.9120   22.1030 N   0  0  0  0  0  0  0  0  0  0  0  0
  -22.4600  -14.6760   20.7600 O   0  0  0  0  0  0  0  0  0  0  0  0
  -22.5870  -12.0640   22.5060 H   0  0  0  0  0  0  0  0  0  0  0  0
  -21.2880  -13.2120   22.3730 H   0  0  0  0  0  0  0  0  0  0  0  0
  -25.5070  -15.3180   20.3320 N   0  0  0  0  0  0  0  0  0  0  0  0
  -24.7330  -15.9590   20.4550 H   0  0  0  0  0  0  0  0  0  0  0  0
  -26.3290  -15.7620   19.9400 H   0  0  0  0  0  0  0  0  0  0  0  0
  -28.9870  -23.9840   20.3240 C   0  0  0  0  0  2  0  0  0  0  0  0
  -27.2570  -24.7360   22.0680 C   0  0  0  0  0  1  0  0  0  0  0  0
  -28.7160  -24.8440   21.5840 C   0  0  0  0  0  3  0  0  0  0  0  0
  -29.1240  -26.3230   21.3630 C   0  0  0  0  0  2  0  0  0  0  0  0
  -28.5890  -26.8340   20.1450 O   0  0  0  0  0  0  0  0  0  0  0  0
  -24.5350  -31.8840   23.2180 C   0  0  0  0  0  0  0  0  0  0  0  0
  -27.4100  -27.5380   20.2130 C   0  0  0  0  0  0  0  0  0  0  0  0
  -23.4290  -30.4670   21.5180 C   0  0  0  0  0  3  0  0  0  0  0  0
  -24.9760  -28.9650   20.1550 C   0  0  0  0  0  0  0  0  0  0  0  0
  -25.9520  -30.8780   21.4330 C   0  0  0  0  0  2  0  0  0  0  0  0
  -26.0940  -29.5120   20.7980 C   0  0  0  0  0  0  0  0  0  0  0  0
  -27.3150  -28.8020   20.8380 C   0  0  0  0  0  3  0  0  0  0  0  0
  -26.2860  -27.0080   19.5530 C   0  0  0  0  0  3  0  0  0  0  0  0
  -25.0630  -27.7040   19.5390 C   0  0  0  0  0  3  0  0  0  0  0  0
  -23.7140  -29.7970   20.1460 C   0  0  0  0  0  2  0  0  0  0  0  0
  -24.6520  -31.0930   22.1140 N   0  0  0  0  0  0  0  0  0  0  0  0
  -23.4260  -32.1310   23.7140 O   0  0  0  0  0  0  0  0  0  0  0  0
  -22.7610  -29.4260   22.4440 C   0  0  0  0  0  0  0  0  0  0  0  0
  -21.4420  -29.2390   22.2800 N   0  0  0  0  0  0  0  0  0  0  0  0
  -23.4280  -28.7910   23.2630 O   0  0  0  0  0  0  0  0  0  0  0  0
  -20.9670  -29.8030   21.5900 H   0  0  0  0  0  0  0  0  0  0  0  0
  -18.0520  -28.0740   22.7290 C   0  0  0  0  0  0  0  0  0  0  0  0
  -20.6130  -28.2850   23.0140 C   0  0  0  0  0  3  0  0  0  0  0  0
  -20.6980  -26.8760   22.3850 C   0  0  0  0  0  2  0  0  0  0  0  0
  -19.5930  -26.6050   21.3600 C   0  0  0  0  0  2  0  0  0  0  0  0
  -18.2120  -26.7470   22.0060 C   0  0  0  0  0  2  0  0  0  0  0  0
  -19.1800  -28.8020   23.1890 C   0  0  0  0  0  0  0  0  0  0  0  0
  -18.9810  -30.0460   23.8260 C   0  0  0  0  0  3  0  0  0  0  0  0
  -17.6850  -30.5620   24.0090 C   0  0  0  0  0  3  0  0  0  0  0  0
  -16.5700  -29.8300   23.5670 C   0  0  0  0  0  3  0  0  0  0  0  0
  -16.7530  -28.5880   22.9320 C   0  0  0  0  0  3  0  0  0  0  0  0
  -25.7810  -32.5360   23.8930 C   0  0  0  0  0  3  0  0  0  0  0  0
  -25.4360  -33.9290   24.2090 N   0  0  0  0  0  0  0  0  0  0  0  0
  -25.7760  -34.9830   23.4560 C   0  0  0  0  0  0  0  0  0  0  0  0
  -26.4880  -34.8880   22.4520 O   0  0  0  0  0  0  0  0  0  0  0  0
  -24.8120  -34.0780   24.9890 H   0  0  0  0  0  0  0  0  0  0  0  0
  -24.0390  -36.7450   23.0170 C   0  0  0  0  0  1  0  0  0  0  0  0
  -25.2440  -36.3630   23.8890 C   0  0  0  0  0  3  0  0  0  0  0  0
  -27.3140  -37.2900   24.8310 C   0  0  0  0  0  1  0  0  0  0  0  0
  -26.2630  -37.4350   23.8260 N   0  0  0  0  0  0  0  0  0  0  0  0
  -25.8340  -38.3480   23.9460 H   0  0  0  0  0  0  0  0  0  0  0  0
  -26.2590  -31.7730   25.1900 C   0  0  1  0  0  0  0  0  0  0  0  0
  -25.1250  -31.5010   26.2060 C   0  0  0  0  0  1  0  0  0  0  0  0
  -26.8990  -30.4140   24.8210 C   0  0  0  0  0  1  0  0  0  0  0  0
  -27.3550  -32.5960   25.9090 C   0  0  0  0  0  1  0  0  0  0  0  0
  1  3  1  0
  2  1  2  0
  2  5  1  0
  4  1  1  0
  4  9  1  0
  5  3  1  0
  6  8  1  0
  6  2  1  0
  7  6  1  0
 10  9  1  0
 10 11  1  0
 12 20  1  0
 13 18  1  0
 14 15  1  0
 14 13  1  0
 16 15  1  0
 16 25  1  0
 16 17  1  0
 18 12  1  0
 18 17  1  0
 19 12  2  0
 20 11  1  0
 20 21  1  0
 22 23  2  0
 23 42  1  0
 24 23  1  0
 24 27  1  0
 25 26  1  0
 25 22  1  0
 26 24  2  0
 27 28  1  0
 28 29  2  0
 30 33  1  0
 30 29  1  0
 31 30  2  0
 32 31  1  0
 32 27  2  0
 33 34  1  0
 34 35  1  0
 35 36  2  0
 37 36  1  0
 37 41  1  0
 38 37  2  0
 39 34  2  0
 39 38  1  0
 40 39  1  0
 42 43  1  0
 43 46  1  0
 43 45  1  0
 44 42  2  0
 47 48  1  0
 47 22  1  0
 49 47  1  0
 50  5  1  0
 50 52  1  0
 52 51  1  0
 53 52  1  0
 54 56  1  0
 54 53  1  0
 55 66  2  0
 56 61  1  0
 57 65  1  0
 57 67  1  0
 58 60  1  0
 59 65  1  0
 60 61  2  0
 60 59  1  0
 62 56  2  0
 63 62  1  0
 63 58  2  0
 64 58  1  0
 64 57  1  0
 65 55  1  0
 67 69  2  0
 68 67  1  0
 70 68  1  0
 71 80  2  0
 71 76  1  0
 72 68  1  0
 72 76  1  0
 73 72  1  0
 74 75  1  0
 74 73  1  0
 75 71  1  0
 76 77  2  0
 77 78  1  0
 79 78  2  0
 80 79  1  0
 81 55  1  0
 81 82  1  0
 81 91  1  0
 82 85  1  0
 83 87  1  0
 83 82  1  0
 84 83  2  0
 87 86  1  0
 89 87  1  0
 89 90  1  0
 89 88  1  0
 91 94  1  1
 91 92  1  0
 93 91  1  0
M  ISO  4  12 100  20 100  53 101  54 101
M  END
>  <TORSDO>  (2) 
F 22

>  <SCORE>  (2) 
-13.269

>  <name>  (2) 
1

>  <ligand_id>  (2) 
1

>  <original_smiles>  (2) 
[H]c1c([H])c([H])c2c(c1[H])C([H])([H])C([H])([H])C([H])([H])C2([H])N([H])C(=O)C1([H])N(C(=O)C([H])(N([H])C(=O)C([H])(N([H])C([H])([H])[H])C([H])([H])[H])C(C([H])([H])[H])(C([H])([H])[H])C([H])([H])[H])C([H])([H])c2c([H])c(OC([H])([H])C([H])(C([H])([H])[H])C([H])([H])N3C(=[N+]([H])[H])C(=NC([H])([H])C([H])([H])C([H])([H])N([H])C(=O)N4C([H])([H])C([H])([H])C([H])([H])C([H])(n5nc(-c6c([H])c([H])c(Oc7c([H])c([H])c(F)c([H])c7F)c([H])c6[H])c(C(=O)N([H])[H])c5N([H])[H])C4([H])[H])C3([H])[H])c([H])c([H])c2C1([H])[H]

>  <smiles>  (2) 
[H]c1c([H])c([H])c2c(c1[H])C([H])([H])C([H])([H])C([H])([H])C2([H])N([H])C(=O)C1([H])N(C(=O)C([H])(N([H])C(=O)C([H])(N([H])C([H])([H])[H])C([H])([H])[H])C(C([H])([H])[H])(C([H])([H])[H])C([H])([H])[H])C([H])([H])c2c([H])c(OC([H])([H])C([H])(C([H])([H])[H])C([H])([H])N3C(=[N+]([H])[H])C(=NC([H])([H])C([H])([H])C([H])([H])N([H])C(=O)N4C([H])([H])C([H])([H])C([H])([H])C([H])(n5nc(-c6c([H])c([H])c(Oc7c([H])c([H])c(F)c([H])c7F)c([H])c6[H])c(C(=O)N([H])[H])c5N([H])[H])C4([H])[H])C3([H])[H])c([H])c([H])c2C1([H])[H]

$$$$
2:0:0
     RDKit          3D

 98106  0  0  1  0  0  0  0  0999 V2000
  -31.1810  -23.4480   17.5500 C   0  0  0  0  0  1  0  0  0  0  0  0
  -32.8550  -22.1600   18.8310 C   0  0  0  0  0  1  0  0  0  0  0  0
  -31.4720  -22.8370   18.9460 C   0  0  2  0  0  0  0  0  0  0  0  0
  -30.3700  -21.7710   19.2550 C   0  0  0  0  0  2  0  0  0  0  0  0
  -30.6760  -20.6520   20.3070 C   0  0  0  0  0  2  0  0  0  0  0  0
  -29.9570  -18.3830   21.1780 C   0  0  0  0  0  2  0  0  0  0  0  0
  -29.7500  -18.8680   18.8440 C   0  0  0  0  0  2  0  0  0  0  0  0
  -30.2630  -17.1120   20.3530 C   0  0  0  0  0  3  0  0  0  0  0  0
  -29.5160  -17.3620   19.0200 C   0  0  2  0  0  0  0  0  0  0  0  0
  -30.1120  -16.5880   17.8290 C   0  0  0  0  0  1  0  0  0  0  0  0
  -28.0000  -17.0830   19.0810 C   0  0  0  0  0  1  0  0  0  0  0  0
  -29.7540  -19.4840   20.1910 N   0  0  2  0  0  4  0  0  0  0  0  0
  -28.8190  -19.8260   20.3610 H   0  0  0  0  0  0  0  0  0  0  0  0
  -30.8000  -14.7600   21.0450 C   0  0  0  0  0  0  0  0  0  0  0  0
  -30.6980  -12.4860   20.1470 C   0  0  0  0  0  2  0  0  0  0  0  0
  -29.8770  -12.5270   18.8420 C   0  0  0  0  0  2  0  0  0  0  0  0
  -28.3720  -12.3760   19.1430 C   0  0  0  0  0  2  0  0  0  0  0  0
  -27.8790  -13.3010   20.2880 C   0  0  0  0  0  3  0  0  0  0  0  0
  -28.8290  -13.2550   21.5050 C   0  0  0  0  0  2  0  0  0  0  0  0
  -30.1880  -13.5480   21.0260 N   0  0  0  0  0  0  0  0  0  0  0  0
  -32.0000  -14.9070   20.8140 O   0  0  0  0  0  0  0  0  0  0  0  0
  -29.9640  -15.8200   21.0170 N   0  0  0  0  0  0  0  0  0  0  0  0
  -29.0000  -15.6260   21.2410 H   0  0  0  0  0  0  0  0  0  0  0  0
  -25.4140  -13.8970   20.7650 C   0  0  0  0  0  0  0  0  0  0  0  0
  -24.3300  -13.1150   21.0520 C   0  0  0  0  0  0  0  0  0  0  0  0
  -24.8120  -11.7720   21.0910 C   0  0  0  0  0  0  0  0  0  0  0  0
  -26.4890  -13.0270   20.6480 N   0  0  0  0  0  0  0  0  0  0  0  0
  -26.1250  -11.7460   20.9080 N   0  0  0  0  0  0  0  0  0  0  0  0
  -24.0940  -10.5010   21.2350 C   0  0  0  0  0  0  0  0  0  0  0  0
  -24.4830   -9.5420   22.1950 C   0  0  0  0  0  3  0  0  0  0  0  0
  -23.7640   -8.3350   22.3270 C   0  0  0  0  0  3  0  0  0  0  0  0
  -22.6430   -8.0790   21.5000 C   0  0  0  0  0  0  0  0  0  0  0  0
  -22.2770   -9.0280   20.5300 C   0  0  0  0  0  3  0  0  0  0  0  0
  -22.9970  -10.2270   20.3930 C   0  0  0  0  0  3  0  0  0  0  0  0
  -21.9030   -6.9240   21.5390 O   0  0  0  0  0  0  0  0  0  0  0  0
  -21.8080   -6.1700   22.6810 C   0  0  0  0  0  0  0  0  0  0  0  0
  -21.3130   -6.7080   23.8890 C   0  0  0  0  0  3  0  0  0  0  0  0
  -21.1630   -5.8790   25.0200 C   0  0  0  0  0  3  0  0  0  0  0  0
  -21.5030   -4.5150   24.9450 C   0  0  0  0  0  0  0  0  0  0  0  0
  -21.9950   -3.9790   23.7410 C   0  0  0  0  0  3  0  0  0  0  0  0
  -22.1430   -4.8030   22.6120 C   0  0  0  0  0  0  0  0  0  0  0  0
  -22.5970   -4.2760   21.4500 F   0  0  0  0  0  0  0  0  0  0  0  0
  -21.3550   -3.7180   26.0280 F   0  0  0  0  0  0  0  0  0  0  0  0
  -22.9050  -13.5740   21.1870 C   0  0  0  0  0  0  0  0  0  0  0  0
  -22.1110  -12.8860   22.0010 N   0  0  0  0  0  0  0  0  0  0  0  0
  -22.5010  -14.5770   20.6010 O   0  0  0  0  0  0  0  0  0  0  0  0
  -22.4470  -12.0830   22.5080 H   0  0  0  0  0  0  0  0  0  0  0  0
  -21.1520  -13.1800   22.1270 H   0  0  0  0  0  0  0  0  0  0  0  0
  -25.5660  -15.2670   20.5780 N   0  0  0  0  0  0  0  0  0  0  0  0
  -24.7770  -15.9040   20.6020 H   0  0  0  0  0  0  0  0  0  0  0  0
  -26.4240  -15.7090   20.2780 H   0  0  0  0  0  0  0  0  0  0  0  0
  -31.5430  -23.9490   20.0430 C   0  0  0  0  0  2  0  0  0  0  0  0
  -30.5720  -25.0550   19.8500 N   0  0  0  0  0  4  0  0  0  0  0  0
  -30.8290  -25.5530   19.0120 H   0  0  0  0  0  0  0  0  0  0  0  0
  -29.6490  -24.6820   19.6980 H   0  0  0  0  0  0  0  0  0  0  0  0
  -30.4940  -26.0180   20.9730 C   0  0  0  0  0  2  0  0  0  0  0  0
  -29.6380  -27.2500   20.6270 C   0  0  0  0  0  2  0  0  0  0  0  0
  -28.4040  -26.7930   20.0750 O   0  0  0  0  0  0  0  0  0  0  0  0
  -24.5990  -31.9490   23.2590 C   0  0  0  0  0  0  0  0  0  0  0  0
  -27.2780  -27.5840   20.1360 C   0  0  0  0  0  0  0  0  0  0  0  0
  -23.3870  -30.5420   21.6210 C   0  0  0  0  0  3  0  0  0  0  0  0
  -24.8460  -29.0330   20.1740 C   0  0  0  0  0  0  0  0  0  0  0  0
  -25.9000  -30.9470   21.3900 C   0  0  0  0  0  2  0  0  0  0  0  0
  -25.9980  -29.5800   20.7480 C   0  0  0  0  0  0  0  0  0  0  0  0
  -27.2170  -28.8700   20.7250 C   0  0  0  0  0  3  0  0  0  0  0  0
  -26.1040  -27.0450   19.5640 C   0  0  0  0  0  3  0  0  0  0  0  0
  -24.8920  -27.7630   19.5740 C   0  0  0  0  0  3  0  0  0  0  0  0
  -23.5880  -29.8720   20.2350 C   0  0  0  0  0  2  0  0  0  0  0  0
  -24.6470  -31.1590   22.1500 N   0  0  0  0  0  0  0  0  0  0  0  0
  -23.5210  -32.2090   23.8120 O   0  0  0  0  0  0  0  0  0  0  0  0
  -22.7580  -29.5120   22.5830 C   0  0  0  0  0  0  0  0  0  0  0  0
  -21.4340  -29.3150   22.4630 N   0  0  0  0  0  0  0  0  0  0  0  0
  -23.4540  -28.8920   23.3920 O   0  0  0  0  0  0  0  0  0  0  0  0
  -20.9350  -29.8650   21.7760 H   0  0  0  0  0  0  0  0  0  0  0  0
  -18.0770  -28.0790   22.9630 C   0  0  0  0  0  0  0  0  0  0  0  0
  -20.6320  -28.3680   23.2350 C   0  0  0  0  0  3  0  0  0  0  0  0
  -20.7530  -26.9390   22.6580 C   0  0  0  0  0  2  0  0  0  0  0  0
  -19.6540  -26.6040   21.6450 C   0  0  0  0  0  2  0  0  0  0  0  0
  -18.2700  -26.7320   22.2890 C   0  0  0  0  0  2  0  0  0  0  0  0
  -19.1870  -28.8550   23.3930 C   0  0  0  0  0  0  0  0  0  0  0  0
  -18.9530  -30.1170   23.9830 C   0  0  0  0  0  3  0  0  0  0  0  0
  -17.6420  -30.6010   24.1480 C   0  0  0  0  0  3  0  0  0  0  0  0
  -16.5470  -29.8230   23.7330 C   0  0  0  0  0  3  0  0  0  0  0  0
  -16.7660  -28.5640   23.1470 C   0  0  0  0  0  3  0  0  0  0  0  0
  -25.8870  -32.5870   23.8690 C   0  0  0  0  0  3  0  0  0  0  0  0
  -25.5760  -33.9870   24.1890 N   0  0  0  0  0  0  0  0  0  0  0  0
  -25.9210  -35.0330   23.4270 C   0  0  0  0  0  0  0  0  0  0  0  0
  -26.6060  -34.9230   22.4070 O   0  0  0  0  0  0  0  0  0  0  0  0
  -24.9640  -34.1480   24.9760 H   0  0  0  0  0  0  0  0  0  0  0  0
  -24.2090  -36.8310   23.0280 C   0  0  0  0  0  1  0  0  0  0  0  0
  -25.4290  -36.4240   23.8690 C   0  0  0  0  0  3  0  0  0  0  0  0
  -27.5510  -37.2950   24.7420 C   0  0  0  0  0  1  0  0  0  0  0  0
  -26.4690  -37.4720   23.7790 N   0  0  0  0  0  0  0  0  0  0  0  0
  -26.0650  -38.3940   23.9180 H   0  0  0  0  0  0  0  0  0  0  0  0
  -26.4140  -31.8230   25.1450 C   0  0  1  0  0  0  0  0  0  0  0  0
  -25.3300  -31.5910   26.2230 C   0  0  0  0  0  1  0  0  0  0  0  0
  -26.9950  -30.4450   24.7530 C   0  0  0  0  0  1  0  0  0  0  0  0
  -27.5700  -32.6250   25.7910 C   0  0  0  0  0  1  0  0  0  0  0  0
  3  1  1  6
  2  3  1  0
  3  4  1  0
  3 52  1  0
  4  5  1  0
  7  9  1  0
  7 12  1  0
  8 22  1  0
  8  6  1  0
  9 11  1  1
  9  8  1  0
 10  9  1  0
 12  5  1  0
 12 13  1  1
 12  6  1  0
 15 20  1  0
 16 17  1  0
 16 15  1  0
 18 17  1  0
 18 27  1  0
 18 19  1  0
 20 14  1  0
 20 19  1  0
 21 14  2  0
 22 14  1  0
 22 23  1  0
 24 25  2  0
 25 26  1  0
 25 44  1  0
 26 29  1  0
 27 24  1  0
 27 28  1  0
 28 26  2  0
 29 30  1  0
 30 31  2  0
 32 35  1  0
 32 31  1  0
 33 32  2  0
 34 33  1  0
 34 29  2  0
 35 36  1  0
 36 37  1  0
 37 38  2  0
 39 38  1  0
 39 43  1  0
 40 39  2  0
 41 36  2  0
 41 40  1  0
 42 41  1  0
 44 45  1  0
 45 48  1  0
 45 47  1  0
 46 44  2  0
 49 50  1  0
 49 24  1  0
 51 49  1  0
 53 52  1  0
 53 56  1  0
 54 53  1  0
 55 53  1  0
 57 56  1  0
 58 60  1  0
 58 57  1  0
 59 70  2  0
 60 65  1  0
 61 69  1  0
 61 71  1  0
 62 68  1  0
 62 64  1  0
 63 69  1  0
 64 63  1  0
 65 64  2  0
 66 67  1  0
 66 60  2  0
 67 62  2  0
 68 61  1  0
 69 59  1  0
 71 73  2  0
 72 71  1  0
 74 72  1  0
 75 84  2  0
 75 80  1  0
 76 72  1  0
 76 80  1  0
 77 76  1  0
 78 79  1  0
 78 77  1  0
 79 75  1  0
 80 81  2  0
 81 82  1  0
 83 82  2  0
 84 83  1  0
 85 59  1  0
 85 86  1  0
 85 95  1  0
 86 89  1  0
 87 91  1  0
 87 86  1  0
 88 87  2  0
 91 90  1  0
 93 91  1  0
 93 94  1  0
 93 92  1  0
 95 98  1  1
 95 96  1  0
 97 95  1  0
M  ISO  4  14 100  22 100  57 101  58 101
M  END
>  <TORSDO>  (3) 
F 23

>  <SCORE>  (3) 
-12.017

>  <name>  (3) 
2

>  <ligand_id>  (3) 
2

>  <original_smiles>  (3) 
[H]c1c([H])c([H])c2c(c1[H])C([H])([H])C([H])([H])C([H])([H])C2([H])N([H])C(=O)C1([H])N(C(=O)C([H])(N([H])C(=O)C([H])(N([H])C([H])([H])[H])C([H])([H])[H])C(C([H])([H])[H])(C([H])([H])[H])C([H])([H])[H])C([H])([H])c2c([H])c(OC([H])([H])C([H])([H])[N+]([H])([H])C([H])([H])C(C([H])([H])[H])(C([H])([H])[H])C([H])([H])C([H])([H])[N+]3([H])C([H])([H])C([H])(N([H])C(=O)N4C([H])([H])C([H])([H])C([H])([H])C([H])(n5nc(-c6c([H])c([H])c(Oc7c([H])c([H])c(F)c([H])c7F)c([H])c6[H])c(C(=O)N([H])[H])c5N([H])[H])C4([H])[H])C(C([H])([H])[H])(C([H])([H])[H])C3([H])[H])c([H])c([H])c2C1([H])[H]

>  <smiles>  (3) 
[H]c1c([H])c([H])c2c(c1[H])C([H])([H])C([H])([H])C([H])([H])C2([H])N([H])C(=O)C1([H])N(C(=O)C([H])(N([H])C(=O)C([H])(N([H])C([H])([H])[H])C([H])([H])[H])C(C([H])([H])[H])(C([H])([H])[H])C([H])([H])[H])C([H])([H])c2c([H])c(OC([H])([H])C([H])([H])[N+]([H])([H])C([H])([H])C(C([H])([H])[H])(C([H])([H])[H])C([H])([H])C([H])([H])[N+]3([H])C([H])([H])C([H])(N([H])C(=O)N4C([H])([H])C([H])([H])C([H])([H])C([H])(n5nc(-c6c([H])c([H])c(Oc7c([H])c([H])c(F)c([H])c7F)c([H])c6[H])c(C(=O)N([H])[H])c5N([H])[H])C4([H])[H])C(C([H])([H])[H])(C([H])([H])[H])C3([H])[H])c([H])c([H])c2C1([H])[H]

$$$$
3:0:0
     RDKit          3D

101109  0  0  1  0  0  0  0  0999 V2000
  -27.9180  -23.2360   19.4610 C   0  0  0  0  0  3  0  0  0  0  0  0
  -28.9620  -21.8150   21.1010 C   0  0  0  0  0  3  0  0  0  0  0  0
  -28.7460  -23.1370   20.5950 C   0  0  0  0  0  0  0  0  0  0  0  0
  -27.3440  -22.0800   18.9080 C   0  0  0  0  0  0  0  0  0  0  0  0
  -28.3690  -20.6820   20.4720 C   0  0  0  0  0  0  0  0  0  0  0  0
  -27.5720  -20.8340   19.3880 N   0  0  0  0  0  0  0  0  0  0  0  0
  -30.6190  -24.8180   20.3800 C   0  0  0  0  0  1  0  0  0  0  0  0
  -29.8610  -24.1500   22.6470 C   0  0  0  0  0  1  0  0  0  0  0  0
  -29.3770  -24.4280   21.2050 C   0  0  2  0  0  0  0  0  0  0  0  0
  -28.3930  -25.6660   21.2770 C   0  0  0  0  0  2  0  0  0  0  0  0
  -28.3690  -26.5940   20.1660 O   0  0  0  0  0  0  0  0  0  0  0  0
  -24.7090  -31.8530   23.3470 C   0  0  0  0  0  0  0  0  0  0  0  0
  -27.2640  -27.4220   20.1690 C   0  0  0  0  0  0  0  0  0  0  0  0
  -23.4790  -30.5100   21.6780 C   0  0  0  0  0  3  0  0  0  0  0  0
  -24.9050  -28.9870   20.2060 C   0  0  0  0  0  0  0  0  0  0  0  0
  -26.0090  -30.8310   21.4790 C   0  0  0  0  0  2  0  0  0  0  0  0
  -26.0760  -29.4720   20.8080 C   0  0  0  0  0  0  0  0  0  0  0  0
  -27.2600  -28.6940   20.7910 C   0  0  0  0  0  3  0  0  0  0  0  0
  -26.0850  -26.9610   19.5480 C   0  0  0  0  0  3  0  0  0  0  0  0
  -24.9070  -27.7320   19.5710 C   0  0  0  0  0  3  0  0  0  0  0  0
  -23.6730  -29.8620   20.2810 C   0  0  0  0  0  2  0  0  0  0  0  0
  -24.7510  -31.0790   22.2260 N   0  0  0  0  0  0  0  0  0  0  0  0
  -23.6340  -32.1290   23.8980 O   0  0  0  0  0  0  0  0  0  0  0  0
  -22.8130  -29.4780   22.6190 C   0  0  0  0  0  0  0  0  0  0  0  0
  -21.4870  -29.3100   22.4840 N   0  0  0  0  0  0  0  0  0  0  0  0
  -23.4890  -28.8300   23.4200 O   0  0  0  0  0  0  0  0  0  0  0  0
  -21.0040  -29.8850   21.8070 H   0  0  0  0  0  0  0  0  0  0  0  0
  -18.1040  -28.1190   22.9300 C   0  0  0  0  0  0  0  0  0  0  0  0
  -20.6590  -28.3650   23.2330 C   0  0  0  0  0  3  0  0  0  0  0  0
  -20.7630  -26.9420   22.6370 C   0  0  0  0  0  2  0  0  0  0  0  0
  -19.6700  -26.6360   21.6080 C   0  0  0  0  0  2  0  0  0  0  0  0
  -18.2820  -26.7780   22.2390 C   0  0  0  0  0  2  0  0  0  0  0  0
  -19.2200  -28.8720   23.3810 C   0  0  0  0  0  0  0  0  0  0  0  0
  -18.9980  -30.1290   23.9830 C   0  0  0  0  0  3  0  0  0  0  0  0
  -17.6930  -30.6320   24.1430 C   0  0  0  0  0  3  0  0  0  0  0  0
  -16.5910  -29.8740   23.7090 C   0  0  0  0  0  3  0  0  0  0  0  0
  -16.7970  -28.6210   23.1070 C   0  0  0  0  0  3  0  0  0  0  0  0
  -26.0050  -32.4520   23.9750 C   0  0  0  0  0  3  0  0  0  0  0  0
  -26.5220  -31.6410   25.2260 C   0  0  1  0  0  0  0  0  0  0  0  0
  -25.4340  -31.3920   26.2950 C   0  0  0  0  0  1  0  0  0  0  0  0
  -27.0810  -30.2660   24.7900 C   0  0  0  0  0  1  0  0  0  0  0  0
  -27.6910  -32.4010   25.9000 C   0  0  0  0  0  1  0  0  0  0  0  0
  -25.7190  -33.8450   24.3410 N   0  0  0  0  0  0  0  0  0  0  0  0
  -26.0760  -34.9110   23.6120 C   0  0  0  0  0  0  0  0  0  0  0  0
  -26.7500  -34.8250   22.5830 O   0  0  0  0  0  0  0  0  0  0  0  0
  -25.1230  -33.9880   25.1430 H   0  0  0  0  0  0  0  0  0  0  0  0
  -24.3810  -36.7440   23.2990 C   0  0  0  0  0  1  0  0  0  0  0  0
  -25.6100  -36.2940   24.1040 C   0  0  0  0  0  3  0  0  0  0  0  0
  -27.7580  -37.1160   24.9680 C   0  0  0  0  0  1  0  0  0  0  0  0
  -26.6610  -37.3300   24.0270 N   0  0  0  0  0  0  0  0  0  0  0  0
  -26.2710  -38.2520   24.2030 H   0  0  0  0  0  0  0  0  0  0  0  0
  -24.8990  -22.2260   18.2610 C   0  0  0  0  0  1  0  0  0  0  0  0
  -26.3520  -22.2030   17.7650 C   0  0  0  0  0  2  0  0  0  0  0  0
  -28.4870  -19.2230   21.0220 C   0  0  0  0  0  2  0  0  0  0  0  0
  -30.8130  -19.2450   20.1130 C   0  0  0  0  0  1  0  0  0  0  0  0
  -29.7500  -18.4310   20.7710 N   0  0  2  0  0  4  0  0  0  0  0  0
  -30.1140  -18.3230   21.7060 H   0  0  0  0  0  0  0  0  0  0  0  0
  -29.5510  -16.9810   20.3050 C   0  0  0  0  0  2  0  0  0  0  0  0
  -30.8590  -16.1700   19.9310 C   0  0  0  0  0  3  0  0  0  0  0  0
  -31.2270  -14.6640   20.2780 C   0  0  0  0  0  0  0  0  0  0  0  0
  -30.7850  -12.4060   19.4000 C   0  0  0  0  0  2  0  0  0  0  0  0
  -29.8790  -12.4190   18.1520 C   0  0  0  0  0  2  0  0  0  0  0  0
  -28.3980  -12.4260   18.5490 C   0  0  0  0  0  2  0  0  0  0  0  0
  -28.0520  -13.4040   19.7070 C   0  0  0  0  0  3  0  0  0  0  0  0
  -29.0930  -13.3700   20.8440 C   0  0  0  0  0  2  0  0  0  0  0  0
  -30.4170  -13.5600   20.2450 N   0  0  0  0  0  0  0  0  0  0  0  0
  -32.4400  -14.4960   20.1960 O   0  0  0  0  0  0  0  0  0  0  0  0
  -25.6740  -14.0890   20.3910 C   0  0  0  0  0  0  0  0  0  0  0  0
  -24.5760  -13.3550   20.7510 C   0  0  0  0  0  0  0  0  0  0  0  0
  -24.9950  -11.9900   20.7610 C   0  0  0  0  0  0  0  0  0  0  0  0
  -26.6940  -13.1730   20.1960 N   0  0  0  0  0  0  0  0  0  0  0  0
  -26.2920  -11.9080   20.4890 N   0  0  0  0  0  0  0  0  0  0  0  0
  -24.2270  -10.7520   20.9550 C   0  0  0  0  0  0  0  0  0  0  0  0
  -24.6090   -9.7820   21.9080 C   0  0  0  0  0  3  0  0  0  0  0  0
  -23.8390   -8.6140   22.0900 C   0  0  0  0  0  3  0  0  0  0  0  0
  -22.6730   -8.4040   21.3170 C   0  0  0  0  0  0  0  0  0  0  0  0
  -22.3090   -9.3610   20.3540 C   0  0  0  0  0  3  0  0  0  0  0  0
  -23.0790  -10.5210   20.1700 C   0  0  0  0  0  3  0  0  0  0  0  0
  -21.8780   -7.2870   21.4050 O   0  0  0  0  0  0  0  0  0  0  0  0
  -21.7700   -6.5710   22.5700 C   0  0  0  0  0  0  0  0  0  0  0  0
  -21.3480   -7.1730   23.7750 C   0  0  0  0  0  3  0  0  0  0  0  0
  -21.1860   -6.3880   24.9350 C   0  0  0  0  0  3  0  0  0  0  0  0
  -21.4350   -5.0030   24.8880 C   0  0  0  0  0  0  0  0  0  0  0  0
  -21.8540   -4.4010   23.6890 C   0  0  0  0  0  3  0  0  0  0  0  0
  -22.0170   -5.1840   22.5320 C   0  0  0  0  0  0  0  0  0  0  0  0
  -22.3990   -4.5960   21.3730 F   0  0  0  0  0  0  0  0  0  0  0  0
  -21.2720   -4.2480   26.0000 F   0  0  0  0  0  0  0  0  0  0  0  0
  -23.1870  -13.8770   20.9710 C   0  0  0  0  0  0  0  0  0  0  0  0
  -22.4210  -13.2350   21.8440 N   0  0  0  0  0  0  0  0  0  0  0  0
  -22.7940  -14.8950   20.4010 O   0  0  0  0  0  0  0  0  0  0  0  0
  -22.7600  -12.4090   22.3180 H   0  0  0  0  0  0  0  0  0  0  0  0
  -21.4880  -13.5670   22.0390 H   0  0  0  0  0  0  0  0  0  0  0  0
  -25.8840  -15.4480   20.1800 N   0  0  0  0  0  0  0  0  0  0  0  0
  -25.1100  -16.1020   20.1990 H   0  0  0  0  0  0  0  0  0  0  0  0
  -26.7030  -15.8230   19.7210 H   0  0  0  0  0  0  0  0  0  0  0  0
  -31.5330  -16.6730   18.6030 C   0  0  0  0  0  2  0  0  0  0  0  0
  -31.7060  -15.6960   17.4240 C   0  0  0  0  0  2  0  0  0  0  0  0
  -32.5130  -16.2550   16.3240 N   0  0  0  0  0  4  0  0  0  0  0  0
  -32.0530  -17.0160   15.8560 H   0  0  0  0  0  0  0  0  0  0  0  0
  -32.6960  -15.5360   15.6460 H   0  0  0  0  0  0  0  0  0  0  0  0
  -33.4040  -16.5730   16.6640 H   0  0  0  0  0  0  0  0  0  0  0  0
  1  3  1  0
  3  2  2  0
  3  9  1  0
  4  6  1  0
  4  1  2  0
  5 54  1  0
  5  2  1  0
  6  5  2  0
  9  7  1  6
  9 10  1  0
  9  8  1  0
 11 13  1  0
 11 10  1  0
 12 23  2  0
 13 18  1  0
 14 22  1  0
 14 24  1  0
 15 21  1  0
 15 17  1  0
 16 22  1  0
 17 16  1  0
 18 17  2  0
 19 20  1  0
 19 13  2  0
 20 15  2  0
 21 14  1  0
 22 12  1  0
 24 26  2  0
 25 24  1  0
 27 25  1  0
 28 37  2  0
 28 33  1  0
 29 25  1  0
 29 33  1  0
 30 29  1  0
 31 32  1  0
 31 30  1  0
 32 28  1  0
 33 34  2  0
 34 35  1  0
 36 35  2  0
 37 36  1  0
 38 12  1  0
 38 43  1  0
 38 39  1  0
 39 42  1  1
 39 40  1  0
 41 39  1  0
 43 46  1  0
 44 48  1  0
 44 43  1  0
 45 44  2  0
 48 47  1  0
 50 48  1  0
 50 51  1  0
 50 49  1  0
 53 52  1  0
 53  4  1  0
 55 56  1  0
 56 54  1  0
 56 57  1  1
 58 56  1  0
 59 96  1  0
 59 60  1  0
 59 58  1  0
 61 66  1  0
 62 63  1  0
 62 61  1  0
 64 63  1  0
 64 71  1  0
 64 65  1  0
 66 60  1  0
 66 65  1  0
 67 60  2  0
 68 69  2  0
 69 70  1  0
 69 88  1  0
 70 73  1  0
 71 68  1  0
 71 72  1  0
 72 70  2  0
 73 74  1  0
 74 75  2  0
 76 79  1  0
 76 75  1  0
 77 76  2  0
 78 77  1  0
 78 73  2  0
 79 80  1  0
 80 81  1  0
 81 82  2  0
 83 82  1  0
 83 87  1  0
 84 83  2  0
 85 80  2  0
 85 84  1  0
 86 85  1  0
 88 89  1  0
 89 92  1  0
 89 91  1  0
 90 88  2  0
 93 94  1  0
 93 68  1  0
 95 93  1  0
 97 96  1  0
 98101  1  0
 98 97  1  0
 99 98  1  0
100 98  1  0
M  ISO  4  10 101  11 101  59 100  60 100
M  END
>  <TORSDO>  (4) 
F 26

>  <SCORE>  (4) 
-11.712

>  <name>  (4) 
3

>  <ligand_id>  (4) 
3

>  <original_smiles>  (4) 
[H]c1c([H])c([H])c2c(c1[H])C([H])([H])C([H])([H])C([H])([H])C2([H])N([H])C(=O)C1([H])N(C(=O)C([H])(N([H])C(=O)C([H])(N([H])C([H])([H])[H])C([H])([H])[H])C(C([H])([H])[H])(C([H])([H])[H])C([H])([H])[H])C([H])([H])c2c([H])c(OC([H])([H])C(c3c([H])c(C([H])([H])C([H])([H])[H])nc(C([H])([H])[N+]([H])(C([H])([H])[H])C([H])([H])C([H])(C(=O)N4C([H])([H])C([H])([H])C([H])([H])C([H])(n5nc(-c6c([H])c([H])c(Oc7c([H])c([H])c(F)c([H])c7F)c([H])c6[H])c(C(=O)N([H])[H])c5N([H])[H])C4([H])[H])C([H])([H])C([H])([H])[N+]([H])([H])[H])c3[H])(C([H])([H])[H])C([H])([H])[H])c([H])c([H])c2C1([H])[H]

>  <smiles>  (4) 
[H]c1c([H])c([H])c2c(c1[H])C([H])([H])C([H])([H])C([H])([H])C2([H])N([H])C(=O)C1([H])N(C(=O)C([H])(N([H])C(=O)C([H])(N([H])C([H])([H])[H])C([H])([H])[H])C(C([H])([H])[H])(C([H])([H])[H])C([H])([H])[H])C([H])([H])c2c([H])c(OC([H])([H])C(c3c([H])c(C([H])([H])C([H])([H])[H])nc(C([H])([H])[N+]([H])(C([H])([H])[H])C([H])([H])C([H])(C(=O)N4C([H])([H])C([H])([H])C([H])([H])C([H])(n5nc(-c6c([H])c([H])c(Oc7c([H])c([H])c(F)c([H])c7F)c([H])c6[H])c(C(=O)N([H])[H])c5N([H])[H])C4([H])[H])C([H])([H])C([H])([H])[N+]([H])([H])[H])c3[H])(C([H])([H])[H])C([H])([H])[H])c([H])c([H])c2C1([H])[H]

$$$$
4:0:0
     RDKit          3D

104112  0  0  1  0  0  0  0  0999 V2000
  -26.8090  -20.6740   18.5380 C   0  0  0  0  0  0  0  0  0  0  0  0
  -27.3830  -20.9740   17.4210 N   0  0  0  0  0  4  0  0  0  0  0  0
  -28.1660  -20.4600   17.0460 H   0  0  0  0  0  0  0  0  0  0  0  0
  -27.0020  -21.6900   16.8150 H   0  0  0  0  0  0  0  0  0  0  0  0
  -28.3260  -19.0390   19.3970 C   0  0  0  0  0  2  0  0  0  0  0  0
  -27.2350  -19.6840   19.3510 N   0  0  0  0  0  2  0  0  0  0  0  0
  -28.2200  -17.7760   20.2240 C   0  0  0  0  0  3  0  0  0  0  0  0
  -27.5190  -16.8830   19.3370 N   0  0  0  0  0  0  0  0  0  0  0  0
  -28.0930  -16.7320   18.5160 H   0  0  0  0  0  0  0  0  0  0  0  0
  -26.7340  -17.4290   18.9840 H   0  0  0  0  0  0  0  0  0  0  0  0
  -29.4590  -17.1610   20.9620 C   0  0  0  0  0  3  0  0  0  0  0  0
  -30.1710  -18.1950   21.7630 N   0  0  0  0  0  4  0  0  0  0  0  0
  -30.7440  -17.7820   22.4770 H   0  0  0  0  0  0  0  0  0  0  0  0
  -29.5240  -18.8080   22.2300 H   0  0  0  0  0  0  0  0  0  0  0  0
  -30.7730  -18.7560   21.1830 H   0  0  0  0  0  0  0  0  0  0  0  0
  -30.2500  -16.1680   18.5910 C   0  0  0  0  0  1  0  0  0  0  0  0
  -30.4540  -16.2840   20.1210 C   0  0  0  0  0  3  0  0  0  0  0  0
  -30.9890  -14.9530   20.7430 C   0  0  0  0  0  0  0  0  0  0  0  0
  -30.7410  -12.6590   19.9520 C   0  0  0  0  0  2  0  0  0  0  0  0
  -29.9190  -12.6590   18.6510 C   0  0  0  0  0  2  0  0  0  0  0  0
  -28.4100  -12.5680   18.9590 C   0  0  0  0  0  2  0  0  0  0  0  0
  -27.9310  -13.5330   20.0740 C   0  0  0  0  0  3  0  0  0  0  0  0
  -28.9100  -13.5720   21.2660 C   0  0  0  0  0  2  0  0  0  0  0  0
  -30.2720  -13.7930   20.7600 N   0  0  0  0  0  0  0  0  0  0  0  0
  -32.2130  -14.9360   20.8070 O   0  0  0  0  0  0  0  0  0  0  0  0
  -25.4750  -14.1130   20.6680 C   0  0  0  0  0  0  0  0  0  0  0  0
  -24.3890  -13.3330   20.9200 C   0  0  0  0  0  0  0  0  0  0  0  0
  -24.8610  -11.9900   20.8780 C   0  0  0  0  0  0  0  0  0  0  0  0
  -26.5490  -13.2520   20.4730 N   0  0  0  0  0  0  0  0  0  0  0  0
  -26.1730  -11.9630   20.6730 N   0  0  0  0  0  0  0  0  0  0  0  0
  -24.1250  -10.7320   20.9720 C   0  0  0  0  0  0  0  0  0  0  0  0
  -24.5030   -9.7320   21.8890 C   0  0  0  0  0  3  0  0  0  0  0  0
  -23.7650   -8.5340   21.9840 C   0  0  0  0  0  3  0  0  0  0  0  0
  -22.6330   -8.3350   21.1580 C   0  0  0  0  0  0  0  0  0  0  0  0
  -22.2760   -9.3270   20.2290 C   0  0  0  0  0  3  0  0  0  0  0  0
  -23.0150  -10.5170   20.1320 C   0  0  0  0  0  3  0  0  0  0  0  0
  -21.8780   -7.1880   21.1550 O   0  0  0  0  0  0  0  0  0  0  0  0
  -21.7820   -6.3900   22.2650 C   0  0  0  0  0  0  0  0  0  0  0  0
  -21.3090   -6.8870   23.4990 C   0  0  0  0  0  3  0  0  0  0  0  0
  -21.1570   -6.0170   24.5950 C   0  0  0  0  0  3  0  0  0  0  0  0
  -21.4720   -4.6510   24.4590 C   0  0  0  0  0  0  0  0  0  0  0  0
  -21.9410   -4.1550   23.2300 C   0  0  0  0  0  3  0  0  0  0  0  0
  -22.0920   -5.0220   22.1350 C   0  0  0  0  0  0  0  0  0  0  0  0
  -22.5230   -4.5340   20.9460 F   0  0  0  0  0  0  0  0  0  0  0  0
  -21.3160   -3.8130   25.5100 F   0  0  0  0  0  0  0  0  0  0  0  0
  -22.9770  -13.8060   21.0890 C   0  0  0  0  0  0  0  0  0  0  0  0
  -22.1970  -13.0920   21.8900 N   0  0  0  0  0  0  0  0  0  0  0  0
  -22.5740  -14.8390   20.5550 O   0  0  0  0  0  0  0  0  0  0  0  0
  -22.5500  -12.2570   22.3340 H   0  0  0  0  0  0  0  0  0  0  0  0
  -21.2410  -13.3770   22.0590 H   0  0  0  0  0  0  0  0  0  0  0  0
  -25.5960  -15.4810   20.5780 N   0  0  0  0  0  0  0  0  0  0  0  0
  -24.8100  -16.1100   20.6830 H   0  0  0  0  0  0  0  0  0  0  0  0
  -26.4350  -15.9520   20.2070 H   0  0  0  0  0  0  0  0  0  0  0  0
  -24.3620  -20.4900   18.8470 C   0  0  0  0  0  1  0  0  0  0  0  0
  -25.5790  -21.4220   18.9970 C   0  0  0  0  0  3  0  0  0  0  0  0
  -25.7510  -21.8530   20.4850 C   0  0  0  0  0  2  0  0  0  0  0  0
  -28.0250  -23.0070   20.3880 C   0  0  0  0  0  3  0  0  0  0  0  0
  -26.0630  -24.3050   21.0360 C   0  0  0  0  0  3  0  0  0  0  0  0
  -28.8090  -24.1720   20.3710 C   0  0  0  0  0  3  0  0  0  0  0  0
  -26.8650  -25.4600   21.0820 C   0  0  0  0  0  3  0  0  0  0  0  0
  -26.6380  -23.0770   20.6550 C   0  0  0  0  0  0  0  0  0  0  0  0
  -28.2170  -25.4100   20.6860 C   0  0  0  0  0  0  0  0  0  0  0  0
  -29.0000  -26.6930   20.5030 C   0  0  0  0  0  2  0  0  0  0  0  0
  -28.6090  -27.3390   19.2920 O   0  0  0  0  0  0  0  0  0  0  0  0
  -24.6270  -31.6970   23.2010 C   0  0  0  0  0  0  0  0  0  0  0  0
  -27.4060  -27.9860   19.4020 C   0  0  0  0  0  0  0  0  0  0  0  0
  -23.4320  -30.4810   21.4040 C   0  0  0  0  0  3  0  0  0  0  0  0
  -24.9140  -29.2630   19.7210 C   0  0  0  0  0  0  0  0  0  0  0  0
  -25.9170  -31.0300   21.1800 C   0  0  0  0  0  2  0  0  0  0  0  0
  -26.0530  -29.7730   20.3550 C   0  0  0  0  0  0  0  0  0  0  0  0
  -27.2990  -29.1340   20.2110 C   0  0  0  0  0  3  0  0  0  0  0  0
  -26.2650  -27.4940   18.7370 C   0  0  0  0  0  3  0  0  0  0  0  0
  -25.0110  -28.1120   18.9160 C   0  0  0  0  0  3  0  0  0  0  0  0
  -23.6200  -30.0150   19.9320 C   0  0  0  0  0  2  0  0  0  0  0  0
  -24.6770  -31.0780   21.9880 N   0  0  0  0  0  0  0  0  0  0  0  0
  -23.5580  -31.8200   23.8120 O   0  0  0  0  0  0  0  0  0  0  0  0
  -22.8790  -29.2950   22.2210 C   0  0  0  0  0  0  0  0  0  0  0  0
  -21.5640  -29.0520   22.0950 N   0  0  0  0  0  0  0  0  0  0  0  0
  -23.6220  -28.6030   22.9200 O   0  0  0  0  0  0  0  0  0  0  0  0
  -21.0230  -29.6680   21.5050 H   0  0  0  0  0  0  0  0  0  0  0  0
  -18.2760  -27.6000   22.4630 C   0  0  0  0  0  0  0  0  0  0  0  0
  -20.8200  -27.9700   22.7370 C   0  0  0  0  0  3  0  0  0  0  0  0
  -20.9930  -26.6370   21.9720 C   0  0  0  0  0  2  0  0  0  0  0  0
  -19.8930  -26.4040   20.9310 C   0  0  0  0  0  2  0  0  0  0  0  0
  -18.5200  -26.3630   21.6110 C   0  0  0  0  0  2  0  0  0  0  0  0
  -19.3590  -28.3570   22.9800 C   0  0  0  0  0  0  0  0  0  0  0  0
  -19.0820  -29.5070   23.7490 C   0  0  0  0  0  3  0  0  0  0  0  0
  -17.7560  -29.9040   23.9980 C   0  0  0  0  0  3  0  0  0  0  0  0
  -16.6870  -29.1490   23.4870 C   0  0  0  0  0  3  0  0  0  0  0  0
  -16.9470  -27.9960   22.7260 C   0  0  0  0  0  3  0  0  0  0  0  0
  -25.9050  -32.3030   23.8670 C   0  0  0  0  0  3  0  0  0  0  0  0
  -26.4600  -31.4220   25.0550 C   0  0  1  0  0  0  0  0  0  0  0  0
  -25.3920  -31.0530   26.1110 C   0  0  0  0  0  1  0  0  0  0  0  0
  -27.0680  -30.1050   24.5200 C   0  0  0  0  0  1  0  0  0  0  0  0
  -27.6020  -32.1770   25.7780 C   0  0  0  0  0  1  0  0  0  0  0  0
  -25.5640  -33.6510   24.3340 N   0  0  0  0  0  0  0  0  0  0  0  0
  -25.8800  -34.7790   23.6840 C   0  0  0  0  0  0  0  0  0  0  0  0
  -26.5630  -34.7910   22.6560 O   0  0  0  0  0  0  0  0  0  0  0  0
  -24.9600  -33.7150   25.1400 H   0  0  0  0  0  0  0  0  0  0  0  0
  -24.1170  -36.5610   23.4850 C   0  0  0  0  0  1  0  0  0  0  0  0
  -25.3570  -36.1050   24.2690 C   0  0  0  0  0  3  0  0  0  0  0  0
  -27.4630  -36.9410   25.2130 C   0  0  0  0  0  1  0  0  0  0  0  0
  -26.3690  -37.1840   24.2750 N   0  0  0  0  0  0  0  0  0  0  0  0
  -25.9430  -38.0770   24.5090 H   0  0  0  0  0  0  0  0  0  0  0  0
  1 55  1  0
  1  6  1  0
  2  1  2  0
  3  2  1  0
  4  2  1  0
  6  5  1  0
  7  5  1  0
  7 11  1  0
  8  7  1  0
  9  8  1  0
 10  8  1  0
 11 12  1  0
 12 14  1  0
 12 13  1  0
 15 12  1  0
 17 16  1  0
 17 18  1  0
 17 11  1  0
 18 24  1  0
 18 25  2  0
 19 24  1  0
 20 21  1  0
 20 19  1  0
 22 21  1  0
 22 29  1  0
 22 23  1  0
 24 23  1  0
 26 27  2  0
 27 46  1  0
 28 27  1  0
 28 31  1  0
 29 26  1  0
 29 30  1  0
 30 28  2  0
 31 32  1  0
 32 33  2  0
 34 33  1  0
 35 34  2  0
 36 35  1  0
 36 31  2  0
 37 34  1  0
 37 38  1  0
 38 39  1  0
 39 40  2  0
 41 40  1  0
 41 45  1  0
 42 41  2  0
 43 38  2  0
 43 42  1  0
 44 43  1  0
 46 47  1  0
 47 50  1  0
 47 49  1  0
 48 46  2  0
 51 26  1  0
 51 52  1  0
 53 51  1  0
 55 54  1  0
 55 56  1  0
 56 61  1  0
 57 61  1  0
 58 60  1  0
 59 57  2  0
 59 62  1  0
 61 58  2  0
 62 60  2  0
 63 62  1  0
 64 66  1  0
 64 63  1  0
 65 76  2  0
 66 71  1  0
 67 75  1  0
 67 77  1  0
 68 74  1  0
 68 70  1  0
 69 75  1  0
 70 69  1  0
 71 70  2  0
 72 73  1  0
 72 66  2  0
 73 68  2  0
 74 67  1  0
 75 65  1  0
 77 79  2  0
 78 77  1  0
 80 78  1  0
 81 90  2  0
 81 86  1  0
 82 78  1  0
 82 86  1  0
 83 82  1  0
 84 85  1  0
 84 83  1  0
 85 81  1  0
 86 87  2  0
 87 88  1  0
 89 88  2  0
 90 89  1  0
 91 65  1  0
 91 96  1  0
 91 92  1  0
 92 95  1  1
 92 93  1  0
 94 92  1  0
 96 99  1  0
 97101  1  0
 97 96  1  0
 98 97  2  0
101100  1  0
101103  1  0
103104  1  0
103102  1  0
M  ISO  4  17 100  18 100  63 101  64 101
M  END
>  <TORSDO>  (5) 
F 26

>  <SCORE>  (5) 
-8.992

>  <name>  (5) 
4

>  <ligand_id>  (5) 
4

>  <original_smiles>  (5) 
[H]C(=NC(=[N+]([H])[H])C([H])(C([H])([H])[H])C([H])([H])c1c([H])c([H])c(C([H])([H])Oc2c([H])c([H])c3c(c2[H])C([H])([H])N(C(=O)C([H])(N([H])C(=O)C([H])(N([H])C([H])([H])[H])C([H])([H])[H])C(C([H])([H])[H])(C([H])([H])[H])C([H])([H])[H])C([H])(C(=O)N([H])C2([H])c4c([H])c([H])c([H])c([H])c4C([H])([H])C([H])([H])C2([H])[H])C3([H])[H])c([H])c1[H])C([H])(N([H])[H])C([H])(C([H])(C(=O)N1C([H])([H])C([H])([H])C([H])([H])C([H])(n2nc(-c3c([H])c([H])c(Oc4c([H])c([H])c(F)c([H])c4F)c([H])c3[H])c(C(=O)N([H])[H])c2N([H])[H])C1([H])[H])C([H])([H])[H])[N+]([H])([H])[H]

>  <smiles>  (5) 
[H]C(=NC(=[N+]([H])[H])C([H])(C([H])([H])[H])C([H])([H])c1c([H])c([H])c(C([H])([H])Oc2c([H])c([H])c3c(c2[H])C([H])([H])N(C(=O)C([H])(N([H])C(=O)C([H])(N([H])C([H])([H])[H])C([H])([H])[H])C(C([H])([H])[H])(C([H])([H])[H])C([H])([H])[H])C([H])(C(=O)N([H])C2([H])c4c([H])c([H])c([H])c([H])c4C([H])([H])C([H])([H])C2([H])[H])C3([H])[H])c([H])c1[H])C([H])(N([H])[H])C([H])(C([H])(C(=O)N1C([H])([H])C([H])([H])C([H])([H])C([H])(n2nc(-c3c([H])c([H])c(Oc4c([H])c([H])c(F)c([H])c4F)c([H])c3[H])c(C(=O)N([H])[H])c2N([H])[H])C1([H])[H])C([H])([H])[H])[N+]([H])([H])[H]

$$$$
5:0:0
     RDKit          3D

104112  0  0  1  0  0  0  0  0999 V2000
  -28.5870  -21.0610   19.6560 C   0  0  0  0  0  0  0  0  0  0  0  0
  -27.7070  -21.3070   20.4840 O   0  0  0  0  0  0  0  0  0  0  0  0
  -29.0130  -22.1430   18.6250 C   0  0  0  0  0  2  0  0  0  0  0  0
  -28.8560  -23.6270   19.0610 C   0  0  0  0  0  0  0  0  0  0  0  0
  -28.6630  -23.9790   20.2630 N   0  0  0  0  0  0  0  0  0  0  0  0
  -28.6170  -23.1720   20.8740 H   0  0  0  0  0  0  0  0  0  0  0  0
  -28.9060  -24.6790   17.9310 C   0  0  0  0  0  3  0  0  0  0  0  0
  -27.7370  -24.5770   17.0310 N   0  0  0  0  0  4  0  0  0  0  0  0
  -26.8820  -24.4880   17.5520 H   0  0  0  0  0  0  0  0  0  0  0  0
  -27.8170  -23.7920   16.4110 H   0  0  0  0  0  0  0  0  0  0  0  0
  -27.6730  -25.3930   16.4480 H   0  0  0  0  0  0  0  0  0  0  0  0
  -29.2330  -26.1750   18.3210 C   0  0  0  0  0  2  0  0  0  0  0  0
  -28.7730  -26.7420   19.5670 O   0  0  0  0  0  0  0  0  0  0  0  0
  -24.7020  -31.5060   22.9720 C   0  0  0  0  0  0  0  0  0  0  0  0
  -27.5550  -27.3850   19.6170 C   0  0  0  0  0  0  0  0  0  0  0  0
  -23.5440  -30.0950   21.2950 C   0  0  0  0  0  3  0  0  0  0  0  0
  -25.0640  -28.7250   19.7790 C   0  0  0  0  0  0  0  0  0  0  0  0
  -26.0450  -30.6260   21.0770 C   0  0  0  0  0  2  0  0  0  0  0  0
  -26.2000  -29.2980   20.3610 C   0  0  0  0  0  0  0  0  0  0  0  0
  -27.4460  -28.6250   20.2840 C   0  0  0  0  0  3  0  0  0  0  0  0
  -26.3900  -26.8170   19.0670 C   0  0  0  0  0  3  0  0  0  0  0  0
  -25.1540  -27.4770   19.1400 C   0  0  0  0  0  3  0  0  0  0  0  0
  -23.7700  -29.4930   19.8830 C   0  0  0  0  0  2  0  0  0  0  0  0
  -24.7790  -30.7550   21.8360 N   0  0  0  0  0  0  0  0  0  0  0  0
  -23.6200  -31.6850   23.5450 O   0  0  0  0  0  0  0  0  0  0  0  0
  -22.9740  -29.0000   22.2220 C   0  0  0  0  0  0  0  0  0  0  0  0
  -21.6870  -28.6680   22.0440 N   0  0  0  0  0  0  0  0  0  0  0  0
  -23.6960  -28.4480   23.0590 O   0  0  0  0  0  0  0  0  0  0  0  0
  -21.1690  -29.1570   21.3300 H   0  0  0  0  0  0  0  0  0  0  0  0
  -18.4800  -27.0150   22.3440 C   0  0  0  0  0  0  0  0  0  0  0  0
  -20.9570  -27.6220   22.7660 C   0  0  0  0  0  3  0  0  0  0  0  0
  -21.3020  -26.2170   22.2140 C   0  0  0  0  0  2  0  0  0  0  0  0
  -20.3180  -25.7370   21.1430 C   0  0  0  0  0  2  0  0  0  0  0  0
  -18.8850  -25.6960   21.6980 C   0  0  0  0  0  2  0  0  0  0  0  0
  -19.4590  -27.9260   22.8300 C   0  0  0  0  0  0  0  0  0  0  0  0
  -19.0380  -29.1490   23.3920 C   0  0  0  0  0  3  0  0  0  0  0  0
  -17.6730  -29.4810   23.4570 C   0  0  0  0  0  3  0  0  0  0  0  0
  -16.7070  -28.5650   23.0040 C   0  0  0  0  0  3  0  0  0  0  0  0
  -17.1090  -27.3320   22.4560 C   0  0  0  0  0  3  0  0  0  0  0  0
  -25.9600  -32.1900   23.5900 C   0  0  0  0  0  3  0  0  0  0  0  0
  -26.5790  -31.3780   24.7900 C   0  0  1  0  0  0  0  0  0  0  0  0
  -25.5380  -30.9390   25.8500 C   0  0  0  0  0  1  0  0  0  0  0  0
  -27.2960  -30.1030   24.2860 C   0  0  0  0  0  1  0  0  0  0  0  0
  -27.6580  -32.2350   25.4930 C   0  0  0  0  0  1  0  0  0  0  0  0
  -25.5590  -33.5310   24.0280 N   0  0  0  0  0  0  0  0  0  0  0  0
  -25.7750  -34.6560   23.3400 C   0  0  0  0  0  0  0  0  0  0  0  0
  -26.4110  -34.6750   22.2800 O   0  0  0  0  0  0  0  0  0  0  0  0
  -24.9870  -33.5710   24.8590 H   0  0  0  0  0  0  0  0  0  0  0  0
  -23.9190  -36.3430   23.1330 C   0  0  0  0  0  1  0  0  0  0  0  0
  -25.1960  -35.9690   23.9030 C   0  0  0  0  0  3  0  0  0  0  0  0
  -27.2750  -36.9510   24.7730 C   0  0  0  0  0  1  0  0  0  0  0  0
  -26.1480  -37.1030   23.8600 N   0  0  0  0  0  0  0  0  0  0  0  0
  -25.6790  -37.9770   24.0880 H   0  0  0  0  0  0  0  0  0  0  0  0
  -29.1960  -19.6230   19.6120 C   0  0  0  0  0  2  0  0  0  0  0  0
  -28.9900  -18.7790   20.9300 C   0  0  0  0  0  3  0  0  0  0  0  0
  -30.8760  -14.3220   19.3090 C   0  0  0  0  0  0  0  0  0  0  0  0
  -30.3530  -12.1190   18.3410 C   0  0  0  0  0  2  0  0  0  0  0  0
  -29.2470  -12.2580   17.2780 C   0  0  0  0  0  2  0  0  0  0  0  0
  -27.8600  -12.0920   17.9290 C   0  0  0  0  0  2  0  0  0  0  0  0
  -27.6950  -12.9870   19.1840 C   0  0  0  0  0  3  0  0  0  0  0  0
  -28.9230  -12.8990   20.1270 C   0  0  0  0  0  2  0  0  0  0  0  0
  -30.1450  -13.1690   19.3500 N   0  0  0  0  0  0  0  0  0  0  0  0
  -31.8280  -14.4570   18.5340 O   0  0  0  0  0  0  0  0  0  0  0  0
  -29.6090  -16.3580   19.8770 C   0  0  0  0  0  2  0  0  0  0  0  0
  -31.7360  -16.0540   20.7750 C   0  0  0  0  0  2  0  0  0  0  0  0
  -29.7160  -17.3820   21.0240 C   0  0  0  0  0  3  0  0  0  0  0  0
  -31.1840  -17.2860   21.5060 C   0  0  0  0  0  3  0  0  0  0  0  0
  -30.6010  -15.3140   20.1910 N   0  0  0  0  0  0  0  0  0  0  0  0
  -25.4850  -13.5800   20.3700 C   0  0  0  0  0  0  0  0  0  0  0  0
  -24.4800  -12.8050   20.8880 C   0  0  0  0  0  0  0  0  0  0  0  0
  -24.8880  -11.4510   20.6870 C   0  0  0  0  0  0  0  0  0  0  0  0
  -26.4430  -12.7000   19.8890 N   0  0  0  0  0  0  0  0  0  0  0  0
  -26.0980  -11.4100   20.1400 N   0  0  0  0  0  0  0  0  0  0  0  0
  -24.1780  -10.1880   20.9300 C   0  0  0  0  0  0  0  0  0  0  0  0
  -24.6280   -9.2590   21.8940 C   0  0  0  0  0  3  0  0  0  0  0  0
  -23.9120   -8.0660   22.1290 C   0  0  0  0  0  3  0  0  0  0  0  0
  -22.7350   -7.7890   21.3940 C   0  0  0  0  0  0  0  0  0  0  0  0
  -22.3070   -8.7050   20.4200 C   0  0  0  0  0  3  0  0  0  0  0  0
  -23.0210   -9.8910   20.1840 C   0  0  0  0  0  3  0  0  0  0  0  0
  -21.9890   -6.6420   21.5320 O   0  0  0  0  0  0  0  0  0  0  0  0
  -21.8150   -6.0390   22.7510 C   0  0  0  0  0  0  0  0  0  0  0  0
  -21.2040   -6.7080   23.8350 C   0  0  0  0  0  3  0  0  0  0  0  0
  -20.9830   -6.0250   25.0480 C   0  0  0  0  0  3  0  0  0  0  0  0
  -21.3610   -4.6740   25.1750 C   0  0  0  0  0  0  0  0  0  0  0  0
  -21.9690   -4.0070   24.0960 C   0  0  0  0  0  3  0  0  0  0  0  0
  -22.1920   -4.6870   22.8860 C   0  0  0  0  0  0  0  0  0  0  0  0
  -22.7550   -4.0330   21.8420 F   0  0  0  0  0  0  0  0  0  0  0  0
  -21.1430   -4.0150   26.3380 F   0  0  0  0  0  0  0  0  0  0  0  0
  -23.1690  -13.2860   21.4490 C   0  0  0  0  0  0  0  0  0  0  0  0
  -22.6050  -12.5600   22.4110 N   0  0  0  0  0  0  0  0  0  0  0  0
  -22.6600  -14.3360   21.0630 O   0  0  0  0  0  0  0  0  0  0  0  0
  -23.0360  -11.7080   22.7370 H   0  0  0  0  0  0  0  0  0  0  0  0
  -21.7300  -12.8570   22.8210 H   0  0  0  0  0  0  0  0  0  0  0  0
  -25.6640  -14.9550   20.2530 N   0  0  0  0  0  0  0  0  0  0  0  0
  -24.9380  -15.6180   20.5090 H   0  0  0  0  0  0  0  0  0  0  0  0
  -26.4520  -15.3830   19.7830 H   0  0  0  0  0  0  0  0  0  0  0  0
  -32.0490  -18.4810   21.3850 N   0  0  0  0  0  4  0  0  0  0  0  0
  -31.7310  -19.2310   21.9690 H   0  0  0  0  0  0  0  0  0  0  0  0
  -32.1320  -18.8130   20.4420 H   0  0  0  0  0  0  0  0  0  0  0  0
  -32.9830  -18.2450   21.6950 H   0  0  0  0  0  0  0  0  0  0  0  0
  -27.5610  -18.6110   21.2950 N   0  0  0  0  0  4  0  0  0  0  0  0
  -27.0730  -17.9840   20.6770 H   0  0  0  0  0  0  0  0  0  0  0  0
  -27.1050  -19.5130   21.2580 H   0  0  0  0  0  0  0  0  0  0  0  0
  -27.4750  -18.2610   22.2380 H   0  0  0  0  0  0  0  0  0  0  0  0
  1  2  2  0
  3  4  1  0
  3  1  1  0
  4  5  2  0
  5  6  1  0
  7 12  1  0
  7  4  1  0
  8  9  1  0
  8  7  1  0
 10  8  1  0
 11  8  1  0
 12 13  1  0
 13 15  1  0
 14 25  2  0
 15 20  1  0
 16 24  1  0
 16 26  1  0
 17 23  1  0
 17 19  1  0
 18 24  1  0
 19 18  1  0
 20 19  2  0
 21 22  1  0
 21 15  2  0
 22 17  2  0
 23 16  1  0
 24 14  1  0
 26 28  2  0
 27 26  1  0
 29 27  1  0
 30 39  2  0
 30 35  1  0
 31 27  1  0
 31 35  1  0
 32 31  1  0
 33 34  1  0
 33 32  1  0
 34 30  1  0
 35 36  2  0
 36 37  1  0
 38 37  2  0
 39 38  1  0
 40 14  1  0
 40 45  1  0
 40 41  1  0
 41 44  1  1
 41 42  1  0
 43 41  1  0
 45 48  1  0
 46 50  1  0
 46 45  1  0
 47 46  2  0
 50 49  1  0
 52 50  1  0
 52 53  1  0
 52 51  1  0
 54  1  1  0
 55 54  1  0
 55101  1  0
 56 62  1  0
 56 68  1  0
 57 62  1  0
 58 59  1  0
 58 57  1  0
 60 59  1  0
 60 72  1  0
 60 61  1  0
 62 61  1  0
 63 56  2  0
 64 68  1  0
 64 66  1  0
 65 67  1  0
 66 55  1  0
 66 67  1  0
 67 97  1  0
 68 65  1  0
 69 70  2  0
 70 89  1  0
 71 70  1  0
 71 74  1  0
 72 73  1  0
 72 69  1  0
 73 71  2  0
 74 75  1  0
 75 76  2  0
 77 80  1  0
 77 76  1  0
 78 77  2  0
 79 78  1  0
 79 74  2  0
 80 81  1  0
 81 86  2  0
 81 82  1  0
 82 83  2  0
 83 84  1  0
 84 88  1  0
 85 84  2  0
 86 85  1  0
 87 86  1  0
 89 90  1  0
 90 92  1  0
 90 93  1  0
 91 89  2  0
 94 69  1  0
 94 95  1  0
 96 94  1  0
 97100  1  0
 97 98  1  0
 99 97  1  0
101104  1  0
102101  1  0
103101  1  0
M  ISO  4  12 101  13 101  56 100  68 100
M  END
>  <TORSDO>  (6) 
F 25

>  <SCORE>  (6) 
-9.449

>  <name>  (6) 
5

>  <ligand_id>  (6) 
5

>  <original_smiles>  (6) 
[H]N=C(C([H])([H])C(=O)C([H])([H])C([H])(C1([H])C([H])([H])N(C(=O)N2C([H])([H])C([H])([H])C([H])([H])C([H])(n3nc(-c4c([H])c([H])c(Oc5c([H])c([H])c(F)c([H])c5F)c([H])c4[H])c(C(=O)N([H])[H])c3N([H])[H])C2([H])[H])C([H])([H])C1([H])[N+]([H])([H])[H])[N+]([H])([H])[H])C([H])(C([H])([H])Oc1c([H])c([H])c2c(c1[H])C([H])([H])N(C(=O)C([H])(N([H])C(=O)C([H])(N([H])C([H])([H])[H])C([H])([H])[H])C(C([H])([H])[H])(C([H])([H])[H])C([H])([H])[H])C([H])(C(=O)N([H])C1([H])c3c([H])c([H])c([H])c([H])c3C([H])([H])C([H])([H])C1([H])[H])C2([H])[H])[N+]([H])([H])[H]

>  <smiles>  (6) 
[H]N=C(C([H])([H])C(=O)C([H])([H])C([H])(C1([H])C([H])([H])N(C(=O)N2C([H])([H])C([H])([H])C([H])([H])C([H])(n3nc(-c4c([H])c([H])c(Oc5c([H])c([H])c(F)c([H])c5F)c([H])c4[H])c(C(=O)N([H])[H])c3N([H])[H])C2([H])[H])C([H])([H])C1([H])[N+]([H])([H])[H])[N+]([H])([H])[H])C([H])(C([H])([H])Oc1c([H])c([H])c2c(c1[H])C([H])([H])N(C(=O)C([H])(N([H])C(=O)C([H])(N([H])C([H])([H])[H])C([H])([H])[H])C(C([H])([H])[H])(C([H])([H])[H])C([H])([H])[H])C([H])(C(=O)N([H])C1([H])c3c([H])c([H])c([H])c([H])c3C([H])([H])C([H])([H])C1([H])[H])C2([H])[H])[N+]([H])([H])[H]

$$$$
6:0:0
     RDKit          3D

 97106  0  0  1  0  0  0  0  0999 V2000
  -25.7660  -22.9450   20.1350 C   0  0  0  0  0  2  0  0  0  0  0  0
  -26.3970  -23.7880   22.2670 C   0  0  0  0  0  2  0  0  0  0  0  0
  -24.7280  -24.0070   20.5580 C   0  0  0  0  0  3  0  0  0  0  0  0
  -24.9210  -24.1350   22.0800 C   0  0  0  0  0  3  0  0  0  0  0  0
  -26.6380  -22.6960   21.3080 N   0  0  2  0  0  4  0  0  0  0  0  0
  -26.2690  -21.8630   21.7430 H   0  0  0  0  0  0  0  0  0  0  0  0
  -25.0130  -25.9440   23.8620 C   0  0  0  0  0  3  0  0  0  0  0  0
  -24.2240  -27.0390   24.0510 C   0  0  0  0  0  0  0  0  0  0  0  0
  -23.3630  -27.1640   22.9640 N   0  0  0  0  0  0  0  0  0  0  0  0
  -23.5790  -26.1890   22.1410 N   0  0  0  0  0  0  0  0  0  0  0  0
  -24.5710  -25.4240   22.6640 N   0  0  0  0  0  0  0  0  0  0  0  0
  -24.0700  -27.8610   25.2870 C   0  0  0  0  0  2  0  0  0  0  0  0
  -23.5280  -26.9530   26.4000 C   0  0  0  0  0  2  0  0  0  0  0  0
  -22.5980  -27.0290   28.6010 C   0  0  0  0  0  0  0  0  0  0  0  0
  -20.4020  -26.8000   29.6950 C   0  0  0  0  0  2  0  0  0  0  0  0
  -19.6400  -25.5450   29.2330 C   0  0  0  0  0  2  0  0  0  0  0  0
  -18.8360  -25.8310   27.9510 C   0  0  0  0  0  2  0  0  0  0  0  0
  -19.6880  -26.5210   26.8540 C   0  0  0  0  0  3  0  0  0  0  0  0
  -20.4610  -27.7260   27.4410 C   0  0  0  0  0  2  0  0  0  0  0  0
  -21.2590  -27.2580   28.5920 N   0  0  0  0  0  0  0  0  0  0  0  0
  -23.1830  -26.4170   29.4970 O   0  0  0  0  0  0  0  0  0  0  0  0
  -23.2990  -27.6550   27.6560 N   0  0  0  0  0  0  0  0  0  0  0  0
  -24.1700  -28.0130   28.0220 H   0  0  0  0  0  0  0  0  0  0  0  0
  -19.2530  -27.4190   24.4780 C   0  0  0  0  0  0  0  0  0  0  0  0
  -18.1030  -27.5340   23.7390 C   0  0  0  0  0  0  0  0  0  0  0  0
  -17.0490  -27.0580   24.5770 C   0  0  0  0  0  0  0  0  0  0  0  0
  -18.8660  -26.9040   25.7060 N   0  0  0  0  0  0  0  0  0  0  0  0
  -17.5200  -26.7330   25.7740 N   0  0  0  0  0  0  0  0  0  0  0  0
  -15.6240  -26.8410   24.2900 C   0  0  0  0  0  0  0  0  0  0  0  0
  -14.6140  -27.4640   25.0540 C   0  0  0  0  0  3  0  0  0  0  0  0
  -13.2520  -27.2530   24.7490 C   0  0  0  0  0  3  0  0  0  0  0  0
  -12.8880  -26.4160   23.6680 C   0  0  0  0  0  0  0  0  0  0  0  0
  -13.8980  -25.7810   22.9240 C   0  0  0  0  0  3  0  0  0  0  0  0
  -15.2530  -25.9870   23.2320 C   0  0  0  0  0  3  0  0  0  0  0  0
  -11.5900  -26.1320   23.3150 O   0  0  0  0  0  0  0  0  0  0  0  0
  -10.5720  -27.0240   23.5410 C   0  0  0  0  0  0  0  0  0  0  0  0
  -10.5780  -28.3190   22.9810 C   0  0  0  0  0  3  0  0  0  0  0  0
   -9.4800  -29.1790   23.1830 C   0  0  0  0  0  3  0  0  0  0  0  0
   -8.3710  -28.7420   23.9340 C   0  0  0  0  0  0  0  0  0  0  0  0
   -8.3620  -27.4500   24.4890 C   0  0  0  0  0  3  0  0  0  0  0  0
   -9.4580  -26.5930   24.2910 C   0  0  0  0  0  0  0  0  0  0  0  0
   -9.4350  -25.3410   24.8100 F   0  0  0  0  0  0  0  0  0  0  0  0
   -7.3140  -29.5650   24.1230 F   0  0  0  0  0  0  0  0  0  0  0  0
  -18.0000  -27.9700   22.3070 C   0  0  0  0  0  0  0  0  0  0  0  0
  -16.9100  -28.6400   21.9450 N   0  0  0  0  0  0  0  0  0  0  0  0
  -18.9110  -27.7620   21.5080 O   0  0  0  0  0  0  0  0  0  0  0  0
  -16.1710  -28.8300   22.6040 H   0  0  0  0  0  0  0  0  0  0  0  0
  -16.8170  -28.9670   20.9940 H   0  0  0  0  0  0  0  0  0  0  0  0
  -20.5870  -27.6910   24.2010 N   0  0  0  0  0  0  0  0  0  0  0  0
  -20.8860  -28.0780   23.3130 H   0  0  0  0  0  0  0  0  0  0  0  0
  -21.3470  -27.5750   24.8580 H   0  0  0  0  0  0  0  0  0  0  0  0
  -23.0800  -23.7500   18.6110 C   0  0  0  0  0  1  0  0  0  0  0  0
  -23.2820  -23.6720   20.1290 C   0  0  0  0  0  2  0  0  0  0  0  0
  -28.0570  -22.4280   20.9750 C   0  0  0  0  0  2  0  0  0  0  0  0
  -28.9510  -22.2650   22.2240 C   0  0  0  0  0  2  0  0  0  0  0  0
  -30.3480  -21.6920   21.9210 C   0  0  0  0  0  2  0  0  0  0  0  0
  -30.2840  -20.2670   21.9000 O   0  0  0  0  0  0  0  0  0  0  0  0
  -36.3920  -19.3100   18.3830 C   0  0  0  0  0  0  0  0  0  0  0  0
  -30.9360  -19.6840   20.8480 C   0  0  0  0  0  0  0  0  0  0  0  0
  -34.3400  -18.5390   17.2300 C   0  0  0  0  0  3  0  0  0  0  0  0
  -32.2280  -18.4740   18.6580 C   0  0  0  0  0  0  0  0  0  0  0  0
  -34.4600  -18.6090   19.7810 C   0  0  0  0  0  2  0  0  0  0  0  0
  -32.9690  -18.8640   19.7810 C   0  0  0  0  0  0  0  0  0  0  0  0
  -32.3310  -19.4770   20.8780 C   0  0  0  0  0  3  0  0  0  0  0  0
  -30.1930  -19.2600   19.7290 C   0  0  0  0  0  3  0  0  0  0  0  0
  -30.8370  -18.6760   18.6220 C   0  0  0  0  0  3  0  0  0  0  0  0
  -32.9920  -17.8280   17.5240 C   0  0  0  0  0  2  0  0  0  0  0  0
  -35.1090  -18.8610   18.4760 N   0  0  0  0  0  0  0  0  0  0  0  0
  -36.9530  -19.4180   17.2840 O   0  0  0  0  0  0  0  0  0  0  0  0
  -34.0600  -19.7750   16.3460 C   0  0  0  0  0  0  0  0  0  0  0  0
  -33.9930  -19.5580   15.0240 N   0  0  0  0  0  0  0  0  0  0  0  0
  -33.8820  -20.8870   16.8520 O   0  0  0  0  0  0  0  0  0  0  0  0
  -34.1530  -18.6190   14.6880 H   0  0  0  0  0  0  0  0  0  0  0  0
  -33.7680  -20.1070   11.4600 C   0  0  0  0  0  0  0  0  0  0  0  0
  -33.7020  -20.5650   14.0040 C   0  0  0  0  0  3  0  0  0  0  0  0
  -32.1780  -20.7530   13.8280 C   0  0  0  0  0  2  0  0  0  0  0  0
  -31.5840  -19.8760   12.7200 C   0  0  0  0  0  2  0  0  0  0  0  0
  -32.2530  -20.1830   11.3750 C   0  0  0  0  0  2  0  0  0  0  0  0
  -34.4470  -20.2710   12.6970 C   0  0  0  0  0  0  0  0  0  0  0  0
  -35.8540  -20.1560   12.7270 C   0  0  0  0  0  3  0  0  0  0  0  0
  -36.5780  -19.8840   11.5510 C   0  0  0  0  0  3  0  0  0  0  0  0
  -35.9030  -19.7390   10.3260 C   0  0  0  0  0  3  0  0  0  0  0  0
  -34.5020  -19.8570   10.2830 C   0  0  0  0  0  3  0  0  0  0  0  0
  -37.2200  -19.6890   19.6500 C   0  0  0  0  0  3  0  0  0  0  0  0
  -38.5670  -19.1350   19.4770 N   0  0  0  0  0  0  0  0  0  0  0  0
  -38.9930  -17.9890   20.0260 C   0  0  0  0  0  0  0  0  0  0  0  0
  -38.3030  -17.3190   20.8000 O   0  0  0  0  0  0  0  0  0  0  0  0
  -39.1680  -19.6030   18.8150 H   0  0  0  0  0  0  0  0  0  0  0  0
  -40.3190  -16.4160   18.5800 C   0  0  0  0  0  1  0  0  0  0  0  0
  -40.4080  -17.5100   19.6580 C   0  0  0  0  0  3  0  0  0  0  0  0
  -41.5450  -18.0540   21.7650 C   0  0  0  0  0  1  0  0  0  0  0  0
  -41.1790  -17.0060   20.8150 N   0  0  0  0  0  0  0  0  0  0  0  0
  -42.0320  -16.5460   20.5080 H   0  0  0  0  0  0  0  0  0  0  0  0
  -37.2860  -21.2460   19.9100 C   0  0  1  0  0  0  0  0  0  0  0  0
  -37.7410  -22.0620   18.6780 C   0  0  0  0  0  1  0  0  0  0  0  0
  -35.9050  -21.7860   20.3540 C   0  0  0  0  0  1  0  0  0  0  0  0
  -38.2700  -21.5430   21.0660 C   0  0  0  0  0  1  0  0  0  0  0  0
  1  3  1  0
  1  5  1  0
  3 53  1  0
  3  4  1  0
  4  2  1  0
  4 11  1  0
  5  6  1  1
  5  2  1  0
  7  8  2  0
  8 12  1  0
  9  8  1  0
 10 11  1  0
 10  9  2  0
 11  7  1  0
 12 13  1  0
 13 22  1  0
 14 21  2  0
 16 15  1  0
 17 16  1  0
 18 27  1  0
 18 19  1  0
 18 17  1  0
 19 20  1  0
 20 14  1  0
 20 15  1  0
 22 23  1  0
 22 14  1  0
 24 27  1  0
 25 24  2  0
 25 26  1  0
 26 28  2  0
 27 28  1  0
 29 26  1  0
 29 30  1  0
 31 30  2  0
 32 31  1  0
 33 34  1  0
 33 32  2  0
 34 29  2  0
 35 36  1  0
 35 32  1  0
 36 41  1  0
 37 38  1  0
 37 36  2  0
 38 39  2  0
 39 43  1  0
 39 40  1  0
 41 40  2  0
 41 42  1  0
 44 25  1  0
 45 44  1  0
 45 47  1  0
 46 44  2  0
 48 45  1  0
 49 24  1  0
 49 51  1  0
 50 49  1  0
 52 53  1  0
 54  5  1  0
 54 55  1  0
 56 55  1  0
 57 56  1  0
 58 68  1  0
 59 64  1  0
 59 57  1  0
 60 70  1  0
 60 67  1  0
 60 68  1  0
 61 63  1  0
 63 62  1  0
 63 64  2  0
 65 59  2  0
 66 61  2  0
 66 65  1  0
 67 61  1  0
 68 62  1  0
 69 58  2  0
 70 72  2  0
 71 70  1  0
 73 71  1  0
 74 79  1  0
 75 71  1  0
 76 75  1  0
 77 76  1  0
 78 74  1  0
 78 77  1  0
 79 80  2  0
 79 75  1  0
 81 80  1  0
 82 81  2  0
 83 82  1  0
 83 74  2  0
 84 58  1  0
 84 94  1  0
 85 84  1  0
 85 86  1  0
 86 87  2  0
 88 85  1  0
 90 89  1  0
 90 86  1  0
 90 92  1  0
 92 91  1  0
 93 92  1  0
 94 96  1  1
 94 97  1  0
 95 94  1  0
M  ISO  4  14 100  22 100  56 101  57 101
M  END
>  <TORSDO>  (7) 
F 23

>  <SCORE>  (7) 
30.434

>  <name>  (7) 
6

>  <ligand_id>  (7) 
6

>  <original_smiles>  (7) 
[H]c1c([H])c([H])c2c(c1[H])C([H])([H])C([H])([H])C([H])([H])C2([H])N([H])C(=O)C1([H])N(C(=O)C([H])(N([H])C(=O)C([H])(N([H])C([H])([H])[H])C([H])([H])[H])C(C([H])([H])[H])(C([H])([H])[H])C([H])([H])[H])C([H])([H])c2c([H])c(OC([H])([H])C([H])([H])C([H])([H])[N+]3([H])C([H])([H])C([H])(n4nnc(C([H])([H])C([H])([H])N([H])C(=O)N5C([H])([H])C([H])([H])C([H])([H])C([H])(n6nc(-c7c([H])c([H])c(Oc8c([H])c([H])c(F)c([H])c8F)c([H])c7[H])c(C(=O)N([H])[H])c6N([H])[H])C5([H])[H])c4[H])C([H])(C([H])([H])C([H])([H])[H])C3([H])[H])c([H])c([H])c2C1([H])[H]

>  <smiles>  (7) 
[H]c1c([H])c([H])c2c(c1[H])C([H])([H])C([H])([H])C([H])([H])C2([H])N([H])C(=O)C1([H])N(C(=O)C([H])(N([H])C(=O)C([H])(N([H])C([H])([H])[H])C([H])([H])[H])C(C([H])([H])[H])(C([H])([H])[H])C([H])([H])[H])C([H])([H])c2c([H])c(OC([H])([H])C([H])([H])C([H])([H])[N+]3([H])C([H])([H])C([H])(n4nnc(C([H])([H])C([H])([H])N([H])C(=O)N5C([H])([H])C([H])([H])C([H])([H])C([H])(n6nc(-c7c([H])c([H])c(Oc8c([H])c([H])c(F)c([H])c8F)c([H])c7[H])c(C(=O)N([H])[H])c6N([H])[H])C5([H])[H])c4[H])C([H])(C([H])([H])C([H])([H])[H])C3([H])[H])c([H])c([H])c2C1([H])[H]

$$$$
7:0:0
     RDKit          3D

 92100  0  0  1  0  0  0  0  0999 V2000
  -29.8680  -19.6050   20.3120 C   0  0  0  0  0  0  0  0  0  0  0  0
  -29.8410  -20.3610   21.5380 C   0  0  0  0  0  0  0  0  0  0  0  0
  -30.1290  -18.2980   19.9850 C   0  0  0  0  0  0  0  0  0  0  0  0
  -29.5320  -20.8730   19.5480 C   0  0  0  0  0  2  0  0  0  0  0  0
  -29.4970  -21.5470   20.8760 N   0  0  0  0  0  0  0  0  0  0  0  0
  -30.0180  -20.0200   22.6900 O   0  0  0  0  0  0  0  0  0  0  0  0
  -30.0970  -18.0090   18.5260 C   0  0  0  0  0  3  0  0  0  0  0  0
  -30.4590  -16.9300   17.9770 N   0  0  0  0  0  0  0  0  0  0  0  0
  -30.8160  -16.2680   18.6620 H   0  0  0  0  0  0  0  0  0  0  0  0
  -30.5730  -17.1580   20.9640 C   0  0  0  0  0  2  0  0  0  0  0  0
  -30.8040  -14.6660   20.3720 C   0  0  0  0  0  0  0  0  0  0  0  0
  -30.5310  -12.4590   19.2840 C   0  0  0  0  0  2  0  0  0  0  0  0
  -29.5920  -12.6000   18.0690 C   0  0  0  0  0  2  0  0  0  0  0  0
  -28.1210  -12.4370   18.5040 C   0  0  0  0  0  2  0  0  0  0  0  0
  -27.7610  -13.3170   19.7320 C   0  0  0  0  0  3  0  0  0  0  0  0
  -28.8180  -13.1750   20.8500 C   0  0  0  0  0  2  0  0  0  0  0  0
  -30.1330  -13.4810   20.2690 N   0  0  0  0  0  0  0  0  0  0  0  0
  -31.9570  -14.8060   19.9620 O   0  0  0  0  0  0  0  0  0  0  0  0
  -30.0840  -15.7520   20.7610 N   0  0  0  0  0  0  0  0  0  0  0  0
  -29.1260  -15.5710   21.0210 H   0  0  0  0  0  0  0  0  0  0  0  0
  -25.3670  -13.9130   20.4560 C   0  0  0  0  0  0  0  0  0  0  0  0
  -24.3010  -13.1390   20.8280 C   0  0  0  0  0  0  0  0  0  0  0  0
  -24.7650  -11.7880   20.8000 C   0  0  0  0  0  0  0  0  0  0  0  0
  -26.4120  -13.0340   20.2180 N   0  0  0  0  0  0  0  0  0  0  0  0
  -26.0550  -11.7510   20.4860 N   0  0  0  0  0  0  0  0  0  0  0  0
  -24.0420  -10.5250   20.9950 C   0  0  0  0  0  0  0  0  0  0  0  0
  -24.4710   -9.5640   21.9380 C   0  0  0  0  0  3  0  0  0  0  0  0
  -23.7490   -8.3660   22.1200 C   0  0  0  0  0  3  0  0  0  0  0  0
  -22.5820   -8.1180   21.3590 C   0  0  0  0  0  0  0  0  0  0  0  0
  -22.1700   -9.0660   20.4060 C   0  0  0  0  0  3  0  0  0  0  0  0
  -22.8930  -10.2560   20.2220 C   0  0  0  0  0  3  0  0  0  0  0  0
  -21.8320   -6.9700   21.4470 O   0  0  0  0  0  0  0  0  0  0  0  0
  -21.7700   -6.2400   22.6070 C   0  0  0  0  0  0  0  0  0  0  0  0
  -21.2960   -6.7980   23.8150 C   0  0  0  0  0  3  0  0  0  0  0  0
  -21.1810   -5.9920   24.9650 C   0  0  0  0  0  3  0  0  0  0  0  0
  -21.5320   -4.6300   24.9120 C   0  0  0  0  0  0  0  0  0  0  0  0
  -22.0030   -4.0720   23.7100 C   0  0  0  0  0  3  0  0  0  0  0  0
  -22.1180   -4.8750   22.5610 C   0  0  0  0  0  0  0  0  0  0  0  0
  -22.5500   -4.3260   21.4000 F   0  0  0  0  0  0  0  0  0  0  0  0
  -21.4170   -3.8550   26.0160 F   0  0  0  0  0  0  0  0  0  0  0  0
  -22.9020  -13.6130   21.1030 C   0  0  0  0  0  0  0  0  0  0  0  0
  -22.1770  -12.9180   21.9720 N   0  0  0  0  0  0  0  0  0  0  0  0
  -22.4620  -14.6400   20.5870 O   0  0  0  0  0  0  0  0  0  0  0  0
  -22.5460  -12.0900   22.4160 H   0  0  0  0  0  0  0  0  0  0  0  0
  -21.2410  -13.2210   22.1980 H   0  0  0  0  0  0  0  0  0  0  0  0
  -25.5330  -15.2840   20.2760 N   0  0  0  0  0  0  0  0  0  0  0  0
  -24.7680  -15.9430   20.3760 H   0  0  0  0  0  0  0  0  0  0  0  0
  -26.3820  -15.7150   19.9290 H   0  0  0  0  0  0  0  0  0  0  0  0
  -29.0670  -22.8850   21.3800 C   0  0  0  0  0  2  0  0  0  0  0  0
  -29.2590  -24.1580   20.4660 C   0  0  0  0  0  2  0  0  0  0  0  0
  -28.5300  -25.4480   21.0130 C   0  0  0  0  0  2  0  0  0  0  0  0
  -28.6540  -26.7050   20.2720 O   0  0  0  0  0  0  0  0  0  0  0  0
  -24.6710  -31.8890   23.2300 C   0  0  0  0  0  0  0  0  0  0  0  0
  -27.5050  -27.4880   20.2200 C   0  0  0  0  0  0  0  0  0  0  0  0
  -23.5490  -30.4680   21.5490 C   0  0  0  0  0  3  0  0  0  0  0  0
  -25.0820  -28.9750   20.1570 C   0  0  0  0  0  0  0  0  0  0  0  0
  -26.0760  -30.8850   21.4230 C   0  0  0  0  0  2  0  0  0  0  0  0
  -26.2170  -29.5180   20.7720 C   0  0  0  0  0  0  0  0  0  0  0  0
  -27.4370  -28.7880   20.7890 C   0  0  0  0  0  3  0  0  0  0  0  0
  -26.3520  -26.9740   19.5900 C   0  0  0  0  0  3  0  0  0  0  0  0
  -25.1470  -27.7030   19.5590 C   0  0  0  0  0  3  0  0  0  0  0  0
  -23.8200  -29.8070   20.1710 C   0  0  0  0  0  2  0  0  0  0  0  0
  -24.7830  -31.0960   22.1260 N   0  0  0  0  0  0  0  0  0  0  0  0
  -23.5660  -32.1310   23.7390 O   0  0  0  0  0  0  0  0  0  0  0  0
  -22.8940  -29.4260   22.4870 C   0  0  0  0  0  0  0  0  0  0  0  0
  -21.5790  -29.2050   22.3180 N   0  0  0  0  0  0  0  0  0  0  0  0
  -23.5690  -28.8210   23.3250 O   0  0  0  0  0  0  0  0  0  0  0  0
  -21.0960  -29.7480   21.6170 H   0  0  0  0  0  0  0  0  0  0  0  0
  -18.2320  -27.8940   22.7060 C   0  0  0  0  0  0  0  0  0  0  0  0
  -20.7680  -28.2400   23.0620 C   0  0  0  0  0  3  0  0  0  0  0  0
  -20.9380  -26.8130   22.4930 C   0  0  0  0  0  2  0  0  0  0  0  0
  -19.8840  -26.4530   21.4420 C   0  0  0  0  0  2  0  0  0  0  0  0
  -18.4760  -26.5500   22.0380 C   0  0  0  0  0  2  0  0  0  0  0  0
  -19.3090  -28.6930   23.1720 C   0  0  0  0  0  0  0  0  0  0  0  0
  -19.0260  -29.9460   23.7570 C   0  0  0  0  0  3  0  0  0  0  0  0
  -17.7000  -30.4030   23.8770 C   0  0  0  0  0  3  0  0  0  0  0  0
  -16.6370  -29.6020   23.4240 C   0  0  0  0  0  3  0  0  0  0  0  0
  -16.9040  -28.3490   22.8440 C   0  0  0  0  0  3  0  0  0  0  0  0
  -25.9190  -32.5520   23.8900 C   0  0  0  0  0  3  0  0  0  0  0  0
  -25.5700  -33.9460   24.1980 N   0  0  0  0  0  0  0  0  0  0  0  0
  -25.9090  -35.0000   23.4430 C   0  0  0  0  0  0  0  0  0  0  0  0
  -26.6170  -34.9020   22.4360 O   0  0  0  0  0  0  0  0  0  0  0  0
  -24.9370  -34.0940   24.9700 H   0  0  0  0  0  0  0  0  0  0  0  0
  -24.1640  -36.7600   23.0120 C   0  0  0  0  0  1  0  0  0  0  0  0
  -25.3800  -36.3830   23.8720 C   0  0  0  0  0  3  0  0  0  0  0  0
  -27.4640  -37.3090   24.7830 C   0  0  0  0  0  1  0  0  0  0  0  0
  -26.3990  -37.4530   23.7930 N   0  0  0  0  0  0  0  0  0  0  0  0
  -25.9720  -38.3670   23.9160 H   0  0  0  0  0  0  0  0  0  0  0  0
  -26.4090  -31.8020   25.1880 C   0  0  1  0  0  0  0  0  0  0  0  0
  -25.2860  -31.5530   26.2230 C   0  0  0  0  0  1  0  0  0  0  0  0
  -27.0340  -30.4350   24.8270 C   0  0  0  0  0  1  0  0  0  0  0  0
  -27.5240  -32.6250   25.8770 C   0  0  0  0  0  1  0  0  0  0  0  0
  1  2  1  0
  2  6  2  0
  3  1  2  0
  3 10  1  0
  4  1  1  0
  4  5  1  0
  5 49  1  0
  5  2  1  0
  7  3  1  0
  8  7  2  0
  8  9  1  0
 11 19  1  0
 12 17  1  0
 13 14  1  0
 13 12  1  0
 15 14  1  0
 15 24  1  0
 15 16  1  0
 17 11  1  0
 17 16  1  0
 18 11  2  0
 19 10  1  0
 19 20  1  0
 21 22  2  0
 22 41  1  0
 23 22  1  0
 23 26  1  0
 24 21  1  0
 24 25  1  0
 25 23  2  0
 26 27  1  0
 27 28  2  0
 29 32  1  0
 29 28  1  0
 30 29  2  0
 31 30  1  0
 31 26  2  0
 32 33  1  0
 33 34  1  0
 34 35  2  0
 36 35  1  0
 36 40  1  0
 37 36  2  0
 38 33  2  0
 38 37  1  0
 39 38  1  0
 41 42  1  0
 42 45  1  0
 42 44  1  0
 43 41  2  0
 46 47  1  0
 46 21  1  0
 48 46  1  0
 50 51  1  0
 50 49  1  0
 52 51  1  0
 53 64  2  0
 54 52  1  0
 54 59  1  0
 55 63  1  0
 55 65  1  0
 56 62  1  0
 56 58  1  0
 57 63  1  0
 58 59  2  0
 58 57  1  0
 60 54  2  0
 61 60  1  0
 61 56  2  0
 62 55  1  0
 63 53  1  0
 65 67  2  0
 66 65  1  0
 68 66  1  0
 69 78  2  0
 69 74  1  0
 70 66  1  0
 70 74  1  0
 71 70  1  0
 72 73  1  0
 72 71  1  0
 73 69  1  0
 74 75  2  0
 75 76  1  0
 77 76  2  0
 78 77  1  0
 79 53  1  0
 79 80  1  0
 79 89  1  0
 80 83  1  0
 81 85  1  0
 81 80  1  0
 82 81  2  0
 85 84  1  0
 87 85  1  0
 87 88  1  0
 87 86  1  0
 89 92  1  1
 89 90  1  0
 91 89  1  0
M  ISO  4  11 100  19 100  51 101  52 101
M  END
>  <TORSDO>  (8) 
F 21

>  <SCORE>  (8) 
-13.062

>  <name>  (8) 
7

>  <ligand_id>  (8) 
7

>  <original_smiles>  (8) 
[H]N=C([H])C(=C1C(=O)N(C([H])([H])C([H])([H])C([H])([H])Oc2c([H])c([H])c3c(c2[H])C([H])([H])N(C(=O)C([H])(N([H])C(=O)C([H])(N([H])C([H])([H])[H])C([H])([H])[H])C(C([H])([H])[H])(C([H])([H])[H])C([H])([H])[H])C([H])(C(=O)N([H])C2([H])c4c([H])c([H])c([H])c([H])c4C([H])([H])C([H])([H])C2([H])[H])C3([H])[H])C1([H])[H])C([H])([H])N([H])C(=O)N1C([H])([H])C([H])([H])C([H])([H])C([H])(n2nc(-c3c([H])c([H])c(Oc4c([H])c([H])c(F)c([H])c4F)c([H])c3[H])c(C(=O)N([H])[H])c2N([H])[H])C1([H])[H]

>  <smiles>  (8) 
[H]N=C([H])C(=C1C(=O)N(C([H])([H])C([H])([H])C([H])([H])Oc2c([H])c([H])c3c(c2[H])C([H])([H])N(C(=O)C([H])(N([H])C(=O)C([H])(N([H])C([H])([H])[H])C([H])([H])[H])C(C([H])([H])[H])(C([H])([H])[H])C([H])([H])[H])C([H])(C(=O)N([H])C2([H])c4c([H])c([H])c([H])c([H])c4C([H])([H])C([H])([H])C2([H])[H])C3([H])[H])C1([H])[H])C([H])([H])N([H])C(=O)N1C([H])([H])C([H])([H])C([H])([H])C([H])(n2nc(-c3c([H])c([H])c(Oc4c([H])c([H])c(F)c([H])c4F)c([H])c3[H])c(C(=O)N([H])[H])c2N([H])[H])C1([H])[H]

$$$$
8:0:0
     RDKit          3D

 94102  0  0  1  0  0  0  0  0999 V2000
  -29.6360  -19.3820   20.4940 C   0  0  0  0  0  0  0  0  0  0  0  0
  -29.3910  -20.3610   19.5910 N   0  0  0  0  0  0  0  0  0  0  0  0
  -29.4970  -19.5890   21.7040 O   0  0  0  0  0  0  0  0  0  0  0  0
  -29.5590  -20.1190   18.6210 H   0  0  0  0  0  0  0  0  0  0  0  0
  -30.0670  -17.9500   20.0110 C   0  0  0  0  0  2  0  0  0  0  0  0
  -30.7330  -14.5770   19.9400 C   0  0  0  0  0  0  0  0  0  0  0  0
  -30.3340  -12.5120   18.6020 C   0  0  0  0  0  2  0  0  0  0  0  0
  -29.2530  -12.7740   17.5280 C   0  0  0  0  0  2  0  0  0  0  0  0
  -27.8330  -12.6050   18.1070 C   0  0  0  0  0  2  0  0  0  0  0  0
  -27.6480  -13.3530   19.4530 C   0  0  0  0  0  3  0  0  0  0  0  0
  -28.8050  -13.0130   20.4120 C   0  0  0  0  0  2  0  0  0  0  0  0
  -30.0680  -13.3970   19.7490 N   0  0  0  0  0  0  0  0  0  0  0  0
  -31.7210  -14.9000   19.2710 O   0  0  0  0  0  0  0  0  0  0  0  0
  -30.4890  -15.2580   22.2990 C   0  0  0  0  0  2  0  0  0  0  0  0
  -30.9250  -16.7190   22.2350 C   0  0  0  0  0  3  0  0  0  0  0  0
  -29.8960  -16.8660   21.1240 C   0  0  0  0  0  3  0  0  0  0  0  0
  -30.1570  -15.3990   20.8650 N   0  0  0  0  0  0  0  0  0  0  0  0
  -25.3450  -13.9570   20.4380 C   0  0  0  0  0  0  0  0  0  0  0  0
  -24.3080  -13.1820   20.8810 C   0  0  0  0  0  0  0  0  0  0  0  0
  -24.7400  -11.8270   20.7360 C   0  0  0  0  0  0  0  0  0  0  0  0
  -26.3440  -13.0750   20.0560 N   0  0  0  0  0  0  0  0  0  0  0  0
  -25.9890  -11.7850   20.2890 N   0  0  0  0  0  0  0  0  0  0  0  0
  -24.0160  -10.5650   20.9400 C   0  0  0  0  0  0  0  0  0  0  0  0
  -24.5010   -9.5720   21.8190 C   0  0  0  0  0  3  0  0  0  0  0  0
  -23.7790   -8.3750   22.0150 C   0  0  0  0  0  3  0  0  0  0  0  0
  -22.5580   -8.1620   21.3310 C   0  0  0  0  0  0  0  0  0  0  0  0
  -22.0920   -9.1450   20.4410 C   0  0  0  0  0  3  0  0  0  0  0  0
  -22.8140  -10.3340   20.2440 C   0  0  0  0  0  3  0  0  0  0  0  0
  -21.8030   -7.0190   21.4350 O   0  0  0  0  0  0  0  0  0  0  0  0
  -21.7820   -6.2730   22.5870 C   0  0  0  0  0  0  0  0  0  0  0  0
  -21.4020   -6.8280   23.8290 C   0  0  0  0  0  3  0  0  0  0  0  0
  -21.3300   -6.0090   24.9730 C   0  0  0  0  0  3  0  0  0  0  0  0
  -21.6260   -4.6370   24.8760 C   0  0  0  0  0  0  0  0  0  0  0  0
  -22.0000   -4.0810   23.6410 C   0  0  0  0  0  3  0  0  0  0  0  0
  -22.0750   -4.8980   22.4990 C   0  0  0  0  0  0  0  0  0  0  0  0
  -22.4130   -4.3530   21.3050 F   0  0  0  0  0  0  0  0  0  0  0  0
  -21.5490   -3.8480   25.9740 F   0  0  0  0  0  0  0  0  0  0  0  0
  -22.9550  -13.6600   21.3220 C   0  0  0  0  0  0  0  0  0  0  0  0
  -22.3200  -12.9450   22.2420 N   0  0  0  0  0  0  0  0  0  0  0  0
  -22.4710  -14.7050   20.8850 O   0  0  0  0  0  0  0  0  0  0  0  0
  -22.7230  -12.1010   22.6220 H   0  0  0  0  0  0  0  0  0  0  0  0
  -21.4150  -13.2460   22.5770 H   0  0  0  0  0  0  0  0  0  0  0  0
  -25.5140  -15.3340   20.3100 N   0  0  0  0  0  0  0  0  0  0  0  0
  -24.7740  -15.9920   20.5260 H   0  0  0  0  0  0  0  0  0  0  0  0
  -26.3360  -15.7770   19.9200 H   0  0  0  0  0  0  0  0  0  0  0  0
  -30.7030  -17.5260   23.4540 N   0  0  0  0  0  4  0  0  0  0  0  0
  -29.8430  -17.2780   23.9080 H   0  0  0  0  0  0  0  0  0  0  0  0
  -30.6440  -18.5030   23.2070 H   0  0  0  0  0  0  0  0  0  0  0  0
  -31.4500  -17.4060   24.1150 H   0  0  0  0  0  0  0  0  0  0  0  0
  -28.6910  -21.6610   19.8120 C   0  0  0  0  0  2  0  0  0  0  0  0
  -29.6010  -22.9330   19.8710 C   0  0  0  0  0  2  0  0  0  0  0  0
  -29.0050  -24.3160   19.3940 C   0  0  0  0  0  2  0  0  0  0  0  0
  -28.3740  -25.2850   20.4460 C   0  0  0  0  0  2  0  0  0  0  0  0
  -28.4100  -26.6920   20.0560 O   0  0  0  0  0  0  0  0  0  0  0  0
  -24.5610  -31.8760   23.1790 C   0  0  0  0  0  0  0  0  0  0  0  0
  -27.2320  -27.4250   20.0860 C   0  0  0  0  0  0  0  0  0  0  0  0
  -23.3540  -30.4490   21.5580 C   0  0  0  0  0  3  0  0  0  0  0  0
  -24.8140  -28.9200   20.1210 C   0  0  0  0  0  0  0  0  0  0  0  0
  -25.8740  -30.8350   21.3270 C   0  0  0  0  0  2  0  0  0  0  0  0
  -25.9730  -29.4580   20.6910 C   0  0  0  0  0  0  0  0  0  0  0  0
  -27.1860  -28.7210   20.6650 C   0  0  0  0  0  3  0  0  0  0  0  0
  -26.0520  -26.9120   19.5040 C   0  0  0  0  0  3  0  0  0  0  0  0
  -24.8500  -27.6470   19.5240 C   0  0  0  0  0  3  0  0  0  0  0  0
  -23.5580  -29.7640   20.1810 C   0  0  0  0  0  2  0  0  0  0  0  0
  -24.6160  -31.0700   22.0790 N   0  0  0  0  0  0  0  0  0  0  0  0
  -23.4830  -32.1330   23.7330 O   0  0  0  0  0  0  0  0  0  0  0  0
  -22.7310  -29.4250   22.5330 C   0  0  0  0  0  0  0  0  0  0  0  0
  -21.4100  -29.2120   22.4180 N   0  0  0  0  0  0  0  0  0  0  0  0
  -23.4350  -28.8210   23.3500 O   0  0  0  0  0  0  0  0  0  0  0  0
  -20.9020  -29.7530   21.7320 H   0  0  0  0  0  0  0  0  0  0  0  0
  -18.0700  -27.9370   22.9480 C   0  0  0  0  0  0  0  0  0  0  0  0
  -20.6220  -28.2600   23.2020 C   0  0  0  0  0  3  0  0  0  0  0  0
  -20.7570  -26.8270   22.6370 C   0  0  0  0  0  2  0  0  0  0  0  0
  -19.6570  -26.4690   21.6320 C   0  0  0  0  0  2  0  0  0  0  0  0
  -18.2750  -26.5860   22.2830 C   0  0  0  0  0  2  0  0  0  0  0  0
  -19.1720  -28.7290   23.3650 C   0  0  0  0  0  0  0  0  0  0  0  0
  -18.9290  -29.9910   23.9490 C   0  0  0  0  0  3  0  0  0  0  0  0
  -17.6140  -30.4650   24.1160 C   0  0  0  0  0  3  0  0  0  0  0  0
  -16.5250  -29.6700   23.7150 C   0  0  0  0  0  3  0  0  0  0  0  0
  -16.7540  -28.4080   23.1400 C   0  0  0  0  0  3  0  0  0  0  0  0
  -25.8450  -32.5300   23.7770 C   0  0  0  0  0  3  0  0  0  0  0  0
  -25.5220  -33.9290   24.0920 N   0  0  0  0  0  0  0  0  0  0  0  0
  -25.8400  -34.9760   23.3200 C   0  0  0  0  0  0  0  0  0  0  0  0
  -26.5080  -34.8680   22.2870 O   0  0  0  0  0  0  0  0  0  0  0  0
  -24.9290  -34.0860   24.8940 H   0  0  0  0  0  0  0  0  0  0  0  0
  -24.0910  -36.7460   22.9480 C   0  0  0  0  0  1  0  0  0  0  0  0
  -25.3380  -36.3650   23.7610 C   0  0  0  0  0  3  0  0  0  0  0  0
  -27.4650  -37.2850   24.5720 C   0  0  0  0  0  1  0  0  0  0  0  0
  -26.3580  -37.4280   23.6300 N   0  0  0  0  0  0  0  0  0  0  0  0
  -25.9420  -38.3460   23.7660 H   0  0  0  0  0  0  0  0  0  0  0  0
  -26.3850  -31.7820   25.0590 C   0  0  1  0  0  0  0  0  0  0  0  0
  -25.3040  -31.5290   26.1340 C   0  0  0  0  0  1  0  0  0  0  0  0
  -27.0000  -30.4130   24.6760 C   0  0  0  0  0  1  0  0  0  0  0  0
  -27.5170  -32.6100   25.7100 C   0  0  0  0  0  1  0  0  0  0  0  0
  1  3  2  0
  2 50  1  0
  2  1  1  0
  4  2  1  0
  5  1  1  0
  6 17  1  0
  7 12  1  0
  8  9  1  0
  8  7  1  0
 10  9  1  0
 10 21  1  0
 10 11  1  0
 12  6  1  0
 12 11  1  0
 13  6  2  0
 15 14  1  0
 15 46  1  0
 16  5  1  0
 16 15  1  0
 17 16  1  0
 17 14  1  0
 18 19  2  0
 19 38  1  0
 20 19  1  0
 20 23  1  0
 21 22  1  0
 21 18  1  0
 22 20  2  0
 23 24  1  0
 24 25  2  0
 26 29  1  0
 26 25  1  0
 27 26  2  0
 28 27  1  0
 28 23  2  0
 29 30  1  0
 30 31  1  0
 31 32  2  0
 33 32  1  0
 33 37  1  0
 34 33  2  0
 35 30  2  0
 35 34  1  0
 36 35  1  0
 38 39  1  0
 39 42  1  0
 39 41  1  0
 40 38  2  0
 43 18  1  0
 43 44  1  0
 45 43  1  0
 46 47  1  0
 46 49  1  0
 48 46  1  0
 50 51  1  0
 52 51  1  0
 52 53  1  0
 54 56  1  0
 54 53  1  0
 55 66  2  0
 56 61  1  0
 57 65  1  0
 57 67  1  0
 58 64  1  0
 58 60  1  0
 59 65  1  0
 60 59  1  0
 61 60  2  0
 62 63  1  0
 62 56  2  0
 63 58  2  0
 64 57  1  0
 65 55  1  0
 67 69  2  0
 68 67  1  0
 70 68  1  0
 71 80  2  0
 71 76  1  0
 72 68  1  0
 72 76  1  0
 73 72  1  0
 74 75  1  0
 74 73  1  0
 75 71  1  0
 76 77  2  0
 77 78  1  0
 79 78  2  0
 80 79  1  0
 81 55  1  0
 81 82  1  0
 81 91  1  0
 82 85  1  0
 83 87  1  0
 83 82  1  0
 84 83  2  0
 87 86  1  0
 89 87  1  0
 89 90  1  0
 89 88  1  0
 91 94  1  1
 91 92  1  0
 93 91  1  0
M  ISO  4   6 100  17 100  53 101  54 101
M  END
>  <TORSDO>  (9) 
F 22

>  <SCORE>  (9) 
-11.805

>  <name>  (9) 
8

>  <ligand_id>  (9) 
8

>  <original_smiles>  (9) 
[H]c1c([H])c([H])c2c(c1[H])C([H])([H])C([H])([H])C([H])([H])C2([H])N([H])C(=O)C1([H])N(C(=O)C([H])(N([H])C(=O)C([H])(N([H])C([H])([H])[H])C([H])([H])[H])C(C([H])([H])[H])(C([H])([H])[H])C([H])([H])[H])C([H])([H])c2c([H])c(OC([H])([H])C([H])([H])C([H])([H])C([H])([H])N([H])C(=O)C([H])([H])C3([H])N(C(=O)N4C([H])([H])C([H])([H])C([H])([H])C([H])(n5nc(-c6c([H])c([H])c(Oc7c([H])c([H])c(F)c([H])c7F)c([H])c6[H])c(C(=O)N([H])[H])c5N([H])[H])C4([H])[H])C([H])([H])C3([H])[N+]([H])([H])[H])c([H])c([H])c2C1([H])[H]

>  <smiles>  (9) 
[H]c1c([H])c([H])c2c(c1[H])C([H])([H])C([H])([H])C([H])([H])C2([H])N([H])C(=O)C1([H])N(C(=O)C([H])(N([H])C(=O)C([H])(N([H])C([H])([H])[H])C([H])([H])[H])C(C([H])([H])[H])(C([H])([H])[H])C([H])([H])[H])C([H])([H])c2c([H])c(OC([H])([H])C([H])([H])C([H])([H])C([H])([H])N([H])C(=O)C([H])([H])C3([H])N(C(=O)N4C([H])([H])C([H])([H])C([H])([H])C([H])(n5nc(-c6c([H])c([H])c(Oc7c([H])c([H])c(F)c([H])c7F)c([H])c6[H])c(C(=O)N([H])[H])c5N([H])[H])C4([H])[H])C([H])([H])C3([H])[N+]([H])([H])[H])c([H])c([H])c2C1([H])[H]

$$$$
9:0:0
     RDKit          3D

 95103  0  0  1  0  0  0  0  0999 V2000
  -28.3360  -22.3930   21.6140 C   0  0  0  0  0  2  0  0  0  0  0  0
  -28.4160  -20.8610   21.5300 C   0  0  0  0  0  2  0  0  0  0  0  0
  -29.6020  -21.8080   19.7060 C   0  0  0  0  0  2  0  0  0  0  0  0
  -28.5590  -22.8690   20.1720 C   0  0  1  0  0  0  0  0  0  0  0  0
  -29.4420  -20.5820   20.5240 N   0  0  0  0  0  0  0  0  0  0  0  0
  -27.3280  -22.7480   19.3570 N   0  0  0  0  0  4  0  0  0  0  0  0
  -26.5730  -23.3000   19.7230 H   0  0  0  0  0  0  0  0  0  0  0  0
  -27.0240  -21.7940   19.3140 H   0  0  0  0  0  0  0  0  0  0  0  0
  -27.5150  -23.0550   18.4170 H   0  0  0  0  0  0  0  0  0  0  0  0
  -29.0420  -24.3540   20.0500 C   0  0  0  0  0  0  0  0  0  0  0  0
  -30.0060  -24.6460   19.3310 O   0  0  0  0  0  0  0  0  0  0  0  0
  -28.2500  -25.4690   20.7820 C   0  0  0  0  0  2  0  0  0  0  0  0
  -28.4080  -26.7770   20.1760 O   0  0  0  0  0  0  0  0  0  0  0  0
  -24.5830  -31.9610   23.2600 C   0  0  0  0  0  0  0  0  0  0  0  0
  -27.2540  -27.5380   20.1630 C   0  0  0  0  0  0  0  0  0  0  0  0
  -23.3860  -30.5510   21.6190 C   0  0  0  0  0  3  0  0  0  0  0  0
  -24.8500  -29.0330   20.1800 C   0  0  0  0  0  0  0  0  0  0  0  0
  -25.9070  -30.9340   21.4110 C   0  0  0  0  0  2  0  0  0  0  0  0
  -26.0070  -29.5650   20.7660 C   0  0  0  0  0  0  0  0  0  0  0  0
  -27.2160  -28.8260   20.7500 C   0  0  0  0  0  3  0  0  0  0  0  0
  -26.0850  -27.0320   19.5560 C   0  0  0  0  0  3  0  0  0  0  0  0
  -24.8870  -27.7700   19.5650 C   0  0  0  0  0  3  0  0  0  0  0  0
  -23.5960  -29.8780   20.2350 C   0  0  0  0  0  2  0  0  0  0  0  0
  -24.6440  -31.1630   22.1550 N   0  0  0  0  0  0  0  0  0  0  0  0
  -23.5020  -32.2210   23.8040 O   0  0  0  0  0  0  0  0  0  0  0  0
  -22.7450  -29.5230   22.5790 C   0  0  0  0  0  0  0  0  0  0  0  0
  -21.4240  -29.3240   22.4510 N   0  0  0  0  0  0  0  0  0  0  0  0
  -23.4360  -28.9060   23.3960 O   0  0  0  0  0  0  0  0  0  0  0  0
  -20.9280  -29.8760   21.7640 H   0  0  0  0  0  0  0  0  0  0  0  0
  -18.0620  -28.0910   22.9520 C   0  0  0  0  0  0  0  0  0  0  0  0
  -20.6180  -28.3750   23.2200 C   0  0  0  0  0  3  0  0  0  0  0  0
  -20.7350  -26.9470   22.6390 C   0  0  0  0  0  2  0  0  0  0  0  0
  -19.6340  -26.6170   21.6250 C   0  0  0  0  0  2  0  0  0  0  0  0
  -18.2510  -26.7460   22.2710 C   0  0  0  0  0  2  0  0  0  0  0  0
  -19.1740  -28.8630   23.3830 C   0  0  0  0  0  0  0  0  0  0  0  0
  -18.9440  -30.1210   23.9790 C   0  0  0  0  0  3  0  0  0  0  0  0
  -17.6340  -30.6100   24.1490 C   0  0  0  0  0  3  0  0  0  0  0  0
  -16.5370  -29.8360   23.7330 C   0  0  0  0  0  3  0  0  0  0  0  0
  -16.7520  -28.5780   23.1410 C   0  0  0  0  0  3  0  0  0  0  0  0
  -25.8650  -32.6000   23.8770 C   0  0  0  0  0  3  0  0  0  0  0  0
  -25.5520  -33.9980   24.2010 N   0  0  0  0  0  0  0  0  0  0  0  0
  -25.8950  -35.0490   23.4440 C   0  0  0  0  0  0  0  0  0  0  0  0
  -26.5800  -34.9430   22.4230 O   0  0  0  0  0  0  0  0  0  0  0  0
  -24.9410  -34.1530   24.9900 H   0  0  0  0  0  0  0  0  0  0  0  0
  -24.1850  -36.8500   23.0400 C   0  0  0  0  0  1  0  0  0  0  0  0
  -25.3980  -36.4380   23.8890 C   0  0  0  0  0  3  0  0  0  0  0  0
  -27.5070  -37.3130   24.7920 C   0  0  0  0  0  1  0  0  0  0  0  0
  -26.4380  -37.4870   23.8110 N   0  0  0  0  0  0  0  0  0  0  0  0
  -26.0300  -38.4080   23.9450 H   0  0  0  0  0  0  0  0  0  0  0  0
  -26.3890  -31.8360   25.1550 C   0  0  1  0  0  0  0  0  0  0  0  0
  -25.2950  -31.5900   26.2200 C   0  0  0  0  0  1  0  0  0  0  0  0
  -26.9840  -30.4630   24.7620 C   0  0  0  0  0  1  0  0  0  0  0  0
  -27.5310  -32.6430   25.8160 C   0  0  0  0  0  1  0  0  0  0  0  0
  -29.2160  -19.3680   19.7130 C   0  0  0  0  0  2  0  0  0  0  0  0
  -29.0850  -18.0070   20.4700 C   0  0  0  0  0  2  0  0  0  0  0  0
  -31.3640  -17.6480   21.5590 C   0  0  0  0  0  1  0  0  0  0  0  0
  -30.3670  -17.1210   20.5120 C   0  0  0  0  0  3  0  0  0  0  0  0
  -30.7700  -14.6440   20.2720 C   0  0  0  0  0  0  0  0  0  0  0  0
  -30.4960  -12.4440   19.1940 C   0  0  0  0  0  2  0  0  0  0  0  0
  -29.5410  -12.5930   17.9910 C   0  0  0  0  0  2  0  0  0  0  0  0
  -28.0760  -12.4380   18.4390 C   0  0  0  0  0  2  0  0  0  0  0  0
  -27.7320  -13.3070   19.6770 C   0  0  0  0  0  3  0  0  0  0  0  0
  -28.8000  -13.1490   20.7840 C   0  0  0  0  0  2  0  0  0  0  0  0
  -30.1140  -13.4530   20.1960 N   0  0  0  0  0  0  0  0  0  0  0  0
  -31.8880  -14.8170   19.7790 O   0  0  0  0  0  0  0  0  0  0  0  0
  -30.0560  -15.6900   20.7460 N   0  0  0  0  0  0  0  0  0  0  0  0
  -29.1530  -15.4680   21.1380 H   0  0  0  0  0  0  0  0  0  0  0  0
  -25.3370  -13.8910   20.4170 C   0  0  0  0  0  0  0  0  0  0  0  0
  -24.2810  -13.1090   20.8010 C   0  0  0  0  0  0  0  0  0  0  0  0
  -24.7550  -11.7620   20.7650 C   0  0  0  0  0  0  0  0  0  0  0  0
  -26.3890  -13.0200   20.1740 N   0  0  0  0  0  0  0  0  0  0  0  0
  -26.0410  -11.7340   20.4410 N   0  0  0  0  0  0  0  0  0  0  0  0
  -24.0440  -10.4920   20.9650 C   0  0  0  0  0  0  0  0  0  0  0  0
  -24.4680   -9.5520   21.9300 C   0  0  0  0  0  3  0  0  0  0  0  0
  -23.7570   -8.3480   22.1160 C   0  0  0  0  0  3  0  0  0  0  0  0
  -22.6080   -8.0740   21.3360 C   0  0  0  0  0  0  0  0  0  0  0  0
  -22.2030   -9.0030   20.3620 C   0  0  0  0  0  3  0  0  0  0  0  0
  -22.9150  -10.1990   20.1740 C   0  0  0  0  0  3  0  0  0  0  0  0
  -21.8700   -6.9190   21.4300 O   0  0  0  0  0  0  0  0  0  0  0  0
  -21.7770   -6.2170   22.6060 C   0  0  0  0  0  0  0  0  0  0  0  0
  -21.2540   -6.7970   23.7810 C   0  0  0  0  0  3  0  0  0  0  0  0
  -21.1130   -6.0190   24.9480 C   0  0  0  0  0  3  0  0  0  0  0  0
  -21.4850   -4.6620   24.9390 C   0  0  0  0  0  0  0  0  0  0  0  0
  -22.0010   -4.0810   23.7680 C   0  0  0  0  0  3  0  0  0  0  0  0
  -22.1440   -4.8550   22.6030 C   0  0  0  0  0  0  0  0  0  0  0  0
  -22.6220   -4.2850   21.4710 F   0  0  0  0  0  0  0  0  0  0  0  0
  -21.3420   -3.9120   26.0570 F   0  0  0  0  0  0  0  0  0  0  0  0
  -22.8840  -13.5730   21.0910 C   0  0  0  0  0  0  0  0  0  0  0  0
  -22.1690  -12.8630   21.9570 N   0  0  0  0  0  0  0  0  0  0  0  0
  -22.4310  -14.5990   20.5850 O   0  0  0  0  0  0  0  0  0  0  0  0
  -22.5470  -12.0310   22.3870 H   0  0  0  0  0  0  0  0  0  0  0  0
  -21.2310  -13.1540   22.1930 H   0  0  0  0  0  0  0  0  0  0  0  0
  -25.4890  -15.2630   20.2340 N   0  0  0  0  0  0  0  0  0  0  0  0
  -24.7180  -15.9120   20.3430 H   0  0  0  0  0  0  0  0  0  0  0  0
  -26.3300  -15.7000   19.8810 H   0  0  0  0  0  0  0  0  0  0  0  0
  2  1  1  0
  3  4  1  0
  3  5  1  0
  4 10  1  0
  4  1  1  0
  5  2  1  0
  6  7  1  0
  4  6  1  6
  8  6  1  0
  9  6  1  0
 10 12  1  0
 11 10  2  0
 13 12  1  0
 14 25  2  0
 15 13  1  0
 15 20  1  0
 16 24  1  0
 16 26  1  0
 17 23  1  0
 17 19  1  0
 18 24  1  0
 19 18  1  0
 20 19  2  0
 21 22  1  0
 21 15  2  0
 22 17  2  0
 23 16  1  0
 24 14  1  0
 26 28  2  0
 27 26  1  0
 29 27  1  0
 30 39  2  0
 30 35  1  0
 31 27  1  0
 31 35  1  0
 32 31  1  0
 33 34  1  0
 33 32  1  0
 34 30  1  0
 35 36  2  0
 36 37  1  0
 38 37  2  0
 39 38  1  0
 40 14  1  0
 40 41  1  0
 40 50  1  0
 41 44  1  0
 42 46  1  0
 42 41  1  0
 43 42  2  0
 46 45  1  0
 48 46  1  0
 48 49  1  0
 48 47  1  0
 50 53  1  1
 50 51  1  0
 52 50  1  0
 54 55  1  0
 54  5  1  0
 55 57  1  0
 57 66  1  0
 57 56  1  0
 58 66  1  0
 59 64  1  0
 60 61  1  0
 60 59  1  0
 62 61  1  0
 62 71  1  0
 62 63  1  0
 64 58  1  0
 64 63  1  0
 65 58  2  0
 66 67  1  0
 68 69  2  0
 69 88  1  0
 70 69  1  0
 70 73  1  0
 71 68  1  0
 71 72  1  0
 72 70  2  0
 73 74  1  0
 74 75  2  0
 76 79  1  0
 76 75  1  0
 77 76  2  0
 78 77  1  0
 78 73  2  0
 79 80  1  0
 80 81  1  0
 81 82  2  0
 83 82  1  0
 83 87  1  0
 84 83  2  0
 85 80  2  0
 85 84  1  0
 86 85  1  0
 88 89  1  0
 89 92  1  0
 89 91  1  0
 90 88  2  0
 93 94  1  0
 93 68  1  0
 95 93  1  0
M  ISO  4  12 101  13 101  58 100  66 100
M  END
>  <TORSDO>  (10) 
F 22

>  <SCORE>  (10) 
-13.143

>  <name>  (10) 
9

>  <ligand_id>  (10) 
9

>  <original_smiles>  (10) 
[H]c1c([H])c([H])c2c(c1[H])C([H])([H])C([H])([H])C([H])([H])C2([H])N([H])C(=O)C1([H])N(C(=O)C([H])(N([H])C(=O)C([H])(N([H])C([H])([H])[H])C([H])([H])[H])C(C([H])([H])[H])(C([H])([H])[H])C([H])([H])[H])C([H])([H])c2c([H])c(OC([H])([H])C(=O)C3([N+]([H])([H])[H])C([H])([H])N(C([H])([H])C([H])([H])C([H])(N([H])C(=O)N4C([H])([H])C([H])([H])C([H])([H])C([H])(n5nc(-c6c([H])c([H])c(Oc7c([H])c([H])c(F)c([H])c7F)c([H])c6[H])c(C(=O)N([H])[H])c5N([H])[H])C4([H])[H])C([H])([H])[H])C([H])([H])C3([H])[H])c([H])c([H])c2C1([H])[H]

>  <smiles>  (10) 
[H]c1c([H])c([H])c2c(c1[H])C([H])([H])C([H])([H])C([H])([H])C2([H])N([H])C(=O)C1([H])N(C(=O)C([H])(N([H])C(=O)C([H])(N([H])C([H])([H])[H])C([H])([H])[H])C(C([H])([H])[H])(C([H])([H])[H])C([H])([H])[H])C([H])([H])c2c([H])c(OC([H])([H])C(=O)C3([N+]([H])([H])[H])C([H])([H])N(C([H])([H])C([H])([H])C([H])(N([H])C(=O)N4C([H])([H])C([H])([H])C([H])([H])C([H])(n5nc(-c6c([H])c([H])c(Oc7c([H])c([H])c(F)c([H])c7F)c([H])c6[H])c(C(=O)N([H])[H])c5N([H])[H])C4([H])[H])C([H])([H])[H])C([H])([H])C3([H])[H])c([H])c([H])c2C1([H])[H]

$$$$
10:0:0
     RDKit          3D

101109  0  0  1  0  0  0  0  0999 V2000
  -28.4870  -18.9990   20.3290 C   0  0  0  0  0  3  0  0  0  0  0  0
  -29.3600  -21.3480   19.9560 C   0  0  0  0  0  0  0  0  0  0  0  0
  -29.1230  -20.1060   19.4750 C   0  0  0  0  0  0  0  0  0  0  0  0
  -29.1150  -22.0400   21.2700 C   0  0  0  0  0  2  0  0  0  0  0  0
  -29.8530  -22.6240   19.3360 C   0  0  0  0  0  2  0  0  0  0  0  0
  -29.3840  -19.7720   18.0140 C   0  0  0  0  0  1  0  0  0  0  0  0
  -29.4330  -23.3080   20.5800 N   0  0  1  0  0  4  0  0  0  0  0  0
  -30.2250  -23.7480   21.0290 H   0  0  0  0  0  0  0  0  0  0  0  0
  -28.2990  -24.2680   20.4710 C   0  0  0  0  0  2  0  0  0  0  0  0
  -28.6090  -25.4770   19.5590 C   0  0  0  0  0  2  0  0  0  0  0  0
  -28.4300  -26.7250   20.2370 O   0  0  0  0  0  0  0  0  0  0  0  0
  -24.5360  -31.8230   23.2720 C   0  0  0  0  0  0  0  0  0  0  0  0
  -27.2120  -27.3750   20.2260 C   0  0  0  0  0  0  0  0  0  0  0  0
  -23.3330  -30.3970   21.6450 C   0  0  0  0  0  3  0  0  0  0  0  0
  -24.7930  -28.8500   20.2370 C   0  0  0  0  0  0  0  0  0  0  0  0
  -25.8540  -30.7710   21.4380 C   0  0  0  0  0  2  0  0  0  0  0  0
  -25.9450  -29.3910   20.8170 C   0  0  0  0  0  0  0  0  0  0  0  0
  -27.1520  -28.6590   20.8110 C   0  0  0  0  0  3  0  0  0  0  0  0
  -26.0340  -26.8350   19.6560 C   0  0  0  0  0  3  0  0  0  0  0  0
  -24.8310  -27.5690   19.6590 C   0  0  0  0  0  3  0  0  0  0  0  0
  -23.5440  -29.7030   20.2720 C   0  0  0  0  0  2  0  0  0  0  0  0
  -24.5920  -31.0120   22.1780 N   0  0  0  0  0  0  0  0  0  0  0  0
  -23.4540  -32.0960   23.8100 O   0  0  0  0  0  0  0  0  0  0  0  0
  -22.6900  -29.3820   22.6160 C   0  0  0  0  0  0  0  0  0  0  0  0
  -21.3800  -29.1410   22.4450 N   0  0  0  0  0  0  0  0  0  0  0  0
  -23.3680  -28.8130   23.4770 O   0  0  0  0  0  0  0  0  0  0  0  0
  -20.8980  -29.6540   21.7210 H   0  0  0  0  0  0  0  0  0  0  0  0
  -18.0540  -27.7860   22.8080 C   0  0  0  0  0  0  0  0  0  0  0  0
  -20.5730  -28.1960   23.2130 C   0  0  0  0  0  3  0  0  0  0  0  0
  -20.7870  -26.7490   22.7140 C   0  0  0  0  0  2  0  0  0  0  0  0
  -19.7650  -26.3180   21.6570 C   0  0  0  0  0  2  0  0  0  0  0  0
  -18.3420  -26.4160   22.2140 C   0  0  0  0  0  2  0  0  0  0  0  0
  -19.1030  -28.6270   23.2630 C   0  0  0  0  0  0  0  0  0  0  0  0
  -18.7860  -29.9050   23.7730 C   0  0  0  0  0  3  0  0  0  0  0  0
  -17.4480  -30.3410   23.8380 C   0  0  0  0  0  3  0  0  0  0  0  0
  -16.4130  -29.4960   23.4030 C   0  0  0  0  0  3  0  0  0  0  0  0
  -16.7150  -28.2220   22.8920 C   0  0  0  0  0  3  0  0  0  0  0  0
  -25.8210  -32.4630   23.8850 C   0  0  0  0  0  3  0  0  0  0  0  0
  -26.3310  -31.7190   25.1820 C   0  0  1  0  0  0  0  0  0  0  0  0
  -25.2260  -31.4870   26.2400 C   0  0  0  0  0  1  0  0  0  0  0  0
  -26.9310  -30.3420   24.8130 C   0  0  0  0  0  1  0  0  0  0  0  0
  -27.4650  -32.5350   25.8460 C   0  0  0  0  0  1  0  0  0  0  0  0
  -25.5190  -33.8700   24.1810 N   0  0  0  0  0  0  0  0  0  0  0  0
  -25.8620  -34.9000   23.3960 C   0  0  0  0  0  0  0  0  0  0  0  0
  -26.5400  -34.7680   22.3720 O   0  0  0  0  0  0  0  0  0  0  0  0
  -24.9280  -34.0520   24.9790 H   0  0  0  0  0  0  0  0  0  0  0  0
  -24.1410  -36.6840   22.9820 C   0  0  0  0  0  1  0  0  0  0  0  0
  -25.3750  -36.3000   23.8140 C   0  0  0  0  0  3  0  0  0  0  0  0
  -27.5020  -37.2060   24.6410 C   0  0  0  0  0  1  0  0  0  0  0  0
  -26.4110  -37.3480   23.6800 N   0  0  0  0  0  0  0  0  0  0  0  0
  -26.0040  -38.2720   23.7990 H   0  0  0  0  0  0  0  0  0  0  0  0
  -27.1020  -18.7870   19.8590 N   0  0  0  0  0  4  0  0  0  0  0  0
  -27.0780  -18.4540   18.9120 H   0  0  0  0  0  0  0  0  0  0  0  0
  -26.5870  -19.6480   19.8930 H   0  0  0  0  0  0  0  0  0  0  0  0
  -26.6220  -18.1230   20.4410 H   0  0  0  0  0  0  0  0  0  0  0  0
  -28.6420  -16.7620   21.5420 C   0  0  0  0  0  1  0  0  0  0  0  0
  -29.2760  -17.6400   20.4370 C   0  0  0  0  0  3  0  0  0  0  0  0
  -30.8430  -17.7190   20.5730 C   0  0  0  0  0  3  0  0  0  0  0  0
  -31.3010  -18.8210   21.4470 N   0  0  0  0  0  4  0  0  0  0  0  0
  -30.9970  -18.6910   22.3970 H   0  0  0  0  0  0  0  0  0  0  0  0
  -30.9950  -19.7210   21.1310 H   0  0  0  0  0  0  0  0  0  0  0  0
  -32.3050  -18.8450   21.4560 H   0  0  0  0  0  0  0  0  0  0  0  0
  -31.5480  -16.4050   21.0300 C   0  0  0  0  0  2  0  0  0  0  0  0
  -31.4280  -14.1600   19.8940 C   0  0  0  0  0  0  0  0  0  0  0  0
  -31.0070  -11.8850   19.0260 C   0  0  0  0  0  2  0  0  0  0  0  0
  -30.0490  -11.9270   17.8200 C   0  0  0  0  0  2  0  0  0  0  0  0
  -28.5780  -11.9220   18.2830 C   0  0  0  0  0  2  0  0  0  0  0  0
  -28.2970  -12.9710   19.3910 C   0  0  0  0  0  3  0  0  0  0  0  0
  -29.3530  -12.8650   20.5120 C   0  0  0  0  0  2  0  0  0  0  0  0
  -30.6860  -13.0220   19.8990 N   0  0  0  0  0  0  0  0  0  0  0  0
  -32.4950  -14.2810   19.2860 O   0  0  0  0  0  0  0  0  0  0  0  0
  -30.8990  -15.1620   20.6060 N   0  0  0  0  0  0  0  0  0  0  0  0
  -30.0050  -14.9580   21.0270 H   0  0  0  0  0  0  0  0  0  0  0  0
  -26.0080  -13.8370   20.1910 C   0  0  0  0  0  0  0  0  0  0  0  0
  -24.8750  -13.1860   20.5970 C   0  0  0  0  0  0  0  0  0  0  0  0
  -25.1790  -11.7910   20.5350 C   0  0  0  0  0  0  0  0  0  0  0  0
  -26.9390  -12.8470   19.9150 N   0  0  0  0  0  0  0  0  0  0  0  0
  -26.4430  -11.6100   20.1760 N   0  0  0  0  0  0  0  0  0  0  0  0
  -24.3230  -10.6160   20.7410 C   0  0  0  0  0  0  0  0  0  0  0  0
  -24.6270   -9.6450   21.7210 C   0  0  0  0  0  3  0  0  0  0  0  0
  -23.7790   -8.5320   21.9120 C   0  0  0  0  0  3  0  0  0  0  0  0
  -22.6140   -8.3840   21.1230 C   0  0  0  0  0  0  0  0  0  0  0  0
  -22.3300   -9.3420   20.1320 C   0  0  0  0  0  3  0  0  0  0  0  0
  -23.1770  -10.4460   19.9410 C   0  0  0  0  0  3  0  0  0  0  0  0
  -21.7450   -7.3240   21.2200 O   0  0  0  0  0  0  0  0  0  0  0  0
  -21.5150   -6.6910   22.4150 C   0  0  0  0  0  0  0  0  0  0  0  0
  -21.0070   -7.3790   23.5380 C   0  0  0  0  0  3  0  0  0  0  0  0
  -20.7180   -6.6760   24.7240 C   0  0  0  0  0  3  0  0  0  0  0  0
  -20.9300   -5.2860   24.7880 C   0  0  0  0  0  0  0  0  0  0  0  0
  -21.4310   -4.5970   23.6700 C   0  0  0  0  0  3  0  0  0  0  0  0
  -21.7200   -5.2970   22.4860 C   0  0  0  0  0  0  0  0  0  0  0  0
  -22.1830   -4.6260   21.4040 F   0  0  0  0  0  0  0  0  0  0  0  0
  -20.6460   -4.6080   25.9250 F   0  0  0  0  0  0  0  0  0  0  0  0
  -23.5520  -13.8130   20.9260 C   0  0  0  0  0  0  0  0  0  0  0  0
  -22.7880  -13.2010   21.8260 N   0  0  0  0  0  0  0  0  0  0  0  0
  -23.2080  -14.8790   20.4200 O   0  0  0  0  0  0  0  0  0  0  0  0
  -23.0790  -12.3370   22.2570 H   0  0  0  0  0  0  0  0  0  0  0  0
  -21.9000  -13.6050   22.0860 H   0  0  0  0  0  0  0  0  0  0  0  0
  -26.3200  -15.1820   20.0070 N   0  0  0  0  0  0  0  0  0  0  0  0
  -25.5690  -15.8630   20.0050 H   0  0  0  0  0  0  0  0  0  0  0  0
  -27.1150  -15.4520   19.4440 H   0  0  0  0  0  0  0  0  0  0  0  0
  1  3  1  0
  1 57  1  0
  2  4  1  0
  3  2  2  0
  5  2  1  0
  5  7  1  0
  6  3  1  0
  7  8  1  1
  7  4  1  0
  9  7  1  0
 10 11  1  0
 10  9  1  0
 12 23  2  0
 13 11  1  0
 13 18  1  0
 14 22  1  0
 14 24  1  0
 15 21  1  0
 15 17  1  0
 16 22  1  0
 17 16  1  0
 18 17  2  0
 19 20  1  0
 19 13  2  0
 20 15  2  0
 21 14  1  0
 22 12  1  0
 24 26  2  0
 25 24  1  0
 27 25  1  0
 28 37  2  0
 28 33  1  0
 29 25  1  0
 29 33  1  0
 30 29  1  0
 31 32  1  0
 31 30  1  0
 32 28  1  0
 33 34  2  0
 34 35  1  0
 36 35  2  0
 37 36  1  0
 38 12  1  0
 38 43  1  0
 38 39  1  0
 39 42  1  1
 39 40  1  0
 41 39  1  0
 43 46  1  0
 44 48  1  0
 44 43  1  0
 45 44  2  0
 48 47  1  0
 50 51  1  0
 50 48  1  0
 50 49  1  0
 52 54  1  0
 52  1  1  0
 52 55  1  0
 53 52  1  0
 57 58  1  0
 57 56  1  0
 58 63  1  0
 58 59  1  0
 59 62  1  0
 59 60  1  0
 61 59  1  0
 64 70  1  0
 64 72  1  0
 65 70  1  0
 66 67  1  0
 66 65  1  0
 68 67  1  0
 68 77  1  0
 68 69  1  0
 70 69  1  0
 71 64  2  0
 72 73  1  0
 72 63  1  0
 74 75  2  0
 75 94  1  0
 76 75  1  0
 76 79  1  0
 77 78  1  0
 77 74  1  0
 78 76  2  0
 79 80  1  0
 80 81  2  0
 82 85  1  0
 82 81  1  0
 83 82  2  0
 84 83  1  0
 84 79  2  0
 85 86  1  0
 86 91  2  0
 86 87  1  0
 87 88  2  0
 88 89  1  0
 89 93  1  0
 90 89  2  0
 91 90  1  0
 92 91  1  0
 94 95  1  0
 95 98  1  0
 95 97  1  0
 96 94  2  0
 99 74  1  0
100 99  1  0
101 99  1  0
M  ISO  4  10 101  11 101  64 100  72 100
M  END
>  <TORSDO>  (11) 
F 24

>  <SCORE>  (11) 
-11.704

>  <name>  (11) 
10

>  <ligand_id>  (11) 
10

>  <original_smiles>  (11) 
[H]c1c([H])c([H])c2c(c1[H])C([H])([H])C([H])([H])C([H])([H])C2([H])N([H])C(=O)C1([H])N(C(=O)C([H])(N([H])C(=O)C([H])(N([H])C([H])([H])[H])C([H])([H])[H])C(C([H])([H])[H])(C([H])([H])[H])C([H])([H])[H])C([H])([H])c2c([H])c(OC([H])([H])C([H])([H])[N+]3([H])C([H])([H])C(=C(C([H])([H])[H])C([H])(C([H])(C([H])([H])[H])C([H])(C([H])([H])N([H])C(=O)N4C([H])([H])C([H])([H])C([H])([H])C([H])(n5nc(-c6c([H])c([H])c(Oc7c([H])c([H])c(F)c([H])c7F)c([H])c6[H])c(C(=O)N([H])[H])c5N([H])[H])C4([H])[H])[N+]([H])([H])[H])[N+]([H])([H])[H])C3([H])[H])c([H])c([H])c2C1([H])[H]

>  <smiles>  (11) 
[H]c1c([H])c([H])c2c(c1[H])C([H])([H])C([H])([H])C([H])([H])C2([H])N([H])C(=O)C1([H])N(C(=O)C([H])(N([H])C(=O)C([H])(N([H])C([H])([H])[H])C([H])([H])[H])C(C([H])([H])[H])(C([H])([H])[H])C([H])([H])[H])C([H])([H])c2c([H])c(OC([H])([H])C([H])([H])[N+]3([H])C([H])([H])C(=C(C([H])([H])[H])C([H])(C([H])(C([H])([H])[H])C([H])(C([H])([H])N([H])C(=O)N4C([H])([H])C([H])([H])C([H])([H])C([H])(n5nc(-c6c([H])c([H])c(Oc7c([H])c([H])c(F)c([H])c7F)c([H])c6[H])c(C(=O)N([H])[H])c5N([H])[H])C4([H])[H])[N+]([H])([H])[H])[N+]([H])([H])[H])C3([H])[H])c([H])c([H])c2C1([H])[H]

$$$$
11:0:0
     RDKit          3D

 96104  0  0  1  0  0  0  0  0999 V2000
  -29.5260  -20.8770   20.8010 C   0  0  0  0  0  3  0  0  0  0  0  0
  -30.6000  -20.0790   21.1150 C   0  0  0  0  0  0  0  0  0  0  0  0
  -29.5150  -22.3170   20.4600 C   0  0  0  0  0  0  0  0  0  0  0  0
  -28.4920  -22.9850   21.0580 N   0  0  0  0  0  0  0  0  0  0  0  0
  -30.3060  -22.8450   19.6680 O   0  0  0  0  0  0  0  0  0  0  0  0
  -28.0020  -22.4290   21.7600 H   0  0  0  0  0  0  0  0  0  0  0  0
  -27.9870  -24.4040   21.0280 C   0  0  0  0  0  2  0  0  0  0  0  0
  -28.3530  -25.4060   19.8810 C   0  0  0  0  0  2  0  0  0  0  0  0
  -28.2750  -26.8280   20.2410 O   0  0  0  0  0  0  0  0  0  0  0  0
  -24.6160  -32.0620   23.4820 C   0  0  0  0  0  0  0  0  0  0  0  0
  -27.0970  -27.5790   20.2490 C   0  0  0  0  0  0  0  0  0  0  0  0
  -23.3440  -30.7220   21.8360 C   0  0  0  0  0  3  0  0  0  0  0  0
  -24.7340  -29.1730   20.3450 C   0  0  0  0  0  0  0  0  0  0  0  0
  -25.8760  -31.0180   21.5830 C   0  0  0  0  0  2  0  0  0  0  0  0
  -25.9190  -29.6500   20.9180 C   0  0  0  0  0  0  0  0  0  0  0  0
  -27.0970  -28.8630   20.8600 C   0  0  0  0  0  3  0  0  0  0  0  0
  -25.8900  -27.1270   19.6730 C   0  0  0  0  0  3  0  0  0  0  0  0
  -24.7190  -27.9170   19.7200 C   0  0  0  0  0  3  0  0  0  0  0  0
  -23.5110  -30.0640   20.4400 C   0  0  0  0  0  2  0  0  0  0  0  0
  -24.6340  -31.2820   22.3610 N   0  0  0  0  0  0  0  0  0  0  0  0
  -23.5490  -32.3480   24.0470 O   0  0  0  0  0  0  0  0  0  0  0  0
  -22.6840  -29.7050   22.7950 C   0  0  0  0  0  0  0  0  0  0  0  0
  -21.3740  -29.4630   22.6140 N   0  0  0  0  0  0  0  0  0  0  0  0
  -23.3520  -29.1310   23.6600 O   0  0  0  0  0  0  0  0  0  0  0  0
  -20.8940  -29.9560   21.8730 H   0  0  0  0  0  0  0  0  0  0  0  0
  -18.0550  -28.0700   22.9190 C   0  0  0  0  0  0  0  0  0  0  0  0
  -20.5580  -28.5140   23.3760 C   0  0  0  0  0  3  0  0  0  0  0  0
  -20.7910  -27.0640   22.8870 C   0  0  0  0  0  2  0  0  0  0  0  0
  -19.8000  -26.6170   21.8080 C   0  0  0  0  0  2  0  0  0  0  0  0
  -18.3700  -26.7040   22.3370 C   0  0  0  0  0  2  0  0  0  0  0  0
  -19.0800  -28.9250   23.3990 C   0  0  0  0  0  0  0  0  0  0  0  0
  -18.7300  -30.1960   23.9060 C   0  0  0  0  0  3  0  0  0  0  0  0
  -17.3850  -30.6080   23.9450 C   0  0  0  0  0  3  0  0  0  0  0  0
  -16.3720  -29.7520   23.4810 C   0  0  0  0  0  3  0  0  0  0  0  0
  -16.7080  -28.4870   22.9660 C   0  0  0  0  0  3  0  0  0  0  0  0
  -25.9240  -32.6570   24.0870 C   0  0  0  0  0  3  0  0  0  0  0  0
  -25.6560  -34.0640   24.4190 N   0  0  0  0  0  0  0  0  0  0  0  0
  -26.0170  -35.1090   23.6620 C   0  0  0  0  0  0  0  0  0  0  0  0
  -26.6770  -34.9870   22.6250 O   0  0  0  0  0  0  0  0  0  0  0  0
  -25.0600  -34.2280   25.2150 H   0  0  0  0  0  0  0  0  0  0  0  0
  -24.3300  -36.9480   23.3470 C   0  0  0  0  0  1  0  0  0  0  0  0
  -25.5780  -36.5090   24.1280 C   0  0  0  0  0  3  0  0  0  0  0  0
  -27.7530  -37.3430   24.9110 C   0  0  0  0  0  1  0  0  0  0  0  0
  -26.6330  -37.5330   23.9930 N   0  0  0  0  0  0  0  0  0  0  0  0
  -26.2570  -38.4630   24.1400 H   0  0  0  0  0  0  0  0  0  0  0  0
  -26.4280  -31.8680   25.3580 C   0  0  1  0  0  0  0  0  0  0  0  0
  -25.3240  -31.6320   26.4160 C   0  0  0  0  0  1  0  0  0  0  0  0
  -27.0010  -30.4880   24.9550 C   0  0  0  0  0  1  0  0  0  0  0  0
  -27.5790  -32.6500   26.0350 C   0  0  0  0  0  1  0  0  0  0  0  0
  -31.8700  -20.5090   21.2080 O   0  0  0  0  0  0  0  0  0  0  0  0
  -31.9070  -21.4250   20.9560 H   0  0  0  0  0  0  0  0  0  0  0  0
  -30.5610  -18.5420   21.4120 C   0  0  0  0  0  2  0  0  0  0  0  0
  -31.1030  -15.1550   20.6910 C   0  0  0  0  0  0  0  0  0  0  0  0
  -31.0050  -12.8190   19.9490 C   0  0  0  0  0  2  0  0  0  0  0  0
  -30.1990  -12.7980   18.6380 C   0  0  0  0  0  2  0  0  0  0  0  0
  -28.6640  -12.8380   18.8820 C   0  0  0  0  0  2  0  0  0  0  0  0
  -28.1810  -13.6910   20.1040 C   0  0  0  0  0  3  0  0  0  0  0  0
  -29.1560  -13.6280   21.2890 C   0  0  0  0  0  2  0  0  0  0  0  0
  -30.4900  -13.9310   20.7530 N   0  0  0  0  0  0  0  0  0  0  0  0
  -32.3260  -15.2460   20.8230 O   0  0  0  0  0  0  0  0  0  0  0  0
  -29.9230  -18.3500   19.0220 C   0  0  0  0  0  2  0  0  0  0  0  0
  -30.0930  -16.0090   18.6240 C   0  0  0  0  0  2  0  0  0  0  0  0
  -29.6710  -17.3240   17.9610 C   0  0  0  0  0  3  0  0  0  0  0  0
  -30.7440  -17.6630   20.1230 C   0  0  0  0  0  3  0  0  0  0  0  0
  -30.3950  -16.1880   20.0850 N   0  0  0  0  0  0  0  0  0  0  0  0
  -25.7570  -14.3330   20.5830 C   0  0  0  0  0  0  0  0  0  0  0  0
  -24.6470  -13.5700   20.8440 C   0  0  0  0  0  0  0  0  0  0  0  0
  -25.0970  -12.2180   20.8550 C   0  0  0  0  0  0  0  0  0  0  0  0
  -26.8020  -13.4270   20.4620 N   0  0  0  0  0  0  0  0  0  0  0  0
  -26.4080  -12.1530   20.6800 N   0  0  0  0  0  0  0  0  0  0  0  0
  -24.3480  -10.9640   20.9580 C   0  0  0  0  0  0  0  0  0  0  0  0
  -24.6940   -9.9770   21.9030 C   0  0  0  0  0  3  0  0  0  0  0  0
  -23.9460   -8.7860   21.9970 C   0  0  0  0  0  3  0  0  0  0  0  0
  -22.8390   -8.5820   21.1410 C   0  0  0  0  0  0  0  0  0  0  0  0
  -22.5160   -9.5580   20.1800 C   0  0  0  0  0  3  0  0  0  0  0  0
  -23.2690  -10.7390   20.0870 C   0  0  0  0  0  3  0  0  0  0  0  0
  -22.0650   -7.4490   21.1470 O   0  0  0  0  0  0  0  0  0  0  0  0
  -21.8920   -6.7020   22.2840 C   0  0  0  0  0  0  0  0  0  0  0  0
  -21.3600   -7.2540   23.4690 C   0  0  0  0  0  3  0  0  0  0  0  0
  -21.1340   -6.4320   24.5910 C   0  0  0  0  0  3  0  0  0  0  0  0
  -21.4340   -5.0570   24.5260 C   0  0  0  0  0  0  0  0  0  0  0  0
  -21.9610   -4.5040   23.3450 C   0  0  0  0  0  3  0  0  0  0  0  0
  -22.1850   -5.3240   22.2260 C   0  0  0  0  0  0  0  0  0  0  0  0
  -22.6710   -4.7830   21.0850 F   0  0  0  0  0  0  0  0  0  0  0  0
  -21.2130   -4.2630   25.5980 F   0  0  0  0  0  0  0  0  0  0  0  0
  -23.2400  -14.0700   20.9750 C   0  0  0  0  0  0  0  0  0  0  0  0
  -22.4370  -13.3880   21.7850 N   0  0  0  0  0  0  0  0  0  0  0  0
  -22.8630  -15.0930   20.4120 O   0  0  0  0  0  0  0  0  0  0  0  0
  -22.7600  -12.5590   22.2590 H   0  0  0  0  0  0  0  0  0  0  0  0
  -21.4860  -13.6960   21.9230 H   0  0  0  0  0  0  0  0  0  0  0  0
  -25.9500  -15.7000   20.4210 N   0  0  0  0  0  0  0  0  0  0  0  0
  -25.1900  -16.3750   20.4500 H   0  0  0  0  0  0  0  0  0  0  0  0
  -26.8420  -16.1310   20.2070 H   0  0  0  0  0  0  0  0  0  0  0  0
  -30.4120  -17.6490   16.6710 C   0  0  0  0  0  3  0  0  0  0  0  0
  -29.8540  -18.1070   15.6280 N   0  0  0  0  0  0  0  0  0  0  0  0
  -28.8530  -18.2240   15.7360 H   0  0  0  0  0  0  0  0  0  0  0  0
  1  2  2  0
  2 50  1  0
  2 52  1  0
  3  1  1  0
  3  4  1  0
  4  6  1  0
  5  3  2  0
  7  4  1  0
  8  9  1  0
  8  7  1  0
  9 11  1  0
 10 21  2  0
 11 16  1  0
 12 20  1  0
 12 22  1  0
 13 19  1  0
 13 15  1  0
 14 20  1  0
 15 14  1  0
 16 15  2  0
 17 18  1  0
 17 11  2  0
 18 13  2  0
 19 12  1  0
 20 10  1  0
 22 24  2  0
 23 22  1  0
 25 23  1  0
 26 35  2  0
 26 31  1  0
 27 23  1  0
 27 31  1  0
 28 27  1  0
 29 30  1  0
 29 28  1  0
 30 26  1  0
 31 32  2  0
 32 33  1  0
 34 33  2  0
 35 34  1  0
 36 10  1  0
 36 37  1  0
 36 46  1  0
 37 40  1  0
 38 42  1  0
 38 37  1  0
 39 38  2  0
 42 41  1  0
 44 42  1  0
 44 45  1  0
 44 43  1  0
 46 49  1  1
 46 47  1  0
 48 46  1  0
 51 50  1  0
 53 59  1  0
 53 60  2  0
 54 59  1  0
 55 56  1  0
 55 54  1  0
 57 56  1  0
 57 69  1  0
 57 58  1  0
 59 58  1  0
 61 64  1  0
 62 65  1  0
 63 94  1  0
 63 62  1  0
 63 61  1  0
 64 52  1  0
 65 64  1  0
 65 53  1  0
 66 67  2  0
 67 68  1  0
 67 86  1  0
 68 71  1  0
 69 66  1  0
 69 70  1  0
 70 68  2  0
 71 72  1  0
 72 73  2  0
 74 77  1  0
 74 73  1  0
 75 74  2  0
 76 75  1  0
 76 71  2  0
 77 78  1  0
 78 79  1  0
 79 80  2  0
 81 80  1  0
 81 85  1  0
 82 81  2  0
 83 78  2  0
 83 82  1  0
 84 83  1  0
 86 87  1  0
 87 90  1  0
 87 89  1  0
 88 86  2  0
 91 92  1  0
 91 66  1  0
 93 91  1  0
 95 96  1  0
 95 94  2  0
M  ISO  4   8 101   9 101  53 100  65 100
M  END
>  <TORSDO>  (12) 
F 22

>  <SCORE>  (12) 
-11.709

>  <name>  (12) 
11

>  <ligand_id>  (12) 
11

>  <original_smiles>  (12) 
[H]N=C([H])C1([H])C([H])([H])N(C(=O)N2C([H])([H])C([H])([H])C([H])([H])C([H])(n3nc(-c4c([H])c([H])c(Oc5c([H])c([H])c(F)c([H])c5F)c([H])c4[H])c(C(=O)N([H])[H])c3N([H])[H])C2([H])[H])C([H])(C([H])([H])C(O[H])=C([H])C(=O)N([H])C([H])([H])C([H])([H])Oc2c([H])c([H])c3c(c2[H])C([H])([H])N(C(=O)C([H])(N([H])C(=O)C([H])(N([H])C([H])([H])[H])C([H])([H])[H])C(C([H])([H])[H])(C([H])([H])[H])C([H])([H])[H])C([H])(C(=O)N([H])C2([H])c4c([H])c([H])c([H])c([H])c4C([H])([H])C([H])([H])C2([H])[H])C3([H])[H])C1([H])[H]

>  <smiles>  (12) 
[H]N=C([H])C1([H])C([H])([H])N(C(=O)N2C([H])([H])C([H])([H])C([H])([H])C([H])(n3nc(-c4c([H])c([H])c(Oc5c([H])c([H])c(F)c([H])c5F)c([H])c4[H])c(C(=O)N([H])[H])c3N([H])[H])C2([H])[H])C([H])(C([H])([H])C(O[H])=C([H])C(=O)N([H])C([H])([H])C([H])([H])Oc2c([H])c([H])c3c(c2[H])C([H])([H])N(C(=O)C([H])(N([H])C(=O)C([H])(N([H])C([H])([H])[H])C([H])([H])[H])C(C([H])([H])[H])(C([H])([H])[H])C([H])([H])[H])C([H])(C(=O)N([H])C2([H])c4c([H])c([H])c([H])c([H])c4C([H])([H])C([H])([H])C2([H])[H])C3([H])[H])C1([H])[H]

$$$$
12:0:0
     RDKit          3D

 99107  0  0  1  0  0  0  0  0999 V2000
  -29.1990  -20.7290   17.9790 C   0  0  0  0  0  2  0  0  0  0  0  0
  -26.9330  -21.6250   18.8490 C   0  0  0  0  0  1  0  0  0  0  0  0
  -28.1020  -22.7610   16.9820 C   0  0  0  0  0  1  0  0  0  0  0  0
  -28.3310  -22.0120   18.3170 C   0  0  2  0  0  0  0  0  0  0  0  0
  -29.0570  -22.9510   19.2420 N   0  0  0  0  0  4  0  0  0  0  0  0
  -29.3990  -22.4220   20.0290 H   0  0  0  0  0  0  0  0  0  0  0  0
  -29.8730  -23.2880   18.7550 H   0  0  0  0  0  0  0  0  0  0  0  0
  -28.3080  -24.1340   19.7860 C   0  0  0  0  0  2  0  0  0  0  0  0
  -28.9700  -25.5150   19.5230 C   0  0  0  0  0  2  0  0  0  0  0  0
  -28.6280  -26.5560   20.4610 O   0  0  0  0  0  0  0  0  0  0  0  0
  -24.6780  -31.7820   23.2710 C   0  0  0  0  0  0  0  0  0  0  0  0
  -27.4350  -27.2540   20.3780 C   0  0  0  0  0  0  0  0  0  0  0  0
  -23.5290  -30.3300   21.6350 C   0  0  0  0  0  3  0  0  0  0  0  0
  -25.0280  -28.7580   20.3040 C   0  0  0  0  0  0  0  0  0  0  0  0
  -26.0600  -30.6810   21.5160 C   0  0  0  0  0  2  0  0  0  0  0  0
  -26.1670  -29.2910   20.9180 C   0  0  0  0  0  0  0  0  0  0  0  0
  -27.3660  -28.5420   20.9660 C   0  0  0  0  0  3  0  0  0  0  0  0
  -26.2730  -26.7420   19.7590 C   0  0  0  0  0  3  0  0  0  0  0  0
  -25.0760  -27.4770   19.7310 C   0  0  0  0  0  3  0  0  0  0  0  0
  -23.7840  -29.6160   20.2820 C   0  0  0  0  0  2  0  0  0  0  0  0
  -24.7720  -30.9480   22.1980 N   0  0  0  0  0  0  0  0  0  0  0  0
  -23.5780  -32.0640   23.7670 O   0  0  0  0  0  0  0  0  0  0  0  0
  -22.8480  -29.3320   22.5980 C   0  0  0  0  0  0  0  0  0  0  0  0
  -21.5230  -29.1590   22.4510 N   0  0  0  0  0  0  0  0  0  0  0  0
  -23.5100  -28.7170   23.4400 O   0  0  0  0  0  0  0  0  0  0  0  0
  -21.0510  -29.7130   21.7490 H   0  0  0  0  0  0  0  0  0  0  0  0
  -18.1210  -28.0460   22.9380 C   0  0  0  0  0  0  0  0  0  0  0  0
  -20.6830  -28.2460   23.2210 C   0  0  0  0  0  3  0  0  0  0  0  0
  -20.7540  -26.8050   22.6600 C   0  0  0  0  0  2  0  0  0  0  0  0
  -19.6500  -26.5020   21.6440 C   0  0  0  0  0  2  0  0  0  0  0  0
  -18.2690  -26.6850   22.2770 C   0  0  0  0  0  2  0  0  0  0  0  0
  -19.2560  -28.7840   23.3660 C   0  0  0  0  0  0  0  0  0  0  0  0
  -19.0630  -30.0610   23.9410 C   0  0  0  0  0  3  0  0  0  0  0  0
  -17.7710  -30.5950   24.0910 C   0  0  0  0  0  3  0  0  0  0  0  0
  -16.6510  -29.8530   23.6770 C   0  0  0  0  0  3  0  0  0  0  0  0
  -16.8280  -28.5790   23.1060 C   0  0  0  0  0  3  0  0  0  0  0  0
  -25.9430  -32.4370   23.9110 C   0  0  0  0  0  3  0  0  0  0  0  0
  -25.6100  -33.8350   24.2110 N   0  0  0  0  0  0  0  0  0  0  0  0
  -25.9440  -34.8810   23.4390 C   0  0  0  0  0  0  0  0  0  0  0  0
  -26.6330  -34.7690   22.4210 O   0  0  0  0  0  0  0  0  0  0  0  0
  -25.0050  -33.9970   25.0020 H   0  0  0  0  0  0  0  0  0  0  0  0
  -24.1970  -36.6420   23.0210 C   0  0  0  0  0  1  0  0  0  0  0  0
  -25.4290  -36.2710   23.8620 C   0  0  0  0  0  3  0  0  0  0  0  0
  -27.5360  -37.1950   24.7190 C   0  0  0  0  0  1  0  0  0  0  0  0
  -26.4510  -37.3350   23.7510 N   0  0  0  0  0  0  0  0  0  0  0  0
  -26.0320  -38.2540   23.8730 H   0  0  0  0  0  0  0  0  0  0  0  0
  -26.4380  -31.6890   25.2100 C   0  0  1  0  0  0  0  0  0  0  0  0
  -25.3240  -31.4420   26.2520 C   0  0  0  0  0  1  0  0  0  0  0  0
  -27.0540  -30.3180   24.8460 C   0  0  0  0  0  1  0  0  0  0  0  0
  -27.5560  -32.5100   25.8910 C   0  0  0  0  0  1  0  0  0  0  0  0
  -27.9550  -18.7180   19.1020 C   0  0  0  0  0  1  0  0  0  0  0  0
  -29.3030  -19.4700   18.9250 C   0  0  0  0  0  3  0  0  0  0  0  0
  -30.3630  -18.4710   18.3370 C   0  0  0  0  0  2  0  0  0  0  0  0
  -30.9920  -17.4320   19.2950 C   0  0  0  0  0  0  0  0  0  0  0  0
  -32.2060  -17.4910   19.4940 O   0  0  0  0  0  0  0  0  0  0  0  0
  -31.1780  -14.1680   19.6300 C   0  0  0  0  0  0  0  0  0  0  0  0
  -30.6520  -12.0510   18.4510 C   0  0  0  0  0  2  0  0  0  0  0  0
  -29.5840  -12.3170   17.3670 C   0  0  0  0  0  2  0  0  0  0  0  0
  -28.1660  -12.2510   17.9730 C   0  0  0  0  0  2  0  0  0  0  0  0
  -28.0250  -13.0750   19.2780 C   0  0  0  0  0  3  0  0  0  0  0  0
  -29.1810  -12.7560   20.2520 C   0  0  0  0  0  2  0  0  0  0  0  0
  -30.4480  -13.0210   19.5350 N   0  0  0  0  0  0  0  0  0  0  0  0
  -32.2080  -14.3770   18.9840 O   0  0  0  0  0  0  0  0  0  0  0  0
  -30.9780  -15.6300   21.6880 C   0  0  0  0  0  2  0  0  0  0  0  0
  -30.0380  -16.4470   19.9750 C   0  0  0  0  0  3  0  0  0  0  0  0
  -29.8010  -16.5870   21.4950 C   0  0  0  0  0  3  0  0  0  0  0  0
  -30.5830  -15.1210   20.3680 N   0  0  0  0  0  0  0  0  0  0  0  0
  -25.7600  -13.8040   20.2510 C   0  0  0  0  0  0  0  0  0  0  0  0
  -24.6960  -13.0840   20.7270 C   0  0  0  0  0  0  0  0  0  0  0  0
  -25.0620  -11.7090   20.6000 C   0  0  0  0  0  0  0  0  0  0  0  0
  -26.7170  -12.8690   19.8920 N   0  0  0  0  0  0  0  0  0  0  0  0
  -26.3000  -11.6010   20.1450 N   0  0  0  0  0  0  0  0  0  0  0  0
  -24.2790  -10.4890   20.8330 C   0  0  0  0  0  0  0  0  0  0  0  0
  -24.6990   -9.5160   21.7670 C   0  0  0  0  0  3  0  0  0  0  0  0
  -23.9260   -8.3570   21.9890 C   0  0  0  0  0  3  0  0  0  0  0  0
  -22.7180   -8.1630   21.2780 C   0  0  0  0  0  0  0  0  0  0  0  0
  -22.3150   -9.1250   20.3340 C   0  0  0  0  0  3  0  0  0  0  0  0
  -23.0890  -10.2750   20.1090 C   0  0  0  0  0  3  0  0  0  0  0  0
  -21.9120   -7.0600   21.4110 O   0  0  0  0  0  0  0  0  0  0  0  0
  -21.8060   -6.3890   22.6020 C   0  0  0  0  0  0  0  0  0  0  0  0
  -21.3680   -7.0260   23.7820 C   0  0  0  0  0  3  0  0  0  0  0  0
  -21.2000   -6.2780   24.9640 C   0  0  0  0  0  3  0  0  0  0  0  0
  -21.4710   -4.8960   24.9700 C   0  0  0  0  0  0  0  0  0  0  0  0
  -21.9080   -4.2600   23.7950 C   0  0  0  0  0  3  0  0  0  0  0  0
  -22.0710   -5.0040   22.6130 C   0  0  0  0  0  0  0  0  0  0  0  0
  -22.4690   -4.3820   21.4770 F   0  0  0  0  0  0  0  0  0  0  0  0
  -21.3070   -4.1760   26.1040 F   0  0  0  0  0  0  0  0  0  0  0  0
  -23.3730  -13.6320   21.1740 C   0  0  0  0  0  0  0  0  0  0  0  0
  -22.7290  -12.9730   22.1310 N   0  0  0  0  0  0  0  0  0  0  0  0
  -22.9280  -14.6800   20.7030 O   0  0  0  0  0  0  0  0  0  0  0  0
  -23.1110  -12.1290   22.5350 H   0  0  0  0  0  0  0  0  0  0  0  0
  -21.8410  -13.3140   22.4680 H   0  0  0  0  0  0  0  0  0  0  0  0
  -25.9760  -15.1660   20.0630 N   0  0  0  0  0  0  0  0  0  0  0  0
  -25.1440  -15.7450   20.0140 H   0  0  0  0  0  0  0  0  0  0  0  0
  -26.6850  -15.4680   19.4080 H   0  0  0  0  0  0  0  0  0  0  0  0
  -29.8990  -17.9110   22.1580 N   0  0  0  0  0  4  0  0  0  0  0  0
  -30.7790  -18.3670   21.9930 H   0  0  0  0  0  0  0  0  0  0  0  0
  -29.8070  -17.7980   23.1520 H   0  0  0  0  0  0  0  0  0  0  0  0
  -29.1550  -18.5260   21.8740 H   0  0  0  0  0  0  0  0  0  0  0  0
  1  4  1  0
  1 52  1  0
  4  3  1  6
  4  2  1  0
  4  5  1  0
  5  8  1  0
  5  6  1  0
  7  5  1  0
  9  8  1  0
  9 10  1  0
 11 22  2  0
 12 10  1  0
 12 17  1  0
 13 21  1  0
 13 23  1  0
 14 16  1  0
 15 21  1  0
 16 17  2  0
 16 15  1  0
 18 12  2  0
 19 18  1  0
 19 14  2  0
 20 14  1  0
 20 13  1  0
 21 11  1  0
 23 25  2  0
 24 23  1  0
 26 24  1  0
 27 36  2  0
 27 32  1  0
 28 24  1  0
 28 32  1  0
 29 28  1  0
 30 31  1  0
 30 29  1  0
 31 27  1  0
 32 33  2  0
 33 34  1  0
 35 34  2  0
 36 35  1  0
 37 11  1  0
 37 38  1  0
 37 47  1  0
 38 41  1  0
 39 43  1  0
 39 38  1  0
 40 39  2  0
 43 42  1  0
 45 43  1  0
 45 46  1  0
 45 44  1  0
 47 50  1  1
 47 48  1  0
 49 47  1  0
 52 51  1  0
 53 52  1  0
 53 54  1  0
 54 55  2  0
 56 67  1  0
 57 62  1  0
 58 59  1  0
 58 57  1  0
 60 59  1  0
 60 71  1  0
 60 61  1  0
 62 56  1  0
 62 61  1  0
 63 56  2  0
 65 54  1  0
 65 67  1  0
 65 66  1  0
 66 64  1  0
 66 96  1  0
 67 64  1  0
 68 69  2  0
 69 88  1  0
 70 69  1  0
 70 73  1  0
 71 72  1  0
 71 68  1  0
 72 70  2  0
 73 74  1  0
 74 75  2  0
 76 79  1  0
 76 75  1  0
 77 76  2  0
 78 77  1  0
 78 73  2  0
 79 80  1  0
 80 85  2  0
 80 81  1  0
 81 82  2  0
 82 83  1  0
 83 87  1  0
 84 83  2  0
 85 84  1  0
 86 85  1  0
 88 89  1  0
 89 92  1  0
 89 91  1  0
 90 88  2  0
 93 68  1  0
 94 93  1  0
 95 93  1  0
 96 98  1  0
 97 96  1  0
 99 96  1  0
M  ISO  4   9 101  10 101  56 100  67 100
M  END
>  <TORSDO>  (13) 
F 24

>  <SCORE>  (13) 
-11.747

>  <name>  (13) 
12

>  <ligand_id>  (13) 
12

>  <original_smiles>  (13) 
[H]c1c([H])c([H])c2c(c1[H])C([H])([H])C([H])([H])C([H])([H])C2([H])N([H])C(=O)C1([H])N(C(=O)C([H])(N([H])C(=O)C([H])(N([H])C([H])([H])[H])C([H])([H])[H])C(C([H])([H])[H])(C([H])([H])[H])C([H])([H])[H])C([H])([H])c2c([H])c(OC([H])([H])C([H])([H])[N+]([H])([H])C(C([H])([H])[H])(C([H])([H])[H])C([H])([H])C([H])(C([H])([H])[H])C([H])([H])C(=O)C3([H])N(C(=O)N4C([H])([H])C([H])([H])C([H])([H])C([H])(n5nc(-c6c([H])c([H])c(Oc7c([H])c([H])c(F)c([H])c7F)c([H])c6[H])c(C(=O)N([H])[H])c5N([H])[H])C4([H])[H])C([H])([H])C3([H])[N+]([H])([H])[H])c([H])c([H])c2C1([H])[H]

>  <smiles>  (13) 
[H]c1c([H])c([H])c2c(c1[H])C([H])([H])C([H])([H])C([H])([H])C2([H])N([H])C(=O)C1([H])N(C(=O)C([H])(N([H])C(=O)C([H])(N([H])C([H])([H])[H])C([H])([H])[H])C(C([H])([H])[H])(C([H])([H])[H])C([H])([H])[H])C([H])([H])c2c([H])c(OC([H])([H])C([H])([H])[N+]([H])([H])C(C([H])([H])[H])(C([H])([H])[H])C([H])([H])C([H])(C([H])([H])[H])C([H])([H])C(=O)C3([H])N(C(=O)N4C([H])([H])C([H])([H])C([H])([H])C([H])(n5nc(-c6c([H])c([H])c(Oc7c([H])c([H])c(F)c([H])c7F)c([H])c6[H])c(C(=O)N([H])[H])c5N([H])[H])C4([H])[H])C([H])([H])C3([H])[N+]([H])([H])[H])c([H])c([H])c2C1([H])[H]

$$$$
13:0:0
     RDKit          3D

 96104  0  0  1  0  0  0  0  0999 V2000
  -29.0080  -23.3240   20.7110 C   0  0  0  0  0  0  0  0  0  0  0  0
  -29.8550  -22.7180   21.3810 O   0  0  0  0  0  0  0  0  0  0  0  0
  -29.3440  -25.1430   22.4050 C   0  0  0  0  0  1  0  0  0  0  0  0
  -28.5860  -24.7920   21.0940 C   0  0  2  0  0  0  0  0  0  0  0  0
  -26.5530  -25.8720   22.4230 C   0  0  0  0  0  1  0  0  0  0  0  0
  -27.0520  -24.8640   21.3650 C   0  0  0  0  0  2  0  0  0  0  0  0
  -29.0220  -25.7630   19.9350 C   0  0  0  0  0  2  0  0  0  0  0  0
  -28.9210  -27.1840   20.1960 O   0  0  0  0  0  0  0  0  0  0  0  0
  -24.6230  -31.8590   23.3780 C   0  0  0  0  0  0  0  0  0  0  0  0
  -27.7040  -27.8380   20.1050 C   0  0  0  0  0  0  0  0  0  0  0  0
  -23.5980  -30.5140   21.5730 C   0  0  0  0  0  3  0  0  0  0  0  0
  -25.2210  -29.2110   20.0900 C   0  0  0  0  0  0  0  0  0  0  0  0
  -26.1010  -31.0430   21.5430 C   0  0  0  0  0  2  0  0  0  0  0  0
  -26.3060  -29.7440   20.7900 C   0  0  0  0  0  0  0  0  0  0  0  0
  -27.5520  -29.0740   20.7810 C   0  0  0  0  0  3  0  0  0  0  0  0
  -26.5960  -27.3280   19.3850 C   0  0  0  0  0  3  0  0  0  0  0  0
  -25.3680  -28.0150   19.3680 C   0  0  0  0  0  3  0  0  0  0  0  0
  -23.9150  -29.9750   20.1520 C   0  0  0  0  0  2  0  0  0  0  0  0
  -24.7870  -31.1530   22.2230 N   0  0  0  0  0  0  0  0  0  0  0  0
  -23.5020  -32.0190   23.8810 O   0  0  0  0  0  0  0  0  0  0  0  0
  -22.9770  -29.3770   22.4150 C   0  0  0  0  0  0  0  0  0  0  0  0
  -21.6700  -29.1400   22.2210 N   0  0  0  0  0  0  0  0  0  0  0  0
  -23.6660  -28.7200   23.2000 O   0  0  0  0  0  0  0  0  0  0  0  0
  -21.1810  -29.7160   21.5510 H   0  0  0  0  0  0  0  0  0  0  0  0
  -18.3420  -27.7690   22.5100 C   0  0  0  0  0  0  0  0  0  0  0  0
  -20.8780  -28.1030   22.8770 C   0  0  0  0  0  3  0  0  0  0  0  0
  -21.0570  -26.7430   22.1680 C   0  0  0  0  0  2  0  0  0  0  0  0
  -19.9930  -26.4710   21.0980 C   0  0  0  0  0  2  0  0  0  0  0  0
  -18.5910  -26.4990   21.7130 C   0  0  0  0  0  2  0  0  0  0  0  0
  -19.4170  -28.5280   23.0420 C   0  0  0  0  0  0  0  0  0  0  0  0
  -19.1310  -29.7190   23.7470 C   0  0  0  0  0  3  0  0  0  0  0  0
  -17.8050  -30.1460   23.9350 C   0  0  0  0  0  3  0  0  0  0  0  0
  -16.7430  -29.3800   23.4220 C   0  0  0  0  0  3  0  0  0  0  0  0
  -17.0120  -28.1950   22.7140 C   0  0  0  0  0  3  0  0  0  0  0  0
  -25.8330  -32.5180   24.1100 C   0  0  0  0  0  3  0  0  0  0  0  0
  -25.4530  -33.8980   24.4370 N   0  0  0  0  0  0  0  0  0  0  0  0
  -25.8080  -34.9760   23.7230 C   0  0  0  0  0  0  0  0  0  0  0  0
  -26.5650  -34.9150   22.7510 O   0  0  0  0  0  0  0  0  0  0  0  0
  -24.7840  -34.0160   25.1840 H   0  0  0  0  0  0  0  0  0  0  0  0
  -24.0480  -36.7120   23.2550 C   0  0  0  0  0  1  0  0  0  0  0  0
  -25.2330  -36.3380   24.1590 C   0  0  0  0  0  3  0  0  0  0  0  0
  -27.2550  -37.2830   25.1830 C   0  0  0  0  0  1  0  0  0  0  0  0
  -26.2310  -37.4290   24.1510 N   0  0  0  0  0  0  0  0  0  0  0  0
  -25.7800  -38.3320   24.2790 H   0  0  0  0  0  0  0  0  0  0  0  0
  -26.2740  -31.7390   25.4110 C   0  0  1  0  0  0  0  0  0  0  0  0
  -25.1060  -31.4350   26.3780 C   0  0  0  0  0  1  0  0  0  0  0  0
  -26.9410  -30.3930   25.0420 C   0  0  0  0  0  1  0  0  0  0  0  0
  -27.3340  -32.5610   26.1810 C   0  0  0  0  0  1  0  0  0  0  0  0
  -28.4310  -22.6100   19.4730 C   0  0  0  0  0  2  0  0  0  0  0  0
  -27.2970  -21.6360   19.8440 C   0  0  0  0  0  0  0  0  0  0  0  0
  -25.9320  -22.2740   20.0230 C   0  0  0  0  0  1  0  0  0  0  0  0
  -27.3440  -20.3690   20.0120 N   0  0  0  0  0  0  0  0  0  0  0  0
  -28.5830  -18.9750   18.3910 C   0  0  0  0  0  3  0  0  0  0  0  0
  -29.0390  -18.8490   20.7750 C   0  0  0  0  0  3  0  0  0  0  0  0
  -29.3290  -17.7940   18.2010 C   0  0  0  0  0  3  0  0  0  0  0  0
  -29.7840  -17.6640   20.5910 C   0  0  0  0  0  3  0  0  0  0  0  0
  -28.3760  -19.4780   19.6960 C   0  0  0  0  0  0  0  0  0  0  0  0
  -29.8770  -17.0990   19.3020 C   0  0  0  0  0  0  0  0  0  0  0  0
  -31.1220  -14.9420   19.7190 C   0  0  0  0  0  0  0  0  0  0  0  0
  -30.9920  -12.5690   19.1300 C   0  0  0  0  0  2  0  0  0  0  0  0
  -30.0410  -12.4730   17.9180 C   0  0  0  0  0  2  0  0  0  0  0  0
  -28.5710  -12.3700   18.3830 C   0  0  0  0  0  2  0  0  0  0  0  0
  -28.1810  -13.4480   19.4280 C   0  0  0  0  0  3  0  0  0  0  0  0
  -29.2450  -13.5370   20.5490 C   0  0  0  0  0  2  0  0  0  0  0  0
  -30.5630  -13.7260   19.9190 N   0  0  0  0  0  0  0  0  0  0  0  0
  -32.3290  -15.1410   19.5650 O   0  0  0  0  0  0  0  0  0  0  0  0
  -30.2420  -15.7460   19.0980 N   0  0  0  0  0  0  0  0  0  0  0  0
  -29.4830  -15.2160   18.6990 H   0  0  0  0  0  0  0  0  0  0  0  0
  -25.8470  -14.1680   20.2220 C   0  0  0  0  0  0  0  0  0  0  0  0
  -24.7580  -13.4490   20.6260 C   0  0  0  0  0  0  0  0  0  0  0  0
  -25.1570  -12.0760   20.5880 C   0  0  0  0  0  0  0  0  0  0  0  0
  -26.8410  -13.2400   19.9610 N   0  0  0  0  0  0  0  0  0  0  0  0
  -26.4320  -11.9770   20.2420 N   0  0  0  0  0  0  0  0  0  0  0  0
  -24.3850  -10.8490   20.8010 C   0  0  0  0  0  0  0  0  0  0  0  0
  -24.7560   -9.9040   21.7840 C   0  0  0  0  0  3  0  0  0  0  0  0
  -23.9840   -8.7400   21.9840 C   0  0  0  0  0  3  0  0  0  0  0  0
  -22.8280   -8.5130   21.2000 C   0  0  0  0  0  0  0  0  0  0  0  0
  -22.4750   -9.4450   20.2090 C   0  0  0  0  0  3  0  0  0  0  0  0
  -23.2500  -10.6000   20.0080 C   0  0  0  0  0  3  0  0  0  0  0  0
  -22.0370   -7.3940   21.3030 O   0  0  0  0  0  0  0  0  0  0  0  0
  -21.8670   -6.7430   22.4980 C   0  0  0  0  0  0  0  0  0  0  0  0
  -21.3630   -7.4020   23.6420 C   0  0  0  0  0  3  0  0  0  0  0  0
  -21.1390   -6.6780   24.8300 C   0  0  0  0  0  3  0  0  0  0  0  0
  -21.4110   -5.2980   24.8750 C   0  0  0  0  0  0  0  0  0  0  0  0
  -21.9100   -4.6390   23.7370 C   0  0  0  0  0  3  0  0  0  0  0  0
  -22.1350   -5.3610   22.5520 C   0  0  0  0  0  0  0  0  0  0  0  0
  -22.5940   -4.7170   21.4510 F   0  0  0  0  0  0  0  0  0  0  0  0
  -21.1870   -4.6010   26.0140 F   0  0  0  0  0  0  0  0  0  0  0  0
  -23.3910  -13.9860   20.9380 C   0  0  0  0  0  0  0  0  0  0  0  0
  -22.6630  -13.3300   21.8360 N   0  0  0  0  0  0  0  0  0  0  0  0
  -22.9780  -15.0220   20.4190 O   0  0  0  0  0  0  0  0  0  0  0  0
  -23.0180  -12.4970   22.2810 H   0  0  0  0  0  0  0  0  0  0  0  0
  -21.7460  -13.6630   22.0980 H   0  0  0  0  0  0  0  0  0  0  0  0
  -26.0690  -15.5310   20.0350 N   0  0  0  0  0  0  0  0  0  0  0  0
  -25.3430  -16.2250   20.1750 H   0  0  0  0  0  0  0  0  0  0  0  0
  -26.9390  -15.9290   19.7040 H   0  0  0  0  0  0  0  0  0  0  0  0
  1  4  1  0
  1  2  2  0
  4  6  1  0
  4  3  1  1
  6  5  1  0
  7  8  1  0
  7  4  1  0
  9 20  2  0
 10  8  1  0
 10 15  1  0
 11 19  1  0
 11 21  1  0
 12 18  1  0
 12 14  1  0
 13 19  1  0
 14 13  1  0
 15 14  2  0
 16 10  2  0
 17 16  1  0
 17 12  2  0
 18 11  1  0
 19  9  1  0
 21 23  2  0
 22 21  1  0
 24 22  1  0
 25 34  2  0
 25 30  1  0
 26 22  1  0
 26 30  1  0
 27 26  1  0
 28 29  1  0
 28 27  1  0
 29 25  1  0
 30 31  2  0
 31 32  1  0
 33 32  2  0
 34 33  1  0
 35  9  1  0
 35 36  1  0
 35 45  1  0
 36 39  1  0
 37 41  1  0
 37 36  1  0
 38 37  2  0
 41 40  1  0
 43 41  1  0
 43 44  1  0
 43 42  1  0
 45 48  1  1
 45 46  1  0
 47 45  1  0
 49 50  1  0
 49  1  1  0
 50 52  2  0
 50 51  1  0
 53 57  1  0
 55 53  2  0
 55 58  1  0
 56 54  1  0
 57 52  1  0
 57 54  2  0
 58 56  2  0
 59 65  1  0
 60 65  1  0
 61 62  1  0
 61 60  1  0
 63 62  1  0
 63 72  1  0
 63 64  1  0
 65 64  1  0
 66 59  2  0
 67 58  1  0
 67 59  1  0
 68 67  1  0
 69 70  2  0
 70 89  1  0
 71 70  1  0
 71 74  1  0
 72 69  1  0
 72 73  1  0
 73 71  2  0
 74 75  1  0
 75 76  2  0
 77 80  1  0
 77 76  1  0
 78 77  2  0
 79 78  1  0
 79 74  2  0
 80 81  1  0
 81 86  2  0
 81 82  1  0
 82 83  2  0
 83 84  1  0
 84 88  1  0
 85 84  2  0
 86 85  1  0
 87 86  1  0
 89 90  1  0
 90 93  1  0
 90 92  1  0
 91 89  2  0
 94 95  1  0
 94 69  1  0
 96 94  1  0
M  ISO  4   7 101   8 101  59 100  67 100
M  END
>  <TORSDO>  (14) 
F 22

>  <SCORE>  (14) 
-11.710

>  <name>  (14) 
13

>  <ligand_id>  (14) 
13

>  <original_smiles>  (14) 
[H]c1c([H])c([H])c2c(c1[H])C([H])([H])C([H])([H])C([H])([H])C2([H])N([H])C(=O)C1([H])N(C(=O)C([H])(N([H])C(=O)C([H])(N([H])C([H])([H])[H])C([H])([H])[H])C(C([H])([H])[H])(C([H])([H])[H])C([H])([H])[H])C([H])([H])c2c([H])c(OC([H])([H])C(C(=O)C([H])([H])C(=Nc3c([H])c([H])c(N([H])C(=O)N4C([H])([H])C([H])([H])C([H])([H])C([H])(n5nc(-c6c([H])c([H])c(Oc7c([H])c([H])c(F)c([H])c7F)c([H])c6[H])c(C(=O)N([H])[H])c5N([H])[H])C4([H])[H])c([H])c3[H])C([H])([H])[H])(C([H])([H])[H])C([H])([H])C([H])([H])[H])c([H])c([H])c2C1([H])[H]

>  <smiles>  (14) 
[H]c1c([H])c([H])c2c(c1[H])C([H])([H])C([H])([H])C([H])([H])C2([H])N([H])C(=O)C1([H])N(C(=O)C([H])(N([H])C(=O)C([H])(N([H])C([H])([H])[H])C([H])([H])[H])C(C([H])([H])[H])(C([H])([H])[H])C([H])([H])[H])C([H])([H])c2c([H])c(OC([H])([H])C(C(=O)C([H])([H])C(=Nc3c([H])c([H])c(N([H])C(=O)N4C([H])([H])C([H])([H])C([H])([H])C([H])(n5nc(-c6c([H])c([H])c(Oc7c([H])c([H])c(F)c([H])c7F)c([H])c6[H])c(C(=O)N([H])[H])c5N([H])[H])C4([H])[H])c([H])c3[H])C([H])([H])[H])(C([H])([H])[H])C([H])([H])C([H])([H])[H])c([H])c([H])c2C1([H])[H]

$$$$
14:0:0
     RDKit          3D

 98106  0  0  1  0  0  0  0  0999 V2000
  -31.1810  -20.8270   20.8950 C   0  0  0  0  0  3  0  0  0  0  0  0
  -28.9310  -20.6490   19.9610 C   0  0  0  0  0  3  0  0  0  0  0  0
  -31.2250  -19.4330   21.0430 C   0  0  0  0  0  3  0  0  0  0  0  0
  -28.9720  -19.2500   20.1130 C   0  0  0  0  0  3  0  0  0  0  0  0
  -30.0380  -21.4340   20.3430 C   0  0  0  0  0  0  0  0  0  0  0  0
  -30.1250  -18.6420   20.6470 C   0  0  0  0  0  0  0  0  0  0  0  0
  -29.9990  -22.9330   20.1770 C   0  0  0  0  0  2  0  0  0  0  0  0
  -29.4830  -23.6140   21.4520 C   0  0  0  0  0  2  0  0  0  0  0  0
  -28.8570  -25.7310   22.6650 C   0  0  0  0  0  1  0  0  0  0  0  0
  -29.3790  -25.1430   21.3390 C   0  0  0  0  0  3  0  0  0  0  0  0
  -28.4830  -25.5550   20.1590 C   0  0  0  0  0  2  0  0  0  0  0  0
  -28.5910  -26.9560   19.9820 O   0  0  0  0  0  0  0  0  0  0  0  0
  -24.7550  -31.9460   23.2120 C   0  0  0  0  0  0  0  0  0  0  0  0
  -27.4010  -27.6300   20.0110 C   0  0  0  0  0  0  0  0  0  0  0  0
  -23.5400  -30.5670   21.5560 C   0  0  0  0  0  3  0  0  0  0  0  0
  -24.9860  -29.0720   20.0880 C   0  0  0  0  0  0  0  0  0  0  0  0
  -26.0560  -30.9630   21.3340 C   0  0  0  0  0  2  0  0  0  0  0  0
  -26.1440  -29.6110   20.6650 C   0  0  0  0  0  0  0  0  0  0  0  0
  -27.3570  -28.8980   20.6210 C   0  0  0  0  0  3  0  0  0  0  0  0
  -26.2300  -27.0900   19.4330 C   0  0  0  0  0  3  0  0  0  0  0  0
  -25.0220  -27.8090   19.4720 C   0  0  0  0  0  3  0  0  0  0  0  0
  -23.7340  -29.9150   20.1620 C   0  0  0  0  0  2  0  0  0  0  0  0
  -24.8010  -31.1700   22.0930 N   0  0  0  0  0  0  0  0  0  0  0  0
  -23.6790  -32.2020   23.7690 O   0  0  0  0  0  0  0  0  0  0  0  0
  -22.9100  -29.5210   22.5030 C   0  0  0  0  0  0  0  0  0  0  0  0
  -21.5950  -29.2950   22.3480 N   0  0  0  0  0  0  0  0  0  0  0  0
  -23.5970  -28.9170   23.3300 O   0  0  0  0  0  0  0  0  0  0  0  0
  -21.1000  -29.8360   21.6530 H   0  0  0  0  0  0  0  0  0  0  0  0
  -18.2430  -28.0310   22.8050 C   0  0  0  0  0  0  0  0  0  0  0  0
  -20.7930  -28.3320   23.1010 C   0  0  0  0  0  3  0  0  0  0  0  0
  -20.9270  -26.9110   22.5060 C   0  0  0  0  0  2  0  0  0  0  0  0
  -19.8380  -26.5840   21.4790 C   0  0  0  0  0  2  0  0  0  0  0  0
  -18.4490  -26.6940   22.1160 C   0  0  0  0  0  2  0  0  0  0  0  0
  -19.3440  -28.8070   23.2540 C   0  0  0  0  0  0  0  0  0  0  0  0
  -19.0990  -30.0590   23.8580 C   0  0  0  0  0  3  0  0  0  0  0  0
  -17.7840  -30.5340   24.0220 C   0  0  0  0  0  3  0  0  0  0  0  0
  -16.6960  -29.7540   23.5920 C   0  0  0  0  0  3  0  0  0  0  0  0
  -16.9270  -28.5050   22.9900 C   0  0  0  0  0  3  0  0  0  0  0  0
  -26.0460  -32.5710   23.8310 C   0  0  0  0  0  3  0  0  0  0  0  0
  -26.6550  -31.7100   25.0040 C   0  0  1  0  0  0  0  0  0  0  0  0
  -25.6100  -31.2530   26.0480 C   0  0  0  0  0  1  0  0  0  0  0  0
  -27.3520  -30.4460   24.4490 C   0  0  0  0  0  1  0  0  0  0  0  0
  -27.7420  -32.5270   25.7440 C   0  0  0  0  0  1  0  0  0  0  0  0
  -25.7010  -33.9200   24.2980 N   0  0  0  0  0  0  0  0  0  0  0  0
  -25.9460  -35.0470   23.6160 C   0  0  0  0  0  0  0  0  0  0  0  0
  -26.5590  -35.0620   22.5440 O   0  0  0  0  0  0  0  0  0  0  0  0
  -25.1470  -33.9790   25.1400 H   0  0  0  0  0  0  0  0  0  0  0  0
  -24.1240  -36.7760   23.5140 C   0  0  0  0  0  1  0  0  0  0  0  0
  -25.4280  -36.3660   24.2190 C   0  0  0  0  0  3  0  0  0  0  0  0
  -27.5720  -37.2750   24.9980 C   0  0  0  0  0  1  0  0  0  0  0  0
  -26.4050  -37.4730   24.1410 N   0  0  0  0  0  0  0  0  0  0  0  0
  -25.9690  -38.3550   24.3980 H   0  0  0  0  0  0  0  0  0  0  0  0
  -30.2390  -17.1420   20.7660 C   0  0  0  0  0  2  0  0  0  0  0  0
  -30.7770  -16.6940   22.1400 C   0  0  0  0  0  2  0  0  0  0  0  0
  -31.2490  -15.2880   22.1040 N   0  0  2  0  0  4  0  0  0  0  0  0
  -30.5100  -14.7750   21.6480 H   0  0  0  0  0  0  0  0  0  0  0  0
  -32.1730  -15.4860   24.4720 C   0  0  0  0  0  1  0  0  0  0  0  0
  -31.3820  -14.6520   23.4440 C   0  0  0  0  0  2  0  0  0  0  0  0
  -32.4400  -15.1110   21.2250 C   0  0  0  0  0  2  0  0  0  0  0  0
  -32.3410  -13.8700   20.3190 C   0  0  0  0  0  2  0  0  0  0  0  0
  -30.5210  -13.2530   18.7240 C   0  0  0  0  0  0  0  0  0  0  0  0
  -29.7430  -11.1550   17.7300 C   0  0  0  0  0  2  0  0  0  0  0  0
  -28.5160  -11.2080   16.8140 C   0  0  0  0  0  2  0  0  0  0  0  0
  -27.2270  -11.1050   17.6460 C   0  0  0  0  0  2  0  0  0  0  0  0
  -27.1900  -12.1360   18.8010 C   0  0  0  0  0  3  0  0  0  0  0  0
  -28.4940  -12.1010   19.6300 C   0  0  0  0  0  2  0  0  0  0  0  0
  -29.6490  -12.2260   18.7240 N   0  0  0  0  0  0  0  0  0  0  0  0
  -31.1090  -13.6770   17.7240 O   0  0  0  0  0  0  0  0  0  0  0  0
  -30.9710  -13.4740   19.9700 N   0  0  0  0  0  0  0  0  0  0  0  0
  -30.4770  -12.9230   20.6580 H   0  0  0  0  0  0  0  0  0  0  0  0
  -25.1660  -12.8860   20.2070 C   0  0  0  0  0  0  0  0  0  0  0  0
  -24.1750  -12.1780   20.8330 C   0  0  0  0  0  0  0  0  0  0  0  0
  -24.4720  -10.7990   20.6060 C   0  0  0  0  0  0  0  0  0  0  0  0
  -26.0100  -11.9410   19.6420 N   0  0  0  0  0  0  0  0  0  0  0  0
  -25.6100  -10.6770   19.9360 N   0  0  0  0  0  0  0  0  0  0  0  0
  -23.7080   -9.5890   20.9400 C   0  0  0  0  0  0  0  0  0  0  0  0
  -24.2290   -8.6020   21.8050 C   0  0  0  0  0  3  0  0  0  0  0  0
  -23.4680   -7.4580   22.1250 C   0  0  0  0  0  3  0  0  0  0  0  0
  -22.1710   -7.2920   21.5820 C   0  0  0  0  0  0  0  0  0  0  0  0
  -21.6670   -8.2670   20.7020 C   0  0  0  0  0  3  0  0  0  0  0  0
  -22.4280   -9.4030   20.3810 C   0  0  0  0  0  3  0  0  0  0  0  0
  -21.3700   -6.2010   21.8150 O   0  0  0  0  0  0  0  0  0  0  0  0
  -21.4770   -5.4630   22.9670 C   0  0  0  0  0  0  0  0  0  0  0  0
  -21.1850   -6.0140   24.2340 C   0  0  0  0  0  3  0  0  0  0  0  0
  -21.2410   -5.2020   25.3850 C   0  0  0  0  0  3  0  0  0  0  0  0
  -21.5760   -3.8400   25.2700 C   0  0  0  0  0  0  0  0  0  0  0  0
  -21.8610   -3.2880   24.0080 C   0  0  0  0  0  3  0  0  0  0  0  0
  -21.8090   -4.0980   22.8590 C   0  0  0  0  0  0  0  0  0  0  0  0
  -22.0620   -3.5560   21.6440 F   0  0  0  0  0  0  0  0  0  0  0  0
  -21.6210   -3.0570   26.3730 F   0  0  0  0  0  0  0  0  0  0  0  0
  -22.9700  -12.7470   21.5230 C   0  0  0  0  0  0  0  0  0  0  0  0
  -22.4520  -12.0460   22.5250 N   0  0  0  0  0  0  0  0  0  0  0  0
  -22.5090  -13.8430   21.2070 O   0  0  0  0  0  0  0  0  0  0  0  0
  -22.8430  -11.1560   22.7960 H   0  0  0  0  0  0  0  0  0  0  0  0
  -21.6530  -12.4050   23.0290 H   0  0  0  0  0  0  0  0  0  0  0  0
  -25.4110  -14.2470   20.0520 N   0  0  0  0  0  0  0  0  0  0  0  0
  -24.7770  -14.9560   20.4060 H   0  0  0  0  0  0  0  0  0  0  0  0
  -26.1830  -14.6330   19.5230 H   0  0  0  0  0  0  0  0  0  0  0  0
  1  3  1  0
  2  4  2  0
  2  5  1  0
  4  6  1  0
  5  1  2  0
  6 53  1  0
  6  3  2  0
  7  5  1  0
  7  8  1  0
 10  8  1  0
 10  9  1  0
 11 10  1  0
 12 14  1  0
 12 11  1  0
 13 24  2  0
 14 19  1  0
 15 23  1  0
 15 25  1  0
 16 22  1  0
 16 18  1  0
 17 23  1  0
 18 17  1  0
 19 18  2  0
 20 21  1  0
 20 14  2  0
 21 16  2  0
 22 15  1  0
 23 13  1  0
 25 27  2  0
 26 25  1  0
 28 26  1  0
 29 38  2  0
 29 34  1  0
 30 26  1  0
 30 34  1  0
 31 30  1  0
 32 33  1  0
 32 31  1  0
 33 29  1  0
 34 35  2  0
 35 36  1  0
 37 36  2  0
 38 37  1  0
 39 13  1  0
 39 44  1  0
 39 40  1  0
 40 43  1  1
 40 41  1  0
 42 40  1  0
 44 47  1  0
 45 49  1  0
 45 44  1  0
 46 45  2  0
 49 48  1  0
 51 49  1  0
 51 52  1  0
 51 50  1  0
 53 54  1  0
 55 54  1  0
 55 58  1  0
 55 56  1  6
 58 57  1  0
 59 55  1  0
 60 59  1  0
 61 69  1  0
 62 67  1  0
 63 64  1  0
 63 62  1  0
 65 64  1  0
 65 66  1  0
 65 74  1  0
 67 61  1  0
 67 66  1  0
 68 61  2  0
 69 60  1  0
 69 70  1  0
 71 72  2  0
 72 91  1  0
 73 72  1  0
 73 76  1  0
 74 75  1  0
 74 71  1  0
 75 73  2  0
 76 77  1  0
 77 78  2  0
 79 82  1  0
 79 78  1  0
 80 79  2  0
 81 80  1  0
 81 76  2  0
 82 83  1  0
 83 84  1  0
 84 85  2  0
 86 85  1  0
 86 90  1  0
 87 86  2  0
 88 83  2  0
 88 87  1  0
 89 88  1  0
 91 92  1  0
 92 94  1  0
 92 95  1  0
 93 91  2  0
 96 71  1  0
 96 97  1  0
 98 96  1  0
M  ISO  4  11 101  12 101  61 100  69 100
M  END
>  <TORSDO>  (15) 
F 26

>  <SCORE>  (15) 
0.731

>  <name>  (15) 
14

>  <ligand_id>  (15) 
14

>  <original_smiles>  (15) 
[H]c1c([H])c([H])c2c(c1[H])C([H])([H])C([H])([H])C([H])([H])C2([H])N([H])C(=O)C1([H])N(C(=O)C([H])(N([H])C(=O)C([H])(N([H])C([H])([H])[H])C([H])([H])[H])C(C([H])([H])[H])(C([H])([H])[H])C([H])([H])[H])C([H])([H])c2c([H])c(OC([H])([H])C([H])(C([H])([H])[H])C([H])([H])C([H])([H])c3c([H])c([H])c(C([H])([H])C([H])([H])[N+]([H])(C([H])([H])C([H])([H])[H])C([H])([H])C([H])([H])N([H])C(=O)N4C([H])([H])C([H])([H])C([H])([H])C([H])(n5nc(-c6c([H])c([H])c(Oc7c([H])c([H])c(F)c([H])c7F)c([H])c6[H])c(C(=O)N([H])[H])c5N([H])[H])C4([H])[H])c([H])c3[H])c([H])c([H])c2C1([H])[H]

>  <smiles>  (15) 
[H]c1c([H])c([H])c2c(c1[H])C([H])([H])C([H])([H])C([H])([H])C2([H])N([H])C(=O)C1([H])N(C(=O)C([H])(N([H])C(=O)C([H])(N([H])C([H])([H])[H])C([H])([H])[H])C(C([H])([H])[H])(C([H])([H])[H])C([H])([H])[H])C([H])([H])c2c([H])c(OC([H])([H])C([H])(C([H])([H])[H])C([H])([H])C([H])([H])c3c([H])c([H])c(C([H])([H])C([H])([H])[N+]([H])(C([H])([H])C([H])([H])[H])C([H])([H])C([H])([H])N([H])C(=O)N4C([H])([H])C([H])([H])C([H])([H])C([H])(n5nc(-c6c([H])c([H])c(Oc7c([H])c([H])c(F)c([H])c7F)c([H])c6[H])c(C(=O)N([H])[H])c5N([H])[H])C4([H])[H])c([H])c3[H])c([H])c([H])c2C1([H])[H]

$$$$
15:0:0
     RDKit          3D

 94102  0  0  1  0  0  0  0  0999 V2000
  -31.3840  -20.6450   20.0080 C   0  0  0  0  0  2  0  0  0  0  0  0
  -31.5930  -21.8340   20.9470 C   0  0  0  0  0  3  0  0  0  0  0  0
  -30.0780  -21.7850   21.2370 C   0  0  0  0  0  3  0  0  0  0  0  0
  -30.0840  -20.4130   20.6420 N   0  0  0  0  0  0  0  0  0  0  0  0
  -32.4670  -21.5170   22.0980 N   0  0  0  0  0  4  0  0  0  0  0  0
  -32.2080  -20.6450   22.5220 H   0  0  0  0  0  0  0  0  0  0  0  0
  -32.4200  -22.2360   22.7960 H   0  0  0  0  0  0  0  0  0  0  0  0
  -33.4210  -21.4430   21.7990 H   0  0  0  0  0  0  0  0  0  0  0  0
  -29.1000  -22.7630   20.5230 C   0  0  0  0  0  2  0  0  0  0  0  0
  -29.3270  -24.2950   20.7490 C   0  0  0  0  0  2  0  0  0  0  0  0
  -28.2100  -25.1630   20.1030 C   0  0  0  0  0  2  0  0  0  0  0  0
  -28.3620  -26.5980   20.2640 O   0  0  0  0  0  0  0  0  0  0  0  0
  -24.5850  -31.8610   23.2480 C   0  0  0  0  0  0  0  0  0  0  0  0
  -27.2090  -27.3700   20.1990 C   0  0  0  0  0  0  0  0  0  0  0  0
  -23.3720  -30.4610   21.6150 C   0  0  0  0  0  3  0  0  0  0  0  0
  -24.8190  -28.9110   20.1950 C   0  0  0  0  0  0  0  0  0  0  0  0
  -25.8990  -30.8120   21.3960 C   0  0  0  0  0  2  0  0  0  0  0  0
  -25.9840  -29.4280   20.7760 C   0  0  0  0  0  0  0  0  0  0  0  0
  -27.1810  -28.6660   20.7730 C   0  0  0  0  0  3  0  0  0  0  0  0
  -26.0240  -26.8880   19.5910 C   0  0  0  0  0  3  0  0  0  0  0  0
  -24.8340  -27.6360   19.6060 C   0  0  0  0  0  3  0  0  0  0  0  0
  -23.5760  -29.7760   20.2400 C   0  0  0  0  0  2  0  0  0  0  0  0
  -24.6390  -31.0590   22.1480 N   0  0  0  0  0  0  0  0  0  0  0  0
  -23.5040  -32.1390   23.7860 O   0  0  0  0  0  0  0  0  0  0  0  0
  -22.7160  -29.4440   22.5790 C   0  0  0  0  0  0  0  0  0  0  0  0
  -21.3910  -29.2700   22.4530 N   0  0  0  0  0  0  0  0  0  0  0  0
  -23.3980  -28.8140   23.3920 O   0  0  0  0  0  0  0  0  0  0  0  0
  -20.9040  -29.8320   21.7710 H   0  0  0  0  0  0  0  0  0  0  0  0
  -18.0070  -28.1020   22.9470 C   0  0  0  0  0  0  0  0  0  0  0  0
  -20.5670  -28.3370   23.2200 C   0  0  0  0  0  3  0  0  0  0  0  0
  -20.6560  -26.9060   22.6420 C   0  0  0  0  0  2  0  0  0  0  0  0
  -19.5520  -26.5950   21.6260 C   0  0  0  0  0  2  0  0  0  0  0  0
  -18.1700  -26.7530   22.2680 C   0  0  0  0  0  2  0  0  0  0  0  0
  -19.1320  -28.8540   23.3780 C   0  0  0  0  0  0  0  0  0  0  0  0
  -18.9240  -30.1200   23.9680 C   0  0  0  0  0  3  0  0  0  0  0  0
  -17.6240  -30.6340   24.1290 C   0  0  0  0  0  3  0  0  0  0  0  0
  -16.5140  -29.8790   23.7130 C   0  0  0  0  0  3  0  0  0  0  0  0
  -16.7060  -28.6130   23.1310 C   0  0  0  0  0  3  0  0  0  0  0  0
  -25.8710  -32.4870   23.8720 C   0  0  0  0  0  3  0  0  0  0  0  0
  -26.3850  -31.7050   25.1420 C   0  0  1  0  0  0  0  0  0  0  0  0
  -25.2910  -31.4640   26.2110 C   0  0  0  0  0  1  0  0  0  0  0  0
  -26.9580  -30.3310   24.7260 C   0  0  0  0  0  1  0  0  0  0  0  0
  -27.5470  -32.4870   25.7970 C   0  0  0  0  0  1  0  0  0  0  0  0
  -25.5680  -33.8860   24.2050 N   0  0  0  0  0  0  0  0  0  0  0  0
  -25.9090  -34.9360   23.4470 C   0  0  0  0  0  0  0  0  0  0  0  0
  -26.5790  -34.8280   22.4160 O   0  0  0  0  0  0  0  0  0  0  0  0
  -24.9710  -34.0430   25.0050 H   0  0  0  0  0  0  0  0  0  0  0  0
  -24.1820  -36.7260   23.0900 C   0  0  0  0  0  1  0  0  0  0  0  0
  -25.4260  -36.3270   23.8990 C   0  0  0  0  0  3  0  0  0  0  0  0
  -27.5730  -37.2020   24.7140 C   0  0  0  0  0  1  0  0  0  0  0  0
  -26.4640  -37.3760   23.7780 N   0  0  0  0  0  0  0  0  0  0  0  0
  -26.0660  -38.3000   23.9220 H   0  0  0  0  0  0  0  0  0  0  0  0
  -30.0380  -19.3250   21.6510 C   0  0  0  0  0  2  0  0  0  0  0  0
  -30.5940  -17.8930   21.3090 C   0  0  0  0  0  2  0  0  0  0  0  0
  -30.1920  -17.2150   18.8560 C   0  0  0  0  0  1  0  0  0  0  0  0
  -29.7930  -16.9860   20.3270 C   0  0  0  0  0  3  0  0  0  0  0  0
  -30.6100  -14.5120   20.3930 C   0  0  0  0  0  0  0  0  0  0  0  0
  -30.3700  -12.3100   19.3080 C   0  0  0  0  0  2  0  0  0  0  0  0
  -29.4300  -12.4980   18.0970 C   0  0  0  0  0  2  0  0  0  0  0  0
  -27.9420  -12.4020   18.5000 C   0  0  0  0  0  2  0  0  0  0  0  0
  -27.6060  -13.2170   19.7800 C   0  0  0  0  0  3  0  0  0  0  0  0
  -28.6630  -12.9920   20.8870 C   0  0  0  0  0  2  0  0  0  0  0  0
  -29.9870  -13.3000   20.3220 N   0  0  0  0  0  0  0  0  0  0  0  0
  -31.7660  -14.6910   19.9980 O   0  0  0  0  0  0  0  0  0  0  0  0
  -29.7720  -15.5370   20.6810 N   0  0  0  0  0  0  0  0  0  0  0  0
  -28.8660  -15.2130   20.9880 H   0  0  0  0  0  0  0  0  0  0  0  0
  -25.2150  -13.8300   20.5000 C   0  0  0  0  0  0  0  0  0  0  0  0
  -24.1450  -13.0600   20.8780 C   0  0  0  0  0  0  0  0  0  0  0  0
  -24.6030  -11.7090   20.8490 C   0  0  0  0  0  0  0  0  0  0  0  0
  -26.2530  -12.9430   20.2630 N   0  0  0  0  0  0  0  0  0  0  0  0
  -25.8910  -11.6640   20.5320 N   0  0  0  0  0  0  0  0  0  0  0  0
  -23.8740  -10.4490   21.0460 C   0  0  0  0  0  0  0  0  0  0  0  0
  -24.3180   -9.4750   21.9660 C   0  0  0  0  0  3  0  0  0  0  0  0
  -23.5890   -8.2790   22.1500 C   0  0  0  0  0  3  0  0  0  0  0  0
  -22.4030   -8.0520   21.4120 C   0  0  0  0  0  0  0  0  0  0  0  0
  -21.9800   -9.0140   20.4800 C   0  0  0  0  0  3  0  0  0  0  0  0
  -22.7080  -10.2000   20.2950 C   0  0  0  0  0  3  0  0  0  0  0  0
  -21.6430   -6.9090   21.5070 O   0  0  0  0  0  0  0  0  0  0  0  0
  -21.6240   -6.1500   22.6500 C   0  0  0  0  0  0  0  0  0  0  0  0
  -21.2520   -6.6920   23.8980 C   0  0  0  0  0  3  0  0  0  0  0  0
  -21.1760   -5.8610   25.0330 C   0  0  0  0  0  3  0  0  0  0  0  0
  -21.4620   -4.4880   24.9210 C   0  0  0  0  0  0  0  0  0  0  0  0
  -21.8260   -3.9440   23.6770 C   0  0  0  0  0  3  0  0  0  0  0  0
  -21.9060   -4.7730   22.5450 C   0  0  0  0  0  0  0  0  0  0  0  0
  -22.2360   -4.2400   21.3440 F   0  0  0  0  0  0  0  0  0  0  0  0
  -21.3820   -3.6860   26.0090 F   0  0  0  0  0  0  0  0  0  0  0  0
  -22.7500  -13.5440   21.1500 C   0  0  0  0  0  0  0  0  0  0  0  0
  -22.0190  -12.8530   22.0190 N   0  0  0  0  0  0  0  0  0  0  0  0
  -22.3120  -14.5660   20.6240 O   0  0  0  0  0  0  0  0  0  0  0  0
  -22.3850  -12.0290   22.4720 H   0  0  0  0  0  0  0  0  0  0  0  0
  -21.0800  -13.1530   22.2330 H   0  0  0  0  0  0  0  0  0  0  0  0
  -25.3850  -15.2000   20.3210 N   0  0  0  0  0  0  0  0  0  0  0  0
  -24.6240  -15.8640   20.4310 H   0  0  0  0  0  0  0  0  0  0  0  0
  -26.2320  -15.6300   19.9670 H   0  0  0  0  0  0  0  0  0  0  0  0
  1  4  1  0
  1  2  1  0
  2  3  1  0
  2  5  1  0
  3  9  1  0
  4  3  1  0
  4 53  1  0
  5  6  1  0
  5  7  1  0
  8  5  1  0
  9 10  1  0
 11 12  1  0
 11 10  1  0
 13 24  2  0
 14 12  1  0
 14 19  1  0
 15 23  1  0
 15 25  1  0
 16 22  1  0
 16 18  1  0
 17 23  1  0
 18 17  1  0
 19 18  2  0
 20 21  1  0
 20 14  2  0
 21 16  2  0
 22 15  1  0
 23 13  1  0
 25 27  2  0
 26 25  1  0
 28 26  1  0
 29 38  2  0
 29 34  1  0
 30 26  1  0
 30 34  1  0
 31 30  1  0
 32 33  1  0
 32 31  1  0
 33 29  1  0
 34 35  2  0
 35 36  1  0
 37 36  2  0
 38 37  1  0
 39 13  1  0
 39 44  1  0
 39 40  1  0
 40 43  1  1
 40 41  1  0
 42 40  1  0
 44 47  1  0
 45 49  1  0
 45 44  1  0
 46 45  2  0
 49 48  1  0
 51 49  1  0
 51 52  1  0
 51 50  1  0
 54 53  1  0
 56 55  1  0
 56 65  1  0
 56 54  1  0
 57 65  1  0
 58 63  1  0
 59 60  1  0
 59 58  1  0
 61 60  1  0
 61 70  1  0
 61 62  1  0
 63 57  1  0
 63 62  1  0
 64 57  2  0
 65 66  1  0
 67 68  2  0
 68 87  1  0
 69 68  1  0
 69 72  1  0
 70 67  1  0
 70 71  1  0
 71 69  2  0
 72 73  1  0
 73 74  2  0
 75 78  1  0
 75 74  1  0
 76 75  2  0
 77 76  1  0
 77 72  2  0
 78 79  1  0
 79 80  1  0
 80 81  2  0
 82 81  1  0
 82 86  1  0
 83 82  2  0
 84 79  2  0
 84 83  1  0
 85 84  1  0
 87 88  1  0
 88 91  1  0
 88 90  1  0
 89 87  2  0
 92 93  1  0
 92 67  1  0
 94 92  1  0
M  ISO  4  11 101  12 101  57 100  65 100
M  END
>  <TORSDO>  (16) 
F 23

>  <SCORE>  (16) 
-12.891

>  <name>  (16) 
15

>  <ligand_id>  (16) 
15

>  <original_smiles>  (16) 
[H]c1c([H])c([H])c2c(c1[H])C([H])([H])C([H])([H])C([H])([H])C2([H])N([H])C(=O)C1([H])N(C(=O)C([H])(N([H])C(=O)C([H])(N([H])C([H])([H])[H])C([H])([H])[H])C(C([H])([H])[H])(C([H])([H])[H])C([H])([H])[H])C([H])([H])c2c([H])c(OC([H])([H])C([H])([H])C([H])([H])C3([H])N(C([H])([H])C([H])([H])C([H])(N([H])C(=O)N4C([H])([H])C([H])([H])C([H])([H])C([H])(n5nc(-c6c([H])c([H])c(Oc7c([H])c([H])c(F)c([H])c7F)c([H])c6[H])c(C(=O)N([H])[H])c5N([H])[H])C4([H])[H])C([H])([H])[H])C([H])([H])C3([H])[N+]([H])([H])[H])c([H])c([H])c2C1([H])[H]

>  <smiles>  (16) 
[H]c1c([H])c([H])c2c(c1[H])C([H])([H])C([H])([H])C([H])([H])C2([H])N([H])C(=O)C1([H])N(C(=O)C([H])(N([H])C(=O)C([H])(N([H])C([H])([H])[H])C([H])([H])[H])C(C([H])([H])[H])(C([H])([H])[H])C([H])([H])[H])C([H])([H])c2c([H])c(OC([H])([H])C([H])([H])C([H])([H])C3([H])N(C([H])([H])C([H])([H])C([H])(N([H])C(=O)N4C([H])([H])C([H])([H])C([H])([H])C([H])(n5nc(-c6c([H])c([H])c(Oc7c([H])c([H])c(F)c([H])c7F)c([H])c6[H])c(C(=O)N([H])[H])c5N([H])[H])C4([H])[H])C([H])([H])[H])C([H])([H])C3([H])[N+]([H])([H])[H])c([H])c([H])c2C1([H])[H]

$$$$
16:0:0
     RDKit          3D

 91 99  0  0  1  0  0  0  0  0999 V2000
  -28.8400  -23.0950   22.2870 C   0  0  0  0  0  1  0  0  0  0  0  0
  -29.2430  -23.2250   20.8610 N   0  0  1  0  0  4  0  0  0  0  0  0
  -30.1630  -23.6410   20.9020 H   0  0  0  0  0  0  0  0  0  0  0  0
  -29.4380  -21.8980   20.1520 C   0  0  0  0  0  2  0  0  0  0  0  0
  -29.3240  -20.0210   21.9180 C   0  0  0  0  0  2  0  0  0  0  0  0
  -30.1790  -20.7840   20.9500 C   0  0  0  0  0  3  0  0  0  0  0  0
  -30.0090  -19.2310   20.8220 C   0  0  0  0  0  3  0  0  0  0  0  0
  -30.3510  -17.4760   22.6230 C   0  0  0  0  0  1  0  0  0  0  0  0
  -30.9680  -18.1220   21.3510 C   0  0  0  0  0  3  0  0  0  0  0  0
  -31.4390  -16.9950   20.3680 C   0  0  0  0  0  0  0  0  0  0  0  0
  -31.8060  -17.4720   18.9600 C   0  0  0  0  0  1  0  0  0  0  0  0
  -31.5370  -15.7760   20.8030 N   0  0  0  0  0  0  0  0  0  0  0  0
  -32.0790  -14.7220   20.0530 C   0  0  0  0  0  0  0  0  0  0  0  0
  -31.5080  -12.5820   18.9260 C   0  0  0  0  0  2  0  0  0  0  0  0
  -30.5500  -12.8760   17.7550 C   0  0  0  0  0  2  0  0  0  0  0  0
  -29.0910  -12.8760   18.2480 C   0  0  0  0  0  2  0  0  0  0  0  0
  -28.8880  -13.7520   19.5130 C   0  0  0  0  0  3  0  0  0  0  0  0
  -29.9600  -13.4470   20.5780 C   0  0  0  0  0  2  0  0  0  0  0  0
  -31.2830  -13.6160   19.9520 N   0  0  0  0  0  0  0  0  0  0  0  0
  -33.1580  -14.7820   19.4580 O   0  0  0  0  0  0  0  0  0  0  0  0
  -26.6320  -14.6040   20.4010 C   0  0  0  0  0  0  0  0  0  0  0  0
  -25.4880  -13.9500   20.7750 C   0  0  0  0  0  0  0  0  0  0  0  0
  -25.7620  -12.5540   20.6220 C   0  0  0  0  0  0  0  0  0  0  0  0
  -27.5350  -13.6140   20.0470 N   0  0  0  0  0  0  0  0  0  0  0  0
  -27.0190  -12.3710   20.2370 N   0  0  0  0  0  0  0  0  0  0  0  0
  -24.8830  -11.3870   20.7620 C   0  0  0  0  0  0  0  0  0  0  0  0
  -25.2080  -10.3170   21.6250 C   0  0  0  0  0  3  0  0  0  0  0  0
  -24.3410   -9.2120   21.7540 C   0  0  0  0  0  3  0  0  0  0  0  0
  -23.1310   -9.1710   21.0200 C   0  0  0  0  0  0  0  0  0  0  0  0
  -22.8240  -10.2270   20.1430 C   0  0  0  0  0  3  0  0  0  0  0  0
  -23.6920  -11.3230   20.0120 C   0  0  0  0  0  3  0  0  0  0  0  0
  -22.2340   -8.1310   21.0690 O   0  0  0  0  0  0  0  0  0  0  0  0
  -22.0800   -7.3640   22.1970 C   0  0  0  0  0  0  0  0  0  0  0  0
  -21.7500   -7.9360   23.4440 C   0  0  0  0  0  3  0  0  0  0  0  0
  -21.5320   -7.1080   24.5630 C   0  0  0  0  0  3  0  0  0  0  0  0
  -21.6290   -5.7080   24.4360 C   0  0  0  0  0  0  0  0  0  0  0  0
  -21.9480   -5.1360   23.1920 C   0  0  0  0  0  3  0  0  0  0  0  0
  -22.1690   -5.9630   22.0750 C   0  0  0  0  0  0  0  0  0  0  0  0
  -22.4590   -5.4050   20.8740 F   0  0  0  0  0  0  0  0  0  0  0  0
  -21.4080   -4.9120   25.5060 F   0  0  0  0  0  0  0  0  0  0  0  0
  -24.1820  -14.5800   21.1660 C   0  0  0  0  0  0  0  0  0  0  0  0
  -23.4320  -13.9290   22.0500 N   0  0  0  0  0  0  0  0  0  0  0  0
  -23.8430  -15.6770   20.7260 O   0  0  0  0  0  0  0  0  0  0  0  0
  -23.7200  -13.0350   22.4200 H   0  0  0  0  0  0  0  0  0  0  0  0
  -22.5580  -14.3230   22.3650 H   0  0  0  0  0  0  0  0  0  0  0  0
  -26.9770  -15.9490   20.3080 N   0  0  0  0  0  0  0  0  0  0  0  0
  -26.3310  -16.7090   20.4980 H   0  0  0  0  0  0  0  0  0  0  0  0
  -27.8800  -16.2720   19.9890 H   0  0  0  0  0  0  0  0  0  0  0  0
  -28.3350  -24.2100   20.1530 C   0  0  0  0  0  2  0  0  0  0  0  0
  -29.0420  -25.4290   19.4670 C   0  0  0  0  0  2  0  0  0  0  0  0
  -28.8280  -26.7420   20.0560 O   0  0  0  0  0  0  0  0  0  0  0  0
  -24.6710  -31.6250   23.1490 C   0  0  0  0  0  0  0  0  0  0  0  0
  -27.6060  -27.3960   19.9920 C   0  0  0  0  0  0  0  0  0  0  0  0
  -23.5670  -30.2040   21.4530 C   0  0  0  0  0  3  0  0  0  0  0  0
  -25.1260  -28.7900   20.0040 C   0  0  0  0  0  0  0  0  0  0  0  0
  -26.0740  -30.7040   21.3010 C   0  0  0  0  0  2  0  0  0  0  0  0
  -26.2460  -29.3570   20.6200 C   0  0  0  0  0  0  0  0  0  0  0  0
  -27.4830  -28.6690   20.6120 C   0  0  0  0  0  3  0  0  0  0  0  0
  -26.4650  -26.8530   19.3600 C   0  0  0  0  0  3  0  0  0  0  0  0
  -25.2330  -27.5410   19.3670 C   0  0  0  0  0  3  0  0  0  0  0  0
  -23.8330  -29.5760   20.0580 C   0  0  0  0  0  2  0  0  0  0  0  0
  -24.7890  -30.8590   22.0260 N   0  0  0  0  0  0  0  0  0  0  0  0
  -23.5700  -31.8220   23.6820 O   0  0  0  0  0  0  0  0  0  0  0  0
  -22.9630  -29.1210   22.3750 C   0  0  0  0  0  0  0  0  0  0  0  0
  -21.6570  -28.8550   22.2120 N   0  0  0  0  0  0  0  0  0  0  0  0
  -23.6660  -28.5270   23.1960 O   0  0  0  0  0  0  0  0  0  0  0  0
  -21.1440  -29.3930   21.5270 H   0  0  0  0  0  0  0  0  0  0  0  0
  -18.3650  -27.4070   22.5780 C   0  0  0  0  0  0  0  0  0  0  0  0
  -20.8860  -27.8480   22.9420 C   0  0  0  0  0  3  0  0  0  0  0  0
  -21.1150  -26.4390   22.3480 C   0  0  0  0  0  2  0  0  0  0  0  0
  -20.0730  -26.0500   21.2960 C   0  0  0  0  0  2  0  0  0  0  0  0
  -18.6640  -26.0830   21.8950 C   0  0  0  0  0  2  0  0  0  0  0  0
  -19.4100  -28.2420   23.0580 C   0  0  0  0  0  0  0  0  0  0  0  0
  -19.0780  -29.4780   23.6540 C   0  0  0  0  0  3  0  0  0  0  0  0
  -17.7350  -29.8810   23.7790 C   0  0  0  0  0  3  0  0  0  0  0  0
  -16.7040  -29.0410   23.3200 C   0  0  0  0  0  3  0  0  0  0  0  0
  -17.0210  -27.8080   22.7230 C   0  0  0  0  0  3  0  0  0  0  0  0
  -25.9120  -32.3100   23.8040 C   0  0  0  0  0  3  0  0  0  0  0  0
  -25.5300  -33.6880   24.1430 N   0  0  0  0  0  0  0  0  0  0  0  0
  -25.8320  -34.7650   23.4050 C   0  0  0  0  0  0  0  0  0  0  0  0
  -26.5350  -34.7040   22.3920 O   0  0  0  0  0  0  0  0  0  0  0  0
  -24.9080  -33.8040   24.9300 H   0  0  0  0  0  0  0  0  0  0  0  0
  -24.0280  -36.4730   23.0280 C   0  0  0  0  0  1  0  0  0  0  0  0
  -25.2680  -36.1230   23.8650 C   0  0  0  0  0  3  0  0  0  0  0  0
  -27.3420  -37.0970   24.7480 C   0  0  0  0  0  1  0  0  0  0  0  0
  -26.2500  -37.2250   23.7860 N   0  0  0  0  0  0  0  0  0  0  0  0
  -25.7990  -38.1230   23.9370 H   0  0  0  0  0  0  0  0  0  0  0  0
  -26.4420  -31.5480   25.0800 C   0  0  1  0  0  0  0  0  0  0  0  0
  -25.3420  -31.2310   26.1200 C   0  0  0  0  0  1  0  0  0  0  0  0
  -27.1080  -30.2090   24.6790 C   0  0  0  0  0  1  0  0  0  0  0  0
  -27.5340  -32.3920   25.7790 C   0  0  0  0  0  1  0  0  0  0  0  0
  2  3  1  1
  2  1  1  0
  4  2  1  0
  6  4  1  0
  6  5  1  0
  7  6  1  0
  7  9  1  0
  7  5  1  0
  9  8  1  0
 10 12  2  0
 10  9  1  0
 11 10  1  0
 13 12  1  0
 14 19  1  0
 15 16  1  0
 15 14  1  0
 17 16  1  0
 17 24  1  0
 17 18  1  0
 19 13  1  0
 19 18  1  0
 20 13  2  0
 21 22  2  0
 22 41  1  0
 23 26  1  0
 23 22  1  0
 24 25  1  0
 24 21  1  0
 25 23  2  0
 26 27  1  0
 27 28  2  0
 29 32  1  0
 29 28  1  0
 30 29  2  0
 31 30  1  0
 31 26  2  0
 32 33  1  0
 33 34  1  0
 34 35  2  0
 36 35  1  0
 36 40  1  0
 37 36  2  0
 38 33  2  0
 38 37  1  0
 39 38  1  0
 41 42  1  0
 42 45  1  0
 42 44  1  0
 43 41  2  0
 46 21  1  0
 46 47  1  0
 48 46  1  0
 49  2  1  0
 50 51  1  0
 50 49  1  0
 52 63  2  0
 53 51  1  0
 53 58  1  0
 54 62  1  0
 54 64  1  0
 55 61  1  0
 55 57  1  0
 56 62  1  0
 57 56  1  0
 58 57  2  0
 59 60  1  0
 59 53  2  0
 60 55  2  0
 61 54  1  0
 62 52  1  0
 64 66  2  0
 65 64  1  0
 67 65  1  0
 68 77  2  0
 68 73  1  0
 69 65  1  0
 69 73  1  0
 70 69  1  0
 71 72  1  0
 71 70  1  0
 72 68  1  0
 73 74  2  0
 74 75  1  0
 76 75  2  0
 77 76  1  0
 78 52  1  0
 78 79  1  0
 78 88  1  0
 79 82  1  0
 80 84  1  0
 80 79  1  0
 81 80  2  0
 84 83  1  0
 86 84  1  0
 86 87  1  0
 86 85  1  0
 88 91  1  1
 88 89  1  0
 90 88  1  0
M  ISO  4  12 100  13 100  50 101  51 101
M  END
>  <TORSDO>  (17) 
F 22

>  <SCORE>  (17) 
-10.008

>  <name>  (17) 
16

>  <ligand_id>  (17) 
16

>  <original_smiles>  (17) 
[H]c1c([H])c([H])c2c(c1[H])C([H])([H])C([H])([H])C([H])([H])C2([H])N([H])C(=O)C1([H])N(C(=O)C([H])(N([H])C(=O)C([H])(N([H])C([H])([H])[H])C([H])([H])[H])C(C([H])([H])[H])(C([H])([H])[H])C([H])([H])[H])C([H])([H])c2c([H])c(OC([H])([H])C([H])([H])[N+]([H])(C([H])([H])[H])C([H])([H])C3([H])C([H])([H])C3([H])C([H])(C(=NC(=O)N3C([H])([H])C([H])([H])C([H])([H])C([H])(n4nc(-c5c([H])c([H])c(Oc6c([H])c([H])c(F)c([H])c6F)c([H])c5[H])c(C(=O)N([H])[H])c4N([H])[H])C3([H])[H])C([H])([H])[H])C([H])([H])[H])c([H])c([H])c2C1([H])[H]

>  <smiles>  (17) 
[H]c1c([H])c([H])c2c(c1[H])C([H])([H])C([H])([H])C([H])([H])C2([H])N([H])C(=O)C1([H])N(C(=O)C([H])(N([H])C(=O)C([H])(N([H])C([H])([H])[H])C([H])([H])[H])C(C([H])([H])[H])(C([H])([H])[H])C([H])([H])[H])C([H])([H])c2c([H])c(OC([H])([H])C([H])([H])[N+]([H])(C([H])([H])[H])C([H])([H])C3([H])C([H])([H])C3([H])C([H])(C(=NC(=O)N3C([H])([H])C([H])([H])C([H])([H])C([H])(n4nc(-c5c([H])c([H])c(Oc6c([H])c([H])c(F)c([H])c6F)c([H])c5[H])c(C(=O)N([H])[H])c4N([H])[H])C3([H])[H])C([H])([H])[H])C([H])([H])[H])c([H])c([H])c2C1([H])[H]

$$$$
17:0:0
     RDKit          3D

 97105  0  0  1  0  0  0  0  0999 V2000
  -32.0960  -21.9720   25.1410 C   0  0  0  0  0  3  0  0  0  0  0  0
  -31.3640  -23.1620   25.1800 C   0  0  0  0  0  3  0  0  0  0  0  0
  -31.9680  -21.1140   24.0390 C   0  0  0  0  0  3  0  0  0  0  0  0
  -30.5270  -23.4990   24.1060 C   0  0  0  0  0  3  0  0  0  0  0  0
  -31.1060  -21.4190   22.9530 C   0  0  0  0  0  0  0  0  0  0  0  0
  -30.4030  -22.6680   22.9630 C   0  0  0  0  0  0  0  0  0  0  0  0
  -30.9610  -20.4010   21.8030 C   0  0  0  0  0  2  0  0  0  0  0  0
  -31.2280  -18.9270   22.1420 C   0  0  0  0  0  0  0  0  0  0  0  0
  -30.9810  -18.4510   23.2890 N   0  0  0  0  0  0  0  0  0  0  0  0
  -30.5960  -19.1500   23.9140 H   0  0  0  0  0  0  0  0  0  0  0  0
  -31.8460  -18.0680   21.0410 C   0  0  0  0  0  2  0  0  0  0  0  0
  -31.1190  -16.7340   20.7660 C   0  0  0  0  0  2  0  0  0  0  0  0
  -32.0970  -15.6750   20.2210 C   0  0  0  0  0  2  0  0  0  0  0  0
  -31.4660  -13.5360   19.1600 C   0  0  0  0  0  0  0  0  0  0  0  0
  -30.7250  -11.3690   18.2350 C   0  0  0  0  0  2  0  0  0  0  0  0
  -29.6190  -11.5000   17.1750 C   0  0  0  0  0  2  0  0  0  0  0  0
  -28.2360  -11.4940   17.8470 C   0  0  0  0  0  2  0  0  0  0  0  0
  -28.1430  -12.5270   18.9980 C   0  0  0  0  0  3  0  0  0  0  0  0
  -29.3460  -12.4080   19.9600 C   0  0  0  0  0  2  0  0  0  0  0  0
  -30.6070  -12.4780   19.1940 N   0  0  0  0  0  0  0  0  0  0  0  0
  -32.1990  -13.7500   18.1860 O   0  0  0  0  0  0  0  0  0  0  0  0
  -31.7200  -13.6950   21.6030 C   0  0  0  0  0  1  0  0  0  0  0  0
  -31.5440  -14.3080   20.2740 N   0  0  0  0  0  0  0  0  0  0  0  0
  -26.0360  -13.4140   20.1860 C   0  0  0  0  0  0  0  0  0  0  0  0
  -24.9450  -12.7770   20.7120 C   0  0  0  0  0  0  0  0  0  0  0  0
  -25.1710  -11.3810   20.5170 C   0  0  0  0  0  0  0  0  0  0  0  0
  -26.8720  -12.4130   19.7120 N   0  0  0  0  0  0  0  0  0  0  0  0
  -26.3610  -11.1800   19.9630 N   0  0  0  0  0  0  0  0  0  0  0  0
  -24.3000  -10.2270   20.7760 C   0  0  0  0  0  0  0  0  0  0  0  0
  -24.6940   -9.1840   21.6460 C   0  0  0  0  0  3  0  0  0  0  0  0
  -23.8320   -8.0940   21.8930 C   0  0  0  0  0  3  0  0  0  0  0  0
  -22.5610   -8.0390   21.2720 C   0  0  0  0  0  0  0  0  0  0  0  0
  -22.1850   -9.0670   20.3910 C   0  0  0  0  0  3  0  0  0  0  0  0
  -23.0450  -10.1490   20.1420 C   0  0  0  0  0  3  0  0  0  0  0  0
  -21.6700   -7.0050   21.4330 O   0  0  0  0  0  0  0  0  0  0  0  0
  -21.5950   -6.2940   22.6020 C   0  0  0  0  0  0  0  0  0  0  0  0
  -21.3420   -6.9230   23.8420 C   0  0  0  0  0  3  0  0  0  0  0  0
  -21.2020   -6.1470   25.0090 C   0  0  0  0  0  3  0  0  0  0  0  0
  -21.3060   -4.7440   24.9400 C   0  0  0  0  0  0  0  0  0  0  0  0
  -21.5530   -4.1160   23.7060 C   0  0  0  0  0  3  0  0  0  0  0  0
  -21.6930   -4.8900   22.5410 C   0  0  0  0  0  0  0  0  0  0  0  0
  -21.9090   -4.2790   21.3520 F   0  0  0  0  0  0  0  0  0  0  0  0
  -21.1650   -3.9970   26.0610 F   0  0  0  0  0  0  0  0  0  0  0  0
  -23.7140  -13.4290   21.2760 C   0  0  0  0  0  0  0  0  0  0  0  0
  -23.0850  -12.7990   22.2620 N   0  0  0  0  0  0  0  0  0  0  0  0
  -23.3320  -14.5280   20.8760 O   0  0  0  0  0  0  0  0  0  0  0  0
  -23.4110  -11.9070   22.6040 H   0  0  0  0  0  0  0  0  0  0  0  0
  -22.2660  -13.2150   22.6800 H   0  0  0  0  0  0  0  0  0  0  0  0
  -26.3820  -14.7560   20.0540 N   0  0  0  0  0  0  0  0  0  0  0  0
  -25.7650  -15.5080   20.3410 H   0  0  0  0  0  0  0  0  0  0  0  0
  -27.2350  -15.0880   19.6210 H   0  0  0  0  0  0  0  0  0  0  0  0
  -29.4570  -23.0950   21.8170 C   0  0  0  0  0  2  0  0  0  0  0  0
  -28.7950  -25.5290   22.2420 C   0  0  0  0  0  1  0  0  0  0  0  0
  -30.9350  -25.0480   20.9590 C   0  0  0  0  0  1  0  0  0  0  0  0
  -29.4960  -24.5640   21.2570 C   0  0  1  0  0  0  0  0  0  0  0  0
  -28.6950  -24.6000   19.9200 C   0  0  0  0  0  2  0  0  0  0  0  0
  -28.7280  -25.8970   19.3070 O   0  0  0  0  0  0  0  0  0  0  0  0
  -25.2000  -30.8300   22.9870 C   0  0  0  0  0  0  0  0  0  0  0  0
  -27.5770  -26.6440   19.4120 C   0  0  0  0  0  0  0  0  0  0  0  0
  -23.8930  -29.6620   21.2390 C   0  0  0  0  0  3  0  0  0  0  0  0
  -25.2410  -28.2170   19.6290 C   0  0  0  0  0  0  0  0  0  0  0  0
  -26.4210  -29.9440   21.0060 C   0  0  0  0  0  2  0  0  0  0  0  0
  -26.4340  -28.6450   20.2270 C   0  0  0  0  0  0  0  0  0  0  0  0
  -27.6060  -27.8720   20.1040 C   0  0  0  0  0  3  0  0  0  0  0  0
  -26.3720  -26.2200   18.8130 C   0  0  0  0  0  3  0  0  0  0  0  0
  -25.2050  -27.0020   18.9190 C   0  0  0  0  0  3  0  0  0  0  0  0
  -24.0380  -29.1160   19.7920 C   0  0  0  0  0  2  0  0  0  0  0  0
  -25.1920  -30.1510   21.8040 N   0  0  0  0  0  0  0  0  0  0  0  0
  -24.1460  -31.0890   23.5820 O   0  0  0  0  0  0  0  0  0  0  0  0
  -23.2150  -28.5770   22.1080 C   0  0  0  0  0  0  0  0  0  0  0  0
  -21.8850  -28.4500   21.9750 N   0  0  0  0  0  0  0  0  0  0  0  0
  -23.8820  -27.8580   22.8560 O   0  0  0  0  0  0  0  0  0  0  0  0
  -21.4110  -29.0850   21.3470 H   0  0  0  0  0  0  0  0  0  0  0  0
  -18.4820  -27.3020   22.3500 C   0  0  0  0  0  0  0  0  0  0  0  0
  -21.0420  -27.4710   22.6580 C   0  0  0  0  0  3  0  0  0  0  0  0
  -21.1140  -26.0910   21.9650 C   0  0  0  0  0  2  0  0  0  0  0  0
  -20.0140  -25.8820   20.9200 C   0  0  0  0  0  2  0  0  0  0  0  0
  -18.6310  -26.0080   21.5670 C   0  0  0  0  0  2  0  0  0  0  0  0
  -19.6150  -27.9970   22.8480 C   0  0  0  0  0  0  0  0  0  0  0  0
  -19.4250  -29.2130   23.5390 C   0  0  0  0  0  3  0  0  0  0  0  0
  -18.1320  -29.7340   23.7380 C   0  0  0  0  0  3  0  0  0  0  0  0
  -17.0120  -29.0320   23.2570 C   0  0  0  0  0  3  0  0  0  0  0  0
  -17.1890  -27.8190   22.5680 C   0  0  0  0  0  3  0  0  0  0  0  0
  -26.5290  -31.3330   23.6330 C   0  0  0  0  0  3  0  0  0  0  0  0
  -26.2820  -32.6840   24.1530 N   0  0  0  0  0  0  0  0  0  0  0  0
  -26.6850  -33.8140   23.5560 C   0  0  0  0  0  0  0  0  0  0  0  0
  -27.3730  -33.8230   22.5320 O   0  0  0  0  0  0  0  0  0  0  0  0
  -25.6740  -32.7520   24.9570 H   0  0  0  0  0  0  0  0  0  0  0  0
  -25.0630  -35.7310   23.4250 C   0  0  0  0  0  1  0  0  0  0  0  0
  -26.2540  -35.1460   24.2010 C   0  0  0  0  0  3  0  0  0  0  0  0
  -28.4010  -35.7810   25.2090 C   0  0  0  0  0  1  0  0  0  0  0  0
  -27.3420  -36.1450   24.2690 N   0  0  0  0  0  0  0  0  0  0  0  0
  -26.9790  -37.0540   24.5390 H   0  0  0  0  0  0  0  0  0  0  0  0
  -27.0660  -30.3830   24.7730 C   0  0  1  0  0  0  0  0  0  0  0  0
  -26.0030  -30.0410   25.8440 C   0  0  0  0  0  1  0  0  0  0  0  0
  -27.5850  -29.0560   24.1720 C   0  0  0  0  0  1  0  0  0  0  0  0
  -28.2650  -31.0480   25.4900 C   0  0  0  0  0  1  0  0  0  0  0  0
  1  2  1  0
  3  1  2  0
  4  2  2  0
  5  6  2  0
  5  3  1  0
  6  4  1  0
  7  8  1  0
  7  5  1  0
  8  9  2  0
  9 10  1  0
 11  8  1  0
 12 11  1  0
 13 23  1  0
 13 12  1  0
 14 20  1  0
 14 23  1  0
 15 20  1  0
 16 17  1  0
 16 15  1  0
 18 17  1  0
 18 27  1  0
 18 19  1  0
 20 19  1  0
 21 14  2  0
 23 22  1  0
 24 25  2  0
 25 44  1  0
 26 25  1  0
 26 29  1  0
 27 28  1  0
 27 24  1  0
 28 26  2  0
 29 30  1  0
 30 31  2  0
 32 35  1  0
 32 31  1  0
 33 32  2  0
 34 33  1  0
 34 29  2  0
 35 36  1  0
 36 37  1  0
 37 38  2  0
 39 38  1  0
 39 43  1  0
 40 39  2  0
 41 36  2  0
 41 40  1  0
 42 41  1  0
 44 45  1  0
 45 47  1  0
 45 48  1  0
 46 44  2  0
 49 24  1  0
 49 50  1  0
 51 49  1  0
 52  6  1  0
 55 54  1  6
 55 52  1  0
 55 53  1  0
 56 55  1  0
 57 59  1  0
 57 56  1  0
 58 69  2  0
 59 64  1  0
 60 68  1  0
 60 70  1  0
 61 67  1  0
 61 63  1  0
 62 68  1  0
 63 62  1  0
 64 63  2  0
 65 66  1  0
 65 59  2  0
 66 61  2  0
 67 60  1  0
 68 58  1  0
 70 72  2  0
 71 70  1  0
 73 71  1  0
 74 83  2  0
 74 79  1  0
 75 71  1  0
 75 79  1  0
 76 75  1  0
 77 78  1  0
 77 76  1  0
 78 74  1  0
 79 80  2  0
 80 81  1  0
 82 81  2  0
 83 82  1  0
 84 58  1  0
 84 85  1  0
 84 94  1  0
 85 88  1  0
 86 85  1  0
 86 90  1  0
 87 86  2  0
 90 89  1  0
 90 92  1  0
 92 93  1  0
 92 91  1  0
 94 97  1  1
 94 95  1  0
 96 94  1  0
M  ISO  4  14 100  23 100  56 101  57 101
M  END
>  <TORSDO>  (18) 
F 24

>  <SCORE>  (18) 
-5.763

>  <name>  (18) 
17

>  <ligand_id>  (18) 
17

>  <original_smiles>  (18) 
[H]N=C(C([H])([H])c1c([H])c([H])c([H])c([H])c1C([H])([H])C(C([H])([H])[H])(C([H])([H])[H])C([H])([H])Oc1c([H])c([H])c2c(c1[H])C([H])([H])N(C(=O)C([H])(N([H])C(=O)C([H])(N([H])C([H])([H])[H])C([H])([H])[H])C(C([H])([H])[H])(C([H])([H])[H])C([H])([H])[H])C([H])(C(=O)N([H])C1([H])c3c([H])c([H])c([H])c([H])c3C([H])([H])C([H])([H])C1([H])[H])C2([H])[H])C([H])([H])C([H])([H])C([H])([H])N(C(=O)N1C([H])([H])C([H])([H])C([H])([H])C([H])(n2nc(-c3c([H])c([H])c(Oc4c([H])c([H])c(F)c([H])c4F)c([H])c3[H])c(C(=O)N([H])[H])c2N([H])[H])C1([H])[H])C([H])([H])[H]

>  <smiles>  (18) 
[H]N=C(C([H])([H])c1c([H])c([H])c([H])c([H])c1C([H])([H])C(C([H])([H])[H])(C([H])([H])[H])C([H])([H])Oc1c([H])c([H])c2c(c1[H])C([H])([H])N(C(=O)C([H])(N([H])C(=O)C([H])(N([H])C([H])([H])[H])C([H])([H])[H])C(C([H])([H])[H])(C([H])([H])[H])C([H])([H])[H])C([H])(C(=O)N([H])C1([H])c3c([H])c([H])c([H])c([H])c3C([H])([H])C([H])([H])C1([H])[H])C2([H])[H])C([H])([H])C([H])([H])C([H])([H])N(C(=O)N1C([H])([H])C([H])([H])C([H])([H])C([H])(n2nc(-c3c([H])c([H])c(Oc4c([H])c([H])c(F)c([H])c4F)c([H])c3[H])c(C(=O)N([H])[H])c2N([H])[H])C1([H])[H])C([H])([H])[H]

$$$$
18:0:0
     RDKit          3D

 94104  0  0  1  0  0  0  0  0999 V2000
  -29.8420  -21.1960   20.0440 C   0  0  0  0  0  0  0  0  0  0  0  0
  -29.7070  -21.5010   18.8570 O   0  0  0  0  0  0  0  0  0  0  0  0
  -29.6570  -22.1570   21.1720 C   0  0  0  0  0  3  0  0  0  0  0  0
  -29.4920  -23.5160   21.1360 C   0  0  0  0  0  0  0  0  0  0  0  0
  -29.2930  -24.2890   22.4350 C   0  0  0  0  0  1  0  0  0  0  0  0
  -29.5040  -24.4460   19.9100 C   0  0  0  0  0  2  0  0  0  0  0  0
  -28.2440  -25.3260   19.7300 C   0  0  0  0  0  2  0  0  0  0  0  0
  -28.3650  -26.6930   20.1760 O   0  0  0  0  0  0  0  0  0  0  0  0
  -24.6000  -31.9090   23.2630 C   0  0  0  0  0  0  0  0  0  0  0  0
  -27.2050  -27.4580   20.1500 C   0  0  0  0  0  0  0  0  0  0  0  0
  -23.3840  -30.5260   21.6160 C   0  0  0  0  0  3  0  0  0  0  0  0
  -24.8270  -29.0080   20.1700 C   0  0  0  0  0  0  0  0  0  0  0  0
  -25.9130  -30.8800   21.4120 C   0  0  0  0  0  2  0  0  0  0  0  0
  -25.9930  -29.5110   20.7610 C   0  0  0  0  0  0  0  0  0  0  0  0
  -27.1870  -28.7450   20.7460 C   0  0  0  0  0  3  0  0  0  0  0  0
  -26.0100  -26.9840   19.5550 C   0  0  0  0  0  3  0  0  0  0  0  0
  -24.8330  -27.7470   19.5610 C   0  0  0  0  0  3  0  0  0  0  0  0
  -23.5910  -29.8770   20.2260 C   0  0  0  0  0  2  0  0  0  0  0  0
  -24.6510  -31.1170   22.1570 N   0  0  0  0  0  0  0  0  0  0  0  0
  -23.5190  -32.1790   23.8080 O   0  0  0  0  0  0  0  0  0  0  0  0
  -22.7440  -29.4880   22.5670 C   0  0  0  0  0  0  0  0  0  0  0  0
  -21.4200  -29.3010   22.4480 N   0  0  0  0  0  0  0  0  0  0  0  0
  -23.4340  -28.8590   23.3750 O   0  0  0  0  0  0  0  0  0  0  0  0
  -20.9200  -29.8750   21.7850 H   0  0  0  0  0  0  0  0  0  0  0  0
  -18.0520  -28.0940   22.9500 C   0  0  0  0  0  0  0  0  0  0  0  0
  -20.6110  -28.3540   23.2140 C   0  0  0  0  0  3  0  0  0  0  0  0
  -20.7130  -26.9260   22.6330 C   0  0  0  0  0  2  0  0  0  0  0  0
  -19.6070  -26.6050   21.6210 C   0  0  0  0  0  2  0  0  0  0  0  0
  -18.2280  -26.7460   22.2710 C   0  0  0  0  0  2  0  0  0  0  0  0
  -19.1710  -28.8540   23.3810 C   0  0  0  0  0  0  0  0  0  0  0  0
  -18.9520  -30.1140   23.9800 C   0  0  0  0  0  3  0  0  0  0  0  0
  -17.6480  -30.6120   24.1500 C   0  0  0  0  0  3  0  0  0  0  0  0
  -16.5440  -29.8500   23.7300 C   0  0  0  0  0  3  0  0  0  0  0  0
  -16.7470  -28.5930   23.1340 C   0  0  0  0  0  3  0  0  0  0  0  0
  -25.8900  -32.5330   23.8780 C   0  0  0  0  0  3  0  0  0  0  0  0
  -25.5860  -33.9360   24.1880 N   0  0  0  0  0  0  0  0  0  0  0  0
  -25.9300  -34.9770   23.4160 C   0  0  0  0  0  0  0  0  0  0  0  0
  -26.6080  -34.8570   22.3930 O   0  0  0  0  0  0  0  0  0  0  0  0
  -24.9710  -34.0990   24.9700 H   0  0  0  0  0  0  0  0  0  0  0  0
  -24.2270  -36.7900   23.0170 C   0  0  0  0  0  1  0  0  0  0  0  0
  -25.4470  -36.3720   23.8530 C   0  0  0  0  0  3  0  0  0  0  0  0
  -27.5730  -37.2490   24.7190 C   0  0  0  0  0  1  0  0  0  0  0  0
  -26.4910  -37.4130   23.7530 N   0  0  0  0  0  0  0  0  0  0  0  0
  -26.0880  -38.3370   23.8830 H   0  0  0  0  0  0  0  0  0  0  0  0
  -26.3980  -31.7720   25.1630 C   0  0  1  0  0  0  0  0  0  0  0  0
  -25.2970  -31.5570   26.2260 C   0  0  0  0  0  1  0  0  0  0  0  0
  -26.9760  -30.3860   24.7920 C   0  0  0  0  0  1  0  0  0  0  0  0
  -27.5520  -32.5650   25.8210 C   0  0  0  0  0  1  0  0  0  0  0  0
  -30.1970  -19.7260   20.3650 C   0  0  0  0  0  2  0  0  0  0  0  0
  -29.7880  -16.7480   19.4140 C   0  0  0  0  0  0  0  0  0  0  0  0
  -30.4700  -15.5790   19.3330 C   0  0  0  0  0  0  0  0  0  0  0  0
  -29.5050  -17.6750   18.2660 C   0  0  0  0  0  2  0  0  0  0  0  0
  -27.5900  -17.5710   19.8880 C   0  0  0  0  0  2  0  0  0  0  0  0
  -28.9860  -17.4200   20.5130 C   0  0  1  0  0  0  0  0  0  0  0  0
  -28.4360  -18.4840   18.9910 C   0  0  2  0  0  0  0  0  0  0  0  0
  -28.9640  -18.8950   20.2990 N   0  0  2  0  0  4  0  0  0  0  0  0
  -31.0470  -15.3520   18.1370 F   0  0  0  0  0  0  0  0  0  0  0  0
  -28.2300  -19.3170   20.8450 H   0  0  0  0  0  0  0  0  0  0  0  0
  -30.8460  -14.6500   20.4140 C   0  0  0  0  0  0  0  0  0  0  0  0
  -30.5200  -12.4070   19.5430 C   0  0  0  0  0  2  0  0  0  0  0  0
  -29.6090  -12.4730   18.2990 C   0  0  0  0  0  2  0  0  0  0  0  0
  -28.1270  -12.3820   18.6920 C   0  0  0  0  0  2  0  0  0  0  0  0
  -27.7390  -13.3070   19.8760 C   0  0  0  0  0  3  0  0  0  0  0  0
  -28.7830  -13.3010   21.0130 C   0  0  0  0  0  2  0  0  0  0  0  0
  -30.1220  -13.4960   20.4360 N   0  0  0  0  0  0  0  0  0  0  0  0
  -32.0420  -14.6510   20.6860 O   0  0  0  0  0  0  0  0  0  0  0  0
  -25.3350  -13.9040   20.5450 C   0  0  0  0  0  0  0  0  0  0  0  0
  -24.2500  -13.1390   20.8720 C   0  0  0  0  0  0  0  0  0  0  0  0
  -24.7150  -11.7910   20.8770 C   0  0  0  0  0  0  0  0  0  0  0  0
  -26.3860  -13.0230   20.3540 N   0  0  0  0  0  0  0  0  0  0  0  0
  -26.0170  -11.7430   20.6240 N   0  0  0  0  0  0  0  0  0  0  0  0
  -23.9750  -10.5370   21.0510 C   0  0  0  0  0  0  0  0  0  0  0  0
  -24.3720   -9.5790   22.0080 C   0  0  0  0  0  3  0  0  0  0  0  0
  -23.6350   -8.3870   22.1720 C   0  0  0  0  0  3  0  0  0  0  0  0
  -22.4880   -8.1490   21.3790 C   0  0  0  0  0  0  0  0  0  0  0  0
  -22.1130   -9.0950   20.4100 C   0  0  0  0  0  3  0  0  0  0  0  0
  -22.8510  -10.2780   20.2420 C   0  0  0  0  0  3  0  0  0  0  0  0
  -21.7200   -7.0110   21.4580 O   0  0  0  0  0  0  0  0  0  0  0  0
  -21.6350   -6.2820   22.6160 C   0  0  0  0  0  0  0  0  0  0  0  0
  -21.1680   -6.8500   23.8220 C   0  0  0  0  0  3  0  0  0  0  0  0
  -21.0250   -6.0450   24.9690 C   0  0  0  0  0  3  0  0  0  0  0  0
  -21.3410   -4.6740   24.9120 C   0  0  0  0  0  0  0  0  0  0  0  0
  -21.8040   -4.1080   23.7120 C   0  0  0  0  0  3  0  0  0  0  0  0
  -21.9480   -4.9100   22.5670 C   0  0  0  0  0  0  0  0  0  0  0  0
  -22.3750   -4.3550   21.4060 F   0  0  0  0  0  0  0  0  0  0  0  0
  -21.1970   -3.8980   26.0120 F   0  0  0  0  0  0  0  0  0  0  0  0
  -22.8470  -13.6310   21.0740 C   0  0  0  0  0  0  0  0  0  0  0  0
  -22.0760  -12.9510   21.9160 N   0  0  0  0  0  0  0  0  0  0  0  0
  -22.4410  -14.6500   20.5220 O   0  0  0  0  0  0  0  0  0  0  0  0
  -22.4210  -12.1300   22.3910 H   0  0  0  0  0  0  0  0  0  0  0  0
  -21.1290  -13.2580   22.0880 H   0  0  0  0  0  0  0  0  0  0  0  0
  -25.5050  -15.2670   20.3880 N   0  0  0  0  0  0  0  0  0  0  0  0
  -24.7460  -15.9220   20.5410 H   0  0  0  0  0  0  0  0  0  0  0  0
  -26.4060  -15.7050   20.2560 H   0  0  0  0  0  0  0  0  0  0  0  0
  1 49  1  0
  1  3  1  0
  2  1  2  0
  4  3  2  0
  4  5  1  0
  6  4  1  0
  7  6  1  0
  7  8  1  0
  9 20  2  0
 10  8  1  0
 10 15  1  0
 11 19  1  0
 11 21  1  0
 12 18  1  0
 12 14  1  0
 13 19  1  0
 14 13  1  0
 15 14  2  0
 16 17  1  0
 16 10  2  0
 17 12  2  0
 18 11  1  0
 19  9  1  0
 21 23  2  0
 22 21  1  0
 24 22  1  0
 25 34  2  0
 25 30  1  0
 26 22  1  0
 26 30  1  0
 27 26  1  0
 28 29  1  0
 28 27  1  0
 29 25  1  0
 30 31  2  0
 31 32  1  0
 33 32  2  0
 34 33  1  0
 35  9  1  0
 35 36  1  0
 35 45  1  0
 36 39  1  0
 37 41  1  0
 37 36  1  0
 38 37  2  0
 41 40  1  0
 43 41  1  0
 43 44  1  0
 43 42  1  0
 45 48  1  1
 45 46  1  0
 47 45  1  0
 50 54  1  0
 51 50  2  0
 51 59  1  0
 52 50  1  0
 54 53  1  1
 55 52  1  1
 55 53  1  0
 55 56  1  0
 55 54  1  0
 56 49  1  0
 56 54  1  0
 56 58  1  1
 57 51  1  0
 59 65  1  0
 59 66  2  0
 60 65  1  0
 61 62  1  0
 61 60  1  0
 63 62  1  0
 63 70  1  0
 63 64  1  0
 65 64  1  0
 67 68  2  0
 68 69  1  0
 68 87  1  0
 69 72  1  0
 70 67  1  0
 70 71  1  0
 71 69  2  0
 72 73  1  0
 73 74  2  0
 75 78  1  0
 75 74  1  0
 76 75  2  0
 77 76  1  0
 77 72  2  0
 78 79  1  0
 79 80  1  0
 80 81  2  0
 82 81  1  0
 82 86  1  0
 83 82  2  0
 84 79  2  0
 84 83  1  0
 85 84  1  0
 87 88  1  0
 88 91  1  0
 88 90  1  0
 89 87  2  0
 92 93  1  0
 92 67  1  0
 94 92  1  0
M  ISO  4   7 101   8 101  51 100  59 100
M  END
>  <TORSDO>  (19) 
F 21

>  <SCORE>  (19) 
-13.824

>  <name>  (19) 
18

>  <ligand_id>  (19) 
18

>  <original_smiles>  (19) 
[H]C(C(=O)C([H])([H])[N+]1([H])C2([H])C(=C(F)C(=O)N3C([H])([H])C([H])([H])C([H])([H])C([H])(n4nc(-c5c([H])c([H])c(Oc6c([H])c([H])c(F)c([H])c6F)c([H])c5[H])c(C(=O)N([H])[H])c4N([H])[H])C3([H])[H])C([H])([H])C1([H])C2([H])[H])=C(C([H])([H])[H])C([H])([H])C([H])([H])Oc1c([H])c([H])c2c(c1[H])C([H])([H])N(C(=O)C([H])(N([H])C(=O)C([H])(N([H])C([H])([H])[H])C([H])([H])[H])C(C([H])([H])[H])(C([H])([H])[H])C([H])([H])[H])C([H])(C(=O)N([H])C1([H])c3c([H])c([H])c([H])c([H])c3C([H])([H])C([H])([H])C1([H])[H])C2([H])[H]

>  <smiles>  (19) 
[H]C(C(=O)C([H])([H])[N+]1([H])C2([H])C(=C(F)C(=O)N3C([H])([H])C([H])([H])C([H])([H])C([H])(n4nc(-c5c([H])c([H])c(Oc6c([H])c([H])c(F)c([H])c6F)c([H])c5[H])c(C(=O)N([H])[H])c4N([H])[H])C3([H])[H])C([H])([H])C1([H])C2([H])[H])=C(C([H])([H])[H])C([H])([H])C([H])([H])Oc1c([H])c([H])c2c(c1[H])C([H])([H])N(C(=O)C([H])(N([H])C(=O)C([H])(N([H])C([H])([H])[H])C([H])([H])[H])C(C([H])([H])[H])(C([H])([H])[H])C([H])([H])[H])C([H])(C(=O)N([H])C1([H])c3c([H])c([H])c([H])c([H])c3C([H])([H])C([H])([H])C1([H])[H])C2([H])[H]

$$$$
19:0:0
     RDKit          3D

 92100  0  0  1  0  0  0  0  0999 V2000
  -29.0550  -20.9590   20.8140 C   0  0  0  0  0  2  0  0  0  0  0  0
  -30.3320  -17.7840   19.1050 C   0  0  0  0  0  3  0  0  0  0  0  0
  -29.3280  -18.3400   21.0370 C   0  0  0  0  0  3  0  0  0  0  0  0
  -29.8510  -17.2530   20.3340 C   0  0  0  0  0  0  0  0  0  0  0  0
  -30.1000  -19.1410   19.1170 C   0  0  0  0  0  0  0  0  0  0  0  0
  -29.4780  -19.5600   20.3060 N   0  0  0  0  0  0  0  0  0  0  0  0
  -30.6030  -14.7560   20.3040 C   0  0  0  0  0  0  0  0  0  0  0  0
  -30.4260  -12.4960   19.2710 C   0  0  0  0  0  2  0  0  0  0  0  0
  -29.4610  -12.5890   18.0670 C   0  0  0  0  0  2  0  0  0  0  0  0
  -27.9980  -12.4080   18.5230 C   0  0  0  0  0  2  0  0  0  0  0  0
  -27.6480  -13.2850   19.7540 C   0  0  0  0  0  3  0  0  0  0  0  0
  -28.7210  -13.1440   20.8550 C   0  0  0  0  0  2  0  0  0  0  0  0
  -30.0130  -13.5140   20.2610 N   0  0  0  0  0  0  0  0  0  0  0  0
  -31.7580  -14.9090   19.8910 O   0  0  0  0  0  0  0  0  0  0  0  0
  -29.8130  -15.8210   20.6980 N   0  0  0  0  0  0  0  0  0  0  0  0
  -28.9790  -15.5320   21.1850 H   0  0  0  0  0  0  0  0  0  0  0  0
  -25.2760  -13.8850   20.5380 C   0  0  0  0  0  0  0  0  0  0  0  0
  -24.2120  -13.1110   20.9130 C   0  0  0  0  0  0  0  0  0  0  0  0
  -24.6650  -11.7570   20.8490 C   0  0  0  0  0  0  0  0  0  0  0  0
  -26.3090  -13.0020   20.2630 N   0  0  0  0  0  0  0  0  0  0  0  0
  -25.9490  -11.7170   20.5130 N   0  0  0  0  0  0  0  0  0  0  0  0
  -23.9360  -10.4950   21.0310 C   0  0  0  0  0  0  0  0  0  0  0  0
  -24.3620   -9.5260   21.9650 C   0  0  0  0  0  3  0  0  0  0  0  0
  -23.6350   -8.3260   22.1350 C   0  0  0  0  0  3  0  0  0  0  0  0
  -22.4710   -8.0880   21.3660 C   0  0  0  0  0  0  0  0  0  0  0  0
  -22.0650   -9.0470   20.4210 C   0  0  0  0  0  3  0  0  0  0  0  0
  -22.7930  -10.2370   20.2510 C   0  0  0  0  0  3  0  0  0  0  0  0
  -21.7130   -6.9460   21.4460 O   0  0  0  0  0  0  0  0  0  0  0  0
  -21.6200   -6.2240   22.6090 C   0  0  0  0  0  0  0  0  0  0  0  0
  -21.1090   -6.7880   23.7990 C   0  0  0  0  0  3  0  0  0  0  0  0
  -20.9670   -5.9890   24.9510 C   0  0  0  0  0  3  0  0  0  0  0  0
  -21.3240   -4.6280   24.9170 C   0  0  0  0  0  0  0  0  0  0  0  0
  -21.8300   -4.0650   23.7320 C   0  0  0  0  0  3  0  0  0  0  0  0
  -21.9750   -4.8600   22.5820 C   0  0  0  0  0  0  0  0  0  0  0  0
  -22.4420   -4.3060   21.4370 F   0  0  0  0  0  0  0  0  0  0  0  0
  -21.1810   -3.8610   26.0230 F   0  0  0  0  0  0  0  0  0  0  0  0
  -22.8210  -13.5920   21.2170 C   0  0  0  0  0  0  0  0  0  0  0  0
  -22.0970  -12.8790   22.0730 N   0  0  0  0  0  0  0  0  0  0  0  0
  -22.3860  -14.6380   20.7360 O   0  0  0  0  0  0  0  0  0  0  0  0
  -22.4650  -12.0400   22.4970 H   0  0  0  0  0  0  0  0  0  0  0  0
  -21.1630  -13.1780   22.3150 H   0  0  0  0  0  0  0  0  0  0  0  0
  -25.4500  -15.2560   20.3860 N   0  0  0  0  0  0  0  0  0  0  0  0
  -24.6990  -15.9190   20.5460 H   0  0  0  0  0  0  0  0  0  0  0  0
  -26.3020  -15.6910   20.0560 H   0  0  0  0  0  0  0  0  0  0  0  0
  -30.3990  -20.0030   18.1140 O   0  0  0  0  0  0  0  0  0  0  0  0
  -30.1300  -20.8720   18.3930 H   0  0  0  0  0  0  0  0  0  0  0  0
  -30.4970  -22.6060   19.4330 C   0  0  0  0  0  1  0  0  0  0  0  0
  -28.0790  -22.0810   18.7350 C   0  0  0  0  0  1  0  0  0  0  0  0
  -29.0470  -22.3260   19.9140 C   0  0  1  0  0  0  0  0  0  0  0  0
  -28.5420  -23.7130   20.6160 C   0  0  0  0  0  3  0  0  0  0  0  0
  -28.4540  -25.0760   19.7320 C   0  0  0  0  0  3  0  0  0  0  0  0
  -28.3450  -26.4550   20.3150 O   0  0  0  0  0  0  0  0  0  0  0  0
  -24.5870  -31.8950   23.2170 C   0  0  0  0  0  0  0  0  0  0  0  0
  -27.2140  -27.2930   20.2060 C   0  0  0  0  0  0  0  0  0  0  0  0
  -23.3910  -30.4830   21.5820 C   0  0  0  0  0  3  0  0  0  0  0  0
  -24.8520  -28.9320   20.1580 C   0  0  0  0  0  0  0  0  0  0  0  0
  -25.9300  -30.8040   21.4040 C   0  0  0  0  0  2  0  0  0  0  0  0
  -26.0130  -29.4180   20.7650 C   0  0  0  0  0  0  0  0  0  0  0  0
  -27.1930  -28.6120   20.7790 C   0  0  0  0  0  3  0  0  0  0  0  0
  -26.0250  -26.8690   19.5720 C   0  0  0  0  0  3  0  0  0  0  0  0
  -24.8630  -27.6680   19.5500 C   0  0  0  0  0  3  0  0  0  0  0  0
  -23.6110  -29.8060   20.2030 C   0  0  0  0  0  2  0  0  0  0  0  0
  -24.6540  -31.0800   22.1230 N   0  0  0  0  0  0  0  0  0  0  0  0
  -23.5010  -32.1700   23.7500 O   0  0  0  0  0  0  0  0  0  0  0  0
  -22.7330  -29.4690   22.5480 C   0  0  0  0  0  0  0  0  0  0  0  0
  -21.4090  -29.2790   22.4180 N   0  0  0  0  0  0  0  0  0  0  0  0
  -23.4130  -28.8560   23.3750 O   0  0  0  0  0  0  0  0  0  0  0  0
  -20.9190  -29.8230   21.7220 H   0  0  0  0  0  0  0  0  0  0  0  0
  -18.0340  -28.0780   22.9260 C   0  0  0  0  0  0  0  0  0  0  0  0
  -20.5930  -28.3420   23.1950 C   0  0  0  0  0  3  0  0  0  0  0  0
  -20.6970  -26.9090   22.6230 C   0  0  0  0  0  2  0  0  0  0  0  0
  -19.5940  -26.5820   21.6110 C   0  0  0  0  0  2  0  0  0  0  0  0
  -18.2120  -26.7270   22.2540 C   0  0  0  0  0  2  0  0  0  0  0  0
  -19.1510  -28.8430   23.3540 C   0  0  0  0  0  0  0  0  0  0  0  0
  -18.9290  -30.1060   23.9410 C   0  0  0  0  0  3  0  0  0  0  0  0
  -17.6230  -30.6030   24.1090 C   0  0  0  0  0  3  0  0  0  0  0  0
  -16.5200  -29.8340   23.7000 C   0  0  0  0  0  3  0  0  0  0  0  0
  -16.7270  -28.5740   23.1120 C   0  0  0  0  0  3  0  0  0  0  0  0
  -25.8670  -32.5380   23.8350 C   0  0  0  0  0  3  0  0  0  0  0  0
  -25.5490  -33.9380   24.1580 N   0  0  0  0  0  0  0  0  0  0  0  0
  -25.8850  -34.9880   23.3990 C   0  0  0  0  0  0  0  0  0  0  0  0
  -26.5630  -34.8820   22.3730 O   0  0  0  0  0  0  0  0  0  0  0  0
  -24.9470  -34.0920   24.9530 H   0  0  0  0  0  0  0  0  0  0  0  0
  -24.1740  -36.7880   23.0050 C   0  0  0  0  0  1  0  0  0  0  0  0
  -25.3930  -36.3790   23.8470 C   0  0  0  0  0  3  0  0  0  0  0  0
  -27.5040  -37.2570   24.7390 C   0  0  0  0  0  1  0  0  0  0  0  0
  -26.4310  -37.4280   23.7630 N   0  0  0  0  0  0  0  0  0  0  0  0
  -26.0240  -38.3480   23.9000 H   0  0  0  0  0  0  0  0  0  0  0  0
  -26.3820  -31.7810   25.1200 C   0  0  1  0  0  0  0  0  0  0  0  0
  -25.2870  -31.5450   26.1860 C   0  0  0  0  0  1  0  0  0  0  0  0
  -26.9740  -30.4030   24.7410 C   0  0  0  0  0  1  0  0  0  0  0  0
  -27.5230  -32.5890   25.7800 C   0  0  0  0  0  1  0  0  0  0  0  0
  2  5  2  0
  2  4  1  0
  4 15  1  0
  4  3  2  0
  5  6  1  0
  6  1  1  0
  6  3  1  0
  7 15  1  0
  8 13  1  0
  9 10  1  0
  9  8  1  0
 11 10  1  0
 11 20  1  0
 11 12  1  0
 13  7  1  0
 13 12  1  0
 14  7  2  0
 15 16  1  0
 17 18  2  0
 18 37  1  0
 19 18  1  0
 19 22  1  0
 20 21  1  0
 20 17  1  0
 21 19  2  0
 22 23  1  0
 23 24  2  0
 25 28  1  0
 25 24  1  0
 26 25  2  0
 27 26  1  0
 27 22  2  0
 28 29  1  0
 29 30  1  0
 30 31  2  0
 32 31  1  0
 32 36  1  0
 33 32  2  0
 34 29  2  0
 34 33  1  0
 35 34  1  0
 37 38  1  0
 38 41  1  0
 38 40  1  0
 39 37  2  0
 42 17  1  0
 42 43  1  0
 44 42  1  0
 45 46  1  0
 45  5  1  0
 49 47  1  6
 48 49  1  0
 49 50  1  0
 49  1  1  0
 51 52  1  0
 51 50  2  0
 53 64  2  0
 54 52  1  0
 54 59  1  0
 55 63  1  0
 55 65  1  0
 56 62  1  0
 56 58  1  0
 57 63  1  0
 58 59  2  0
 58 57  1  0
 60 54  2  0
 61 60  1  0
 61 56  2  0
 62 55  1  0
 63 53  1  0
 65 67  2  0
 66 65  1  0
 68 66  1  0
 69 78  2  0
 69 74  1  0
 70 66  1  0
 70 74  1  0
 71 70  1  0
 72 73  1  0
 72 71  1  0
 73 69  1  0
 74 75  2  0
 75 76  1  0
 77 76  2  0
 78 77  1  0
 79 53  1  0
 79 80  1  0
 79 89  1  0
 80 83  1  0
 81 85  1  0
 81 80  1  0
 82 81  2  0
 85 84  1  0
 87 85  1  0
 87 88  1  0
 87 86  1  0
 89 92  1  1
 89 90  1  0
 91 89  1  0
M  ISO  4   7 100  15 100  51 101  52 101
M  END
>  <TORSDO>  (20) 
F 21

>  <SCORE>  (20) 
-13.653

>  <name>  (20) 
19

>  <ligand_id>  (20) 
19

>  <original_smiles>  (20) 
[H]Oc1c([H])c(N([H])C(=O)N2C([H])([H])C([H])([H])C([H])([H])C([H])(n3nc(-c4c([H])c([H])c(Oc5c([H])c([H])c(F)c([H])c5F)c([H])c4[H])c(C(=O)N([H])[H])c3N([H])[H])C2([H])[H])c([H])n1C([H])([H])C(C([H])([H])[H])(C([H])([H])[H])C([H])([H])C([H])([H])Oc1c([H])c([H])c2c(c1[H])C([H])([H])N(C(=O)C([H])(N([H])C(=O)C([H])(N([H])C([H])([H])[H])C([H])([H])[H])C(C([H])([H])[H])(C([H])([H])[H])C([H])([H])[H])C([H])(C(=O)N([H])C1([H])c3c([H])c([H])c([H])c([H])c3C([H])([H])C([H])([H])C1([H])[H])C2([H])[H]

>  <smiles>  (20) 
[H]Oc1c([H])c(N([H])C(=O)N2C([H])([H])C([H])([H])C([H])([H])C([H])(n3nc(-c4c([H])c([H])c(Oc5c([H])c([H])c(F)c([H])c5F)c([H])c4[H])c(C(=O)N([H])[H])c3N([H])[H])C2([H])[H])c([H])n1C([H])([H])C(C([H])([H])[H])(C([H])([H])[H])C([H])([H])C([H])([H])Oc1c([H])c([H])c2c(c1[H])C([H])([H])N(C(=O)C([H])(N([H])C(=O)C([H])(N([H])C([H])([H])[H])C([H])([H])[H])C(C([H])([H])[H])(C([H])([H])[H])C([H])([H])[H])C([H])(C(=O)N([H])C1([H])c3c([H])c([H])c([H])c([H])c3C([H])([H])C([H])([H])C1([H])[H])C2([H])[H]

$$$$
20:0:0
     RDKit          3D

 94102  0  0  1  0  0  0  0  0999 V2000
  -27.0250  -24.0020   20.7520 C   0  0  0  0  0  0  0  0  0  0  0  0
  -25.8490  -23.4790   21.4250 C   0  0  0  0  0  0  0  0  0  0  0  0
  -27.6730  -25.1130   21.1460 C   0  0  0  0  0  3  0  0  0  0  0  0
  -27.3190  -23.0850   19.5890 C   0  0  0  0  0  2  0  0  0  0  0  0
  -25.2950  -22.3180   20.6190 C   0  0  0  0  0  2  0  0  0  0  0  0
  -26.4760  -21.8790   19.8240 N   0  0  2  0  0  4  0  0  0  0  0  0
  -25.3360  -23.8880   22.4750 O   0  0  0  0  0  0  0  0  0  0  0  0
  -26.1450  -21.5350   18.9320 H   0  0  0  0  0  0  0  0  0  0  0  0
  -28.7890  -25.8160   20.3800 C   0  0  0  0  0  2  0  0  0  0  0  0
  -28.8260  -27.2270   20.6490 O   0  0  0  0  0  0  0  0  0  0  0  0
  -24.8370  -32.1410   23.8360 C   0  0  0  0  0  0  0  0  0  0  0  0
  -27.6440  -27.9370   20.5870 C   0  0  0  0  0  0  0  0  0  0  0  0
  -23.7200  -30.8680   22.0340 C   0  0  0  0  0  3  0  0  0  0  0  0
  -25.2460  -29.4280   20.5830 C   0  0  0  0  0  0  0  0  0  0  0  0
  -26.2500  -31.2260   22.0010 C   0  0  0  0  0  2  0  0  0  0  0  0
  -26.3700  -29.9100   21.2650 C   0  0  0  0  0  0  0  0  0  0  0  0
  -27.5710  -29.1730   21.2590 C   0  0  0  0  0  3  0  0  0  0  0  0
  -26.5060  -27.4670   19.8920 C   0  0  0  0  0  3  0  0  0  0  0  0
  -25.3070  -28.2020   19.8970 C   0  0  0  0  0  3  0  0  0  0  0  0
  -24.0010  -30.2840   20.6230 C   0  0  0  0  0  2  0  0  0  0  0  0
  -24.9500  -31.4210   22.6850 N   0  0  0  0  0  0  0  0  0  0  0  0
  -23.7300  -32.3810   24.3350 O   0  0  0  0  0  0  0  0  0  0  0  0
  -23.0160  -29.7870   22.8810 C   0  0  0  0  0  0  0  0  0  0  0  0
  -21.7020  -29.6170   22.6590 N   0  0  0  0  0  0  0  0  0  0  0  0
  -23.6520  -29.1050   23.6900 O   0  0  0  0  0  0  0  0  0  0  0  0
  -21.2560  -30.2210   21.9800 H   0  0  0  0  0  0  0  0  0  0  0  0
  -18.3170  -28.3750   22.8360 C   0  0  0  0  0  0  0  0  0  0  0  0
  -20.8460  -28.6270   23.3100 C   0  0  0  0  0  3  0  0  0  0  0  0
  -21.0050  -27.2340   22.6550 C   0  0  0  0  0  2  0  0  0  0  0  0
  -19.9870  -26.9720   21.5400 C   0  0  0  0  0  2  0  0  0  0  0  0
  -18.5570  -27.0770   22.0800 C   0  0  0  0  0  2  0  0  0  0  0  0
  -19.3930  -29.1120   23.3980 C   0  0  0  0  0  0  0  0  0  0  0  0
  -19.1170  -30.3340   24.0520 C   0  0  0  0  0  3  0  0  0  0  0  0
  -17.7970  -30.8170   24.1520 C   0  0  0  0  0  3  0  0  0  0  0  0
  -16.7350  -30.0740   23.6080 C   0  0  0  0  0  3  0  0  0  0  0  0
  -16.9950  -28.8560   22.9540 C   0  0  0  0  0  3  0  0  0  0  0  0
  -26.0890  -32.7170   24.5660 C   0  0  0  0  0  3  0  0  0  0  0  0
  -25.8120  -34.1250   24.8770 N   0  0  0  0  0  0  0  0  0  0  0  0
  -26.2490  -35.1630   24.1520 C   0  0  0  0  0  0  0  0  0  0  0  0
  -26.9990  -35.0340   23.1790 O   0  0  0  0  0  0  0  0  0  0  0  0
  -25.1600  -34.3020   25.6260 H   0  0  0  0  0  0  0  0  0  0  0  0
  -24.6250  -37.0180   23.6610 C   0  0  0  0  0  1  0  0  0  0  0  0
  -25.7790  -36.5690   24.5720 C   0  0  0  0  0  3  0  0  0  0  0  0
  -27.8760  -37.3660   25.5710 C   0  0  0  0  0  1  0  0  0  0  0  0
  -26.8570  -37.5810   24.5470 N   0  0  0  0  0  0  0  0  0  0  0  0
  -26.4770  -38.5160   24.6710 H   0  0  0  0  0  0  0  0  0  0  0  0
  -26.4690  -31.9230   25.8770 C   0  0  1  0  0  0  0  0  0  0  0  0
  -25.2760  -31.6980   26.8350 C   0  0  0  0  0  1  0  0  0  0  0  0
  -27.0540  -30.5360   25.5220 C   0  0  0  0  0  1  0  0  0  0  0  0
  -27.5690  -32.6830   26.6550 C   0  0  0  0  0  1  0  0  0  0  0  0
  -27.1860  -20.7590   20.5040 C   0  0  0  0  0  2  0  0  0  0  0  0
  -28.1590  -19.9560   19.6130 C   0  0  0  0  0  2  0  0  0  0  0  0
  -29.2470  -19.2580   20.4600 C   0  0  0  0  0  2  0  0  0  0  0  0
  -29.7930  -17.9600   19.8320 C   0  0  0  0  0  2  0  0  0  0  0  0
  -31.1470  -17.6960   22.0330 C   0  0  0  0  0  1  0  0  0  0  0  0
  -31.0000  -17.2940   20.5540 C   0  0  0  0  0  3  0  0  0  0  0  0
  -31.4810  -14.8840   19.8740 C   0  0  0  0  0  0  0  0  0  0  0  0
  -31.1720  -12.5940   18.9910 C   0  0  0  0  0  2  0  0  0  0  0  0
  -30.1970  -12.6380   17.7950 C   0  0  0  0  0  2  0  0  0  0  0  0
  -28.7290  -12.5870   18.2690 C   0  0  0  0  0  2  0  0  0  0  0  0
  -28.4370  -13.6120   19.3990 C   0  0  0  0  0  3  0  0  0  0  0  0
  -29.5000  -13.4720   20.5100 C   0  0  0  0  0  2  0  0  0  0  0  0
  -30.8250  -13.6940   19.8990 N   0  0  0  0  0  0  0  0  0  0  0  0
  -32.5350  -15.0770   19.2580 O   0  0  0  0  0  0  0  0  0  0  0  0
  -30.8130  -15.8480   20.5220 N   0  0  0  0  0  0  0  0  0  0  0  0
  -29.9870  -15.5110   20.9940 H   0  0  0  0  0  0  0  0  0  0  0  0
  -26.1430  -14.4300   20.2450 C   0  0  0  0  0  0  0  0  0  0  0  0
  -25.0210  -13.7520   20.6380 C   0  0  0  0  0  0  0  0  0  0  0  0
  -25.3420  -12.3650   20.5290 C   0  0  0  0  0  0  0  0  0  0  0  0
  -27.0830  -13.4610   19.9270 N   0  0  0  0  0  0  0  0  0  0  0  0
  -26.6050  -12.2100   20.1530 N   0  0  0  0  0  0  0  0  0  0  0  0
  -24.5050  -11.1720   20.7080 C   0  0  0  0  0  0  0  0  0  0  0  0
  -24.8630  -10.1520   21.6180 C   0  0  0  0  0  3  0  0  0  0  0  0
  -24.0350   -9.0230   21.7860 C   0  0  0  0  0  3  0  0  0  0  0  0
  -22.8360   -8.9050   21.0450 C   0  0  0  0  0  0  0  0  0  0  0  0
  -22.4960   -9.9130   20.1260 C   0  0  0  0  0  3  0  0  0  0  0  0
  -23.3230  -11.0330   19.9550 C   0  0  0  0  0  3  0  0  0  0  0  0
  -21.9820   -7.8310   21.1210 O   0  0  0  0  0  0  0  0  0  0  0  0
  -21.8380   -7.1080   22.2770 C   0  0  0  0  0  0  0  0  0  0  0  0
  -21.4390   -7.7130   23.4900 C   0  0  0  0  0  3  0  0  0  0  0  0
  -21.2380   -6.9220   24.6390 C   0  0  0  0  0  3  0  0  0  0  0  0
  -21.4220   -5.5270   24.5750 C   0  0  0  0  0  0  0  0  0  0  0  0
  -21.8150   -4.9230   23.3690 C   0  0  0  0  0  3  0  0  0  0  0  0
  -22.0210   -5.7110   22.2230 C   0  0  0  0  0  0  0  0  0  0  0  0
  -22.3770   -5.1220   21.0580 F   0  0  0  0  0  0  0  0  0  0  0  0
  -21.2200   -4.7660   25.6760 F   0  0  0  0  0  0  0  0  0  0  0  0
  -23.6930  -14.3510   21.0010 C   0  0  0  0  0  0  0  0  0  0  0  0
  -22.9470  -13.6960   21.8840 N   0  0  0  0  0  0  0  0  0  0  0  0
  -23.3310  -15.4330   20.5410 O   0  0  0  0  0  0  0  0  0  0  0  0
  -23.2540  -12.8180   22.2780 H   0  0  0  0  0  0  0  0  0  0  0  0
  -22.0550  -14.0770   22.1690 H   0  0  0  0  0  0  0  0  0  0  0  0
  -26.4380  -15.7860   20.1180 N   0  0  0  0  0  0  0  0  0  0  0  0
  -25.7480  -16.5050   20.3020 H   0  0  0  0  0  0  0  0  0  0  0  0
  -27.3120  -16.1500   19.7630 H   0  0  0  0  0  0  0  0  0  0  0  0
  1  3  2  0
  1  2  1  0
  2  7  2  0
  4  6  1  0
  4  1  1  0
  5  2  1  0
  6 51  1  0
  6  5  1  0
  6  8  1  6
  9 10  1  0
  9  3  1  0
 11 22  2  0
 12 10  1  0
 12 17  1  0
 13 21  1  0
 13 23  1  0
 14 20  1  0
 14 16  1  0
 15 21  1  0
 16 15  1  0
 17 16  2  0
 18 19  1  0
 18 12  2  0
 19 14  2  0
 20 13  1  0
 21 11  1  0
 23 25  2  0
 24 23  1  0
 26 24  1  0
 27 36  2  0
 27 32  1  0
 28 24  1  0
 28 32  1  0
 29 28  1  0
 30 31  1  0
 30 29  1  0
 31 27  1  0
 32 33  2  0
 33 34  1  0
 35 34  2  0
 36 35  1  0
 37 11  1  0
 37 38  1  0
 37 47  1  0
 38 41  1  0
 39 43  1  0
 39 38  1  0
 40 39  2  0
 43 42  1  0
 45 43  1  0
 45 46  1  0
 45 44  1  0
 47 50  1  1
 47 48  1  0
 49 47  1  0
 52 53  1  0
 52 51  1  0
 54 53  1  0
 54 56  1  0
 56 55  1  0
 57 63  1  0
 57 65  1  0
 58 63  1  0
 59 60  1  0
 59 58  1  0
 61 60  1  0
 61 70  1  0
 61 62  1  0
 63 62  1  0
 64 57  2  0
 65 56  1  0
 65 66  1  0
 67 68  2  0
 68 87  1  0
 69 68  1  0
 69 72  1  0
 70 71  1  0
 70 67  1  0
 71 69  2  0
 72 73  1  0
 73 74  2  0
 75 78  1  0
 75 74  1  0
 76 75  2  0
 77 76  1  0
 77 72  2  0
 78 79  1  0
 79 80  1  0
 80 81  2  0
 82 81  1  0
 82 86  1  0
 83 82  2  0
 84 79  2  0
 84 83  1  0
 85 84  1  0
 87 88  1  0
 88 91  1  0
 88 90  1  0
 89 87  2  0
 92 67  1  0
 92 93  1  0
 94 92  1  0
M  ISO  4   9 101  10 101  57 100  65 100
M  END
>  <TORSDO>  (21) 
F 22

>  <SCORE>  (21) 
-9.746

>  <name>  (21) 
20

>  <ligand_id>  (21) 
20

>  <original_smiles>  (21) 
[H]C(=C1C(=O)C([H])([H])[N+]([H])(C([H])([H])C([H])([H])C([H])([H])C([H])([H])C([H])(N([H])C(=O)N2C([H])([H])C([H])([H])C([H])([H])C([H])(n3nc(-c4c([H])c([H])c(Oc5c([H])c([H])c(F)c([H])c5F)c([H])c4[H])c(C(=O)N([H])[H])c3N([H])[H])C2([H])[H])C([H])([H])[H])C1([H])[H])C([H])([H])Oc1c([H])c([H])c2c(c1[H])C([H])([H])N(C(=O)C([H])(N([H])C(=O)C([H])(N([H])C([H])([H])[H])C([H])([H])[H])C(C([H])([H])[H])(C([H])([H])[H])C([H])([H])[H])C([H])(C(=O)N([H])C1([H])c3c([H])c([H])c([H])c([H])c3C([H])([H])C([H])([H])C1([H])[H])C2([H])[H]

>  <smiles>  (21) 
[H]C(=C1C(=O)C([H])([H])[N+]([H])(C([H])([H])C([H])([H])C([H])([H])C([H])([H])C([H])(N([H])C(=O)N2C([H])([H])C([H])([H])C([H])([H])C([H])(n3nc(-c4c([H])c([H])c(Oc5c([H])c([H])c(F)c([H])c5F)c([H])c4[H])c(C(=O)N([H])[H])c3N([H])[H])C2([H])[H])C([H])([H])[H])C1([H])[H])C([H])([H])Oc1c([H])c([H])c2c(c1[H])C([H])([H])N(C(=O)C([H])(N([H])C(=O)C([H])(N([H])C([H])([H])[H])C([H])([H])[H])C(C([H])([H])[H])(C([H])([H])[H])C([H])([H])[H])C([H])(C(=O)N([H])C1([H])c3c([H])c([H])c([H])c([H])c3C([H])([H])C([H])([H])C1([H])[H])C2([H])[H]

$$$$
21:0:0
     RDKit          3D

 97105  0  0  1  0  0  0  0  0999 V2000
  -29.4560  -22.4240   20.2240 C   0  0  0  0  0  0  0  0  0  0  0  0
  -30.5140  -22.6220   20.8290 O   0  0  0  0  0  0  0  0  0  0  0  0
  -29.0360  -20.8720   20.0430 C   0  0  0  0  0  2  0  0  0  0  0  0
  -31.1520  -19.0950   17.5950 C   0  0  0  0  0  3  0  0  0  0  0  0
  -30.4850  -20.1740   18.1050 C   0  0  0  0  0  3  0  0  0  0  0  0
  -30.2220  -18.4370   19.4650 C   0  0  0  0  0  0  0  0  0  0  0  0
  -30.9790  -18.0180   18.4470 N   0  0  0  0  0  0  0  0  0  0  0  0
  -29.8890  -19.8160   19.3190 N   0  0  0  0  0  0  0  0  0  0  0  0
  -28.5440  -17.6520   21.1810 C   0  0  0  0  0  1  0  0  0  0  0  0
  -29.9490  -17.3800   20.6070 C   0  0  1  0  0  0  0  0  0  0  0  0
  -30.7190  -14.8040   19.9970 C   0  0  0  0  0  0  0  0  0  0  0  0
  -30.5000  -12.5400   18.9380 C   0  0  0  0  0  2  0  0  0  0  0  0
  -29.5040  -12.6510   17.7640 C   0  0  0  0  0  2  0  0  0  0  0  0
  -28.0470  -12.4820   18.2490 C   0  0  0  0  0  2  0  0  0  0  0  0
  -27.7390  -13.3280   19.5110 C   0  0  0  0  0  3  0  0  0  0  0  0
  -28.8480  -13.1890   20.5740 C   0  0  0  0  0  2  0  0  0  0  0  0
  -30.1140  -13.5670   19.9290 N   0  0  0  0  0  0  0  0  0  0  0  0
  -31.9150  -14.9210   19.7140 O   0  0  0  0  0  0  0  0  0  0  0  0
  -29.8740  -15.8890   20.2000 N   0  0  0  0  0  0  0  0  0  0  0  0
  -28.9230  -15.5660   20.2410 H   0  0  0  0  0  0  0  0  0  0  0  0
  -25.3840  -13.9250   20.3350 C   0  0  0  0  0  0  0  0  0  0  0  0
  -24.3310  -13.1520   20.7450 C   0  0  0  0  0  0  0  0  0  0  0  0
  -24.7870  -11.8000   20.6890 C   0  0  0  0  0  0  0  0  0  0  0  0
  -26.4160  -13.0430   20.0560 N   0  0  0  0  0  0  0  0  0  0  0  0
  -26.0650  -11.7610   20.3310 N   0  0  0  0  0  0  0  0  0  0  0  0
  -24.0620  -10.5390   20.8980 C   0  0  0  0  0  0  0  0  0  0  0  0
  -24.4980   -9.5860   21.8440 C   0  0  0  0  0  3  0  0  0  0  0  0
  -23.7740   -8.3900   22.0400 C   0  0  0  0  0  3  0  0  0  0  0  0
  -22.6010   -8.1390   21.2900 C   0  0  0  0  0  0  0  0  0  0  0  0
  -22.1860   -9.0780   20.3290 C   0  0  0  0  0  3  0  0  0  0  0  0
  -22.9110  -10.2660   20.1320 C   0  0  0  0  0  3  0  0  0  0  0  0
  -21.8510   -6.9930   21.3940 O   0  0  0  0  0  0  0  0  0  0  0  0
  -21.7620   -6.2920   22.5680 C   0  0  0  0  0  0  0  0  0  0  0  0
  -21.2930   -6.8920   23.7590 C   0  0  0  0  0  3  0  0  0  0  0  0
  -21.1550   -6.1200   24.9290 C   0  0  0  0  0  3  0  0  0  0  0  0
  -21.4720   -4.7470   24.9090 C   0  0  0  0  0  0  0  0  0  0  0  0
  -21.9320   -4.1480   23.7240 C   0  0  0  0  0  3  0  0  0  0  0  0
  -22.0730   -4.9170   22.5570 C   0  0  0  0  0  0  0  0  0  0  0  0
  -22.4970   -4.3310   21.4110 F   0  0  0  0  0  0  0  0  0  0  0  0
  -21.3290   -4.0020   26.0300 F   0  0  0  0  0  0  0  0  0  0  0  0
  -22.9460  -13.6320   21.0720 C   0  0  0  0  0  0  0  0  0  0  0  0
  -22.2490  -12.9320   21.9590 N   0  0  0  0  0  0  0  0  0  0  0  0
  -22.4900  -14.6590   20.5710 O   0  0  0  0  0  0  0  0  0  0  0  0
  -22.6360  -12.1050   22.3880 H   0  0  0  0  0  0  0  0  0  0  0  0
  -21.3190  -13.2290   22.2190 H   0  0  0  0  0  0  0  0  0  0  0  0
  -25.5430  -15.2950   20.1560 N   0  0  0  0  0  0  0  0  0  0  0  0
  -24.7700  -15.9390   20.2870 H   0  0  0  0  0  0  0  0  0  0  0  0
  -26.3510  -15.7250   19.7260 H   0  0  0  0  0  0  0  0  0  0  0  0
  -31.2250  -18.8750   22.3400 C   0  0  0  0  0  1  0  0  0  0  0  0
  -31.0210  -17.4820   21.7230 C   0  0  0  0  0  2  0  0  0  0  0  0
  -28.6630  -23.7280   19.6320 C   0  0  0  0  0  3  0  0  0  0  0  0
  -29.5180  -24.2290   18.5340 N   0  0  0  0  0  4  0  0  0  0  0  0
  -30.4620  -24.3420   18.8670 H   0  0  0  0  0  0  0  0  0  0  0  0
  -29.1900  -25.1260   18.2200 H   0  0  0  0  0  0  0  0  0  0  0  0
  -29.5280  -23.6000   17.7520 H   0  0  0  0  0  0  0  0  0  0  0  0
  -28.3450  -24.9840   20.6120 C   0  0  0  0  0  2  0  0  0  0  0  0
  -28.4090  -26.4210   20.1490 O   0  0  0  0  0  0  0  0  0  0  0  0
  -24.6140  -31.8550   23.1880 C   0  0  0  0  0  0  0  0  0  0  0  0
  -27.2740  -27.2630   20.1720 C   0  0  0  0  0  0  0  0  0  0  0  0
  -23.4320  -30.4480   21.5390 C   0  0  0  0  0  3  0  0  0  0  0  0
  -24.9020  -28.8860   20.1370 C   0  0  0  0  0  0  0  0  0  0  0  0
  -25.9740  -30.7660   21.3790 C   0  0  0  0  0  2  0  0  0  0  0  0
  -26.0660  -29.3790   20.7390 C   0  0  0  0  0  0  0  0  0  0  0  0
  -27.2570  -28.5830   20.7380 C   0  0  0  0  0  3  0  0  0  0  0  0
  -26.0850  -26.8250   19.5560 C   0  0  0  0  0  3  0  0  0  0  0  0
  -24.9160  -27.6160   19.5340 C   0  0  0  0  0  3  0  0  0  0  0  0
  -23.6650  -29.7630   20.1640 C   0  0  0  0  0  2  0  0  0  0  0  0
  -24.6920  -31.0420   22.0920 N   0  0  0  0  0  0  0  0  0  0  0  0
  -23.5240  -32.1290   23.7120 O   0  0  0  0  0  0  0  0  0  0  0  0
  -22.7590  -29.4360   22.4960 C   0  0  0  0  0  0  0  0  0  0  0  0
  -21.4330  -29.2660   22.3660 N   0  0  0  0  0  0  0  0  0  0  0  0
  -23.4330  -28.8040   23.3150 O   0  0  0  0  0  0  0  0  0  0  0  0
  -20.9490  -29.8330   21.6830 H   0  0  0  0  0  0  0  0  0  0  0  0
  -18.0460  -28.0820   22.8540 C   0  0  0  0  0  0  0  0  0  0  0  0
  -20.6060  -28.3280   23.1290 C   0  0  0  0  0  3  0  0  0  0  0  0
  -20.7010  -26.8990   22.5470 C   0  0  0  0  0  2  0  0  0  0  0  0
  -19.5990  -26.5880   21.5300 C   0  0  0  0  0  2  0  0  0  0  0  0
  -18.2160  -26.7360   22.1720 C   0  0  0  0  0  2  0  0  0  0  0  0
  -19.1680  -28.8380   23.2890 C   0  0  0  0  0  0  0  0  0  0  0  0
  -18.9530  -30.0980   23.8850 C   0  0  0  0  0  3  0  0  0  0  0  0
  -17.6500  -30.6040   24.0540 C   0  0  0  0  0  3  0  0  0  0  0  0
  -16.5440  -29.8450   23.6350 C   0  0  0  0  0  3  0  0  0  0  0  0
  -16.7420  -28.5880   23.0400 C   0  0  0  0  0  3  0  0  0  0  0  0
  -25.8850  -32.4930   23.8260 C   0  0  0  0  0  3  0  0  0  0  0  0
  -26.3930  -31.7220   25.1080 C   0  0  1  0  0  0  0  0  0  0  0  0
  -25.2930  -31.4780   26.1670 C   0  0  0  0  0  1  0  0  0  0  0  0
  -26.9850  -30.3470   24.7200 C   0  0  0  0  0  1  0  0  0  0  0  0
  -27.5370  -32.5180   25.7790 C   0  0  0  0  0  1  0  0  0  0  0  0
  -25.5670  -33.8910   24.1570 N   0  0  0  0  0  0  0  0  0  0  0  0
  -25.9070  -34.9480   23.4070 C   0  0  0  0  0  0  0  0  0  0  0  0
  -26.5880  -34.8490   22.3840 O   0  0  0  0  0  0  0  0  0  0  0  0
  -24.9600  -34.0410   24.9510 H   0  0  0  0  0  0  0  0  0  0  0  0
  -24.1820  -36.7430   23.0390 C   0  0  0  0  0  1  0  0  0  0  0  0
  -25.4130  -36.3350   23.8630 C   0  0  0  0  0  3  0  0  0  0  0  0
  -27.5380  -37.2180   24.7220 C   0  0  0  0  0  1  0  0  0  0  0  0
  -26.4460  -37.3880   23.7660 N   0  0  0  0  0  0  0  0  0  0  0  0
  -26.0390  -38.3080   23.9110 H   0  0  0  0  0  0  0  0  0  0  0  0
  1  2  2  0
  3  1  1  0
  4  5  2  0
  4  7  1  0
  5  8  1  0
  6 10  1  0
  7  6  2  0
  8  6  1  0
  8  3  1  0
 10  9  1  1
 10 50  1  0
 11 19  1  0
 12 17  1  0
 13 14  1  0
 13 12  1  0
 15 14  1  0
 15 24  1  0
 15 16  1  0
 17 11  1  0
 17 16  1  0
 18 11  2  0
 19 20  1  0
 19 10  1  0
 21 22  2  0
 22 41  1  0
 23 22  1  0
 23 26  1  0
 24 25  1  0
 24 21  1  0
 25 23  2  0
 26 27  1  0
 27 28  2  0
 29 32  1  0
 29 28  1  0
 30 29  2  0
 31 30  1  0
 31 26  2  0
 32 33  1  0
 33 34  1  0
 34 35  2  0
 36 35  1  0
 36 40  1  0
 37 36  2  0
 38 33  2  0
 38 37  1  0
 39 38  1  0
 41 42  1  0
 42 45  1  0
 42 44  1  0
 43 41  2  0
 46 47  1  0
 46 21  1  0
 48 46  1  0
 50 49  1  0
 51  1  1  0
 51 56  1  0
 52 53  1  0
 52 51  1  0
 54 52  1  0
 55 52  1  0
 57 59  1  0
 57 56  1  0
 58 69  2  0
 59 64  1  0
 60 68  1  0
 60 70  1  0
 61 67  1  0
 61 63  1  0
 62 68  1  0
 63 62  1  0
 64 63  2  0
 65 59  2  0
 66 65  1  0
 66 61  2  0
 67 60  1  0
 68 58  1  0
 70 72  2  0
 71 70  1  0
 73 71  1  0
 74 83  2  0
 74 79  1  0
 75 71  1  0
 75 79  1  0
 76 75  1  0
 77 78  1  0
 77 76  1  0
 78 74  1  0
 79 80  2  0
 80 81  1  0
 82 81  2  0
 83 82  1  0
 84 58  1  0
 84 89  1  0
 84 85  1  0
 85 88  1  1
 85 86  1  0
 87 85  1  0
 89 92  1  0
 90 94  1  0
 90 89  1  0
 91 90  2  0
 94 93  1  0
 96 94  1  0
 96 97  1  0
 96 95  1  0
M  ISO  4  11 100  19 100  56 101  57 101
M  END
>  <TORSDO>  (22) 
F 23

>  <SCORE>  (22) 
-12.584

>  <name>  (22) 
21

>  <ligand_id>  (22) 
21

>  <original_smiles>  (22) 
[H]c1nc(C(N([H])C(=O)N2C([H])([H])C([H])([H])C([H])([H])C([H])(n3nc(-c4c([H])c([H])c(Oc5c([H])c([H])c(F)c([H])c5F)c([H])c4[H])c(C(=O)N([H])[H])c3N([H])[H])C2([H])[H])(C([H])([H])[H])C([H])([H])C([H])([H])[H])n(C([H])([H])C(=O)C([H])(C([H])([H])Oc2c([H])c([H])c3c(c2[H])C([H])([H])N(C(=O)C([H])(N([H])C(=O)C([H])(N([H])C([H])([H])[H])C([H])([H])[H])C(C([H])([H])[H])(C([H])([H])[H])C([H])([H])[H])C([H])(C(=O)N([H])C2([H])c4c([H])c([H])c([H])c([H])c4C([H])([H])C([H])([H])C2([H])[H])C3([H])[H])[N+]([H])([H])[H])c1[H]

>  <smiles>  (22) 
[H]c1nc(C(N([H])C(=O)N2C([H])([H])C([H])([H])C([H])([H])C([H])(n3nc(-c4c([H])c([H])c(Oc5c([H])c([H])c(F)c([H])c5F)c([H])c4[H])c(C(=O)N([H])[H])c3N([H])[H])C2([H])[H])(C([H])([H])[H])C([H])([H])C([H])([H])[H])n(C([H])([H])C(=O)C([H])(C([H])([H])Oc2c([H])c([H])c3c(c2[H])C([H])([H])N(C(=O)C([H])(N([H])C(=O)C([H])(N([H])C([H])([H])[H])C([H])([H])[H])C(C([H])([H])[H])(C([H])([H])[H])C([H])([H])[H])C([H])(C(=O)N([H])C2([H])c4c([H])c([H])c([H])c([H])c4C([H])([H])C([H])([H])C2([H])[H])C3([H])[H])[N+]([H])([H])[H])c1[H]

$$$$
22:0:0
     RDKit          3D

 97105  0  0  1  0  0  0  0  0999 V2000
  -30.9830  -21.8510   19.0750 C   0  0  0  0  0  3  0  0  0  0  0  0
  -31.3880  -20.6730   18.4250 C   0  0  0  0  0  3  0  0  0  0  0  0
  -30.2250  -20.5360   20.9670 C   0  0  0  0  0  3  0  0  0  0  0  0
  -30.3830  -21.8210   20.3460 C   0  0  0  0  0  0  0  0  0  0  0  0
  -31.2530  -19.4120   19.0450 C   0  0  0  0  0  0  0  0  0  0  0  0
  -30.6630  -19.3160   20.3420 C   0  0  0  0  0  0  0  0  0  0  0  0
  -30.0470  -23.1960   21.0200 C   0  0  0  0  0  2  0  0  0  0  0  0
  -28.1740  -23.5720   19.3270 C   0  0  0  0  0  1  0  0  0  0  0  0
  -27.6640  -23.0840   21.7370 C   0  0  0  0  0  1  0  0  0  0  0  0
  -28.6150  -23.8440   20.7800 C   0  0  1  0  0  0  0  0  0  0  0  0
  -28.4920  -25.4100   21.1540 C   0  0  0  0  0  2  0  0  0  0  0  0
  -28.3720  -26.5020   20.1660 O   0  0  0  0  0  0  0  0  0  0  0  0
  -24.5850  -31.8590   23.2360 C   0  0  0  0  0  0  0  0  0  0  0  0
  -27.2390  -27.3260   20.2050 C   0  0  0  0  0  0  0  0  0  0  0  0
  -23.3900  -30.4600   21.5800 C   0  0  0  0  0  3  0  0  0  0  0  0
  -24.8560  -28.9050   20.1760 C   0  0  0  0  0  0  0  0  0  0  0  0
  -25.9230  -30.7940   21.4100 C   0  0  0  0  0  2  0  0  0  0  0  0
  -26.0200  -29.4140   20.7660 C   0  0  0  0  0  0  0  0  0  0  0  0
  -27.2160  -28.6370   20.7650 C   0  0  0  0  0  3  0  0  0  0  0  0
  -26.0490  -26.8460   19.6220 C   0  0  0  0  0  3  0  0  0  0  0  0
  -24.8710  -27.6170   19.6050 C   0  0  0  0  0  3  0  0  0  0  0  0
  -23.6140  -29.7750   20.2070 C   0  0  0  0  0  2  0  0  0  0  0  0
  -24.6490  -31.0580   22.1320 N   0  0  0  0  0  0  0  0  0  0  0  0
  -23.5020  -32.1300   23.7720 O   0  0  0  0  0  0  0  0  0  0  0  0
  -22.7230  -29.4470   22.5380 C   0  0  0  0  0  0  0  0  0  0  0  0
  -21.3970  -29.2750   22.4180 N   0  0  0  0  0  0  0  0  0  0  0  0
  -23.4030  -28.8150   23.3540 O   0  0  0  0  0  0  0  0  0  0  0  0
  -20.9050  -29.8390   21.7380 H   0  0  0  0  0  0  0  0  0  0  0  0
  -18.0160  -28.0910   22.9310 C   0  0  0  0  0  0  0  0  0  0  0  0
  -20.5780  -28.3390   23.1890 C   0  0  0  0  0  3  0  0  0  0  0  0
  -20.6660  -26.9100   22.6040 C   0  0  0  0  0  2  0  0  0  0  0  0
  -19.5560  -26.5980   21.5930 C   0  0  0  0  0  2  0  0  0  0  0  0
  -18.1790  -26.7460   22.2460 C   0  0  0  0  0  2  0  0  0  0  0  0
  -19.1410  -28.8440   23.3610 C   0  0  0  0  0  0  0  0  0  0  0  0
  -18.9340  -30.1020   23.9650 C   0  0  0  0  0  3  0  0  0  0  0  0
  -17.6320  -30.6100   24.1440 C   0  0  0  0  0  3  0  0  0  0  0  0
  -16.5210  -29.8550   23.7290 C   0  0  0  0  0  3  0  0  0  0  0  0
  -16.7140  -28.5970   23.1300 C   0  0  0  0  0  3  0  0  0  0  0  0
  -25.8690  -32.4880   23.8670 C   0  0  0  0  0  3  0  0  0  0  0  0
  -26.3740  -31.7210   25.1490 C   0  0  1  0  0  0  0  0  0  0  0  0
  -25.2760  -31.4940   26.2130 C   0  0  0  0  0  1  0  0  0  0  0  0
  -26.9590  -30.3420   24.7670 C   0  0  0  0  0  1  0  0  0  0  0  0
  -27.5260  -32.5110   25.8110 C   0  0  0  0  0  1  0  0  0  0  0  0
  -25.5630  -33.8880   24.1930 N   0  0  0  0  0  0  0  0  0  0  0  0
  -25.9040  -34.9390   23.4330 C   0  0  0  0  0  0  0  0  0  0  0  0
  -26.5800  -34.8300   22.4060 O   0  0  0  0  0  0  0  0  0  0  0  0
  -24.9630  -34.0480   24.9890 H   0  0  0  0  0  0  0  0  0  0  0  0
  -24.1920  -36.7400   23.0540 C   0  0  0  0  0  1  0  0  0  0  0  0
  -25.4200  -36.3290   23.8830 C   0  0  0  0  0  3  0  0  0  0  0  0
  -27.5480  -37.2020   24.7430 C   0  0  0  0  0  1  0  0  0  0  0  0
  -26.4630  -37.3760   23.7810 N   0  0  0  0  0  0  0  0  0  0  0  0
  -26.0600  -38.2990   23.9210 H   0  0  0  0  0  0  0  0  0  0  0  0
  -30.6380  -17.9540   21.1150 C   0  0  0  0  0  3  0  0  0  0  0  0
  -29.6980  -16.7980   20.6000 C   0  0  0  0  0  3  0  0  0  0  0  0
  -30.6410  -14.4780   20.4300 C   0  0  0  0  0  0  0  0  0  0  0  0
  -30.3470  -12.3700   19.1770 C   0  0  0  0  0  2  0  0  0  0  0  0
  -29.3560  -12.6330   18.0170 C   0  0  0  0  0  2  0  0  0  0  0  0
  -27.8950  -12.4970   18.4770 C   0  0  0  0  0  2  0  0  0  0  0  0
  -27.5940  -13.2620   19.7970 C   0  0  0  0  0  3  0  0  0  0  0  0
  -28.6800  -12.9440   20.8580 C   0  0  0  0  0  2  0  0  0  0  0  0
  -30.0000  -13.2830   20.2810 N   0  0  0  0  0  0  0  0  0  0  0  0
  -31.6980  -14.7600   19.8540 O   0  0  0  0  0  0  0  0  0  0  0  0
  -29.9400  -15.4180   21.0950 N   0  0  0  0  0  0  0  0  0  0  0  0
  -29.1970  -15.0150   21.6530 H   0  0  0  0  0  0  0  0  0  0  0  0
  -25.1820  -13.8470   20.4940 C   0  0  0  0  0  0  0  0  0  0  0  0
  -24.1200  -13.0620   20.8720 C   0  0  0  0  0  0  0  0  0  0  0  0
  -24.5960  -11.7180   20.8400 C   0  0  0  0  0  0  0  0  0  0  0  0
  -26.2360  -12.9770   20.2690 N   0  0  0  0  0  0  0  0  0  0  0  0
  -25.8860  -11.6890   20.5290 N   0  0  0  0  0  0  0  0  0  0  0  0
  -23.8810  -10.4470   21.0380 C   0  0  0  0  0  0  0  0  0  0  0  0
  -24.3210   -9.4830   21.9710 C   0  0  0  0  0  3  0  0  0  0  0  0
  -23.6050   -8.2830   22.1570 C   0  0  0  0  0  3  0  0  0  0  0  0
  -22.4290   -8.0390   21.4100 C   0  0  0  0  0  0  0  0  0  0  0  0
  -22.0040   -8.9920   20.4680 C   0  0  0  0  0  3  0  0  0  0  0  0
  -22.7220  -10.1860   20.2820 C   0  0  0  0  0  3  0  0  0  0  0  0
  -21.6840   -6.8890   21.5100 O   0  0  0  0  0  0  0  0  0  0  0  0
  -21.6480   -6.1540   22.6650 C   0  0  0  0  0  0  0  0  0  0  0  0
  -21.2140   -6.7080   23.8900 C   0  0  0  0  0  3  0  0  0  0  0  0
  -21.1420   -5.9000   25.0420 C   0  0  0  0  0  3  0  0  0  0  0  0
  -21.4790   -4.5340   24.9650 C   0  0  0  0  0  0  0  0  0  0  0  0
  -21.8920   -3.9770   23.7430 C   0  0  0  0  0  3  0  0  0  0  0  0
  -21.9750   -4.7840   22.5960 C   0  0  0  0  0  0  0  0  0  0  0  0
  -22.3630   -4.2390   21.4160 F   0  0  0  0  0  0  0  0  0  0  0  0
  -21.3920   -3.7540   26.0680 F   0  0  0  0  0  0  0  0  0  0  0  0
  -22.7210  -13.5380   21.1510 C   0  0  0  0  0  0  0  0  0  0  0  0
  -22.0060  -12.8400   22.0290 N   0  0  0  0  0  0  0  0  0  0  0  0
  -22.2720  -14.5610   20.6370 O   0  0  0  0  0  0  0  0  0  0  0  0
  -22.3720  -12.0090   22.4610 H   0  0  0  0  0  0  0  0  0  0  0  0
  -21.0740  -13.1460   22.2680 H   0  0  0  0  0  0  0  0  0  0  0  0
  -25.3250  -15.2140   20.3060 N   0  0  0  0  0  0  0  0  0  0  0  0
  -24.5290  -15.8330   20.3970 H   0  0  0  0  0  0  0  0  0  0  0  0
  -26.1470  -15.6650   19.9200 H   0  0  0  0  0  0  0  0  0  0  0  0
  -31.8150  -18.2130   18.2880 C   0  0  0  0  0  2  0  0  0  0  0  0
  -30.8080  -17.5980   17.4070 N   0  0  0  0  0  4  0  0  0  0  0  0
  -30.1080  -17.1560   17.9730 H   0  0  0  0  0  0  0  0  0  0  0  0
  -31.2390  -16.9030   16.8210 H   0  0  0  0  0  0  0  0  0  0  0  0
  -30.3700  -18.2910   16.8280 H   0  0  0  0  0  0  0  0  0  0  0  0
  1  4  1  0
  2  5  1  0
  2  1  2  0
  4  3  2  0
  4  7  1  0
  5  6  2  0
  6  3  1  0
  6 53  1  0
 10  8  1  6
 10  7  1  0
 10 11  1  0
 10  9  1  0
 12 14  1  0
 12 11  1  0
 13 24  2  0
 14 19  1  0
 15 23  1  0
 15 25  1  0
 16 22  1  0
 16 18  1  0
 17 23  1  0
 18 17  1  0
 19 18  2  0
 20 14  2  0
 21 20  1  0
 21 16  2  0
 22 15  1  0
 23 13  1  0
 25 27  2  0
 26 25  1  0
 28 26  1  0
 29 38  2  0
 29 34  1  0
 30 26  1  0
 30 34  1  0
 31 30  1  0
 32 33  1  0
 32 31  1  0
 33 29  1  0
 34 35  2  0
 35 36  1  0
 37 36  2  0
 38 37  1  0
 39 13  1  0
 39 44  1  0
 39 40  1  0
 40 43  1  1
 40 41  1  0
 42 40  1  0
 44 47  1  0
 45 49  1  0
 45 44  1  0
 46 45  2  0
 49 48  1  0
 51 49  1  0
 51 52  1  0
 51 50  1  0
 54 63  1  0
 54 53  2  0
 55 63  1  0
 56 61  1  0
 57 58  1  0
 57 56  1  0
 59 58  1  0
 59 68  1  0
 59 60  1  0
 61 55  1  0
 61 60  1  0
 62 55  2  0
 63 64  1  0
 65 66  2  0
 66 85  1  0
 67 66  1  0
 67 70  1  0
 68 65  1  0
 68 69  1  0
 69 67  2  0
 70 71  1  0
 71 72  2  0
 73 76  1  0
 73 72  1  0
 74 73  2  0
 75 74  1  0
 75 70  2  0
 76 77  1  0
 77 78  1  0
 78 79  2  0
 80 79  1  0
 80 84  1  0
 81 80  2  0
 82 77  2  0
 82 81  1  0
 83 82  1  0
 85 86  1  0
 86 89  1  0
 86 88  1  0
 87 85  2  0
 90 91  1  0
 90 65  1  0
 92 90  1  0
 93  5  1  0
 94 95  1  0
 94 93  1  0
 96 94  1  0
 97 94  1  0
M  ISO  4  11 101  12 101  55 100  63 100
M  END
>  <TORSDO>  (23) 
F 23

>  <SCORE>  (23) 
-13.307

>  <name>  (23) 
22

>  <ligand_id>  (23) 
22

>  <original_smiles>  (23) 
[H]c1c([H])c([H])c2c(c1[H])C([H])([H])C([H])([H])C([H])([H])C2([H])N([H])C(=O)C1([H])N(C(=O)C([H])(N([H])C(=O)C([H])(N([H])C([H])([H])[H])C([H])([H])[H])C(C([H])([H])[H])(C([H])([H])[H])C([H])([H])[H])C([H])([H])c2c([H])c(OC([H])([H])C(C([H])([H])[H])(C([H])([H])[H])C([H])([H])c3c([H])c([H])c(C([H])([H])[N+]([H])([H])[H])c(C([H])([H])C([H])([H])N([H])C(=O)N4C([H])([H])C([H])([H])C([H])([H])C([H])(n5nc(-c6c([H])c([H])c(Oc7c([H])c([H])c(F)c([H])c7F)c([H])c6[H])c(C(=O)N([H])[H])c5N([H])[H])C4([H])[H])c3[H])c([H])c([H])c2C1([H])[H]

>  <smiles>  (23) 
[H]c1c([H])c([H])c2c(c1[H])C([H])([H])C([H])([H])C([H])([H])C2([H])N([H])C(=O)C1([H])N(C(=O)C([H])(N([H])C(=O)C([H])(N([H])C([H])([H])[H])C([H])([H])[H])C(C([H])([H])[H])(C([H])([H])[H])C([H])([H])[H])C([H])([H])c2c([H])c(OC([H])([H])C(C([H])([H])[H])(C([H])([H])[H])C([H])([H])c3c([H])c([H])c(C([H])([H])[N+]([H])([H])[H])c(C([H])([H])C([H])([H])N([H])C(=O)N4C([H])([H])C([H])([H])C([H])([H])C([H])(n5nc(-c6c([H])c([H])c(Oc7c([H])c([H])c(F)c([H])c7F)c([H])c6[H])c(C(=O)N([H])[H])c5N([H])[H])C4([H])[H])c3[H])c([H])c([H])c2C1([H])[H]

$$$$
23:0:0
     RDKit          3D

101109  0  0  1  0  0  0  0  0999 V2000
  -31.2550  -22.3310   20.3520 C   0  0  0  0  0  0  0  0  0  0  0  0
  -31.3520  -23.6280   19.9320 C   0  0  0  0  0  0  0  0  0  0  0  0
  -32.3950  -21.5860   21.0540 C   0  0  0  0  0  1  0  0  0  0  0  0
  -32.4610  -25.8970   20.4450 C   0  0  0  0  0  1  0  0  0  0  0  0
  -32.6650  -24.4370   20.0020 C   0  0  0  0  0  3  0  0  0  0  0  0
  -33.4180  -24.3360   18.7360 N   0  0  0  0  0  4  0  0  0  0  0  0
  -32.9200  -24.7560   17.9710 H   0  0  0  0  0  0  0  0  0  0  0  0
  -33.5830  -23.3700   18.5130 H   0  0  0  0  0  0  0  0  0  0  0  0
  -34.3120  -24.7860   18.8200 H   0  0  0  0  0  0  0  0  0  0  0  0
  -29.9860  -21.4860   20.1460 C   0  0  0  0  0  2  0  0  0  0  0  0
  -30.2180  -19.1530   19.1600 C   0  0  0  0  0  3  0  0  0  0  0  0
  -30.3350  -17.7510   19.2600 C   0  0  0  0  0  3  0  0  0  0  0  0
  -30.2410  -17.9290   21.6800 C   0  0  0  0  0  3  0  0  0  0  0  0
  -30.1150  -19.9620   20.3140 C   0  0  0  0  0  0  0  0  0  0  0  0
  -30.3510  -17.1200   20.5280 C   0  0  0  0  0  0  0  0  0  0  0  0
  -30.1320  -19.3360   21.5840 C   0  0  0  0  0  0  0  0  0  0  0  0
  -31.0640  -14.7760   19.9790 C   0  0  0  0  0  0  0  0  0  0  0  0
  -30.8050  -12.5690   18.9100 C   0  0  0  0  0  2  0  0  0  0  0  0
  -29.7700  -12.6910   17.7720 C   0  0  0  0  0  2  0  0  0  0  0  0
  -28.3340  -12.5080   18.3070 C   0  0  0  0  0  2  0  0  0  0  0  0
  -28.0520  -13.3690   19.5670 C   0  0  0  0  0  3  0  0  0  0  0  0
  -29.1890  -13.2090   20.6020 C   0  0  0  0  0  2  0  0  0  0  0  0
  -30.4620  -13.5570   19.9430 N   0  0  0  0  0  0  0  0  0  0  0  0
  -32.1040  -15.0290   19.3610 O   0  0  0  0  0  0  0  0  0  0  0  0
  -30.4090  -15.7020   20.7050 N   0  0  0  0  0  0  0  0  0  0  0  0
  -29.7140  -15.3160   21.3240 H   0  0  0  0  0  0  0  0  0  0  0  0
  -25.7300  -13.9140   20.5420 C   0  0  0  0  0  0  0  0  0  0  0  0
  -24.7010  -13.1120   20.9560 C   0  0  0  0  0  0  0  0  0  0  0  0
  -25.1550  -11.7680   20.7820 C   0  0  0  0  0  0  0  0  0  0  0  0
  -26.7480  -13.0580   20.1490 N   0  0  0  0  0  0  0  0  0  0  0  0
  -26.4080  -11.7580   20.3480 N   0  0  0  0  0  0  0  0  0  0  0  0
  -24.4480  -10.4910   20.9480 C   0  0  0  0  0  0  0  0  0  0  0  0
  -24.8440   -9.5520   21.9270 C   0  0  0  0  0  3  0  0  0  0  0  0
  -24.1400   -8.3380   22.0810 C   0  0  0  0  0  3  0  0  0  0  0  0
  -23.0250   -8.0550   21.2560 C   0  0  0  0  0  0  0  0  0  0  0  0
  -22.6500   -8.9830   20.2690 C   0  0  0  0  0  3  0  0  0  0  0  0
  -23.3550  -10.1880   20.1120 C   0  0  0  0  0  3  0  0  0  0  0  0
  -22.2980   -6.8910   21.3170 O   0  0  0  0  0  0  0  0  0  0  0  0
  -21.9830   -6.3000   22.5140 C   0  0  0  0  0  0  0  0  0  0  0  0
  -21.2260   -6.9710   23.5000 C   0  0  0  0  0  3  0  0  0  0  0  0
  -20.8650   -6.3000   24.6860 C   0  0  0  0  0  3  0  0  0  0  0  0
  -21.2510   -4.9610   24.8850 C   0  0  0  0  0  0  0  0  0  0  0  0
  -22.0000   -4.2910   23.9020 C   0  0  0  0  0  3  0  0  0  0  0  0
  -22.3620   -4.9580   22.7190 C   0  0  0  0  0  0  0  0  0  0  0  0
  -23.0650   -4.3010   21.7650 F   0  0  0  0  0  0  0  0  0  0  0  0
  -20.8990   -4.3150   26.0210 F   0  0  0  0  0  0  0  0  0  0  0  0
  -23.3360  -13.5590   21.3980 C   0  0  0  0  0  0  0  0  0  0  0  0
  -22.7070  -12.8110   22.2970 N   0  0  0  0  0  0  0  0  0  0  0  0
  -22.8400  -14.6050   20.9810 O   0  0  0  0  0  0  0  0  0  0  0  0
  -23.1230  -11.9640   22.6570 H   0  0  0  0  0  0  0  0  0  0  0  0
  -21.7950  -13.0890   22.6300 H   0  0  0  0  0  0  0  0  0  0  0  0
  -25.8810  -15.2940   20.4490 N   0  0  0  0  0  0  0  0  0  0  0  0
  -25.1360  -15.9410   20.6840 H   0  0  0  0  0  0  0  0  0  0  0  0
  -26.7050  -15.7560   20.0850 H   0  0  0  0  0  0  0  0  0  0  0  0
  -30.0450  -20.0890   22.7550 N   0  0  0  0  0  0  0  0  0  0  0  0
  -30.3520  -19.6690   23.6260 H   0  0  0  0  0  0  0  0  0  0  0  0
  -30.2620  -21.0770   22.6990 H   0  0  0  0  0  0  0  0  0  0  0  0
  -30.1610  -24.4030   19.3290 C   0  0  0  0  0  2  0  0  0  0  0  0
  -29.2150  -25.0330   20.3830 C   0  0  0  0  0  2  0  0  0  0  0  0
  -29.0410  -26.5690   20.2900 C   0  0  0  0  0  2  0  0  0  0  0  0
  -28.2810  -26.9240   19.1370 O   0  0  0  0  0  0  0  0  0  0  0  0
  -24.7010  -31.6000   23.1980 C   0  0  0  0  0  0  0  0  0  0  0  0
  -27.1550  -27.6810   19.3580 C   0  0  0  0  0  0  0  0  0  0  0  0
  -23.4050  -30.4710   21.4180 C   0  0  0  0  0  3  0  0  0  0  0  0
  -24.7760  -29.1640   19.7090 C   0  0  0  0  0  0  0  0  0  0  0  0
  -25.9200  -30.8480   21.1620 C   0  0  0  0  0  2  0  0  0  0  0  0
  -25.9620  -29.5880   20.3230 C   0  0  0  0  0  0  0  0  0  0  0  0
  -27.1560  -28.8500   20.1550 C   0  0  0  0  0  3  0  0  0  0  0  0
  -25.9580  -27.2750   18.7360 C   0  0  0  0  0  3  0  0  0  0  0  0
  -24.7660  -28.0020   18.9170 C   0  0  0  0  0  3  0  0  0  0  0  0
  -23.5440  -30.0080   19.9420 C   0  0  0  0  0  2  0  0  0  0  0  0
  -24.6960  -30.9790   21.9850 N   0  0  0  0  0  0  0  0  0  0  0  0
  -23.6500  -31.7900   23.8250 O   0  0  0  0  0  0  0  0  0  0  0  0
  -22.7870  -29.3170   22.2400 C   0  0  0  0  0  0  0  0  0  0  0  0
  -21.4600  -29.1430   22.1240 N   0  0  0  0  0  0  0  0  0  0  0  0
  -23.4970  -28.5870   22.9390 O   0  0  0  0  0  0  0  0  0  0  0  0
  -20.9480  -29.7870   21.5370 H   0  0  0  0  0  0  0  0  0  0  0  0
  -18.1100  -27.8500   22.5150 C   0  0  0  0  0  0  0  0  0  0  0  0
  -20.6700  -28.0990   22.7750 C   0  0  0  0  0  3  0  0  0  0  0  0
  -20.7770  -26.7620   22.0050 C   0  0  0  0  0  2  0  0  0  0  0  0
  -19.6570  -26.5670   20.9780 C   0  0  0  0  0  2  0  0  0  0  0  0
  -18.2870  -26.6060   21.6600 C   0  0  0  0  0  2  0  0  0  0  0  0
  -19.2300  -28.5590   23.0260 C   0  0  0  0  0  0  0  0  0  0  0  0
  -19.0110  -29.7280   23.7860 C   0  0  0  0  0  3  0  0  0  0  0  0
  -17.7050  -30.1870   24.0400 C   0  0  0  0  0  3  0  0  0  0  0  0
  -16.6000  -29.4730   23.5460 C   0  0  0  0  0  3  0  0  0  0  0  0
  -16.8040  -28.3040   22.7900 C   0  0  0  0  0  3  0  0  0  0  0  0
  -26.0220  -32.1200   23.8440 C   0  0  0  0  0  3  0  0  0  0  0  0
  -26.5570  -31.1930   25.0040 C   0  0  1  0  0  0  0  0  0  0  0  0
  -25.4920  -30.8690   26.0780 C   0  0  0  0  0  1  0  0  0  0  0  0
  -27.0780  -29.8530   24.4350 C   0  0  0  0  0  1  0  0  0  0  0  0
  -27.7550  -31.8720   25.7090 C   0  0  0  0  0  1  0  0  0  0  0  0
  -25.7660  -33.4790   24.3410 N   0  0  0  0  0  0  0  0  0  0  0  0
  -26.1400  -34.6000   23.7110 C   0  0  0  0  0  0  0  0  0  0  0  0
  -26.8080  -34.5960   22.6730 O   0  0  0  0  0  0  0  0  0  0  0  0
  -25.1750  -33.5590   25.1550 H   0  0  0  0  0  0  0  0  0  0  0  0
  -24.4820  -36.4850   23.5710 C   0  0  0  0  0  1  0  0  0  0  0  0
  -25.7020  -35.9410   24.3300 C   0  0  0  0  0  3  0  0  0  0  0  0
  -27.8590  -36.6430   25.2720 C   0  0  0  0  0  1  0  0  0  0  0  0
  -26.7750  -36.9600   24.3460 N   0  0  0  0  0  0  0  0  0  0  0  0
  -26.4010  -37.8720   24.5950 H   0  0  0  0  0  0  0  0  0  0  0  0
  1  3  1  0
  2  5  1  0
  2  1  2  0
  5  4  1  0
  6  9  1  0
  6  5  1  0
  7  6  1  0
  8  6  1  0
 10 14  1  0
 10  1  1  0
 11 12  2  0
 11 14  1  0
 12 15  1  0
 14 16  2  0
 15 25  1  0
 15 13  2  0
 16 13  1  0
 16 55  1  0
 17 25  1  0
 18 23  1  0
 19 20  1  0
 19 18  1  0
 21 20  1  0
 21 30  1  0
 21 22  1  0
 23 17  1  0
 23 22  1  0
 24 17  2  0
 25 26  1  0
 27 28  2  0
 28 47  1  0
 29 32  1  0
 29 28  1  0
 30 31  1  0
 30 27  1  0
 31 29  2  0
 32 33  1  0
 33 34  2  0
 35 38  1  0
 35 34  1  0
 36 35  2  0
 37 36  1  0
 37 32  2  0
 38 39  1  0
 39 44  2  0
 39 40  1  0
 40 41  2  0
 41 42  1  0
 42 46  1  0
 43 42  2  0
 44 43  1  0
 45 44  1  0
 47 48  1  0
 48 51  1  0
 48 50  1  0
 49 47  2  0
 52 27  1  0
 52 53  1  0
 54 52  1  0
 55 56  1  0
 57 55  1  0
 58  2  1  0
 58 59  1  0
 60 59  1  0
 61 63  1  0
 61 60  1  0
 62 73  2  0
 63 68  1  0
 64 72  1  0
 64 74  1  0
 65 71  1  0
 65 67  1  0
 66 72  1  0
 67 66  1  0
 68 67  2  0
 69 70  1  0
 69 63  2  0
 70 65  2  0
 71 64  1  0
 72 62  1  0
 74 76  2  0
 75 74  1  0
 77 75  1  0
 78 87  2  0
 78 83  1  0
 79 75  1  0
 79 83  1  0
 80 79  1  0
 81 82  1  0
 81 80  1  0
 82 78  1  0
 83 84  2  0
 84 85  1  0
 86 85  2  0
 87 86  1  0
 88 62  1  0
 88 93  1  0
 88 89  1  0
 89 92  1  1
 89 90  1  0
 91 89  1  0
 93 96  1  0
 94 98  1  0
 94 93  1  0
 95 94  2  0
 98 97  1  0
 98100  1  0
100101  1  0
100 99  1  0
M  ISO  4  17 100  25 100  60 101  61 101
M  END
>  <TORSDO>  (24) 
F 24

>  <SCORE>  (24) 
-10.770

>  <name>  (24) 
23

>  <ligand_id>  (24) 
23

>  <original_smiles>  (24) 
[H]c1c([H])c([H])c2c(c1[H])C([H])([H])C([H])([H])C([H])([H])C2([H])N([H])C(=O)C1([H])N(C(=O)C([H])(N([H])C(=O)C([H])(N([H])C([H])([H])[H])C([H])([H])[H])C(C([H])([H])[H])(C([H])([H])[H])C([H])([H])[H])C([H])([H])c2c([H])c(OC([H])([H])C([H])([H])C([H])([H])C(=C(C([H])([H])[H])C([H])([H])c3c([H])c([H])c(N([H])C(=O)N4C([H])([H])C([H])([H])C([H])([H])C([H])(n5nc(-c6c([H])c([H])c(Oc7c([H])c([H])c(F)c([H])c7F)c([H])c6[H])c(C(=O)N([H])[H])c5N([H])[H])C4([H])[H])c([H])c3N([H])[H])C([H])(C([H])([H])[H])[N+]([H])([H])[H])c([H])c([H])c2C1([H])[H]

>  <smiles>  (24) 
[H]c1c([H])c([H])c2c(c1[H])C([H])([H])C([H])([H])C([H])([H])C2([H])N([H])C(=O)C1([H])N(C(=O)C([H])(N([H])C(=O)C([H])(N([H])C([H])([H])[H])C([H])([H])[H])C(C([H])([H])[H])(C([H])([H])[H])C([H])([H])[H])C([H])([H])c2c([H])c(OC([H])([H])C([H])([H])C([H])([H])C(=C(C([H])([H])[H])C([H])([H])c3c([H])c([H])c(N([H])C(=O)N4C([H])([H])C([H])([H])C([H])([H])C([H])(n5nc(-c6c([H])c([H])c(Oc7c([H])c([H])c(F)c([H])c7F)c([H])c6[H])c(C(=O)N([H])[H])c5N([H])[H])C4([H])[H])c([H])c3N([H])[H])C([H])(C([H])([H])[H])[N+]([H])([H])[H])c([H])c([H])c2C1([H])[H]

$$$$
24:0:0
     RDKit          3D

 96104  0  0  1  0  0  0  0  0999 V2000
  -29.9990  -19.6360   19.9410 C   0  0  0  0  0  0  0  0  0  0  0  0
  -29.3650  -19.8260   18.9000 O   0  0  0  0  0  0  0  0  0  0  0  0
  -30.2990  -18.1990   20.4800 C   0  0  0  0  0  2  0  0  0  0  0  0
  -28.6870  -16.8670   18.7550 C   0  0  0  0  0  2  0  0  0  0  0  0
  -30.0810  -16.6460   18.2020 C   0  0  0  0  0  3  0  0  0  0  0  0
  -29.8820  -16.9030   19.7060 C   0  0  1  0  0  0  0  0  0  0  0  0
  -30.7130  -14.6980   20.5850 C   0  0  0  0  0  0  0  0  0  0  0  0
  -30.4750  -12.4300   19.6790 C   0  0  0  0  0  2  0  0  0  0  0  0
  -29.6220  -12.5350   18.3880 C   0  0  0  0  0  2  0  0  0  0  0  0
  -28.1290  -12.8670   18.6240 C   0  0  0  0  0  2  0  0  0  0  0  0
  -27.7560  -12.8540   20.1060 C   0  0  0  0  0  3  0  0  0  0  0  0
  -28.7410  -13.2990   21.1950 C   0  0  0  0  0  2  0  0  0  0  0  0
  -30.0660  -13.5060   20.5930 N   0  0  0  0  0  0  0  0  0  0  0  0
  -31.8890  -14.8270   20.2490 O   0  0  0  0  0  0  0  0  0  0  0  0
  -29.8690  -15.7540   20.5930 N   0  0  0  0  0  0  0  0  0  0  0  0
  -28.9690  -15.5140   20.9810 H   0  0  0  0  0  0  0  0  0  0  0  0
  -25.3460  -13.8580   20.5720 C   0  0  0  0  0  0  0  0  0  0  0  0
  -24.2130  -13.1500   20.9170 C   0  0  0  0  0  0  0  0  0  0  0  0
  -24.6040  -11.7820   20.9350 C   0  0  0  0  0  0  0  0  0  0  0  0
  -26.3430  -12.8920   20.4420 N   0  0  0  0  0  0  0  0  0  0  0  0
  -25.8740  -11.6640   20.6930 N   0  0  0  0  0  0  0  0  0  0  0  0
  -23.8760  -10.5370   21.1100 C   0  0  0  0  0  0  0  0  0  0  0  0
  -24.3020   -9.5750   22.0510 C   0  0  0  0  0  3  0  0  0  0  0  0
  -23.5900   -8.3670   22.2020 C   0  0  0  0  0  3  0  0  0  0  0  0
  -22.4410   -8.1270   21.4130 C   0  0  0  0  0  0  0  0  0  0  0  0
  -22.0440   -9.0820   20.4590 C   0  0  0  0  0  3  0  0  0  0  0  0
  -22.7610  -10.2780   20.2990 C   0  0  0  0  0  3  0  0  0  0  0  0
  -21.6900   -6.9800   21.4860 O   0  0  0  0  0  0  0  0  0  0  0  0
  -21.6150   -6.2470   22.6390 C   0  0  0  0  0  0  0  0  0  0  0  0
  -21.1410   -6.8030   23.8470 C   0  0  0  0  0  3  0  0  0  0  0  0
  -21.0010   -5.9880   24.9890 C   0  0  0  0  0  3  0  0  0  0  0  0
  -21.3310   -4.6230   24.9240 C   0  0  0  0  0  0  0  0  0  0  0  0
  -21.8030   -4.0690   23.7190 C   0  0  0  0  0  3  0  0  0  0  0  0
  -21.9420   -4.8790   22.5800 C   0  0  0  0  0  0  0  0  0  0  0  0
  -22.3760   -4.3350   21.4170 F   0  0  0  0  0  0  0  0  0  0  0  0
  -21.1990   -3.8390   26.0190 F   0  0  0  0  0  0  0  0  0  0  0  0
  -22.8200  -13.6670   21.1270 C   0  0  0  0  0  0  0  0  0  0  0  0
  -22.0330  -12.9830   21.9560 N   0  0  0  0  0  0  0  0  0  0  0  0
  -22.4250  -14.6930   20.5830 O   0  0  0  0  0  0  0  0  0  0  0  0
  -21.1050  -13.3300   22.1530 H   0  0  0  0  0  0  0  0  0  0  0  0
  -22.3400  -12.1180   22.3720 H   0  0  0  0  0  0  0  0  0  0  0  0
  -25.5830  -15.2130   20.3540 N   0  0  0  0  0  0  0  0  0  0  0  0
  -26.4490  -15.5990   19.9910 H   0  0  0  0  0  0  0  0  0  0  0  0
  -24.8330  -15.8920   20.3960 H   0  0  0  0  0  0  0  0  0  0  0  0
  -30.5310  -17.7650   17.3490 N   0  0  0  0  0  4  0  0  0  0  0  0
  -30.1690  -18.6500   17.6800 H   0  0  0  0  0  0  0  0  0  0  0  0
  -30.2200  -17.6300   16.4030 H   0  0  0  0  0  0  0  0  0  0  0  0
  -31.5310  -17.8200   17.3130 H   0  0  0  0  0  0  0  0  0  0  0  0
  -30.6300  -20.8410   20.6780 C   0  0  0  0  0  2  0  0  0  0  0  0
  -30.2340  -22.6260   22.4370 C   0  0  0  0  0  1  0  0  0  0  0  0
  -29.6750  -22.0080   21.1380 C   0  0  0  0  0  3  0  0  0  0  0  0
  -29.4570  -23.1260   20.0550 C   0  0  0  0  0  2  0  0  0  0  0  0
  -28.4990  -24.3040   20.3910 C   0  0  0  0  0  0  0  0  0  0  0  0
  -27.6520  -24.2070   21.2860 O   0  0  0  0  0  0  0  0  0  0  0  0
  -28.6040  -25.5890   19.5320 C   0  0  0  0  0  2  0  0  0  0  0  0
  -28.4140  -26.8030   20.2920 O   0  0  0  0  0  0  0  0  0  0  0  0
  -24.5530  -31.9640   23.3080 C   0  0  0  0  0  0  0  0  0  0  0  0
  -27.2130  -27.4970   20.2560 C   0  0  0  0  0  0  0  0  0  0  0  0
  -23.3530  -30.5580   21.6640 C   0  0  0  0  0  3  0  0  0  0  0  0
  -24.8080  -29.0120   20.2510 C   0  0  0  0  0  0  0  0  0  0  0  0
  -25.8810  -30.9080   21.4800 C   0  0  0  0  0  2  0  0  0  0  0  0
  -25.9640  -29.5380   20.8400 C   0  0  0  0  0  0  0  0  0  0  0  0
  -27.1630  -28.7860   20.8450 C   0  0  0  0  0  3  0  0  0  0  0  0
  -26.0290  -26.9800   19.6810 C   0  0  0  0  0  3  0  0  0  0  0  0
  -24.8330  -27.7290   19.6770 C   0  0  0  0  0  3  0  0  0  0  0  0
  -23.5630  -29.8710   20.2900 C   0  0  0  0  0  2  0  0  0  0  0  0
  -24.6140  -31.1630   22.2070 N   0  0  0  0  0  0  0  0  0  0  0  0
  -23.4690  -32.2400   23.8420 O   0  0  0  0  0  0  0  0  0  0  0  0
  -22.7000  -29.5410   22.6260 C   0  0  0  0  0  0  0  0  0  0  0  0
  -21.3800  -29.3450   22.4820 N   0  0  0  0  0  0  0  0  0  0  0  0
  -23.3770  -28.9300   23.4580 O   0  0  0  0  0  0  0  0  0  0  0  0
  -20.8970  -29.8850   21.7770 H   0  0  0  0  0  0  0  0  0  0  0  0
  -18.0090  -28.1270   22.9490 C   0  0  0  0  0  0  0  0  0  0  0  0
  -20.5610  -28.4090   23.2520 C   0  0  0  0  0  3  0  0  0  0  0  0
  -20.6830  -26.9740   22.6910 C   0  0  0  0  0  2  0  0  0  0  0  0
  -19.5980  -26.6320   21.6650 C   0  0  0  0  0  2  0  0  0  0  0  0
  -18.2050  -26.7730   22.2880 C   0  0  0  0  0  2  0  0  0  0  0  0
  -19.1150  -28.9010   23.3870 C   0  0  0  0  0  0  0  0  0  0  0  0
  -18.8800  -30.1660   23.9650 C   0  0  0  0  0  3  0  0  0  0  0  0
  -17.5700  -30.6600   24.1100 C   0  0  0  0  0  3  0  0  0  0  0  0
  -16.4770  -29.8800   23.6910 C   0  0  0  0  0  3  0  0  0  0  0  0
  -16.6960  -28.6170   23.1150 C   0  0  0  0  0  3  0  0  0  0  0  0
  -25.8370  -32.5960   23.9290 C   0  0  0  0  0  3  0  0  0  0  0  0
  -26.3360  -31.8480   25.2270 C   0  0  1  0  0  0  0  0  0  0  0  0
  -25.2300  -31.6380   26.2870 C   0  0  0  0  0  1  0  0  0  0  0  0
  -26.9180  -30.4600   24.8720 C   0  0  0  0  0  1  0  0  0  0  0  0
  -27.4830  -32.6500   25.8860 C   0  0  0  0  0  1  0  0  0  0  0  0
  -25.5360  -34.0050   24.2270 N   0  0  0  0  0  0  0  0  0  0  0  0
  -25.8860  -35.0390   23.4530 C   0  0  0  0  0  0  0  0  0  0  0  0
  -26.5730  -34.9110   22.4340 O   0  0  0  0  0  0  0  0  0  0  0  0
  -24.9340  -34.1810   25.0180 H   0  0  0  0  0  0  0  0  0  0  0  0
  -24.1840  -36.8410   23.0280 C   0  0  0  0  0  1  0  0  0  0  0  0
  -25.4020  -36.4410   23.8740 C   0  0  0  0  0  3  0  0  0  0  0  0
  -27.5240  -37.3220   24.7400 C   0  0  0  0  0  1  0  0  0  0  0  0
  -26.4470  -37.4830   23.7670 N   0  0  0  0  0  0  0  0  0  0  0  0
  -26.0460  -38.4090   23.8850 H   0  0  0  0  0  0  0  0  0  0  0  0
  1  3  1  0
  1 49  1  0
  2  1  2  0
  4  6  1  0
  5 45  1  0
  5  4  1  0
  5  6  1  0
  6  3  1  1
  6 15  1  0
  7 15  1  0
  7 13  1  0
  8 13  1  0
  9 10  1  0
  9  8  1  0
 11 10  1  0
 11 20  1  0
 11 12  1  0
 13 12  1  0
 14  7  2  0
 15 16  1  0
 17 18  2  0
 18 19  1  0
 18 37  1  0
 19 22  1  0
 20 17  1  0
 20 21  1  0
 21 19  2  0
 22 23  1  0
 23 24  2  0
 25 28  1  0
 25 24  1  0
 26 25  2  0
 27 26  1  0
 27 22  2  0
 28 29  1  0
 29 30  1  0
 30 31  2  0
 32 31  1  0
 32 36  1  0
 33 32  2  0
 34 29  2  0
 34 33  1  0
 35 34  1  0
 37 38  1  0
 38 40  1  0
 38 41  1  0
 39 37  2  0
 42 44  1  0
 42 17  1  0
 43 42  1  0
 45 46  1  0
 47 45  1  0
 48 45  1  0
 49 51  1  0
 51 50  1  0
 52 53  1  0
 52 51  1  0
 53 54  2  0
 55 56  1  0
 55 53  1  0
 57 68  2  0
 58 56  1  0
 58 63  1  0
 59 67  1  0
 59 69  1  0
 60 66  1  0
 60 62  1  0
 61 67  1  0
 62 63  2  0
 62 61  1  0
 64 58  2  0
 65 64  1  0
 65 60  2  0
 66 59  1  0
 67 57  1  0
 69 71  2  0
 70 69  1  0
 72 70  1  0
 73 82  2  0
 73 78  1  0
 74 70  1  0
 74 78  1  0
 75 74  1  0
 76 77  1  0
 76 75  1  0
 77 73  1  0
 78 79  2  0
 79 80  1  0
 81 80  2  0
 82 81  1  0
 83 57  1  0
 83 88  1  0
 83 84  1  0
 84 87  1  1
 84 85  1  0
 86 84  1  0
 88 91  1  0
 89 93  1  0
 89 88  1  0
 90 89  2  0
 93 92  1  0
 95 93  1  0
 95 96  1  0
 95 94  1  0
M  ISO  4   7 100  15 100  55 101  56 101
M  END
>  <TORSDO>  (25) 
F 24

>  <SCORE>  (25) 
-12.454

>  <name>  (25) 
24

>  <ligand_id>  (25) 
24

>  <original_smiles>  (25) 
[H]c1c([H])c([H])c2c(c1[H])C([H])([H])C([H])([H])C([H])([H])C2([H])N([H])C(=O)C1([H])N(C(=O)C([H])(N([H])C(=O)C([H])(N([H])C([H])([H])[H])C([H])([H])[H])C(C([H])([H])[H])(C([H])([H])[H])C([H])([H])[H])C([H])([H])c2c([H])c(OC([H])([H])C(=O)C([H])([H])C([H])(C([H])([H])[H])C([H])([H])C(=O)C([H])([H])C3(N([H])C(=O)N4C([H])([H])C([H])([H])C([H])([H])C([H])(n5nc(-c6c([H])c([H])c(Oc7c([H])c([H])c(F)c([H])c7F)c([H])c6[H])c(C(=O)N([H])[H])c5N([H])[H])C4([H])[H])C([H])([H])C3([H])[N+]([H])([H])[H])c([H])c([H])c2C1([H])[H]

>  <smiles>  (25) 
[H]c1c([H])c([H])c2c(c1[H])C([H])([H])C([H])([H])C([H])([H])C2([H])N([H])C(=O)C1([H])N(C(=O)C([H])(N([H])C(=O)C([H])(N([H])C([H])([H])[H])C([H])([H])[H])C(C([H])([H])[H])(C([H])([H])[H])C([H])([H])[H])C([H])([H])c2c([H])c(OC([H])([H])C(=O)C([H])([H])C([H])(C([H])([H])[H])C([H])([H])C(=O)C([H])([H])C3(N([H])C(=O)N4C([H])([H])C([H])([H])C([H])([H])C([H])(n5nc(-c6c([H])c([H])c(Oc7c([H])c([H])c(F)c([H])c7F)c([H])c6[H])c(C(=O)N([H])[H])c5N([H])[H])C4([H])[H])C([H])([H])C3([H])[N+]([H])([H])[H])c([H])c([H])c2C1([H])[H]

$$$$
25:0:0
     RDKit          3D

 92100  0  0  1  0  0  0  0  0999 V2000
  -27.8700  -20.3940   18.2500 C   0  0  0  0  0  3  0  0  0  0  0  0
  -28.5180  -19.3090   18.8610 C   0  0  0  0  0  3  0  0  0  0  0  0
  -28.1560  -21.6930   18.6930 C   0  0  0  0  0  3  0  0  0  0  0  0
  -29.4230  -19.5350   19.9180 C   0  0  0  0  0  0  0  0  0  0  0  0
  -29.0730  -21.8860   19.7420 C   0  0  0  0  0  0  0  0  0  0  0  0
  -29.6870  -20.8150   20.3480 N   0  0  0  0  0  0  0  0  0  0  0  0
  -30.0980  -18.3290   20.6470 C   0  0  0  0  0  3  0  0  0  0  0  0
  -30.0560  -16.9200   19.9150 C   0  0  0  0  0  3  0  0  0  0  0  0
  -31.0170  -14.6010   20.0990 C   0  0  0  0  0  0  0  0  0  0  0  0
  -30.6540  -12.4370   18.9340 C   0  0  0  0  0  2  0  0  0  0  0  0
  -29.6810  -12.6450   17.7530 C   0  0  0  0  0  2  0  0  0  0  0  0
  -28.2200  -12.5130   18.2250 C   0  0  0  0  0  2  0  0  0  0  0  0
  -27.9280  -13.3540   19.4960 C   0  0  0  0  0  3  0  0  0  0  0  0
  -29.0080  -13.1190   20.5730 C   0  0  0  0  0  2  0  0  0  0  0  0
  -30.3200  -13.4280   19.9770 N   0  0  0  0  0  0  0  0  0  0  0  0
  -32.0970  -14.7720   19.5230 O   0  0  0  0  0  0  0  0  0  0  0  0
  -30.2860  -15.7440   22.1340 C   0  0  0  0  0  1  0  0  0  0  0  0
  -30.3670  -15.6610   20.6730 N   0  0  0  0  0  0  0  0  0  0  0  0
  -25.5630  -13.9990   20.2730 C   0  0  0  0  0  0  0  0  0  0  0  0
  -24.4920  -13.2420   20.6720 C   0  0  0  0  0  0  0  0  0  0  0  0
  -24.9290  -11.8840   20.6270 C   0  0  0  0  0  0  0  0  0  0  0  0
  -26.5850  -13.1000   20.0120 N   0  0  0  0  0  0  0  0  0  0  0  0
  -26.2090  -11.8230   20.2810 N   0  0  0  0  0  0  0  0  0  0  0  0
  -24.1870  -10.6340   20.8350 C   0  0  0  0  0  0  0  0  0  0  0  0
  -24.5990   -9.6800   21.7940 C   0  0  0  0  0  3  0  0  0  0  0  0
  -23.8570   -8.4950   21.9890 C   0  0  0  0  0  3  0  0  0  0  0  0
  -22.6900   -8.2550   21.2260 C   0  0  0  0  0  0  0  0  0  0  0  0
  -22.2970   -9.1960   20.2580 C   0  0  0  0  0  3  0  0  0  0  0  0
  -23.0400  -10.3730   20.0610 C   0  0  0  0  0  3  0  0  0  0  0  0
  -21.9220   -7.1200   21.3290 O   0  0  0  0  0  0  0  0  0  0  0  0
  -21.8040   -6.4350   22.5110 C   0  0  0  0  0  0  0  0  0  0  0  0
  -21.3200   -7.0540   23.6850 C   0  0  0  0  0  3  0  0  0  0  0  0
  -21.1480   -6.2980   24.8610 C   0  0  0  0  0  3  0  0  0  0  0  0
  -21.4510   -4.9230   24.8650 C   0  0  0  0  0  0  0  0  0  0  0  0
  -21.9270   -4.3020   23.6960 C   0  0  0  0  0  3  0  0  0  0  0  0
  -22.1000   -5.0570   22.5220 C   0  0  0  0  0  0  0  0  0  0  0  0
  -22.5390   -4.4510   21.3930 F   0  0  0  0  0  0  0  0  0  0  0  0
  -21.2790   -4.1940   25.9920 F   0  0  0  0  0  0  0  0  0  0  0  0
  -23.1110  -13.7440   20.9850 C   0  0  0  0  0  0  0  0  0  0  0  0
  -22.4030  -13.0660   21.8830 N   0  0  0  0  0  0  0  0  0  0  0  0
  -22.6710  -14.7700   20.4710 O   0  0  0  0  0  0  0  0  0  0  0  0
  -22.7720  -12.2340   22.3200 H   0  0  0  0  0  0  0  0  0  0  0  0
  -21.4790  -13.3850   22.1380 H   0  0  0  0  0  0  0  0  0  0  0  0
  -25.7460  -15.3660   20.0960 N   0  0  0  0  0  0  0  0  0  0  0  0
  -25.0000  -16.0380   20.2400 H   0  0  0  0  0  0  0  0  0  0  0  0
  -26.6080  -15.7930   19.7800 H   0  0  0  0  0  0  0  0  0  0  0  0
  -29.4590  -23.3440   20.1310 C   0  0  0  0  0  2  0  0  0  0  0  0
  -27.0190  -23.9180   20.7760 C   0  0  0  0  0  1  0  0  0  0  0  0
  -28.7710  -23.7190   22.5140 C   0  0  0  0  0  1  0  0  0  0  0  0
  -28.5070  -24.1920   21.0680 C   0  0  1  0  0  0  0  0  0  0  0  0
  -28.7990  -25.7570   21.0600 C   0  0  0  0  0  2  0  0  0  0  0  0
  -28.4790  -26.5760   19.9080 O   0  0  0  0  0  0  0  0  0  0  0  0
  -24.5560  -31.7430   23.0640 C   0  0  0  0  0  0  0  0  0  0  0  0
  -27.3280  -27.3480   19.9690 C   0  0  0  0  0  0  0  0  0  0  0  0
  -23.4010  -30.3210   21.4050 C   0  0  0  0  0  3  0  0  0  0  0  0
  -24.9060  -28.8330   19.9750 C   0  0  0  0  0  0  0  0  0  0  0  0
  -25.9230  -30.7330   21.2360 C   0  0  0  0  0  2  0  0  0  0  0  0
  -26.0500  -29.3640   20.5870 C   0  0  0  0  0  0  0  0  0  0  0  0
  -27.2660  -28.6260   20.5890 C   0  0  0  0  0  3  0  0  0  0  0  0
  -26.1710  -26.8620   19.3290 C   0  0  0  0  0  3  0  0  0  0  0  0
  -24.9620  -27.5800   19.3450 C   0  0  0  0  0  3  0  0  0  0  0  0
  -23.6400  -29.6620   20.0220 C   0  0  0  0  0  2  0  0  0  0  0  0
  -24.6440  -30.9490   21.9580 N   0  0  0  0  0  0  0  0  0  0  0  0
  -23.4620  -31.9850   23.5950 O   0  0  0  0  0  0  0  0  0  0  0  0
  -22.7670  -29.2750   22.3520 C   0  0  0  0  0  0  0  0  0  0  0  0
  -21.4460  -29.0730   22.2240 N   0  0  0  0  0  0  0  0  0  0  0  0
  -23.4620  -28.6490   23.1570 O   0  0  0  0  0  0  0  0  0  0  0  0
  -20.9470  -29.6330   21.5460 H   0  0  0  0  0  0  0  0  0  0  0  0
  -18.0890  -27.8180   22.7200 C   0  0  0  0  0  0  0  0  0  0  0  0
  -20.6450  -28.1100   22.9800 C   0  0  0  0  0  3  0  0  0  0  0  0
  -20.7650  -26.6920   22.3750 C   0  0  0  0  0  2  0  0  0  0  0  0
  -19.6610  -26.3710   21.3620 C   0  0  0  0  0  2  0  0  0  0  0  0
  -18.2810  -26.4850   22.0180 C   0  0  0  0  0  2  0  0  0  0  0  0
  -19.2000  -28.5880   23.1560 C   0  0  0  0  0  0  0  0  0  0  0  0
  -18.9700  -29.8380   23.7740 C   0  0  0  0  0  3  0  0  0  0  0  0
  -17.6600  -30.3180   23.9590 C   0  0  0  0  0  3  0  0  0  0  0  0
  -16.5630  -29.5450   23.5400 C   0  0  0  0  0  3  0  0  0  0  0  0
  -16.7780  -28.2970   22.9260 C   0  0  0  0  0  3  0  0  0  0  0  0
  -25.8200  -32.4040   23.6980 C   0  0  0  0  0  3  0  0  0  0  0  0
  -25.4660  -33.7840   24.0560 N   0  0  0  0  0  0  0  0  0  0  0  0
  -25.7600  -34.8610   23.3130 C   0  0  0  0  0  0  0  0  0  0  0  0
  -26.4320  -34.7980   22.2800 O   0  0  0  0  0  0  0  0  0  0  0  0
  -24.8690  -33.9050   24.8600 H   0  0  0  0  0  0  0  0  0  0  0  0
  -23.9720  -36.6000   22.9930 C   0  0  0  0  0  1  0  0  0  0  0  0
  -25.2280  -36.2240   23.7950 C   0  0  0  0  0  3  0  0  0  0  0  0
  -27.3320  -37.1620   24.6400 C   0  0  0  0  0  1  0  0  0  0  0  0
  -26.2250  -37.3120   23.7000 N   0  0  0  0  0  0  0  0  0  0  0  0
  -25.7900  -38.2150   23.8670 H   0  0  0  0  0  0  0  0  0  0  0  0
  -26.3600  -31.6260   24.9600 C   0  0  1  0  0  0  0  0  0  0  0  0
  -25.2750  -31.3340   26.0240 C   0  0  0  0  0  1  0  0  0  0  0  0
  -26.9870  -30.2740   24.5430 C   0  0  0  0  0  1  0  0  0  0  0  0
  -27.4880  -32.4430   25.6350 C   0  0  0  0  0  1  0  0  0  0  0  0
  1  3  2  0
  1  2  1  0
  2  4  2  0
  3  5  1  0
  4  6  1  0
  4  7  1  0
  5 47  1  0
  5  6  2  0
  8  7  2  0
  8 18  1  0
  9 18  1  0
 10 15  1  0
 11 12  1  0
 11 10  1  0
 13 12  1  0
 13 22  1  0
 13 14  1  0
 15  9  1  0
 15 14  1  0
 16  9  2  0
 18 17  1  0
 19 20  2  0
 20 39  1  0
 21 20  1  0
 21 24  1  0
 22 19  1  0
 22 23  1  0
 23 21  2  0
 24 25  1  0
 25 26  2  0
 27 30  1  0
 27 26  1  0
 28 27  2  0
 29 28  1  0
 29 24  2  0
 30 31  1  0
 31 36  2  0
 31 32  1  0
 32 33  2  0
 33 34  1  0
 34 38  1  0
 35 34  2  0
 36 35  1  0
 37 36  1  0
 39 40  1  0
 40 43  1  0
 40 42  1  0
 41 39  2  0
 44 45  1  0
 44 19  1  0
 46 44  1  0
 47 50  1  0
 50 48  1  6
 50 49  1  0
 51 50  1  0
 52 54  1  0
 52 51  1  0
 53 64  2  0
 54 59  1  0
 55 63  1  0
 55 65  1  0
 56 62  1  0
 56 58  1  0
 57 63  1  0
 58 59  2  0
 58 57  1  0
 60 61  1  0
 60 54  2  0
 61 56  2  0
 62 55  1  0
 63 53  1  0
 65 67  2  0
 66 65  1  0
 68 66  1  0
 69 78  2  0
 69 74  1  0
 70 66  1  0
 70 74  1  0
 71 70  1  0
 72 73  1  0
 72 71  1  0
 73 69  1  0
 74 75  2  0
 75 76  1  0
 77 76  2  0
 78 77  1  0
 79 53  1  0
 79 80  1  0
 79 89  1  0
 80 83  1  0
 81 85  1  0
 81 80  1  0
 82 81  2  0
 85 84  1  0
 87 85  1  0
 87 88  1  0
 87 86  1  0
 89 92  1  1
 89 90  1  0
 91 89  1  0
M  ISO  4   9 100  18 100  51 101  52 101
M  END
>  <TORSDO>  (26) 
F 21

>  <SCORE>  (26) 
-12.856

>  <name>  (26) 
25

>  <ligand_id>  (26) 
25

>  <original_smiles>  (26) 
[H]c1c(C([H])([H])C([H])([H])N(C(=O)N2C([H])([H])C([H])([H])C([H])([H])C([H])(n3nc(-c4c([H])c([H])c(Oc5c([H])c([H])c(F)c([H])c5F)c([H])c4[H])c(C(=O)N([H])[H])c3N([H])[H])C2([H])[H])C([H])([H])[H])nc(C([H])([H])C(C([H])([H])[H])(C([H])([H])[H])C([H])([H])Oc2c([H])c([H])c3c(c2[H])C([H])([H])N(C(=O)C([H])(N([H])C(=O)C([H])(N([H])C([H])([H])[H])C([H])([H])[H])C(C([H])([H])[H])(C([H])([H])[H])C([H])([H])[H])C([H])(C(=O)N([H])C2([H])c4c([H])c([H])c([H])c([H])c4C([H])([H])C([H])([H])C2([H])[H])C3([H])[H])c([H])c1[H]

>  <smiles>  (26) 
[H]c1c(C([H])([H])C([H])([H])N(C(=O)N2C([H])([H])C([H])([H])C([H])([H])C([H])(n3nc(-c4c([H])c([H])c(Oc5c([H])c([H])c(F)c([H])c5F)c([H])c4[H])c(C(=O)N([H])[H])c3N([H])[H])C2([H])[H])C([H])([H])[H])nc(C([H])([H])C(C([H])([H])[H])(C([H])([H])[H])C([H])([H])Oc2c([H])c([H])c3c(c2[H])C([H])([H])N(C(=O)C([H])(N([H])C(=O)C([H])(N([H])C([H])([H])[H])C([H])([H])[H])C(C([H])([H])[H])(C([H])([H])[H])C([H])([H])[H])C([H])(C(=O)N([H])C2([H])c4c([H])c([H])c([H])c([H])c4C([H])([H])C([H])([H])C2([H])[H])C3([H])[H])c([H])c1[H]

$$$$
26:0:0
     RDKit          3D

 97105  0  0  1  0  0  0  0  0999 V2000
  -31.0690  -22.6950   17.5940 C   0  0  0  0  0  3  0  0  0  0  0  0
  -31.1910  -23.9950   16.8450 C   0  0  0  0  0  2  0  0  0  0  0  0
  -31.8940  -23.1380   18.7670 C   0  0  0  0  0  2  0  0  0  0  0  0
  -31.4370  -24.5490   18.2790 C   0  0  0  0  0  3  0  0  0  0  0  0
  -30.3410  -21.6920   17.4280 N   0  0  0  0  0  2  0  0  0  0  0  0
  -30.1850  -25.0450   18.9100 N   0  0  0  0  0  4  0  0  0  0  0  0
  -29.4170  -24.4310   18.6850 H   0  0  0  0  0  0  0  0  0  0  0  0
  -29.9680  -25.9460   18.5050 H   0  0  0  0  0  0  0  0  0  0  0  0
  -30.2530  -25.2340   20.3770 C   0  0  0  0  0  2  0  0  0  0  0  0
  -28.9700  -25.8760   20.8990 C   0  0  0  0  0  2  0  0  0  0  0  0
  -28.8920  -27.1690   20.3170 O   0  0  0  0  0  0  0  0  0  0  0  0
  -24.7710  -32.0380   23.4220 C   0  0  0  0  0  0  0  0  0  0  0  0
  -27.6620  -27.7700   20.3620 C   0  0  0  0  0  0  0  0  0  0  0  0
  -23.6490  -30.5860   21.7610 C   0  0  0  0  0  3  0  0  0  0  0  0
  -25.1870  -29.1160   20.3620 C   0  0  0  0  0  0  0  0  0  0  0  0
  -26.1510  -31.0730   21.5870 C   0  0  0  0  0  2  0  0  0  0  0  0
  -26.3090  -29.7100   20.9530 C   0  0  0  0  0  0  0  0  0  0  0  0
  -27.5500  -29.0450   20.9490 C   0  0  0  0  0  3  0  0  0  0  0  0
  -26.5250  -27.1720   19.7730 C   0  0  0  0  0  3  0  0  0  0  0  0
  -25.2870  -27.8400   19.7750 C   0  0  0  0  0  3  0  0  0  0  0  0
  -23.9050  -29.9140   20.3860 C   0  0  0  0  0  2  0  0  0  0  0  0
  -24.8740  -31.2490   22.3150 N   0  0  0  0  0  0  0  0  0  0  0  0
  -23.6730  -32.2590   23.9500 O   0  0  0  0  0  0  0  0  0  0  0  0
  -23.0330  -29.5380   22.7110 C   0  0  0  0  0  0  0  0  0  0  0  0
  -21.7350  -29.2540   22.5270 N   0  0  0  0  0  0  0  0  0  0  0  0
  -23.7250  -28.9750   23.5660 O   0  0  0  0  0  0  0  0  0  0  0  0
  -21.2380  -29.7620   21.8080 H   0  0  0  0  0  0  0  0  0  0  0  0
  -18.4480  -27.7930   22.8580 C   0  0  0  0  0  0  0  0  0  0  0  0
  -20.9530  -28.2720   23.2770 C   0  0  0  0  0  3  0  0  0  0  0  0
  -21.2100  -26.8420   22.7520 C   0  0  0  0  0  2  0  0  0  0  0  0
  -20.2060  -26.4000   21.6840 C   0  0  0  0  0  2  0  0  0  0  0  0
  -18.7780  -26.4450   22.2370 C   0  0  0  0  0  2  0  0  0  0  0  0
  -19.4700  -28.6580   23.3300 C   0  0  0  0  0  0  0  0  0  0  0  0
  -19.1120  -29.9150   23.8640 C   0  0  0  0  0  3  0  0  0  0  0  0
  -17.7610  -30.3090   23.9340 C   0  0  0  0  0  3  0  0  0  0  0  0
  -16.7530  -29.4420   23.4770 C   0  0  0  0  0  3  0  0  0  0  0  0
  -17.0970  -28.1870   22.9450 C   0  0  0  0  0  3  0  0  0  0  0  0
  -26.0230  -32.7190   24.0600 C   0  0  0  0  0  3  0  0  0  0  0  0
  -26.5100  -32.0140   25.3840 C   0  0  1  0  0  0  0  0  0  0  0  0
  -25.3840  -31.7930   26.4210 C   0  0  0  0  0  1  0  0  0  0  0  0
  -27.1370  -30.6350   25.0670 C   0  0  0  0  0  1  0  0  0  0  0  0
  -27.6170  -32.8620   26.0540 C   0  0  0  0  0  1  0  0  0  0  0  0
  -25.6780  -34.1230   24.3140 N   0  0  0  0  0  0  0  0  0  0  0  0
  -26.0330  -35.1470   23.5250 C   0  0  0  0  0  0  0  0  0  0  0  0
  -26.7550  -35.0120   22.5340 O   0  0  0  0  0  0  0  0  0  0  0  0
  -25.0390  -34.3030   25.0750 H   0  0  0  0  0  0  0  0  0  0  0  0
  -24.3090  -36.8980   22.9900 C   0  0  0  0  0  1  0  0  0  0  0  0
  -25.4980  -36.5440   23.8960 C   0  0  0  0  0  3  0  0  0  0  0  0
  -27.5590  -37.4940   24.8320 C   0  0  0  0  0  1  0  0  0  0  0  0
  -26.5230  -37.6080   23.8080 N   0  0  0  0  0  0  0  0  0  0  0  0
  -26.0960  -38.5270   23.8900 H   0  0  0  0  0  0  0  0  0  0  0  0
  -30.8880  -20.7010   16.5350 C   0  0  0  0  0  2  0  0  0  0  0  0
  -29.8230  -19.6690   16.1420 C   0  0  0  0  0  2  0  0  0  0  0  0
  -28.1810  -17.9820   16.6660 C   0  0  0  0  0  1  0  0  0  0  0  0
  -29.1410  -18.9540   17.2550 N   0  0  1  0  0  4  0  0  0  0  0  0
  -28.5990  -19.6630   17.7340 H   0  0  0  0  0  0  0  0  0  0  0  0
  -30.0570  -18.4030   18.3040 C   0  0  0  0  0  2  0  0  0  0  0  0
  -29.4760  -17.2350   19.1260 C   0  0  0  0  0  2  0  0  0  0  0  0
  -29.9350  -17.2290   20.6010 C   0  0  0  0  0  2  0  0  0  0  0  0
  -30.5870  -14.8940   20.9210 C   0  0  0  0  0  0  0  0  0  0  0  0
  -30.4210  -12.7480   19.7710 C   0  0  0  0  0  2  0  0  0  0  0  0
  -29.5240  -12.9530   18.5330 C   0  0  0  0  0  2  0  0  0  0  0  0
  -28.0370  -12.7630   18.8870 C   0  0  0  0  0  2  0  0  0  0  0  0
  -27.6170  -13.5480   20.1560 C   0  0  0  0  0  3  0  0  0  0  0  0
  -28.6370  -13.3560   21.3070 C   0  0  0  0  0  2  0  0  0  0  0  0
  -29.9740  -13.6950   20.7990 N   0  0  0  0  0  0  0  0  0  0  0  0
  -31.7370  -15.1310   20.5490 O   0  0  0  0  0  0  0  0  0  0  0  0
  -29.7390  -15.8990   21.1720 N   0  0  0  0  0  0  0  0  0  0  0  0
  -28.8120  -15.6400   21.4660 H   0  0  0  0  0  0  0  0  0  0  0  0
  -25.1600  -14.0300   20.7600 C   0  0  0  0  0  0  0  0  0  0  0  0
  -24.1210  -13.1910   21.0700 C   0  0  0  0  0  0  0  0  0  0  0  0
  -24.6500  -11.8640   21.0340 C   0  0  0  0  0  0  0  0  0  0  0  0
  -26.2590  -13.2050   20.5670 N   0  0  0  0  0  0  0  0  0  0  0  0
  -25.9520  -11.9000   20.7890 N   0  0  0  0  0  0  0  0  0  0  0  0
  -23.9820  -10.5620   21.1690 C   0  0  0  0  0  0  0  0  0  0  0  0
  -24.4070   -9.6120   22.1230 C   0  0  0  0  0  3  0  0  0  0  0  0
  -23.7380   -8.3760   22.2450 C   0  0  0  0  0  3  0  0  0  0  0  0
  -22.6340   -8.0800   21.4100 C   0  0  0  0  0  0  0  0  0  0  0  0
  -22.2320   -9.0180   20.4430 C   0  0  0  0  0  3  0  0  0  0  0  0
  -22.9010  -10.2460   20.3200 C   0  0  0  0  0  3  0  0  0  0  0  0
  -21.9400   -6.8950   21.4400 O   0  0  0  0  0  0  0  0  0  0  0  0
  -21.8270   -6.1570   22.5900 C   0  0  0  0  0  0  0  0  0  0  0  0
  -21.2240   -6.6780   23.7550 C   0  0  0  0  0  3  0  0  0  0  0  0
  -21.0700   -5.8630   24.8920 C   0  0  0  0  0  3  0  0  0  0  0  0
  -21.5090   -4.5260   24.8660 C   0  0  0  0  0  0  0  0  0  0  0  0
  -22.1050   -4.0010   23.7040 C   0  0  0  0  0  3  0  0  0  0  0  0
  -22.2580   -4.8160   22.5680 C   0  0  0  0  0  0  0  0  0  0  0  0
  -22.8150   -4.3020   21.4440 F   0  0  0  0  0  0  0  0  0  0  0  0
  -21.3500   -3.7350   25.9540 F   0  0  0  0  0  0  0  0  0  0  0  0
  -22.6890  -13.5840   21.2950 C   0  0  0  0  0  0  0  0  0  0  0  0
  -21.9680  -12.8250   22.1150 N   0  0  0  0  0  0  0  0  0  0  0  0
  -22.2150  -14.5960   20.7810 O   0  0  0  0  0  0  0  0  0  0  0  0
  -22.3590  -12.0010   22.5530 H   0  0  0  0  0  0  0  0  0  0  0  0
  -21.0090  -13.0680   22.3140 H   0  0  0  0  0  0  0  0  0  0  0  0
  -25.2600  -15.4140   20.6140 N   0  0  0  0  0  0  0  0  0  0  0  0
  -24.4470  -16.0210   20.6690 H   0  0  0  0  0  0  0  0  0  0  0  0
  -26.0980  -15.9110   20.3450 H   0  0  0  0  0  0  0  0  0  0  0  0
  1  5  1  0
  1  3  1  0
  2  1  1  0
  2  4  1  0
  4  3  1  0
  4  6  1  0
  6  9  1  0
  7  6  1  0
  8  6  1  0
  9 10  1  0
 11 13  1  0
 11 10  1  0
 12 23  2  0
 13 18  1  0
 14 22  1  0
 14 24  1  0
 15 21  1  0
 15 17  1  0
 16 22  1  0
 17 16  1  0
 18 17  2  0
 19 20  1  0
 19 13  2  0
 20 15  2  0
 21 14  1  0
 22 12  1  0
 24 26  2  0
 25 24  1  0
 27 25  1  0
 28 37  2  0
 28 33  1  0
 29 25  1  0
 29 33  1  0
 30 29  1  0
 31 32  1  0
 31 30  1  0
 32 28  1  0
 33 34  2  0
 34 35  1  0
 36 35  2  0
 37 36  1  0
 38 12  1  0
 38 43  1  0
 38 39  1  0
 39 42  1  1
 39 40  1  0
 41 39  1  0
 43 46  1  0
 44 48  1  0
 44 43  1  0
 45 44  2  0
 48 47  1  0
 50 51  1  0
 50 48  1  0
 50 49  1  0
 52  5  1  0
 53 52  1  0
 53 55  1  0
 54 55  1  0
 55 56  1  1
 55 57  1  0
 57 58  1  0
 58 59  1  0
 59 68  1  0
 60 68  1  0
 61 66  1  0
 62 63  1  0
 62 61  1  0
 64 63  1  0
 64 73  1  0
 64 65  1  0
 66 60  1  0
 66 65  1  0
 67 60  2  0
 68 69  1  0
 70 71  2  0
 71 90  1  0
 72 71  1  0
 72 75  1  0
 73 70  1  0
 73 74  1  0
 74 72  2  0
 75 76  1  0
 76 77  2  0
 78 81  1  0
 78 77  1  0
 79 78  2  0
 80 79  1  0
 80 75  2  0
 81 82  1  0
 82 83  1  0
 83 84  2  0
 85 84  1  0
 85 89  1  0
 86 85  2  0
 87 82  2  0
 87 86  1  0
 88 87  1  0
 90 91  1  0
 91 94  1  0
 91 93  1  0
 92 90  2  0
 95 96  1  0
 95 70  1  0
 97 95  1  0
M  ISO  4  10 101  11 101  60 100  68 100
M  END
>  <TORSDO>  (27) 
F 25

>  <SCORE>  (27) 
-11.100

>  <name>  (27) 
26

>  <ligand_id>  (27) 
26

>  <original_smiles>  (27) 
[H]c1c([H])c([H])c2c(c1[H])C([H])([H])C([H])([H])C([H])([H])C2([H])N([H])C(=O)C1([H])N(C(=O)C([H])(N([H])C(=O)C([H])(N([H])C([H])([H])[H])C([H])([H])[H])C(C([H])([H])[H])(C([H])([H])[H])C([H])([H])[H])C([H])([H])c2c([H])c(OC([H])([H])C([H])([H])[N+]([H])([H])C3([H])C([H])([H])C(=NC([H])([H])C([H])([H])[N+]([H])(C([H])([H])[H])C([H])([H])C([H])([H])C([H])([H])N([H])C(=O)N4C([H])([H])C([H])([H])C([H])([H])C([H])(n5nc(-c6c([H])c([H])c(Oc7c([H])c([H])c(F)c([H])c7F)c([H])c6[H])c(C(=O)N([H])[H])c5N([H])[H])C4([H])[H])C3([H])[H])c([H])c([H])c2C1([H])[H]

>  <smiles>  (27) 
[H]c1c([H])c([H])c2c(c1[H])C([H])([H])C([H])([H])C([H])([H])C2([H])N([H])C(=O)C1([H])N(C(=O)C([H])(N([H])C(=O)C([H])(N([H])C([H])([H])[H])C([H])([H])[H])C(C([H])([H])[H])(C([H])([H])[H])C([H])([H])[H])C([H])([H])c2c([H])c(OC([H])([H])C([H])([H])[N+]([H])([H])C3([H])C([H])([H])C(=NC([H])([H])C([H])([H])[N+]([H])(C([H])([H])[H])C([H])([H])C([H])([H])C([H])([H])N([H])C(=O)N4C([H])([H])C([H])([H])C([H])([H])C([H])(n5nc(-c6c([H])c([H])c(Oc7c([H])c([H])c(F)c([H])c7F)c([H])c6[H])c(C(=O)N([H])[H])c5N([H])[H])C4([H])[H])C3([H])[H])c([H])c([H])c2C1([H])[H]

$$$$
27:0:0
     RDKit          3D

 95103  0  0  1  0  0  0  0  0999 V2000
  -30.2930  -21.7740   19.1310 C   0  0  0  0  0  2  0  0  0  0  0  0
  -29.1270  -21.4920   20.8320 C   0  0  0  0  0  3  0  0  0  0  0  0
  -29.6250  -20.5280   19.7370 C   0  0  0  0  0  3  0  0  0  0  0  0
  -29.4540  -22.6310   19.9680 N   0  0  1  0  0  4  0  0  0  0  0  0
  -28.6140  -22.9060   19.4810 H   0  0  0  0  0  0  0  0  0  0  0  0
  -27.6370  -21.4100   21.1360 C   0  0  0  0  0  3  0  0  0  0  0  0
  -27.0150  -22.2260   21.8790 N   0  0  0  0  0  0  0  0  0  0  0  0
  -27.6070  -22.9450   22.2830 H   0  0  0  0  0  0  0  0  0  0  0  0
  -30.1270  -23.7780   20.6430 C   0  0  0  0  0  2  0  0  0  0  0  0
  -30.0730  -25.1310   19.8820 C   0  0  0  0  0  2  0  0  0  0  0  0
  -28.6650  -25.7530   19.8010 C   0  0  0  0  0  2  0  0  0  0  0  0
  -28.7020  -27.1720   19.5950 O   0  0  0  0  0  0  0  0  0  0  0  0
  -24.5590  -31.7480   23.1440 C   0  0  0  0  0  0  0  0  0  0  0  0
  -27.4740  -27.8020   19.6630 C   0  0  0  0  0  0  0  0  0  0  0  0
  -23.4260  -30.3700   21.4310 C   0  0  0  0  0  3  0  0  0  0  0  0
  -24.9600  -29.0840   19.8540 C   0  0  0  0  0  0  0  0  0  0  0  0
  -25.9030  -30.9690   21.1960 C   0  0  0  0  0  2  0  0  0  0  0  0
  -26.0870  -29.6660   20.4470 C   0  0  0  0  0  0  0  0  0  0  0  0
  -27.3490  -29.0340   20.3460 C   0  0  0  0  0  3  0  0  0  0  0  0
  -26.3230  -27.2380   19.0660 C   0  0  0  0  0  3  0  0  0  0  0  0
  -25.0710  -27.8690   19.1620 C   0  0  0  0  0  3  0  0  0  0  0  0
  -23.6480  -29.8200   19.9980 C   0  0  0  0  0  2  0  0  0  0  0  0
  -24.6480  -31.0410   21.9820 N   0  0  0  0  0  0  0  0  0  0  0  0
  -23.4780  -31.8810   23.7340 O   0  0  0  0  0  0  0  0  0  0  0  0
  -22.9020  -29.2240   22.3270 C   0  0  0  0  0  0  0  0  0  0  0  0
  -21.6110  -28.8880   22.1710 N   0  0  0  0  0  0  0  0  0  0  0  0
  -23.6520  -28.6410   23.1140 O   0  0  0  0  0  0  0  0  0  0  0  0
  -21.0610  -29.4160   21.5090 H   0  0  0  0  0  0  0  0  0  0  0  0
  -18.4180  -27.2330   22.5180 C   0  0  0  0  0  0  0  0  0  0  0  0
  -20.9100  -27.8190   22.8830 C   0  0  0  0  0  3  0  0  0  0  0  0
  -21.2210  -26.4390   22.2580 C   0  0  0  0  0  2  0  0  0  0  0  0
  -20.2020  -26.0150   21.1970 C   0  0  0  0  0  2  0  0  0  0  0  0
  -18.7940  -25.9480   21.7990 C   0  0  0  0  0  2  0  0  0  0  0  0
  -19.4120  -28.1190   23.0120 C   0  0  0  0  0  0  0  0  0  0  0  0
  -19.0100  -29.3170   23.6410 C   0  0  0  0  0  3  0  0  0  0  0  0
  -17.6450  -29.6340   23.7820 C   0  0  0  0  0  3  0  0  0  0  0  0
  -16.6660  -28.7460   23.3050 C   0  0  0  0  0  3  0  0  0  0  0  0
  -17.0520  -27.5470   22.6790 C   0  0  0  0  0  3  0  0  0  0  0  0
  -25.8050  -32.4430   23.7740 C   0  0  0  0  0  3  0  0  0  0  0  0
  -25.4150  -33.8110   24.1350 N   0  0  0  0  0  0  0  0  0  0  0  0
  -25.6790  -34.8980   23.3970 C   0  0  0  0  0  0  0  0  0  0  0  0
  -26.3500  -34.8570   22.3620 O   0  0  0  0  0  0  0  0  0  0  0  0
  -24.8180  -33.9130   24.9420 H   0  0  0  0  0  0  0  0  0  0  0  0
  -23.8340  -36.5770   23.0910 C   0  0  0  0  0  1  0  0  0  0  0  0
  -25.1070  -36.2430   23.8850 C   0  0  0  0  0  3  0  0  0  0  0  0
  -27.1830  -37.2510   24.7180 C   0  0  0  0  0  1  0  0  0  0  0  0
  -26.0670  -37.3630   23.7830 N   0  0  0  0  0  0  0  0  0  0  0  0
  -25.6030  -38.2520   23.9500 H   0  0  0  0  0  0  0  0  0  0  0  0
  -26.3790  -31.6760   25.0270 C   0  0  1  0  0  0  0  0  0  0  0  0
  -25.3100  -31.3460   26.0950 C   0  0  0  0  0  1  0  0  0  0  0  0
  -27.0430  -30.3480   24.5960 C   0  0  0  0  0  1  0  0  0  0  0  0
  -27.4810  -32.5260   25.7020 C   0  0  0  0  0  1  0  0  0  0  0  0
  -30.4550  -19.3430   20.0810 N   0  0  0  0  0  0  0  0  0  0  0  0
  -30.4890  -18.5050   17.6750 C   0  0  0  0  0  1  0  0  0  0  0  0
  -31.2770  -18.9000   18.9420 C   0  0  0  0  0  2  0  0  0  0  0  0
  -29.6870  -18.2360   20.6740 C   0  0  0  0  0  2  0  0  0  0  0  0
  -30.5720  -17.3310   21.5720 C   0  0  0  0  0  2  0  0  0  0  0  0
  -30.8820  -14.9910   20.7480 C   0  0  0  0  0  0  0  0  0  0  0  0
  -30.6380  -12.8830   19.4940 C   0  0  0  0  0  2  0  0  0  0  0  0
  -29.7410  -13.1390   18.2670 C   0  0  0  0  0  2  0  0  0  0  0  0
  -28.2540  -12.9670   18.6360 C   0  0  0  0  0  2  0  0  0  0  0  0
  -27.8640  -13.7520   19.9180 C   0  0  0  0  0  3  0  0  0  0  0  0
  -28.8780  -13.4910   21.0550 C   0  0  0  0  0  2  0  0  0  0  0  0
  -30.2240  -13.8190   20.5500 N   0  0  0  0  0  0  0  0  0  0  0  0
  -31.9810  -15.2410   20.2460 O   0  0  0  0  0  0  0  0  0  0  0  0
  -30.2050  -15.9180   21.4460 N   0  0  0  0  0  0  0  0  0  0  0  0
  -29.3200  -15.6300   21.8390 H   0  0  0  0  0  0  0  0  0  0  0  0
  -25.4270  -14.3130   20.5260 C   0  0  0  0  0  0  0  0  0  0  0  0
  -24.3580  -13.5190   20.8470 C   0  0  0  0  0  0  0  0  0  0  0  0
  -24.8420  -12.1770   20.8210 C   0  0  0  0  0  0  0  0  0  0  0  0
  -26.4960  -13.4520   20.3330 N   0  0  0  0  0  0  0  0  0  0  0  0
  -26.1430  -12.1610   20.5630 N   0  0  0  0  0  0  0  0  0  0  0  0
  -24.1300  -10.9000   20.9690 C   0  0  0  0  0  0  0  0  0  0  0  0
  -24.5260   -9.9420   21.9280 C   0  0  0  0  0  3  0  0  0  0  0  0
  -23.8170   -8.7290   22.0650 C   0  0  0  0  0  3  0  0  0  0  0  0
  -22.6960   -8.4670   21.2420 C   0  0  0  0  0  0  0  0  0  0  0  0
  -22.3200   -9.4140   20.2730 C   0  0  0  0  0  3  0  0  0  0  0  0
  -23.0300  -10.6170   20.1350 C   0  0  0  0  0  3  0  0  0  0  0  0
  -21.9600   -7.3080   21.2870 O   0  0  0  0  0  0  0  0  0  0  0  0
  -21.8400   -6.5760   22.4420 C   0  0  0  0  0  0  0  0  0  0  0  0
  -21.2890   -7.1280   23.6200 C   0  0  0  0  0  3  0  0  0  0  0  0
  -21.1190   -6.3210   24.7630 C   0  0  0  0  0  3  0  0  0  0  0  0
  -21.4900   -4.9620   24.7280 C   0  0  0  0  0  0  0  0  0  0  0  0
  -22.0330   -4.4100   23.5540 C   0  0  0  0  0  3  0  0  0  0  0  0
  -22.2040   -5.2150   22.4140 C   0  0  0  0  0  0  0  0  0  0  0  0
  -22.7090   -4.6720   21.2790 F   0  0  0  0  0  0  0  0  0  0  0  0
  -21.3190   -4.1860   25.8220 F   0  0  0  0  0  0  0  0  0  0  0  0
  -22.9420  -13.9700   21.0730 C   0  0  0  0  0  0  0  0  0  0  0  0
  -22.1940  -13.2510   21.9020 N   0  0  0  0  0  0  0  0  0  0  0  0
  -22.5060  -14.9940   20.5480 O   0  0  0  0  0  0  0  0  0  0  0  0
  -22.5560  -12.4200   22.3450 H   0  0  0  0  0  0  0  0  0  0  0  0
  -21.2440  -13.5340   22.0950 H   0  0  0  0  0  0  0  0  0  0  0  0
  -25.5750  -15.6890   20.3670 N   0  0  0  0  0  0  0  0  0  0  0  0
  -24.7900  -16.3270   20.4450 H   0  0  0  0  0  0  0  0  0  0  0  0
  -26.4250  -16.1400   20.0560 H   0  0  0  0  0  0  0  0  0  0  0  0
  1  3  1  0
  1  4  1  0
  2  6  1  0
  3 53  1  0
  3  2  1  0
  4  9  1  0
  4  2  1  0
  4  5  1  6
  6  7  2  0
  7  8  1  0
 10  9  1  0
 11 10  1  0
 12 14  1  0
 12 11  1  0
 13 24  2  0
 14 19  1  0
 15 23  1  0
 15 25  1  0
 16 22  1  0
 16 18  1  0
 17 23  1  0
 18 17  1  0
 19 18  2  0
 20 21  1  0
 20 14  2  0
 21 16  2  0
 22 15  1  0
 23 13  1  0
 25 27  2  0
 26 25  1  0
 28 26  1  0
 29 38  2  0
 29 34  1  0
 30 26  1  0
 30 34  1  0
 31 30  1  0
 32 33  1  0
 32 31  1  0
 33 29  1  0
 34 35  2  0
 35 36  1  0
 37 36  2  0
 38 37  1  0
 39 13  1  0
 39 40  1  0
 39 49  1  0
 40 43  1  0
 41 45  1  0
 41 40  1  0
 42 41  2  0
 45 44  1  0
 47 45  1  0
 47 48  1  0
 47 46  1  0
 49 52  1  1
 49 50  1  0
 51 49  1  0
 53 56  1  0
 54 55  1  0
 55 53  1  0
 56 57  1  0
 58 66  1  0
 59 64  1  0
 60 61  1  0
 60 59  1  0
 62 61  1  0
 62 71  1  0
 62 63  1  0
 64 58  1  0
 64 63  1  0
 65 58  2  0
 66 57  1  0
 66 67  1  0
 68 69  2  0
 69 88  1  0
 70 69  1  0
 70 73  1  0
 71 68  1  0
 71 72  1  0
 72 70  2  0
 73 74  1  0
 74 75  2  0
 76 79  1  0
 76 75  1  0
 77 76  2  0
 78 77  1  0
 78 73  2  0
 79 80  1  0
 80 81  1  0
 81 82  2  0
 83 82  1  0
 83 87  1  0
 84 83  2  0
 85 80  2  0
 85 84  1  0
 86 85  1  0
 88 89  1  0
 89 92  1  0
 89 91  1  0
 90 88  2  0
 93 94  1  0
 93 68  1  0
 95 93  1  0
M  ISO  4  11 101  12 101  58 100  66 100
M  END
>  <TORSDO>  (28) 
F 24

>  <SCORE>  (28) 
-11.574

>  <name>  (28) 
27

>  <ligand_id>  (28) 
27

>  <original_smiles>  (28) 
[H]N=C([H])C1([H])C([H])(N(C([H])([H])C([H])([H])[H])C([H])([H])C([H])([H])N([H])C(=O)N2C([H])([H])C([H])([H])C([H])([H])C([H])(n3nc(-c4c([H])c([H])c(Oc5c([H])c([H])c(F)c([H])c5F)c([H])c4[H])c(C(=O)N([H])[H])c3N([H])[H])C2([H])[H])C([H])([H])[N+]1([H])C([H])([H])C([H])([H])C([H])([H])Oc1c([H])c([H])c2c(c1[H])C([H])([H])N(C(=O)C([H])(N([H])C(=O)C([H])(N([H])C([H])([H])[H])C([H])([H])[H])C(C([H])([H])[H])(C([H])([H])[H])C([H])([H])[H])C([H])(C(=O)N([H])C1([H])c3c([H])c([H])c([H])c([H])c3C([H])([H])C([H])([H])C1([H])[H])C2([H])[H]

>  <smiles>  (28) 
[H]N=C([H])C1([H])C([H])(N(C([H])([H])C([H])([H])[H])C([H])([H])C([H])([H])N([H])C(=O)N2C([H])([H])C([H])([H])C([H])([H])C([H])(n3nc(-c4c([H])c([H])c(Oc5c([H])c([H])c(F)c([H])c5F)c([H])c4[H])c(C(=O)N([H])[H])c3N([H])[H])C2([H])[H])C([H])([H])[N+]1([H])C([H])([H])C([H])([H])C([H])([H])Oc1c([H])c([H])c2c(c1[H])C([H])([H])N(C(=O)C([H])(N([H])C(=O)C([H])(N([H])C([H])([H])[H])C([H])([H])[H])C(C([H])([H])[H])(C([H])([H])[H])C([H])([H])[H])C([H])(C(=O)N([H])C1([H])c3c([H])c([H])c([H])c([H])c3C([H])([H])C([H])([H])C1([H])[H])C2([H])[H]

$$$$
28:0:0
     RDKit          3D

 96104  0  0  1  0  0  0  0  0999 V2000
  -29.3690  -18.5920   18.6370 C   0  0  0  0  0  3  0  0  0  0  0  0
  -29.5380  -18.7560   19.9690 C   0  0  0  0  0  0  0  0  0  0  0  0
  -29.8400  -17.4270   17.7810 C   0  0  0  0  0  1  0  0  0  0  0  0
  -30.0340  -21.4410   20.5270 C   0  0  0  0  0  0  0  0  0  0  0  0
  -28.0860  -21.1890   19.9450 C   0  0  0  0  0  2  0  0  0  0  0  0
  -29.1000  -20.1740   20.6190 C   0  0  0  0  0  3  0  0  0  0  0  0
  -29.0070  -22.3460   20.2300 N   0  0  0  0  0  0  0  0  0  0  0  0
  -31.2200  -21.6380   20.6690 O   0  0  0  0  0  0  0  0  0  0  0  0
  -29.1060  -23.8680   19.9650 C   0  0  0  0  0  3  0  0  0  0  0  0
  -27.9060  -24.9350   20.1850 C   0  0  0  0  0  3  0  0  0  0  0  0
  -28.1450  -26.4330   20.0600 O   0  0  0  0  0  0  0  0  0  0  0  0
  -24.5630  -31.9270   23.2500 C   0  0  0  0  0  0  0  0  0  0  0  0
  -27.0510  -27.3410   20.0680 C   0  0  0  0  0  0  0  0  0  0  0  0
  -23.3100  -30.5610   21.6270 C   0  0  0  0  0  3  0  0  0  0  0  0
  -24.7080  -29.0170   20.1400 C   0  0  0  0  0  0  0  0  0  0  0  0
  -25.8500  -30.8530   21.3790 C   0  0  0  0  0  2  0  0  0  0  0  0
  -25.9040  -29.4780   20.7090 C   0  0  0  0  0  0  0  0  0  0  0  0
  -27.0800  -28.6560   20.6580 C   0  0  0  0  0  3  0  0  0  0  0  0
  -25.8270  -26.9580   19.4740 C   0  0  0  0  0  3  0  0  0  0  0  0
  -24.6770  -27.7670   19.5130 C   0  0  0  0  0  3  0  0  0  0  0  0
  -23.4830  -29.9070   20.2330 C   0  0  0  0  0  2  0  0  0  0  0  0
  -24.5960  -31.1330   22.1400 N   0  0  0  0  0  0  0  0  0  0  0  0
  -23.4970  -32.1990   23.8190 O   0  0  0  0  0  0  0  0  0  0  0  0
  -22.6660  -29.5340   22.5910 C   0  0  0  0  0  0  0  0  0  0  0  0
  -21.3420  -29.3310   22.4700 N   0  0  0  0  0  0  0  0  0  0  0  0
  -23.3570  -28.9240   23.4100 O   0  0  0  0  0  0  0  0  0  0  0  0
  -20.8390  -29.8750   21.7840 H   0  0  0  0  0  0  0  0  0  0  0  0
  -17.9970  -28.0420   22.9620 C   0  0  0  0  0  0  0  0  0  0  0  0
  -20.5450  -28.3810   23.2490 C   0  0  0  0  0  3  0  0  0  0  0  0
  -20.6930  -26.9470   22.6920 C   0  0  0  0  0  2  0  0  0  0  0  0
  -19.6090  -26.5770   21.6770 C   0  0  0  0  0  2  0  0  0  0  0  0
  -18.2180  -26.6900   22.3060 C   0  0  0  0  0  2  0  0  0  0  0  0
  -19.0890  -28.8420   23.3900 C   0  0  0  0  0  0  0  0  0  0  0  0
  -18.8270  -30.1060   23.9630 C   0  0  0  0  0  3  0  0  0  0  0  0
  -17.5060  -30.5700   24.1160 C   0  0  0  0  0  3  0  0  0  0  0  0
  -16.4290  -29.7670   23.7040 C   0  0  0  0  0  3  0  0  0  0  0  0
  -16.6750  -28.5060   23.1340 C   0  0  0  0  0  3  0  0  0  0  0  0
  -25.8620  -32.5490   23.8440 C   0  0  0  0  0  3  0  0  0  0  0  0
  -26.3930  -31.7790   25.1140 C   0  0  1  0  0  0  0  0  0  0  0  0
  -25.3200  -31.5630   26.2060 C   0  0  0  0  0  1  0  0  0  0  0  0
  -26.9540  -30.3940   24.7210 C   0  0  0  0  0  1  0  0  0  0  0  0
  -27.5640  -32.5640   25.7520 C   0  0  0  0  0  1  0  0  0  0  0  0
  -25.5740  -33.9520   24.1780 N   0  0  0  0  0  0  0  0  0  0  0  0
  -25.9010  -35.0010   23.4140 C   0  0  0  0  0  0  0  0  0  0  0  0
  -26.5480  -34.8930   22.3690 O   0  0  0  0  0  0  0  0  0  0  0  0
  -25.0040  -34.1130   24.9950 H   0  0  0  0  0  0  0  0  0  0  0  0
  -24.1860  -36.8120   23.0960 C   0  0  0  0  0  1  0  0  0  0  0  0
  -25.4370  -36.3940   23.8860 C   0  0  0  0  0  3  0  0  0  0  0  0
  -27.5960  -37.2530   24.6820 C   0  0  0  0  0  1  0  0  0  0  0  0
  -26.4780  -37.4370   23.7590 N   0  0  0  0  0  0  0  0  0  0  0  0
  -26.0830  -38.3620   23.9160 H   0  0  0  0  0  0  0  0  0  0  0  0
  -30.2170  -17.5510   20.8210 C   0  0  0  0  0  3  0  0  0  0  0  0
  -30.5630  -14.9280   20.4090 C   0  0  0  0  0  0  0  0  0  0  0  0
  -30.3970  -12.6290   19.4210 C   0  0  0  0  0  2  0  0  0  0  0  0
  -29.4510  -12.6430   18.2020 C   0  0  0  0  0  2  0  0  0  0  0  0
  -27.9890  -12.4360   18.6420 C   0  0  0  0  0  2  0  0  0  0  0  0
  -27.5960  -13.3360   19.8430 C   0  0  0  0  0  3  0  0  0  0  0  0
  -28.6640  -13.3200   20.9590 C   0  0  0  0  0  2  0  0  0  0  0  0
  -29.9410  -13.6990   20.3400 N   0  0  0  0  0  0  0  0  0  0  0  0
  -31.7650  -15.0120   20.1470 O   0  0  0  0  0  0  0  0  0  0  0  0
  -29.7960  -16.0810   20.5770 N   0  0  0  0  0  0  0  0  0  0  0  0
  -28.8030  -15.9110   20.6350 H   0  0  0  0  0  0  0  0  0  0  0  0
  -25.2130  -13.8840   20.6160 C   0  0  0  0  0  0  0  0  0  0  0  0
  -24.1590  -13.0910   20.9830 C   0  0  0  0  0  0  0  0  0  0  0  0
  -24.6360  -11.7460   20.9220 C   0  0  0  0  0  0  0  0  0  0  0  0
  -26.2640  -13.0220   20.3520 N   0  0  0  0  0  0  0  0  0  0  0  0
  -25.9240  -11.7300   20.6000 N   0  0  0  0  0  0  0  0  0  0  0  0
  -23.9230  -10.4730   21.0950 C   0  0  0  0  0  0  0  0  0  0  0  0
  -24.3660   -9.4990   22.0150 C   0  0  0  0  0  3  0  0  0  0  0  0
  -23.6540   -8.2920   22.1780 C   0  0  0  0  0  3  0  0  0  0  0  0
  -22.4850   -8.0500   21.4200 C   0  0  0  0  0  0  0  0  0  0  0  0
  -22.0610   -9.0120   20.4880 C   0  0  0  0  0  3  0  0  0  0  0  0
  -22.7730  -10.2120   20.3240 C   0  0  0  0  0  3  0  0  0  0  0  0
  -21.7420   -6.8970   21.4930 O   0  0  0  0  0  0  0  0  0  0  0  0
  -21.6910   -6.1440   22.6400 C   0  0  0  0  0  0  0  0  0  0  0  0
  -21.2310   -6.6790   23.8610 C   0  0  0  0  0  3  0  0  0  0  0  0
  -21.1290   -5.8530   24.9990 C   0  0  0  0  0  3  0  0  0  0  0  0
  -21.4770   -4.4910   24.9130 C   0  0  0  0  0  0  0  0  0  0  0  0
  -21.9280   -3.9550   23.6940 C   0  0  0  0  0  3  0  0  0  0  0  0
  -22.0320   -4.7790   22.5600 C   0  0  0  0  0  0  0  0  0  0  0  0
  -22.4490   -4.2520   21.3840 F   0  0  0  0  0  0  0  0  0  0  0  0
  -21.3700   -3.6950   26.0020 F   0  0  0  0  0  0  0  0  0  0  0  0
  -22.7600  -13.5490   21.2750 C   0  0  0  0  0  0  0  0  0  0  0  0
  -22.0480  -12.8270   22.1330 N   0  0  0  0  0  0  0  0  0  0  0  0
  -22.3100  -14.5800   20.7790 O   0  0  0  0  0  0  0  0  0  0  0  0
  -22.4260  -11.9910   22.5520 H   0  0  0  0  0  0  0  0  0  0  0  0
  -21.1080  -13.1150   22.3700 H   0  0  0  0  0  0  0  0  0  0  0  0
  -25.3590  -15.2590   20.4620 N   0  0  0  0  0  0  0  0  0  0  0  0
  -24.5790  -15.8980   20.5670 H   0  0  0  0  0  0  0  0  0  0  0  0
  -26.1920  -15.7130   20.1080 H   0  0  0  0  0  0  0  0  0  0  0  0
  -30.2030  -17.7380   22.3670 C   0  0  0  0  0  2  0  0  0  0  0  0
  -31.0170  -18.9090   22.9680 C   0  0  0  0  0  2  0  0  0  0  0  0
  -30.9270  -18.9310   24.4420 N   0  0  0  0  0  4  0  0  0  0  0  0
  -29.9710  -18.8620   24.7440 H   0  0  0  0  0  0  0  0  0  0  0  0
  -31.3070  -19.7850   24.8100 H   0  0  0  0  0  0  0  0  0  0  0  0
  -31.4430  -18.1670   24.8440 H   0  0  0  0  0  0  0  0  0  0  0  0
  1  2  2  0
  2 52  1  0
  3  1  1  0
  4  6  1  0
  4  8  2  0
  5  7  1  0
  5  6  1  0
  6  2  1  0
  7  4  1  0
  9 10  2  0
  9  7  1  0
 11 13  1  0
 11 10  1  0
 12 23  2  0
 13 18  1  0
 14 22  1  0
 14 24  1  0
 15 21  1  0
 15 17  1  0
 16 22  1  0
 17 16  1  0
 18 17  2  0
 19 20  1  0
 19 13  2  0
 20 15  2  0
 21 14  1  0
 22 12  1  0
 24 26  2  0
 25 24  1  0
 27 25  1  0
 28 37  2  0
 28 33  1  0
 29 25  1  0
 29 33  1  0
 30 29  1  0
 31 32  1  0
 31 30  1  0
 32 28  1  0
 33 34  2  0
 34 35  1  0
 36 35  2  0
 37 36  1  0
 38 12  1  0
 38 43  1  0
 38 39  1  0
 39 42  1  1
 39 40  1  0
 41 39  1  0
 43 46  1  0
 44 48  1  0
 44 43  1  0
 45 44  2  0
 48 47  1  0
 50 48  1  0
 50 51  1  0
 50 49  1  0
 52 91  1  0
 53 61  1  0
 54 59  1  0
 55 56  1  0
 55 54  1  0
 57 56  1  0
 57 66  1  0
 57 58  1  0
 59 53  1  0
 59 58  1  0
 60 53  2  0
 61 62  1  0
 61 52  1  0
 63 64  2  0
 64 83  1  0
 65 64  1  0
 65 68  1  0
 66 67  1  0
 66 63  1  0
 67 65  2  0
 68 69  1  0
 69 70  2  0
 71 74  1  0
 71 70  1  0
 72 71  2  0
 73 72  1  0
 73 68  2  0
 74 75  1  0
 75 76  1  0
 76 77  2  0
 78 77  1  0
 78 82  1  0
 79 78  2  0
 80 75  2  0
 80 79  1  0
 81 80  1  0
 83 84  1  0
 84 87  1  0
 84 86  1  0
 85 83  2  0
 88 89  1  0
 88 63  1  0
 90 88  1  0
 91 92  1  0
 92 93  1  0
 93 94  1  0
 93 95  1  0
 93 96  1  0
M  ISO  4  10 101  11 101  53 100  61 100
M  END
>  <TORSDO>  (29) 
F 23

>  <SCORE>  (29) 
-12.283

>  <name>  (29) 
28

>  <ligand_id>  (29) 
28

>  <original_smiles>  (29) 
[H]C(=C(C1([H])C(=O)N(C([H])([H])C([H])([H])Oc2c([H])c([H])c3c(c2[H])C([H])([H])N(C(=O)C([H])(N([H])C(=O)C([H])(N([H])C([H])([H])[H])C([H])([H])[H])C(C([H])([H])[H])(C([H])([H])[H])C([H])([H])[H])C([H])(C(=O)N([H])C2([H])c4c([H])c([H])c([H])c([H])c4C([H])([H])C([H])([H])C2([H])[H])C3([H])[H])C1([H])[H])C([H])(N([H])C(=O)N1C([H])([H])C([H])([H])C([H])([H])C([H])(n2nc(-c3c([H])c([H])c(Oc4c([H])c([H])c(F)c([H])c4F)c([H])c3[H])c(C(=O)N([H])[H])c2N([H])[H])C1([H])[H])C([H])([H])C([H])([H])[N+]([H])([H])[H])C([H])([H])[H]

>  <smiles>  (29) 
[H]C(=C(C1([H])C(=O)N(C([H])([H])C([H])([H])Oc2c([H])c([H])c3c(c2[H])C([H])([H])N(C(=O)C([H])(N([H])C(=O)C([H])(N([H])C([H])([H])[H])C([H])([H])[H])C(C([H])([H])[H])(C([H])([H])[H])C([H])([H])[H])C([H])(C(=O)N([H])C2([H])c4c([H])c([H])c([H])c([H])c4C([H])([H])C([H])([H])C2([H])[H])C3([H])[H])C1([H])[H])C([H])(N([H])C(=O)N1C([H])([H])C([H])([H])C([H])([H])C([H])(n2nc(-c3c([H])c([H])c(Oc4c([H])c([H])c(F)c([H])c4F)c([H])c3[H])c(C(=O)N([H])[H])c2N([H])[H])C1([H])[H])C([H])([H])C([H])([H])[N+]([H])([H])[H])C([H])([H])[H]

$$$$
29:0:0
     RDKit          3D

 99107  0  0  1  0  0  0  0  0999 V2000
  -29.7770  -20.0890   21.7150 C   0  0  0  0  0  3  0  0  0  0  0  0
  -29.0420  -20.4400   19.4460 C   0  0  0  0  0  3  0  0  0  0  0  0
  -29.8260  -21.4890   21.9210 C   0  0  0  0  0  0  0  0  0  0  0  0
  -29.3230  -19.5290   20.5060 C   0  0  0  0  0  0  0  0  0  0  0  0
  -29.1070  -21.8600   19.6000 C   0  0  0  0  0  0  0  0  0  0  0  0
  -29.4190  -22.4010   20.8950 C   0  0  0  0  0  0  0  0  0  0  0  0
  -30.2300  -21.9310   23.3000 C   0  0  0  0  0  0  0  0  0  0  0  0
  -31.4210  -22.5040   23.4420 N   0  0  0  0  0  0  0  0  0  0  0  0
  -29.5000  -21.7100   24.2660 O   0  0  0  0  0  0  0  0  0  0  0  0
  -32.0140  -22.6990   22.6500 H   0  0  0  0  0  0  0  0  0  0  0  0
  -31.7460  -22.7400   24.3680 H   0  0  0  0  0  0  0  0  0  0  0  0
  -29.2780  -23.9130   21.2150 C   0  0  1  0  0  0  0  0  0  0  0  0
  -30.4590  -24.5130   21.0670 F   0  0  0  0  0  0  0  0  0  0  0  0
  -28.3850  -24.5430   20.4530 F   0  0  0  0  0  0  0  0  0  0  0  0
  -28.8430  -24.1410   22.4540 F   0  0  0  0  0  0  0  0  0  0  0  0
  -29.0110  -18.0050   20.3790 C   0  0  0  0  0  3  0  0  0  0  0  0
  -29.7450  -16.9530   21.3000 C   0  0  0  0  0  3  0  0  0  0  0  0
  -30.3440  -14.6310   20.2830 C   0  0  0  0  0  0  0  0  0  0  0  0
  -30.2440  -12.4170   19.1530 C   0  0  0  0  0  2  0  0  0  0  0  0
  -29.2150  -12.4770   18.0060 C   0  0  0  0  0  2  0  0  0  0  0  0
  -27.7750  -12.2460   18.5190 C   0  0  0  0  0  2  0  0  0  0  0  0
  -27.4380  -13.0980   19.7680 C   0  0  0  0  0  3  0  0  0  0  0  0
  -28.5550  -12.9460   20.8200 C   0  0  0  0  0  2  0  0  0  0  0  0
  -29.8150  -13.3770   20.1870 N   0  0  0  0  0  0  0  0  0  0  0  0
  -31.4140  -14.9420   19.7490 O   0  0  0  0  0  0  0  0  0  0  0  0
  -29.5550  -15.5250   20.9220 N   0  0  0  0  0  0  0  0  0  0  0  0
  -28.6980  -15.1240   21.2740 H   0  0  0  0  0  0  0  0  0  0  0  0
  -25.0550  -13.5980   20.6030 C   0  0  0  0  0  0  0  0  0  0  0  0
  -24.0410  -12.7790   21.0180 C   0  0  0  0  0  0  0  0  0  0  0  0
  -24.5450  -11.4460   20.9220 C   0  0  0  0  0  0  0  0  0  0  0  0
  -26.1190  -12.7640   20.3010 N   0  0  0  0  0  0  0  0  0  0  0  0
  -25.8180  -11.4630   20.5470 N   0  0  0  0  0  0  0  0  0  0  0  0
  -23.8760  -10.1540   21.1170 C   0  0  0  0  0  0  0  0  0  0  0  0
  -24.3680   -9.1980   22.0350 C   0  0  0  0  0  3  0  0  0  0  0  0
  -23.6960   -7.9700   22.2170 C   0  0  0  0  0  3  0  0  0  0  0  0
  -22.5220   -7.6860   21.4830 C   0  0  0  0  0  0  0  0  0  0  0  0
  -22.0450   -8.6310   20.5550 C   0  0  0  0  0  3  0  0  0  0  0  0
  -22.7170   -9.8520   20.3710 C   0  0  0  0  0  3  0  0  0  0  0  0
  -21.8230   -6.5060   21.5750 O   0  0  0  0  0  0  0  0  0  0  0  0
  -21.8200   -5.7580   22.7260 C   0  0  0  0  0  0  0  0  0  0  0  0
  -21.3500   -6.2800   23.9510 C   0  0  0  0  0  3  0  0  0  0  0  0
  -21.2970   -5.4570   25.0940 C   0  0  0  0  0  3  0  0  0  0  0  0
  -21.7070   -4.1130   25.0130 C   0  0  0  0  0  0  0  0  0  0  0  0
  -22.1710   -3.5890   23.7950 C   0  0  0  0  0  3  0  0  0  0  0  0
  -22.2240   -4.4090   22.6540 C   0  0  0  0  0  0  0  0  0  0  0  0
  -22.6520   -3.8930   21.4760 F   0  0  0  0  0  0  0  0  0  0  0  0
  -21.6500   -3.3200   26.1090 F   0  0  0  0  0  0  0  0  0  0  0  0
  -22.6450  -13.1940   21.3890 C   0  0  0  0  0  0  0  0  0  0  0  0
  -22.0010  -12.4530   22.2830 N   0  0  0  0  0  0  0  0  0  0  0  0
  -22.1340  -14.2110   20.9200 O   0  0  0  0  0  0  0  0  0  0  0  0
  -22.4190  -11.6270   22.6870 H   0  0  0  0  0  0  0  0  0  0  0  0
  -21.0730  -12.7190   22.5780 H   0  0  0  0  0  0  0  0  0  0  0  0
  -25.1660  -14.9790   20.4400 N   0  0  0  0  0  0  0  0  0  0  0  0
  -24.3910  -15.6180   20.5850 H   0  0  0  0  0  0  0  0  0  0  0  0
  -25.9660  -15.4200   20.0050 H   0  0  0  0  0  0  0  0  0  0  0  0
  -28.7420  -22.7490   18.3720 C   0  0  0  0  0  3  0  0  0  0  0  0
  -29.5410  -24.0810   18.1790 C   0  0  0  0  0  3  0  0  0  0  0  0
  -28.8900  -25.1420   17.2470 C   0  0  0  0  0  2  0  0  0  0  0  0
  -28.7840  -26.4350   17.8870 O   0  0  0  0  0  0  0  0  0  0  0  0
  -25.1830  -30.0670   22.8710 C   0  0  0  0  0  0  0  0  0  0  0  0
  -27.5600  -26.9720   18.2610 C   0  0  0  0  0  0  0  0  0  0  0  0
  -23.8170  -29.1040   21.0530 C   0  0  0  0  0  3  0  0  0  0  0  0
  -25.1130  -28.1940   19.0520 C   0  0  0  0  0  0  0  0  0  0  0  0
  -26.2650  -29.7290   20.6470 C   0  0  0  0  0  2  0  0  0  0  0  0
  -26.3220  -28.6190   19.6160 C   0  0  0  0  0  0  0  0  0  0  0  0
  -27.5420  -28.0160   19.2200 C   0  0  0  0  0  3  0  0  0  0  0  0
  -26.3210  -26.5390   17.7330 C   0  0  0  0  0  3  0  0  0  0  0  0
  -25.1100  -27.1550   18.1100 C   0  0  0  0  0  3  0  0  0  0  0  0
  -23.8540  -28.8970   19.5160 C   0  0  0  0  0  2  0  0  0  0  0  0
  -25.1170  -29.6290   21.5840 N   0  0  0  0  0  0  0  0  0  0  0  0
  -24.1840  -30.0690   23.6020 O   0  0  0  0  0  0  0  0  0  0  0  0
  -23.3630  -27.7890   21.7270 C   0  0  0  0  0  0  0  0  0  0  0  0
  -22.0710  -27.4510   21.5780 N   0  0  0  0  0  0  0  0  0  0  0  0
  -24.1650  -27.0880   22.3470 O   0  0  0  0  0  0  0  0  0  0  0  0
  -21.4730  -28.0830   21.0680 H   0  0  0  0  0  0  0  0  0  0  0  0
  -18.9740  -25.5990   21.6470 C   0  0  0  0  0  0  0  0  0  0  0  0
  -21.4360  -26.2420   22.1000 C   0  0  0  0  0  3  0  0  0  0  0  0
  -21.8060  -25.0040   21.2520 C   0  0  0  0  0  2  0  0  0  0  0  0
  -20.8010  -24.7260   20.1300 C   0  0  0  0  0  2  0  0  0  0  0  0
  -19.4040  -24.4810   20.7110 C   0  0  0  0  0  2  0  0  0  0  0  0
  -19.9270  -26.4370   22.2840 C   0  0  0  0  0  0  0  0  0  0  0  0
  -19.4730  -27.4870   23.1120 C   0  0  0  0  0  3  0  0  0  0  0  0
  -18.0960  -27.7030   23.3100 C   0  0  0  0  0  3  0  0  0  0  0  0
  -17.1560  -26.8600   22.6900 C   0  0  0  0  0  3  0  0  0  0  0  0
  -17.5960  -25.8110   21.8640 C   0  0  0  0  0  3  0  0  0  0  0  0
  -26.5130  -30.6070   23.4820 C   0  0  0  0  0  3  0  0  0  0  0  0
  -27.2180  -29.5700   24.4410 C   0  0  1  0  0  0  0  0  0  0  0  0
  -26.2890  -28.9940   25.5330 C   0  0  0  0  0  1  0  0  0  0  0  0
  -27.7810  -28.3820   23.6240 C   0  0  0  0  0  1  0  0  0  0  0  0
  -28.4170  -30.2400   25.1530 C   0  0  0  0  0  1  0  0  0  0  0  0
  -26.2020  -31.8490   24.2040 N   0  0  0  0  0  0  0  0  0  0  0  0
  -26.4800  -33.0810   23.7520 C   0  0  0  0  0  0  0  0  0  0  0  0
  -27.1010  -33.2860   22.7050 O   0  0  0  0  0  0  0  0  0  0  0  0
  -25.6540  -31.7590   25.0460 H   0  0  0  0  0  0  0  0  0  0  0  0
  -24.7470  -34.8930   23.9450 C   0  0  0  0  0  1  0  0  0  0  0  0
  -25.9940  -34.2750   24.5970 C   0  0  0  0  0  3  0  0  0  0  0  0
  -28.1290  -34.8900   25.6430 C   0  0  0  0  0  1  0  0  0  0  0  0
  -27.0260  -35.3190   24.7890 N   0  0  0  0  0  0  0  0  0  0  0  0
  -26.6160  -36.1560   25.1970 H   0  0  0  0  0  0  0  0  0  0  0  0
  1  3  1  0
  2  5  2  0
  2  4  1  0
  3  7  1  0
  4  1  2  0
  5  6  1  0
  6 12  1  0
  6  3  2  0
  7  8  1  0
  7  9  2  0
  8 11  1  0
 10  8  1  0
 12 15  1  1
 13 12  1  0
 14 12  1  0
 16  4  1  0
 16 17  2  0
 18 26  1  0
 19 24  1  0
 20 21  1  0
 20 19  1  0
 22 21  1  0
 22 31  1  0
 22 23  1  0
 24 18  1  0
 24 23  1  0
 25 18  2  0
 26 27  1  0
 26 17  1  0
 28 29  2  0
 29 48  1  0
 30 29  1  0
 30 33  1  0
 31 32  1  0
 31 28  1  0
 32 30  2  0
 33 34  1  0
 34 35  2  0
 36 39  1  0
 36 35  1  0
 37 36  2  0
 38 37  1  0
 38 33  2  0
 39 40  1  0
 40 41  1  0
 41 42  2  0
 43 42  1  0
 43 47  1  0
 44 43  2  0
 45 40  2  0
 45 44  1  0
 46 45  1  0
 48 49  1  0
 49 52  1  0
 49 51  1  0
 50 48  2  0
 53 54  1  0
 53 28  1  0
 55 53  1  0
 56  5  1  0
 57 56  2  0
 58 59  1  0
 58 57  1  0
 59 61  1  0
 60 71  2  0
 61 66  1  0
 62 70  1  0
 62 72  1  0
 63 69  1  0
 63 65  1  0
 64 70  1  0
 65 64  1  0
 66 65  2  0
 67 68  1  0
 67 61  2  0
 68 63  2  0
 69 62  1  0
 70 60  1  0
 72 74  2  0
 73 72  1  0
 75 73  1  0
 76 85  2  0
 76 81  1  0
 77 73  1  0
 77 81  1  0
 78 77  1  0
 79 80  1  0
 79 78  1  0
 80 76  1  0
 81 82  2  0
 82 83  1  0
 84 83  2  0
 85 84  1  0
 86 60  1  0
 86 91  1  0
 86 87  1  0
 87 90  1  1
 87 88  1  0
 89 87  1  0
 91 94  1  0
 92 91  1  0
 92 96  1  0
 93 92  2  0
 96 95  1  0
 96 98  1  0
 98 99  1  0
 98 97  1  0
M  ISO  4  18 100  26 100  58 101  59 101
M  END
>  <TORSDO>  (30) 
F 23

>  <SCORE>  (30) 
-9.736

>  <name>  (30) 
29

>  <ligand_id>  (30) 
29

>  <original_smiles>  (30) 
[H]c1c([H])c([H])c2c(c1[H])C([H])([H])C([H])([H])C([H])([H])C2([H])N([H])C(=O)C1([H])N(C(=O)C([H])(N([H])C(=O)C([H])(N([H])C([H])([H])[H])C([H])([H])[H])C(C([H])([H])[H])(C([H])([H])[H])C([H])([H])[H])C([H])([H])c2c([H])c(OC([H])([H])C([H])([H])C([H])([H])c3c([H])c(C([H])([H])C([H])([H])N([H])C(=O)N4C([H])([H])C([H])([H])C([H])([H])C([H])(n5nc(-c6c([H])c([H])c(Oc7c([H])c([H])c(F)c([H])c7F)c([H])c6[H])c(C(=O)N([H])[H])c5N([H])[H])C4([H])[H])c([H])c(C(=O)N([H])[H])c3C(F)(F)F)c([H])c([H])c2C1([H])[H]

>  <smiles>  (30) 
[H]c1c([H])c([H])c2c(c1[H])C([H])([H])C([H])([H])C([H])([H])C2([H])N([H])C(=O)C1([H])N(C(=O)C([H])(N([H])C(=O)C([H])(N([H])C([H])([H])[H])C([H])([H])[H])C(C([H])([H])[H])(C([H])([H])[H])C([H])([H])[H])C([H])([H])c2c([H])c(OC([H])([H])C([H])([H])C([H])([H])c3c([H])c(C([H])([H])C([H])([H])N([H])C(=O)N4C([H])([H])C([H])([H])C([H])([H])C([H])(n5nc(-c6c([H])c([H])c(Oc7c([H])c([H])c(F)c([H])c7F)c([H])c6[H])c(C(=O)N([H])[H])c5N([H])[H])C4([H])[H])c([H])c(C(=O)N([H])[H])c3C(F)(F)F)c([H])c([H])c2C1([H])[H]

$$$$
30:0:0
     RDKit          3D

 97105  0  0  1  0  0  0  0  0999 V2000
  -28.2260  -22.6850   19.5820 C   0  0  0  0  0  3  0  0  0  0  0  0
  -26.8830  -22.2270   19.1540 N   0  0  0  0  0  4  0  0  0  0  0  0
  -26.3410  -21.9290   19.9490 H   0  0  0  0  0  0  0  0  0  0  0  0
  -26.9320  -21.4650   18.5010 H   0  0  0  0  0  0  0  0  0  0  0  0
  -26.3800  -22.9660   18.7000 H   0  0  0  0  0  0  0  0  0  0  0  0
  -28.9080  -21.4880   20.3770 C   0  0  0  0  0  0  0  0  0  0  0  0
  -29.1590  -21.5600   21.5830 O   0  0  0  0  0  0  0  0  0  0  0  0
  -29.2380  -20.1410   19.6390 C   0  0  0  0  0  2  0  0  0  0  0  0
  -31.5700  -19.5070   20.2100 C   0  0  0  0  0  1  0  0  0  0  0  0
  -30.1280  -19.2370   20.4580 N   0  0  2  0  0  4  0  0  0  0  0  0
  -29.9630  -19.5650   21.4010 H   0  0  0  0  0  0  0  0  0  0  0  0
  -30.9080  -14.6250   19.9150 C   0  0  0  0  0  0  0  0  0  0  0  0
  -30.5610  -12.4270   18.8460 C   0  0  0  0  0  2  0  0  0  0  0  0
  -29.5540  -12.6080   17.6910 C   0  0  0  0  0  2  0  0  0  0  0  0
  -28.1090  -12.4690   18.2070 C   0  0  0  0  0  2  0  0  0  0  0  0
  -27.8410  -13.3200   19.4780 C   0  0  0  0  0  3  0  0  0  0  0  0
  -28.9630  -13.1400   20.5250 C   0  0  0  0  0  2  0  0  0  0  0  0
  -30.2390  -13.4400   19.8630 N   0  0  0  0  0  0  0  0  0  0  0  0
  -32.0500  -14.7530   19.4610 O   0  0  0  0  0  0  0  0  0  0  0  0
  -30.0840  -16.8650   19.2750 C   0  0  0  0  0  2  0  0  0  0  0  0
  -29.7560  -17.7590   20.4720 C   0  0  0  0  0  3  0  0  0  0  0  0
  -30.6360  -16.7400   21.2310 C   0  0  0  0  0  3  0  0  0  0  0  0
  -30.2880  -16.3040   22.6510 C   0  0  0  0  0  1  0  0  0  0  0  0
  -30.1700  -15.7300   20.2420 N   0  0  0  0  0  0  0  0  0  0  0  0
  -25.4990  -13.9340   20.3410 C   0  0  0  0  0  0  0  0  0  0  0  0
  -24.4490  -13.1650   20.7650 C   0  0  0  0  0  0  0  0  0  0  0  0
  -24.8960  -11.8110   20.6920 C   0  0  0  0  0  0  0  0  0  0  0  0
  -26.5210  -13.0470   20.0400 N   0  0  0  0  0  0  0  0  0  0  0  0
  -26.1650  -11.7650   20.3070 N   0  0  0  0  0  0  0  0  0  0  0  0
  -24.1690  -10.5530   20.9100 C   0  0  0  0  0  0  0  0  0  0  0  0
  -24.6020   -9.6080   21.8670 C   0  0  0  0  0  3  0  0  0  0  0  0
  -23.8780   -8.4150   22.0740 C   0  0  0  0  0  3  0  0  0  0  0  0
  -22.7060   -8.1580   21.3230 C   0  0  0  0  0  0  0  0  0  0  0  0
  -22.2920   -9.0900   20.3560 C   0  0  0  0  0  3  0  0  0  0  0  0
  -23.0170  -10.2750   20.1470 C   0  0  0  0  0  3  0  0  0  0  0  0
  -21.9530   -7.0150   21.4370 O   0  0  0  0  0  0  0  0  0  0  0  0
  -21.8360   -6.3450   22.6290 C   0  0  0  0  0  0  0  0  0  0  0  0
  -21.3350   -6.9710   23.7900 C   0  0  0  0  0  3  0  0  0  0  0  0
  -21.1700   -6.2270   24.9750 C   0  0  0  0  0  3  0  0  0  0  0  0
  -21.4930   -4.8580   24.9990 C   0  0  0  0  0  0  0  0  0  0  0  0
  -21.9870   -4.2300   23.8410 C   0  0  0  0  0  3  0  0  0  0  0  0
  -22.1550   -4.9720   22.6590 C   0  0  0  0  0  0  0  0  0  0  0  0
  -22.6110   -4.3570   21.5400 F   0  0  0  0  0  0  0  0  0  0  0  0
  -21.3240   -4.1410   26.1340 F   0  0  0  0  0  0  0  0  0  0  0  0
  -23.0760  -13.6510   21.1280 C   0  0  0  0  0  0  0  0  0  0  0  0
  -22.4050  -12.9670   22.0480 N   0  0  0  0  0  0  0  0  0  0  0  0
  -22.6090  -14.6730   20.6260 O   0  0  0  0  0  0  0  0  0  0  0  0
  -22.7980  -12.1410   22.4740 H   0  0  0  0  0  0  0  0  0  0  0  0
  -21.4850  -13.2760   22.3310 H   0  0  0  0  0  0  0  0  0  0  0  0
  -25.6680  -15.3050   20.1680 N   0  0  0  0  0  0  0  0  0  0  0  0
  -24.9230  -15.9710   20.3450 H   0  0  0  0  0  0  0  0  0  0  0  0
  -26.5150  -15.7390   19.8240 H   0  0  0  0  0  0  0  0  0  0  0  0
  -28.1170  -24.0940   20.3370 C   0  0  0  0  0  2  0  0  0  0  0  0
  -28.4890  -25.4550   18.1140 C   0  0  0  0  0  1  0  0  0  0  0  0
  -30.2590  -25.3250   19.8530 C   0  0  0  0  0  1  0  0  0  0  0  0
  -28.7350  -25.3800   19.6380 C   0  0  2  0  0  0  0  0  0  0  0  0
  -28.4500  -26.6750   20.2680 O   0  0  0  0  0  0  0  0  0  0  0  0
  -24.6250  -31.9240   23.2550 C   0  0  0  0  0  0  0  0  0  0  0  0
  -27.2560  -27.3940   20.2180 C   0  0  0  0  0  0  0  0  0  0  0  0
  -23.4170  -30.5030   21.6350 C   0  0  0  0  0  3  0  0  0  0  0  0
  -24.8650  -28.9450   20.2190 C   0  0  0  0  0  0  0  0  0  0  0  0
  -25.9460  -30.8500   21.4230 C   0  0  0  0  0  2  0  0  0  0  0  0
  -26.0280  -29.4680   20.7940 C   0  0  0  0  0  0  0  0  0  0  0  0
  -27.2230  -28.7010   20.7830 C   0  0  0  0  0  3  0  0  0  0  0  0
  -26.0600  -26.8940   19.6600 C   0  0  0  0  0  3  0  0  0  0  0  0
  -24.8780  -27.6610   19.6480 C   0  0  0  0  0  3  0  0  0  0  0  0
  -23.6220  -29.8100   20.2610 C   0  0  0  0  0  2  0  0  0  0  0  0
  -24.6830  -31.1090   22.1620 N   0  0  0  0  0  0  0  0  0  0  0  0
  -23.5450  -32.1990   23.7960 O   0  0  0  0  0  0  0  0  0  0  0  0
  -22.7690  -29.4920   22.6100 C   0  0  0  0  0  0  0  0  0  0  0  0
  -21.4470  -29.2970   22.4820 N   0  0  0  0  0  0  0  0  0  0  0  0
  -23.4560  -28.8860   23.4360 O   0  0  0  0  0  0  0  0  0  0  0  0
  -20.9520  -29.8390   21.7880 H   0  0  0  0  0  0  0  0  0  0  0  0
  -18.0870  -28.0560   22.9710 C   0  0  0  0  0  0  0  0  0  0  0  0
  -20.6370  -28.3630   23.2650 C   0  0  0  0  0  3  0  0  0  0  0  0
  -20.7700  -26.9210   22.7220 C   0  0  0  0  0  2  0  0  0  0  0  0
  -19.6840  -26.5590   21.7020 C   0  0  0  0  0  2  0  0  0  0  0  0
  -18.2930  -26.6950   22.3270 C   0  0  0  0  0  2  0  0  0  0  0  0
  -19.1880  -28.8450   23.3970 C   0  0  0  0  0  0  0  0  0  0  0  0
  -18.9430  -30.1180   23.9580 C   0  0  0  0  0  3  0  0  0  0  0  0
  -17.6280  -30.6020   24.0970 C   0  0  0  0  0  3  0  0  0  0  0  0
  -16.5410  -29.8090   23.6870 C   0  0  0  0  0  3  0  0  0  0  0  0
  -16.7710  -28.5390   23.1310 C   0  0  0  0  0  3  0  0  0  0  0  0
  -25.9100  -32.5670   23.8640 C   0  0  0  0  0  3  0  0  0  0  0  0
  -25.5980  -33.9670   24.1840 N   0  0  0  0  0  0  0  0  0  0  0  0
  -25.9220  -35.0160   23.4160 C   0  0  0  0  0  0  0  0  0  0  0  0
  -26.5880  -34.9060   22.3820 O   0  0  0  0  0  0  0  0  0  0  0  0
  -25.0070  -34.1250   24.9880 H   0  0  0  0  0  0  0  0  0  0  0  0
  -24.1880  -36.7990   23.0520 C   0  0  0  0  0  1  0  0  0  0  0  0
  -25.4310  -36.4060   23.8650 C   0  0  0  0  0  3  0  0  0  0  0  0
  -27.5650  -37.3010   24.6850 C   0  0  0  0  0  1  0  0  0  0  0  0
  -26.4600  -37.4610   23.7430 N   0  0  0  0  0  0  0  0  0  0  0  0
  -26.0520  -38.3800   23.8860 H   0  0  0  0  0  0  0  0  0  0  0  0
  -26.4400  -31.8090   25.1420 C   0  0  1  0  0  0  0  0  0  0  0  0
  -25.3550  -31.5720   26.2200 C   0  0  0  0  0  1  0  0  0  0  0  0
  -27.0260  -30.4320   24.7540 C   0  0  0  0  0  1  0  0  0  0  0  0
  -27.5910  -32.6130   25.7900 C   0  0  0  0  0  1  0  0  0  0  0  0
  1 53  1  0
  1  6  1  0
  2  1  1  0
  2  3  1  0
  4  2  1  0
  5  2  1  0
  6  7  2  0
  8  6  1  0
  8 10  1  0
  9 10  1  0
 10 11  1  1
 12 24  1  0
 13 18  1  0
 14 15  1  0
 14 13  1  0
 16 15  1  0
 16 28  1  0
 16 17  1  0
 18 12  1  0
 18 17  1  0
 19 12  2  0
 20 24  1  0
 20 21  1  0
 21 10  1  0
 21 22  1  0
 22 23  1  0
 24 22  1  0
 25 26  2  0
 26 45  1  0
 27 26  1  0
 27 30  1  0
 28 29  1  0
 28 25  1  0
 29 27  2  0
 30 31  1  0
 31 32  2  0
 33 36  1  0
 33 32  1  0
 34 33  2  0
 35 34  1  0
 35 30  2  0
 36 37  1  0
 37 42  2  0
 37 38  1  0
 38 39  2  0
 39 40  1  0
 40 44  1  0
 41 40  2  0
 42 41  1  0
 43 42  1  0
 45 46  1  0
 46 49  1  0
 46 48  1  0
 47 45  2  0
 50 25  1  0
 50 51  1  0
 52 50  1  0
 56 54  1  6
 56 55  1  0
 56 57  1  0
 56 53  1  0
 58 69  2  0
 59 57  1  0
 59 64  1  0
 60 68  1  0
 60 70  1  0
 61 67  1  0
 61 63  1  0
 62 68  1  0
 63 62  1  0
 64 63  2  0
 65 59  2  0
 66 65  1  0
 66 61  2  0
 67 60  1  0
 68 58  1  0
 70 72  2  0
 71 70  1  0
 73 71  1  0
 74 83  2  0
 74 79  1  0
 75 71  1  0
 75 79  1  0
 76 75  1  0
 77 78  1  0
 77 76  1  0
 78 74  1  0
 79 80  2  0
 80 81  1  0
 82 81  2  0
 83 82  1  0
 84 58  1  0
 84 85  1  0
 84 94  1  0
 85 88  1  0
 86 90  1  0
 86 85  1  0
 87 86  2  0
 90 89  1  0
 92 90  1  0
 92 93  1  0
 92 91  1  0
 94 97  1  1
 94 95  1  0
 96 94  1  0
M  ISO  4  12 100  24 100  56 101  57 101
M  END
>  <TORSDO>  (31) 
F 22

>  <SCORE>  (31) 
-12.829

>  <name>  (31) 
30

>  <ligand_id>  (31) 
30

>  <original_smiles>  (31) 
[H]c1c([H])c([H])c2c(c1[H])C([H])([H])C([H])([H])C([H])([H])C2([H])N([H])C(=O)C1([H])N(C(=O)C([H])(N([H])C(=O)C([H])(N([H])C([H])([H])[H])C([H])([H])[H])C(C([H])([H])[H])(C([H])([H])[H])C([H])([H])[H])C([H])([H])c2c([H])c(OC(C([H])([H])[H])(C([H])([H])[H])C([H])([H])C([H])(C(=O)C([H])([H])[N+]([H])(C([H])([H])[H])C3([H])C([H])([H])N(C(=O)N4C([H])([H])C([H])([H])C([H])([H])C([H])(n5nc(-c6c([H])c([H])c(Oc7c([H])c([H])c(F)c([H])c7F)c([H])c6[H])c(C(=O)N([H])[H])c5N([H])[H])C4([H])[H])C3([H])C([H])([H])[H])[N+]([H])([H])[H])c([H])c([H])c2C1([H])[H]

>  <smiles>  (31) 
[H]c1c([H])c([H])c2c(c1[H])C([H])([H])C([H])([H])C([H])([H])C2([H])N([H])C(=O)C1([H])N(C(=O)C([H])(N([H])C(=O)C([H])(N([H])C([H])([H])[H])C([H])([H])[H])C(C([H])([H])[H])(C([H])([H])[H])C([H])([H])[H])C([H])([H])c2c([H])c(OC(C([H])([H])[H])(C([H])([H])[H])C([H])([H])C([H])(C(=O)C([H])([H])[N+]([H])(C([H])([H])[H])C3([H])C([H])([H])N(C(=O)N4C([H])([H])C([H])([H])C([H])([H])C([H])(n5nc(-c6c([H])c([H])c(Oc7c([H])c([H])c(F)c([H])c7F)c([H])c6[H])c(C(=O)N([H])[H])c5N([H])[H])C4([H])[H])C3([H])C([H])([H])[H])[N+]([H])([H])[H])c([H])c([H])c2C1([H])[H]

$$$$
31:0:0
     RDKit          3D

 98106  0  0  1  0  0  0  0  0999 V2000
  -30.4660  -18.6600   19.5310 C   0  0  0  0  0  0  0  0  0  0  0  0
  -29.9040  -18.8320   20.7810 C   0  0  0  0  0  0  0  0  0  0  0  0
  -30.0350  -21.0400   19.5340 C   0  0  0  0  0  0  0  0  0  0  0  0
  -30.5450  -19.9490   18.8800 N   0  0  0  0  0  0  0  0  0  0  0  0
  -29.4240  -20.5050   21.0950 S   0  0  0  0  0  0  0  0  0  0  0  0
  -28.5330  -16.8690   21.6110 C   0  0  0  0  0  1  0  0  0  0  0  0
  -29.7030  -17.8240   21.8720 C   0  0  0  0  0  2  0  0  0  0  0  0
  -29.8330  -22.4920   18.9350 C   0  0  0  0  0  2  0  0  0  0  0  0
  -28.4060  -23.7450   20.7020 C   0  0  0  0  0  1  0  0  0  0  0  0
  -30.9030  -24.0540   20.6750 C   0  0  0  0  0  1  0  0  0  0  0  0
  -29.6510  -23.8620   19.8000 C   0  0  1  0  0  0  0  0  0  0  0  0
  -29.4430  -25.2100   18.9230 C   0  0  0  0  0  2  0  0  0  0  0  0
  -29.2360  -26.5580   19.5510 O   0  0  0  0  0  0  0  0  0  0  0  0
  -24.9150  -31.3010   22.9110 C   0  0  0  0  0  0  0  0  0  0  0  0
  -28.0250  -27.2860   19.5240 C   0  0  0  0  0  0  0  0  0  0  0  0
  -23.8920  -29.9520   21.1160 C   0  0  0  0  0  3  0  0  0  0  0  0
  -25.5150  -28.6850   19.5990 C   0  0  0  0  0  0  0  0  0  0  0  0
  -26.3950  -30.5140   21.0450 C   0  0  0  0  0  2  0  0  0  0  0  0
  -26.6200  -29.2150   20.2740 C   0  0  0  0  0  0  0  0  0  0  0  0
  -27.8720  -28.5260   20.2320 C   0  0  0  0  0  3  0  0  0  0  0  0
  -26.8840  -26.8140   18.8360 C   0  0  0  0  0  3  0  0  0  0  0  0
  -25.6510  -27.4920   18.8730 C   0  0  0  0  0  3  0  0  0  0  0  0
  -24.2000  -29.4320   19.6890 C   0  0  0  0  0  2  0  0  0  0  0  0
  -25.0820  -30.6050   21.7490 N   0  0  0  0  0  0  0  0  0  0  0  0
  -23.7980  -31.4240   23.4340 O   0  0  0  0  0  0  0  0  0  0  0  0
  -23.3090  -28.7940   21.9600 C   0  0  0  0  0  0  0  0  0  0  0  0
  -22.0000  -28.5260   21.8010 N   0  0  0  0  0  0  0  0  0  0  0  0
  -24.0310  -28.1450   22.7210 O   0  0  0  0  0  0  0  0  0  0  0  0
  -21.4710  -29.1080   21.1670 H   0  0  0  0  0  0  0  0  0  0  0  0
  -18.7270  -27.0230   22.1520 C   0  0  0  0  0  0  0  0  0  0  0  0
  -21.2590  -27.4510   22.4620 C   0  0  0  0  0  3  0  0  0  0  0  0
  -21.4720  -26.1010   21.7400 C   0  0  0  0  0  2  0  0  0  0  0  0
  -20.3950  -25.8020   20.6900 C   0  0  0  0  0  2  0  0  0  0  0  0
  -19.0080  -25.7700   21.3380 C   0  0  0  0  0  2  0  0  0  0  0  0
  -19.7850  -27.8190   22.6680 C   0  0  0  0  0  0  0  0  0  0  0  0
  -19.4700  -28.9900   23.3910 C   0  0  0  0  0  3  0  0  0  0  0  0
  -18.1310  -29.3690   23.6010 C   0  0  0  0  0  3  0  0  0  0  0  0
  -17.0880  -28.5680   23.1020 C   0  0  0  0  0  3  0  0  0  0  0  0
  -17.3870  -27.3970   22.3840 C   0  0  0  0  0  3  0  0  0  0  0  0
  -26.1140  -31.9950   23.6270 C   0  0  0  0  0  3  0  0  0  0  0  0
  -26.6430  -31.1860   24.8760 C   0  0  1  0  0  0  0  0  0  0  0  0
  -25.5320  -30.8020   25.8810 C   0  0  0  0  0  1  0  0  0  0  0  0
  -27.3440  -29.8810   24.4310 C   0  0  0  0  0  1  0  0  0  0  0  0
  -27.7060  -32.0200   25.6250 C   0  0  0  0  0  1  0  0  0  0  0  0
  -25.6730  -33.3380   24.0290 N   0  0  0  0  0  0  0  0  0  0  0  0
  -25.9520  -34.4650   23.3570 C   0  0  0  0  0  0  0  0  0  0  0  0
  -26.6720  -34.4860   22.3550 O   0  0  0  0  0  0  0  0  0  0  0  0
  -25.0260  -33.3890   24.8020 H   0  0  0  0  0  0  0  0  0  0  0  0
  -24.0940  -36.1330   23.0470 C   0  0  0  0  0  1  0  0  0  0  0  0
  -25.3350  -35.7780   23.8810 C   0  0  0  0  0  3  0  0  0  0  0  0
  -27.3450  -36.7860   24.8680 C   0  0  0  0  0  1  0  0  0  0  0  0
  -26.2800  -36.9140   23.8750 N   0  0  0  0  0  0  0  0  0  0  0  0
  -25.7930  -37.7890   24.0440 H   0  0  0  0  0  0  0  0  0  0  0  0
  -31.1000  -17.3460   18.8940 C   0  0  0  0  0  3  0  0  0  0  0  0
  -31.5030  -14.8010   19.1780 C   0  0  0  0  0  0  0  0  0  0  0  0
  -31.1480  -12.5050   18.2910 C   0  0  0  0  0  2  0  0  0  0  0  0
  -30.0350  -12.5470   17.2210 C   0  0  0  0  0  2  0  0  0  0  0  0
  -28.6510  -12.3880   17.8780 C   0  0  0  0  0  2  0  0  0  0  0  0
  -28.4630  -13.3210   19.1050 C   0  0  0  0  0  3  0  0  0  0  0  0
  -29.6790  -13.2690   20.0570 C   0  0  0  0  0  2  0  0  0  0  0  0
  -30.8720  -13.5860   19.2630 N   0  0  0  0  0  0  0  0  0  0  0  0
  -32.6160  -14.8860   18.6490 O   0  0  0  0  0  0  0  0  0  0  0  0
  -30.7690  -15.9500   19.4140 N   0  0  0  0  0  0  0  0  0  0  0  0
  -29.8520  -15.8310   19.8190 H   0  0  0  0  0  0  0  0  0  0  0  0
  -26.2920  -13.9470   20.3190 C   0  0  0  0  0  0  0  0  0  0  0  0
  -25.2610  -13.1910   20.8050 C   0  0  0  0  0  0  0  0  0  0  0  0
  -25.6170  -11.8300   20.5540 C   0  0  0  0  0  0  0  0  0  0  0  0
  -27.2140  -13.0490   19.8060 N   0  0  0  0  0  0  0  0  0  0  0  0
  -26.8250  -11.7640   20.0070 N   0  0  0  0  0  0  0  0  0  0  0  0
  -24.8520  -10.5910   20.7490 C   0  0  0  0  0  0  0  0  0  0  0  0
  -25.2720   -9.6000   21.6640 C   0  0  0  0  0  3  0  0  0  0  0  0
  -24.5100   -8.4260   21.8480 C   0  0  0  0  0  3  0  0  0  0  0  0
  -23.3140   -8.2350   21.1170 C   0  0  0  0  0  0  0  0  0  0  0  0
  -22.9130   -9.2140   20.1900 C   0  0  0  0  0  3  0  0  0  0  0  0
  -23.6750  -10.3790   20.0040 C   0  0  0  0  0  3  0  0  0  0  0  0
  -22.5230   -7.1160   21.2110 O   0  0  0  0  0  0  0  0  0  0  0  0
  -22.2850   -6.5030   22.4150 C   0  0  0  0  0  0  0  0  0  0  0  0
  -21.6490   -7.1750   23.4820 C   0  0  0  0  0  3  0  0  0  0  0  0
  -21.3600   -6.4860   24.6770 C   0  0  0  0  0  3  0  0  0  0  0  0
  -21.7000   -5.1250   24.8050 C   0  0  0  0  0  0  0  0  0  0  0  0
  -22.3280   -4.4530   23.7430 C   0  0  0  0  0  3  0  0  0  0  0  0
  -22.6180   -5.1390   22.5510 C   0  0  0  0  0  0  0  0  0  0  0  0
  -23.2040   -4.4810   21.5210 F   0  0  0  0  0  0  0  0  0  0  0  0
  -21.4160   -4.4620   25.9500 F   0  0  0  0  0  0  0  0  0  0  0  0
  -23.9720  -13.7030   21.3770 C   0  0  0  0  0  0  0  0  0  0  0  0
  -23.3790  -12.9640   22.3080 N   0  0  0  0  0  0  0  0  0  0  0  0
  -23.5080  -14.7900   21.0340 O   0  0  0  0  0  0  0  0  0  0  0  0
  -23.7730  -12.0830   22.6040 H   0  0  0  0  0  0  0  0  0  0  0  0
  -22.5200  -13.2840   22.7320 H   0  0  0  0  0  0  0  0  0  0  0  0
  -26.5140  -15.3190   20.2460 N   0  0  0  0  0  0  0  0  0  0  0  0
  -25.8200  -15.9920   20.5520 H   0  0  0  0  0  0  0  0  0  0  0  0
  -27.2950  -15.7490   19.7680 H   0  0  0  0  0  0  0  0  0  0  0  0
  -30.8810  -17.3410   17.3530 C   0  0  0  0  0  2  0  0  0  0  0  0
  -32.0610  -17.9420   16.5540 C   0  0  0  0  0  2  0  0  0  0  0  0
  -33.1900  -17.0010   16.4010 N   0  0  0  0  0  4  0  0  0  0  0  0
  -33.5650  -16.7130   17.2870 H   0  0  0  0  0  0  0  0  0  0  0  0
  -33.9290  -17.4440   15.8830 H   0  0  0  0  0  0  0  0  0  0  0  0
  -32.9120  -16.1800   15.8930 H   0  0  0  0  0  0  0  0  0  0  0  0
  1  2  2  0
  2  5  1  0
  2  7  1  0
  3  5  1  0
  4  1  1  0
  4  3  2  0
  6  7  1  0
  8  3  1  0
  8 11  1  0
 11 10  1  1
 11  9  1  0
 12 13  1  0
 12 11  1  0
 14 25  2  0
 15 13  1  0
 15 20  1  0
 16 24  1  0
 16 26  1  0
 17 23  1  0
 17 19  1  0
 18 24  1  0
 19 18  1  0
 20 19  2  0
 21 22  1  0
 21 15  2  0
 22 17  2  0
 23 16  1  0
 24 14  1  0
 26 28  2  0
 27 26  1  0
 29 27  1  0
 30 39  2  0
 30 35  1  0
 31 27  1  0
 31 35  1  0
 32 31  1  0
 33 34  1  0
 33 32  1  0
 34 30  1  0
 35 36  2  0
 36 37  1  0
 38 37  2  0
 39 38  1  0
 40 14  1  0
 40 45  1  0
 40 41  1  0
 41 44  1  1
 41 42  1  0
 43 41  1  0
 45 48  1  0
 46 50  1  0
 46 45  1  0
 47 46  2  0
 50 49  1  0
 52 50  1  0
 52 53  1  0
 52 51  1  0
 54 93  1  0
 54 63  1  0
 54  1  1  0
 55 61  1  0
 55 63  1  0
 56 61  1  0
 57 58  1  0
 57 56  1  0
 59 58  1  0
 59 68  1  0
 59 60  1  0
 61 60  1  0
 62 55  2  0
 63 64  1  0
 65 66  2  0
 66 85  1  0
 67 70  1  0
 67 66  1  0
 68 69  1  0
 68 65  1  0
 69 67  2  0
 70 71  1  0
 71 72  2  0
 73 76  1  0
 73 72  1  0
 74 73  2  0
 75 74  1  0
 75 70  2  0
 76 77  1  0
 77 82  2  0
 77 78  1  0
 78 79  2  0
 79 80  1  0
 80 84  1  0
 81 80  2  0
 82 81  1  0
 83 82  1  0
 85 86  1  0
 86 88  1  0
 86 89  1  0
 87 85  2  0
 90 65  1  0
 90 91  1  0
 92 90  1  0
 94 93  1  0
 95 94  1  0
 95 96  1  0
 97 95  1  0
 98 95  1  0
M  ISO  4  12 101  13 101  55 100  63 100
M  END
>  <TORSDO>  (32) 
F 24

>  <SCORE>  (32) 
-7.306

>  <name>  (32) 
31

>  <ligand_id>  (32) 
31

>  <original_smiles>  (32) 
[H]c1c([H])c([H])c2c(c1[H])C([H])([H])C([H])([H])C([H])([H])C2([H])N([H])C(=O)C1([H])N(C(=O)C([H])(N([H])C(=O)C([H])(N([H])C([H])([H])[H])C([H])([H])[H])C(C([H])([H])[H])(C([H])([H])[H])C([H])([H])[H])C([H])([H])c2c([H])c(OC([H])([H])C(C([H])([H])[H])(C([H])([H])[H])C([H])([H])c3nc(C([H])(N([H])C(=O)N4C([H])([H])C([H])([H])C([H])([H])C([H])(n5nc(-c6c([H])c([H])c(Oc7c([H])c([H])c(F)c([H])c7F)c([H])c6[H])c(C(=O)N([H])[H])c5N([H])[H])C4([H])[H])C([H])([H])C([H])([H])[N+]([H])([H])[H])c(C([H])([H])C([H])([H])[H])s3)c([H])c([H])c2C1([H])[H]

>  <smiles>  (32) 
[H]c1c([H])c([H])c2c(c1[H])C([H])([H])C([H])([H])C([H])([H])C2([H])N([H])C(=O)C1([H])N(C(=O)C([H])(N([H])C(=O)C([H])(N([H])C([H])([H])[H])C([H])([H])[H])C(C([H])([H])[H])(C([H])([H])[H])C([H])([H])[H])C([H])([H])c2c([H])c(OC([H])([H])C(C([H])([H])[H])(C([H])([H])[H])C([H])([H])c3nc(C([H])(N([H])C(=O)N4C([H])([H])C([H])([H])C([H])([H])C([H])(n5nc(-c6c([H])c([H])c(Oc7c([H])c([H])c(F)c([H])c7F)c([H])c6[H])c(C(=O)N([H])[H])c5N([H])[H])C4([H])[H])C([H])([H])C([H])([H])[N+]([H])([H])[H])c(C([H])([H])C([H])([H])[H])s3)c([H])c([H])c2C1([H])[H]

$$$$
32:0:0
     RDKit          3D

 93101  0  0  1  0  0  0  0  0999 V2000
  -30.4280  -23.5150   22.1820 C   0  0  0  0  0  2  0  0  0  0  0  0
  -29.8020  -22.5960   20.4630 C   0  0  0  0  0  2  0  0  0  0  0  0
  -31.0610  -22.4140   21.3220 C   0  0  0  0  0  3  0  0  0  0  0  0
  -29.7360  -23.9630   20.9710 N   0  0  1  0  0  4  0  0  0  0  0  0
  -30.3250  -24.5620   20.4100 H   0  0  0  0  0  0  0  0  0  0  0  0
  -31.2660  -19.8840   21.2150 C   0  0  0  0  0  0  0  0  0  0  0  0
  -31.2460  -21.0280   21.9520 C   0  0  0  0  0  0  0  0  0  0  0  0
  -31.2690  -19.9420   19.6880 C   0  0  0  0  0  1  0  0  0  0  0  0
  -31.3870  -21.0570   23.4730 C   0  0  0  0  0  1  0  0  0  0  0  0
  -31.2770  -18.5770   21.8700 C   0  0  0  0  0  3  0  0  0  0  0  0
  -31.2640  -17.3860   21.2440 C   0  0  0  0  0  3  0  0  0  0  0  0
  -31.2820  -16.0540   21.9730 C   0  0  0  0  0  2  0  0  0  0  0  0
  -30.6720  -14.3760   20.2600 C   0  0  0  0  0  0  0  0  0  0  0  0
  -30.1850  -12.3680   18.9200 C   0  0  0  0  0  2  0  0  0  0  0  0
  -29.1900  -12.6620   17.7850 C   0  0  0  0  0  2  0  0  0  0  0  0
  -27.7410  -12.5220   18.2840 C   0  0  0  0  0  2  0  0  0  0  0  0
  -27.4850  -13.2960   19.6040 C   0  0  0  0  0  3  0  0  0  0  0  0
  -28.5870  -12.9990   20.6460 C   0  0  0  0  0  2  0  0  0  0  0  0
  -29.8990  -13.2830   20.0340 N   0  0  0  0  0  0  0  0  0  0  0  0
  -31.6350  -14.6820   19.5520 O   0  0  0  0  0  0  0  0  0  0  0  0
  -30.3920  -15.0610   21.3730 N   0  0  0  0  0  0  0  0  0  0  0  0
  -29.5820  -14.7710   21.9010 H   0  0  0  0  0  0  0  0  0  0  0  0
  -25.1110  -13.8890   20.4090 C   0  0  0  0  0  0  0  0  0  0  0  0
  -24.0600  -13.1100   20.8110 C   0  0  0  0  0  0  0  0  0  0  0  0
  -24.5220  -11.7590   20.7450 C   0  0  0  0  0  0  0  0  0  0  0  0
  -26.1510  -13.0140   20.1320 N   0  0  0  0  0  0  0  0  0  0  0  0
  -25.7990  -11.7270   20.3860 N   0  0  0  0  0  0  0  0  0  0  0  0
  -23.8070  -10.4930   20.9490 C   0  0  0  0  0  0  0  0  0  0  0  0
  -24.2560   -9.5330   21.8820 C   0  0  0  0  0  3  0  0  0  0  0  0
  -23.5410   -8.3310   22.0740 C   0  0  0  0  0  3  0  0  0  0  0  0
  -22.3630   -8.0800   21.3320 C   0  0  0  0  0  0  0  0  0  0  0  0
  -21.9320   -9.0300   20.3870 C   0  0  0  0  0  3  0  0  0  0  0  0
  -22.6480  -10.2230   20.1940 C   0  0  0  0  0  3  0  0  0  0  0  0
  -21.6170   -6.9300   21.4320 O   0  0  0  0  0  0  0  0  0  0  0  0
  -21.5660   -6.2050   22.5960 C   0  0  0  0  0  0  0  0  0  0  0  0
  -21.1340   -6.7770   23.8120 C   0  0  0  0  0  3  0  0  0  0  0  0
  -21.0310   -5.9780   24.9680 C   0  0  0  0  0  3  0  0  0  0  0  0
  -21.3500   -4.6070   24.9090 C   0  0  0  0  0  0  0  0  0  0  0  0
  -21.7760   -4.0360   23.6970 C   0  0  0  0  0  3  0  0  0  0  0  0
  -21.8800   -4.8330   22.5430 C   0  0  0  0  0  0  0  0  0  0  0  0
  -22.2710   -4.2710   21.3740 F   0  0  0  0  0  0  0  0  0  0  0  0
  -21.2440   -3.8380   26.0170 F   0  0  0  0  0  0  0  0  0  0  0  0
  -22.6740  -13.5800   21.1470 C   0  0  0  0  0  0  0  0  0  0  0  0
  -21.9810  -12.8650   22.0250 N   0  0  0  0  0  0  0  0  0  0  0  0
  -22.2160  -14.6150   20.6640 O   0  0  0  0  0  0  0  0  0  0  0  0
  -22.3630  -12.0260   22.4350 H   0  0  0  0  0  0  0  0  0  0  0  0
  -21.0520  -13.1620   22.2940 H   0  0  0  0  0  0  0  0  0  0  0  0
  -25.2680  -15.2620   20.2420 N   0  0  0  0  0  0  0  0  0  0  0  0
  -24.5100  -15.9190   20.3940 H   0  0  0  0  0  0  0  0  0  0  0  0
  -26.1130  -15.7050   19.9020 H   0  0  0  0  0  0  0  0  0  0  0  0
  -28.3750  -24.5150   21.1570 C   0  0  0  0  0  2  0  0  0  0  0  0
  -28.4090  -26.0220   21.4430 C   0  0  0  0  0  2  0  0  0  0  0  0
  -28.2770  -26.7460   20.2170 O   0  0  0  0  0  0  0  0  0  0  0  0
  -24.5160  -31.9130   23.2620 C   0  0  0  0  0  0  0  0  0  0  0  0
  -27.1290  -27.4920   20.1810 C   0  0  0  0  0  0  0  0  0  0  0  0
  -23.2930  -30.5040   21.6340 C   0  0  0  0  0  3  0  0  0  0  0  0
  -24.7320  -28.9640   20.2020 C   0  0  0  0  0  0  0  0  0  0  0  0
  -25.8060  -30.8820   21.3960 C   0  0  0  0  0  2  0  0  0  0  0  0
  -25.8910  -29.5060   20.7740 C   0  0  0  0  0  0  0  0  0  0  0  0
  -27.0960  -28.7760   20.7610 C   0  0  0  0  0  3  0  0  0  0  0  0
  -25.9630  -26.9520   19.6040 C   0  0  0  0  0  3  0  0  0  0  0  0
  -24.7590  -27.6840   19.6170 C   0  0  0  0  0  3  0  0  0  0  0  0
  -23.4850  -29.8160   20.2570 C   0  0  0  0  0  2  0  0  0  0  0  0
  -24.5570  -31.1120   22.1580 N   0  0  0  0  0  0  0  0  0  0  0  0
  -23.4410  -32.1870   23.8110 O   0  0  0  0  0  0  0  0  0  0  0  0
  -22.6490  -29.4900   22.6060 C   0  0  0  0  0  0  0  0  0  0  0  0
  -21.3250  -29.2990   22.4790 N   0  0  0  0  0  0  0  0  0  0  0  0
  -23.3370  -28.8760   23.4270 O   0  0  0  0  0  0  0  0  0  0  0  0
  -20.8360  -29.8460   21.7840 H   0  0  0  0  0  0  0  0  0  0  0  0
  -17.9570  -28.0960   22.9740 C   0  0  0  0  0  0  0  0  0  0  0  0
  -20.5110  -28.3690   23.2580 C   0  0  0  0  0  3  0  0  0  0  0  0
  -20.6250  -26.9320   22.6990 C   0  0  0  0  0  2  0  0  0  0  0  0
  -19.5310  -26.5930   21.6820 C   0  0  0  0  0  2  0  0  0  0  0  0
  -18.1440  -26.7390   22.3160 C   0  0  0  0  0  2  0  0  0  0  0  0
  -19.0690  -28.8690   23.4000 C   0  0  0  0  0  0  0  0  0  0  0  0
  -18.8420  -30.1400   23.9730 C   0  0  0  0  0  3  0  0  0  0  0  0
  -17.5340  -30.6370   24.1250 C   0  0  0  0  0  3  0  0  0  0  0  0
  -16.4370  -29.8610   23.7180 C   0  0  0  0  0  3  0  0  0  0  0  0
  -16.6480  -28.5930   23.1480 C   0  0  0  0  0  3  0  0  0  0  0  0
  -25.8110  -32.5430   23.8680 C   0  0  0  0  0  3  0  0  0  0  0  0
  -25.5160  -33.9470   24.1800 N   0  0  0  0  0  0  0  0  0  0  0  0
  -25.8680  -34.9860   23.4100 C   0  0  0  0  0  0  0  0  0  0  0  0
  -26.5450  -34.8600   22.3860 O   0  0  0  0  0  0  0  0  0  0  0  0
  -24.9200  -34.1200   24.9760 H   0  0  0  0  0  0  0  0  0  0  0  0
  -24.1710  -36.7960   23.0010 C   0  0  0  0  0  1  0  0  0  0  0  0
  -25.3890  -36.3850   23.8430 C   0  0  0  0  0  3  0  0  0  0  0  0
  -27.5200  -37.2470   24.7040 C   0  0  0  0  0  1  0  0  0  0  0  0
  -26.4370  -37.4230   23.7400 N   0  0  0  0  0  0  0  0  0  0  0  0
  -26.0400  -38.3480   23.8770 H   0  0  0  0  0  0  0  0  0  0  0  0
  -26.3330  -31.7800   25.1470 C   0  0  1  0  0  0  0  0  0  0  0  0
  -25.2470  -31.5530   26.2250 C   0  0  0  0  0  1  0  0  0  0  0  0
  -26.9040  -30.3970   24.7560 C   0  0  0  0  0  1  0  0  0  0  0  0
  -27.4950  -32.5720   25.7930 C   0  0  0  0  0  1  0  0  0  0  0  0
  2  4  1  0
  2  3  1  0
  3  7  1  0
  3  1  1  0
  4 51  1  0
  4  1  1  0
  4  5  1  6
  6 10  1  0
  6  7  2  0
  7  9  1  0
  8  6  1  0
 11 10  2  0
 11 12  1  0
 13 21  1  0
 14 19  1  0
 15 16  1  0
 15 14  1  0
 17 16  1  0
 17 26  1  0
 17 18  1  0
 19 13  1  0
 19 18  1  0
 20 13  2  0
 21 22  1  0
 21 12  1  0
 23 24  2  0
 24 43  1  0
 25 24  1  0
 25 28  1  0
 26 27  1  0
 26 23  1  0
 27 25  2  0
 28 29  1  0
 29 30  2  0
 31 34  1  0
 31 30  1  0
 32 31  2  0
 33 32  1  0
 33 28  2  0
 34 35  1  0
 35 36  1  0
 36 37  2  0
 38 37  1  0
 38 42  1  0
 39 38  2  0
 40 35  2  0
 40 39  1  0
 41 40  1  0
 43 44  1  0
 44 47  1  0
 44 46  1  0
 45 43  2  0
 48 49  1  0
 48 23  1  0
 50 48  1  0
 51 52  1  0
 53 52  1  0
 54 65  2  0
 55 53  1  0
 55 60  1  0
 56 64  1  0
 56 66  1  0
 57 63  1  0
 57 59  1  0
 58 64  1  0
 59 58  1  0
 60 59  2  0
 61 62  1  0
 61 55  2  0
 62 57  2  0
 63 56  1  0
 64 54  1  0
 66 68  2  0
 67 66  1  0
 69 67  1  0
 70 79  2  0
 70 75  1  0
 71 67  1  0
 71 75  1  0
 72 71  1  0
 73 74  1  0
 73 72  1  0
 74 70  1  0
 75 76  2  0
 76 77  1  0
 78 77  2  0
 79 78  1  0
 80 54  1  0
 80 81  1  0
 80 90  1  0
 81 84  1  0
 82 86  1  0
 82 81  1  0
 83 82  2  0
 86 85  1  0
 88 86  1  0
 88 89  1  0
 88 87  1  0
 90 93  1  1
 90 91  1  0
 92 90  1  0
M  ISO  4  13 100  21 100  52 101  53 101
M  END
>  <TORSDO>  (33) 
F 21

>  <SCORE>  (33) 
-13.504

>  <name>  (33) 
32

>  <ligand_id>  (33) 
32

>  <original_smiles>  (33) 
[H]C(C(=C(C([H])([H])[H])C1([H])C([H])([H])[N+]([H])(C([H])([H])C([H])([H])Oc2c([H])c([H])c3c(c2[H])C([H])([H])N(C(=O)C([H])(N([H])C(=O)C([H])(N([H])C([H])([H])[H])C([H])([H])[H])C(C([H])([H])[H])(C([H])([H])[H])C([H])([H])[H])C([H])(C(=O)N([H])C2([H])c4c([H])c([H])c([H])c([H])c4C([H])([H])C([H])([H])C2([H])[H])C3([H])[H])C1([H])[H])C([H])([H])[H])=C([H])C([H])([H])N([H])C(=O)N1C([H])([H])C([H])([H])C([H])([H])C([H])(n2nc(-c3c([H])c([H])c(Oc4c([H])c([H])c(F)c([H])c4F)c([H])c3[H])c(C(=O)N([H])[H])c2N([H])[H])C1([H])[H]

>  <smiles>  (33) 
[H]C(C(=C(C([H])([H])[H])C1([H])C([H])([H])[N+]([H])(C([H])([H])C([H])([H])Oc2c([H])c([H])c3c(c2[H])C([H])([H])N(C(=O)C([H])(N([H])C(=O)C([H])(N([H])C([H])([H])[H])C([H])([H])[H])C(C([H])([H])[H])(C([H])([H])[H])C([H])([H])[H])C([H])(C(=O)N([H])C2([H])c4c([H])c([H])c([H])c([H])c4C([H])([H])C([H])([H])C2([H])[H])C3([H])[H])C1([H])[H])C([H])([H])[H])=C([H])C([H])([H])N([H])C(=O)N1C([H])([H])C([H])([H])C([H])([H])C([H])(n2nc(-c3c([H])c([H])c(Oc4c([H])c([H])c(F)c([H])c4F)c([H])c3[H])c(C(=O)N([H])[H])c2N([H])[H])C1([H])[H]

$$$$
33:0:0
     RDKit          3D

 98107  0  0  1  0  0  0  0  0999 V2000
  -29.6580  -20.1960   21.7080 C   0  0  0  0  0  0  0  0  0  0  0  0
  -29.9430  -18.9160   21.9960 N   0  0  0  0  0  0  0  0  0  0  0  0
  -29.1650  -20.5290   20.6300 O   0  0  0  0  0  0  0  0  0  0  0  0
  -30.3520  -18.7180   22.8990 H   0  0  0  0  0  0  0  0  0  0  0  0
  -31.0120  -14.9290   20.1170 C   0  0  0  0  0  0  0  0  0  0  0  0
  -30.6580  -12.8470   18.8500 C   0  0  0  0  0  2  0  0  0  0  0  0
  -29.6450  -13.1300   17.7210 C   0  0  0  0  0  2  0  0  0  0  0  0
  -28.1940  -12.9760   18.2250 C   0  0  0  0  0  2  0  0  0  0  0  0
  -27.9370  -13.7100   19.5700 C   0  0  0  0  0  3  0  0  0  0  0  0
  -29.0570  -13.3950   20.5830 C   0  0  0  0  0  2  0  0  0  0  0  0
  -30.3370  -13.7580   19.9570 N   0  0  0  0  0  0  0  0  0  0  0  0
  -32.1440  -15.1080   19.6610 O   0  0  0  0  0  0  0  0  0  0  0  0
  -29.8820  -16.4230   21.7920 C   0  0  0  0  0  2  0  0  0  0  0  0
  -30.5600  -17.3900   20.0860 C   0  0  0  0  0  3  0  0  0  0  0  0
  -29.5500  -17.7750   21.1650 C   0  0  0  0  0  3  0  0  0  0  0  0
  -30.2350  -15.9900   20.4340 N   0  0  0  0  0  0  0  0  0  0  0  0
  -29.8380  -18.5880   15.9620 C   0  0  0  0  0  3  0  0  0  0  0  0
  -28.8050  -17.9800   16.6990 C   0  0  0  0  0  3  0  0  0  0  0  0
  -31.0930  -18.8050   16.5600 C   0  0  0  0  0  3  0  0  0  0  0  0
  -29.0300  -17.5880   18.0310 C   0  0  0  0  0  3  0  0  0  0  0  0
  -31.3180  -18.4050   17.8910 C   0  0  0  0  0  3  0  0  0  0  0  0
  -30.2920  -17.7880   18.6370 C   0  0  0  0  0  0  0  0  0  0  0  0
  -25.5910  -14.2930   20.4500 C   0  0  0  0  0  0  0  0  0  0  0  0
  -24.5360  -13.5060   20.8240 C   0  0  0  0  0  0  0  0  0  0  0  0
  -24.9770  -12.1560   20.6730 C   0  0  0  0  0  0  0  0  0  0  0  0
  -26.6110  -13.4190   20.1020 N   0  0  0  0  0  0  0  0  0  0  0  0
  -26.2480  -12.1260   20.2880 N   0  0  0  0  0  0  0  0  0  0  0  0
  -24.2490  -10.8910   20.8140 C   0  0  0  0  0  0  0  0  0  0  0  0
  -24.6550   -9.9060   21.7410 C   0  0  0  0  0  3  0  0  0  0  0  0
  -23.9290   -8.7030   21.8720 C   0  0  0  0  0  3  0  0  0  0  0  0
  -22.7840   -8.4760   21.0720 C   0  0  0  0  0  0  0  0  0  0  0  0
  -22.3980   -9.4490   20.1340 C   0  0  0  0  0  3  0  0  0  0  0  0
  -23.1260  -10.6440   20.0010 C   0  0  0  0  0  3  0  0  0  0  0  0
  -22.0310   -7.3280   21.1130 O   0  0  0  0  0  0  0  0  0  0  0  0
  -21.8410   -6.6330   22.2820 C   0  0  0  0  0  0  0  0  0  0  0  0
  -21.2530   -7.2320   23.4170 C   0  0  0  0  0  3  0  0  0  0  0  0
  -21.0130   -6.4630   24.5730 C   0  0  0  0  0  3  0  0  0  0  0  0
  -21.3470   -5.0960   24.5920 C   0  0  0  0  0  0  0  0  0  0  0  0
  -21.9270   -4.4960   23.4600 C   0  0  0  0  0  3  0  0  0  0  0  0
  -22.1700   -5.2630   22.3070 C   0  0  0  0  0  0  0  0  0  0  0  0
  -22.7090   -4.6760   21.2120 F   0  0  0  0  0  0  0  0  0  0  0  0
  -21.1100   -4.3550   25.6990 F   0  0  0  0  0  0  0  0  0  0  0  0
  -23.1620  -13.9750   21.2080 C   0  0  0  0  0  0  0  0  0  0  0  0
  -22.4850  -13.2430   22.0860 N   0  0  0  0  0  0  0  0  0  0  0  0
  -22.6970  -15.0260   20.7660 O   0  0  0  0  0  0  0  0  0  0  0  0
  -22.8740  -12.3940   22.4700 H   0  0  0  0  0  0  0  0  0  0  0  0
  -21.5630  -13.5350   22.3780 H   0  0  0  0  0  0  0  0  0  0  0  0
  -25.7620  -15.6710   20.3610 N   0  0  0  0  0  0  0  0  0  0  0  0
  -25.0090  -16.3210   20.5630 H   0  0  0  0  0  0  0  0  0  0  0  0
  -26.6000  -16.1260   20.0240 H   0  0  0  0  0  0  0  0  0  0  0  0
  -29.9100  -21.2370   22.8170 C   0  0  0  0  0  2  0  0  0  0  0  0
  -30.7280  -23.4790   23.6380 C   0  0  0  0  0  1  0  0  0  0  0  0
  -30.3980  -22.6510   22.3760 C   0  0  0  0  0  3  0  0  0  0  0  0
  -29.3830  -23.3940   21.4550 C   0  0  0  0  0  2  0  0  0  0  0  0
  -31.0770  -24.9070   20.2600 C   0  0  0  0  0  1  0  0  0  0  0  0
  -29.7350  -24.8430   21.0120 C   0  0  0  0  0  3  0  0  0  0  0  0
  -28.5900  -25.4380   20.1570 C   0  0  0  0  0  2  0  0  0  0  0  0
  -28.6730  -26.8660   20.0350 O   0  0  0  0  0  0  0  0  0  0  0  0
  -24.5530  -31.7690   23.1050 C   0  0  0  0  0  0  0  0  0  0  0  0
  -27.4660  -27.5380   19.9860 C   0  0  0  0  0  0  0  0  0  0  0  0
  -23.4400  -30.3320   21.4270 C   0  0  0  0  0  3  0  0  0  0  0  0
  -24.9890  -28.9090   19.9840 C   0  0  0  0  0  0  0  0  0  0  0  0
  -25.9420  -30.8390   21.2580 C   0  0  0  0  0  2  0  0  0  0  0  0
  -26.1100  -29.4880   20.5940 C   0  0  0  0  0  0  0  0  0  0  0  0
  -27.3510  -28.8110   20.5880 C   0  0  0  0  0  3  0  0  0  0  0  0
  -26.3270  -26.9800   19.3590 C   0  0  0  0  0  3  0  0  0  0  0  0
  -25.0940  -27.6540   19.3620 C   0  0  0  0  0  3  0  0  0  0  0  0
  -23.6970  -29.6930   20.0370 C   0  0  0  0  0  2  0  0  0  0  0  0
  -24.6620  -30.9950   21.9880 N   0  0  0  0  0  0  0  0  0  0  0  0
  -23.4550  -31.9700   23.6420 O   0  0  0  0  0  0  0  0  0  0  0  0
  -22.8400  -29.2590   22.3640 C   0  0  0  0  0  0  0  0  0  0  0  0
  -21.5280  -29.0050   22.2250 N   0  0  0  0  0  0  0  0  0  0  0  0
  -23.5520  -28.6590   23.1740 O   0  0  0  0  0  0  0  0  0  0  0  0
  -21.0110  -29.5480   21.5460 H   0  0  0  0  0  0  0  0  0  0  0  0
  -18.2140  -27.6510   22.7050 C   0  0  0  0  0  0  0  0  0  0  0  0
  -20.7590  -28.0100   22.9730 C   0  0  0  0  0  3  0  0  0  0  0  0
  -20.9200  -26.6020   22.3540 C   0  0  0  0  0  2  0  0  0  0  0  0
  -19.8270  -26.2620   21.3370 C   0  0  0  0  0  2  0  0  0  0  0  0
  -18.4430  -26.3320   21.9910 C   0  0  0  0  0  2  0  0  0  0  0  0
  -19.3010  -28.4470   23.1530 C   0  0  0  0  0  0  0  0  0  0  0  0
  -19.0340  -29.6840   23.7790 C   0  0  0  0  0  3  0  0  0  0  0  0
  -17.7090  -30.1240   23.9650 C   0  0  0  0  0  3  0  0  0  0  0  0
  -16.6350  -29.3230   23.5360 C   0  0  0  0  0  3  0  0  0  0  0  0
  -16.8890  -28.0900   22.9110 C   0  0  0  0  0  3  0  0  0  0  0  0
  -25.7970  -32.4600   23.7460 C   0  0  0  0  0  3  0  0  0  0  0  0
  -25.4110  -33.8360   24.0880 N   0  0  0  0  0  0  0  0  0  0  0  0
  -25.7100  -34.9130   23.3510 C   0  0  0  0  0  0  0  0  0  0  0  0
  -26.4120  -34.8600   22.3370 O   0  0  0  0  0  0  0  0  0  0  0  0
  -24.7940  -33.9490   24.8780 H   0  0  0  0  0  0  0  0  0  0  0  0
  -23.9160  -36.6300   22.9600 C   0  0  0  0  0  1  0  0  0  0  0  0
  -25.1420  -36.2690   23.8140 C   0  0  0  0  0  3  0  0  0  0  0  0
  -27.1970  -37.2370   24.7450 C   0  0  0  0  0  1  0  0  0  0  0  0
  -26.1280  -37.3710   23.7580 N   0  0  0  0  0  0  0  0  0  0  0  0
  -25.6730  -38.2690   23.9040 H   0  0  0  0  0  0  0  0  0  0  0  0
  -26.3440  -31.7010   25.0160 C   0  0  1  0  0  0  0  0  0  0  0  0
  -25.2490  -31.3520   26.0500 C   0  0  0  0  0  1  0  0  0  0  0  0
  -27.0450  -30.3840   24.6050 C   0  0  0  0  0  1  0  0  0  0  0  0
  -27.4110  -32.5670   25.7260 C   0  0  0  0  0  1  0  0  0  0  0  0
  1  2  1  0
  1 51  1  0
  2  4  1  0
  3  1  2  0
  5 16  1  0
  6 11  1  0
  7  8  1  0
  7  6  1  0
  9  8  1  0
  9 26  1  0
  9 10  1  0
 11  5  1  0
 11 10  1  0
 12  5  2  0
 14 22  1  0
 14 16  1  0
 14 15  1  0
 15 13  1  0
 15  2  1  0
 16 13  1  0
 17 19  2  0
 17 18  1  0
 18 20  2  0
 19 21  1  0
 20 22  1  0
 21 22  2  0
 23 24  2  0
 24 43  1  0
 25 28  1  0
 25 24  1  0
 26 27  1  0
 26 23  1  0
 27 25  2  0
 28 29  1  0
 29 30  2  0
 31 34  1  0
 31 30  1  0
 32 31  2  0
 33 32  1  0
 33 28  2  0
 34 35  1  0
 35 40  2  0
 35 36  1  0
 36 37  2  0
 37 38  1  0
 38 42  1  0
 39 38  2  0
 40 39  1  0
 41 40  1  0
 43 44  1  0
 44 47  1  0
 44 46  1  0
 45 43  2  0
 48 23  1  0
 48 49  1  0
 50 48  1  0
 53 51  1  0
 53 52  1  0
 54 53  1  0
 56 55  1  0
 56 54  1  0
 57 56  1  0
 58 57  1  0
 59 70  2  0
 60 58  1  0
 60 65  1  0
 61 69  1  0
 61 71  1  0
 62 68  1  0
 62 64  1  0
 63 69  1  0
 64 63  1  0
 65 64  2  0
 66 67  1  0
 66 60  2  0
 67 62  2  0
 68 61  1  0
 69 59  1  0
 71 73  2  0
 72 71  1  0
 74 72  1  0
 75 84  2  0
 75 80  1  0
 76 72  1  0
 76 80  1  0
 77 76  1  0
 78 79  1  0
 78 77  1  0
 79 75  1  0
 80 81  2  0
 81 82  1  0
 83 82  2  0
 84 83  1  0
 85 59  1  0
 85 86  1  0
 85 95  1  0
 86 89  1  0
 87 91  1  0
 87 86  1  0
 88 87  2  0
 91 90  1  0
 93 91  1  0
 93 94  1  0
 93 92  1  0
 95 98  1  1
 95 96  1  0
 97 95  1  0
M  ISO  4   5 100  16 100  57 101  58 101
M  END
>  <TORSDO>  (34) 
F 22

>  <SCORE>  (34) 
-10.446

>  <name>  (34) 
33

>  <ligand_id>  (34) 
33

>  <original_smiles>  (34) 
[H]c1c([H])c([H])c(C2([H])N(C(=O)N3C([H])([H])C([H])([H])C([H])([H])C([H])(n4nc(-c5c([H])c([H])c(Oc6c([H])c([H])c(F)c([H])c6F)c([H])c5[H])c(C(=O)N([H])[H])c4N([H])[H])C3([H])[H])C([H])([H])C2([H])N([H])C(=O)C([H])([H])C([H])(C([H])([H])[H])C([H])([H])C([H])(C([H])([H])[H])C([H])([H])Oc2c([H])c([H])c3c(c2[H])C([H])([H])N(C(=O)C([H])(N([H])C(=O)C([H])(N([H])C([H])([H])[H])C([H])([H])[H])C(C([H])([H])[H])(C([H])([H])[H])C([H])([H])[H])C([H])(C(=O)N([H])C2([H])c4c([H])c([H])c([H])c([H])c4C([H])([H])C([H])([H])C2([H])[H])C3([H])[H])c([H])c1[H]

>  <smiles>  (34) 
[H]c1c([H])c([H])c(C2([H])N(C(=O)N3C([H])([H])C([H])([H])C([H])([H])C([H])(n4nc(-c5c([H])c([H])c(Oc6c([H])c([H])c(F)c([H])c6F)c([H])c5[H])c(C(=O)N([H])[H])c4N([H])[H])C3([H])[H])C([H])([H])C2([H])N([H])C(=O)C([H])([H])C([H])(C([H])([H])[H])C([H])([H])C([H])(C([H])([H])[H])C([H])([H])Oc2c([H])c([H])c3c(c2[H])C([H])([H])N(C(=O)C([H])(N([H])C(=O)C([H])(N([H])C([H])([H])[H])C([H])([H])[H])C(C([H])([H])[H])(C([H])([H])[H])C([H])([H])[H])C([H])(C(=O)N([H])C2([H])c4c([H])c([H])c([H])c([H])c4C([H])([H])C([H])([H])C2([H])[H])C3([H])[H])c([H])c1[H]

$$$$
34:0:0
     RDKit          3D

 99107  0  0  1  0  0  0  0  0999 V2000
  -31.8370  -19.8310   20.8400 C   0  0  0  0  0  2  0  0  0  0  0  0
  -31.4600  -19.7060   22.2950 C   0  0  0  0  0  3  0  0  0  0  0  0
  -30.3630  -19.6010   21.2200 C   0  0  1  0  0  0  0  0  0  0  0  0
  -31.5790  -20.9580   23.0870 N   0  0  0  0  0  4  0  0  0  0  0  0
  -30.9540  -20.9350   23.8740 H   0  0  0  0  0  0  0  0  0  0  0  0
  -31.3950  -21.7930   22.5630 H   0  0  0  0  0  0  0  0  0  0  0  0
  -32.5040  -21.0380   23.4720 H   0  0  0  0  0  0  0  0  0  0  0  0
  -29.4060  -20.7880   21.0480 C   0  0  0  0  0  0  0  0  0  0  0  0
  -29.8400  -21.8610   20.3480 N   0  0  0  0  0  0  0  0  0  0  0  0
  -28.2580  -20.7370   21.4920 O   0  0  0  0  0  0  0  0  0  0  0  0
  -30.7770  -21.8140   19.9650 H   0  0  0  0  0  0  0  0  0  0  0  0
  -28.9680  -22.9310   19.8240 C   0  0  0  0  0  2  0  0  0  0  0  0
  -29.4910  -24.3940   19.9590 C   0  0  0  0  0  2  0  0  0  0  0  0
  -28.4440  -25.3980   19.3980 C   0  0  0  0  0  2  0  0  0  0  0  0
  -28.5970  -26.8070   19.6980 O   0  0  0  0  0  0  0  0  0  0  0  0
  -24.5490  -31.6340   23.0650 C   0  0  0  0  0  0  0  0  0  0  0  0
  -27.4180  -27.5450   19.6810 C   0  0  0  0  0  0  0  0  0  0  0  0
  -23.4250  -30.3110   21.3070 C   0  0  0  0  0  3  0  0  0  0  0  0
  -24.9590  -28.9690   19.7780 C   0  0  0  0  0  0  0  0  0  0  0  0
  -25.9370  -30.7970   21.1650 C   0  0  0  0  0  2  0  0  0  0  0  0
  -26.0930  -29.4860   20.4150 C   0  0  0  0  0  0  0  0  0  0  0  0
  -27.3270  -28.7870   20.3590 C   0  0  0  0  0  3  0  0  0  0  0  0
  -26.2610  -27.0680   19.0170 C   0  0  0  0  0  3  0  0  0  0  0  0
  -25.0430  -27.7630   19.0650 C   0  0  0  0  0  3  0  0  0  0  0  0
  -23.6760  -29.7590   19.8820 C   0  0  0  0  0  2  0  0  0  0  0  0
  -24.6560  -30.9240   21.9060 N   0  0  0  0  0  0  0  0  0  0  0  0
  -23.4520  -31.8130   23.6130 O   0  0  0  0  0  0  0  0  0  0  0  0
  -22.8170  -29.1860   22.1760 C   0  0  0  0  0  0  0  0  0  0  0  0
  -21.4940  -28.9830   22.0580 N   0  0  0  0  0  0  0  0  0  0  0  0
  -23.5300  -28.5030   22.9170 O   0  0  0  0  0  0  0  0  0  0  0  0
  -20.9730  -29.5880   21.4380 H   0  0  0  0  0  0  0  0  0  0  0  0
  -18.1520  -27.7050   22.5600 C   0  0  0  0  0  0  0  0  0  0  0  0
  -20.7190  -27.9560   22.7540 C   0  0  0  0  0  3  0  0  0  0  0  0
  -20.8030  -26.5990   22.0190 C   0  0  0  0  0  2  0  0  0  0  0  0
  -19.6630  -26.3800   21.0200 C   0  0  0  0  0  2  0  0  0  0  0  0
  -18.3070  -26.4390   21.7330 C   0  0  0  0  0  2  0  0  0  0  0  0
  -19.2840  -28.4240   23.0260 C   0  0  0  0  0  0  0  0  0  0  0  0
  -19.0840  -29.6130   23.7610 C   0  0  0  0  0  3  0  0  0  0  0  0
  -17.7860  -30.0810   24.0340 C   0  0  0  0  0  3  0  0  0  0  0  0
  -16.6680  -29.3560   23.5850 C   0  0  0  0  0  3  0  0  0  0  0  0
  -16.8530  -28.1690   22.8520 C   0  0  0  0  0  3  0  0  0  0  0  0
  -25.7990  -32.2750   23.7430 C   0  0  0  0  0  3  0  0  0  0  0  0
  -26.2820  -31.4910   25.0240 C   0  0  1  0  0  0  0  0  0  0  0  0
  -25.1600  -31.2200   26.0500 C   0  0  0  0  0  1  0  0  0  0  0  0
  -26.8960  -30.1280   24.6290 C   0  0  0  0  0  1  0  0  0  0  0  0
  -27.3990  -32.2900   25.7370 C   0  0  0  0  0  1  0  0  0  0  0  0
  -25.4570  -33.6620   24.0830 N   0  0  0  0  0  0  0  0  0  0  0  0
  -25.7760  -34.7290   23.3370 C   0  0  0  0  0  0  0  0  0  0  0  0
  -26.4630  -34.6490   22.3150 O   0  0  0  0  0  0  0  0  0  0  0  0
  -24.8470  -33.7970   24.8760 H   0  0  0  0  0  0  0  0  0  0  0  0
  -24.0040  -36.4750   22.9820 C   0  0  0  0  0  1  0  0  0  0  0  0
  -25.2500  -36.1000   23.7990 C   0  0  0  0  0  3  0  0  0  0  0  0
  -27.3490  -37.0410   24.6520 C   0  0  0  0  0  1  0  0  0  0  0  0
  -26.2530  -37.1800   23.6980 N   0  0  0  0  0  0  0  0  0  0  0  0
  -25.8200  -38.0870   23.8410 H   0  0  0  0  0  0  0  0  0  0  0  0
  -29.6810  -18.1800   21.1080 C   0  0  0  0  0  3  0  0  0  0  0  0
  -28.4620  -18.1410   20.2700 N   0  0  0  0  0  4  0  0  0  0  0  0
  -28.6710  -18.2630   19.2950 H   0  0  0  0  0  0  0  0  0  0  0  0
  -27.8560  -18.8930   20.5700 H   0  0  0  0  0  0  0  0  0  0  0  0
  -27.9570  -17.2820   20.3940 H   0  0  0  0  0  0  0  0  0  0  0  0
  -30.6690  -17.0320   20.7120 C   0  0  0  0  0  2  0  0  0  0  0  0
  -30.8120  -14.6250   20.1700 C   0  0  0  0  0  0  0  0  0  0  0  0
  -30.4860  -12.4540   19.0550 C   0  0  0  0  0  2  0  0  0  0  0  0
  -29.5060  -12.6400   17.8790 C   0  0  0  0  0  2  0  0  0  0  0  0
  -28.0500  -12.4880   18.3600 C   0  0  0  0  0  2  0  0  0  0  0  0
  -27.7500  -13.3350   19.6260 C   0  0  0  0  0  3  0  0  0  0  0  0
  -28.8430  -13.1350   20.7010 C   0  0  0  0  0  2  0  0  0  0  0  0
  -30.1430  -13.4450   20.0860 N   0  0  0  0  0  0  0  0  0  0  0  0
  -31.8880  -14.8230   19.5960 O   0  0  0  0  0  0  0  0  0  0  0  0
  -30.1770  -15.6400   20.7920 N   0  0  0  0  0  0  0  0  0  0  0  0
  -29.3520  -15.4140   21.3260 H   0  0  0  0  0  0  0  0  0  0  0  0
  -25.3860  -13.9340   20.4480 C   0  0  0  0  0  0  0  0  0  0  0  0
  -24.3340  -13.1600   20.8570 C   0  0  0  0  0  0  0  0  0  0  0  0
  -24.7850  -11.8070   20.7720 C   0  0  0  0  0  0  0  0  0  0  0  0
  -26.4160  -13.0540   20.1540 N   0  0  0  0  0  0  0  0  0  0  0  0
  -26.0590  -11.7680   20.4030 N   0  0  0  0  0  0  0  0  0  0  0  0
  -24.0630  -10.5440   20.9710 C   0  0  0  0  0  0  0  0  0  0  0  0
  -24.5140   -9.5740   21.8950 C   0  0  0  0  0  3  0  0  0  0  0  0
  -23.7970   -8.3730   22.0800 C   0  0  0  0  0  3  0  0  0  0  0  0
  -22.6130   -8.1320   21.3410 C   0  0  0  0  0  0  0  0  0  0  0  0
  -22.1810   -9.0900   20.4070 C   0  0  0  0  0  3  0  0  0  0  0  0
  -22.8990  -10.2830   20.2210 C   0  0  0  0  0  3  0  0  0  0  0  0
  -21.8650   -6.9840   21.4370 O   0  0  0  0  0  0  0  0  0  0  0  0
  -21.7990   -6.2630   22.6020 C   0  0  0  0  0  0  0  0  0  0  0  0
  -21.3330   -6.8340   23.8070 C   0  0  0  0  0  3  0  0  0  0  0  0
  -21.2150   -6.0370   24.9630 C   0  0  0  0  0  3  0  0  0  0  0  0
  -21.5540   -4.6710   24.9160 C   0  0  0  0  0  0  0  0  0  0  0  0
  -22.0150   -4.1010   23.7160 C   0  0  0  0  0  3  0  0  0  0  0  0
  -22.1340   -4.8950   22.5620 C   0  0  0  0  0  0  0  0  0  0  0  0
  -22.5570   -4.3350   21.4030 F   0  0  0  0  0  0  0  0  0  0  0  0
  -21.4350   -3.9050   26.0250 F   0  0  0  0  0  0  0  0  0  0  0  0
  -22.9520  -13.6360   21.2040 C   0  0  0  0  0  0  0  0  0  0  0  0
  -22.2640  -12.9290   22.0920 N   0  0  0  0  0  0  0  0  0  0  0  0
  -22.4950  -14.6690   20.7180 O   0  0  0  0  0  0  0  0  0  0  0  0
  -22.6480  -12.0900   22.5020 H   0  0  0  0  0  0  0  0  0  0  0  0
  -21.3380  -13.2300   22.3650 H   0  0  0  0  0  0  0  0  0  0  0  0
  -25.5510  -15.3070   20.2790 N   0  0  0  0  0  0  0  0  0  0  0  0
  -24.7250  -15.8930   20.3090 H   0  0  0  0  0  0  0  0  0  0  0  0
  -26.2380  -15.6390   19.6170 H   0  0  0  0  0  0  0  0  0  0  0  0
  1  3  1  0
  1  2  1  0
  2  4  1  0
  3  8  1  0
  3  2  1  0
  4  7  1  0
  4  5  1  0
  6  4  1  0
  8 10  2  0
  9  8  1  0
 11  9  1  0
 12 13  1  0
 12  9  1  0
 14 15  1  0
 14 13  1  0
 16 27  2  0
 17 15  1  0
 17 22  1  0
 18 26  1  0
 18 28  1  0
 19 25  1  0
 19 21  1  0
 20 26  1  0
 21 20  1  0
 22 21  2  0
 23 24  1  0
 23 17  2  0
 24 19  2  0
 25 18  1  0
 26 16  1  0
 28 30  2  0
 29 28  1  0
 31 29  1  0
 32 41  2  0
 32 37  1  0
 33 29  1  0
 33 37  1  0
 34 33  1  0
 35 36  1  0
 35 34  1  0
 36 32  1  0
 37 38  2  0
 38 39  1  0
 40 39  2  0
 41 40  1  0
 42 16  1  0
 42 47  1  0
 42 43  1  0
 43 46  1  1
 43 44  1  0
 45 43  1  0
 47 50  1  0
 48 52  1  0
 48 47  1  0
 49 48  2  0
 52 51  1  0
 54 52  1  0
 54 55  1  0
 54 53  1  0
 56 61  1  0
  3 56  1  6
 57 60  1  0
 57 59  1  0
 57 56  1  0
 58 57  1  0
 61 70  1  0
 62 70  1  0
 63 68  1  0
 64 65  1  0
 64 63  1  0
 66 65  1  0
 66 75  1  0
 66 67  1  0
 68 62  1  0
 68 67  1  0
 69 62  2  0
 70 71  1  0
 72 73  2  0
 73 92  1  0
 74 73  1  0
 74 77  1  0
 75 76  1  0
 75 72  1  0
 76 74  2  0
 77 78  1  0
 78 79  2  0
 80 83  1  0
 80 79  1  0
 81 80  2  0
 82 81  1  0
 82 77  2  0
 83 84  1  0
 84 85  1  0
 85 86  2  0
 87 86  1  0
 87 91  1  0
 88 87  2  0
 89 84  2  0
 89 88  1  0
 90 89  1  0
 92 93  1  0
 93 96  1  0
 93 95  1  0
 94 92  2  0
 97 98  1  0
 97 72  1  0
 99 97  1  0
M  ISO  4  14 101  15 101  62 100  70 100
M  END
>  <TORSDO>  (35) 
F 24

>  <SCORE>  (35) 
-12.287

>  <name>  (35) 
34

>  <ligand_id>  (35) 
34

>  <original_smiles>  (35) 
[H]c1c([H])c([H])c2c(c1[H])C([H])([H])C([H])([H])C([H])([H])C2([H])N([H])C(=O)C1([H])N(C(=O)C([H])(N([H])C(=O)C([H])(N([H])C([H])([H])[H])C([H])([H])[H])C(C([H])([H])[H])(C([H])([H])[H])C([H])([H])[H])C([H])([H])c2c([H])c(OC([H])([H])C([H])([H])C([H])([H])N([H])C(=O)C3(C([H])(C([H])([H])N([H])C(=O)N4C([H])([H])C([H])([H])C([H])([H])C([H])(n5nc(-c6c([H])c([H])c(Oc7c([H])c([H])c(F)c([H])c7F)c([H])c6[H])c(C(=O)N([H])[H])c5N([H])[H])C4([H])[H])[N+]([H])([H])[H])C([H])([H])C3([H])[N+]([H])([H])[H])c([H])c([H])c2C1([H])[H]

>  <smiles>  (35) 
[H]c1c([H])c([H])c2c(c1[H])C([H])([H])C([H])([H])C([H])([H])C2([H])N([H])C(=O)C1([H])N(C(=O)C([H])(N([H])C(=O)C([H])(N([H])C([H])([H])[H])C([H])([H])[H])C(C([H])([H])[H])(C([H])([H])[H])C([H])([H])[H])C([H])([H])c2c([H])c(OC([H])([H])C([H])([H])C([H])([H])N([H])C(=O)C3(C([H])(C([H])([H])N([H])C(=O)N4C([H])([H])C([H])([H])C([H])([H])C([H])(n5nc(-c6c([H])c([H])c(Oc7c([H])c([H])c(F)c([H])c7F)c([H])c6[H])c(C(=O)N([H])[H])c5N([H])[H])C4([H])[H])[N+]([H])([H])[H])C([H])([H])C3([H])[N+]([H])([H])[H])c([H])c([H])c2C1([H])[H]

$$$$
35:0:0
     RDKit          3D

 95103  0  0  1  0  0  0  0  0999 V2000
  -29.3750  -23.1910   19.2010 C   0  0  0  0  0  0  0  0  0  0  0  0
  -29.5340  -22.8060   21.6450 C   0  0  0  0  0  2  0  0  0  0  0  0
  -29.2420  -21.0030   20.4850 C   0  0  0  0  0  3  0  0  0  0  0  0
  -29.2790  -21.3310   21.9960 C   0  0  0  0  0  3  0  0  0  0  0  0
  -29.7640  -22.3670   20.2770 N   0  0  0  0  0  0  0  0  0  0  0  0
  -28.7550  -22.7230   18.2450 O   0  0  0  0  0  0  0  0  0  0  0  0
  -27.9930  -21.1040   22.6950 N   0  0  0  0  0  4  0  0  0  0  0  0
  -27.2260  -21.5450   22.2220 H   0  0  0  0  0  0  0  0  0  0  0  0
  -28.0370  -21.4730   23.6280 H   0  0  0  0  0  0  0  0  0  0  0  0
  -27.7900  -20.1250   22.7720 H   0  0  0  0  0  0  0  0  0  0  0  0
  -30.2960  -18.6830   20.7290 C   0  0  0  0  0  3  0  0  0  0  0  0
  -30.1600  -19.8460   20.0290 C   0  0  0  0  0  0  0  0  0  0  0  0
  -30.8820  -20.1240   18.7130 C   0  0  0  0  0  1  0  0  0  0  0  0
  -31.2260  -17.5030   20.4040 C   0  0  0  0  0  2  0  0  0  0  0  0
  -31.4090  -15.0460   20.3410 C   0  0  0  0  0  0  0  0  0  0  0  0
  -31.0930  -12.8590   19.2610 C   0  0  0  0  0  2  0  0  0  0  0  0
  -30.1720  -13.0520   18.0380 C   0  0  0  0  0  2  0  0  0  0  0  0
  -28.6880  -12.9530   18.4490 C   0  0  0  0  0  2  0  0  0  0  0  0
  -28.3480  -13.8070   19.6980 C   0  0  0  0  0  3  0  0  0  0  0  0
  -29.3920  -13.6130   20.8220 C   0  0  0  0  0  2  0  0  0  0  0  0
  -30.7190  -13.8790   20.2540 N   0  0  0  0  0  0  0  0  0  0  0  0
  -32.5740  -15.1590   19.9540 O   0  0  0  0  0  0  0  0  0  0  0  0
  -30.6920  -16.1500   20.6450 N   0  0  0  0  0  0  0  0  0  0  0  0
  -29.7200  -16.0350   20.8900 H   0  0  0  0  0  0  0  0  0  0  0  0
  -25.9550  -14.4360   20.4060 C   0  0  0  0  0  0  0  0  0  0  0  0
  -24.8740  -13.6730   20.7570 C   0  0  0  0  0  0  0  0  0  0  0  0
  -25.3180  -12.3150   20.7050 C   0  0  0  0  0  0  0  0  0  0  0  0
  -26.9890  -13.5450   20.1680 N   0  0  0  0  0  0  0  0  0  0  0  0
  -26.6090  -12.2620   20.4040 N   0  0  0  0  0  0  0  0  0  0  0  0
  -24.5720  -11.0620   20.8660 C   0  0  0  0  0  0  0  0  0  0  0  0
  -24.8950  -10.1350   21.8820 C   0  0  0  0  0  3  0  0  0  0  0  0
  -24.1510   -8.9430   22.0260 C   0  0  0  0  0  3  0  0  0  0  0  0
  -23.0690   -8.6720   21.1550 C   0  0  0  0  0  0  0  0  0  0  0  0
  -22.7640   -9.5890   20.1330 C   0  0  0  0  0  3  0  0  0  0  0  0
  -23.5090  -10.7700   19.9860 C   0  0  0  0  0  3  0  0  0  0  0  0
  -22.3020   -7.5320   21.2080 O   0  0  0  0  0  0  0  0  0  0  0  0
  -21.9890   -6.9290   22.4010 C   0  0  0  0  0  0  0  0  0  0  0  0
  -21.2650   -7.6010   23.4080 C   0  0  0  0  0  3  0  0  0  0  0  0
  -20.9040   -6.9210   24.5890 C   0  0  0  0  0  3  0  0  0  0  0  0
  -21.2570   -5.5680   24.7590 C   0  0  0  0  0  0  0  0  0  0  0  0
  -21.9750   -4.8960   23.7550 C   0  0  0  0  0  3  0  0  0  0  0  0
  -22.3370   -5.5740   22.5780 C   0  0  0  0  0  0  0  0  0  0  0  0
  -23.0110   -4.9150   21.6040 F   0  0  0  0  0  0  0  0  0  0  0  0
  -20.9050   -4.9120   25.8890 F   0  0  0  0  0  0  0  0  0  0  0  0
  -23.4840  -14.1650   21.0310 C   0  0  0  0  0  0  0  0  0  0  0  0
  -22.7480  -13.4730   21.8950 N   0  0  0  0  0  0  0  0  0  0  0  0
  -23.0570  -15.2000   20.5200 O   0  0  0  0  0  0  0  0  0  0  0  0
  -21.8160  -13.7860   22.1270 H   0  0  0  0  0  0  0  0  0  0  0  0
  -23.1060  -12.6400   22.3380 H   0  0  0  0  0  0  0  0  0  0  0  0
  -26.1410  -15.8070   20.2500 N   0  0  0  0  0  0  0  0  0  0  0  0
  -25.3780  -16.4710   20.3300 H   0  0  0  0  0  0  0  0  0  0  0  0
  -27.0010  -16.2320   19.9280 H   0  0  0  0  0  0  0  0  0  0  0  0
  -29.6930  -24.7090   19.2540 C   0  0  0  0  0  2  0  0  0  0  0  0
  -28.4240  -25.5870   19.1110 C   0  0  0  0  0  2  0  0  0  0  0  0
  -28.5380  -26.9890   19.4750 O   0  0  0  0  0  0  0  0  0  0  0  0
  -24.5470  -31.6980   23.1200 C   0  0  0  0  0  0  0  0  0  0  0  0
  -27.3400  -27.6910   19.5600 C   0  0  0  0  0  0  0  0  0  0  0  0
  -23.3760  -30.3710   21.3990 C   0  0  0  0  0  3  0  0  0  0  0  0
  -24.8660  -29.0710   19.7950 C   0  0  0  0  0  0  0  0  0  0  0  0
  -25.8750  -30.8940   21.1670 C   0  0  0  0  0  2  0  0  0  0  0  0
  -26.0190  -29.5960   20.3930 C   0  0  0  0  0  0  0  0  0  0  0  0
  -27.2580  -28.9150   20.2720 C   0  0  0  0  0  3  0  0  0  0  0  0
  -26.1560  -27.1980   18.9550 C   0  0  0  0  0  3  0  0  0  0  0  0
  -24.9320  -27.8730   19.0750 C   0  0  0  0  0  3  0  0  0  0  0  0
  -23.5770  -29.8430   19.9570 C   0  0  0  0  0  2  0  0  0  0  0  0
  -24.6170  -30.9980   21.9520 N   0  0  0  0  0  0  0  0  0  0  0  0
  -23.4700  -31.8490   23.7130 O   0  0  0  0  0  0  0  0  0  0  0  0
  -22.8270  -29.2220   22.2780 C   0  0  0  0  0  0  0  0  0  0  0  0
  -21.5260  -28.9230   22.1300 N   0  0  0  0  0  0  0  0  0  0  0  0
  -23.5680  -28.6090   23.0500 O   0  0  0  0  0  0  0  0  0  0  0  0
  -20.9840  -29.4790   21.4820 H   0  0  0  0  0  0  0  0  0  0  0  0
  -18.2930  -27.3480   22.4940 C   0  0  0  0  0  0  0  0  0  0  0  0
  -20.8040  -27.8610   22.8320 C   0  0  0  0  0  3  0  0  0  0  0  0
  -21.0680  -26.4830   22.1800 C   0  0  0  0  0  2  0  0  0  0  0  0
  -20.0210  -26.1040   21.1270 C   0  0  0  0  0  2  0  0  0  0  0  0
  -18.6230  -26.0650   21.7510 C   0  0  0  0  0  2  0  0  0  0  0  0
  -19.3170  -28.1980   22.9900 C   0  0  0  0  0  0  0  0  0  0  0  0
  -18.9540  -29.3970   23.6430 C   0  0  0  0  0  3  0  0  0  0  0  0
  -17.6000  -29.7450   23.8080 C   0  0  0  0  0  3  0  0  0  0  0  0
  -16.5920  -28.8920   23.3290 C   0  0  0  0  0  3  0  0  0  0  0  0
  -16.9390  -27.6950   22.6780 C   0  0  0  0  0  3  0  0  0  0  0  0
  -25.8120  -32.3580   23.7500 C   0  0  0  0  0  3  0  0  0  0  0  0
  -25.4440  -33.7240   24.1470 N   0  0  0  0  0  0  0  0  0  0  0  0
  -25.6700  -34.8170   23.4060 C   0  0  0  0  0  0  0  0  0  0  0  0
  -26.2830  -34.7860   22.3360 O   0  0  0  0  0  0  0  0  0  0  0  0
  -24.8890  -33.8160   24.9840 H   0  0  0  0  0  0  0  0  0  0  0  0
  -23.8020  -36.4920   23.2370 C   0  0  0  0  0  1  0  0  0  0  0  0
  -25.1290  -36.1580   23.9370 C   0  0  0  0  0  3  0  0  0  0  0  0
  -27.2520  -37.1750   24.6340 C   0  0  0  0  0  1  0  0  0  0  0  0
  -26.0770  -37.2800   23.7730 N   0  0  0  0  0  0  0  0  0  0  0  0
  -25.6210  -38.1680   23.9680 H   0  0  0  0  0  0  0  0  0  0  0  0
  -26.3820  -31.5550   24.9830 C   0  0  1  0  0  0  0  0  0  0  0  0
  -25.3140  -31.2200   26.0500 C   0  0  0  0  0  1  0  0  0  0  0  0
  -27.0240  -30.2250   24.5250 C   0  0  0  0  0  1  0  0  0  0  0  0
  -27.5020  -32.3720   25.6680 C   0  0  0  0  0  1  0  0  0  0  0  0
  1 53  1  0
  1  5  1  0
  2  4  1  0
  3 12  1  0
  3  4  1  0
  4  7  1  0
  5  3  1  0
  5  2  1  0
  6  1  2  0
  7 10  1  0
  7  9  1  0
  8  7  1  0
 12 11  2  0
 13 12  1  0
 14 23  1  0
 14 11  1  0
 15 23  1  0
 16 21  1  0
 17 18  1  0
 17 16  1  0
 19 18  1  0
 19 28  1  0
 19 20  1  0
 21 15  1  0
 21 20  1  0
 22 15  2  0
 23 24  1  0
 25 26  2  0
 26 45  1  0
 27 26  1  0
 27 30  1  0
 28 29  1  0
 28 25  1  0
 29 27  2  0
 30 31  1  0
 31 32  2  0
 33 36  1  0
 33 32  1  0
 34 33  2  0
 35 34  1  0
 35 30  2  0
 36 37  1  0
 37 42  2  0
 37 38  1  0
 38 39  2  0
 39 40  1  0
 40 44  1  0
 41 40  2  0
 42 41  1  0
 43 42  1  0
 45 46  1  0
 46 48  1  0
 46 49  1  0
 47 45  2  0
 50 51  1  0
 50 25  1  0
 52 50  1  0
 54 53  1  0
 54 55  1  0
 55 57  1  0
 56 67  2  0
 57 62  1  0
 58 66  1  0
 58 68  1  0
 59 65  1  0
 59 61  1  0
 60 66  1  0
 61 60  1  0
 62 61  2  0
 63 64  1  0
 63 57  2  0
 64 59  2  0
 65 58  1  0
 66 56  1  0
 68 70  2  0
 69 68  1  0
 71 69  1  0
 72 81  2  0
 72 77  1  0
 73 69  1  0
 73 77  1  0
 74 73  1  0
 75 76  1  0
 75 74  1  0
 76 72  1  0
 77 78  2  0
 78 79  1  0
 80 79  2  0
 81 80  1  0
 82 56  1  0
 82 83  1  0
 82 92  1  0
 83 86  1  0
 84 88  1  0
 84 83  1  0
 85 84  2  0
 88 87  1  0
 90 88  1  0
 90 91  1  0
 90 89  1  0
 92 95  1  1
 92 93  1  0
 94 92  1  0
M  ISO  4  15 100  23 100  54 101  55 101
M  END
>  <TORSDO>  (36) 
F 21

>  <SCORE>  (36) 
-10.575

>  <name>  (36) 
35

>  <ligand_id>  (36) 
35

>  <original_smiles>  (36) 
[H]C(=C(C([H])([H])[H])C1([H])N(C(=O)C([H])([H])C([H])([H])Oc2c([H])c([H])c3c(c2[H])C([H])([H])N(C(=O)C([H])(N([H])C(=O)C([H])(N([H])C([H])([H])[H])C([H])([H])[H])C(C([H])([H])[H])(C([H])([H])[H])C([H])([H])[H])C([H])(C(=O)N([H])C2([H])c4c([H])c([H])c([H])c([H])c4C([H])([H])C([H])([H])C2([H])[H])C3([H])[H])C([H])([H])C1([H])[N+]([H])([H])[H])C([H])([H])N([H])C(=O)N1C([H])([H])C([H])([H])C([H])([H])C([H])(n2nc(-c3c([H])c([H])c(Oc4c([H])c([H])c(F)c([H])c4F)c([H])c3[H])c(C(=O)N([H])[H])c2N([H])[H])C1([H])[H]

>  <smiles>  (36) 
[H]C(=C(C([H])([H])[H])C1([H])N(C(=O)C([H])([H])C([H])([H])Oc2c([H])c([H])c3c(c2[H])C([H])([H])N(C(=O)C([H])(N([H])C(=O)C([H])(N([H])C([H])([H])[H])C([H])([H])[H])C(C([H])([H])[H])(C([H])([H])[H])C([H])([H])[H])C([H])(C(=O)N([H])C2([H])c4c([H])c([H])c([H])c([H])c4C([H])([H])C([H])([H])C2([H])[H])C3([H])[H])C([H])([H])C1([H])[N+]([H])([H])[H])C([H])([H])N([H])C(=O)N1C([H])([H])C([H])([H])C([H])([H])C([H])(n2nc(-c3c([H])c([H])c(Oc4c([H])c([H])c(F)c([H])c4F)c([H])c3[H])c(C(=O)N([H])[H])c2N([H])[H])C1([H])[H]

$$$$
36:0:0
     RDKit          3D

 95104  0  0  1  0  0  0  0  0999 V2000
  -30.8460  -21.6920   18.7140 C   0  0  0  0  0  0  0  0  0  0  0  0
  -30.9780  -22.6880   19.8970 C   0  0  0  0  0  2  0  0  0  0  0  0
  -29.6970  -20.9870   19.4650 C   0  0  0  0  0  3  0  0  0  0  0  0
  -29.5750  -22.3470   20.2430 N   0  0  0  0  0  0  0  0  0  0  0  0
  -31.4170  -21.5370   17.6300 O   0  0  0  0  0  0  0  0  0  0  0  0
  -30.7340  -14.7270   19.5450 C   0  0  0  0  0  0  0  0  0  0  0  0
  -30.3780  -12.5780   18.2410 C   0  0  0  0  0  2  0  0  0  0  0  0
  -29.2280  -12.7300   17.2060 C   0  0  0  0  0  2  0  0  0  0  0  0
  -27.8300  -12.5420   17.8390 C   0  0  0  0  0  2  0  0  0  0  0  0
  -27.6980  -13.2910   19.1880 C   0  0  0  0  0  3  0  0  0  0  0  0
  -28.9110  -12.9390   20.0660 C   0  0  0  0  0  2  0  0  0  0  0  0
  -30.1160  -13.4800   19.4010 N   0  0  0  0  0  0  0  0  0  0  0  0
  -31.6970  -15.0090   18.8150 O   0  0  0  0  0  0  0  0  0  0  0  0
  -30.0700  -17.2050   20.6490 C   0  0  0  0  0  3  0  0  0  0  0  0
  -30.2490  -19.6900   20.2080 C   0  0  0  0  0  0  0  0  0  0  0  0
  -29.5450  -17.4980   22.0470 C   0  0  0  0  0  2  0  0  0  0  0  0
  -30.0270  -16.3310   22.8630 C   0  0  0  0  0  2  0  0  0  0  0  0
  -29.8300  -15.2350   21.8550 C   0  0  0  0  0  2  0  0  0  0  0  0
  -30.1740  -15.7790   20.5210 N   0  0  0  0  0  0  0  0  0  0  0  0
  -30.9040  -20.0420   21.3330 N   0  0  0  0  0  4  0  0  0  0  0  0
  -30.1650  -18.3290   19.7970 N   0  0  0  0  0  0  0  0  0  0  0  0
  -30.8180  -21.0050   21.6290 H   0  0  0  0  0  0  0  0  0  0  0  0
  -31.5290  -19.4340   21.8370 H   0  0  0  0  0  0  0  0  0  0  0  0
  -30.0680  -18.1710   18.8070 H   0  0  0  0  0  0  0  0  0  0  0  0
  -25.4880  -13.9000   20.3520 C   0  0  0  0  0  0  0  0  0  0  0  0
  -24.4640  -13.1320   20.8320 C   0  0  0  0  0  0  0  0  0  0  0  0
  -24.8530  -11.7740   20.6130 C   0  0  0  0  0  0  0  0  0  0  0  0
  -26.4360  -13.0090   19.8670 N   0  0  0  0  0  0  0  0  0  0  0  0
  -26.0680  -11.7210   20.0810 N   0  0  0  0  0  0  0  0  0  0  0  0
  -24.1130  -10.5260   20.8270 C   0  0  0  0  0  0  0  0  0  0  0  0
  -24.6000   -9.5200   21.6920 C   0  0  0  0  0  3  0  0  0  0  0  0
  -23.8650   -8.3320   21.8940 C   0  0  0  0  0  3  0  0  0  0  0  0
  -22.6280   -8.1430   21.2310 C   0  0  0  0  0  0  0  0  0  0  0  0
  -22.1590   -9.1370   20.3540 C   0  0  0  0  0  3  0  0  0  0  0  0
  -22.8960  -10.3170   20.1500 C   0  0  0  0  0  3  0  0  0  0  0  0
  -21.8550   -7.0140   21.3470 O   0  0  0  0  0  0  0  0  0  0  0  0
  -21.8010   -6.2920   22.5110 C   0  0  0  0  0  0  0  0  0  0  0  0
  -21.3950   -6.8780   23.7310 C   0  0  0  0  0  3  0  0  0  0  0  0
  -21.2880   -6.0860   24.8910 C   0  0  0  0  0  3  0  0  0  0  0  0
  -21.5780   -4.7100   24.8370 C   0  0  0  0  0  0  0  0  0  0  0  0
  -21.9760   -4.1230   23.6240 C   0  0  0  0  0  3  0  0  0  0  0  0
  -22.0850   -4.9120   22.4650 C   0  0  0  0  0  0  0  0  0  0  0  0
  -22.4490   -4.3370   21.2940 F   0  0  0  0  0  0  0  0  0  0  0  0
  -21.4650   -3.9490   25.9510 F   0  0  0  0  0  0  0  0  0  0  0  0
  -23.1520  -13.6270   21.3710 C   0  0  0  0  0  0  0  0  0  0  0  0
  -22.5650  -12.9030   22.3150 N   0  0  0  0  0  0  0  0  0  0  0  0
  -22.6640  -14.6890   20.9900 O   0  0  0  0  0  0  0  0  0  0  0  0
  -22.9710  -12.0390   22.6440 H   0  0  0  0  0  0  0  0  0  0  0  0
  -21.6930  -13.2190   22.7150 H   0  0  0  0  0  0  0  0  0  0  0  0
  -25.6830  -15.2780   20.2670 N   0  0  0  0  0  0  0  0  0  0  0  0
  -24.9710  -15.9280   20.5840 H   0  0  0  0  0  0  0  0  0  0  0  0
  -26.4030  -15.7240   19.7140 H   0  0  0  0  0  0  0  0  0  0  0  0
  -28.7040  -23.5230   19.7580 C   0  0  0  0  0  2  0  0  0  0  0  0
  -28.5400  -24.8570   20.6970 C   0  0  0  0  0  2  0  0  0  0  0  0
  -28.6070  -26.2960   20.2420 O   0  0  0  0  0  0  0  0  0  0  0  0
  -24.5790  -31.7070   23.0410 C   0  0  0  0  0  0  0  0  0  0  0  0
  -27.4570  -27.1210   20.2170 C   0  0  0  0  0  0  0  0  0  0  0  0
  -23.4870  -30.2330   21.3920 C   0  0  0  0  0  3  0  0  0  0  0  0
  -25.0440  -28.6800   20.0700 C   0  0  0  0  0  0  0  0  0  0  0  0
  -26.0230  -30.6170   21.3000 C   0  0  0  0  0  2  0  0  0  0  0  0
  -26.1760  -29.2190   20.6960 C   0  0  0  0  0  0  0  0  0  0  0  0
  -27.3880  -28.4550   20.7490 C   0  0  0  0  0  3  0  0  0  0  0  0
  -26.2990  -26.6380   19.5750 C   0  0  0  0  0  3  0  0  0  0  0  0
  -25.1120  -27.3980   19.5000 C   0  0  0  0  0  3  0  0  0  0  0  0
  -23.7800  -29.5240   20.0420 C   0  0  0  0  0  2  0  0  0  0  0  0
  -24.7130  -30.8720   21.9690 N   0  0  0  0  0  0  0  0  0  0  0  0
  -23.4660  -31.9640   23.5240 O   0  0  0  0  0  0  0  0  0  0  0  0
  -22.8140  -29.2240   22.3530 C   0  0  0  0  0  0  0  0  0  0  0  0
  -21.4940  -29.0240   22.1980 N   0  0  0  0  0  0  0  0  0  0  0  0
  -23.4820  -28.6180   23.1950 O   0  0  0  0  0  0  0  0  0  0  0  0
  -21.0120  -29.5630   21.4910 H   0  0  0  0  0  0  0  0  0  0  0  0
  -18.1170  -27.8230   22.6860 C   0  0  0  0  0  0  0  0  0  0  0  0
  -20.6740  -28.0850   22.9640 C   0  0  0  0  0  3  0  0  0  0  0  0
  -20.7800  -26.6570   22.3850 C   0  0  0  0  0  2  0  0  0  0  0  0
  -19.6820  -26.3340   21.3660 C   0  0  0  0  0  2  0  0  0  0  0  0
  -18.2970  -26.4760   22.0040 C   0  0  0  0  0  2  0  0  0  0  0  0
  -19.2330  -28.5840   23.1220 C   0  0  0  0  0  0  0  0  0  0  0  0
  -19.0120  -29.8450   23.7180 C   0  0  0  0  0  3  0  0  0  0  0  0
  -17.7070  -30.3440   23.8820 C   0  0  0  0  0  3  0  0  0  0  0  0
  -16.6040  -29.5810   23.4620 C   0  0  0  0  0  3  0  0  0  0  0  0
  -16.8100  -28.3220   22.8710 C   0  0  0  0  0  3  0  0  0  0  0  0
  -25.8140  -32.3980   23.6980 C   0  0  0  0  0  3  0  0  0  0  0  0
  -25.4280  -33.7780   24.0260 N   0  0  0  0  0  0  0  0  0  0  0  0
  -25.7160  -34.8500   23.2760 C   0  0  0  0  0  0  0  0  0  0  0  0
  -26.4010  -34.7850   22.2520 O   0  0  0  0  0  0  0  0  0  0  0  0
  -24.8180  -33.8990   24.8210 H   0  0  0  0  0  0  0  0  0  0  0  0
  -23.9000  -36.5570   22.9130 C   0  0  0  0  0  1  0  0  0  0  0  0
  -25.1530  -36.2110   23.7320 C   0  0  0  0  0  3  0  0  0  0  0  0
  -27.2320  -37.2040   24.5830 C   0  0  0  0  0  1  0  0  0  0  0  0
  -26.1300  -37.3170   23.6310 N   0  0  0  0  0  0  0  0  0  0  0  0
  -25.6750  -38.2140   23.7780 H   0  0  0  0  0  0  0  0  0  0  0  0
  -26.3310  -31.6460   24.9850 C   0  0  1  0  0  0  0  0  0  0  0  0
  -25.2220  -31.3430   26.0170 C   0  0  0  0  0  1  0  0  0  0  0  0
  -27.0010  -30.3050   24.6060 C   0  0  0  0  0  1  0  0  0  0  0  0
  -27.4130  -32.5000   25.6910 C   0  0  0  0  0  1  0  0  0  0  0  0
  1  3  1  0
  1  2  1  0
  2  4  1  0
  3 15  1  0
  3  4  1  0
  5  1  2  0
  6 19  1  0
  7 12  1  0
  8  9  1  0
  8  7  1  0
 10  9  1  0
 10 28  1  0
 10 11  1  0
 12  6  1  0
 12 11  1  0
 13  6  2  0
 14 21  1  0
 14 16  1  0
 15 20  2  0
 16 17  1  0
 18 17  1  0
 19 14  1  0
 19 18  1  0
 20 22  1  0
 20 23  1  0
 21 15  1  0
 24 21  1  0
 25 26  2  0
 26 45  1  0
 27 30  1  0
 27 26  1  0
 28 29  1  0
 28 25  1  0
 29 27  2  0
 30 31  1  0
 31 32  2  0
 33 36  1  0
 33 32  1  0
 34 33  2  0
 35 34  1  0
 35 30  2  0
 36 37  1  0
 37 38  1  0
 38 39  2  0
 40 39  1  0
 40 44  1  0
 41 40  2  0
 42 37  2  0
 42 41  1  0
 43 42  1  0
 45 46  1  0
 46 48  1  0
 46 49  1  0
 47 45  2  0
 50 25  1  0
 50 51  1  0
 52 50  1  0
 53  4  1  0
 53 54  1  0
 55 54  1  0
 56 67  2  0
 57 55  1  0
 57 62  1  0
 58 66  1  0
 58 68  1  0
 59 61  1  0
 60 66  1  0
 61 62  2  0
 61 60  1  0
 63 57  2  0
 64 63  1  0
 64 59  2  0
 65 59  1  0
 65 58  1  0
 66 56  1  0
 68 70  2  0
 69 68  1  0
 71 69  1  0
 72 81  2  0
 72 77  1  0
 73 69  1  0
 73 77  1  0
 74 73  1  0
 75 76  1  0
 75 74  1  0
 76 72  1  0
 77 78  2  0
 78 79  1  0
 80 79  2  0
 81 80  1  0
 82 56  1  0
 82 83  1  0
 82 92  1  0
 83 86  1  0
 84 88  1  0
 84 83  1  0
 85 84  2  0
 88 87  1  0
 90 88  1  0
 90 91  1  0
 90 89  1  0
 92 95  1  1
 92 93  1  0
 94 92  1  0
M  ISO  4   6 100  19 100  54 101  55 101
M  END
>  <TORSDO>  (37) 
F 18

>  <SCORE>  (37) 
-10.624

>  <name>  (37) 
36

>  <ligand_id>  (37) 
36

>  <original_smiles>  (37) 
[H]c1c([H])c([H])c2c(c1[H])C([H])([H])C([H])([H])C([H])([H])C2([H])N([H])C(=O)C1([H])N(C(=O)C([H])(N([H])C(=O)C([H])(N([H])C([H])([H])[H])C([H])([H])[H])C(C([H])([H])[H])(C([H])([H])[H])C([H])([H])[H])C([H])([H])c2c([H])c(OC([H])([H])C([H])([H])N3C([H])([H])C(=O)C3([H])C(N([H])C3=[N+](C(=O)N4C([H])([H])C([H])([H])C([H])([H])C([H])(n5nc(-c6c([H])c([H])c(Oc7c([H])c([H])c(F)c([H])c7F)c([H])c6[H])c(C(=O)N([H])[H])c5N([H])[H])C4([H])[H])C([H])([H])C([H])([H])C3([H])[H])=[N+]([H])[H])c([H])c([H])c2C1([H])[H]

>  <smiles>  (37) 
[H]c1c([H])c([H])c2c(c1[H])C([H])([H])C([H])([H])C([H])([H])C2([H])N([H])C(=O)C1([H])N(C(=O)C([H])(N([H])C(=O)C([H])(N([H])C([H])([H])[H])C([H])([H])[H])C(C([H])([H])[H])(C([H])([H])[H])C([H])([H])[H])C([H])([H])c2c([H])c(OC([H])([H])C([H])([H])N3C([H])([H])C(=O)C3([H])C(N([H])C3=[N+](C(=O)N4C([H])([H])C([H])([H])C([H])([H])C([H])(n5nc(-c6c([H])c([H])c(Oc7c([H])c([H])c(F)c([H])c7F)c([H])c6[H])c(C(=O)N([H])[H])c5N([H])[H])C4([H])[H])C([H])([H])C([H])([H])C3([H])[H])=[N+]([H])[H])c([H])c([H])c2C1([H])[H]

$$$$
37:0:0
     RDKit          3D

 92100  0  0  1  0  0  0  0  0999 V2000
  -29.4080  -23.2140   20.6040 C   0  0  0  0  0  3  0  0  0  0  0  0
  -28.8410  -20.7240   22.1240 C   0  0  0  0  0  2  0  0  0  0  0  0
  -27.8160  -21.3880   21.2070 C   0  0  0  0  0  2  0  0  0  0  0  0
  -29.7620  -20.7040   20.9050 C   0  0  0  0  0  3  0  0  0  0  0  0
  -28.9210  -21.8110   20.3390 N   0  0  2  0  0  4  0  0  0  0  0  0
  -28.7190  -21.6710   19.3600 H   0  0  0  0  0  0  0  0  0  0  0  0
  -29.8450  -19.3630   20.1050 C   0  0  0  0  0  2  0  0  0  0  0  0
  -30.6040  -18.2340   20.8890 C   0  0  0  0  0  2  0  0  0  0  0  0
  -30.1080  -16.7500   20.7700 C   0  0  0  0  0  2  0  0  0  0  0  0
  -31.5570  -14.7840   20.1060 C   0  0  0  0  0  0  0  0  0  0  0  0
  -31.2160  -12.4970   19.2550 C   0  0  0  0  0  2  0  0  0  0  0  0
  -30.3080  -12.5860   18.0100 C   0  0  0  0  0  2  0  0  0  0  0  0
  -28.8190  -12.5530   18.4140 C   0  0  0  0  0  2  0  0  0  0  0  0
  -28.4800  -13.5160   19.5840 C   0  0  0  0  0  3  0  0  0  0  0  0
  -29.5180  -13.4180   20.7230 C   0  0  0  0  0  2  0  0  0  0  0  0
  -30.8490  -13.6180   20.1350 N   0  0  0  0  0  0  0  0  0  0  0  0
  -32.7570  -14.8040   19.8190 O   0  0  0  0  0  0  0  0  0  0  0  0
  -31.0090  -16.5130   18.4860 C   0  0  0  0  0  1  0  0  0  0  0  0
  -30.8120  -15.8860   19.7960 N   0  0  0  0  0  0  0  0  0  0  0  0
  -26.1300  -14.2620   20.3040 C   0  0  0  0  0  0  0  0  0  0  0  0
  -25.0200  -13.5560   20.6800 C   0  0  0  0  0  0  0  0  0  0  0  0
  -25.4030  -12.1790   20.6600 C   0  0  0  0  0  0  0  0  0  0  0  0
  -27.1190  -13.3200   20.0750 N   0  0  0  0  0  0  0  0  0  0  0  0
  -26.6870  -12.0620   20.3490 N   0  0  0  0  0  0  0  0  0  0  0  0
  -24.6040  -10.9640   20.8620 C   0  0  0  0  0  0  0  0  0  0  0  0
  -24.9400  -10.0150   21.8530 C   0  0  0  0  0  3  0  0  0  0  0  0
  -24.1480   -8.8620   22.0380 C   0  0  0  0  0  3  0  0  0  0  0  0
  -23.0040   -8.6520   21.2330 C   0  0  0  0  0  0  0  0  0  0  0  0
  -22.6870   -9.5870   20.2330 C   0  0  0  0  0  3  0  0  0  0  0  0
  -23.4790  -10.7320   20.0460 C   0  0  0  0  0  3  0  0  0  0  0  0
  -22.1860   -7.5510   21.3250 O   0  0  0  0  0  0  0  0  0  0  0  0
  -21.9780   -6.9080   22.5180 C   0  0  0  0  0  0  0  0  0  0  0  0
  -21.4340   -7.5710   23.6400 C   0  0  0  0  0  3  0  0  0  0  0  0
  -21.1730   -6.8530   24.8240 C   0  0  0  0  0  3  0  0  0  0  0  0
  -21.4450   -5.4720   24.8870 C   0  0  0  0  0  0  0  0  0  0  0  0
  -21.9800   -4.8100   23.7680 C   0  0  0  0  0  3  0  0  0  0  0  0
  -22.2440   -5.5250   22.5870 C   0  0  0  0  0  0  0  0  0  0  0  0
  -22.7410   -4.8750   21.5060 F   0  0  0  0  0  0  0  0  0  0  0  0
  -21.1850   -4.7810   26.0210 F   0  0  0  0  0  0  0  0  0  0  0  0
  -23.6550  -14.1160   20.9510 C   0  0  0  0  0  0  0  0  0  0  0  0
  -22.8970  -13.4810   21.8390 N   0  0  0  0  0  0  0  0  0  0  0  0
  -23.2700  -15.1520   20.4110 O   0  0  0  0  0  0  0  0  0  0  0  0
  -23.2250  -12.6460   22.3020 H   0  0  0  0  0  0  0  0  0  0  0  0
  -21.9780  -13.8360   22.0590 H   0  0  0  0  0  0  0  0  0  0  0  0
  -26.3730  -15.6190   20.1140 N   0  0  0  0  0  0  0  0  0  0  0  0
  -25.6420  -16.3160   20.2090 H   0  0  0  0  0  0  0  0  0  0  0  0
  -27.2440  -16.0000   19.7650 H   0  0  0  0  0  0  0  0  0  0  0  0
  -28.4960  -24.4070   20.1190 C   0  0  0  0  0  3  0  0  0  0  0  0
  -28.2920  -26.0420   22.1100 C   0  0  0  0  0  1  0  0  0  0  0  0
  -30.4020  -25.9950   20.7490 C   0  0  0  0  0  1  0  0  0  0  0  0
  -28.8710  -25.8280   20.6930 C   0  0  1  0  0  0  0  0  0  0  0  0
  -28.5070  -26.9300   19.8230 O   0  0  0  0  0  0  0  0  0  0  0  0
  -24.6950  -31.9060   23.3010 C   0  0  0  0  0  0  0  0  0  0  0  0
  -27.3170  -27.6210   19.9730 C   0  0  0  0  0  0  0  0  0  0  0  0
  -23.4710  -30.5760   21.6110 C   0  0  0  0  0  3  0  0  0  0  0  0
  -24.9120  -29.1110   20.0970 C   0  0  0  0  0  0  0  0  0  0  0  0
  -25.9890  -30.9640   21.3860 C   0  0  0  0  0  2  0  0  0  0  0  0
  -26.0760  -29.6190   20.6860 C   0  0  0  0  0  0  0  0  0  0  0  0
  -27.2850  -28.8840   20.6140 C   0  0  0  0  0  3  0  0  0  0  0  0
  -26.1390  -27.1250   19.3830 C   0  0  0  0  0  3  0  0  0  0  0  0
  -24.9380  -27.8660   19.4420 C   0  0  0  0  0  3  0  0  0  0  0  0
  -23.6620  -29.9580   20.1990 C   0  0  0  0  0  2  0  0  0  0  0  0
  -24.7380  -31.1620   22.1590 N   0  0  0  0  0  0  0  0  0  0  0  0
  -23.6200  -32.1420   23.8720 O   0  0  0  0  0  0  0  0  0  0  0  0
  -22.8400  -29.5070   22.5330 C   0  0  0  0  0  0  0  0  0  0  0  0
  -21.5190  -29.3000   22.3960 N   0  0  0  0  0  0  0  0  0  0  0  0
  -23.5350  -28.8670   23.3250 O   0  0  0  0  0  0  0  0  0  0  0  0
  -21.0180  -29.8710   21.7290 H   0  0  0  0  0  0  0  0  0  0  0  0
  -18.1780  -27.9920   22.8090 C   0  0  0  0  0  0  0  0  0  0  0  0
  -20.7230  -28.3140   23.1260 C   0  0  0  0  0  3  0  0  0  0  0  0
  -20.8750  -26.9060   22.5050 C   0  0  0  0  0  2  0  0  0  0  0  0
  -19.7970  -26.5850   21.4660 C   0  0  0  0  0  2  0  0  0  0  0  0
  -18.4030  -26.6700   22.0940 C   0  0  0  0  0  2  0  0  0  0  0  0
  -19.2680  -28.7710   23.2800 C   0  0  0  0  0  0  0  0  0  0  0  0
  -19.0040  -30.0090   23.9070 C   0  0  0  0  0  3  0  0  0  0  0  0
  -17.6830  -30.4670   24.0680 C   0  0  0  0  0  3  0  0  0  0  0  0
  -16.6070  -29.6840   23.6170 C   0  0  0  0  0  3  0  0  0  0  0  0
  -16.8550  -28.4480   22.9940 C   0  0  0  0  0  3  0  0  0  0  0  0
  -25.9860  -32.5160   23.9320 C   0  0  0  0  0  3  0  0  0  0  0  0
  -25.6720  -33.8920   24.3360 N   0  0  0  0  0  0  0  0  0  0  0  0
  -26.0180  -34.9850   23.6430 C   0  0  0  0  0  0  0  0  0  0  0  0
  -26.7030  -34.9370   22.6170 O   0  0  0  0  0  0  0  0  0  0  0  0
  -25.0580  -34.0010   25.1300 H   0  0  0  0  0  0  0  0  0  0  0  0
  -24.3080  -36.8080   23.3550 C   0  0  0  0  0  1  0  0  0  0  0  0
  -25.5270  -36.3470   24.1690 C   0  0  0  0  0  3  0  0  0  0  0  0
  -27.6450  -37.1670   25.1040 C   0  0  0  0  0  1  0  0  0  0  0  0
  -26.5680  -37.3990   24.1430 N   0  0  0  0  0  0  0  0  0  0  0  0
  -26.1640  -38.3120   24.3330 H   0  0  0  0  0  0  0  0  0  0  0  0
  -26.5330  -31.6820   25.1550 C   0  0  1  0  0  0  0  0  0  0  0  0
  -25.4600  -31.3750   26.2270 C   0  0  0  0  0  1  0  0  0  0  0  0
  -27.1250  -30.3360   24.6760 C   0  0  0  0  0  1  0  0  0  0  0  0
  -27.6870  -32.4530   25.8390 C   0  0  0  0  0  1  0  0  0  0  0  0
  3  2  1  0
  4  7  1  0
  4  2  1  0
  5  1  1  0
  5  4  1  0
  5  3  1  0
  5  6  1  6
  7  8  1  0
  9  8  1  0
 10 16  1  0
 11 16  1  0
 12 13  1  0
 12 11  1  0
 14 13  1  0
 14 23  1  0
 14 15  1  0
 16 15  1  0
 17 10  2  0
 18 19  1  0
 19 10  1  0
 19  9  1  0
 20 21  2  0
 21 40  1  0
 22 21  1  0
 22 25  1  0
 23 20  1  0
 23 24  1  0
 24 22  2  0
 25 26  1  0
 26 27  2  0
 28 31  1  0
 28 27  1  0
 29 28  2  0
 30 29  1  0
 30 25  2  0
 31 32  1  0
 32 37  2  0
 32 33  1  0
 33 34  2  0
 34 35  1  0
 35 39  1  0
 36 35  2  0
 37 36  1  0
 38 37  1  0
 40 41  1  0
 41 44  1  0
 41 43  1  0
 42 40  2  0
 45 46  1  0
 45 20  1  0
 47 45  1  0
 48  1  2  0
 48 51  1  0
 51 50  1  1
 51 49  1  0
 52 54  1  0
 52 51  1  0
 53 64  2  0
 54 59  1  0
 55 63  1  0
 55 65  1  0
 56 62  1  0
 56 58  1  0
 57 63  1  0
 58 57  1  0
 59 58  2  0
 60 61  1  0
 60 54  2  0
 61 56  2  0
 62 55  1  0
 63 53  1  0
 65 67  2  0
 66 65  1  0
 68 66  1  0
 69 78  2  0
 69 74  1  0
 70 66  1  0
 70 74  1  0
 71 70  1  0
 72 73  1  0
 72 71  1  0
 73 69  1  0
 74 75  2  0
 75 76  1  0
 77 76  2  0
 78 77  1  0
 79 53  1  0
 79 80  1  0
 79 89  1  0
 80 83  1  0
 81 85  1  0
 81 80  1  0
 82 81  2  0
 85 84  1  0
 87 85  1  0
 87 88  1  0
 87 86  1  0
 89 92  1  1
 89 90  1  0
 91 89  1  0
M  ISO  4  10 100  19 100  51 101  52 101
M  END
>  <TORSDO>  (38) 
F 22

>  <SCORE>  (38) 
-11.204

>  <name>  (38) 
37

>  <ligand_id>  (38) 
37

>  <original_smiles>  (38) 
[H]c1c([H])c([H])c2c(c1[H])C([H])([H])C([H])([H])C([H])([H])C2([H])N([H])C(=O)C1([H])N(C(=O)C([H])(N([H])C(=O)C([H])(N([H])C([H])([H])[H])C([H])([H])[H])C(C([H])([H])[H])(C([H])([H])[H])C([H])([H])[H])C([H])([H])c2c([H])c(OC(C([H])([H])[H])(C([H])([H])[H])C([H])([H])C([H])([H])[N+]3([H])C([H])([H])C([H])([H])C3([H])C([H])([H])C([H])([H])C([H])([H])N(C(=O)N3C([H])([H])C([H])([H])C([H])([H])C([H])(n4nc(-c5c([H])c([H])c(Oc6c([H])c([H])c(F)c([H])c6F)c([H])c5[H])c(C(=O)N([H])[H])c4N([H])[H])C3([H])[H])C([H])([H])[H])c([H])c([H])c2C1([H])[H]

>  <smiles>  (38) 
[H]c1c([H])c([H])c2c(c1[H])C([H])([H])C([H])([H])C([H])([H])C2([H])N([H])C(=O)C1([H])N(C(=O)C([H])(N([H])C(=O)C([H])(N([H])C([H])([H])[H])C([H])([H])[H])C(C([H])([H])[H])(C([H])([H])[H])C([H])([H])[H])C([H])([H])c2c([H])c(OC(C([H])([H])[H])(C([H])([H])[H])C([H])([H])C([H])([H])[N+]3([H])C([H])([H])C([H])([H])C3([H])C([H])([H])C([H])([H])C([H])([H])N(C(=O)N3C([H])([H])C([H])([H])C([H])([H])C([H])(n4nc(-c5c([H])c([H])c(Oc6c([H])c([H])c(F)c([H])c6F)c([H])c5[H])c(C(=O)N([H])[H])c4N([H])[H])C3([H])[H])C([H])([H])[H])c([H])c([H])c2C1([H])[H]

$$$$
38:0:0
     RDKit          3D

 96105  0  0  1  0  0  0  0  0999 V2000
  -30.3590  -20.3650   21.8990 C   0  0  0  0  0  0  0  0  0  0  0  0
  -31.2640  -21.4570   21.2950 C   0  0  0  0  0  2  0  0  0  0  0  0
  -30.0380  -19.8600   20.4700 C   0  0  0  0  0  3  0  0  0  0  0  0
  -30.5160  -21.2680   20.0350 N   0  0  0  0  0  0  0  0  0  0  0  0
  -30.0410  -20.0330   23.0420 O   0  0  0  0  0  0  0  0  0  0  0  0
  -29.4360  -22.3380   19.8880 C   0  0  0  0  0  2  0  0  0  0  0  0
  -29.7910  -23.9170   19.8290 C   0  0  0  0  0  3  0  0  0  0  0  0
  -28.5980  -24.9520   19.5340 C   0  0  0  0  0  3  0  0  0  0  0  0
  -28.7650  -26.4270   19.6990 O   0  0  0  0  0  0  0  0  0  0  0  0
  -24.7660  -31.5010   22.9820 C   0  0  0  0  0  0  0  0  0  0  0  0
  -27.6100  -27.2420   19.6860 C   0  0  0  0  0  0  0  0  0  0  0  0
  -23.6490  -30.1750   21.2270 C   0  0  0  0  0  3  0  0  0  0  0  0
  -25.1830  -28.7740   19.7350 C   0  0  0  0  0  0  0  0  0  0  0  0
  -26.1830  -30.5860   21.1280 C   0  0  0  0  0  2  0  0  0  0  0  0
  -26.3240  -29.2600   20.3870 C   0  0  0  0  0  0  0  0  0  0  0  0
  -27.5380  -28.5090   20.3530 C   0  0  0  0  0  3  0  0  0  0  0  0
  -26.4390  -26.8130   19.0170 C   0  0  0  0  0  3  0  0  0  0  0  0
  -25.2420  -27.5560   19.0430 C   0  0  0  0  0  3  0  0  0  0  0  0
  -23.9160  -29.6020   19.8110 C   0  0  0  0  0  2  0  0  0  0  0  0
  -24.8830  -30.7700   21.8360 N   0  0  0  0  0  0  0  0  0  0  0  0
  -23.6620  -31.7060   23.5090 O   0  0  0  0  0  0  0  0  0  0  0  0
  -23.0010  -29.0770   22.1030 C   0  0  0  0  0  0  0  0  0  0  0  0
  -21.6800  -28.8750   21.9440 N   0  0  0  0  0  0  0  0  0  0  0  0
  -23.6870  -28.4120   22.8840 O   0  0  0  0  0  0  0  0  0  0  0  0
  -21.1860  -29.4690   21.2930 H   0  0  0  0  0  0  0  0  0  0  0  0
  -18.3230  -27.5830   22.3420 C   0  0  0  0  0  0  0  0  0  0  0  0
  -20.8770  -27.8630   22.6350 C   0  0  0  0  0  3  0  0  0  0  0  0
  -21.0030  -26.4850   21.9450 C   0  0  0  0  0  2  0  0  0  0  0  0
  -19.9060  -26.2280   20.9080 C   0  0  0  0  0  2  0  0  0  0  0  0
  -18.5220  -26.2980   21.5600 C   0  0  0  0  0  2  0  0  0  0  0  0
  -19.4300  -28.3270   22.8340 C   0  0  0  0  0  0  0  0  0  0  0  0
  -19.1900  -29.5330   23.5280 C   0  0  0  0  0  3  0  0  0  0  0  0
  -17.8770  -29.9960   23.7330 C   0  0  0  0  0  3  0  0  0  0  0  0
  -16.7850  -29.2490   23.2570 C   0  0  0  0  0  3  0  0  0  0  0  0
  -17.0090  -28.0440   22.5670 C   0  0  0  0  0  3  0  0  0  0  0  0
  -26.0130  -32.1330   23.6760 C   0  0  0  0  0  3  0  0  0  0  0  0
  -25.6560  -33.5050   24.0640 N   0  0  0  0  0  0  0  0  0  0  0  0
  -25.9710  -34.6020   23.3620 C   0  0  0  0  0  0  0  0  0  0  0  0
  -26.6620  -34.5660   22.3400 O   0  0  0  0  0  0  0  0  0  0  0  0
  -25.0400  -33.6050   24.8580 H   0  0  0  0  0  0  0  0  0  0  0  0
  -24.1930  -36.3580   23.0700 C   0  0  0  0  0  1  0  0  0  0  0  0
  -25.4370  -35.9540   23.8760 C   0  0  0  0  0  3  0  0  0  0  0  0
  -27.5350  -36.8670   24.7730 C   0  0  0  0  0  1  0  0  0  0  0  0
  -26.4390  -37.0400   23.8230 N   0  0  0  0  0  0  0  0  0  0  0  0
  -26.0060  -37.9410   23.9980 H   0  0  0  0  0  0  0  0  0  0  0  0
  -26.5070  -31.3160   24.9320 C   0  0  1  0  0  0  0  0  0  0  0  0
  -25.3820  -30.9870   25.9420 C   0  0  0  0  0  1  0  0  0  0  0  0
  -27.1590  -29.9810   24.5010 C   0  0  0  0  0  1  0  0  0  0  0  0
  -27.5980  -32.1170   25.6810 C   0  0  0  0  0  1  0  0  0  0  0  0
  -30.8540  -18.4850   20.1870 C   0  0  0  0  0  3  0  0  0  0  0  0
  -31.2060  -14.7350   19.7920 C   0  0  0  0  0  0  0  0  0  0  0  0
  -30.7460  -12.5970   18.5820 C   0  0  0  0  0  2  0  0  0  0  0  0
  -29.6600  -12.8170   17.5090 C   0  0  0  0  0  2  0  0  0  0  0  0
  -28.2510  -12.6420   18.1100 C   0  0  0  0  0  2  0  0  0  0  0  0
  -28.0750  -13.4040   19.4540 C   0  0  0  0  0  3  0  0  0  0  0  0
  -29.2750  -13.1730   20.4040 C   0  0  0  0  0  2  0  0  0  0  0  0
  -30.5030  -13.5540   19.6850 N   0  0  0  0  0  0  0  0  0  0  0  0
  -32.2270  -14.9280   19.1300 O   0  0  0  0  0  0  0  0  0  0  0  0
  -30.0320  -16.8860   22.0640 C   0  0  0  0  0  3  0  0  0  0  0  0
  -31.1870  -15.9310   21.9940 C   0  0  0  0  0  2  0  0  0  0  0  0
  -30.0700  -17.1170   20.5720 C   0  0  0  0  0  3  0  0  0  0  0  0
  -29.0480  -16.9260   22.8370 N   0  0  0  0  0  2  0  0  0  0  0  0
  -30.7230  -15.7210   20.6170 N   0  0  0  0  0  0  0  0  0  0  0  0
  -28.9080  -17.8450   23.2430 H   0  0  0  0  0  0  0  0  0  0  0  0
  -25.8220  -13.9500   20.5620 C   0  0  0  0  0  0  0  0  0  0  0  0
  -24.7900  -13.1590   20.9880 C   0  0  0  0  0  0  0  0  0  0  0  0
  -25.1960  -11.8130   20.7390 C   0  0  0  0  0  0  0  0  0  0  0  0
  -26.7960  -13.0830   20.0890 N   0  0  0  0  0  0  0  0  0  0  0  0
  -26.4320  -11.7840   20.2530 N   0  0  0  0  0  0  0  0  0  0  0  0
  -24.4540  -10.5530   20.8880 C   0  0  0  0  0  0  0  0  0  0  0  0
  -24.9050   -9.5280   21.7490 C   0  0  0  0  0  3  0  0  0  0  0  0
  -24.1670   -8.3310   21.8890 C   0  0  0  0  0  3  0  0  0  0  0  0
  -22.9610   -8.1530   21.1680 C   0  0  0  0  0  0  0  0  0  0  0  0
  -22.5290   -9.1660   20.2960 C   0  0  0  0  0  3  0  0  0  0  0  0
  -23.2680  -10.3540   20.1540 C   0  0  0  0  0  3  0  0  0  0  0  0
  -22.1900   -7.0170   21.2240 O   0  0  0  0  0  0  0  0  0  0  0  0
  -22.0710   -6.2850   22.3780 C   0  0  0  0  0  0  0  0  0  0  0  0
  -21.6180   -6.8620   23.5850 C   0  0  0  0  0  3  0  0  0  0  0  0
  -21.4430   -6.0590   24.7290 C   0  0  0  0  0  3  0  0  0  0  0  0
  -21.7070   -4.6770   24.6670 C   0  0  0  0  0  0  0  0  0  0  0  0
  -22.1480   -4.0990   23.4620 C   0  0  0  0  0  3  0  0  0  0  0  0
  -22.3270   -4.9000   22.3220 C   0  0  0  0  0  0  0  0  0  0  0  0
  -22.7340   -4.3340   21.1610 F   0  0  0  0  0  0  0  0  0  0  0  0
  -21.5290   -3.9010   25.7610 F   0  0  0  0  0  0  0  0  0  0  0  0
  -23.4620  -13.6300   21.5050 C   0  0  0  0  0  0  0  0  0  0  0  0
  -22.8540  -12.8800   22.4160 N   0  0  0  0  0  0  0  0  0  0  0  0
  -22.9730  -14.6970   21.1350 O   0  0  0  0  0  0  0  0  0  0  0  0
  -23.2660  -12.0170   22.7410 H   0  0  0  0  0  0  0  0  0  0  0  0
  -21.9650  -13.1720   22.7960 H   0  0  0  0  0  0  0  0  0  0  0  0
  -26.0050  -15.3290   20.5190 N   0  0  0  0  0  0  0  0  0  0  0  0
  -25.2870  -15.9770   20.8310 H   0  0  0  0  0  0  0  0  0  0  0  0
  -26.8380  -15.7920   20.1730 H   0  0  0  0  0  0  0  0  0  0  0  0
  -31.2450  -18.4760   18.7660 N   0  0  0  0  0  4  0  0  0  0  0  0
  -30.4370  -18.4540   18.1700 H   0  0  0  0  0  0  0  0  0  0  0  0
  -31.8400  -17.6960   18.5500 H   0  0  0  0  0  0  0  0  0  0  0  0
  -31.7510  -19.3210   18.5580 H   0  0  0  0  0  0  0  0  0  0  0  0
  1  5  2  0
  2  1  1  0
  3 50  1  0
  3  1  1  0
  4  3  1  0
  4  2  1  0
  6  4  1  0
  7  6  1  0
  8  9  1  0
  8  7  2  0
 10 21  2  0
 11  9  1  0
 11 16  1  0
 12 20  1  0
 12 22  1  0
 13 19  1  0
 13 15  1  0
 14 20  1  0
 15 14  1  0
 16 15  2  0
 17 18  1  0
 17 11  2  0
 18 13  2  0
 19 12  1  0
 20 10  1  0
 22 24  2  0
 23 22  1  0
 25 23  1  0
 26 35  2  0
 26 31  1  0
 27 23  1  0
 27 31  1  0
 28 27  1  0
 29 30  1  0
 29 28  1  0
 30 26  1  0
 31 32  2  0
 32 33  1  0
 34 33  2  0
 35 34  1  0
 36 10  1  0
 36 37  1  0
 36 46  1  0
 37 40  1  0
 38 42  1  0
 38 37  1  0
 39 38  2  0
 42 41  1  0
 44 42  1  0
 44 45  1  0
 44 43  1  0
 46 49  1  1
 46 47  1  0
 48 46  1  0
 50 93  1  0
 51 63  1  0
 52 57  1  0
 53 54  1  0
 53 52  1  0
 55 54  1  0
 55 68  1  0
 55 56  1  0
 57 51  1  0
 57 56  1  0
 58 51  2  0
 59 62  1  0
 60 59  1  0
 61 50  1  0
 61 63  1  0
 61 59  1  0
 62 64  1  0
 63 60  1  0
 65 66  2  0
 66 85  1  0
 67 70  1  0
 67 66  1  0
 68 69  1  0
 68 65  1  0
 69 67  2  0
 70 71  1  0
 71 72  2  0
 73 76  1  0
 73 72  1  0
 74 73  2  0
 75 74  1  0
 75 70  2  0
 76 77  1  0
 77 78  1  0
 78 79  2  0
 80 79  1  0
 80 84  1  0
 81 80  2  0
 82 77  2  0
 82 81  1  0
 83 82  1  0
 85 86  1  0
 86 88  1  0
 86 89  1  0
 87 85  2  0
 90 65  1  0
 90 91  1  0
 92 90  1  0
 94 93  1  0
 95 93  1  0
 96 93  1  0
M  ISO  4   8 101   9 101  51 100  63 100
M  END
>  <TORSDO>  (39) 
F 21

>  <SCORE>  (39) 
-8.945

>  <name>  (39) 
38

>  <ligand_id>  (39) 
38

>  <original_smiles>  (39) 
[H]N=C1C([H])([H])N(C(=O)N2C([H])([H])C([H])([H])C([H])([H])C([H])(n3nc(-c4c([H])c([H])c(Oc5c([H])c([H])c(F)c([H])c5F)c([H])c4[H])c(C(=O)N([H])[H])c3N([H])[H])C2([H])[H])C1([H])C([H])(C1([H])C(=O)C([H])([H])N1C([H])([H])C([H])([H])C([H])([H])Oc1c([H])c([H])c2c(c1[H])C([H])([H])N(C(=O)C([H])(N([H])C(=O)C([H])(N([H])C([H])([H])[H])C([H])([H])[H])C(C([H])([H])[H])(C([H])([H])[H])C([H])([H])[H])C([H])(C(=O)N([H])C1([H])c3c([H])c([H])c([H])c([H])c3C([H])([H])C([H])([H])C1([H])[H])C2([H])[H])[N+]([H])([H])[H]

>  <smiles>  (39) 
[H]N=C1C([H])([H])N(C(=O)N2C([H])([H])C([H])([H])C([H])([H])C([H])(n3nc(-c4c([H])c([H])c(Oc5c([H])c([H])c(F)c([H])c5F)c([H])c4[H])c(C(=O)N([H])[H])c3N([H])[H])C2([H])[H])C1([H])C([H])(C1([H])C(=O)C([H])([H])N1C([H])([H])C([H])([H])C([H])([H])Oc1c([H])c([H])c2c(c1[H])C([H])([H])N(C(=O)C([H])(N([H])C(=O)C([H])(N([H])C([H])([H])[H])C([H])([H])[H])C(C([H])([H])[H])(C([H])([H])[H])C([H])([H])[H])C([H])(C(=O)N([H])C1([H])c3c([H])c([H])c([H])c([H])c3C([H])([H])C([H])([H])C1([H])[H])C2([H])[H])[N+]([H])([H])[H]

$$$$
39:0:0
     RDKit          3D

 98106  0  0  1  0  0  0  0  0999 V2000
  -29.7800  -21.2830   20.7290 C   0  0  0  0  0  0  0  0  0  0  0  0
  -30.6740  -21.4500   21.5640 O   0  0  0  0  0  0  0  0  0  0  0  0
  -29.6430  -19.8900   19.9930 C   0  0  0  0  0  2  0  0  0  0  0  0
  -29.8800  -18.4950   20.7180 C   0  0  0  0  0  0  0  0  0  0  0  0
  -29.5750  -18.2820   21.9260 N   0  0  0  0  0  0  0  0  0  0  0  0
  -29.7700  -17.3250   22.1990 H   0  0  0  0  0  0  0  0  0  0  0  0
  -30.8550  -14.7730   20.4150 C   0  0  0  0  0  0  0  0  0  0  0  0
  -30.6950  -12.4610   19.5370 C   0  0  0  0  0  2  0  0  0  0  0  0
  -29.7900  -12.4410   18.2850 C   0  0  0  0  0  2  0  0  0  0  0  0
  -28.2930  -12.3730   18.6700 C   0  0  0  0  0  2  0  0  0  0  0  0
  -27.8870  -13.2810   19.8670 C   0  0  0  0  0  3  0  0  0  0  0  0
  -28.9260  -13.2370   21.0060 C   0  0  0  0  0  2  0  0  0  0  0  0
  -30.2340  -13.5500   20.4180 N   0  0  0  0  0  0  0  0  0  0  0  0
  -32.0830  -14.8650   20.3580 O   0  0  0  0  0  0  0  0  0  0  0  0
  -29.9910  -15.7890   18.4870 C   0  0  0  0  0  2  0  0  0  0  0  0
  -30.4230  -17.3220   19.8120 C   0  0  0  0  0  3  0  0  0  0  0  0
  -29.6720  -17.2570   18.4680 C   0  0  0  0  0  3  0  0  0  0  0  0
  -30.0780  -15.8340   19.9750 N   0  0  0  0  0  0  0  0  0  0  0  0
  -25.4740  -13.8700   20.5140 C   0  0  0  0  0  0  0  0  0  0  0  0
  -24.3990  -13.0920   20.8480 C   0  0  0  0  0  0  0  0  0  0  0  0
  -24.8760  -11.7450   20.8590 C   0  0  0  0  0  0  0  0  0  0  0  0
  -26.5340  -12.9950   20.3330 N   0  0  0  0  0  0  0  0  0  0  0  0
  -26.1790  -11.7150   20.6050 N   0  0  0  0  0  0  0  0  0  0  0  0
  -24.1590  -10.4790   21.0440 C   0  0  0  0  0  0  0  0  0  0  0  0
  -24.5630   -9.5360   22.0150 C   0  0  0  0  0  3  0  0  0  0  0  0
  -23.8450   -8.3340   22.1860 C   0  0  0  0  0  3  0  0  0  0  0  0
  -22.7110   -8.0640   21.3840 C   0  0  0  0  0  0  0  0  0  0  0  0
  -22.3280   -8.9960   20.4020 C   0  0  0  0  0  3  0  0  0  0  0  0
  -23.0460  -10.1900   20.2310 C   0  0  0  0  0  3  0  0  0  0  0  0
  -21.9680   -6.9110   21.4630 O   0  0  0  0  0  0  0  0  0  0  0  0
  -21.8580   -6.2030   22.6330 C   0  0  0  0  0  0  0  0  0  0  0  0
  -21.3250   -6.7810   23.8070 C   0  0  0  0  0  3  0  0  0  0  0  0
  -21.1680   -5.9970   24.9670 C   0  0  0  0  0  3  0  0  0  0  0  0
  -21.5330   -4.6370   24.9550 C   0  0  0  0  0  0  0  0  0  0  0  0
  -22.0590   -4.0600   23.7850 C   0  0  0  0  0  3  0  0  0  0  0  0
  -22.2190   -4.8410   22.6270 C   0  0  0  0  0  0  0  0  0  0  0  0
  -22.7060   -4.2740   21.4970 F   0  0  0  0  0  0  0  0  0  0  0  0
  -21.3740   -3.8830   26.0660 F   0  0  0  0  0  0  0  0  0  0  0  0
  -22.9900  -13.5590   21.0650 C   0  0  0  0  0  0  0  0  0  0  0  0
  -22.2360  -12.8650   21.9100 N   0  0  0  0  0  0  0  0  0  0  0  0
  -22.5650  -14.5790   20.5220 O   0  0  0  0  0  0  0  0  0  0  0  0
  -22.5930  -12.0420   22.3730 H   0  0  0  0  0  0  0  0  0  0  0  0
  -21.2910  -13.1660   22.1020 H   0  0  0  0  0  0  0  0  0  0  0  0
  -25.6440  -15.2410   20.3400 N   0  0  0  0  0  0  0  0  0  0  0  0
  -24.8440  -15.8100   20.6010 H   0  0  0  0  0  0  0  0  0  0  0  0
  -26.4950  -15.6040   20.7480 H   0  0  0  0  0  0  0  0  0  0  0  0
  -28.1970  -17.4690   18.4480 N   0  0  0  0  0  4  0  0  0  0  0  0
  -27.7370  -17.0120   19.2160 H   0  0  0  0  0  0  0  0  0  0  0  0
  -27.8120  -17.0890   17.5990 H   0  0  0  0  0  0  0  0  0  0  0  0
  -27.9480  -18.4400   18.4540 H   0  0  0  0  0  0  0  0  0  0  0  0
  -28.7420  -22.4410   20.3760 C   0  0  0  0  0  3  0  0  0  0  0  0
  -27.5490  -22.1370   21.1920 N   0  0  0  0  0  4  0  0  0  0  0  0
  -27.7680  -22.2230   22.1690 H   0  0  0  0  0  0  0  0  0  0  0  0
  -27.2470  -21.1930   21.0360 H   0  0  0  0  0  0  0  0  0  0  0  0
  -26.7800  -22.7440   20.9740 H   0  0  0  0  0  0  0  0  0  0  0  0
  -29.2000  -23.9700   20.5550 C   0  0  0  0  0  3  0  0  0  0  0  0
  -28.1610  -25.0710   20.0620 C   0  0  0  0  0  3  0  0  0  0  0  0
  -28.3940  -26.5220   20.2360 O   0  0  0  0  0  0  0  0  0  0  0  0
  -24.6100  -31.8690   23.2420 C   0  0  0  0  0  0  0  0  0  0  0  0
  -27.2700  -27.3650   20.1630 C   0  0  0  0  0  0  0  0  0  0  0  0
  -23.4220  -30.4750   21.5890 C   0  0  0  0  0  3  0  0  0  0  0  0
  -24.8900  -28.9530   20.1550 C   0  0  0  0  0  0  0  0  0  0  0  0
  -25.9590  -30.8160   21.4180 C   0  0  0  0  0  2  0  0  0  0  0  0
  -26.0520  -29.4460   20.7600 C   0  0  0  0  0  0  0  0  0  0  0  0
  -27.2440  -28.6640   20.7570 C   0  0  0  0  0  3  0  0  0  0  0  0
  -26.0850  -26.9330   19.5200 C   0  0  0  0  0  3  0  0  0  0  0  0
  -24.9080  -27.7020   19.5240 C   0  0  0  0  0  3  0  0  0  0  0  0
  -23.6450  -29.8150   20.2030 C   0  0  0  0  0  2  0  0  0  0  0  0
  -24.6820  -31.0690   22.1400 N   0  0  0  0  0  0  0  0  0  0  0  0
  -23.5230  -32.1360   23.7750 O   0  0  0  0  0  0  0  0  0  0  0  0
  -22.7650  -29.4430   22.5380 C   0  0  0  0  0  0  0  0  0  0  0  0
  -21.4400  -29.2670   22.4130 N   0  0  0  0  0  0  0  0  0  0  0  0
  -23.4470  -28.8090   23.3470 O   0  0  0  0  0  0  0  0  0  0  0  0
  -20.9490  -29.8330   21.7360 H   0  0  0  0  0  0  0  0  0  0  0  0
  -18.0630  -28.0640   22.9040 C   0  0  0  0  0  0  0  0  0  0  0  0
  -20.6210  -28.3210   23.1730 C   0  0  0  0  0  3  0  0  0  0  0  0
  -20.7230  -26.8950   22.5850 C   0  0  0  0  0  2  0  0  0  0  0  0
  -19.6200  -26.5820   21.5690 C   0  0  0  0  0  2  0  0  0  0  0  0
  -18.2390  -26.7210   22.2150 C   0  0  0  0  0  2  0  0  0  0  0  0
  -19.1820  -28.8210   23.3390 C   0  0  0  0  0  0  0  0  0  0  0  0
  -18.9640  -30.0790   23.9430 C   0  0  0  0  0  3  0  0  0  0  0  0
  -17.6590  -30.5790   24.1160 C   0  0  0  0  0  3  0  0  0  0  0  0
  -16.5540  -29.8170   23.6970 C   0  0  0  0  0  3  0  0  0  0  0  0
  -16.7570  -28.5610   23.0960 C   0  0  0  0  0  3  0  0  0  0  0  0
  -25.8870  -32.5050   23.8730 C   0  0  0  0  0  3  0  0  0  0  0  0
  -26.3960  -31.7370   25.1530 C   0  0  1  0  0  0  0  0  0  0  0  0
  -25.2960  -31.4950   26.2120 C   0  0  0  0  0  1  0  0  0  0  0  0
  -26.9880  -30.3620   24.7670 C   0  0  0  0  0  1  0  0  0  0  0  0
  -27.5390  -32.5350   25.8240 C   0  0  0  0  0  1  0  0  0  0  0  0
  -25.5720  -33.9030   24.2010 N   0  0  0  0  0  0  0  0  0  0  0  0
  -25.9160  -34.9570   23.4500 C   0  0  0  0  0  0  0  0  0  0  0  0
  -26.6050  -34.8570   22.4310 O   0  0  0  0  0  0  0  0  0  0  0  0
  -24.9630  -34.0550   24.9920 H   0  0  0  0  0  0  0  0  0  0  0  0
  -24.2090  -36.7610   23.0510 C   0  0  0  0  0  1  0  0  0  0  0  0
  -25.4190  -36.3440   23.9010 C   0  0  0  0  0  3  0  0  0  0  0  0
  -27.5230  -37.2170   24.8170 C   0  0  0  0  0  1  0  0  0  0  0  0
  -26.4600  -37.3930   23.8320 N   0  0  0  0  0  0  0  0  0  0  0  0
  -26.0520  -38.3150   23.9670 H   0  0  0  0  0  0  0  0  0  0  0  0
  1  2  2  0
  3  4  1  0
  3  1  1  0
  4  5  2  0
  5  6  1  0
  7 13  1  0
  8 13  1  0
  9 10  1  0
  9  8  1  0
 11 10  1  0
 11 22  1  0
 11 12  1  0
 13 12  1  0
 14  7  2  0
 15 18  1  0
 16 18  1  0
 16  4  1  0
 17 47  1  0
 17 15  1  0
 17 16  1  0
 18  7  1  0
 19 20  2  0
 20 21  1  0
 20 39  1  0
 21 24  1  0
 22 19  1  0
 22 23  1  0
 23 21  2  0
 24 25  1  0
 25 26  2  0
 27 30  1  0
 27 26  1  0
 28 27  2  0
 29 28  1  0
 29 24  2  0
 30 31  1  0
 31 32  1  0
 32 33  2  0
 34 33  1  0
 34 38  1  0
 35 34  2  0
 36 31  2  0
 36 35  1  0
 37 36  1  0
 39 40  1  0
 40 43  1  0
 40 42  1  0
 41 39  2  0
 44 19  1  0
 44 45  1  0
 44 46  1  0
 47 50  1  0
 47 48  1  0
 49 47  1  0
 51 56  1  0
 51  1  1  0
 51 52  1  0
 52 53  1  0
 54 52  1  0
 55 52  1  0
 57 58  1  0
 57 56  2  0
 59 70  2  0
 60 58  1  0
 60 65  1  0
 61 69  1  0
 61 71  1  0
 62 68  1  0
 62 64  1  0
 63 69  1  0
 64 63  1  0
 65 64  2  0
 66 67  1  0
 66 60  2  0
 67 62  2  0
 68 61  1  0
 69 59  1  0
 71 73  2  0
 72 71  1  0
 74 72  1  0
 75 84  2  0
 75 80  1  0
 76 72  1  0
 76 80  1  0
 77 76  1  0
 78 79  1  0
 78 77  1  0
 79 75  1  0
 80 81  2  0
 81 82  1  0
 83 82  2  0
 84 83  1  0
 85 59  1  0
 85 90  1  0
 85 86  1  0
 86 89  1  1
 86 87  1  0
 88 86  1  0
 90 93  1  0
 91 95  1  0
 91 90  1  0
 92 91  2  0
 95 94  1  0
 97 95  1  0
 97 98  1  0
 97 96  1  0
M  ISO  4   7 100  18 100  57 101  58 101
M  END
>  <TORSDO>  (40) 
F 23

>  <SCORE>  (40) 
-12.602

>  <name>  (40) 
39

>  <ligand_id>  (40) 
39

>  <original_smiles>  (40) 
[H]N=C(C([H])([H])C(=O)C([H])(C([H])([H])C([H])([H])Oc1c([H])c([H])c2c(c1[H])C([H])([H])N(C(=O)C([H])(N([H])C(=O)C([H])(N([H])C([H])([H])[H])C([H])([H])[H])C(C([H])([H])[H])(C([H])([H])[H])C([H])([H])[H])C([H])(C(=O)N([H])C1([H])c3c([H])c([H])c([H])c([H])c3C([H])([H])C([H])([H])C1([H])[H])C2([H])[H])[N+]([H])([H])[H])C1([H])N(C(=O)N2C([H])([H])C([H])([H])C([H])([H])C([H])(n3nc(-c4c([H])c([H])c(Oc5c([H])c([H])c(F)c([H])c5F)c([H])c4[H])c(C(=O)N([H])[H])c3N([H])[H])C2([H])[H])C([H])([H])C1([H])[N+]([H])([H])[H]

>  <smiles>  (40) 
[H]N=C(C([H])([H])C(=O)C([H])(C([H])([H])C([H])([H])Oc1c([H])c([H])c2c(c1[H])C([H])([H])N(C(=O)C([H])(N([H])C(=O)C([H])(N([H])C([H])([H])[H])C([H])([H])[H])C(C([H])([H])[H])(C([H])([H])[H])C([H])([H])[H])C([H])(C(=O)N([H])C1([H])c3c([H])c([H])c([H])c([H])c3C([H])([H])C([H])([H])C1([H])[H])C2([H])[H])[N+]([H])([H])[H])C1([H])N(C(=O)N2C([H])([H])C([H])([H])C([H])([H])C([H])(n3nc(-c4c([H])c([H])c(Oc5c([H])c([H])c(F)c([H])c5F)c([H])c4[H])c(C(=O)N([H])[H])c3N([H])[H])C2([H])[H])C([H])([H])C1([H])[N+]([H])([H])[H]

$$$$
40:0:0
     RDKit          3D

 97105  0  0  1  0  0  0  0  0999 V2000
  -28.9100  -24.2120   20.2250 C   0  0  0  0  0  3  0  0  0  0  0  0
  -27.6510  -23.9030   21.0080 C   0  0  0  0  0  0  0  0  0  0  0  0
  -27.7540  -23.4850   22.2800 N   0  0  0  0  0  0  0  0  0  0  0  0
  -26.4270  -24.0360   20.4650 N   0  0  0  0  0  4  0  0  0  0  0  0
  -28.6640  -23.3440   22.7000 H   0  0  0  0  0  0  0  0  0  0  0  0
  -26.9620  -23.2770   22.8700 H   0  0  0  0  0  0  0  0  0  0  0  0
  -26.3080  -24.3180   19.5040 H   0  0  0  0  0  0  0  0  0  0  0  0
  -25.5810  -23.8860   20.9920 H   0  0  0  0  0  0  0  0  0  0  0  0
  -29.3230  -23.0230   19.2770 C   0  0  0  0  0  2  0  0  0  0  0  0
  -27.4500  -19.7540   20.1360 C   0  0  0  0  0  3  0  0  0  0  0  0
  -28.4970  -18.8250   20.2560 C   0  0  0  0  0  3  0  0  0  0  0  0
  -27.7210  -21.1000   19.8320 C   0  0  0  0  0  3  0  0  0  0  0  0
  -30.1010  -20.5980   19.7780 C   0  0  0  0  0  3  0  0  0  0  0  0
  -29.8350  -19.2230   20.0520 C   0  0  0  0  0  0  0  0  0  0  0  0
  -29.0480  -21.5540   19.6780 C   0  0  0  0  0  0  0  0  0  0  0  0
  -30.9570  -18.1760   20.2010 C   0  0  0  0  0  2  0  0  0  0  0  0
  -30.5850  -16.6990   19.8400 C   0  0  0  0  0  2  0  0  0  0  0  0
  -31.9100  -14.5880   19.9530 C   0  0  0  0  0  0  0  0  0  0  0  0
  -31.5230  -12.2190   19.3600 C   0  0  0  0  0  2  0  0  0  0  0  0
  -30.6000  -12.1070   18.1310 C   0  0  0  0  0  2  0  0  0  0  0  0
  -29.1220  -12.1180   18.5600 C   0  0  0  0  0  2  0  0  0  0  0  0
  -28.7940  -13.2750   19.5400 C   0  0  0  0  0  3  0  0  0  0  0  0
  -29.8290  -13.3520   20.6840 C   0  0  0  0  0  2  0  0  0  0  0  0
  -31.1680  -13.4530   20.0830 N   0  0  0  0  0  0  0  0  0  0  0  0
  -33.0030  -14.6100   19.3830 O   0  0  0  0  0  0  0  0  0  0  0  0
  -31.4430  -15.7120   20.5260 N   0  0  0  0  0  0  0  0  0  0  0  0
  -32.1980  -16.1940   20.9920 H   0  0  0  0  0  0  0  0  0  0  0  0
  -26.5240  -14.1800   20.3450 C   0  0  0  0  0  0  0  0  0  0  0  0
  -25.3680  -13.5500   20.7180 C   0  0  0  0  0  0  0  0  0  0  0  0
  -25.6320  -12.1500   20.6210 C   0  0  0  0  0  0  0  0  0  0  0  0
  -27.4280  -13.1720   20.0500 N   0  0  0  0  0  0  0  0  0  0  0  0
  -26.8960  -11.9430   20.2730 N   0  0  0  0  0  0  0  0  0  0  0  0
  -24.7390  -10.9950   20.7860 C   0  0  0  0  0  0  0  0  0  0  0  0
  -25.0320   -9.9600   21.7000 C   0  0  0  0  0  3  0  0  0  0  0  0
  -24.1480   -8.8690   21.8540 C   0  0  0  0  0  3  0  0  0  0  0  0
  -22.9570   -8.8080   21.0930 C   0  0  0  0  0  0  0  0  0  0  0  0
  -22.6820   -9.8300   20.1680 C   0  0  0  0  0  3  0  0  0  0  0  0
  -23.5640  -10.9120   20.0110 C   0  0  0  0  0  3  0  0  0  0  0  0
  -22.0530   -7.7750   21.1560 O   0  0  0  0  0  0  0  0  0  0  0  0
  -21.8600   -7.0580   22.3100 C   0  0  0  0  0  0  0  0  0  0  0  0
  -21.4680   -7.6790   23.5160 C   0  0  0  0  0  3  0  0  0  0  0  0
  -21.2110   -6.8960   24.6590 C   0  0  0  0  0  3  0  0  0  0  0  0
  -21.3380   -5.4950   24.5970 C   0  0  0  0  0  0  0  0  0  0  0  0
  -21.7220   -4.8740   23.3960 C   0  0  0  0  0  3  0  0  0  0  0  0
  -21.9790   -5.6540   22.2540 C   0  0  0  0  0  0  0  0  0  0  0  0
  -22.3290   -5.0500   21.0940 F   0  0  0  0  0  0  0  0  0  0  0  0
  -21.0840   -4.7420   25.6940 F   0  0  0  0  0  0  0  0  0  0  0  0
  -24.0590  -14.2070   21.0520 C   0  0  0  0  0  0  0  0  0  0  0  0
  -23.2710  -13.5950   21.9290 N   0  0  0  0  0  0  0  0  0  0  0  0
  -23.7500  -15.2960   20.5700 O   0  0  0  0  0  0  0  0  0  0  0  0
  -23.5340  -12.7120   22.3410 H   0  0  0  0  0  0  0  0  0  0  0  0
  -22.3910  -14.0150   22.1930 H   0  0  0  0  0  0  0  0  0  0  0  0
  -26.8760  -15.5200   20.2140 N   0  0  0  0  0  0  0  0  0  0  0  0
  -26.2150  -16.2720   20.3760 H   0  0  0  0  0  0  0  0  0  0  0  0
  -27.7740  -15.8480   19.8830 H   0  0  0  0  0  0  0  0  0  0  0  0
  -28.8180  -25.5830   19.4600 C   0  0  0  0  0  2  0  0  0  0  0  0
  -28.6220  -26.7940   20.2430 O   0  0  0  0  0  0  0  0  0  0  0  0
  -24.7230  -31.9270   23.3200 C   0  0  0  0  0  0  0  0  0  0  0  0
  -27.4320  -27.5140   20.2010 C   0  0  0  0  0  0  0  0  0  0  0  0
  -23.5480  -30.5390   21.6480 C   0  0  0  0  0  3  0  0  0  0  0  0
  -25.0280  -29.0380   20.2150 C   0  0  0  0  0  0  0  0  0  0  0  0
  -26.0780  -30.9100   21.4880 C   0  0  0  0  0  2  0  0  0  0  0  0
  -26.1790  -29.5480   20.8260 C   0  0  0  0  0  0  0  0  0  0  0  0
  -27.3780  -28.7930   20.8190 C   0  0  0  0  0  3  0  0  0  0  0  0
  -26.2530  -27.0400   19.5730 C   0  0  0  0  0  3  0  0  0  0  0  0
  -25.0620  -27.7860   19.5880 C   0  0  0  0  0  3  0  0  0  0  0  0
  -23.7780  -29.8870   20.2610 C   0  0  0  0  0  2  0  0  0  0  0  0
  -24.8010  -31.1410   22.2090 N   0  0  0  0  0  0  0  0  0  0  0  0
  -23.6340  -32.1830   23.8510 O   0  0  0  0  0  0  0  0  0  0  0  0
  -22.8980  -29.4950   22.5870 C   0  0  0  0  0  0  0  0  0  0  0  0
  -21.5750  -29.3060   22.4480 N   0  0  0  0  0  0  0  0  0  0  0  0
  -23.5810  -28.8600   23.3950 O   0  0  0  0  0  0  0  0  0  0  0  0
  -21.0870  -29.8720   21.7700 H   0  0  0  0  0  0  0  0  0  0  0  0
  -18.2050  -28.0840   22.9100 C   0  0  0  0  0  0  0  0  0  0  0  0
  -20.7600  -28.3500   23.1990 C   0  0  0  0  0  3  0  0  0  0  0  0
  -20.8720  -26.9310   22.5970 C   0  0  0  0  0  2  0  0  0  0  0  0
  -19.7760  -26.6200   21.5720 C   0  0  0  0  0  2  0  0  0  0  0  0
  -18.3910  -26.7480   22.2120 C   0  0  0  0  0  2  0  0  0  0  0  0
  -19.3180  -28.8440   23.3600 C   0  0  0  0  0  0  0  0  0  0  0  0
  -19.0910  -30.0960   23.9710 C   0  0  0  0  0  3  0  0  0  0  0  0
  -17.7830  -30.5890   24.1380 C   0  0  0  0  0  3  0  0  0  0  0  0
  -16.6840  -29.8260   23.7060 C   0  0  0  0  0  3  0  0  0  0  0  0
  -16.8960  -28.5750   23.0990 C   0  0  0  0  0  3  0  0  0  0  0  0
  -25.9960  -32.5630   23.9610 C   0  0  0  0  0  3  0  0  0  0  0  0
  -25.6890  -33.9710   24.2520 N   0  0  0  0  0  0  0  0  0  0  0  0
  -26.0430  -35.0020   23.4750 C   0  0  0  0  0  0  0  0  0  0  0  0
  -26.7350  -34.8700   22.4600 O   0  0  0  0  0  0  0  0  0  0  0  0
  -25.0830  -34.1480   25.0380 H   0  0  0  0  0  0  0  0  0  0  0  0
  -24.3340  -36.7940   23.0370 C   0  0  0  0  0  1  0  0  0  0  0  0
  -25.5530  -36.4030   23.8880 C   0  0  0  0  0  3  0  0  0  0  0  0
  -27.6750  -37.2920   24.7460 C   0  0  0  0  0  1  0  0  0  0  0  0
  -26.5950  -37.4470   23.7750 N   0  0  0  0  0  0  0  0  0  0  0  0
  -26.1920  -38.3720   23.8930 H   0  0  0  0  0  0  0  0  0  0  0  0
  -26.4750  -31.8160   25.2660 C   0  0  1  0  0  0  0  0  0  0  0  0
  -25.3500  -31.5930   26.3030 C   0  0  0  0  0  1  0  0  0  0  0  0
  -27.0760  -30.4330   24.9170 C   0  0  0  0  0  1  0  0  0  0  0  0
  -27.6030  -32.6250   25.9500 C   0  0  0  0  0  1  0  0  0  0  0  0
  1  9  1  0
  1  2  1  0
  2  3  1  0
  3  5  1  0
  3  6  1  0
  4  8  1  0
  4  2  2  0
  7  4  1  0
  9 15  1  0
 10 11  1  0
 12 10  2  0
 13 14  1  0
 14 16  1  0
 14 11  2  0
 15 13  2  0
 15 12  1  0
 17 16  1  0
 17 26  1  0
 18 24  1  0
 18 26  1  0
 19 24  1  0
 20 21  1  0
 20 19  1  0
 22 21  1  0
 22 31  1  0
 22 23  1  0
 24 23  1  0
 25 18  2  0
 26 27  1  0
 28 29  2  0
 29 48  1  0
 30 29  1  0
 30 33  1  0
 31 32  1  0
 31 28  1  0
 32 30  2  0
 33 34  1  0
 34 35  2  0
 36 39  1  0
 36 35  1  0
 37 36  2  0
 38 37  1  0
 38 33  2  0
 39 40  1  0
 40 41  1  0
 41 42  2  0
 43 42  1  0
 43 47  1  0
 44 43  2  0
 45 40  2  0
 45 44  1  0
 46 45  1  0
 48 49  1  0
 49 52  1  0
 49 51  1  0
 50 48  2  0
 53 28  1  0
 53 54  1  0
 55 53  1  0
 56  1  1  0
 56 57  1  0
 58 69  2  0
 59 57  1  0
 59 64  1  0
 60 68  1  0
 60 70  1  0
 61 67  1  0
 61 63  1  0
 62 68  1  0
 63 62  1  0
 64 63  2  0
 65 66  1  0
 65 59  2  0
 66 61  2  0
 67 60  1  0
 68 58  1  0
 70 72  2  0
 71 70  1  0
 73 71  1  0
 74 83  2  0
 74 79  1  0
 75 71  1  0
 75 79  1  0
 76 75  1  0
 77 78  1  0
 77 76  1  0
 78 74  1  0
 79 80  2  0
 80 81  1  0
 82 81  2  0
 83 82  1  0
 84 58  1  0
 84 85  1  0
 84 94  1  0
 85 88  1  0
 86 90  1  0
 86 85  1  0
 87 86  2  0
 90 89  1  0
 92 90  1  0
 92 93  1  0
 92 91  1  0
 94 97  1  1
 94 95  1  0
 96 94  1  0
M  ISO  4  18 100  26 100  56 101  57 101
M  END
>  <TORSDO>  (41) 
F 22

>  <SCORE>  (41) 
-11.957

>  <name>  (41) 
40

>  <ligand_id>  (41) 
40

>  <original_smiles>  (41) 
[H]c1c([H])c([H])c2c(c1[H])C([H])([H])C([H])([H])C([H])([H])C2([H])N([H])C(=O)C1([H])N(C(=O)C([H])(N([H])C(=O)C([H])(N([H])C([H])([H])[H])C([H])([H])[H])C(C([H])([H])[H])(C([H])([H])[H])C([H])([H])[H])C([H])([H])c2c([H])c(OC([H])([H])C([H])(C(N([H])[H])=[N+]([H])[H])C([H])([H])c3c([H])c([H])c([H])c(C([H])([H])C([H])([H])N([H])C(=O)N4C([H])([H])C([H])([H])C([H])([H])C([H])(n5nc(-c6c([H])c([H])c(Oc7c([H])c([H])c(F)c([H])c7F)c([H])c6[H])c(C(=O)N([H])[H])c5N([H])[H])C4([H])[H])c3[H])c([H])c([H])c2C1([H])[H]

>  <smiles>  (41) 
[H]c1c([H])c([H])c2c(c1[H])C([H])([H])C([H])([H])C([H])([H])C2([H])N([H])C(=O)C1([H])N(C(=O)C([H])(N([H])C(=O)C([H])(N([H])C([H])([H])[H])C([H])([H])[H])C(C([H])([H])[H])(C([H])([H])[H])C([H])([H])[H])C([H])([H])c2c([H])c(OC([H])([H])C([H])(C(N([H])[H])=[N+]([H])[H])C([H])([H])c3c([H])c([H])c([H])c(C([H])([H])C([H])([H])N([H])C(=O)N4C([H])([H])C([H])([H])C([H])([H])C([H])(n5nc(-c6c([H])c([H])c(Oc7c([H])c([H])c(F)c([H])c7F)c([H])c6[H])c(C(=O)N([H])[H])c5N([H])[H])C4([H])[H])c3[H])c([H])c([H])c2C1([H])[H]

$$$$
41:0:0
     RDKit          3D

 98106  0  0  1  0  0  0  0  0999 V2000
  -28.4920  -20.4850   18.9290 C   0  0  0  0  0  3  0  0  0  0  0  0
  -29.7380  -19.7190   19.3600 C   0  0  0  0  0  3  0  0  0  0  0  0
  -29.0560  -19.3960   18.0360 C   0  0  0  0  0  3  0  0  0  0  0  0
  -28.1960  -18.1930   17.9520 N   0  0  0  0  0  4  0  0  0  0  0  0
  -27.6090  -18.0620   18.7540 H   0  0  0  0  0  0  0  0  0  0  0  0
  -28.7440  -17.3650   17.7990 H   0  0  0  0  0  0  0  0  0  0  0  0
  -27.5870  -18.2790   17.1570 H   0  0  0  0  0  0  0  0  0  0  0  0
  -28.5700  -21.9440   18.4910 C   0  0  0  0  0  2  0  0  0  0  0  0
  -28.6170  -22.9490   19.6460 C   0  0  0  0  0  0  0  0  0  0  0  0
  -28.7570  -22.5680   20.8140 O   0  0  0  0  0  0  0  0  0  0  0  0
  -28.5010  -24.4330   19.2720 C   0  0  0  0  0  2  0  0  0  0  0  0
  -28.3460  -25.3730   20.4820 C   0  0  0  0  0  2  0  0  0  0  0  0
  -28.4010  -26.7530   20.1020 O   0  0  0  0  0  0  0  0  0  0  0  0
  -24.5920  -31.8820   23.2080 C   0  0  0  0  0  0  0  0  0  0  0  0
  -27.2160  -27.4510   20.1140 C   0  0  0  0  0  0  0  0  0  0  0  0
  -23.3750  -30.4850   21.5690 C   0  0  0  0  0  3  0  0  0  0  0  0
  -24.8170  -28.9450   20.1390 C   0  0  0  0  0  0  0  0  0  0  0  0
  -25.8980  -30.8450   21.3560 C   0  0  0  0  0  2  0  0  0  0  0  0
  -25.9790  -29.4760   20.7150 C   0  0  0  0  0  0  0  0  0  0  0  0
  -27.1820  -28.7380   20.6940 C   0  0  0  0  0  3  0  0  0  0  0  0
  -26.0370  -26.9260   19.5400 C   0  0  0  0  0  3  0  0  0  0  0  0
  -24.8410  -27.6680   19.5490 C   0  0  0  0  0  3  0  0  0  0  0  0
  -23.5740  -29.8030   20.1890 C   0  0  0  0  0  2  0  0  0  0  0  0
  -24.6400  -31.0850   22.1040 N   0  0  0  0  0  0  0  0  0  0  0  0
  -23.5130  -32.1550   23.7540 O   0  0  0  0  0  0  0  0  0  0  0  0
  -22.7250  -29.4650   22.5310 C   0  0  0  0  0  0  0  0  0  0  0  0
  -21.3990  -29.2890   22.4080 N   0  0  0  0  0  0  0  0  0  0  0  0
  -23.4090  -28.8350   23.3410 O   0  0  0  0  0  0  0  0  0  0  0  0
  -20.9080  -29.8480   21.7240 H   0  0  0  0  0  0  0  0  0  0  0  0
  -18.0230  -28.1020   22.9030 C   0  0  0  0  0  0  0  0  0  0  0  0
  -20.5800  -28.3530   23.1780 C   0  0  0  0  0  3  0  0  0  0  0  0
  -20.6800  -26.9220   22.6020 C   0  0  0  0  0  2  0  0  0  0  0  0
  -19.5800  -26.6010   21.5870 C   0  0  0  0  0  2  0  0  0  0  0  0
  -18.1970  -26.7510   22.2290 C   0  0  0  0  0  2  0  0  0  0  0  0
  -19.1430  -28.8620   23.3340 C   0  0  0  0  0  0  0  0  0  0  0  0
  -18.9270  -30.1270   23.9210 C   0  0  0  0  0  3  0  0  0  0  0  0
  -17.6230  -30.6320   24.0830 C   0  0  0  0  0  3  0  0  0  0  0  0
  -16.5170  -29.8690   23.6710 C   0  0  0  0  0  3  0  0  0  0  0  0
  -16.7180  -28.6050   23.0860 C   0  0  0  0  0  3  0  0  0  0  0  0
  -25.8820  -32.5070   23.8240 C   0  0  0  0  0  3  0  0  0  0  0  0
  -26.4110  -31.7230   25.0880 C   0  0  1  0  0  0  0  0  0  0  0  0
  -25.3270  -31.4740   26.1630 C   0  0  0  0  0  1  0  0  0  0  0  0
  -26.9910  -30.3500   24.6740 C   0  0  0  0  0  1  0  0  0  0  0  0
  -27.5690  -32.5100   25.7460 C   0  0  0  0  0  1  0  0  0  0  0  0
  -25.5780  -33.9020   24.1670 N   0  0  0  0  0  0  0  0  0  0  0  0
  -25.9090  -34.9590   23.4140 C   0  0  0  0  0  0  0  0  0  0  0  0
  -26.5740  -34.8630   22.3790 O   0  0  0  0  0  0  0  0  0  0  0  0
  -24.9860  -34.0510   24.9710 H   0  0  0  0  0  0  0  0  0  0  0  0
  -24.1810  -36.7550   23.0780 C   0  0  0  0  0  1  0  0  0  0  0  0
  -25.4240  -36.3430   23.8830 C   0  0  0  0  0  3  0  0  0  0  0  0
  -27.5630  -37.2170   24.7130 C   0  0  0  0  0  1  0  0  0  0  0  0
  -26.4580  -37.3960   23.7760 N   0  0  0  0  0  0  0  0  0  0  0  0
  -26.0530  -38.3150   23.9340 H   0  0  0  0  0  0  0  0  0  0  0  0
  -29.7650  -18.8220   20.6030 C   0  0  0  0  0  3  0  0  0  0  0  0
  -30.0100  -19.6680   21.7900 N   0  0  0  0  0  4  0  0  0  0  0  0
  -30.9290  -20.0700   21.7670 H   0  0  0  0  0  0  0  0  0  0  0  0
  -29.9110  -19.1470   22.6440 H   0  0  0  0  0  0  0  0  0  0  0  0
  -29.3480  -20.4270   21.8190 H   0  0  0  0  0  0  0  0  0  0  0  0
  -30.8440  -17.7140   20.4540 C   0  0  0  0  0  2  0  0  0  0  0  0
  -30.8770  -16.6100   21.5490 C   0  0  0  0  0  2  0  0  0  0  0  0
  -30.8550  -14.4060   20.3580 C   0  0  0  0  0  0  0  0  0  0  0  0
  -30.4670  -12.3130   19.1110 C   0  0  0  0  0  2  0  0  0  0  0  0
  -29.5040  -12.5680   17.9360 C   0  0  0  0  0  2  0  0  0  0  0  0
  -28.0370  -12.4490   18.3920 C   0  0  0  0  0  2  0  0  0  0  0  0
  -27.7430  -13.2640   19.6800 C   0  0  0  0  0  3  0  0  0  0  0  0
  -28.8110  -12.9820   20.7600 C   0  0  0  0  0  2  0  0  0  0  0  0
  -30.1350  -13.2670   20.1790 N   0  0  0  0  0  0  0  0  0  0  0  0
  -31.9310  -14.6240   19.7960 O   0  0  0  0  0  0  0  0  0  0  0  0
  -30.2820  -15.3320   21.1440 N   0  0  0  0  0  0  0  0  0  0  0  0
  -29.4010  -15.0730   21.5650 H   0  0  0  0  0  0  0  0  0  0  0  0
  -25.3590  -13.9070   20.4110 C   0  0  0  0  0  0  0  0  0  0  0  0
  -24.2860  -13.1490   20.7970 C   0  0  0  0  0  0  0  0  0  0  0  0
  -24.7320  -11.7930   20.7700 C   0  0  0  0  0  0  0  0  0  0  0  0
  -26.3910  -13.0120   20.1750 N   0  0  0  0  0  0  0  0  0  0  0  0
  -26.0170  -11.7360   20.4460 N   0  0  0  0  0  0  0  0  0  0  0  0
  -23.9940  -10.5400   20.9790 C   0  0  0  0  0  0  0  0  0  0  0  0
  -24.4360   -9.5700   21.9050 C   0  0  0  0  0  3  0  0  0  0  0  0
  -23.7000   -8.3820   22.1020 C   0  0  0  0  0  3  0  0  0  0  0  0
  -22.5100   -8.1550   21.3720 C   0  0  0  0  0  0  0  0  0  0  0  0
  -22.0870   -9.1150   20.4340 C   0  0  0  0  0  3  0  0  0  0  0  0
  -22.8230  -10.2950   20.2360 C   0  0  0  0  0  3  0  0  0  0  0  0
  -21.7440   -7.0200   21.4780 O   0  0  0  0  0  0  0  0  0  0  0  0
  -21.7160   -6.2760   22.6300 C   0  0  0  0  0  0  0  0  0  0  0  0
  -21.3370   -6.8360   23.8690 C   0  0  0  0  0  3  0  0  0  0  0  0
  -21.2540   -6.0200   25.0150 C   0  0  0  0  0  3  0  0  0  0  0  0
  -21.5400   -4.6450   24.9230 C   0  0  0  0  0  0  0  0  0  0  0  0
  -21.9130   -4.0840   23.6880 C   0  0  0  0  0  3  0  0  0  0  0  0
  -21.9970   -4.8980   22.5440 C   0  0  0  0  0  0  0  0  0  0  0  0
  -22.3360   -4.3490   21.3530 F   0  0  0  0  0  0  0  0  0  0  0  0
  -21.4540   -3.8580   26.0210 F   0  0  0  0  0  0  0  0  0  0  0  0
  -22.8990  -13.6450   21.0850 C   0  0  0  0  0  0  0  0  0  0  0  0
  -22.1750  -12.9630   21.9670 N   0  0  0  0  0  0  0  0  0  0  0  0
  -22.4640  -14.6720   20.5640 O   0  0  0  0  0  0  0  0  0  0  0  0
  -22.5390  -12.1320   22.4090 H   0  0  0  0  0  0  0  0  0  0  0  0
  -21.2440  -13.2760   22.2030 H   0  0  0  0  0  0  0  0  0  0  0  0
  -25.5390  -15.2740   20.2250 N   0  0  0  0  0  0  0  0  0  0  0  0
  -24.7890  -15.9430   20.3610 H   0  0  0  0  0  0  0  0  0  0  0  0
  -26.4130  -15.7010   19.9530 H   0  0  0  0  0  0  0  0  0  0  0  0
  1  8  1  0
  1  2  1  0
  2 54  1  0
  3  4  1  0
  3  1  1  0
  3  2  1  0
  4  5  1  0
  6  4  1  0
  7  4  1  0
  8  9  1  0
  9 10  2  0
 11  9  1  0
 11 12  1  0
 13 15  1  0
 13 12  1  0
 14 25  2  0
 15 20  1  0
 16 24  1  0
 16 26  1  0
 17 23  1  0
 17 19  1  0
 18 24  1  0
 19 18  1  0
 20 19  2  0
 21 22  1  0
 21 15  2  0
 22 17  2  0
 23 16  1  0
 24 14  1  0
 26 28  2  0
 27 26  1  0
 29 27  1  0
 30 39  2  0
 30 35  1  0
 31 27  1  0
 31 35  1  0
 32 31  1  0
 33 34  1  0
 33 32  1  0
 34 30  1  0
 35 36  2  0
 36 37  1  0
 38 37  2  0
 39 38  1  0
 40 14  1  0
 40 45  1  0
 40 41  1  0
 41 44  1  1
 41 42  1  0
 43 41  1  0
 45 48  1  0
 46 50  1  0
 46 45  1  0
 47 46  2  0
 50 49  1  0
 52 50  1  0
 52 53  1  0
 52 51  1  0
 54 59  1  0
 54 55  1  0
 55 58  1  0
 55 57  1  0
 56 55  1  0
 59 60  1  0
 61 69  1  0
 62 67  1  0
 63 64  1  0
 63 62  1  0
 65 64  1  0
 65 74  1  0
 65 66  1  0
 67 61  1  0
 67 66  1  0
 68 61  2  0
 69 60  1  0
 69 70  1  0
 71 72  2  0
 72 91  1  0
 73 72  1  0
 73 76  1  0
 74 71  1  0
 74 75  1  0
 75 73  2  0
 76 77  1  0
 77 78  2  0
 79 82  1  0
 79 78  1  0
 80 79  2  0
 81 80  1  0
 81 76  2  0
 82 83  1  0
 83 84  1  0
 84 85  2  0
 86 85  1  0
 86 90  1  0
 87 86  2  0
 88 83  2  0
 88 87  1  0
 89 88  1  0
 91 92  1  0
 92 95  1  0
 92 94  1  0
 93 91  2  0
 96 97  1  0
 96 71  1  0
 98 96  1  0
M  ISO  4  12 101  13 101  61 100  69 100
M  END
>  <TORSDO>  (42) 
F 25

>  <SCORE>  (42) 
-12.800

>  <name>  (42) 
41

>  <ligand_id>  (42) 
41

>  <original_smiles>  (42) 
[H]c1c([H])c([H])c2c(c1[H])C([H])([H])C([H])([H])C([H])([H])C2([H])N([H])C(=O)C1([H])N(C(=O)C([H])(N([H])C(=O)C([H])(N([H])C([H])([H])[H])C([H])([H])[H])C(C([H])([H])[H])(C([H])([H])[H])C([H])([H])[H])C([H])([H])c2c([H])c(OC([H])([H])C([H])([H])C(=O)C([H])([H])C3([H])C([H])(C([H])(C([H])([H])C([H])([H])N([H])C(=O)N4C([H])([H])C([H])([H])C([H])([H])C([H])(n5nc(-c6c([H])c([H])c(Oc7c([H])c([H])c(F)c([H])c7F)c([H])c6[H])c(C(=O)N([H])[H])c5N([H])[H])C4([H])[H])[N+]([H])([H])[H])C3([H])[N+]([H])([H])[H])c([H])c([H])c2C1([H])[H]

>  <smiles>  (42) 
[H]c1c([H])c([H])c2c(c1[H])C([H])([H])C([H])([H])C([H])([H])C2([H])N([H])C(=O)C1([H])N(C(=O)C([H])(N([H])C(=O)C([H])(N([H])C([H])([H])[H])C([H])([H])[H])C(C([H])([H])[H])(C([H])([H])[H])C([H])([H])[H])C([H])([H])c2c([H])c(OC([H])([H])C([H])([H])C(=O)C([H])([H])C3([H])C([H])(C([H])(C([H])([H])C([H])([H])N([H])C(=O)N4C([H])([H])C([H])([H])C([H])([H])C([H])(n5nc(-c6c([H])c([H])c(Oc7c([H])c([H])c(F)c([H])c7F)c([H])c6[H])c(C(=O)N([H])[H])c5N([H])[H])C4([H])[H])[N+]([H])([H])[H])C3([H])[N+]([H])([H])[H])c([H])c([H])c2C1([H])[H]

$$$$
42:0:0
     RDKit          3D

100109  0  0  1  0  0  0  0  0999 V2000
  -30.6980  -21.2750   20.1250 C   0  0  0  0  0  0  0  0  0  0  0  0
  -29.3690  -21.3950   20.4080 C   0  0  0  0  0  0  0  0  0  0  0  0
  -33.4980  -19.2740   21.7280 C   0  0  0  0  0  3  0  0  0  0  0  0
  -32.7180  -20.3450   21.2570 C   0  0  0  0  0  3  0  0  0  0  0  0
  -33.0750  -17.9480   21.5220 C   0  0  0  0  0  3  0  0  0  0  0  0
  -31.0970  -18.7700   20.3530 C   0  0  0  0  0  3  0  0  0  0  0  0
  -31.5070  -20.1110   20.5690 C   0  0  0  0  0  0  0  0  0  0  0  0
  -31.8700  -17.6830   20.8300 C   0  0  0  0  0  0  0  0  0  0  0  0
  -32.0360  -15.2980   20.1430 C   0  0  0  0  0  0  0  0  0  0  0  0
  -31.7340  -13.0040   19.2850 C   0  0  0  0  0  2  0  0  0  0  0  0
  -30.8060  -13.0200   18.0540 C   0  0  0  0  0  2  0  0  0  0  0  0
  -29.3290  -12.9390   18.4850 C   0  0  0  0  0  2  0  0  0  0  0  0
  -28.9740  -13.9580   19.6000 C   0  0  0  0  0  3  0  0  0  0  0  0
  -30.0130  -13.9090   20.7430 C   0  0  0  0  0  2  0  0  0  0  0  0
  -31.3460  -14.1260   20.1520 N   0  0  0  0  0  0  0  0  0  0  0  0
  -33.1360  -15.4170   19.5950 O   0  0  0  0  0  0  0  0  0  0  0  0
  -31.3830  -16.3540   20.6640 N   0  0  0  0  0  0  0  0  0  0  0  0
  -30.4270  -16.1830   20.9310 H   0  0  0  0  0  0  0  0  0  0  0  0
  -26.6390  -14.6920   20.4020 C   0  0  0  0  0  0  0  0  0  0  0  0
  -25.5280  -13.9740   20.7550 C   0  0  0  0  0  0  0  0  0  0  0  0
  -25.8910  -12.5980   20.6370 C   0  0  0  0  0  0  0  0  0  0  0  0
  -27.6140  -13.7540   20.0960 N   0  0  0  0  0  0  0  0  0  0  0  0
  -27.1670  -12.4870   20.2930 N   0  0  0  0  0  0  0  0  0  0  0  0
  -25.0820  -11.3810   20.7750 C   0  0  0  0  0  0  0  0  0  0  0  0
  -25.3840  -10.3990   21.7450 C   0  0  0  0  0  3  0  0  0  0  0  0
  -24.5800   -9.2460   21.8710 C   0  0  0  0  0  3  0  0  0  0  0  0
  -23.4600   -9.0650   21.0250 C   0  0  0  0  0  0  0  0  0  0  0  0
  -23.1780  -10.0340   20.0460 C   0  0  0  0  0  3  0  0  0  0  0  0
  -23.9820  -11.1800   19.9180 C   0  0  0  0  0  3  0  0  0  0  0  0
  -22.6390   -7.9650   21.0570 O   0  0  0  0  0  0  0  0  0  0  0  0
  -22.3490   -7.3170   22.2310 C   0  0  0  0  0  0  0  0  0  0  0  0
  -21.7210   -7.9760   23.3100 C   0  0  0  0  0  3  0  0  0  0  0  0
  -21.3790   -7.2550   24.4720 C   0  0  0  0  0  3  0  0  0  0  0  0
  -21.6540   -5.8770   24.5540 C   0  0  0  0  0  0  0  0  0  0  0  0
  -22.2760   -5.2180   23.4770 C   0  0  0  0  0  3  0  0  0  0  0  0
  -22.6190   -5.9360   22.3190 C   0  0  0  0  0  0  0  0  0  0  0  0
  -23.1980   -5.2920   21.2760 F   0  0  0  0  0  0  0  0  0  0  0  0
  -21.3200   -5.1820   25.6660 F   0  0  0  0  0  0  0  0  0  0  0  0
  -24.1740  -14.5310   21.0900 C   0  0  0  0  0  0  0  0  0  0  0  0
  -23.4340  -13.8560   21.9630 N   0  0  0  0  0  0  0  0  0  0  0  0
  -23.7840  -15.5970   20.6150 O   0  0  0  0  0  0  0  0  0  0  0  0
  -23.7610  -12.9920   22.3680 H   0  0  0  0  0  0  0  0  0  0  0  0
  -22.5260  -14.2110   22.2300 H   0  0  0  0  0  0  0  0  0  0  0  0
  -26.8970  -16.0540   20.2960 N   0  0  0  0  0  0  0  0  0  0  0  0
  -26.1810  -16.7540   20.4610 H   0  0  0  0  0  0  0  0  0  0  0  0
  -27.7660  -16.4510   19.9620 H   0  0  0  0  0  0  0  0  0  0  0  0
  -29.0150  -23.9240   20.4920 C   0  0  0  0  0  1  0  0  0  0  0  0
  -28.5170  -22.5790   19.9450 C   0  0  0  0  0  2  0  0  0  0  0  0
  -27.9200  -19.2800   20.3970 C   0  0  0  0  0  1  0  0  0  0  0  0
  -28.5880  -20.3770   21.2420 C   0  0  0  0  0  2  0  0  0  0  0  0
  -31.4740  -22.3290   19.3240 C   0  0  0  0  0  2  0  0  0  0  0  0
  -31.0340  -22.4360   17.8460 C   0  0  0  0  0  2  0  0  0  0  0  0
  -29.8260  -25.3100   16.0310 C   0  0  0  0  0  2  0  0  0  0  0  0
  -30.5660  -23.9680   15.9430 C   0  0  0  0  0  2  0  0  0  0  0  0
  -30.9670  -24.9640   18.0800 C   0  0  0  0  0  2  0  0  0  0  0  0
  -30.6240  -26.0800   17.0790 C   0  0  0  0  0  3  0  0  0  0  0  0
  -31.2670  -23.7750   17.2380 N   0  0  1  0  0  4  0  0  0  0  0  0
  -32.2530  -23.8250   17.0190 H   0  0  0  0  0  0  0  0  0  0  0  0
  -29.9700  -27.3780   17.6170 C   0  0  0  0  0  2  0  0  0  0  0  0
  -29.4020  -27.2570   18.9190 O   0  0  0  0  0  0  0  0  0  0  0  0
  -24.8060  -30.7650   23.0700 C   0  0  0  0  0  0  0  0  0  0  0  0
  -28.1210  -27.7310   19.0700 C   0  0  0  0  0  0  0  0  0  0  0  0
  -23.8210  -29.5310   21.1650 C   0  0  0  0  0  3  0  0  0  0  0  0
  -25.4800  -28.6580   19.4330 C   0  0  0  0  0  0  0  0  0  0  0  0
  -26.2130  -30.4270   21.0430 C   0  0  0  0  0  2  0  0  0  0  0  0
  -26.5360  -29.2690   20.1210 C   0  0  0  0  0  0  0  0  0  0  0  0
  -27.8590  -28.8030   19.9510 C   0  0  0  0  0  3  0  0  0  0  0  0
  -27.0490  -27.1210   18.3880 C   0  0  0  0  0  3  0  0  0  0  0  0
  -25.7290  -27.5770   18.5680 C   0  0  0  0  0  3  0  0  0  0  0  0
  -24.0940  -29.2160   19.6700 C   0  0  0  0  0  2  0  0  0  0  0  0
  -24.9650  -30.2450   21.8200 N   0  0  0  0  0  0  0  0  0  0  0  0
  -23.7210  -30.6920   23.6620 O   0  0  0  0  0  0  0  0  0  0  0  0
  -23.4300  -28.2200   21.8830 C   0  0  0  0  0  0  0  0  0  0  0  0
  -22.1860  -27.7650   21.6620 N   0  0  0  0  0  0  0  0  0  0  0  0
  -24.2420  -27.6210   22.5940 O   0  0  0  0  0  0  0  0  0  0  0  0
  -21.5780  -28.3170   21.0730 H   0  0  0  0  0  0  0  0  0  0  0  0
  -19.2140  -25.7110   21.7010 C   0  0  0  0  0  0  0  0  0  0  0  0
  -21.6130  -26.5320   22.2010 C   0  0  0  0  0  3  0  0  0  0  0  0
  -22.0920  -25.3000   21.4000 C   0  0  0  0  0  2  0  0  0  0  0  0
  -21.1380  -24.9080   20.2670 C   0  0  0  0  0  2  0  0  0  0  0  0
  -19.7470  -24.5920   20.8230 C   0  0  0  0  0  2  0  0  0  0  0  0
  -20.0900  -26.6310   22.3360 C   0  0  0  0  0  0  0  0  0  0  0  0
  -19.5420  -27.6740   23.1140 C   0  0  0  0  0  3  0  0  0  0  0  0
  -18.1480  -27.8050   23.2630 C   0  0  0  0  0  3  0  0  0  0  0  0
  -17.2860  -26.8820   22.6450 C   0  0  0  0  0  3  0  0  0  0  0  0
  -17.8190  -25.8360   21.8710 C   0  0  0  0  0  3  0  0  0  0  0  0
  -25.9730  -31.4950   23.8070 C   0  0  0  0  0  3  0  0  0  0  0  0
  -25.4860  -32.8240   24.1990 N   0  0  0  0  0  0  0  0  0  0  0  0
  -25.7780  -33.9610   23.5540 C   0  0  0  0  0  0  0  0  0  0  0  0
  -26.5560  -34.0080   22.5970 O   0  0  0  0  0  0  0  0  0  0  0  0
  -24.7980  -32.8540   24.9380 H   0  0  0  0  0  0  0  0  0  0  0  0
  -23.9020  -35.5850   23.1490 C   0  0  0  0  0  1  0  0  0  0  0  0
  -25.1010  -35.2520   24.0510 C   0  0  0  0  0  3  0  0  0  0  0  0
  -27.0420  -36.2870   25.1430 C   0  0  0  0  0  1  0  0  0  0  0  0
  -26.0170  -36.4120   24.1100 N   0  0  0  0  0  0  0  0  0  0  0  0
  -25.5000  -37.2710   24.2800 H   0  0  0  0  0  0  0  0  0  0  0  0
  -26.5090  -30.7030   25.0620 C   0  0  1  0  0  0  0  0  0  0  0  0
  -25.3960  -30.2700   26.0460 C   0  0  0  0  0  1  0  0  0  0  0  0
  -27.2680  -29.4290   24.6210 C   0  0  0  0  0  1  0  0  0  0  0  0
  -27.5240  -31.5750   25.8390 C   0  0  0  0  0  1  0  0  0  0  0  0
  1  2  2  0
  1  7  1  0
  2 50  1  0
  4  3  2  0
  5  3  1  0
  6  7  2  0
  6  8  1  0
  7  4  1  0
  8  5  2  0
  9 15  1  0
  9 17  1  0
 10 15  1  0
 11 12  1  0
 11 10  1  0
 13 12  1  0
 13 22  1  0
 13 14  1  0
 15 14  1  0
 16  9  2  0
 17  8  1  0
 17 18  1  0
 19 20  2  0
 20 39  1  0
 21 20  1  0
 21 24  1  0
 22 23  1  0
 22 19  1  0
 23 21  2  0
 24 25  1  0
 25 26  2  0
 27 30  1  0
 27 26  1  0
 28 27  2  0
 29 28  1  0
 29 24  2  0
 30 31  1  0
 31 36  2  0
 31 32  1  0
 32 33  2  0
 33 34  1  0
 34 38  1  0
 35 34  2  0
 36 35  1  0
 37 36  1  0
 39 40  1  0
 40 43  1  0
 40 42  1  0
 41 39  2  0
 44 19  1  0
 44 45  1  0
 46 44  1  0
 48  2  1  0
 48 47  1  0
 49 50  1  0
 51  1  1  0
 52 51  1  0
 53 56  1  0
 54 53  1  0
 54 57  1  0
 56 59  1  0
 56 55  1  0
 57 52  1  0
 57 55  1  0
 57 58  1  6
 59 60  1  0
 60 62  1  0
 61 72  2  0
 62 67  1  0
 63 71  1  0
 63 73  1  0
 64 70  1  0
 64 66  1  0
 65 71  1  0
 66 65  1  0
 67 66  2  0
 68 69  1  0
 68 62  2  0
 69 64  2  0
 70 63  1  0
 71 61  1  0
 73 75  2  0
 74 73  1  0
 76 74  1  0
 77 86  2  0
 77 82  1  0
 78 74  1  0
 78 82  1  0
 79 78  1  0
 80 81  1  0
 80 79  1  0
 81 77  1  0
 82 83  2  0
 83 84  1  0
 85 84  2  0
 86 85  1  0
 87 61  1  0
 87 88  1  0
 87 97  1  0
 88 91  1  0
 89 93  1  0
 89 88  1  0
 90 89  2  0
 93 92  1  0
 93 95  1  0
 95 96  1  0
 95 94  1  0
 97100  1  1
 97 98  1  0
 99 97  1  0
M  ISO  4   9 100  17 100  59 101  60 101
M  END
>  <TORSDO>  (43) 
F 23

>  <SCORE>  (43) 
-6.605

>  <name>  (43) 
42

>  <ligand_id>  (43) 
42

>  <original_smiles>  (43) 
[H]c1c([H])c(C(=C(C([H])([H])C([H])([H])[H])C([H])([H])C([H])([H])[H])C([H])([H])C([H])([H])[N+]2([H])C([H])([H])C([H])([H])C([H])(C([H])([H])Oc3c([H])c([H])c4c(c3[H])C([H])([H])N(C(=O)C([H])(N([H])C(=O)C([H])(N([H])C([H])([H])[H])C([H])([H])[H])C(C([H])([H])[H])(C([H])([H])[H])C([H])([H])[H])C([H])(C(=O)N([H])C3([H])c5c([H])c([H])c([H])c([H])c5C([H])([H])C([H])([H])C3([H])[H])C4([H])[H])C2([H])[H])c([H])c(N([H])C(=O)N2C([H])([H])C([H])([H])C([H])([H])C([H])(n3nc(-c4c([H])c([H])c(Oc5c([H])c([H])c(F)c([H])c5F)c([H])c4[H])c(C(=O)N([H])[H])c3N([H])[H])C2([H])[H])c1[H]

>  <smiles>  (43) 
[H]c1c([H])c(C(=C(C([H])([H])C([H])([H])[H])C([H])([H])C([H])([H])[H])C([H])([H])C([H])([H])[N+]2([H])C([H])([H])C([H])([H])C([H])(C([H])([H])Oc3c([H])c([H])c4c(c3[H])C([H])([H])N(C(=O)C([H])(N([H])C(=O)C([H])(N([H])C([H])([H])[H])C([H])([H])[H])C(C([H])([H])[H])(C([H])([H])[H])C([H])([H])[H])C([H])(C(=O)N([H])C3([H])c5c([H])c([H])c([H])c([H])c5C([H])([H])C([H])([H])C3([H])[H])C4([H])[H])C2([H])[H])c([H])c(N([H])C(=O)N2C([H])([H])C([H])([H])C([H])([H])C([H])(n3nc(-c4c([H])c([H])c(Oc5c([H])c([H])c(F)c([H])c5F)c([H])c4[H])c(C(=O)N([H])[H])c3N([H])[H])C2([H])[H])c1[H]

$$$$
43:0:0
     RDKit          3D

 88 97  0  0  1  0  0  0  0  0999 V2000
  -28.1610  -21.1870   18.1690 C   0  0  0  0  0  1  0  0  0  0  0  0
  -28.6920  -21.2220   19.6150 C   0  0  0  0  0  3  0  0  0  0  0  0
  -29.9200  -18.6790   19.0240 C   0  0  0  0  0  3  0  0  0  0  0  0
  -29.4970  -19.7300   19.8460 C   0  0  0  0  0  3  0  0  0  0  0  0
  -29.9460  -17.7330   20.0370 C   0  0  0  0  0  3  0  0  0  0  0  0
  -29.5150  -18.7670   20.8320 C   0  0  0  0  0  0  0  0  0  0  0  0
  -29.1190  -18.7730   22.0210 N   0  0  0  0  0  2  0  0  0  0  0  0
  -30.0070  -16.4140   20.2310 N   0  0  0  0  0  2  0  0  0  0  0  0
  -28.8510  -17.8410   22.3200 H   0  0  0  0  0  0  0  0  0  0  0  0
  -30.8410  -15.2230   19.8390 C   0  0  0  0  0  0  0  0  0  0  0  0
  -30.6720  -12.8600   18.8480 C   0  0  0  0  0  2  0  0  0  0  0  0
  -29.6380  -12.8360   17.6930 C   0  0  0  0  0  2  0  0  0  0  0  0
  -28.2120  -12.6170   18.2340 C   0  0  0  0  0  2  0  0  0  0  0  0
  -27.9130  -13.5110   19.4630 C   0  0  0  0  0  3  0  0  0  0  0  0
  -29.0540  -13.4840   20.5010 C   0  0  0  0  0  2  0  0  0  0  0  0
  -30.2780  -13.9310   19.8210 N   0  0  0  0  0  0  0  0  0  0  0  0
  -32.0030  -15.2740   19.4200 O   0  0  0  0  0  0  0  0  0  0  0  0
  -25.6360  -14.1070   20.4600 C   0  0  0  0  0  0  0  0  0  0  0  0
  -24.5800  -13.3420   20.8710 C   0  0  0  0  0  0  0  0  0  0  0  0
  -24.9870  -11.9820   20.7060 C   0  0  0  0  0  0  0  0  0  0  0  0
  -26.6160  -13.2140   20.0620 N   0  0  0  0  0  0  0  0  0  0  0  0
  -26.2420  -11.9260   20.2750 N   0  0  0  0  0  0  0  0  0  0  0  0
  -24.2290  -10.7350   20.8750 C   0  0  0  0  0  0  0  0  0  0  0  0
  -24.6450   -9.7330   21.7790 C   0  0  0  0  0  3  0  0  0  0  0  0
  -23.8860   -8.5530   21.9380 C   0  0  0  0  0  3  0  0  0  0  0  0
  -22.6980   -8.3670   21.1930 C   0  0  0  0  0  0  0  0  0  0  0  0
  -22.3010   -9.3570   20.2770 C   0  0  0  0  0  3  0  0  0  0  0  0
  -23.0600  -10.5280   20.1160 C   0  0  0  0  0  3  0  0  0  0  0  0
  -21.9120   -7.2420   21.2610 O   0  0  0  0  0  0  0  0  0  0  0  0
  -21.7700   -6.5330   22.4270 C   0  0  0  0  0  0  0  0  0  0  0  0
  -21.2630   -7.1280   23.6020 C   0  0  0  0  0  3  0  0  0  0  0  0
  -21.0680   -6.3480   24.7600 C   0  0  0  0  0  3  0  0  0  0  0  0
  -21.3680   -4.9730   24.7420 C   0  0  0  0  0  0  0  0  0  0  0  0
  -21.8680   -4.3770   23.5710 C   0  0  0  0  0  3  0  0  0  0  0  0
  -22.0650   -5.1550   22.4160 C   0  0  0  0  0  0  0  0  0  0  0  0
  -22.5260   -4.5700   21.2840 F   0  0  0  0  0  0  0  0  0  0  0  0
  -21.1750   -4.2220   25.8510 F   0  0  0  0  0  0  0  0  0  0  0  0
  -23.2330  -13.8440   21.2990 C   0  0  0  0  0  0  0  0  0  0  0  0
  -22.5720  -13.1280   22.2010 N   0  0  0  0  0  0  0  0  0  0  0  0
  -22.7810  -14.9060   20.8710 O   0  0  0  0  0  0  0  0  0  0  0  0
  -22.9550  -12.2690   22.5640 H   0  0  0  0  0  0  0  0  0  0  0  0
  -21.6710  -13.4420   22.5330 H   0  0  0  0  0  0  0  0  0  0  0  0
  -25.8370  -15.4810   20.3690 N   0  0  0  0  0  0  0  0  0  0  0  0
  -25.1120  -16.1530   20.6010 H   0  0  0  0  0  0  0  0  0  0  0  0
  -26.6790  -15.9130   20.0100 H   0  0  0  0  0  0  0  0  0  0  0  0
  -28.9540  -22.9480   19.9810 C   0  0  0  0  0  3  0  0  0  0  0  0
  -28.0990  -24.5020   19.7920 C   0  0  0  0  0  3  0  0  0  0  0  0
  -28.4000  -26.0580   20.0260 O   0  0  0  0  0  0  0  0  0  0  0  0
  -24.6990  -31.7320   23.1620 C   0  0  0  0  0  0  0  0  0  0  0  0
  -27.3580  -27.0930   19.9820 C   0  0  0  0  0  0  0  0  0  0  0  0
  -23.5280  -30.3590   21.4900 C   0  0  0  0  0  3  0  0  0  0  0  0
  -25.0040  -28.8520   20.0090 C   0  0  0  0  0  0  0  0  0  0  0  0
  -26.0800  -30.6610   21.3300 C   0  0  0  0  0  2  0  0  0  0  0  0
  -26.1820  -29.2850   20.6320 C   0  0  0  0  0  0  0  0  0  0  0  0
  -27.3550  -28.4210   20.6010 C   0  0  0  0  0  3  0  0  0  0  0  0
  -26.1510  -26.7960   19.3080 C   0  0  0  0  0  3  0  0  0  0  0  0
  -25.0060  -27.6240   19.3300 C   0  0  0  0  0  3  0  0  0  0  0  0
  -23.7610  -29.7310   20.0900 C   0  0  0  0  0  2  0  0  0  0  0  0
  -24.7900  -30.9390   22.0500 N   0  0  0  0  0  0  0  0  0  0  0  0
  -23.6080  -31.9790   23.7000 O   0  0  0  0  0  0  0  0  0  0  0  0
  -22.8710  -29.3130   22.4240 C   0  0  0  0  0  0  0  0  0  0  0  0
  -21.5440  -29.1210   22.3020 N   0  0  0  0  0  0  0  0  0  0  0  0
  -23.5580  -28.6760   23.2260 O   0  0  0  0  0  0  0  0  0  0  0  0
  -21.0430  -29.6870   21.6330 H   0  0  0  0  0  0  0  0  0  0  0  0
  -18.1890  -27.8500   22.8170 C   0  0  0  0  0  0  0  0  0  0  0  0
  -20.7490  -28.1430   23.0500 C   0  0  0  0  0  3  0  0  0  0  0  0
  -20.8590  -26.7350   22.4210 C   0  0  0  0  0  2  0  0  0  0  0  0
  -19.7450  -26.4340   21.4130 C   0  0  0  0  0  2  0  0  0  0  0  0
  -18.3730  -26.5320   22.0850 C   0  0  0  0  0  2  0  0  0  0  0  0
  -19.3030  -28.6140   23.2560 C   0  0  0  0  0  0  0  0  0  0  0  0
  -19.0750  -29.8450   23.9060 C   0  0  0  0  0  3  0  0  0  0  0  0
  -17.7660  -30.3180   24.1160 C   0  0  0  0  0  3  0  0  0  0  0  0
  -16.6670  -29.5530   23.6900 C   0  0  0  0  0  3  0  0  0  0  0  0
  -16.8790  -28.3210   23.0470 C   0  0  0  0  0  3  0  0  0  0  0  0
  -25.9620  -32.3850   23.8040 C   0  0  0  0  0  3  0  0  0  0  0  0
  -26.4790  -31.6080   25.0770 C   0  0  1  0  0  0  0  0  0  0  0  0
  -25.3810  -31.3440   26.1340 C   0  0  0  0  0  1  0  0  0  0  0  0
  -27.0860  -30.2420   24.6850 C   0  0  0  0  0  1  0  0  0  0  0  0
  -27.6120  -32.4130   25.7580 C   0  0  0  0  0  1  0  0  0  0  0  0
  -25.6190  -33.7720   24.1580 N   0  0  0  0  0  0  0  0  0  0  0  0
  -25.9040  -34.8490   23.4140 C   0  0  0  0  0  0  0  0  0  0  0  0
  -26.5510  -34.7790   22.3640 O   0  0  0  0  0  0  0  0  0  0  0  0
  -25.0350  -33.8940   24.9730 H   0  0  0  0  0  0  0  0  0  0  0  0
  -24.1150  -36.6020   23.1530 C   0  0  0  0  0  1  0  0  0  0  0  0
  -25.3990  -36.2200   23.9080 C   0  0  0  0  0  3  0  0  0  0  0  0
  -27.5360  -37.1610   24.6710 C   0  0  0  0  0  1  0  0  0  0  0  0
  -26.3980  -37.3040   23.7670 N   0  0  0  0  0  0  0  0  0  0  0  0
  -25.9720  -38.2120   23.9340 H   0  0  0  0  0  0  0  0  0  0  0  0
  2  1  1  0
  2  4  1  0
  2 46  1  0
  3  4  1  0
  3  5  1  0
  3  6  1  0
  4  6  1  0
  5  8  1  0
  5  6  1  0
  6  7  1  0
  7  9  1  0
 10  8  1  0
 11 16  1  0
 12 13  1  0
 12 11  1  0
 13 14  1  0
 14 21  1  0
 14 15  1  0
 16 10  1  0
 16 15  1  0
 17 10  2  0
 18 19  2  0
 19 38  1  0
 20 19  1  0
 20 23  1  0
 21 22  1  0
 21 18  1  0
 22 20  2  0
 23 24  1  0
 24 25  2  0
 26 29  1  0
 26 25  1  0
 27 26  2  0
 28 27  1  0
 28 23  2  0
 29 30  1  0
 30 31  1  0
 31 32  2  0
 33 32  1  0
 33 37  1  0
 34 33  2  0
 35 30  2  0
 35 34  1  0
 36 35  1  0
 38 39  1  0
 39 42  1  0
 39 41  1  0
 40 38  2  0
 43 18  1  0
 43 44  1  0
 45 43  1  0
 47 46  2  0
 47 48  1  0
 49 60  2  0
 49 75  1  0
 50 48  1  0
 50 55  1  0
 51 59  1  0
 51 61  1  0
 52 58  1  0
 52 54  1  0
 53 59  1  0
 54 53  1  0
 55 54  2  0
 56 57  1  0
 56 50  2  0
 57 52  2  0
 58 51  1  0
 59 49  1  0
 61 63  2  0
 62 61  1  0
 62 66  1  0
 64 62  1  0
 65 74  2  0
 65 70  1  0
 66 70  1  0
 67 66  1  0
 68 69  1  0
 68 67  1  0
 69 65  1  0
 70 71  2  0
 71 72  1  0
 73 72  2  0
 74 73  1  0
 75 80  1  0
 75 76  1  0
 76 79  1  1
 76 77  1  0
 78 76  1  0
 80 83  1  0
 81 85  1  0
 81 80  1  0
 82 81  2  0
 84 85  1  0
 87 85  1  0
 87 88  1  0
 87 86  1  0
M  ISO  4   8 100  10 100  47 101  48 101
M  END
>  <TORSDO>  (44) 
F 19

>  <SCORE>  (44) 
-13.686

>  <name>  (44) 
43

>  <ligand_id>  (44) 
43

>  <original_smiles>  (44) 
[H]N=c1c(C([H])(C([H])([H])[H])C([H])([H])C([H])([H])Oc2c([H])c([H])c3c(c2[H])C([H])([H])N(C(=O)C([H])(N([H])C(=O)C([H])(N([H])C([H])([H])[H])C([H])([H])[H])C(C([H])([H])[H])(C([H])([H])[H])C([H])([H])[H])C([H])(C(=O)N([H])C2([H])c4c([H])c([H])c([H])c([H])c4C([H])([H])C([H])([H])C2([H])[H])C3([H])[H])c([H])c1=NC(=O)N1C([H])([H])C([H])([H])C([H])([H])C([H])(n2nc(-c3c([H])c([H])c(Oc4c([H])c([H])c(F)c([H])c4F)c([H])c3[H])c(C(=O)N([H])[H])c2N([H])[H])C1([H])[H]

>  <smiles>  (44) 
[H]N=c1c(C([H])(C([H])([H])[H])C([H])([H])C([H])([H])Oc2c([H])c([H])c3c(c2[H])C([H])([H])N(C(=O)C([H])(N([H])C(=O)C([H])(N([H])C([H])([H])[H])C([H])([H])[H])C(C([H])([H])[H])(C([H])([H])[H])C([H])([H])[H])C([H])(C(=O)N([H])C2([H])c4c([H])c([H])c([H])c([H])c4C([H])([H])C([H])([H])C2([H])[H])C3([H])[H])c([H])c1=NC(=O)N1C([H])([H])C([H])([H])C([H])([H])C([H])(n2nc(-c3c([H])c([H])c(Oc4c([H])c([H])c(F)c([H])c4F)c([H])c3[H])c(C(=O)N([H])[H])c2N([H])[H])C1([H])[H]

$$$$
44:0:0
     RDKit          3D

 93102  0  0  1  0  0  0  0  0999 V2000
  -29.0420  -22.7630   21.5710 C   0  0  0  0  0  0  0  0  0  0  0  0
  -28.9290  -22.1330   19.6030 C   0  0  0  0  0  2  0  0  0  0  0  0
  -29.6940  -21.5930   20.8170 C   0  0  0  0  0  3  0  0  0  0  0  0
  -28.5480  -23.3010   20.4090 N   0  0  0  0  0  0  0  0  0  0  0  0
  -28.9760  -23.1490   22.7200 O   0  0  0  0  0  0  0  0  0  0  0  0
  -29.3720  -20.2270   21.4480 C   0  0  0  0  0  2  0  0  0  0  0  0
  -32.7030  -18.4390   20.7620 C   0  0  0  0  0  3  0  0  0  0  0  0
  -31.7600  -19.4430   21.0530 C   0  0  0  0  0  3  0  0  0  0  0  0
  -32.2780  -17.1170   20.5360 C   0  0  0  0  0  3  0  0  0  0  0  0
  -29.9630  -17.8030   20.8910 C   0  0  0  0  0  3  0  0  0  0  0  0
  -30.3830  -19.1350   21.1080 C   0  0  0  0  0  0  0  0  0  0  0  0
  -30.9040  -16.7890   20.5940 C   0  0  0  0  0  0  0  0  0  0  0  0
  -31.0750  -14.4370   19.8110 C   0  0  0  0  0  0  0  0  0  0  0  0
  -30.7580  -12.1560   18.9220 C   0  0  0  0  0  2  0  0  0  0  0  0
  -29.7660  -12.1810   17.7450 C   0  0  0  0  0  2  0  0  0  0  0  0
  -28.3120  -12.0810   18.2490 C   0  0  0  0  0  2  0  0  0  0  0  0
  -28.0070  -13.0820   19.3960 C   0  0  0  0  0  3  0  0  0  0  0  0
  -29.1040  -13.0130   20.4820 C   0  0  0  0  0  2  0  0  0  0  0  0
  -30.4030  -13.2570   19.8310 N   0  0  0  0  0  0  0  0  0  0  0  0
  -32.1350  -14.5960   19.1950 O   0  0  0  0  0  0  0  0  0  0  0  0
  -30.4480  -15.4540   20.4290 N   0  0  0  0  0  0  0  0  0  0  0  0
  -29.5150  -15.2490   20.7570 H   0  0  0  0  0  0  0  0  0  0  0  0
  -25.6800  -13.7810   20.2450 C   0  0  0  0  0  0  0  0  0  0  0  0
  -24.6100  -13.0500   20.6870 C   0  0  0  0  0  0  0  0  0  0  0  0
  -25.0200  -11.6820   20.6360 C   0  0  0  0  0  0  0  0  0  0  0  0
  -26.6770  -12.8610   19.9570 N   0  0  0  0  0  0  0  0  0  0  0  0
  -26.2850  -11.5950   20.2470 N   0  0  0  0  0  0  0  0  0  0  0  0
  -24.2630  -10.4470   20.8800 C   0  0  0  0  0  0  0  0  0  0  0  0
  -24.6340   -9.5440   21.9000 C   0  0  0  0  0  3  0  0  0  0  0  0
  -23.8810   -8.3720   22.1270 C   0  0  0  0  0  3  0  0  0  0  0  0
  -22.7430   -8.0960   21.3340 C   0  0  0  0  0  0  0  0  0  0  0  0
  -22.3920   -8.9870   20.3040 C   0  0  0  0  0  3  0  0  0  0  0  0
  -23.1460  -10.1490   20.0760 C   0  0  0  0  0  3  0  0  0  0  0  0
  -21.9670   -6.9700   21.4640 O   0  0  0  0  0  0  0  0  0  0  0  0
  -21.7570   -6.3780   22.6840 C   0  0  0  0  0  0  0  0  0  0  0  0
  -21.1570   -7.0730   23.7580 C   0  0  0  0  0  3  0  0  0  0  0  0
  -20.8980   -6.4050   24.9710 C   0  0  0  0  0  3  0  0  0  0  0  0
  -21.2280   -5.0440   25.1110 C   0  0  0  0  0  0  0  0  0  0  0  0
  -21.8210   -4.3490   24.0420 C   0  0  0  0  0  3  0  0  0  0  0  0
  -22.0820   -5.0130   22.8310 C   0  0  0  0  0  0  0  0  0  0  0  0
  -22.6330   -4.3340   21.7970 F   0  0  0  0  0  0  0  0  0  0  0  0
  -20.9730   -4.4000   26.2740 F   0  0  0  0  0  0  0  0  0  0  0  0
  -23.2510  -13.5770   21.0440 C   0  0  0  0  0  0  0  0  0  0  0  0
  -22.5650  -12.9240   21.9750 N   0  0  0  0  0  0  0  0  0  0  0  0
  -22.8090  -14.6060   20.5320 O   0  0  0  0  0  0  0  0  0  0  0  0
  -22.9350  -12.0920   22.4100 H   0  0  0  0  0  0  0  0  0  0  0  0
  -21.6550  -13.2610   22.2580 H   0  0  0  0  0  0  0  0  0  0  0  0
  -25.8820  -15.1440   20.0470 N   0  0  0  0  0  0  0  0  0  0  0  0
  -25.1460  -15.8260   20.1940 H   0  0  0  0  0  0  0  0  0  0  0  0
  -26.7220  -15.5480   19.6500 H   0  0  0  0  0  0  0  0  0  0  0  0
  -27.8320  -24.5350   20.0880 C   0  0  0  0  0  2  0  0  0  0  0  0
  -28.4470  -25.7780   20.7710 C   0  0  0  0  0  2  0  0  0  0  0  0
  -28.3260  -26.9680   19.9930 O   0  0  0  0  0  0  0  0  0  0  0  0
  -24.5580  -31.9920   23.3500 C   0  0  0  0  0  0  0  0  0  0  0  0
  -27.1390  -27.6500   20.1010 C   0  0  0  0  0  0  0  0  0  0  0  0
  -23.3160  -30.6290   21.7000 C   0  0  0  0  0  3  0  0  0  0  0  0
  -24.7390  -29.1260   20.2110 C   0  0  0  0  0  0  0  0  0  0  0  0
  -25.8330  -31.0020   21.4530 C   0  0  0  0  0  2  0  0  0  0  0  0
  -25.9060  -29.6450   20.7850 C   0  0  0  0  0  0  0  0  0  0  0  0
  -27.1110  -28.9140   20.7270 C   0  0  0  0  0  3  0  0  0  0  0  0
  -25.9600  -27.1370   19.5250 C   0  0  0  0  0  3  0  0  0  0  0  0
  -24.7580  -27.8690   19.5810 C   0  0  0  0  0  3  0  0  0  0  0  0
  -23.4960  -29.9810   20.3010 C   0  0  0  0  0  2  0  0  0  0  0  0
  -24.5890  -31.2220   22.2260 N   0  0  0  0  0  0  0  0  0  0  0  0
  -23.4900  -32.2490   23.9220 O   0  0  0  0  0  0  0  0  0  0  0  0
  -22.6890  -29.5830   22.6480 C   0  0  0  0  0  0  0  0  0  0  0  0
  -21.3710  -29.3660   22.5100 N   0  0  0  0  0  0  0  0  0  0  0  0
  -23.3840  -28.9700   23.4630 O   0  0  0  0  0  0  0  0  0  0  0  0
  -20.8690  -29.9150   21.8260 H   0  0  0  0  0  0  0  0  0  0  0  0
  -18.0330  -28.0580   22.9510 C   0  0  0  0  0  0  0  0  0  0  0  0
  -20.5760  -28.4010   23.2670 C   0  0  0  0  0  3  0  0  0  0  0  0
  -20.7360  -26.9740   22.6920 C   0  0  0  0  0  2  0  0  0  0  0  0
  -19.6620  -26.6160   21.6590 C   0  0  0  0  0  2  0  0  0  0  0  0
  -18.2660  -26.7160   22.2800 C   0  0  0  0  0  2  0  0  0  0  0  0
  -19.1180  -28.8560   23.4010 C   0  0  0  0  0  0  0  0  0  0  0  0
  -18.8470  -30.1130   23.9850 C   0  0  0  0  0  3  0  0  0  0  0  0
  -17.5240  -30.5710   24.1270 C   0  0  0  0  0  3  0  0  0  0  0  0
  -16.4540  -29.7700   23.6940 C   0  0  0  0  0  3  0  0  0  0  0  0
  -16.7090  -28.5150   23.1120 C   0  0  0  0  0  3  0  0  0  0  0  0
  -25.8580  -32.6070   23.9560 C   0  0  0  0  0  3  0  0  0  0  0  0
  -26.3750  -31.8380   25.2330 C   0  0  1  0  0  0  0  0  0  0  0  0
  -25.2800  -31.5990   26.2990 C   0  0  0  0  0  1  0  0  0  0  0  0
  -26.9600  -30.4610   24.8400 C   0  0  0  0  0  1  0  0  0  0  0  0
  -27.5230  -32.6330   25.8960 C   0  0  0  0  0  1  0  0  0  0  0  0
  -25.5760  -34.0120   24.2750 N   0  0  0  0  0  0  0  0  0  0  0  0
  -25.9080  -35.0490   23.4930 C   0  0  0  0  0  0  0  0  0  0  0  0
  -26.5540  -34.9220   22.4500 O   0  0  0  0  0  0  0  0  0  0  0  0
  -25.0020  -34.1860   25.0870 H   0  0  0  0  0  0  0  0  0  0  0  0
  -24.1800  -36.8460   23.1650 C   0  0  0  0  0  1  0  0  0  0  0  0
  -25.4470  -36.4500   23.9400 C   0  0  0  0  0  3  0  0  0  0  0  0
  -27.6140  -37.3370   24.6790 C   0  0  0  0  0  1  0  0  0  0  0  0
  -26.4820  -37.4930   23.7680 N   0  0  0  0  0  0  0  0  0  0  0  0
  -26.0870  -38.4190   23.9080 H   0  0  0  0  0  0  0  0  0  0  0  0
  1  5  2  0
  2  4  1  0
  2  3  1  0
  3  6  1  0
  3  1  1  0
  4  1  1  0
  7  8  1  0
  8 11  2  0
  9 12  1  0
  9  7  2  0
 10 11  1  0
 11  6  1  0
 12 10  2  0
 13 19  1  0
 13 21  1  0
 14 19  1  0
 15 16  1  0
 15 14  1  0
 17 16  1  0
 17 26  1  0
 17 18  1  0
 19 18  1  0
 20 13  2  0
 21 12  1  0
 21 22  1  0
 23 24  2  0
 24 43  1  0
 25 24  1  0
 25 28  1  0
 26 23  1  0
 26 27  1  0
 27 25  2  0
 28 29  1  0
 29 30  2  0
 31 34  1  0
 31 30  1  0
 32 31  2  0
 33 32  1  0
 33 28  2  0
 34 35  1  0
 35 40  2  0
 35 36  1  0
 36 37  2  0
 37 38  1  0
 38 42  1  0
 39 38  2  0
 40 39  1  0
 41 40  1  0
 43 44  1  0
 44 47  1  0
 44 46  1  0
 45 43  2  0
 48 49  1  0
 48 23  1  0
 50 48  1  0
 51  4  1  0
 51 52  1  0
 53 55  1  0
 53 52  1  0
 54 65  2  0
 55 60  1  0
 56 64  1  0
 56 66  1  0
 57 63  1  0
 57 59  1  0
 58 64  1  0
 59 58  1  0
 60 59  2  0
 61 62  1  0
 61 55  2  0
 62 57  2  0
 63 56  1  0
 64 54  1  0
 66 68  2  0
 67 66  1  0
 69 67  1  0
 70 79  2  0
 70 75  1  0
 71 67  1  0
 71 75  1  0
 72 71  1  0
 73 74  1  0
 73 72  1  0
 74 70  1  0
 75 76  2  0
 76 77  1  0
 78 77  2  0
 79 78  1  0
 80 54  1  0
 80 85  1  0
 80 81  1  0
 81 84  1  1
 81 82  1  0
 83 81  1  0
 85 88  1  0
 86 90  1  0
 86 85  1  0
 87 86  2  0
 90 89  1  0
 92 93  1  0
 92 90  1  0
 92 91  1  0
M  ISO  4  13 100  21 100  52 101  53 101
M  END
>  <TORSDO>  (45) 
F 20

>  <SCORE>  (45) 
-12.989

>  <name>  (45) 
44

>  <ligand_id>  (45) 
44

>  <original_smiles>  (45) 
[H]c1c([H])c([H])c2c(c1[H])C([H])([H])C([H])([H])C([H])([H])C2([H])N([H])C(=O)C1([H])N(C(=O)C([H])(N([H])C(=O)C([H])(N([H])C([H])([H])[H])C([H])([H])[H])C(C([H])([H])[H])(C([H])([H])[H])C([H])([H])[H])C([H])([H])c2c([H])c(OC([H])([H])C([H])([H])N3C(=O)C([H])(C([H])([H])c4c([H])c([H])c([H])c(N([H])C(=O)N5C([H])([H])C([H])([H])C([H])([H])C([H])(n6nc(-c7c([H])c([H])c(Oc8c([H])c([H])c(F)c([H])c8F)c([H])c7[H])c(C(=O)N([H])[H])c6N([H])[H])C5([H])[H])c4[H])C3([H])[H])c([H])c([H])c2C1([H])[H]

>  <smiles>  (45) 
[H]c1c([H])c([H])c2c(c1[H])C([H])([H])C([H])([H])C([H])([H])C2([H])N([H])C(=O)C1([H])N(C(=O)C([H])(N([H])C(=O)C([H])(N([H])C([H])([H])[H])C([H])([H])[H])C(C([H])([H])[H])(C([H])([H])[H])C([H])([H])[H])C([H])([H])c2c([H])c(OC([H])([H])C([H])([H])N3C(=O)C([H])(C([H])([H])c4c([H])c([H])c([H])c(N([H])C(=O)N5C([H])([H])C([H])([H])C([H])([H])C([H])(n6nc(-c7c([H])c([H])c(Oc8c([H])c([H])c(F)c([H])c8F)c([H])c7[H])c(C(=O)N([H])[H])c6N([H])[H])C5([H])[H])c4[H])C3([H])[H])c([H])c([H])c2C1([H])[H]

$$$$
45:0:0
     RDKit          3D

 94102  0  0  1  0  0  0  0  0999 V2000
  -29.4280  -21.4410   22.4300 C   0  0  0  0  0  3  0  0  0  0  0  0
  -29.5460  -22.7920   22.4490 C   0  0  0  0  0  3  0  0  0  0  0  0
  -29.6230  -20.5140   21.3100 C   0  0  0  0  0  0  0  0  0  0  0  0
  -31.1990  -19.1820   22.7380 C   0  0  0  0  0  1  0  0  0  0  0  0
  -30.1960  -19.3270   21.6670 N   0  0  0  0  0  0  0  0  0  0  0  0
  -29.1640  -20.6960   20.1800 O   0  0  0  0  0  0  0  0  0  0  0  0
  -29.8560  -18.0370   21.0200 C   0  0  0  0  0  2  0  0  0  0  0  0
  -31.4140  -14.7980   20.1090 C   0  0  0  0  0  0  0  0  0  0  0  0
  -31.0800  -12.5680   19.1690 C   0  0  0  0  0  2  0  0  0  0  0  0
  -30.1270  -12.7080   17.9650 C   0  0  0  0  0  2  0  0  0  0  0  0
  -28.6610  -12.6060   18.4270 C   0  0  0  0  0  2  0  0  0  0  0  0
  -28.3400  -13.5220   19.6380 C   0  0  0  0  0  3  0  0  0  0  0  0
  -29.4110  -13.4130   20.7430 C   0  0  0  0  0  2  0  0  0  0  0  0
  -30.7200  -13.6340   20.1150 N   0  0  0  0  0  0  0  0  0  0  0  0
  -32.6330  -14.8360   19.9140 O   0  0  0  0  0  0  0  0  0  0  0  0
  -31.7030  -17.6090   19.0590 C   0  0  0  0  0  2  0  0  0  0  0  0
  -30.7090  -16.5320   18.5530 C   0  0  0  0  0  3  0  0  0  0  0  0
  -31.0630  -17.2580   20.4240 C   0  0  0  0  0  3  0  0  0  0  0  0
  -29.3300  -16.9140   17.9800 C   0  0  0  0  0  1  0  0  0  0  0  0
  -30.6690  -15.9280   19.9000 N   0  0  0  0  0  0  0  0  0  0  0  0
  -25.9950  -14.2420   20.4100 C   0  0  0  0  0  0  0  0  0  0  0  0
  -24.8920  -13.5110   20.7710 C   0  0  0  0  0  0  0  0  0  0  0  0
  -25.2850  -12.1400   20.6890 C   0  0  0  0  0  0  0  0  0  0  0  0
  -26.9890  -13.3110   20.1390 N   0  0  0  0  0  0  0  0  0  0  0  0
  -26.5670  -12.0420   20.3670 N   0  0  0  0  0  0  0  0  0  0  0  0
  -24.5030  -10.9100   20.8470 C   0  0  0  0  0  0  0  0  0  0  0  0
  -24.8590   -9.9280   21.7970 C   0  0  0  0  0  3  0  0  0  0  0  0
  -24.0850   -8.7570   21.9400 C   0  0  0  0  0  3  0  0  0  0  0  0
  -22.9390   -8.5640   21.1350 C   0  0  0  0  0  0  0  0  0  0  0  0
  -22.6010   -9.5320   20.1720 C   0  0  0  0  0  3  0  0  0  0  0  0
  -23.3770  -10.6940   20.0270 C   0  0  0  0  0  3  0  0  0  0  0  0
  -22.1380   -7.4480   21.1920 O   0  0  0  0  0  0  0  0  0  0  0  0
  -21.9230   -6.7740   22.3680 C   0  0  0  0  0  0  0  0  0  0  0  0
  -21.3430   -7.4030   23.4920 C   0  0  0  0  0  3  0  0  0  0  0  0
  -21.0830   -6.6560   24.6590 C   0  0  0  0  0  3  0  0  0  0  0  0
  -21.3830   -5.2810   24.6960 C   0  0  0  0  0  0  0  0  0  0  0  0
  -21.9510   -4.6510   23.5760 C   0  0  0  0  0  3  0  0  0  0  0  0
  -22.2160   -5.3970   22.4120 C   0  0  0  0  0  0  0  0  0  0  0  0
  -22.7480   -4.7800   21.3280 F   0  0  0  0  0  0  0  0  0  0  0  0
  -21.1210   -4.5620   25.8110 F   0  0  0  0  0  0  0  0  0  0  0  0
  -23.5230  -14.0460   21.0770 C   0  0  0  0  0  0  0  0  0  0  0  0
  -22.7780  -13.3690   21.9450 N   0  0  0  0  0  0  0  0  0  0  0  0
  -23.1240  -15.0990   20.5820 O   0  0  0  0  0  0  0  0  0  0  0  0
  -23.1110  -12.5160   22.3690 H   0  0  0  0  0  0  0  0  0  0  0  0
  -21.8590  -13.7090   22.1930 H   0  0  0  0  0  0  0  0  0  0  0  0
  -26.2310  -15.6050   20.2740 N   0  0  0  0  0  0  0  0  0  0  0  0
  -25.5080  -16.3040   20.4110 H   0  0  0  0  0  0  0  0  0  0  0  0
  -27.1210  -16.0010   19.9930 H   0  0  0  0  0  0  0  0  0  0  0  0
  -29.9420  -23.8210   21.3830 C   0  0  0  0  0  2  0  0  0  0  0  0
  -27.6660  -24.8970   21.9660 C   0  0  0  0  0  1  0  0  0  0  0  0
  -28.2310  -24.1220   19.6170 C   0  0  0  0  0  1  0  0  0  0  0  0
  -28.7850  -24.7720   20.9070 C   0  0  2  0  0  0  0  0  0  0  0  0
  -29.3160  -26.2300   20.6580 C   0  0  0  0  0  2  0  0  0  0  0  0
  -28.6430  -26.9780   19.6300 O   0  0  0  0  0  0  0  0  0  0  0  0
  -24.6520  -31.8150   23.1910 C   0  0  0  0  0  0  0  0  0  0  0  0
  -27.4470  -27.6290   19.8710 C   0  0  0  0  0  0  0  0  0  0  0  0
  -23.4840  -30.4350   21.5040 C   0  0  0  0  0  3  0  0  0  0  0  0
  -24.9880  -29.0300   20.0060 C   0  0  0  0  0  0  0  0  0  0  0  0
  -25.9930  -30.9070   21.2980 C   0  0  0  0  0  2  0  0  0  0  0  0
  -26.1340  -29.5630   20.6100 C   0  0  0  0  0  0  0  0  0  0  0  0
  -27.3680  -28.8650   20.5550 C   0  0  0  0  0  3  0  0  0  0  0  0
  -26.2850  -27.1270   19.2500 C   0  0  0  0  0  3  0  0  0  0  0  0
  -25.0570  -27.8020   19.3320 C   0  0  0  0  0  3  0  0  0  0  0  0
  -23.7070  -29.8270   20.0940 C   0  0  0  0  0  2  0  0  0  0  0  0
  -24.7270  -31.0660   22.0540 N   0  0  0  0  0  0  0  0  0  0  0  0
  -23.5660  -32.0150   23.7550 O   0  0  0  0  0  0  0  0  0  0  0  0
  -22.8960  -29.3390   22.4240 C   0  0  0  0  0  0  0  0  0  0  0  0
  -21.5880  -29.0760   22.2800 N   0  0  0  0  0  0  0  0  0  0  0  0
  -23.6140  -28.7330   23.2240 O   0  0  0  0  0  0  0  0  0  0  0  0
  -21.0690  -29.6220   21.6070 H   0  0  0  0  0  0  0  0  0  0  0  0
  -18.2930  -27.6460   22.6880 C   0  0  0  0  0  0  0  0  0  0  0  0
  -20.8240  -28.0630   23.0100 C   0  0  0  0  0  3  0  0  0  0  0  0
  -21.0310  -26.6610   22.3920 C   0  0  0  0  0  2  0  0  0  0  0  0
  -19.9660  -26.2960   21.3530 C   0  0  0  0  0  2  0  0  0  0  0  0
  -18.5690  -26.3320   21.9800 C   0  0  0  0  0  2  0  0  0  0  0  0
  -19.3520  -28.4680   23.1570 C   0  0  0  0  0  0  0  0  0  0  0  0
  -19.0400  -29.6990   23.7750 C   0  0  0  0  0  3  0  0  0  0  0  0
  -17.7010  -30.1060   23.9360 C   0  0  0  0  0  3  0  0  0  0  0  0
  -16.6570  -29.2790   23.4860 C   0  0  0  0  0  3  0  0  0  0  0  0
  -16.9530  -28.0530   22.8640 C   0  0  0  0  0  3  0  0  0  0  0  0
  -25.9180  -32.4740   23.8200 C   0  0  0  0  0  3  0  0  0  0  0  0
  -25.5740  -33.8640   24.1510 N   0  0  0  0  0  0  0  0  0  0  0  0
  -25.9020  -34.9270   23.4050 C   0  0  0  0  0  0  0  0  0  0  0  0
  -26.5960  -34.8430   22.3880 O   0  0  0  0  0  0  0  0  0  0  0  0
  -24.9540  -34.0010   24.9350 H   0  0  0  0  0  0  0  0  0  0  0  0
  -24.1480  -36.6870   23.0220 C   0  0  0  0  0  1  0  0  0  0  0  0
  -25.3770  -36.3030   23.8580 C   0  0  0  0  0  3  0  0  0  0  0  0
  -27.4700  -37.2250   24.7520 C   0  0  0  0  0  1  0  0  0  0  0  0
  -26.3940  -37.3750   23.7750 N   0  0  0  0  0  0  0  0  0  0  0  0
  -25.9680  -38.2890   23.9110 H   0  0  0  0  0  0  0  0  0  0  0  0
  -26.4520  -31.7130   25.0960 C   0  0  1  0  0  0  0  0  0  0  0  0
  -25.3570  -31.4360   26.1520 C   0  0  0  0  0  1  0  0  0  0  0  0
  -27.0770  -30.3540   24.7020 C   0  0  0  0  0  1  0  0  0  0  0  0
  -27.5800  -32.5350   25.7670 C   0  0  0  0  0  1  0  0  0  0  0  0
  1  2  2  0
  3  5  1  0
  3  1  1  0
  5  4  1  0
  6  3  2  0
  7  5  1  0
  8 14  1  0
  9 14  1  0
 10 11  1  0
 10  9  1  0
 12 11  1  0
 12 24  1  0
 12 13  1  0
 14 13  1  0
 15  8  2  0
 16 18  1  0
 17 19  1  0
 17 16  1  0
 17 20  1  0
 18  7  1  0
 20  8  1  0
 20 18  1  0
 21 22  2  0
 22 41  1  0
 23 22  1  0
 23 26  1  0
 24 25  1  0
 24 21  1  0
 25 23  2  0
 26 27  1  0
 27 28  2  0
 29 32  1  0
 29 28  1  0
 30 29  2  0
 31 30  1  0
 31 26  2  0
 32 33  1  0
 33 38  2  0
 33 34  1  0
 34 35  2  0
 35 36  1  0
 36 40  1  0
 37 36  2  0
 38 37  1  0
 39 38  1  0
 41 42  1  0
 42 45  1  0
 42 44  1  0
 43 41  2  0
 46 21  1  0
 46 47  1  0
 48 46  1  0
 49  2  1  0
 52 51  1  6
 52 49  1  0
 52 50  1  0
 53 52  1  0
 54 56  1  0
 54 53  1  0
 55 66  2  0
 56 61  1  0
 57 65  1  0
 57 67  1  0
 58 64  1  0
 58 60  1  0
 59 65  1  0
 60 59  1  0
 61 60  2  0
 62 63  1  0
 62 56  2  0
 63 58  2  0
 64 57  1  0
 65 55  1  0
 67 69  2  0
 68 67  1  0
 70 68  1  0
 71 80  2  0
 71 76  1  0
 72 68  1  0
 72 76  1  0
 73 72  1  0
 74 75  1  0
 74 73  1  0
 75 71  1  0
 76 77  2  0
 77 78  1  0
 79 78  2  0
 80 79  1  0
 81 55  1  0
 81 82  1  0
 81 91  1  0
 82 85  1  0
 83 87  1  0
 83 82  1  0
 84 83  2  0
 87 86  1  0
 89 87  1  0
 89 90  1  0
 89 88  1  0
 91 94  1  1
 91 92  1  0
 93 91  1  0
M  ISO  4   8 100  20 100  53 101  54 101
M  END
>  <TORSDO>  (46) 
F 21

>  <SCORE>  (46) 
-11.922

>  <name>  (46) 
45

>  <ligand_id>  (46) 
45

>  <original_smiles>  (46) 
[H]C(C(=O)N(C([H])([H])[H])C([H])([H])C1([H])N(C(=O)N2C([H])([H])C([H])([H])C([H])([H])C([H])(n3nc(-c4c([H])c([H])c(Oc5c([H])c([H])c(F)c([H])c5F)c([H])c4[H])c(C(=O)N([H])[H])c3N([H])[H])C2([H])[H])C([H])(C([H])([H])[H])C1([H])[H])=C([H])C([H])([H])C(C([H])([H])[H])(C([H])([H])[H])C([H])([H])Oc1c([H])c([H])c2c(c1[H])C([H])([H])N(C(=O)C([H])(N([H])C(=O)C([H])(N([H])C([H])([H])[H])C([H])([H])[H])C(C([H])([H])[H])(C([H])([H])[H])C([H])([H])[H])C([H])(C(=O)N([H])C1([H])c3c([H])c([H])c([H])c([H])c3C([H])([H])C([H])([H])C1([H])[H])C2([H])[H]

>  <smiles>  (46) 
[H]C(C(=O)N(C([H])([H])[H])C([H])([H])C1([H])N(C(=O)N2C([H])([H])C([H])([H])C([H])([H])C([H])(n3nc(-c4c([H])c([H])c(Oc5c([H])c([H])c(F)c([H])c5F)c([H])c4[H])c(C(=O)N([H])[H])c3N([H])[H])C2([H])[H])C([H])(C([H])([H])[H])C1([H])[H])=C([H])C([H])([H])C(C([H])([H])[H])(C([H])([H])[H])C([H])([H])Oc1c([H])c([H])c2c(c1[H])C([H])([H])N(C(=O)C([H])(N([H])C(=O)C([H])(N([H])C([H])([H])[H])C([H])([H])[H])C(C([H])([H])[H])(C([H])([H])[H])C([H])([H])[H])C([H])(C(=O)N([H])C1([H])c3c([H])c([H])c([H])c([H])c3C([H])([H])C([H])([H])C1([H])[H])C2([H])[H]

$$$$
46:0:0
     RDKit          3D

101110  0  0  1  0  0  0  0  0999 V2000
  -30.2960  -20.7030   21.6380 C   0  0  0  0  0  3  0  0  0  0  0  0
  -31.1480  -20.9850   22.8170 N   0  0  0  0  0  4  0  0  0  0  0  0
  -32.0750  -20.6100   22.7170 H   0  0  0  0  0  0  0  0  0  0  0  0
  -30.7370  -20.5820   23.6410 H   0  0  0  0  0  0  0  0  0  0  0  0
  -31.2300  -21.9680   23.0000 H   0  0  0  0  0  0  0  0  0  0  0  0
  -29.7750  -21.2030   19.1570 C   0  0  0  0  0  1  0  0  0  0  0  0
  -32.1420  -20.8020   19.8720 C   0  0  0  0  0  1  0  0  0  0  0  0
  -30.7890  -21.4130   20.3100 C   0  0  2  0  0  0  0  0  0  0  0  0
  -30.9890  -22.9750   20.4430 C   0  0  0  0  0  2  0  0  0  0  0  0
  -29.7550  -23.7890   20.2320 N   0  0  0  0  0  4  0  0  0  0  0  0
  -29.1580  -23.2460   19.6260 H   0  0  0  0  0  0  0  0  0  0  0  0
  -29.2690  -23.9170   21.1070 H   0  0  0  0  0  0  0  0  0  0  0  0
  -29.9590  -25.1140   19.5790 C   0  0  0  0  0  2  0  0  0  0  0  0
  -28.6340  -25.8270   19.2060 C   0  0  0  0  0  2  0  0  0  0  0  0
  -28.3090  -26.7880   20.2120 O   0  0  0  0  0  0  0  0  0  0  0  0
  -24.5040  -31.9300   23.2580 C   0  0  0  0  0  0  0  0  0  0  0  0
  -27.1140  -27.4790   20.1580 C   0  0  0  0  0  0  0  0  0  0  0  0
  -23.2720  -30.5250   21.6330 C   0  0  0  0  0  3  0  0  0  0  0  0
  -24.7070  -28.9750   20.1970 C   0  0  0  0  0  0  0  0  0  0  0  0
  -25.7930  -30.8750   21.4050 C   0  0  0  0  0  2  0  0  0  0  0  0
  -25.8680  -29.5000   20.7770 C   0  0  0  0  0  0  0  0  0  0  0  0
  -27.0640  -28.7520   20.7680 C   0  0  0  0  0  3  0  0  0  0  0  0
  -25.9330  -26.9640   19.5720 C   0  0  0  0  0  3  0  0  0  0  0  0
  -24.7330  -27.7040   19.5960 C   0  0  0  0  0  3  0  0  0  0  0  0
  -23.4620  -29.8330   20.2560 C   0  0  0  0  0  2  0  0  0  0  0  0
  -24.5420  -31.1250   22.1570 N   0  0  0  0  0  0  0  0  0  0  0  0
  -23.4310  -32.2110   23.8090 O   0  0  0  0  0  0  0  0  0  0  0  0
  -22.6280  -29.5140   22.6070 C   0  0  0  0  0  0  0  0  0  0  0  0
  -21.3040  -29.3230   22.4830 N   0  0  0  0  0  0  0  0  0  0  0  0
  -23.3160  -28.9010   23.4300 O   0  0  0  0  0  0  0  0  0  0  0  0
  -20.8130  -29.8710   21.7900 H   0  0  0  0  0  0  0  0  0  0  0  0
  -17.9400  -28.1030   22.9720 C   0  0  0  0  0  0  0  0  0  0  0  0
  -20.4920  -28.3910   23.2620 C   0  0  0  0  0  3  0  0  0  0  0  0
  -20.6150  -26.9510   22.7100 C   0  0  0  0  0  2  0  0  0  0  0  0
  -19.5260  -26.6010   21.6920 C   0  0  0  0  0  2  0  0  0  0  0  0
  -18.1370  -26.7430   22.3210 C   0  0  0  0  0  2  0  0  0  0  0  0
  -19.0470  -28.8840   23.3980 C   0  0  0  0  0  0  0  0  0  0  0  0
  -18.8110  -30.1550   23.9640 C   0  0  0  0  0  3  0  0  0  0  0  0
  -17.5010  -30.6460   24.1070 C   0  0  0  0  0  3  0  0  0  0  0  0
  -16.4090  -29.8630   23.6980 C   0  0  0  0  0  3  0  0  0  0  0  0
  -16.6290  -28.5930   23.1360 C   0  0  0  0  0  3  0  0  0  0  0  0
  -25.8010  -32.5570   23.8600 C   0  0  0  0  0  3  0  0  0  0  0  0
  -25.5080  -33.9600   24.1790 N   0  0  0  0  0  0  0  0  0  0  0  0
  -25.8580  -35.0030   23.4140 C   0  0  0  0  0  0  0  0  0  0  0  0
  -26.5330  -34.8840   22.3880 O   0  0  0  0  0  0  0  0  0  0  0  0
  -24.9100  -34.1270   24.9750 H   0  0  0  0  0  0  0  0  0  0  0  0
  -24.1610  -36.8170   23.0250 C   0  0  0  0  0  1  0  0  0  0  0  0
  -25.3830  -36.4000   23.8580 C   0  0  0  0  0  3  0  0  0  0  0  0
  -27.5150  -37.2590   24.7220 C   0  0  0  0  0  1  0  0  0  0  0  0
  -26.4320  -37.4380   23.7570 N   0  0  0  0  0  0  0  0  0  0  0  0
  -26.0360  -38.3640   23.8920 H   0  0  0  0  0  0  0  0  0  0  0  0
  -26.3280  -31.7920   25.1360 C   0  0  1  0  0  0  0  0  0  0  0  0
  -25.2440  -31.5690   26.2170 C   0  0  0  0  0  1  0  0  0  0  0  0
  -26.8970  -30.4070   24.7450 C   0  0  0  0  0  1  0  0  0  0  0  0
  -27.4910  -32.5820   25.7810 C   0  0  0  0  0  1  0  0  0  0  0  0
  -29.9230  -19.1730   21.5700 C   0  0  0  0  0  2  0  0  0  0  0  0
  -30.7970  -17.2940   23.0790 C   0  0  0  0  0  1  0  0  0  0  0  0
  -31.0120  -18.0390   21.7480 C   0  0  0  0  0  3  0  0  0  0  0  0
  -31.3790  -14.6210   20.8020 C   0  0  0  0  0  0  0  0  0  0  0  0
  -31.1520  -12.2870   20.0470 C   0  0  0  0  0  2  0  0  0  0  0  0
  -30.3440  -12.2710   18.7320 C   0  0  0  0  0  2  0  0  0  0  0  0
  -28.8210  -12.2760   19.0080 C   0  0  0  0  0  2  0  0  0  0  0  0
  -28.3730  -13.2770   20.1120 C   0  0  0  0  0  3  0  0  0  0  0  0
  -29.3230  -13.2480   21.3300 C   0  0  0  0  0  2  0  0  0  0  0  0
  -30.6930  -13.4420   20.8330 N   0  0  0  0  0  0  0  0  0  0  0  0
  -32.6120  -14.6530   20.7210 O   0  0  0  0  0  0  0  0  0  0  0  0
  -31.0280  -17.3200   19.2460 C   0  0  0  0  0  2  0  0  0  0  0  0
  -31.0550  -17.0670   20.5540 C   0  0  1  0  0  0  0  0  0  0  0  0
  -30.5560  -16.0390   19.0680 C   0  0  2  0  0  0  0  0  0  0  0  0
  -30.6290  -15.7060   20.4450 N   0  0  0  0  0  0  0  0  0  0  0  0
  -30.0660  -15.4620   17.9530 N   0  0  0  0  0  0  0  0  0  0  0  0
  -30.0780  -15.9780   17.0850 H   0  0  0  0  0  0  0  0  0  0  0  0
  -29.6800  -14.5320   17.9260 H   0  0  0  0  0  0  0  0  0  0  0  0
  -25.9590  -14.0040   20.6020 C   0  0  0  0  0  0  0  0  0  0  0  0
  -24.8300  -13.2910   20.8980 C   0  0  0  0  0  0  0  0  0  0  0  0
  -25.2330  -11.9210   20.9480 C   0  0  0  0  0  0  0  0  0  0  0  0
  -26.9790  -13.0730   20.4910 N   0  0  0  0  0  0  0  0  0  0  0  0
  -26.5420  -11.8180   20.7600 N   0  0  0  0  0  0  0  0  0  0  0  0
  -24.4380  -10.6990   21.1070 C   0  0  0  0  0  0  0  0  0  0  0  0
  -24.7590   -9.7320   22.0880 C   0  0  0  0  0  3  0  0  0  0  0  0
  -23.9710   -8.5720   22.2350 C   0  0  0  0  0  3  0  0  0  0  0  0
  -22.8490   -8.3690   21.3960 C   0  0  0  0  0  0  0  0  0  0  0  0
  -22.5460   -9.3220   20.4070 C   0  0  0  0  0  3  0  0  0  0  0  0
  -23.3370  -10.4740   20.2600 C   0  0  0  0  0  3  0  0  0  0  0  0
  -22.0430   -7.2570   21.4460 O   0  0  0  0  0  0  0  0  0  0  0  0
  -21.8670   -6.5460   22.6050 C   0  0  0  0  0  0  0  0  0  0  0  0
  -21.3510   -7.1470   23.7750 C   0  0  0  0  0  3  0  0  0  0  0  0
  -21.1270   -6.3660   24.9270 C   0  0  0  0  0  3  0  0  0  0  0  0
  -21.4050   -4.9870   24.9080 C   0  0  0  0  0  0  0  0  0  0  0  0
  -21.9110   -4.3850   23.7420 C   0  0  0  0  0  3  0  0  0  0  0  0
  -22.1370   -5.1620   22.5920 C   0  0  0  0  0  0  0  0  0  0  0  0
  -22.6050   -4.5720   21.4640 F   0  0  0  0  0  0  0  0  0  0  0  0
  -21.1800   -4.2350   26.0100 F   0  0  0  0  0  0  0  0  0  0  0  0
  -23.4380  -13.8380   21.0320 C   0  0  0  0  0  0  0  0  0  0  0  0
  -22.6090  -13.2070   21.8530 N   0  0  0  0  0  0  0  0  0  0  0  0
  -23.0940  -14.8640   20.4460 O   0  0  0  0  0  0  0  0  0  0  0  0
  -22.9040  -12.3820   22.3550 H   0  0  0  0  0  0  0  0  0  0  0  0
  -21.6700  -13.5570   21.9930 H   0  0  0  0  0  0  0  0  0  0  0  0
  -26.1960  -15.3620   20.3970 N   0  0  0  0  0  0  0  0  0  0  0  0
  -25.4440  -16.0450   20.4170 H   0  0  0  0  0  0  0  0  0  0  0  0
  -27.0850  -15.7650   20.1380 H   0  0  0  0  0  0  0  0  0  0  0  0
  1 56  1  0
  1  2  1  0
  2  5  1  0
  2  4  1  0
  3  2  1  0
  8  6  1  6
  7  8  1  0
  8  9  1  0
  8  1  1  0
 10  9  1  0
 10 12  1  0
 11 10  1  0
 13 10  1  0
 14 13  1  0
 14 15  1  0
 16 27  2  0
 17 15  1  0
 17 22  1  0
 18 26  1  0
 18 28  1  0
 19 25  1  0
 19 21  1  0
 20 26  1  0
 21 20  1  0
 22 21  2  0
 23 24  1  0
 23 17  2  0
 24 19  2  0
 25 18  1  0
 26 16  1  0
 28 30  2  0
 29 28  1  0
 31 29  1  0
 32 41  2  0
 32 37  1  0
 33 29  1  0
 33 37  1  0
 34 33  1  0
 35 36  1  0
 35 34  1  0
 36 32  1  0
 37 38  2  0
 38 39  1  0
 40 39  2  0
 41 40  1  0
 42 16  1  0
 42 43  1  0
 42 52  1  0
 43 46  1  0
 44 48  1  0
 44 43  1  0
 45 44  2  0
 48 47  1  0
 50 48  1  0
 50 51  1  0
 50 49  1  0
 52 55  1  1
 52 53  1  0
 54 52  1  0
 56 58  1  0
 58 57  1  0
 59 65  1  0
 60 65  1  0
 61 62  1  0
 61 60  1  0
 63 62  1  0
 63 77  1  0
 63 64  1  0
 65 64  1  0
 66 59  2  0
 67 68  1  0
 68 58  1  1
 69 71  1  6
 69 67  1  0
 69 70  1  0
 69 68  1  0
 70 68  1  0
 70 59  1  0
 72 71  1  0
 73 71  1  0
 74 75  2  0
 75 76  1  0
 75 94  1  0
 76 79  1  0
 77 74  1  0
 77 78  1  0
 78 76  2  0
 79 80  1  0
 80 81  2  0
 82 85  1  0
 82 81  1  0
 83 82  2  0
 84 83  1  0
 84 79  2  0
 85 86  1  0
 86 87  1  0
 87 88  2  0
 89 88  1  0
 89 93  1  0
 90 89  2  0
 91 86  2  0
 91 90  1  0
 92 91  1  0
 94 95  1  0
 95 98  1  0
 95 97  1  0
 96 94  2  0
 99100  1  0
 99 74  1  0
101 99  1  0
M  ISO  4  14 101  15 101  59 100  70 100
M  END
>  <TORSDO>  (47) 
F 24

>  <SCORE>  (47) 
-11.290

>  <name>  (47) 
46

>  <ligand_id>  (47) 
46

>  <original_smiles>  (47) 
[H]C1=C(C([H])(C([H])([H])[H])C([H])([H])C([H])(C(C([H])([H])[H])(C([H])([H])[H])C([H])([H])[N+]([H])([H])C([H])([H])C([H])([H])Oc2c([H])c([H])c3c(c2[H])C([H])([H])N(C(=O)C([H])(N([H])C(=O)C([H])(N([H])C([H])([H])[H])C([H])([H])[H])C(C([H])([H])[H])(C([H])([H])[H])C([H])([H])[H])C([H])(C(=O)N([H])C2([H])c4c([H])c([H])c([H])c([H])c4C([H])([H])C([H])([H])C2([H])[H])C3([H])[H])[N+]([H])([H])[H])N(C(=O)N2C([H])([H])C([H])([H])C([H])([H])C([H])(n3nc(-c4c([H])c([H])c(Oc5c([H])c([H])c(F)c([H])c5F)c([H])c4[H])c(C(=O)N([H])[H])c3N([H])[H])C2([H])[H])C1=[N+]([H])[H]

>  <smiles>  (47) 
[H]C1=C(C([H])(C([H])([H])[H])C([H])([H])C([H])(C(C([H])([H])[H])(C([H])([H])[H])C([H])([H])[N+]([H])([H])C([H])([H])C([H])([H])Oc2c([H])c([H])c3c(c2[H])C([H])([H])N(C(=O)C([H])(N([H])C(=O)C([H])(N([H])C([H])([H])[H])C([H])([H])[H])C(C([H])([H])[H])(C([H])([H])[H])C([H])([H])[H])C([H])(C(=O)N([H])C2([H])c4c([H])c([H])c([H])c([H])c4C([H])([H])C([H])([H])C2([H])[H])C3([H])[H])[N+]([H])([H])[H])N(C(=O)N2C([H])([H])C([H])([H])C([H])([H])C([H])(n3nc(-c4c([H])c([H])c(Oc5c([H])c([H])c(F)c([H])c5F)c([H])c4[H])c(C(=O)N([H])[H])c3N([H])[H])C2([H])[H])C1=[N+]([H])[H]

$$$$
47:0:0
     RDKit          3D

 93101  0  0  1  0  0  0  0  0999 V2000
  -29.6790  -20.0310   20.2820 C   0  0  0  0  0  0  0  0  0  0  0  0
  -27.3140  -20.6880   20.0880 C   0  0  0  0  0  1  0  0  0  0  0  0
  -28.7270  -21.0490   20.2570 N   0  0  0  0  0  0  0  0  0  0  0  0
  -30.8770  -20.3010   20.4190 O   0  0  0  0  0  0  0  0  0  0  0  0
  -29.2890  -18.4810   20.1770 C   0  0  0  0  0  2  0  0  0  0  0  0
  -30.7430  -14.7440   20.4120 C   0  0  0  0  0  0  0  0  0  0  0  0
  -30.5280  -12.4900   19.4330 C   0  0  0  0  0  2  0  0  0  0  0  0
  -29.6120  -12.5330   18.1940 C   0  0  0  0  0  2  0  0  0  0  0  0
  -28.1360  -12.3700   18.6150 C   0  0  0  0  0  2  0  0  0  0  0  0
  -27.7360  -13.2920   19.7980 C   0  0  0  0  0  3  0  0  0  0  0  0
  -28.7710  -13.2520   20.9400 C   0  0  0  0  0  2  0  0  0  0  0  0
  -30.0700  -13.5620   20.3350 N   0  0  0  0  0  0  0  0  0  0  0  0
  -31.9740  -14.7400   20.4190 O   0  0  0  0  0  0  0  0  0  0  0  0
  -30.3940  -16.2120   18.5270 C   0  0  0  0  0  2  0  0  0  0  0  0
  -31.3510  -17.3230   18.9840 C   0  0  0  0  0  3  0  0  0  0  0  0
  -30.4620  -17.3800   20.2270 C   0  0  0  0  0  3  0  0  0  0  0  0
  -30.1050  -15.8990   19.9540 N   0  0  0  0  0  0  0  0  0  0  0  0
  -25.3420  -13.8940   20.4950 C   0  0  0  0  0  0  0  0  0  0  0  0
  -24.2700  -13.1260   20.8590 C   0  0  0  0  0  0  0  0  0  0  0  0
  -24.7360  -11.7730   20.8520 C   0  0  0  0  0  0  0  0  0  0  0  0
  -26.3870  -13.0130   20.2820 N   0  0  0  0  0  0  0  0  0  0  0  0
  -26.0320  -11.7360   20.5670 N   0  0  0  0  0  0  0  0  0  0  0  0
  -24.0080  -10.5110   21.0340 C   0  0  0  0  0  0  0  0  0  0  0  0
  -24.4160   -9.5530   21.9890 C   0  0  0  0  0  3  0  0  0  0  0  0
  -23.6920   -8.3520   22.1600 C   0  0  0  0  0  3  0  0  0  0  0  0
  -22.5390   -8.1040   21.3750 C   0  0  0  0  0  0  0  0  0  0  0  0
  -22.1500   -9.0500   20.4090 C   0  0  0  0  0  3  0  0  0  0  0  0
  -22.8770  -10.2420   20.2390 C   0  0  0  0  0  3  0  0  0  0  0  0
  -21.7860   -6.9600   21.4530 O   0  0  0  0  0  0  0  0  0  0  0  0
  -21.6940   -6.2360   22.6150 C   0  0  0  0  0  0  0  0  0  0  0  0
  -21.1930   -6.8030   23.8090 C   0  0  0  0  0  3  0  0  0  0  0  0
  -21.0560   -6.0030   24.9620 C   0  0  0  0  0  3  0  0  0  0  0  0
  -21.4060   -4.6400   24.9180 C   0  0  0  0  0  0  0  0  0  0  0  0
  -21.8950   -4.0740   23.7270 C   0  0  0  0  0  3  0  0  0  0  0  0
  -22.0330   -4.8700   22.5790 C   0  0  0  0  0  0  0  0  0  0  0  0
  -22.4890   -4.3160   21.4290 F   0  0  0  0  0  0  0  0  0  0  0  0
  -21.2640   -3.8690   26.0210 F   0  0  0  0  0  0  0  0  0  0  0  0
  -22.8660  -13.6030   21.0880 C   0  0  0  0  0  0  0  0  0  0  0  0
  -22.1140  -12.9180   21.9420 N   0  0  0  0  0  0  0  0  0  0  0  0
  -22.4440  -14.6240   20.5450 O   0  0  0  0  0  0  0  0  0  0  0  0
  -22.4650  -12.0910   22.3990 H   0  0  0  0  0  0  0  0  0  0  0  0
  -21.1710  -13.2310   22.1370 H   0  0  0  0  0  0  0  0  0  0  0  0
  -25.5060  -15.2620   20.2960 N   0  0  0  0  0  0  0  0  0  0  0  0
  -24.7200  -15.8990   20.3440 H   0  0  0  0  0  0  0  0  0  0  0  0
  -26.3540  -15.7070   19.9650 H   0  0  0  0  0  0  0  0  0  0  0  0
  -32.7510  -16.9010   19.2330 N   0  0  0  0  0  4  0  0  0  0  0  0
  -32.7120  -16.0250   19.7560 H   0  0  0  0  0  0  0  0  0  0  0  0
  -33.2590  -17.5690   19.7830 H   0  0  0  0  0  0  0  0  0  0  0  0
  -33.2560  -16.7260   18.3830 H   0  0  0  0  0  0  0  0  0  0  0  0
  -28.9270  -22.4730   20.7800 C   0  0  0  0  0  3  0  0  0  0  0  0
  -28.4600  -23.7910   19.9660 C   0  0  0  0  0  3  0  0  0  0  0  0
  -28.3690  -25.1650   20.8050 C   0  0  0  0  0  2  0  0  0  0  0  0
  -28.4020  -26.5280   20.2040 O   0  0  0  0  0  0  0  0  0  0  0  0
  -24.5880  -31.8880   23.2760 C   0  0  0  0  0  0  0  0  0  0  0  0
  -27.2650  -27.3470   20.2400 C   0  0  0  0  0  0  0  0  0  0  0  0
  -23.4140  -30.4860   21.6170 C   0  0  0  0  0  3  0  0  0  0  0  0
  -24.8900  -28.9360   20.2080 C   0  0  0  0  0  0  0  0  0  0  0  0
  -25.9530  -30.8170   21.4670 C   0  0  0  0  0  2  0  0  0  0  0  0
  -26.0500  -29.4380   20.8160 C   0  0  0  0  0  0  0  0  0  0  0  0
  -27.2430  -28.6580   20.8140 C   0  0  0  0  0  3  0  0  0  0  0  0
  -26.0820  -26.8850   19.6270 C   0  0  0  0  0  3  0  0  0  0  0  0
  -24.9090  -27.6690   19.6020 C   0  0  0  0  0  3  0  0  0  0  0  0
  -23.6460  -29.8030   20.2410 C   0  0  0  0  0  2  0  0  0  0  0  0
  -24.6700  -31.0850   22.1750 N   0  0  0  0  0  0  0  0  0  0  0  0
  -23.4970  -32.1580   23.7990 O   0  0  0  0  0  0  0  0  0  0  0  0
  -22.7470  -29.4650   22.5690 C   0  0  0  0  0  0  0  0  0  0  0  0
  -21.4210  -29.2840   22.4300 N   0  0  0  0  0  0  0  0  0  0  0  0
  -23.4210  -28.8380   23.3880 O   0  0  0  0  0  0  0  0  0  0  0  0
  -20.9400  -29.8350   21.7320 H   0  0  0  0  0  0  0  0  0  0  0  0
  -18.0390  -28.0960   22.9190 C   0  0  0  0  0  0  0  0  0  0  0  0
  -20.6000  -28.3400   23.1880 C   0  0  0  0  0  3  0  0  0  0  0  0
  -20.6940  -26.9160   22.5930 C   0  0  0  0  0  2  0  0  0  0  0  0
  -19.5890  -26.6130   21.5750 C   0  0  0  0  0  2  0  0  0  0  0  0
  -18.2070  -26.7580   22.2210 C   0  0  0  0  0  2  0  0  0  0  0  0
  -19.1610  -28.8470   23.3580 C   0  0  0  0  0  0  0  0  0  0  0  0
  -18.9500  -30.1030   23.9690 C   0  0  0  0  0  3  0  0  0  0  0  0
  -17.6470  -30.6060   24.1450 C   0  0  0  0  0  3  0  0  0  0  0  0
  -16.5390  -29.8510   23.7240 C   0  0  0  0  0  3  0  0  0  0  0  0
  -16.7350  -28.5980   23.1160 C   0  0  0  0  0  3  0  0  0  0  0  0
  -25.8600  -32.5230   23.9170 C   0  0  0  0  0  3  0  0  0  0  0  0
  -25.5520  -33.9310   24.2110 N   0  0  0  0  0  0  0  0  0  0  0  0
  -25.9090  -34.9650   23.4410 C   0  0  0  0  0  0  0  0  0  0  0  0
  -26.6000  -34.8380   22.4270 O   0  0  0  0  0  0  0  0  0  0  0  0
  -24.9410  -34.1030   24.9960 H   0  0  0  0  0  0  0  0  0  0  0  0
  -24.2080  -36.7620   23.0000 C   0  0  0  0  0  1  0  0  0  0  0  0
  -25.4180  -36.3650   23.8600 C   0  0  0  0  0  3  0  0  0  0  0  0
  -27.5300  -37.2460   24.7500 C   0  0  0  0  0  1  0  0  0  0  0  0
  -26.4600  -37.4090   23.7680 N   0  0  0  0  0  0  0  0  0  0  0  0
  -26.0560  -38.3320   23.8930 H   0  0  0  0  0  0  0  0  0  0  0  0
  -26.3380  -31.7760   25.2240 C   0  0  1  0  0  0  0  0  0  0  0  0
  -25.2150  -31.5690   26.2660 C   0  0  0  0  0  1  0  0  0  0  0  0
  -26.9260  -30.3880   24.8800 C   0  0  0  0  0  1  0  0  0  0  0  0
  -27.4770  -32.5780   25.8990 C   0  0  0  0  0  1  0  0  0  0  0  0
  1  4  2  0
  2  3  1  0
  3  1  1  0
  3 50  1  0
  5  1  1  0
  6 13  2  0
  7 12  1  0
  8  9  1  0
  8  7  1  0
 10  9  1  0
 10 21  1  0
 10 11  1  0
 12  6  1  0
 12 11  1  0
 14 15  1  0
 14 17  1  0
 15 46  1  0
 15 16  1  0
 16  5  1  0
 17 16  1  0
 17  6  1  0
 18 19  2  0
 19 38  1  0
 20 19  1  0
 20 23  1  0
 21 18  1  0
 21 22  1  0
 22 20  2  0
 23 24  1  0
 24 25  2  0
 26 29  1  0
 26 25  1  0
 27 26  2  0
 28 27  1  0
 28 23  2  0
 29 30  1  0
 30 31  1  0
 31 32  2  0
 33 32  1  0
 33 37  1  0
 34 33  2  0
 35 30  2  0
 35 34  1  0
 36 35  1  0
 38 39  1  0
 39 42  1  0
 39 41  1  0
 40 38  2  0
 43 44  1  0
 43 18  1  0
 45 43  1  0
 46 47  1  0
 46 48  1  0
 49 46  1  0
 51 50  2  0
 51 52  1  0
 53 55  1  0
 53 52  1  0
 54 65  2  0
 55 60  1  0
 56 64  1  0
 56 66  1  0
 57 63  1  0
 57 59  1  0
 58 64  1  0
 59 58  1  0
 60 59  2  0
 61 55  2  0
 62 61  1  0
 62 57  2  0
 63 56  1  0
 64 54  1  0
 66 68  2  0
 67 66  1  0
 69 67  1  0
 70 79  2  0
 70 75  1  0
 71 67  1  0
 71 75  1  0
 72 71  1  0
 73 74  1  0
 73 72  1  0
 74 70  1  0
 75 76  2  0
 76 77  1  0
 78 77  2  0
 79 78  1  0
 80 54  1  0
 80 81  1  0
 80 90  1  0
 81 84  1  0
 82 86  1  0
 82 81  1  0
 83 82  2  0
 86 85  1  0
 88 86  1  0
 88 89  1  0
 88 87  1  0
 90 93  1  1
 90 91  1  0
 92 90  1  0
M  ISO  4   6 100  17 100  52 101  53 101
M  END
>  <TORSDO>  (48) 
F 21

>  <SCORE>  (48) 
-13.128

>  <name>  (48) 
47

>  <ligand_id>  (48) 
47

>  <original_smiles>  (48) 
[H]c1c([H])c([H])c2c(c1[H])C([H])([H])C([H])([H])C([H])([H])C2([H])N([H])C(=O)C1([H])N(C(=O)C([H])(N([H])C(=O)C([H])(N([H])C([H])([H])[H])C([H])([H])[H])C(C([H])([H])[H])(C([H])([H])[H])C([H])([H])[H])C([H])([H])c2c([H])c(OC([H])([H])C([H])([H])C([H])([H])N(C(=O)C([H])([H])C3([H])N(C(=O)N4C([H])([H])C([H])([H])C([H])([H])C([H])(n5nc(-c6c([H])c([H])c(Oc7c([H])c([H])c(F)c([H])c7F)c([H])c6[H])c(C(=O)N([H])[H])c5N([H])[H])C4([H])[H])C([H])([H])C3([H])[N+]([H])([H])[H])C([H])([H])[H])c([H])c([H])c2C1([H])[H]

>  <smiles>  (48) 
[H]c1c([H])c([H])c2c(c1[H])C([H])([H])C([H])([H])C([H])([H])C2([H])N([H])C(=O)C1([H])N(C(=O)C([H])(N([H])C(=O)C([H])(N([H])C([H])([H])[H])C([H])([H])[H])C(C([H])([H])[H])(C([H])([H])[H])C([H])([H])[H])C([H])([H])c2c([H])c(OC([H])([H])C([H])([H])C([H])([H])N(C(=O)C([H])([H])C3([H])N(C(=O)N4C([H])([H])C([H])([H])C([H])([H])C([H])(n5nc(-c6c([H])c([H])c(Oc7c([H])c([H])c(F)c([H])c7F)c([H])c6[H])c(C(=O)N([H])[H])c5N([H])[H])C4([H])[H])C([H])([H])C3([H])[N+]([H])([H])[H])C([H])([H])[H])c([H])c([H])c2C1([H])[H]

$$$$
48:0:0
     RDKit          3D

 96105  0  0  1  0  0  0  0  0999 V2000
  -27.9070  -21.2130   20.4640 C   0  0  0  0  0  0  0  0  0  0  0  0
  -27.1670  -20.1220   20.7320 C   0  0  0  0  0  2  0  0  0  0  0  0
  -27.7280  -22.6310   20.8710 C   0  0  0  0  0  2  0  0  0  0  0  0
  -29.2580  -21.4950   19.8410 C   0  0  0  0  0  3  0  0  0  0  0  0
  -29.1770  -22.8160   20.6410 N   0  0  1  0  0  4  0  0  0  0  0  0
  -29.6550  -22.7110   21.5250 H   0  0  0  0  0  0  0  0  0  0  0  0
  -30.3410  -20.3560   20.2040 C   0  0  0  0  0  2  0  0  0  0  0  0
  -30.1120  -18.8480   19.7230 C   0  0  0  0  0  0  0  0  0  0  0  0
  -29.0550  -18.5810   19.1490 O   0  0  0  0  0  0  0  0  0  0  0  0
  -31.5760  -15.1570   20.3190 C   0  0  0  0  0  0  0  0  0  0  0  0
  -31.3250  -12.8090   19.5730 C   0  0  0  0  0  2  0  0  0  0  0  0
  -30.4540  -12.7540   18.3000 C   0  0  0  0  0  2  0  0  0  0  0  0
  -28.9580  -12.6880   18.6690 C   0  0  0  0  0  2  0  0  0  0  0  0
  -28.5480  -13.7260   19.7490 C   0  0  0  0  0  3  0  0  0  0  0  0
  -29.5470  -13.7650   20.9240 C   0  0  0  0  0  2  0  0  0  0  0  0
  -30.8780  -13.9800   20.3510 N   0  0  0  0  0  0  0  0  0  0  0  0
  -32.8080  -15.1440   20.3250 O   0  0  0  0  0  0  0  0  0  0  0  0
  -31.1300  -16.4240   18.3210 C   0  0  0  0  0  2  0  0  0  0  0  0
  -31.2670  -17.7770   19.8920 C   0  0  0  0  0  3  0  0  0  0  0  0
  -32.1380  -17.5250   18.6510 C   0  0  0  0  0  3  0  0  0  0  0  0
  -30.9220  -16.2670   19.7870 N   0  0  0  0  0  0  0  0  0  0  0  0
  -26.1800  -14.4530   20.4120 C   0  0  0  0  0  0  0  0  0  0  0  0
  -25.0550  -13.7390   20.7260 C   0  0  0  0  0  0  0  0  0  0  0  0
  -25.4370  -12.3620   20.6940 C   0  0  0  0  0  0  0  0  0  0  0  0
  -27.1770  -13.5150   20.2010 N   0  0  0  0  0  0  0  0  0  0  0  0
  -26.7350  -12.2530   20.4390 N   0  0  0  0  0  0  0  0  0  0  0  0
  -24.6290  -11.1430   20.8320 C   0  0  0  0  0  0  0  0  0  0  0  0
  -24.9570  -10.1430   21.7730 C   0  0  0  0  0  3  0  0  0  0  0  0
  -24.1550   -8.9890   21.9020 C   0  0  0  0  0  3  0  0  0  0  0  0
  -23.0090   -8.8260   21.0860 C   0  0  0  0  0  0  0  0  0  0  0  0
  -22.7000   -9.8130   20.1350 C   0  0  0  0  0  3  0  0  0  0  0  0
  -23.5020  -10.9590   20.0060 C   0  0  0  0  0  3  0  0  0  0  0  0
  -22.1860   -7.7260   21.1210 O   0  0  0  0  0  0  0  0  0  0  0  0
  -21.9910   -7.0120   22.2750 C   0  0  0  0  0  0  0  0  0  0  0  0
  -21.4250   -7.5970   23.4290 C   0  0  0  0  0  3  0  0  0  0  0  0
  -21.1770   -6.8080   24.5700 C   0  0  0  0  0  3  0  0  0  0  0  0
  -21.4860   -5.4340   24.5580 C   0  0  0  0  0  0  0  0  0  0  0  0
  -22.0460   -4.8490   23.4100 C   0  0  0  0  0  3  0  0  0  0  0  0
  -22.2950   -5.6360   22.2710 C   0  0  0  0  0  0  0  0  0  0  0  0
  -22.8140   -5.0610   21.1590 F   0  0  0  0  0  0  0  0  0  0  0  0
  -21.2420   -4.6750   25.6520 F   0  0  0  0  0  0  0  0  0  0  0  0
  -23.6790  -14.2950   20.9450 C   0  0  0  0  0  0  0  0  0  0  0  0
  -22.8810  -13.6430   21.7830 N   0  0  0  0  0  0  0  0  0  0  0  0
  -23.3210  -15.3450   20.4120 O   0  0  0  0  0  0  0  0  0  0  0  0
  -23.1810  -12.7920   22.2360 H   0  0  0  0  0  0  0  0  0  0  0  0
  -21.9560  -14.0010   21.9770 H   0  0  0  0  0  0  0  0  0  0  0  0
  -26.4380  -15.8130   20.2630 N   0  0  0  0  0  0  0  0  0  0  0  0
  -25.7180  -16.5190   20.3580 H   0  0  0  0  0  0  0  0  0  0  0  0
  -27.3390  -16.2030   20.0060 H   0  0  0  0  0  0  0  0  0  0  0  0
  -32.3590  -18.5630   17.6130 N   0  0  0  0  0  4  0  0  0  0  0  0
  -31.5130  -18.9280   17.2120 H   0  0  0  0  0  0  0  0  0  0  0  0
  -32.8900  -18.1680   16.8550 H   0  0  0  0  0  0  0  0  0  0  0  0
  -32.9140  -19.3240   17.9670 H   0  0  0  0  0  0  0  0  0  0  0  0
  -29.4630  -24.2010   20.0370 C   0  0  0  0  0  3  0  0  0  0  0  0
  -28.9280  -25.4600   20.8900 C   0  0  0  0  0  3  0  0  0  0  0  0
  -29.0700  -26.8730   20.4370 O   0  0  0  0  0  0  0  0  0  0  0  0
  -24.7660  -31.9150   23.3440 C   0  0  0  0  0  0  0  0  0  0  0  0
  -27.9060  -27.6490   20.3700 C   0  0  0  0  0  0  0  0  0  0  0  0
  -23.7820  -30.4810   21.5920 C   0  0  0  0  0  3  0  0  0  0  0  0
  -25.4370  -29.0780   20.2340 C   0  0  0  0  0  0  0  0  0  0  0  0
  -26.2950  -30.9910   21.5880 C   0  0  0  0  0  2  0  0  0  0  0  0
  -26.5240  -29.6400   20.9180 C   0  0  0  0  0  0  0  0  0  0  0  0
  -27.7650  -28.9390   20.9730 C   0  0  0  0  0  3  0  0  0  0  0  0
  -26.7990  -27.1390   19.6630 C   0  0  0  0  0  3  0  0  0  0  0  0
  -25.5760  -27.8350   19.5960 C   0  0  0  0  0  3  0  0  0  0  0  0
  -24.1370  -29.8580   20.2160 C   0  0  0  0  0  2  0  0  0  0  0  0
  -24.9620  -31.1470   22.2330 N   0  0  0  0  0  0  0  0  0  0  0  0
  -23.6320  -32.0970   23.8110 O   0  0  0  0  0  0  0  0  0  0  0  0
  -23.1340  -29.3940   22.4820 C   0  0  0  0  0  0  0  0  0  0  0  0
  -21.8310  -29.1370   22.2730 N   0  0  0  0  0  0  0  0  0  0  0  0
  -23.8060  -28.7820   23.3160 O   0  0  0  0  0  0  0  0  0  0  0  0
  -21.3490  -29.6840   21.5750 H   0  0  0  0  0  0  0  0  0  0  0  0
  -18.5020  -27.7660   22.5960 C   0  0  0  0  0  0  0  0  0  0  0  0
  -21.0360  -28.1220   22.9640 C   0  0  0  0  0  3  0  0  0  0  0  0
  -21.2200  -26.7290   22.3160 C   0  0  0  0  0  2  0  0  0  0  0  0
  -20.1670  -26.4180   21.2480 C   0  0  0  0  0  2  0  0  0  0  0  0
  -18.7610  -26.4650   21.8520 C   0  0  0  0  0  2  0  0  0  0  0  0
  -19.5710  -28.5510   23.1050 C   0  0  0  0  0  0  0  0  0  0  0  0
  -19.2770  -29.7670   23.7580 C   0  0  0  0  0  3  0  0  0  0  0  0
  -17.9460  -30.2030   23.9040 C   0  0  0  0  0  3  0  0  0  0  0  0
  -16.8900  -29.4140   23.4140 C   0  0  0  0  0  3  0  0  0  0  0  0
  -17.1690  -28.1960   22.7680 C   0  0  0  0  0  3  0  0  0  0  0  0
  -25.9530  -32.6220   24.0690 C   0  0  0  0  0  3  0  0  0  0  0  0
  -25.5630  -34.0190   24.3080 N   0  0  0  0  0  0  0  0  0  0  0  0
  -25.9300  -35.0530   23.5390 C   0  0  0  0  0  0  0  0  0  0  0  0
  -26.7000  -34.9350   22.5810 O   0  0  0  0  0  0  0  0  0  0  0  0
  -24.8900  -34.1820   25.0420 H   0  0  0  0  0  0  0  0  0  0  0  0
  -24.1780  -36.7580   22.9480 C   0  0  0  0  0  1  0  0  0  0  0  0
  -25.3520  -36.4370   23.8870 C   0  0  0  0  0  3  0  0  0  0  0  0
  -27.3560  -37.4530   24.8770 C   0  0  0  0  0  1  0  0  0  0  0  0
  -26.3520  -37.5260   23.8210 N   0  0  0  0  0  0  0  0  0  0  0  0
  -25.8990  -38.4350   23.8750 H   0  0  0  0  0  0  0  0  0  0  0  0
  -26.3600  -31.9210   25.4240 C   0  0  1  0  0  0  0  0  0  0  0  0
  -25.1650  -31.6570   26.3700 C   0  0  0  0  0  1  0  0  0  0  0  0
  -27.0570  -30.5690   25.1520 C   0  0  0  0  0  1  0  0  0  0  0  0
  -27.3840  -32.7990   26.1830 C   0  0  0  0  0  1  0  0  0  0  0  0
  1  2  2  0
  1  3  1  0
  4  7  1  0
  4  1  1  0
  4  5  1  0
  5  3  1  0
  5  6  1  1
  8  7  1  0
  9  8  2  0
 10 17  2  0
 10 16  1  0
 11 16  1  0
 12 13  1  0
 12 11  1  0
 14 13  1  0
 14 25  1  0
 14 15  1  0
 16 15  1  0
 18 20  1  0
 18 21  1  0
 19  8  1  0
 20 50  1  0
 20 19  1  0
 21 19  1  0
 21 10  1  0
 22 23  2  0
 23 42  1  0
 24 23  1  0
 24 27  1  0
 25 22  1  0
 25 26  1  0
 26 24  2  0
 27 28  1  0
 28 29  2  0
 30 33  1  0
 30 29  1  0
 31 30  2  0
 32 31  1  0
 32 27  2  0
 33 34  1  0
 34 35  1  0
 35 36  2  0
 37 36  1  0
 37 41  1  0
 38 37  2  0
 39 34  2  0
 39 38  1  0
 40 39  1  0
 42 43  1  0
 43 46  1  0
 43 45  1  0
 44 42  2  0
 47 48  1  0
 47 22  1  0
 49 47  1  0
 50 53  1  0
 51 50  1  0
 52 50  1  0
 54  5  1  0
 54 55  2  0
 56 55  1  0
 57 68  2  0
 58 56  1  0
 58 63  1  0
 59 67  1  0
 59 69  1  0
 60 62  1  0
 61 67  1  0
 62 63  2  0
 62 61  1  0
 64 58  2  0
 65 64  1  0
 65 60  2  0
 66 60  1  0
 66 59  1  0
 67 57  1  0
 69 71  2  0
 70 69  1  0
 72 70  1  0
 73 82  2  0
 73 78  1  0
 74 70  1  0
 74 78  1  0
 75 74  1  0
 76 77  1  0
 76 75  1  0
 77 73  1  0
 78 79  2  0
 79 80  1  0
 81 80  2  0
 82 81  1  0
 83 57  1  0
 83 84  1  0
 83 93  1  0
 84 87  1  0
 85 89  1  0
 85 84  1  0
 86 85  2  0
 89 88  1  0
 91 92  1  0
 91 89  1  0
 91 90  1  0
 93 96  1  1
 93 94  1  0
 95 93  1  0
M  ISO  4  10 100  21 100  55 101  56 101
M  END
>  <TORSDO>  (49) 
F 21

>  <SCORE>  (49) 
-11.040

>  <name>  (49) 
48

>  <ligand_id>  (49) 
48

>  <original_smiles>  (49) 
[H]C([H])=C1C([H])([H])[N+]([H])(C([H])([H])C([H])([H])Oc2c([H])c([H])c3c(c2[H])C([H])([H])N(C(=O)C([H])(N([H])C(=O)C([H])(N([H])C([H])([H])[H])C([H])([H])[H])C(C([H])([H])[H])(C([H])([H])[H])C([H])([H])[H])C([H])(C(=O)N([H])C2([H])c4c([H])c([H])c([H])c([H])c4C([H])([H])C([H])([H])C2([H])[H])C3([H])[H])C1([H])C([H])([H])C(=O)C1([H])N(C(=O)N2C([H])([H])C([H])([H])C([H])([H])C([H])(n3nc(-c4c([H])c([H])c(Oc5c([H])c([H])c(F)c([H])c5F)c([H])c4[H])c(C(=O)N([H])[H])c3N([H])[H])C2([H])[H])C([H])([H])C1([H])[N+]([H])([H])[H]

>  <smiles>  (49) 
[H]C([H])=C1C([H])([H])[N+]([H])(C([H])([H])C([H])([H])Oc2c([H])c([H])c3c(c2[H])C([H])([H])N(C(=O)C([H])(N([H])C(=O)C([H])(N([H])C([H])([H])[H])C([H])([H])[H])C(C([H])([H])[H])(C([H])([H])[H])C([H])([H])[H])C([H])(C(=O)N([H])C2([H])c4c([H])c([H])c([H])c([H])c4C([H])([H])C([H])([H])C2([H])[H])C3([H])[H])C1([H])C([H])([H])C(=O)C1([H])N(C(=O)N2C([H])([H])C([H])([H])C([H])([H])C([H])(n3nc(-c4c([H])c([H])c(Oc5c([H])c([H])c(F)c([H])c5F)c([H])c4[H])c(C(=O)N([H])[H])c3N([H])[H])C2([H])[H])C([H])([H])C1([H])[N+]([H])([H])[H]

$$$$
49:0:0
     RDKit          3D

 97106  0  0  1  0  0  0  0  0999 V2000
  -30.2860  -20.8650   23.4460 C   0  0  0  0  0  0  0  0  0  0  0  0
  -30.3130  -19.9960   24.4690 C   0  0  0  0  0  2  0  0  0  0  0  0
  -30.3940  -22.3660   23.5670 C   0  0  0  0  0  2  0  0  0  0  0  0
  -30.0240  -21.8750   21.2850 C   0  0  0  0  0  2  0  0  0  0  0  0
  -30.0110  -20.5090   22.0040 C   0  0  0  0  0  3  0  0  0  0  0  0
  -29.7220  -22.8660   22.3470 N   0  0  2  0  0  4  0  0  0  0  0  0
  -28.7340  -22.8020   22.5410 H   0  0  0  0  0  0  0  0  0  0  0  0
  -33.1630  -18.7510   20.6730 C   0  0  0  0  0  3  0  0  0  0  0  0
  -32.2960  -19.7460   21.1590 C   0  0  0  0  0  3  0  0  0  0  0  0
  -32.6870  -17.4460   20.4520 C   0  0  0  0  0  3  0  0  0  0  0  0
  -30.4690  -18.1320   21.2000 C   0  0  0  0  0  3  0  0  0  0  0  0
  -30.9400  -19.4460   21.4190 C   0  0  0  0  0  0  0  0  0  0  0  0
  -31.3320  -17.1280   20.7060 C   0  0  0  0  0  0  0  0  0  0  0  0
  -31.3920  -14.8140   19.8320 C   0  0  0  0  0  0  0  0  0  0  0  0
  -31.0580  -12.5500   18.9100 C   0  0  0  0  0  2  0  0  0  0  0  0
  -30.0700  -12.5860   17.7280 C   0  0  0  0  0  2  0  0  0  0  0  0
  -28.6180  -12.4740   18.2290 C   0  0  0  0  0  2  0  0  0  0  0  0
  -28.3060  -13.4610   19.3850 C   0  0  0  0  0  3  0  0  0  0  0  0
  -29.4010  -13.3960   20.4740 C   0  0  0  0  0  2  0  0  0  0  0  0
  -30.7040  -13.6420   19.8300 N   0  0  0  0  0  0  0  0  0  0  0  0
  -32.4300  -14.9780   19.1840 O   0  0  0  0  0  0  0  0  0  0  0  0
  -30.8280  -15.8110   20.5320 N   0  0  0  0  0  0  0  0  0  0  0  0
  -29.9100  -15.6190   20.9050 H   0  0  0  0  0  0  0  0  0  0  0  0
  -25.9790  -14.1370   20.2560 C   0  0  0  0  0  0  0  0  0  0  0  0
  -24.9080  -13.3930   20.6750 C   0  0  0  0  0  0  0  0  0  0  0  0
  -25.3170  -12.0270   20.5830 C   0  0  0  0  0  0  0  0  0  0  0  0
  -26.9760  -13.2250   19.9410 N   0  0  0  0  0  0  0  0  0  0  0  0
  -26.5810  -11.9500   20.1920 N   0  0  0  0  0  0  0  0  0  0  0  0
  -24.5580  -10.7870   20.7900 C   0  0  0  0  0  0  0  0  0  0  0  0
  -24.9030   -9.8730   21.8100 C   0  0  0  0  0  3  0  0  0  0  0  0
  -24.1470   -8.6960   22.0010 C   0  0  0  0  0  3  0  0  0  0  0  0
  -23.0340   -8.4240   21.1710 C   0  0  0  0  0  0  0  0  0  0  0  0
  -22.7090   -9.3260   20.1430 C   0  0  0  0  0  3  0  0  0  0  0  0
  -23.4650  -10.4950   19.9510 C   0  0  0  0  0  3  0  0  0  0  0  0
  -22.2590   -7.2940   21.2670 O   0  0  0  0  0  0  0  0  0  0  0  0
  -21.9930   -6.7020   22.4750 C   0  0  0  0  0  0  0  0  0  0  0  0
  -21.3150   -7.3880   23.5070 C   0  0  0  0  0  3  0  0  0  0  0  0
  -21.0010   -6.7200   24.7090 C   0  0  0  0  0  3  0  0  0  0  0  0
  -21.3560   -5.3680   24.8770 C   0  0  0  0  0  0  0  0  0  0  0  0
  -22.0270   -4.6830   23.8490 C   0  0  0  0  0  3  0  0  0  0  0  0
  -22.3420   -5.3480   22.6500 C   0  0  0  0  0  0  0  0  0  0  0  0
  -22.9700   -4.6770   21.6550 F   0  0  0  0  0  0  0  0  0  0  0  0
  -21.0480   -4.7250   26.0260 F   0  0  0  0  0  0  0  0  0  0  0  0
  -23.5500  -13.9120   21.0490 C   0  0  0  0  0  0  0  0  0  0  0  0
  -22.8680  -13.2370   21.9680 N   0  0  0  0  0  0  0  0  0  0  0  0
  -23.1050  -14.9490   20.5600 O   0  0  0  0  0  0  0  0  0  0  0  0
  -23.2430  -12.3960   22.3830 H   0  0  0  0  0  0  0  0  0  0  0  0
  -21.9590  -13.5660   22.2610 H   0  0  0  0  0  0  0  0  0  0  0  0
  -26.1840  -15.5040   20.1000 N   0  0  0  0  0  0  0  0  0  0  0  0
  -25.4480  -16.1830   20.2660 H   0  0  0  0  0  0  0  0  0  0  0  0
  -27.0260  -15.9180   19.7210 H   0  0  0  0  0  0  0  0  0  0  0  0
  -30.0360  -24.2860   22.0330 C   0  0  0  0  0  2  0  0  0  0  0  0
  -29.0190  -24.9360   21.0600 C   0  0  0  0  0  2  0  0  0  0  0  0
  -28.1960  -26.8910   22.4540 C   0  0  0  0  0  1  0  0  0  0  0  0
  -30.2850  -27.1740   21.0390 C   0  0  0  0  0  1  0  0  0  0  0  0
  -28.9110  -26.4870   21.1310 C   0  0  1  0  0  0  0  0  0  0  0  0
  -28.2270  -26.8660   19.9150 O   0  0  0  0  0  0  0  0  0  0  0  0
  -24.6040  -31.8840   23.4100 C   0  0  0  0  0  0  0  0  0  0  0  0
  -27.0920  -27.6400   19.9930 C   0  0  0  0  0  0  0  0  0  0  0  0
  -23.3180  -30.5820   21.7420 C   0  0  0  0  0  3  0  0  0  0  0  0
  -24.7030  -29.1270   20.1680 C   0  0  0  0  0  0  0  0  0  0  0  0
  -25.8290  -30.9610   21.4490 C   0  0  0  0  0  2  0  0  0  0  0  0
  -25.8830  -29.6310   20.7290 C   0  0  0  0  0  0  0  0  0  0  0  0
  -27.0840  -28.9020   20.6260 C   0  0  0  0  0  3  0  0  0  0  0  0
  -25.9060  -27.1520   19.4120 C   0  0  0  0  0  3  0  0  0  0  0  0
  -24.7080  -27.8880   19.5010 C   0  0  0  0  0  3  0  0  0  0  0  0
  -23.4620  -29.9780   20.3170 C   0  0  0  0  0  2  0  0  0  0  0  0
  -24.6040  -31.1510   22.2600 N   0  0  0  0  0  0  0  0  0  0  0  0
  -23.5500  -32.1270   24.0130 O   0  0  0  0  0  0  0  0  0  0  0  0
  -22.7050  -29.5100   22.6700 C   0  0  0  0  0  0  0  0  0  0  0  0
  -21.4020  -29.2400   22.4890 N   0  0  0  0  0  0  0  0  0  0  0  0
  -23.3980  -28.9230   23.5070 O   0  0  0  0  0  0  0  0  0  0  0  0
  -20.9040  -29.7700   21.7860 H   0  0  0  0  0  0  0  0  0  0  0  0
  -18.1340  -27.7220   22.7410 C   0  0  0  0  0  0  0  0  0  0  0  0
  -20.6190  -28.2420   23.2170 C   0  0  0  0  0  3  0  0  0  0  0  0
  -20.9120  -26.8160   22.6950 C   0  0  0  0  0  2  0  0  0  0  0  0
  -19.9390  -26.3620   21.6030 C   0  0  0  0  0  2  0  0  0  0  0  0
  -18.5000  -26.3830   22.1250 C   0  0  0  0  0  2  0  0  0  0  0  0
  -19.1310  -28.6020   23.2390 C   0  0  0  0  0  0  0  0  0  0  0  0
  -18.7400  -29.8520   23.7670 C   0  0  0  0  0  3  0  0  0  0  0  0
  -17.3840  -30.2250   23.8070 C   0  0  0  0  0  3  0  0  0  0  0  0
  -16.3990  -29.3430   23.3270 C   0  0  0  0  0  3  0  0  0  0  0  0
  -16.7740  -28.0940   22.8000 C   0  0  0  0  0  3  0  0  0  0  0  0
  -25.9210  -32.4700   24.0090 C   0  0  0  0  0  3  0  0  0  0  0  0
  -26.4650  -31.6450   25.2390 C   0  0  1  0  0  0  0  0  0  0  0  0
  -25.3860  -31.3300   26.3020 C   0  0  0  0  0  1  0  0  0  0  0  0
  -27.0700  -30.3010   24.7680 C   0  0  0  0  0  1  0  0  0  0  0  0
  -27.6060  -32.4270   25.9320 C   0  0  0  0  0  1  0  0  0  0  0  0
  -25.6520  -33.8610   24.3920 N   0  0  0  0  0  0  0  0  0  0  0  0
  -26.0210  -34.9320   23.6770 C   0  0  0  0  0  0  0  0  0  0  0  0
  -26.6980  -34.8480   22.6480 O   0  0  0  0  0  0  0  0  0  0  0  0
  -25.0550  -34.0010   25.1940 H   0  0  0  0  0  0  0  0  0  0  0  0
  -24.3530  -36.7870   23.3690 C   0  0  0  0  0  1  0  0  0  0  0  0
  -25.5690  -36.3140   24.1820 C   0  0  0  0  0  3  0  0  0  0  0  0
  -27.7130  -37.1020   25.0810 C   0  0  0  0  0  1  0  0  0  0  0  0
  -26.6340  -37.3390   24.1260 N   0  0  0  0  0  0  0  0  0  0  0  0
  -26.2530  -38.2640   24.3020 H   0  0  0  0  0  0  0  0  0  0  0  0
  1  3  1  0
  1  2  2  0
  4  5  1  0
  4  6  1  0
  5 12  1  0
  5  1  1  0
  6  7  1  1
  6  3  1  0
  8  9  1  0
  9 12  2  0
 10  8  2  0
 10 13  1  0
 11 12  1  0
 13 11  2  0
 14 22  1  0
 15 20  1  0
 16 17  1  0
 16 15  1  0
 18 17  1  0
 18 27  1  0
 18 19  1  0
 20 14  1  0
 20 19  1  0
 21 14  2  0
 22 13  1  0
 22 23  1  0
 24 25  2  0
 25 44  1  0
 26 25  1  0
 26 29  1  0
 27 28  1  0
 27 24  1  0
 28 26  2  0
 29 30  1  0
 30 31  2  0
 32 35  1  0
 32 31  1  0
 33 32  2  0
 34 33  1  0
 34 29  2  0
 35 36  1  0
 36 41  2  0
 36 37  1  0
 37 38  2  0
 38 39  1  0
 39 43  1  0
 40 39  2  0
 41 40  1  0
 42 41  1  0
 44 45  1  0
 45 48  1  0
 45 47  1  0
 46 44  2  0
 49 24  1  0
 49 50  1  0
 51 49  1  0
 52  6  1  0
 53 56  1  0
 53 52  1  0
 56 55  1  6
 56 54  1  0
 57 59  1  0
 57 56  1  0
 58 69  2  0
 59 64  1  0
 60 68  1  0
 60 70  1  0
 61 67  1  0
 61 63  1  0
 62 68  1  0
 63 62  1  0
 64 63  2  0
 65 66  1  0
 65 59  2  0
 66 61  2  0
 67 60  1  0
 68 58  1  0
 70 72  2  0
 71 70  1  0
 73 71  1  0
 74 83  2  0
 74 79  1  0
 75 71  1  0
 75 79  1  0
 76 75  1  0
 77 78  1  0
 77 76  1  0
 78 74  1  0
 79 80  2  0
 80 81  1  0
 82 81  2  0
 83 82  1  0
 84 58  1  0
 84 89  1  0
 84 85  1  0
 85 88  1  1
 85 86  1  0
 87 85  1  0
 89 92  1  0
 90 94  1  0
 90 89  1  0
 91 90  2  0
 94 93  1  0
 96 94  1  0
 96 97  1  0
 96 95  1  0
M  ISO  4  14 100  22 100  56 101  57 101
M  END
>  <TORSDO>  (50) 
F 20

>  <SCORE>  (50) 
-12.529

>  <name>  (50) 
49

>  <ligand_id>  (50) 
49

>  <original_smiles>  (50) 
[H]C([H])=C1C([H])(c2c([H])c([H])c([H])c(N([H])C(=O)N3C([H])([H])C([H])([H])C([H])([H])C([H])(n4nc(-c5c([H])c([H])c(Oc6c([H])c([H])c(F)c([H])c6F)c([H])c5[H])c(C(=O)N([H])[H])c4N([H])[H])C3([H])[H])c2[H])C([H])([H])[N+]([H])(C([H])([H])C([H])([H])C(Oc2c([H])c([H])c3c(c2[H])C([H])([H])N(C(=O)C([H])(N([H])C(=O)C([H])(N([H])C([H])([H])[H])C([H])([H])[H])C(C([H])([H])[H])(C([H])([H])[H])C([H])([H])[H])C([H])(C(=O)N([H])C2([H])c4c([H])c([H])c([H])c([H])c4C([H])([H])C([H])([H])C2([H])[H])C3([H])[H])(C([H])([H])[H])C([H])([H])[H])C1([H])[H]

>  <smiles>  (50) 
[H]C([H])=C1C([H])(c2c([H])c([H])c([H])c(N([H])C(=O)N3C([H])([H])C([H])([H])C([H])([H])C([H])(n4nc(-c5c([H])c([H])c(Oc6c([H])c([H])c(F)c([H])c6F)c([H])c5[H])c(C(=O)N([H])[H])c4N([H])[H])C3([H])[H])c2[H])C([H])([H])[N+]([H])(C([H])([H])C([H])([H])C(Oc2c([H])c([H])c3c(c2[H])C([H])([H])N(C(=O)C([H])(N([H])C(=O)C([H])(N([H])C([H])([H])[H])C([H])([H])[H])C(C([H])([H])[H])(C([H])([H])[H])C([H])([H])[H])C([H])(C(=O)N([H])C2([H])c4c([H])c([H])c([H])c([H])c4C([H])([H])C([H])([H])C2([H])[H])C3([H])[H])(C([H])([H])[H])C([H])([H])[H])C1([H])[H]

$$$$
50:0:0
     RDKit          3D

 94102  0  0  1  0  0  0  0  0999 V2000
  -29.9040  -20.8560   21.7820 C   0  0  0  0  0  3  0  0  0  0  0  0
  -30.6690  -19.7490   21.9260 C   0  0  0  0  0  0  0  0  0  0  0  0
  -30.6050  -19.0090   23.2560 C   0  0  0  0  0  1  0  0  0  0  0  0
  -31.5810  -19.2770   20.8990 C   0  0  0  0  0  3  0  0  0  0  0  0
  -31.4210  -18.2950   19.9750 C   0  0  0  0  0  3  0  0  0  0  0  0
  -31.0720  -14.9410   20.0700 C   0  0  0  0  0  0  0  0  0  0  0  0
  -30.8570  -12.6810   19.0880 C   0  0  0  0  0  2  0  0  0  0  0  0
  -29.8670  -12.7680   17.9040 C   0  0  0  0  0  2  0  0  0  0  0  0
  -28.4030  -12.6440   18.3810 C   0  0  0  0  0  2  0  0  0  0  0  0
  -28.0900  -13.5670   19.5880 C   0  0  0  0  0  3  0  0  0  0  0  0
  -29.1740  -13.3730   20.6740 C   0  0  0  0  0  2  0  0  0  0  0  0
  -30.4650  -13.7160   20.0600 N   0  0  0  0  0  0  0  0  0  0  0  0
  -32.2090  -15.0970   19.6100 O   0  0  0  0  0  0  0  0  0  0  0  0
  -29.3120  -16.5190   21.2130 C   0  0  0  0  0  2  0  0  0  0  0  0
  -30.2550  -17.3750   19.5460 C   0  0  0  0  0  3  0  0  0  0  0  0
  -28.8400  -17.4750   20.1200 C   0  0  0  0  0  3  0  0  0  0  0  0
  -30.2290  -16.0150   20.1620 N   0  0  0  0  0  0  0  0  0  0  0  0
  -25.7490  -14.2620   20.4120 C   0  0  0  0  0  0  0  0  0  0  0  0
  -24.6620  -13.5260   20.8020 C   0  0  0  0  0  0  0  0  0  0  0  0
  -25.0580  -12.1570   20.6900 C   0  0  0  0  0  0  0  0  0  0  0  0
  -26.7420  -13.3460   20.1050 N   0  0  0  0  0  0  0  0  0  0  0  0
  -26.3310  -12.0720   20.3270 N   0  0  0  0  0  0  0  0  0  0  0  0
  -24.2850  -10.9230   20.8500 C   0  0  0  0  0  0  0  0  0  0  0  0
  -24.6970   -9.9080   21.7410 C   0  0  0  0  0  3  0  0  0  0  0  0
  -23.9260   -8.7350   21.8940 C   0  0  0  0  0  3  0  0  0  0  0  0
  -22.7320   -8.5690   21.1550 C   0  0  0  0  0  0  0  0  0  0  0  0
  -22.3380   -9.5760   20.2530 C   0  0  0  0  0  3  0  0  0  0  0  0
  -23.1090  -10.7390   20.0980 C   0  0  0  0  0  3  0  0  0  0  0  0
  -21.9320   -7.4530   21.2190 O   0  0  0  0  0  0  0  0  0  0  0  0
  -21.8470   -6.6950   22.3580 C   0  0  0  0  0  0  0  0  0  0  0  0
  -21.4320   -7.2470   23.5900 C   0  0  0  0  0  3  0  0  0  0  0  0
  -21.2880   -6.4170   24.7210 C   0  0  0  0  0  3  0  0  0  0  0  0
  -21.5550   -5.0380   24.6210 C   0  0  0  0  0  0  0  0  0  0  0  0
  -21.9610   -4.4870   23.3940 C   0  0  0  0  0  3  0  0  0  0  0  0
  -22.1040   -5.3130   22.2660 C   0  0  0  0  0  0  0  0  0  0  0  0
  -22.4740   -4.7720   21.0790 F   0  0  0  0  0  0  0  0  0  0  0  0
  -21.4120   -4.2390   25.7050 F   0  0  0  0  0  0  0  0  0  0  0  0
  -23.3000  -14.0500   21.1490 C   0  0  0  0  0  0  0  0  0  0  0  0
  -22.5810  -13.3590   22.0260 N   0  0  0  0  0  0  0  0  0  0  0  0
  -22.8830  -15.1090   20.6800 O   0  0  0  0  0  0  0  0  0  0  0  0
  -22.9320  -12.4980   22.4230 H   0  0  0  0  0  0  0  0  0  0  0  0
  -21.6690  -13.6910   22.3040 H   0  0  0  0  0  0  0  0  0  0  0  0
  -25.9600  -15.6290   20.2610 N   0  0  0  0  0  0  0  0  0  0  0  0
  -25.1320  -16.2170   20.2690 H   0  0  0  0  0  0  0  0  0  0  0  0
  -26.6130  -15.9130   19.5440 H   0  0  0  0  0  0  0  0  0  0  0  0
  -28.2220  -18.7720   20.4520 N   0  0  0  0  0  4  0  0  0  0  0  0
  -28.8600  -19.3350   20.9960 H   0  0  0  0  0  0  0  0  0  0  0  0
  -27.3730  -18.6480   20.9780 H   0  0  0  0  0  0  0  0  0  0  0  0
  -27.9900  -19.2770   19.6140 H   0  0  0  0  0  0  0  0  0  0  0  0
  -29.8330  -21.8740   20.6410 C   0  0  0  0  0  2  0  0  0  0  0  0
  -29.3470  -23.2370   21.2150 C   0  0  0  0  0  2  0  0  0  0  0  0
  -29.5260  -24.5540   20.3990 C   0  0  0  0  0  2  0  0  0  0  0  0
  -28.2040  -25.3650   20.2440 C   0  0  0  0  0  2  0  0  0  0  0  0
  -28.3410  -26.8010   20.2760 O   0  0  0  0  0  0  0  0  0  0  0  0
  -24.5300  -32.0200   23.3360 C   0  0  0  0  0  0  0  0  0  0  0  0
  -27.1630  -27.5390   20.2640 C   0  0  0  0  0  0  0  0  0  0  0  0
  -23.3160  -30.6070   21.7090 C   0  0  0  0  0  3  0  0  0  0  0  0
  -24.7620  -29.0570   20.2890 C   0  0  0  0  0  0  0  0  0  0  0  0
  -25.8450  -30.9550   21.5020 C   0  0  0  0  0  2  0  0  0  0  0  0
  -25.9270  -29.5800   20.8640 C   0  0  0  0  0  0  0  0  0  0  0  0
  -27.1300  -28.8300   20.8450 C   0  0  0  0  0  3  0  0  0  0  0  0
  -25.9740  -27.0400   19.6790 C   0  0  0  0  0  3  0  0  0  0  0  0
  -24.7840  -27.7870   19.6920 C   0  0  0  0  0  3  0  0  0  0  0  0
  -23.5170  -29.9130   20.3360 C   0  0  0  0  0  2  0  0  0  0  0  0
  -24.5810  -31.2100   22.2400 N   0  0  0  0  0  0  0  0  0  0  0  0
  -23.4510  -32.3000   23.8790 O   0  0  0  0  0  0  0  0  0  0  0  0
  -22.6610  -29.5990   22.6800 C   0  0  0  0  0  0  0  0  0  0  0  0
  -21.3470  -29.3780   22.5190 N   0  0  0  0  0  0  0  0  0  0  0  0
  -23.3380  -29.0140   23.5300 O   0  0  0  0  0  0  0  0  0  0  0  0
  -20.8640  -29.9000   21.8010 H   0  0  0  0  0  0  0  0  0  0  0  0
  -18.0070  -28.0520   22.9110 C   0  0  0  0  0  0  0  0  0  0  0  0
  -20.5330  -28.4420   23.2930 C   0  0  0  0  0  3  0  0  0  0  0  0
  -20.7290  -26.9920   22.7950 C   0  0  0  0  0  2  0  0  0  0  0  0
  -19.6960  -26.5720   21.7440 C   0  0  0  0  0  2  0  0  0  0  0  0
  -18.2770  -26.6830   22.3120 C   0  0  0  0  0  2  0  0  0  0  0  0
  -19.0670  -28.8840   23.3570 C   0  0  0  0  0  0  0  0  0  0  0  0
  -18.7640  -30.1620   23.8760 C   0  0  0  0  0  3  0  0  0  0  0  0
  -17.4320  -30.6110   23.9530 C   0  0  0  0  0  3  0  0  0  0  0  0
  -16.3850  -29.7770   23.5230 C   0  0  0  0  0  3  0  0  0  0  0  0
  -16.6720  -28.4990   23.0090 C   0  0  0  0  0  3  0  0  0  0  0  0
  -25.8210  -32.6520   23.9460 C   0  0  0  0  0  3  0  0  0  0  0  0
  -25.5240  -34.0580   24.2510 N   0  0  0  0  0  0  0  0  0  0  0  0
  -25.8770  -35.0930   23.4770 C   0  0  0  0  0  0  0  0  0  0  0  0
  -26.5560  -34.9660   22.4550 O   0  0  0  0  0  0  0  0  0  0  0  0
  -24.9250  -34.2330   25.0450 H   0  0  0  0  0  0  0  0  0  0  0  0
  -24.1690  -36.8970   23.0740 C   0  0  0  0  0  1  0  0  0  0  0  0
  -25.3990  -36.4950   23.9060 C   0  0  0  0  0  3  0  0  0  0  0  0
  -27.5330  -37.3690   24.7420 C   0  0  0  0  0  1  0  0  0  0  0  0
  -26.4440  -37.5350   23.7840 N   0  0  0  0  0  0  0  0  0  0  0  0
  -26.0460  -38.4620   23.9100 H   0  0  0  0  0  0  0  0  0  0  0  0
  -26.3330  -31.8980   25.2350 C   0  0  1  0  0  0  0  0  0  0  0  0
  -25.2350  -31.6720   26.3000 C   0  0  0  0  0  1  0  0  0  0  0  0
  -26.9190  -30.5150   24.8660 C   0  0  0  0  0  1  0  0  0  0  0  0
  -27.4820  -32.7010   25.8900 C   0  0  0  0  0  1  0  0  0  0  0  0
  1  2  2  0
  2  3  1  0
  4  2  1  0
  5  4  2  0
  6 17  1  0
  7 12  1  0
  8  9  1  0
  8  7  1  0
 10  9  1  0
 10 21  1  0
 10 11  1  0
 12  6  1  0
 12 11  1  0
 13  6  2  0
 15  5  1  0
 15 16  1  0
 15 17  1  0
 16 46  1  0
 16 14  1  0
 17 14  1  0
 18 19  2  0
 19 38  1  0
 20 19  1  0
 20 23  1  0
 21 22  1  0
 21 18  1  0
 22 20  2  0
 23 24  1  0
 24 25  2  0
 26 29  1  0
 26 25  1  0
 27 26  2  0
 28 27  1  0
 28 23  2  0
 29 30  1  0
 30 31  1  0
 31 32  2  0
 33 32  1  0
 33 37  1  0
 34 33  2  0
 35 30  2  0
 35 34  1  0
 36 35  1  0
 38 39  1  0
 39 42  1  0
 39 41  1  0
 40 38  2  0
 43 44  1  0
 43 18  1  0
 45 43  1  0
 46 48  1  0
 46 47  1  0
 49 46  1  0
 50 51  1  0
 50  1  1  0
 52 51  1  0
 53 54  1  0
 53 52  1  0
 55 66  2  0
 56 54  1  0
 56 61  1  0
 57 65  1  0
 57 67  1  0
 58 64  1  0
 58 60  1  0
 59 65  1  0
 60 59  1  0
 61 60  2  0
 62 63  1  0
 62 56  2  0
 63 58  2  0
 64 57  1  0
 65 55  1  0
 67 69  2  0
 68 67  1  0
 70 68  1  0
 71 80  2  0
 71 76  1  0
 72 68  1  0
 72 76  1  0
 73 72  1  0
 74 75  1  0
 74 73  1  0
 75 71  1  0
 76 77  2  0
 77 78  1  0
 79 78  2  0
 80 79  1  0
 81 55  1  0
 81 82  1  0
 81 91  1  0
 82 85  1  0
 83 87  1  0
 83 82  1  0
 84 83  2  0
 87 86  1  0
 89 87  1  0
 89 90  1  0
 89 88  1  0
 91 94  1  1
 91 92  1  0
 93 91  1  0
M  ISO  4   6 100  17 100  53 101  54 101
M  END
>  <TORSDO>  (51) 
F 22

>  <SCORE>  (51) 
-12.554

>  <name>  (51) 
50

>  <ligand_id>  (51) 
50

>  <original_smiles>  (51) 
[H]C(C(=C([H])C([H])([H])C([H])([H])C([H])([H])C([H])([H])Oc1c([H])c([H])c2c(c1[H])C([H])([H])N(C(=O)C([H])(N([H])C(=O)C([H])(N([H])C([H])([H])[H])C([H])([H])[H])C(C([H])([H])[H])(C([H])([H])[H])C([H])([H])[H])C([H])(C(=O)N([H])C1([H])c3c([H])c([H])c([H])c([H])c3C([H])([H])C([H])([H])C1([H])[H])C2([H])[H])C([H])([H])[H])=C([H])C1([H])N(C(=O)N2C([H])([H])C([H])([H])C([H])([H])C([H])(n3nc(-c4c([H])c([H])c(Oc5c([H])c([H])c(F)c([H])c5F)c([H])c4[H])c(C(=O)N([H])[H])c3N([H])[H])C2([H])[H])C([H])([H])C1([H])[N+]([H])([H])[H]

>  <smiles>  (51) 
[H]C(C(=C([H])C([H])([H])C([H])([H])C([H])([H])C([H])([H])Oc1c([H])c([H])c2c(c1[H])C([H])([H])N(C(=O)C([H])(N([H])C(=O)C([H])(N([H])C([H])([H])[H])C([H])([H])[H])C(C([H])([H])[H])(C([H])([H])[H])C([H])([H])[H])C([H])(C(=O)N([H])C1([H])c3c([H])c([H])c([H])c([H])c3C([H])([H])C([H])([H])C1([H])[H])C2([H])[H])C([H])([H])[H])=C([H])C1([H])N(C(=O)N2C([H])([H])C([H])([H])C([H])([H])C([H])(n3nc(-c4c([H])c([H])c(Oc5c([H])c([H])c(F)c([H])c5F)c([H])c4[H])c(C(=O)N([H])[H])c3N([H])[H])C2([H])[H])C([H])([H])C1([H])[N+]([H])([H])[H]

$$$$
51:0:0
     RDKit          3D

102111  0  0  1  0  0  0  0  0999 V2000
  -23.9830  -19.7240   18.4670 C   0  0  0  0  0  2  0  0  0  0  0  0
  -25.8870  -20.0370   17.7620 C   0  0  0  0  0  3  0  0  0  0  0  0
  -25.0660  -20.7290   18.8640 C   0  0  0  0  0  3  0  0  0  0  0  0
  -25.0750  -18.8510   18.0340 N   0  0  0  0  0  4  0  0  0  0  0  0
  -24.8600  -18.2930   17.2240 H   0  0  0  0  0  0  0  0  0  0  0  0
  -25.4560  -18.3020   18.7870 H   0  0  0  0  0  0  0  0  0  0  0  0
  -29.5590  -19.3710   16.8690 C   0  0  0  0  0  3  0  0  0  0  0  0
  -28.1560  -19.3840   16.7900 C   0  0  0  0  0  3  0  0  0  0  0  0
  -30.2120  -19.8160   18.0360 C   0  0  0  0  0  3  0  0  0  0  0  0
  -28.0570  -20.2010   19.0850 C   0  0  0  0  0  3  0  0  0  0  0  0
  -27.3940  -19.8310   17.8920 C   0  0  0  0  0  0  0  0  0  0  0  0
  -29.4650  -20.2130   19.1670 C   0  0  0  0  0  0  0  0  0  0  0  0
  -30.1040  -20.7220   20.4650 C   0  0  0  0  0  2  0  0  0  0  0  0
  -31.3600  -20.0100   21.0110 C   0  0  0  0  0  2  0  0  0  0  0  0
  -32.0170  -17.6620   20.5100 C   0  0  0  0  0  0  0  0  0  0  0  0
  -32.1070  -15.3720   19.6120 C   0  0  0  0  0  2  0  0  0  0  0  0
  -31.2890  -15.2870   18.3060 C   0  0  0  0  0  2  0  0  0  0  0  0
  -29.7960  -15.0390   18.5950 C   0  0  0  0  0  2  0  0  0  0  0  0
  -29.2270  -15.9880   19.6800 C   0  0  0  0  0  3  0  0  0  0  0  0
  -30.1550  -16.0190   20.9140 C   0  0  0  0  0  2  0  0  0  0  0  0
  -31.5060  -16.4090   20.4600 N   0  0  0  0  0  0  0  0  0  0  0  0
  -33.1000  -17.9810   20.0030 O   0  0  0  0  0  0  0  0  0  0  0  0
  -31.2050  -18.5620   21.0760 N   0  0  0  0  0  0  0  0  0  0  0  0
  -30.3420  -18.2110   21.4660 H   0  0  0  0  0  0  0  0  0  0  0  0
  -26.7620  -16.4350   20.2600 C   0  0  0  0  0  0  0  0  0  0  0  0
  -25.7160  -15.5920   20.5270 C   0  0  0  0  0  0  0  0  0  0  0  0
  -26.2520  -14.2700   20.4500 C   0  0  0  0  0  0  0  0  0  0  0  0
  -27.8630  -15.6230   20.0490 N   0  0  0  0  0  0  0  0  0  0  0  0
  -27.5570  -14.3120   20.2150 N   0  0  0  0  0  0  0  0  0  0  0  0
  -25.5900  -12.9630   20.5280 C   0  0  0  0  0  0  0  0  0  0  0  0
  -25.9200  -12.0280   21.5340 C   0  0  0  0  0  3  0  0  0  0  0  0
  -25.2590  -10.7820   21.5960 C   0  0  0  0  0  3  0  0  0  0  0  0
  -24.2550  -10.4640   20.6510 C   0  0  0  0  0  0  0  0  0  0  0  0
  -23.9480  -11.3880   19.6360 C   0  0  0  0  0  3  0  0  0  0  0  0
  -24.6100  -12.6250   19.5730 C   0  0  0  0  0  3  0  0  0  0  0  0
  -23.5730   -9.2720   20.6210 O   0  0  0  0  0  0  0  0  0  0  0  0
  -23.1480   -8.6580   21.7710 C   0  0  0  0  0  0  0  0  0  0  0  0
  -22.2800   -9.2970   22.6830 C   0  0  0  0  0  3  0  0  0  0  0  0
  -21.8160   -8.6040   23.8180 C   0  0  0  0  0  3  0  0  0  0  0  0
  -22.2070   -7.2690   24.0370 C   0  0  0  0  0  0  0  0  0  0  0  0
  -23.0650   -6.6290   23.1260 C   0  0  0  0  0  3  0  0  0  0  0  0
  -23.5330   -7.3210   21.9960 C   0  0  0  0  0  0  0  0  0  0  0  0
  -24.3450   -6.6930   21.1120 F   0  0  0  0  0  0  0  0  0  0  0  0
  -21.7550   -6.5990   25.1230 F   0  0  0  0  0  0  0  0  0  0  0  0
  -24.2820  -15.9830   20.7380 C   0  0  0  0  0  0  0  0  0  0  0  0
  -23.5430  -15.2060   21.5260 N   0  0  0  0  0  0  0  0  0  0  0  0
  -23.8180  -17.0070   20.2420 O   0  0  0  0  0  0  0  0  0  0  0  0
  -23.9270  -14.3820   21.9610 H   0  0  0  0  0  0  0  0  0  0  0  0
  -22.5740  -15.4380   21.6950 H   0  0  0  0  0  0  0  0  0  0  0  0
  -26.8580  -17.8170   20.1630 N   0  0  0  0  0  0  0  0  0  0  0  0
  -26.0940  -18.4140   20.4400 H   0  0  0  0  0  0  0  0  0  0  0  0
  -27.7120  -18.3160   19.9330 H   0  0  0  0  0  0  0  0  0  0  0  0
  -25.7340  -23.1420   18.5780 C   0  0  0  0  0  3  0  0  0  0  0  0
  -24.7520  -22.2170   18.6830 C   0  0  0  0  0  0  0  0  0  0  0  0
  -23.2680  -22.5500   18.6970 C   0  0  0  0  0  1  0  0  0  0  0  0
  -25.6050  -24.6520   18.4520 C   0  0  0  0  0  2  0  0  0  0  0  0
  -26.4130  -25.1580   17.3210 N   0  0  0  0  0  4  0  0  0  0  0  0
  -25.8150  -25.1910   16.5080 H   0  0  0  0  0  0  0  0  0  0  0  0
  -27.1590  -24.5070   17.1240 H   0  0  0  0  0  0  0  0  0  0  0  0
  -27.0090  -26.4970   17.5610 C   0  0  0  0  0  2  0  0  0  0  0  0
  -26.9310  -27.4230   16.3210 C   0  0  0  0  0  2  0  0  0  0  0  0
  -26.9730  -28.8090   16.6790 O   0  0  0  0  0  0  0  0  0  0  0  0
  -25.3710  -29.5450   23.5550 C   0  0  0  0  0  0  0  0  0  0  0  0
  -26.0470  -29.2860   17.5840 C   0  0  0  0  0  0  0  0  0  0  0  0
  -23.5340  -30.0320   21.9700 C   0  0  0  0  0  3  0  0  0  0  0  0
  -24.2070  -30.2110   19.5220 C   0  0  0  0  0  0  0  0  0  0  0  0
  -25.9740  -30.3620   21.2800 C   0  0  0  0  0  2  0  0  0  0  0  0
  -25.5520  -30.0370   19.8620 C   0  0  0  0  0  0  0  0  0  0  0  0
  -26.4750  -29.5760   18.8980 C   0  0  0  0  0  3  0  0  0  0  0  0
  -24.6820  -29.4820   17.2570 C   0  0  0  0  0  3  0  0  0  0  0  0
  -23.7640  -29.9270   18.2210 C   0  0  0  0  0  3  0  0  0  0  0  0
  -23.2840  -30.7200   20.6030 C   0  0  0  0  0  2  0  0  0  0  0  0
  -24.9920  -29.9400   22.3070 N   0  0  0  0  0  0  0  0  0  0  0  0
  -24.5300  -29.2990   24.4320 O   0  0  0  0  0  0  0  0  0  0  0  0
  -22.8190  -28.6640   21.9730 C   0  0  0  0  0  0  0  0  0  0  0  0
  -21.4790  -28.6900   21.8930 N   0  0  0  0  0  0  0  0  0  0  0  0
  -23.4610  -27.6110   22.0200 O   0  0  0  0  0  0  0  0  0  0  0  0
  -21.0260  -29.5940   21.8620 H   0  0  0  0  0  0  0  0  0  0  0  0
  -18.0600  -27.6590   21.3790 C   0  0  0  0  0  0  0  0  0  0  0  0
  -20.5970  -27.5260   21.8490 C   0  0  0  0  0  3  0  0  0  0  0  0
  -20.7090  -26.8000   20.4890 C   0  0  0  0  0  2  0  0  0  0  0  0
  -19.6690  -27.2700   19.4660 C   0  0  0  0  0  2  0  0  0  0  0  0
  -18.2520  -27.0500   20.0020 C   0  0  0  0  0  2  0  0  0  0  0  0
  -19.1620  -27.8960   22.2410 C   0  0  0  0  0  0  0  0  0  0  0  0
  -18.9320  -28.4970   23.4980 C   0  0  0  0  0  3  0  0  0  0  0  0
  -17.6300  -28.8480   23.9020 C   0  0  0  0  0  3  0  0  0  0  0  0
  -16.5390  -28.5920   23.0530 C   0  0  0  0  0  3  0  0  0  0  0  0
  -16.7560  -28.0020   21.7940 C   0  0  0  0  0  3  0  0  0  0  0  0
  -26.8750  -29.4090   23.9490 C   0  0  0  0  0  3  0  0  0  0  0  0
  -27.0540  -30.0830   25.2420 N   0  0  0  0  0  0  0  0  0  0  0  0
  -27.6330  -31.2820   25.3990 C   0  0  0  0  0  0  0  0  0  0  0  0
  -28.1440  -31.9070   24.4670 O   0  0  0  0  0  0  0  0  0  0  0  0
  -26.6100  -29.6580   26.0400 H   0  0  0  0  0  0  0  0  0  0  0  0
  -26.5730  -32.9700   26.9340 C   0  0  0  0  0  1  0  0  0  0  0  0
  -27.6500  -31.8780   26.8190 C   0  0  0  0  0  3  0  0  0  0  0  0
  -29.9910  -31.4110   27.3910 C   0  0  0  0  0  1  0  0  0  0  0  0
  -28.9640  -32.4320   27.2100 N   0  0  0  0  0  0  0  0  0  0  0  0
  -28.8890  -32.9600   28.0750 H   0  0  0  0  0  0  0  0  0  0  0  0
  -27.3620  -27.9100   24.0240 C   0  0  1  0  0  0  0  0  0  0  0  0
  -26.4580  -27.0030   24.8910 C   0  0  0  0  0  1  0  0  0  0  0  0
  -27.4240  -27.2890   22.6110 C   0  0  0  0  0  1  0  0  0  0  0  0
  -28.7970  -27.8490   24.5990 C   0  0  0  0  0  1  0  0  0  0  0  0
  1  3  1  0
  2 11  1  0
  2  4  1  0
  2  3  1  0
  3 54  1  0
  4  1  1  0
  4  6  1  0
  5  4  1  0
  7  9  1  0
  8  7  2  0
  8 11  1  0
  9 12  2  0
 10 12  1  0
 11 10  2  0
 12 13  1  0
 13 14  1  0
 14 23  1  0
 15 23  1  0
 16 21  1  0
 17 18  1  0
 17 16  1  0
 19 18  1  0
 19 28  1  0
 19 20  1  0
 21 15  1  0
 21 20  1  0
 22 15  2  0
 23 24  1  0
 25 26  2  0
 26 45  1  0
 27 26  1  0
 27 30  1  0
 28 29  1  0
 28 25  1  0
 29 27  2  0
 30 31  1  0
 31 32  2  0
 33 32  1  0
 34 33  2  0
 35 34  1  0
 35 30  2  0
 36 33  1  0
 36 37  1  0
 37 42  2  0
 37 38  1  0
 38 39  2  0
 39 40  1  0
 40 44  1  0
 41 40  2  0
 42 41  1  0
 43 42  1  0
 45 46  1  0
 46 49  1  0
 46 48  1  0
 47 45  2  0
 50 25  1  0
 50 51  1  0
 52 50  1  0
 53 54  2  0
 54 55  1  0
 56 53  1  0
 57 60  1  0
 57 56  1  0
 58 57  1  0
 59 57  1  0
 61 62  1  0
 61 60  1  0
 62 64  1  0
 63 74  2  0
 64 69  1  0
 65 75  1  0
 65 73  1  0
 66 68  1  0
 66 72  1  0
 67 73  1  0
 68 67  1  0
 69 68  2  0
 70 64  2  0
 70 71  1  0
 71 66  2  0
 72 65  1  0
 73 63  1  0
 75 77  2  0
 76 75  1  0
 78 76  1  0
 79 88  2  0
 79 84  1  0
 80 76  1  0
 80 84  1  0
 81 80  1  0
 82 83  1  0
 82 81  1  0
 83 79  1  0
 84 85  2  0
 85 86  1  0
 87 86  2  0
 88 87  1  0
 89 63  1  0
 89 99  1  0
 89 90  1  0
 90 91  1  0
 90 93  1  0
 91 95  1  0
 92 91  2  0
 95 94  1  0
 95 97  1  0
 97 96  1  0
 97 98  1  0
 99102  1  1
 99100  1  0
101 99  1  0
M  ISO  4  15 100  23 100  61 101  62 101
M  END
>  <TORSDO>  (52) 
F 24

>  <SCORE>  (52) 
1.015

>  <name>  (52) 
51

>  <ligand_id>  (52) 
51

>  <original_smiles>  (52) 
[H]C(=C(C([H])([H])[H])C1([H])C([H])([H])[N+]([H])([H])C1([H])c1c([H])c([H])c([H])c(C([H])([H])C([H])([H])N([H])C(=O)N2C([H])([H])C([H])([H])C([H])([H])C([H])(n3nc(-c4c([H])c([H])c(Oc5c([H])c([H])c(F)c([H])c5F)c([H])c4[H])c(C(=O)N([H])[H])c3N([H])[H])C2([H])[H])c1[H])C([H])([H])[N+]([H])([H])C([H])([H])C([H])([H])Oc1c([H])c([H])c2c(c1[H])C([H])([H])N(C(=O)C([H])(N([H])C(=O)C([H])(N([H])C([H])([H])[H])C([H])([H])[H])C(C([H])([H])[H])(C([H])([H])[H])C([H])([H])[H])C([H])(C(=O)N([H])C1([H])c3c([H])c([H])c([H])c([H])c3C([H])([H])C([H])([H])C1([H])[H])C2([H])[H]

>  <smiles>  (52) 
[H]C(=C(C([H])([H])[H])C1([H])C([H])([H])[N+]([H])([H])C1([H])c1c([H])c([H])c([H])c(C([H])([H])C([H])([H])N([H])C(=O)N2C([H])([H])C([H])([H])C([H])([H])C([H])(n3nc(-c4c([H])c([H])c(Oc5c([H])c([H])c(F)c([H])c5F)c([H])c4[H])c(C(=O)N([H])[H])c3N([H])[H])C2([H])[H])c1[H])C([H])([H])[N+]([H])([H])C([H])([H])C([H])([H])Oc1c([H])c([H])c2c(c1[H])C([H])([H])N(C(=O)C([H])(N([H])C(=O)C([H])(N([H])C([H])([H])[H])C([H])([H])[H])C(C([H])([H])[H])(C([H])([H])[H])C([H])([H])[H])C([H])(C(=O)N([H])C1([H])c3c([H])c([H])c([H])c([H])c3C([H])([H])C([H])([H])C1([H])[H])C2([H])[H]

$$$$
52:0:0
     RDKit          3D

102111  0  0  1  0  0  0  0  0999 V2000
  -29.9260  -20.7920   18.9030 C   0  0  0  0  0  3  0  0  0  0  0  0
  -29.7260  -18.8270   17.4740 C   0  0  0  0  0  3  0  0  0  0  0  0
  -30.2620  -20.9890   16.4970 C   0  0  0  0  0  3  0  0  0  0  0  0
  -29.6920  -19.4060   18.7590 C   0  0  0  0  0  0  0  0  0  0  0  0
  -30.2190  -21.5940   17.7740 C   0  0  0  0  0  0  0  0  0  0  0  0
  -30.0170  -19.6100   16.3380 C   0  0  0  0  0  0  0  0  0  0  0  0
  -29.8540  -23.8590   19.0180 C   0  0  0  0  0  2  0  0  0  0  0  0
  -31.9800  -24.8640   18.5660 C   0  0  0  0  0  2  0  0  0  0  0  0
  -30.5530  -23.0800   17.8930 C   0  0  0  0  0  3  0  0  0  0  0  0
  -32.0290  -23.3870   18.1390 C   0  0  0  0  0  3  0  0  0  0  0  0
  -32.9480  -23.1210   16.9360 C   0  0  0  0  0  1  0  0  0  0  0  0
  -30.6480  -25.1020   19.1860 N   0  0  1  0  0  4  0  0  0  0  0  0
  -30.8100  -25.2040   20.1780 H   0  0  0  0  0  0  0  0  0  0  0  0
  -29.9750  -26.3520   18.7280 C   0  0  0  0  0  2  0  0  0  0  0  0
  -29.6630  -27.3060   19.8940 C   0  0  0  0  0  2  0  0  0  0  0  0
  -28.5490  -26.8020   20.6150 O   0  0  0  0  0  0  0  0  0  0  0  0
  -24.5600  -31.9890   23.4160 C   0  0  0  0  0  0  0  0  0  0  0  0
  -27.3990  -27.5480   20.5370 C   0  0  0  0  0  0  0  0  0  0  0  0
  -23.4390  -30.5280   21.7600 C   0  0  0  0  0  3  0  0  0  0  0  0
  -24.9740  -28.9830   20.4290 C   0  0  0  0  0  0  0  0  0  0  0  0
  -25.9610  -30.9340   21.6470 C   0  0  0  0  0  2  0  0  0  0  0  0
  -26.0990  -29.5530   21.0430 C   0  0  0  0  0  0  0  0  0  0  0  0
  -27.3160  -28.8420   21.0990 C   0  0  0  0  0  3  0  0  0  0  0  0
  -26.2610  -26.9780   19.9360 C   0  0  0  0  0  3  0  0  0  0  0  0
  -25.0490  -27.6940   19.8720 C   0  0  0  0  0  3  0  0  0  0  0  0
  -23.7110  -29.8130   20.4080 C   0  0  0  0  0  2  0  0  0  0  0  0
  -24.6690  -31.1660   22.3340 N   0  0  0  0  0  0  0  0  0  0  0  0
  -23.4550  -32.2560   23.9080 O   0  0  0  0  0  0  0  0  0  0  0  0
  -22.7660  -29.5230   22.7200 C   0  0  0  0  0  0  0  0  0  0  0  0
  -21.4660  -29.2670   22.5030 N   0  0  0  0  0  0  0  0  0  0  0  0
  -23.4140  -28.9730   23.6150 O   0  0  0  0  0  0  0  0  0  0  0  0
  -21.0040  -29.7640   21.7540 H   0  0  0  0  0  0  0  0  0  0  0  0
  -18.1290  -27.9130   22.7880 C   0  0  0  0  0  0  0  0  0  0  0  0
  -20.6380  -28.3240   23.2540 C   0  0  0  0  0  3  0  0  0  0  0  0
  -20.8610  -26.8740   22.7640 C   0  0  0  0  0  2  0  0  0  0  0  0
  -19.8660  -26.4410   21.6820 C   0  0  0  0  0  2  0  0  0  0  0  0
  -18.4290  -26.5430   22.2030 C   0  0  0  0  0  2  0  0  0  0  0  0
  -19.1670  -28.7550   23.2670 C   0  0  0  0  0  0  0  0  0  0  0  0
  -18.8370  -30.0330   23.7680 C   0  0  0  0  0  3  0  0  0  0  0  0
  -17.4990  -30.4700   23.7970 C   0  0  0  0  0  3  0  0  0  0  0  0
  -16.4730  -29.6260   23.3380 C   0  0  0  0  0  3  0  0  0  0  0  0
  -16.7880  -28.3490   22.8400 C   0  0  0  0  0  3  0  0  0  0  0  0
  -25.8120  -32.6520   24.0710 C   0  0  0  0  0  3  0  0  0  0  0  0
  -25.4960  -34.0670   24.3000 N   0  0  0  0  0  0  0  0  0  0  0  0
  -25.8910  -35.0740   23.5100 C   0  0  0  0  0  0  0  0  0  0  0  0
  -26.6330  -34.9080   22.5360 O   0  0  0  0  0  0  0  0  0  0  0  0
  -24.8490  -34.2710   25.0490 H   0  0  0  0  0  0  0  0  0  0  0  0
  -24.2070  -36.8490   22.9310 C   0  0  0  0  0  1  0  0  0  0  0  0
  -25.3840  -36.4870   23.8510 C   0  0  0  0  0  3  0  0  0  0  0  0
  -27.4530  -37.4150   24.7920 C   0  0  0  0  0  1  0  0  0  0  0  0
  -26.4320  -37.5270   23.7550 N   0  0  0  0  0  0  0  0  0  0  0  0
  -26.0240  -38.4570   23.8100 H   0  0  0  0  0  0  0  0  0  0  0  0
  -26.2570  -31.9540   25.4140 C   0  0  1  0  0  0  0  0  0  0  0  0
  -25.0950  -31.7130   26.4040 C   0  0  0  0  0  1  0  0  0  0  0  0
  -26.9200  -30.5870   25.1240 C   0  0  0  0  0  1  0  0  0  0  0  0
  -27.3230  -32.8190   26.1290 C   0  0  0  0  0  1  0  0  0  0  0  0
  -30.0690  -18.9850   14.9490 C   0  0  1  0  0  0  0  0  0  0  0  0
  -30.0410  -17.6550   15.0100 F   0  0  0  0  0  0  0  0  0  0  0  0
  -29.0250  -19.4000   14.2330 F   0  0  0  0  0  0  0  0  0  0  0  0
  -31.1860  -19.3490   14.3150 F   0  0  0  0  0  0  0  0  0  0  0  0
  -30.3500  -17.9890   20.6380 C   0  0  0  0  0  3  0  0  0  0  0  0
  -29.3630  -18.5620   19.9170 C   0  0  0  0  0  0  0  0  0  0  0  0
  -27.8730  -18.3930   20.1770 C   0  0  0  0  0  1  0  0  0  0  0  0
  -30.2160  -17.1110   21.8770 C   0  0  0  0  0  2  0  0  0  0  0  0
  -30.6520  -14.8820   20.7900 C   0  0  0  0  0  0  0  0  0  0  0  0
  -30.4420  -12.8730   19.3710 C   0  0  0  0  0  2  0  0  0  0  0  0
  -29.4930  -13.1750   18.1930 C   0  0  0  0  0  2  0  0  0  0  0  0
  -28.0140  -12.9810   18.5920 C   0  0  0  0  0  2  0  0  0  0  0  0
  -27.6580  -13.6570   19.9440 C   0  0  0  0  0  3  0  0  0  0  0  0
  -28.7080  -13.2960   21.0160 C   0  0  0  0  0  2  0  0  0  0  0  0
  -30.0290  -13.7080   20.5080 N   0  0  0  0  0  0  0  0  0  0  0  0
  -31.7480  -15.2060   20.3240 O   0  0  0  0  0  0  0  0  0  0  0  0
  -29.9160  -15.7230   21.5330 N   0  0  0  0  0  0  0  0  0  0  0  0
  -29.0200  -15.3720   21.8310 H   0  0  0  0  0  0  0  0  0  0  0  0
  -25.2100  -14.1410   20.5750 C   0  0  0  0  0  0  0  0  0  0  0  0
  -24.1700  -13.3130   20.9070 C   0  0  0  0  0  0  0  0  0  0  0  0
  -24.6970  -11.9860   20.8750 C   0  0  0  0  0  0  0  0  0  0  0  0
  -26.3040  -13.3130   20.3720 N   0  0  0  0  0  0  0  0  0  0  0  0
  -25.9970  -12.0120   20.6020 N   0  0  0  0  0  0  0  0  0  0  0  0
  -24.0310  -10.6900   21.0320 C   0  0  0  0  0  0  0  0  0  0  0  0
  -24.4260   -9.7770   22.0330 C   0  0  0  0  0  3  0  0  0  0  0  0
  -23.7620   -8.5400   22.1750 C   0  0  0  0  0  3  0  0  0  0  0  0
  -22.6870   -8.2080   21.3180 C   0  0  0  0  0  0  0  0  0  0  0  0
  -22.3120   -9.1110   20.3090 C   0  0  0  0  0  3  0  0  0  0  0  0
  -22.9760  -10.3410   20.1650 C   0  0  0  0  0  3  0  0  0  0  0  0
  -22.0010   -7.0190   21.3670 O   0  0  0  0  0  0  0  0  0  0  0  0
  -21.8310   -6.3320   22.5420 C   0  0  0  0  0  0  0  0  0  0  0  0
  -21.1400   -6.8940   23.6390 C   0  0  0  0  0  3  0  0  0  0  0  0
  -20.9290   -6.1280   24.8020 C   0  0  0  0  0  3  0  0  0  0  0  0
  -21.3940   -4.8010   24.8680 C   0  0  0  0  0  0  0  0  0  0  0  0
  -22.0770   -4.2390   23.7750 C   0  0  0  0  0  3  0  0  0  0  0  0
  -22.2910   -5.0020   22.6140 C   0  0  0  0  0  0  0  0  0  0  0  0
  -22.9290   -4.4480   21.5550 F   0  0  0  0  0  0  0  0  0  0  0  0
  -21.1860   -4.0630   25.9840 F   0  0  0  0  0  0  0  0  0  0  0  0
  -22.7440  -13.7160   21.1460 C   0  0  0  0  0  0  0  0  0  0  0  0
  -22.0280  -12.9820   21.9910 N   0  0  0  0  0  0  0  0  0  0  0  0
  -22.2670  -14.7180   20.6140 O   0  0  0  0  0  0  0  0  0  0  0  0
  -22.4210  -12.1710   22.4470 H   0  0  0  0  0  0  0  0  0  0  0  0
  -21.0710  -13.2370   22.1910 H   0  0  0  0  0  0  0  0  0  0  0  0
  -25.3180  -15.5210   20.4140 N   0  0  0  0  0  0  0  0  0  0  0  0
  -24.5300  -16.1480   20.5250 H   0  0  0  0  0  0  0  0  0  0  0  0
  -26.1650  -16.0000   20.1370 H   0  0  0  0  0  0  0  0  0  0  0  0
  2  4  2  0
  3  5  1  0
  4  1  1  0
  4 62  1  0
  5  1  2  0
  6  3  2  0
  6  2  1  0
  7 12  1  0
  8 12  1  0
  9  5  1  0
  9 10  1  0
  9  7  1  0
 10 11  1  0
 10  8  1  0
 12 13  1  1
 14 12  1  0
 14 15  1  0
 15 16  1  0
 17 28  2  0
 18 16  1  0
 18 23  1  0
 19 27  1  0
 19 29  1  0
 20 22  1  0
 21 27  1  0
 22 23  2  0
 22 21  1  0
 24 18  2  0
 25 24  1  0
 25 20  2  0
 26 20  1  0
 26 19  1  0
 27 17  1  0
 29 31  2  0
 30 29  1  0
 32 30  1  0
 33 42  2  0
 33 38  1  0
 34 30  1  0
 34 38  1  0
 35 34  1  0
 36 37  1  0
 36 35  1  0
 37 33  1  0
 38 39  2  0
 39 40  1  0
 41 40  2  0
 42 41  1  0
 43 17  1  0
 43 44  1  0
 43 53  1  0
 44 47  1  0
 45 49  1  0
 45 44  1  0
 46 45  2  0
 49 48  1  0
 51 52  1  0
 51 49  1  0
 51 50  1  0
 53 56  1  1
 53 54  1  0
 55 53  1  0
 57 58  1  1
 57  6  1  0
 59 57  1  0
 60 57  1  0
 61 64  1  0
 62 63  1  0
 62 61  2  0
 65 73  1  0
 66 71  1  0
 67 68  1  0
 67 66  1  0
 69 68  1  0
 69 78  1  0
 69 70  1  0
 71 65  1  0
 71 70  1  0
 72 65  2  0
 73 74  1  0
 73 64  1  0
 75 76  2  0
 76 95  1  0
 77 76  1  0
 77 80  1  0
 78 75  1  0
 78 79  1  0
 79 77  2  0
 80 81  1  0
 81 82  2  0
 83 86  1  0
 83 82  1  0
 84 83  2  0
 85 84  1  0
 85 80  2  0
 86 87  1  0
 87 92  2  0
 87 88  1  0
 88 89  2  0
 89 90  1  0
 90 94  1  0
 91 90  2  0
 92 91  1  0
 93 92  1  0
 95 96  1  0
 96 99  1  0
 96 98  1  0
 97 95  2  0
100101  1  0
100 75  1  0
102100  1  0
M  ISO  4  15 101  16 101  65 100  73 100
M  END
>  <TORSDO>  (53) 
F 22

>  <SCORE>  (53) 
-13.131

>  <name>  (53) 
52

>  <ligand_id>  (53) 
52

>  <original_smiles>  (53) 
[H]C(=C(c1c([H])c(C(F)(F)F)c([H])c(C2([H])C([H])(C([H])([H])[H])C([H])([H])[N+]([H])(C([H])([H])C([H])([H])Oc3c([H])c([H])c4c(c3[H])C([H])([H])N(C(=O)C([H])(N([H])C(=O)C([H])(N([H])C([H])([H])[H])C([H])([H])[H])C(C([H])([H])[H])(C([H])([H])[H])C([H])([H])[H])C([H])(C(=O)N([H])C3([H])c5c([H])c([H])c([H])c([H])c5C([H])([H])C([H])([H])C3([H])[H])C4([H])[H])C2([H])[H])c1[H])C([H])([H])[H])C([H])([H])N([H])C(=O)N1C([H])([H])C([H])([H])C([H])([H])C([H])(n2nc(-c3c([H])c([H])c(Oc4c([H])c([H])c(F)c([H])c4F)c([H])c3[H])c(C(=O)N([H])[H])c2N([H])[H])C1([H])[H]

>  <smiles>  (53) 
[H]C(=C(c1c([H])c(C(F)(F)F)c([H])c(C2([H])C([H])(C([H])([H])[H])C([H])([H])[N+]([H])(C([H])([H])C([H])([H])Oc3c([H])c([H])c4c(c3[H])C([H])([H])N(C(=O)C([H])(N([H])C(=O)C([H])(N([H])C([H])([H])[H])C([H])([H])[H])C(C([H])([H])[H])(C([H])([H])[H])C([H])([H])[H])C([H])(C(=O)N([H])C3([H])c5c([H])c([H])c([H])c([H])c5C([H])([H])C([H])([H])C3([H])[H])C4([H])[H])C2([H])[H])c1[H])C([H])([H])[H])C([H])([H])N([H])C(=O)N1C([H])([H])C([H])([H])C([H])([H])C([H])(n2nc(-c3c([H])c([H])c(Oc4c([H])c([H])c(F)c([H])c4F)c([H])c3[H])c(C(=O)N([H])[H])c2N([H])[H])C1([H])[H]

$$$$
53:0:0
     RDKit          3D

 94102  0  0  1  0  0  0  0  0999 V2000
  -28.7020  -20.3520   20.4900 C   0  0  0  0  0  3  0  0  0  0  0  0
  -30.6190  -20.2010   19.7850 C   0  0  0  0  0  2  0  0  0  0  0  0
  -29.6320  -21.3960   19.9340 C   0  0  0  0  0  3  0  0  0  0  0  0
  -29.4840  -19.3140   20.1370 N   0  0  0  0  0  0  0  0  0  0  0  0
  -27.4620  -20.4370   20.9930 N   0  0  0  0  0  0  0  0  0  0  0  0
  -26.9710  -21.3160   21.0500 H   0  0  0  0  0  0  0  0  0  0  0  0
  -26.9630  -19.6060   21.2750 H   0  0  0  0  0  0  0  0  0  0  0  0
  -30.0480  -22.5000   20.8560 N   0  0  0  0  0  4  0  0  0  0  0  0
  -30.1980  -22.1430   21.7870 H   0  0  0  0  0  0  0  0  0  0  0  0
  -30.9330  -22.8470   20.5340 H   0  0  0  0  0  0  0  0  0  0  0  0
  -29.1410  -23.6890   20.9180 C   0  0  0  0  0  2  0  0  0  0  0  0
  -29.8280  -24.9320   21.5580 C   0  0  0  0  0  2  0  0  0  0  0  0
  -29.0100  -26.2510   21.5920 C   0  0  0  0  0  2  0  0  0  0  0  0
  -28.6950  -26.7510   20.2850 O   0  0  0  0  0  0  0  0  0  0  0  0
  -24.6420  -31.7950   23.2620 C   0  0  0  0  0  0  0  0  0  0  0  0
  -27.5420  -27.5020   20.2360 C   0  0  0  0  0  0  0  0  0  0  0  0
  -23.5400  -30.3900   21.5470 C   0  0  0  0  0  3  0  0  0  0  0  0
  -25.1050  -28.9300   20.1500 C   0  0  0  0  0  0  0  0  0  0  0  0
  -26.0580  -30.8340   21.4600 C   0  0  0  0  0  2  0  0  0  0  0  0
  -26.2160  -29.4780   20.8030 C   0  0  0  0  0  0  0  0  0  0  0  0
  -27.4380  -28.7700   20.8510 C   0  0  0  0  0  3  0  0  0  0  0  0
  -26.4250  -26.9690   19.5640 C   0  0  0  0  0  3  0  0  0  0  0  0
  -25.2050  -27.6740   19.5260 C   0  0  0  0  0  3  0  0  0  0  0  0
  -23.8290  -29.7440   20.1630 C   0  0  0  0  0  2  0  0  0  0  0  0
  -24.7620  -31.0200   22.1470 N   0  0  0  0  0  0  0  0  0  0  0  0
  -23.5350  -32.0250   23.7660 O   0  0  0  0  0  0  0  0  0  0  0  0
  -22.8910  -29.3290   22.4630 C   0  0  0  0  0  0  0  0  0  0  0  0
  -21.5750  -29.1210   22.2960 N   0  0  0  0  0  0  0  0  0  0  0  0
  -23.5680  -28.7030   23.2830 O   0  0  0  0  0  0  0  0  0  0  0  0
  -21.0900  -29.6870   21.6160 H   0  0  0  0  0  0  0  0  0  0  0  0
  -18.2090  -27.8710   22.7160 C   0  0  0  0  0  0  0  0  0  0  0  0
  -20.7600  -28.1450   23.0170 C   0  0  0  0  0  3  0  0  0  0  0  0
  -20.8870  -26.7350   22.3900 C   0  0  0  0  0  2  0  0  0  0  0  0
  -19.7890  -26.4190   21.3680 C   0  0  0  0  0  2  0  0  0  0  0  0
  -18.4030  -26.5400   22.0100 C   0  0  0  0  0  2  0  0  0  0  0  0
  -19.3170  -28.6300   23.1770 C   0  0  0  0  0  0  0  0  0  0  0  0
  -19.0830  -29.8720   23.8060 C   0  0  0  0  0  3  0  0  0  0  0  0
  -17.7730  -30.3560   23.9810 C   0  0  0  0  0  3  0  0  0  0  0  0
  -16.6780  -29.5950   23.5340 C   0  0  0  0  0  3  0  0  0  0  0  0
  -16.8960  -28.3550   22.9100 C   0  0  0  0  0  3  0  0  0  0  0  0
  -25.8870  -32.4520   23.9380 C   0  0  0  0  0  3  0  0  0  0  0  0
  -25.5460  -33.8490   24.2270 N   0  0  0  0  0  0  0  0  0  0  0  0
  -25.8960  -34.8920   23.4610 C   0  0  0  0  0  0  0  0  0  0  0  0
  -26.6110  -34.7790   22.4610 O   0  0  0  0  0  0  0  0  0  0  0  0
  -24.9200  -34.0120   25.0030 H   0  0  0  0  0  0  0  0  0  0  0  0
  -24.1630  -36.6490   22.9880 C   0  0  0  0  0  1  0  0  0  0  0  0
  -25.3680  -36.2800   23.8660 C   0  0  0  0  0  3  0  0  0  0  0  0
  -27.4390  -37.2220   24.7930 C   0  0  0  0  0  1  0  0  0  0  0  0
  -26.3910  -37.3460   23.7820 N   0  0  0  0  0  0  0  0  0  0  0  0
  -25.9660  -38.2640   23.8770 H   0  0  0  0  0  0  0  0  0  0  0  0
  -26.3490  -31.7060   25.2510 C   0  0  1  0  0  0  0  0  0  0  0  0
  -25.2010  -31.4610   26.2590 C   0  0  0  0  0  1  0  0  0  0  0  0
  -26.9780  -30.3340   24.9110 C   0  0  0  0  0  1  0  0  0  0  0  0
  -27.4510  -32.5280   25.9610 C   0  0  0  0  0  1  0  0  0  0  0  0
  -29.3360  -17.8350   20.0510 C   0  0  0  0  0  2  0  0  0  0  0  0
  -30.3650  -16.9870   20.8510 C   0  0  0  0  0  2  0  0  0  0  0  0
  -30.7860  -14.5660   20.1860 C   0  0  0  0  0  0  0  0  0  0  0  0
  -30.4520  -12.4650   18.9400 C   0  0  0  0  0  2  0  0  0  0  0  0
  -29.4660  -12.7650   17.7890 C   0  0  0  0  0  2  0  0  0  0  0  0
  -28.0040  -12.6270   18.2690 C   0  0  0  0  0  2  0  0  0  0  0  0
  -27.7310  -13.3730   19.6010 C   0  0  0  0  0  3  0  0  0  0  0  0
  -28.8250  -13.0520   20.6420 C   0  0  0  0  0  2  0  0  0  0  0  0
  -30.1290  -13.3840   20.0430 N   0  0  0  0  0  0  0  0  0  0  0  0
  -31.8850  -14.7970   19.6740 O   0  0  0  0  0  0  0  0  0  0  0  0
  -30.0700  -15.5370   20.7850 N   0  0  0  0  0  0  0  0  0  0  0  0
  -29.1890  -15.2240   21.1630 H   0  0  0  0  0  0  0  0  0  0  0  0
  -25.3450  -13.9690   20.3800 C   0  0  0  0  0  0  0  0  0  0  0  0
  -24.2940  -13.1930   20.7820 C   0  0  0  0  0  0  0  0  0  0  0  0
  -24.7620  -11.8420   20.7350 C   0  0  0  0  0  0  0  0  0  0  0  0
  -26.3900  -13.0920   20.1160 N   0  0  0  0  0  0  0  0  0  0  0  0
  -26.0400  -11.8100   20.3820 N   0  0  0  0  0  0  0  0  0  0  0  0
  -24.0510  -10.5780   20.9420 C   0  0  0  0  0  0  0  0  0  0  0  0
  -24.4940   -9.6280   21.8890 C   0  0  0  0  0  3  0  0  0  0  0  0
  -23.7800   -8.4260   22.0820 C   0  0  0  0  0  3  0  0  0  0  0  0
  -22.6130   -8.1650   21.3270 C   0  0  0  0  0  0  0  0  0  0  0  0
  -22.1900   -9.1050   20.3700 C   0  0  0  0  0  3  0  0  0  0  0  0
  -22.9040  -10.2980   20.1760 C   0  0  0  0  0  3  0  0  0  0  0  0
  -21.8740   -7.0100   21.4290 O   0  0  0  0  0  0  0  0  0  0  0  0
  -21.8080   -6.2970   22.5970 C   0  0  0  0  0  0  0  0  0  0  0  0
  -21.2870   -6.8590   23.7830 C   0  0  0  0  0  3  0  0  0  0  0  0
  -21.1750   -6.0730   24.9460 C   0  0  0  0  0  3  0  0  0  0  0  0
  -21.5700   -4.7230   24.9240 C   0  0  0  0  0  0  0  0  0  0  0  0
  -22.0860   -4.1590   23.7440 C   0  0  0  0  0  3  0  0  0  0  0  0
  -22.2020   -4.9430   22.5830 C   0  0  0  0  0  0  0  0  0  0  0  0
  -22.6790   -4.3900   21.4420 F   0  0  0  0  0  0  0  0  0  0  0  0
  -21.4550   -3.9630   26.0390 F   0  0  0  0  0  0  0  0  0  0  0  0
  -22.9040  -13.6650   21.1020 C   0  0  0  0  0  0  0  0  0  0  0  0
  -22.2000  -12.9590   21.9800 N   0  0  0  0  0  0  0  0  0  0  0  0
  -22.4540  -14.7030   20.6190 O   0  0  0  0  0  0  0  0  0  0  0  0
  -22.5710  -12.1150   22.3880 H   0  0  0  0  0  0  0  0  0  0  0  0
  -21.2750  -13.2700   22.2450 H   0  0  0  0  0  0  0  0  0  0  0  0
  -25.4970  -15.3370   20.1940 N   0  0  0  0  0  0  0  0  0  0  0  0
  -24.6980  -15.9620   20.2480 H   0  0  0  0  0  0  0  0  0  0  0  0
  -26.2980  -15.7490   19.7330 H   0  0  0  0  0  0  0  0  0  0  0  0
  1  5  1  0
  2  3  1  0
  2  4  1  0
  3  1  1  0
  3  8  1  0
  4  1  1  0
  5  6  1  0
  5  7  1  0
  8 11  1  0
  8  9  1  0
 10  8  1  0
 11 12  1  0
 12 13  1  0
 14 13  1  0
 15 26  2  0
 16 14  1  0
 16 21  1  0
 17 25  1  0
 17 27  1  0
 18 24  1  0
 18 20  1  0
 19 25  1  0
 20 21  2  0
 20 19  1  0
 22 16  2  0
 23 22  1  0
 23 18  2  0
 24 17  1  0
 25 15  1  0
 27 29  2  0
 28 27  1  0
 30 28  1  0
 31 40  2  0
 31 36  1  0
 32 28  1  0
 32 36  1  0
 33 32  1  0
 34 35  1  0
 34 33  1  0
 35 31  1  0
 36 37  2  0
 37 38  1  0
 39 38  2  0
 40 39  1  0
 41 15  1  0
 41 42  1  0
 41 51  1  0
 42 45  1  0
 43 47  1  0
 43 42  1  0
 44 43  2  0
 47 46  1  0
 49 47  1  0
 49 50  1  0
 49 48  1  0
 51 54  1  1
 51 52  1  0
 53 51  1  0
 55  4  1  0
 55 56  1  0
 57 65  1  0
 58 63  1  0
 59 60  1  0
 59 58  1  0
 61 60  1  0
 61 70  1  0
 61 62  1  0
 63 57  1  0
 63 62  1  0
 64 57  2  0
 65 56  1  0
 65 66  1  0
 67 68  2  0
 68 87  1  0
 69 68  1  0
 69 72  1  0
 70 67  1  0
 70 71  1  0
 71 69  2  0
 72 73  1  0
 73 74  2  0
 75 78  1  0
 75 74  1  0
 76 75  2  0
 77 76  1  0
 77 72  2  0
 78 79  1  0
 79 80  1  0
 80 81  2  0
 82 81  1  0
 82 86  1  0
 83 82  2  0
 84 79  2  0
 84 83  1  0
 85 84  1  0
 87 88  1  0
 88 91  1  0
 88 90  1  0
 89 87  2  0
 92 93  1  0
 92 67  1  0
 94 92  1  0
M  ISO  4  13 101  14 101  57 100  65 100
M  END
>  <TORSDO>  (54) 
F 22

>  <SCORE>  (54) 
-12.741

>  <name>  (54) 
53

>  <ligand_id>  (54) 
53

>  <original_smiles>  (54) 
[H]c1c([H])c([H])c2c(c1[H])C([H])([H])C([H])([H])C([H])([H])C2([H])N([H])C(=O)C1([H])N(C(=O)C([H])(N([H])C(=O)C([H])(N([H])C([H])([H])[H])C([H])([H])[H])C(C([H])([H])[H])(C([H])([H])[H])C([H])([H])[H])C([H])([H])c2c([H])c(OC([H])([H])C([H])([H])C([H])([H])[N+]([H])([H])C3([H])C(=[N+]([H])[H])N(C([H])([H])C([H])([H])N([H])C(=O)N4C([H])([H])C([H])([H])C([H])([H])C([H])(n5nc(-c6c([H])c([H])c(Oc7c([H])c([H])c(F)c([H])c7F)c([H])c6[H])c(C(=O)N([H])[H])c5N([H])[H])C4([H])[H])C3([H])[H])c([H])c([H])c2C1([H])[H]

>  <smiles>  (54) 
[H]c1c([H])c([H])c2c(c1[H])C([H])([H])C([H])([H])C([H])([H])C2([H])N([H])C(=O)C1([H])N(C(=O)C([H])(N([H])C(=O)C([H])(N([H])C([H])([H])[H])C([H])([H])[H])C(C([H])([H])[H])(C([H])([H])[H])C([H])([H])[H])C([H])([H])c2c([H])c(OC([H])([H])C([H])([H])C([H])([H])[N+]([H])([H])C3([H])C(=[N+]([H])[H])N(C([H])([H])C([H])([H])N([H])C(=O)N4C([H])([H])C([H])([H])C([H])([H])C([H])(n5nc(-c6c([H])c([H])c(Oc7c([H])c([H])c(F)c([H])c7F)c([H])c6[H])c(C(=O)N([H])[H])c5N([H])[H])C4([H])[H])C3([H])[H])c([H])c([H])c2C1([H])[H]

$$$$
54:0:0
     RDKit          3D

 93101  0  0  1  0  0  0  0  0999 V2000
  -30.6010  -22.3450   20.9530 C   0  0  0  0  0  0  0  0  0  0  0  0
  -31.8820  -22.5270   21.3160 C   0  0  0  0  0  2  0  0  0  0  0  0
  -28.8300  -22.3500   20.0430 C   0  0  0  0  0  2  0  0  0  0  0  0
  -29.8710  -21.2210   20.2660 C   0  0  0  0  0  3  0  0  0  0  0  0
  -29.4970  -23.2490   21.0020 N   0  0  2  0  0  4  0  0  0  0  0  0
  -29.0550  -23.2050   21.9100 H   0  0  0  0  0  0  0  0  0  0  0  0
  -29.5490  -20.0410   21.1960 C   0  0  0  0  0  2  0  0  0  0  0  0
  -29.0470  -18.8160   20.4190 C   0  0  0  0  0  0  0  0  0  0  0  0
  -27.5530  -18.8050   20.1660 C   0  0  0  0  0  1  0  0  0  0  0  0
  -29.7510  -17.8470   19.9710 N   0  0  0  0  0  0  0  0  0  0  0  0
  -31.1900  -17.7610   20.1820 C   0  0  0  0  0  2  0  0  0  0  0  0
  -31.4910  -16.7830   21.3330 C   0  0  0  0  0  2  0  0  0  0  0  0
  -31.2900  -14.5830   20.2100 C   0  0  0  0  0  0  0  0  0  0  0  0
  -30.8490  -12.4460   19.0630 C   0  0  0  0  0  2  0  0  0  0  0  0
  -29.9150  -12.6480   17.8560 C   0  0  0  0  0  2  0  0  0  0  0  0
  -28.4400  -12.5830   18.2920 C   0  0  0  0  0  2  0  0  0  0  0  0
  -28.1400  -13.4830   19.5200 C   0  0  0  0  0  3  0  0  0  0  0  0
  -29.1820  -13.2590   20.6390 C   0  0  0  0  0  2  0  0  0  0  0  0
  -30.5280  -13.4660   20.0730 N   0  0  0  0  0  0  0  0  0  0  0  0
  -32.3260  -14.7760   19.5650 O   0  0  0  0  0  0  0  0  0  0  0  0
  -30.8590  -15.4830   21.1010 N   0  0  0  0  0  0  0  0  0  0  0  0
  -29.9960  -15.2910   21.5900 H   0  0  0  0  0  0  0  0  0  0  0  0
  -25.7800  -14.2200   20.2400 C   0  0  0  0  0  0  0  0  0  0  0  0
  -24.6730  -13.5050   20.6120 C   0  0  0  0  0  0  0  0  0  0  0  0
  -25.0590  -12.1310   20.5750 C   0  0  0  0  0  0  0  0  0  0  0  0
  -26.7750  -13.2830   20.0030 N   0  0  0  0  0  0  0  0  0  0  0  0
  -26.3430  -12.0220   20.2590 N   0  0  0  0  0  0  0  0  0  0  0  0
  -24.2670  -10.9090   20.7680 C   0  0  0  0  0  0  0  0  0  0  0  0
  -24.6740   -9.9010   21.6700 C   0  0  0  0  0  3  0  0  0  0  0  0
  -23.8860   -8.7440   21.8520 C   0  0  0  0  0  3  0  0  0  0  0  0
  -22.6780   -8.5870   21.1320 C   0  0  0  0  0  0  0  0  0  0  0  0
  -22.2910   -9.5840   20.2190 C   0  0  0  0  0  3  0  0  0  0  0  0
  -23.0780  -10.7330   20.0350 C   0  0  0  0  0  3  0  0  0  0  0  0
  -21.8620   -7.4850   21.2240 O   0  0  0  0  0  0  0  0  0  0  0  0
  -21.8250   -6.7100   22.3550 C   0  0  0  0  0  0  0  0  0  0  0  0
  -21.5200   -7.2540   23.6220 C   0  0  0  0  0  3  0  0  0  0  0  0
  -21.4230   -6.4100   24.7460 C   0  0  0  0  0  3  0  0  0  0  0  0
  -21.6220   -5.0230   24.6060 C   0  0  0  0  0  0  0  0  0  0  0  0
  -21.9220   -4.4790   23.3450 C   0  0  0  0  0  3  0  0  0  0  0  0
  -22.0200   -5.3200   22.2230 C   0  0  0  0  0  0  0  0  0  0  0  0
  -22.2860   -4.7880   21.0050 F   0  0  0  0  0  0  0  0  0  0  0  0
  -21.5220   -4.2110   25.6840 F   0  0  0  0  0  0  0  0  0  0  0  0
  -23.3070  -14.0560   20.9000 C   0  0  0  0  0  0  0  0  0  0  0  0
  -22.5560  -13.4040   21.7800 N   0  0  0  0  0  0  0  0  0  0  0  0
  -22.9140  -15.1000   20.3790 O   0  0  0  0  0  0  0  0  0  0  0  0
  -22.8850  -12.5590   22.2230 H   0  0  0  0  0  0  0  0  0  0  0  0
  -21.6390  -13.7560   22.0170 H   0  0  0  0  0  0  0  0  0  0  0  0
  -26.0190  -15.5800   20.0660 N   0  0  0  0  0  0  0  0  0  0  0  0
  -25.3010  -16.2830   20.1960 H   0  0  0  0  0  0  0  0  0  0  0  0
  -26.9130  -15.9750   19.7940 H   0  0  0  0  0  0  0  0  0  0  0  0
  -29.6890  -24.6550   20.5590 C   0  0  0  0  0  2  0  0  0  0  0  0
  -28.3690  -25.4420   20.6260 C   0  0  0  0  0  2  0  0  0  0  0  0
  -28.5170  -26.7860   20.1520 O   0  0  0  0  0  0  0  0  0  0  0  0
  -24.6180  -31.8680   23.2450 C   0  0  0  0  0  0  0  0  0  0  0  0
  -27.3430  -27.5040   20.1400 C   0  0  0  0  0  0  0  0  0  0  0  0
  -23.4440  -30.4760   21.5720 C   0  0  0  0  0  3  0  0  0  0  0  0
  -24.9300  -28.9730   20.1460 C   0  0  0  0  0  0  0  0  0  0  0  0
  -25.9660  -30.8660   21.4080 C   0  0  0  0  0  2  0  0  0  0  0  0
  -26.0750  -29.5060   20.7510 C   0  0  0  0  0  0  0  0  0  0  0  0
  -27.2860  -28.7790   20.7430 C   0  0  0  0  0  3  0  0  0  0  0  0
  -26.1830  -26.9860   19.5230 C   0  0  0  0  0  3  0  0  0  0  0  0
  -24.9760  -27.7120   19.5290 C   0  0  0  0  0  3  0  0  0  0  0  0
  -23.6750  -29.8170   20.1870 C   0  0  0  0  0  2  0  0  0  0  0  0
  -24.6930  -31.0810   22.1340 N   0  0  0  0  0  0  0  0  0  0  0  0
  -23.5280  -32.1250   23.7770 O   0  0  0  0  0  0  0  0  0  0  0  0
  -22.7900  -29.4360   22.5100 C   0  0  0  0  0  0  0  0  0  0  0  0
  -21.4670  -29.2570   22.3730 N   0  0  0  0  0  0  0  0  0  0  0  0
  -23.4700  -28.7950   23.3160 O   0  0  0  0  0  0  0  0  0  0  0  0
  -20.9810  -29.8260   21.6950 H   0  0  0  0  0  0  0  0  0  0  0  0
  -18.0890  -28.0630   22.8340 C   0  0  0  0  0  0  0  0  0  0  0  0
  -20.6450  -28.3060   23.1230 C   0  0  0  0  0  3  0  0  0  0  0  0
  -20.7470  -26.8870   22.5180 C   0  0  0  0  0  2  0  0  0  0  0  0
  -19.6480  -26.5860   21.4940 C   0  0  0  0  0  2  0  0  0  0  0  0
  -18.2640  -26.7250   22.1360 C   0  0  0  0  0  2  0  0  0  0  0  0
  -19.2080  -28.8120   23.2840 C   0  0  0  0  0  0  0  0  0  0  0  0
  -18.9920  -30.0660   23.8960 C   0  0  0  0  0  3  0  0  0  0  0  0
  -17.6890  -30.5680   24.0660 C   0  0  0  0  0  3  0  0  0  0  0  0
  -16.5830  -29.8150   23.6360 C   0  0  0  0  0  3  0  0  0  0  0  0
  -16.7840  -28.5650   23.0240 C   0  0  0  0  0  3  0  0  0  0  0  0
  -25.8930  -32.5000   23.8860 C   0  0  0  0  0  3  0  0  0  0  0  0
  -25.5800  -33.9000   24.2010 N   0  0  0  0  0  0  0  0  0  0  0  0
  -25.9330  -34.9470   23.4440 C   0  0  0  0  0  0  0  0  0  0  0  0
  -26.6270  -34.8370   22.4290 O   0  0  0  0  0  0  0  0  0  0  0  0
  -24.9660  -34.0600   24.9860 H   0  0  0  0  0  0  0  0  0  0  0  0
  -24.2120  -36.7380   23.0410 C   0  0  0  0  0  1  0  0  0  0  0  0
  -25.4360  -36.3370   23.8820 C   0  0  0  0  0  3  0  0  0  0  0  0
  -27.5530  -37.2240   24.7530 C   0  0  0  0  0  1  0  0  0  0  0  0
  -26.4710  -37.3890   23.7870 N   0  0  0  0  0  0  0  0  0  0  0  0
  -26.0620  -38.3100   23.9270 H   0  0  0  0  0  0  0  0  0  0  0  0
  -26.3880  -31.7330   25.1730 C   0  0  1  0  0  0  0  0  0  0  0  0
  -25.2770  -31.5010   26.2210 C   0  0  0  0  0  1  0  0  0  0  0  0
  -26.9770  -30.3550   24.7940 C   0  0  0  0  0  1  0  0  0  0  0  0
  -27.5220  -32.5340   25.8570 C   0  0  0  0  0  1  0  0  0  0  0  0
  1  5  1  0
  1  2  2  0
  3  4  1  0
  3  5  1  0
  4  1  1  0
  4  7  1  0
  5  6  1  1
  8  7  1  0
  9  8  1  0
 10 11  1  0
 10  8  2  0
 11 12  1  0
 13 21  1  0
 14 19  1  0
 15 16  1  0
 15 14  1  0
 17 16  1  0
 17 26  1  0
 17 18  1  0
 19 13  1  0
 19 18  1  0
 20 13  2  0
 21 12  1  0
 21 22  1  0
 23 24  2  0
 24 43  1  0
 25 24  1  0
 25 28  1  0
 26 23  1  0
 26 27  1  0
 27 25  2  0
 28 29  1  0
 29 30  2  0
 31 34  1  0
 31 30  1  0
 32 31  2  0
 33 32  1  0
 33 28  2  0
 34 35  1  0
 35 36  1  0
 36 37  2  0
 38 37  1  0
 38 42  1  0
 39 38  2  0
 40 35  2  0
 40 39  1  0
 41 40  1  0
 43 44  1  0
 44 47  1  0
 44 46  1  0
 45 43  2  0
 48 49  1  0
 48 23  1  0
 50 48  1  0
 51 52  1  0
 51  5  1  0
 53 52  1  0
 54 65  2  0
 55 53  1  0
 55 60  1  0
 56 64  1  0
 56 66  1  0
 57 63  1  0
 57 59  1  0
 58 64  1  0
 59 58  1  0
 60 59  2  0
 61 62  1  0
 61 55  2  0
 62 57  2  0
 63 56  1  0
 64 54  1  0
 66 68  2  0
 67 66  1  0
 69 67  1  0
 70 79  2  0
 70 75  1  0
 71 67  1  0
 71 75  1  0
 72 71  1  0
 73 74  1  0
 73 72  1  0
 74 70  1  0
 75 76  2  0
 76 77  1  0
 78 77  2  0
 79 78  1  0
 80 54  1  0
 80 81  1  0
 80 90  1  0
 81 84  1  0
 82 86  1  0
 82 81  1  0
 83 82  2  0
 86 85  1  0
 88 86  1  0
 88 89  1  0
 88 87  1  0
 90 93  1  1
 90 91  1  0
 92 90  1  0
M  ISO  4  13 100  21 100  52 101  53 101
M  END
>  <TORSDO>  (55) 
F 22

>  <SCORE>  (55) 
-12.491

>  <name>  (55) 
54

>  <ligand_id>  (55) 
54

>  <original_smiles>  (55) 
[H]C([H])=C1C([H])(C([H])([H])C(=NC([H])([H])C([H])([H])N([H])C(=O)N2C([H])([H])C([H])([H])C([H])([H])C([H])(n3nc(-c4c([H])c([H])c(Oc5c([H])c([H])c(F)c([H])c5F)c([H])c4[H])c(C(=O)N([H])[H])c3N([H])[H])C2([H])[H])C([H])([H])[H])C([H])([H])[N+]1([H])C([H])([H])C([H])([H])Oc1c([H])c([H])c2c(c1[H])C([H])([H])N(C(=O)C([H])(N([H])C(=O)C([H])(N([H])C([H])([H])[H])C([H])([H])[H])C(C([H])([H])[H])(C([H])([H])[H])C([H])([H])[H])C([H])(C(=O)N([H])C1([H])c3c([H])c([H])c([H])c([H])c3C([H])([H])C([H])([H])C1([H])[H])C2([H])[H]

>  <smiles>  (55) 
[H]C([H])=C1C([H])(C([H])([H])C(=NC([H])([H])C([H])([H])N([H])C(=O)N2C([H])([H])C([H])([H])C([H])([H])C([H])(n3nc(-c4c([H])c([H])c(Oc5c([H])c([H])c(F)c([H])c5F)c([H])c4[H])c(C(=O)N([H])[H])c3N([H])[H])C2([H])[H])C([H])([H])[H])C([H])([H])[N+]1([H])C([H])([H])C([H])([H])Oc1c([H])c([H])c2c(c1[H])C([H])([H])N(C(=O)C([H])(N([H])C(=O)C([H])(N([H])C([H])([H])[H])C([H])([H])[H])C(C([H])([H])[H])(C([H])([H])[H])C([H])([H])[H])C([H])(C(=O)N([H])C1([H])c3c([H])c([H])c([H])c([H])c3C([H])([H])C([H])([H])C1([H])[H])C2([H])[H]

$$$$
55:0:0
     RDKit          3D

102110  0  0  1  0  0  0  0  0999 V2000
  -29.7290  -20.4120   20.0630 C   0  0  0  0  0  2  0  0  0  0  0  0
  -30.0810  -22.5730   18.7580 C   0  0  0  0  0  1  0  0  0  0  0  0
  -31.5960  -20.6390   18.3890 C   0  0  0  0  0  1  0  0  0  0  0  0
  -30.1310  -21.0320   18.6900 C   0  0  1  0  0  0  0  0  0  0  0  0
  -29.2150  -20.5460   17.5290 C   0  0  0  0  0  2  0  0  0  0  0  0
  -29.9630  -19.8000   16.4950 N   0  0  0  0  0  4  0  0  0  0  0  0
  -30.7450  -20.3680   16.2030 H   0  0  0  0  0  0  0  0  0  0  0  0
  -30.3350  -18.9700   16.9310 H   0  0  0  0  0  0  0  0  0  0  0  0
  -29.1770  -19.4050   15.3010 C   0  0  0  0  0  2  0  0  0  0  0  0
  -29.9940  -19.6140   14.0160 C   0  0  0  0  0  2  0  0  0  0  0  0
  -29.2520  -19.2020   12.8680 O   0  0  0  0  0  0  0  0  0  0  0  0
  -30.4740  -17.9650    5.9840 C   0  0  0  0  0  0  0  0  0  0  0  0
  -29.5890  -19.7660   11.6540 C   0  0  0  0  0  0  0  0  0  0  0  0
  -31.0810  -20.2250    6.7870 C   0  0  0  0  0  3  0  0  0  0  0  0
  -30.2450  -20.8310    9.1160 C   0  0  0  0  0  0  0  0  0  0  0  0
  -29.2160  -18.8920    7.9240 C   0  0  0  0  0  2  0  0  0  0  0  0
  -29.5700  -19.6100    9.2090 C   0  0  0  0  0  0  0  0  0  0  0  0
  -29.2380  -19.0760   10.4730 C   0  0  0  0  0  3  0  0  0  0  0  0
  -30.2670  -21.0050   11.5380 C   0  0  0  0  0  3  0  0  0  0  0  0
  -30.5980  -21.5330   10.2780 C   0  0  0  0  0  3  0  0  0  0  0  0
  -30.5600  -21.3420    7.7280 C   0  0  0  0  0  2  0  0  0  0  0  0
  -30.2700  -18.9680    6.8850 N   0  0  0  0  0  0  0  0  0  0  0  0
  -31.2880  -18.0920    5.0600 O   0  0  0  0  0  0  0  0  0  0  0  0
  -32.5840  -20.0070    7.0660 C   0  0  0  0  0  0  0  0  0  0  0  0
  -33.4150  -20.9750    6.6460 N   0  0  0  0  0  0  0  0  0  0  0  0
  -32.9780  -19.0040    7.6690 O   0  0  0  0  0  0  0  0  0  0  0  0
  -33.0150  -21.7600    6.1520 H   0  0  0  0  0  0  0  0  0  0  0  0
  -36.3770  -22.9720    6.1100 C   0  0  0  0  0  0  0  0  0  0  0  0
  -34.8660  -21.0030    6.8300 C   0  0  0  0  0  3  0  0  0  0  0  0
  -35.2360  -21.3820    8.2820 C   0  0  0  0  0  2  0  0  0  0  0  0
  -35.4720  -22.8840    8.4720 C   0  0  0  0  0  2  0  0  0  0  0  0
  -36.6020  -23.3690    7.5590 C   0  0  0  0  0  2  0  0  0  0  0  0
  -35.5490  -21.8710    5.7670 C   0  0  0  0  0  0  0  0  0  0  0  0
  -35.3450  -21.5660    4.4030 C   0  0  0  0  0  3  0  0  0  0  0  0
  -35.9530  -22.3370    3.3950 C   0  0  0  0  0  3  0  0  0  0  0  0
  -36.7850  -23.4160    3.7410 C   0  0  0  0  0  3  0  0  0  0  0  0
  -36.9980  -23.7290    5.0950 C   0  0  0  0  0  3  0  0  0  0  0  0
  -29.6780  -16.6250    6.0580 C   0  0  0  0  0  3  0  0  0  0  0  0
  -30.4920  -15.4530    6.7320 C   0  0  1  0  0  0  0  0  0  0  0  0
  -31.9110  -15.2670    6.1480 C   0  0  0  0  0  1  0  0  0  0  0  0
  -30.6330  -15.6920    8.2540 C   0  0  0  0  0  1  0  0  0  0  0  0
  -29.7280  -14.1180    6.5610 C   0  0  0  0  0  1  0  0  0  0  0  0
  -29.2880  -16.2670    4.6880 N   0  0  0  0  0  0  0  0  0  0  0  0
  -28.0800  -16.4960    4.1570 C   0  0  0  0  0  0  0  0  0  0  0  0
  -27.1430  -16.9720    4.8050 O   0  0  0  0  0  0  0  0  0  0  0  0
  -30.0210  -15.9230    4.0850 H   0  0  0  0  0  0  0  0  0  0  0  0
  -27.9670  -17.4160    1.8200 C   0  0  0  0  0  1  0  0  0  0  0  0
  -27.8790  -16.1400    2.6720 C   0  0  0  0  0  3  0  0  0  0  0  0
  -26.5440  -14.1000    2.9580 C   0  0  0  0  0  1  0  0  0  0  0  0
  -26.6010  -15.4490    2.4010 N   0  0  0  0  0  0  0  0  0  0  0  0
  -26.4320  -15.3830    1.4000 H   0  0  0  0  0  0  0  0  0  0  0  0
  -29.9660  -20.9430   22.5510 C   0  0  0  0  0  1  0  0  0  0  0  0
  -29.3810  -21.3990   21.2070 C   0  0  0  0  0  3  0  0  0  0  0  0
  -29.2980  -23.9310   21.3150 C   0  0  0  0  0  3  0  0  0  0  0  0
  -29.8770  -22.8000   20.8860 C   0  0  0  0  0  3  0  0  0  0  0  0
  -29.7960  -26.2770   22.1860 C   0  0  0  0  0  2  0  0  0  0  0  0
  -29.8050  -25.3200   20.9830 C   0  0  0  0  0  3  0  0  0  0  0  0
  -29.2530  -27.3750   21.2580 C   0  0  0  0  0  3  0  0  0  0  0  0
  -28.7630  -26.2430   20.3270 C   0  0  0  0  0  3  0  0  0  0  0  0
  -28.2390  -27.1820   18.0850 C   0  0  0  0  0  0  0  0  0  0  0  0
  -28.1510  -28.4880   15.9930 C   0  0  0  0  0  2  0  0  0  0  0  0
  -27.5980  -27.6780   14.8080 C   0  0  0  0  0  2  0  0  0  0  0  0
  -28.7230  -26.8870   14.1180 C   0  0  0  0  0  2  0  0  0  0  0  0
  -29.5770  -26.0730   15.1230 C   0  0  0  0  0  3  0  0  0  0  0  0
  -30.0200  -26.9530   16.3130 C   0  0  0  0  0  2  0  0  0  0  0  0
  -28.8210  -27.5640   16.9200 N   0  0  0  0  0  0  0  0  0  0  0  0
  -27.0960  -27.5150   18.4170 O   0  0  0  0  0  0  0  0  0  0  0  0
  -29.0460  -26.5210   18.9200 N   0  0  0  0  0  0  0  0  0  0  0  0
  -29.9680  -26.2970   18.5740 H   0  0  0  0  0  0  0  0  0  0  0  0
  -31.2960  -24.2040   14.6900 C   0  0  0  0  0  0  0  0  0  0  0  0
  -32.2910  -24.0750   13.7580 C   0  0  0  0  0  0  0  0  0  0  0  0
  -32.2640  -25.2750   12.9840 C   0  0  0  0  0  0  0  0  0  0  0  0
  -30.7210  -25.4450   14.4630 N   0  0  0  0  0  0  0  0  0  0  0  0
  -31.3490  -26.1090   13.4590 N   0  0  0  0  0  0  0  0  0  0  0  0
  -33.0190  -25.6550   11.7820 C   0  0  0  0  0  0  0  0  0  0  0  0
  -33.7960  -26.8330   11.7390 C   0  0  0  0  0  3  0  0  0  0  0  0
  -34.5260  -27.1670   10.5790 C   0  0  0  0  0  3  0  0  0  0  0  0
  -34.4880  -26.3190    9.4460 C   0  0  0  0  0  0  0  0  0  0  0  0
  -33.6950  -25.1590    9.4870 C   0  0  0  0  0  3  0  0  0  0  0  0
  -32.9640  -24.8300   10.6400 C   0  0  0  0  0  3  0  0  0  0  0  0
  -35.1440  -26.5760    8.2680 O   0  0  0  0  0  0  0  0  0  0  0  0
  -36.3080  -27.3020    8.2340 C   0  0  0  0  0  0  0  0  0  0  0  0
  -37.4620  -26.8910    8.9360 C   0  0  0  0  0  3  0  0  0  0  0  0
  -38.6570  -27.6290    8.8180 C   0  0  0  0  0  3  0  0  0  0  0  0
  -38.7040  -28.7700    7.9950 C   0  0  0  0  0  0  0  0  0  0  0  0
  -37.5560  -29.1770    7.2910 C   0  0  0  0  0  3  0  0  0  0  0  0
  -36.3630  -28.4430    7.4080 C   0  0  0  0  0  0  0  0  0  0  0  0
  -35.2660  -28.8270    6.7120 F   0  0  0  0  0  0  0  0  0  0  0  0
  -39.8520  -29.4740    7.8760 F   0  0  0  0  0  0  0  0  0  0  0  0
  -33.1560  -22.8690   13.5330 C   0  0  0  0  0  0  0  0  0  0  0  0
  -34.4010  -23.0760   13.1160 N   0  0  0  0  0  0  0  0  0  0  0  0
  -32.7470  -21.7330   13.7740 O   0  0  0  0  0  0  0  0  0  0  0  0
  -34.7430  -24.0080   12.9370 H   0  0  0  0  0  0  0  0  0  0  0  0
  -35.0200  -22.2900   12.9730 H   0  0  0  0  0  0  0  0  0  0  0  0
  -30.8230  -23.3670   15.6960 N   0  0  0  0  0  0  0  0  0  0  0  0
  -31.1940  -22.4360   15.8470 H   0  0  0  0  0  0  0  0  0  0  0  0
  -30.0450  -23.5870   16.3050 H   0  0  0  0  0  0  0  0  0  0  0  0
  -28.1490  -28.2450   21.8820 C   0  0  0  0  0  0  0  0  0  0  0  0
  -28.3670  -29.5520   21.9480 N   0  0  0  0  0  0  0  0  0  0  0  0
  -27.1060  -27.7550   22.3110 O   0  0  0  0  0  0  0  0  0  0  0  0
  -29.2290  -29.9490   21.6010 H   0  0  0  0  0  0  0  0  0  0  0  0
  -27.6740  -30.1640   22.3550 H   0  0  0  0  0  0  0  0  0  0  0  0
  1 53  1  0
  4  3  1  6
  4  2  1  0
  4  1  1  0
  5  4  1  0
  6  8  1  0
  6  5  1  0
  7  6  1  0
  9  6  1  0
 10  9  1  0
 11 10  1  0
 12 22  1  0
 13 11  1  0
 14 22  1  0
 14 24  1  0
 14 21  1  0
 15 17  2  0
 15 20  1  0
 16 17  1  0
 17 18  1  0
 18 13  2  0
 19 13  1  0
 20 19  2  0
 21 15  1  0
 22 16  1  0
 23 12  2  0
 24 26  2  0
 25 24  1  0
 27 25  1  0
 28 32  1  0
 29 25  1  0
 29 30  1  0
 30 31  1  0
 32 31  1  0
 33 28  1  0
 33 29  1  0
 34 33  2  0
 35 36  2  0
 35 34  1  0
 36 37  1  0
 37 28  2  0
 38 12  1  0
 38 39  1  0
 39 41  1  1
 40 39  1  0
 42 39  1  0
 43 38  1  0
 44 43  1  0
 44 45  2  0
 46 43  1  0
 48 47  1  0
 48 44  1  0
 50 48  1  0
 50 49  1  0
 51 50  1  0
 53 52  1  0
 55 53  1  0
 55 54  2  0
 57 54  1  0
 57 56  1  0
 58 98  1  0
 58 56  1  0
 59 68  1  0
 59 57  1  0
 59 58  1  0
 60 67  2  0
 60 68  1  0
 61 66  1  0
 62 61  1  0
 63 62  1  0
 64 63  1  0
 64 65  1  0
 65 66  1  0
 66 60  1  0
 69 68  1  0
 70 95  1  0
 71 70  2  0
 72 74  2  0
 72 71  1  0
 73 70  1  0
 73 64  1  0
 74 73  1  0
 75 72  1  0
 76 75  1  0
 77 76  2  0
 78 79  2  0
 78 77  1  0
 79 80  1  0
 80 75  2  0
 81 78  1  0
 82 81  1  0
 82 83  1  0
 84 83  2  0
 85 84  1  0
 86 87  1  0
 86 85  2  0
 87 82  2  0
 88 87  1  0
 89 85  1  0
 90 71  1  0
 90 92  2  0
 91 90  1  0
 93 91  1  0
 94 91  1  0
 95 96  1  0
 95 97  1  0
 98 99  1  0
 98100  2  0
 99102  1  0
101 99  1  0
M  ISO  4  10 101  11 101  60 100  68 100
M  END
>  <TORSDO>  (56) 
F 25

>  <SCORE>  (56) 
-1.938

>  <name>  (56) 
55

>  <ligand_id>  (56) 
55

>  <original_smiles>  (56) 
[H]C(=C([H])C1([H])C([H])([H])C([H])(C(=O)N([H])[H])C1([H])N([H])C(=O)N1C([H])([H])C([H])([H])C([H])([H])C([H])(n2nc(-c3c([H])c([H])c(Oc4c([H])c([H])c(F)c([H])c4F)c([H])c3[H])c(C(=O)N([H])[H])c2N([H])[H])C1([H])[H])C([H])(C([H])([H])[H])C([H])([H])C(C([H])([H])[H])(C([H])([H])[H])C([H])([H])[N+]([H])([H])C([H])([H])C([H])([H])Oc1c([H])c([H])c2c(c1[H])C([H])([H])N(C(=O)C([H])(N([H])C(=O)C([H])(N([H])C([H])([H])[H])C([H])([H])[H])C(C([H])([H])[H])(C([H])([H])[H])C([H])([H])[H])C([H])(C(=O)N([H])C1([H])c3c([H])c([H])c([H])c([H])c3C([H])([H])C([H])([H])C1([H])[H])C2([H])[H]

>  <smiles>  (56) 
[H]C(=C([H])C1([H])C([H])([H])C([H])(C(=O)N([H])[H])C1([H])N([H])C(=O)N1C([H])([H])C([H])([H])C([H])([H])C([H])(n2nc(-c3c([H])c([H])c(Oc4c([H])c([H])c(F)c([H])c4F)c([H])c3[H])c(C(=O)N([H])[H])c2N([H])[H])C1([H])[H])C([H])(C([H])([H])[H])C([H])([H])C(C([H])([H])[H])(C([H])([H])[H])C([H])([H])[N+]([H])([H])C([H])([H])C([H])([H])Oc1c([H])c([H])c2c(c1[H])C([H])([H])N(C(=O)C([H])(N([H])C(=O)C([H])(N([H])C([H])([H])[H])C([H])([H])[H])C(C([H])([H])[H])(C([H])([H])[H])C([H])([H])[H])C([H])(C(=O)N([H])C1([H])c3c([H])c([H])c([H])c([H])c3C([H])([H])C([H])([H])C1([H])[H])C2([H])[H]

$$$$
56:0:0
     RDKit          3D

 92100  0  0  1  0  0  0  0  0999 V2000
  -29.8320  -20.6780   20.1860 C   0  0  0  0  0  3  0  0  0  0  0  0
  -30.1540  -19.3020   21.7620 C   0  0  0  0  0  0  0  0  0  0  0  0
  -30.7190  -20.7240   21.4130 C   0  0  0  0  0  3  0  0  0  0  0  0
  -29.5840  -19.0110   20.3350 C   0  0  0  0  0  3  0  0  0  0  0  0
  -32.2140  -20.7290   21.0910 C   0  0  0  0  0  1  0  0  0  0  0  0
  -29.1880  -21.7050   19.6780 N   0  0  0  0  0  0  0  0  0  0  0  0
  -30.2120  -18.6240   22.7930 O   0  0  0  0  0  0  0  0  0  0  0  0
  -30.4410  -17.7590   19.8310 N   0  0  0  0  0  4  0  0  0  0  0  0
  -31.3710  -17.8540   20.2040 H   0  0  0  0  0  0  0  0  0  0  0  0
  -30.5340  -17.8620   18.8330 H   0  0  0  0  0  0  0  0  0  0  0  0
  -30.7980  -15.0300   19.7810 C   0  0  0  0  0  0  0  0  0  0  0  0
  -30.6320  -12.6840   18.8080 C   0  0  0  0  0  2  0  0  0  0  0  0
  -29.5920  -12.6660   17.6610 C   0  0  0  0  0  2  0  0  0  0  0  0
  -28.1640  -12.4620   18.2070 C   0  0  0  0  0  2  0  0  0  0  0  0
  -27.8690  -13.3640   19.4320 C   0  0  0  0  0  3  0  0  0  0  0  0
  -29.0150  -13.3200   20.4670 C   0  0  0  0  0  2  0  0  0  0  0  0
  -30.2390  -13.7490   19.7730 N   0  0  0  0  0  0  0  0  0  0  0  0
  -31.9500  -15.1580   19.3550 O   0  0  0  0  0  0  0  0  0  0  0  0
  -29.9640  -16.1320   20.1130 N   0  0  0  0  0  0  0  0  0  0  0  0
  -29.0230  -16.0010   20.4440 H   0  0  0  0  0  0  0  0  0  0  0  0
  -25.5830  -13.9690   20.4190 C   0  0  0  0  0  0  0  0  0  0  0  0
  -24.5320  -13.2050   20.8430 C   0  0  0  0  0  0  0  0  0  0  0  0
  -24.9440  -11.8460   20.6880 C   0  0  0  0  0  0  0  0  0  0  0  0
  -26.5700  -13.0770   20.0320 N   0  0  0  0  0  0  0  0  0  0  0  0
  -26.1990  -11.7900   20.2560 N   0  0  0  0  0  0  0  0  0  0  0  0
  -24.1930  -10.5960   20.8680 C   0  0  0  0  0  0  0  0  0  0  0  0
  -24.5690   -9.6420   21.8380 C   0  0  0  0  0  3  0  0  0  0  0  0
  -23.8180   -8.4580   22.0060 C   0  0  0  0  0  3  0  0  0  0  0  0
  -22.6780   -8.2210   21.2010 C   0  0  0  0  0  0  0  0  0  0  0  0
  -22.3210   -9.1630   20.2220 C   0  0  0  0  0  3  0  0  0  0  0  0
  -23.0720  -10.3390   20.0530 C   0  0  0  0  0  3  0  0  0  0  0  0
  -21.9040   -7.0880   21.2770 O   0  0  0  0  0  0  0  0  0  0  0  0
  -21.6290   -6.4820   22.4770 C   0  0  0  0  0  0  0  0  0  0  0  0
  -20.9480   -7.1570   23.5130 C   0  0  0  0  0  3  0  0  0  0  0  0
  -20.6250   -6.4750   24.7030 C   0  0  0  0  0  3  0  0  0  0  0  0
  -20.9720   -5.1190   24.8560 C   0  0  0  0  0  0  0  0  0  0  0  0
  -21.6450   -4.4450   23.8230 C   0  0  0  0  0  3  0  0  0  0  0  0
  -21.9690   -5.1230   22.6350 C   0  0  0  0  0  0  0  0  0  0  0  0
  -22.5990   -4.4620   21.6340 F   0  0  0  0  0  0  0  0  0  0  0  0
  -20.6550   -4.4620   25.9960 F   0  0  0  0  0  0  0  0  0  0  0  0
  -23.1830  -13.7060   21.2680 C   0  0  0  0  0  0  0  0  0  0  0  0
  -22.5230  -12.9950   22.1760 N   0  0  0  0  0  0  0  0  0  0  0  0
  -22.7260  -14.7620   20.8310 O   0  0  0  0  0  0  0  0  0  0  0  0
  -22.9070  -12.1400   22.5500 H   0  0  0  0  0  0  0  0  0  0  0  0
  -21.6200  -13.3100   22.5030 H   0  0  0  0  0  0  0  0  0  0  0  0
  -25.7740  -15.3430   20.3020 N   0  0  0  0  0  0  0  0  0  0  0  0
  -25.0170  -15.9930   20.4860 H   0  0  0  0  0  0  0  0  0  0  0  0
  -26.5400  -15.7670   19.7970 H   0  0  0  0  0  0  0  0  0  0  0  0
  -29.2330  -23.2310   20.1420 C   0  0  0  0  0  3  0  0  0  0  0  0
  -28.1400  -24.6320   18.1390 C   0  0  0  0  0  1  0  0  0  0  0  0
  -28.2750  -24.6140   19.6810 C   0  0  0  0  0  3  0  0  0  0  0  0
  -28.4300  -26.1320   20.0860 O   0  0  0  0  0  0  0  0  0  0  0  0
  -24.6790  -31.7070   23.2000 C   0  0  0  0  0  0  0  0  0  0  0  0
  -27.3530  -27.1110   20.0320 C   0  0  0  0  0  0  0  0  0  0  0  0
  -23.5080  -30.3280   21.5310 C   0  0  0  0  0  3  0  0  0  0  0  0
  -24.9870  -28.8290   20.0590 C   0  0  0  0  0  0  0  0  0  0  0  0
  -26.0590  -30.6480   21.3690 C   0  0  0  0  0  2  0  0  0  0  0  0
  -26.1620  -29.2750   20.6770 C   0  0  0  0  0  0  0  0  0  0  0  0
  -27.3430  -28.4350   20.6470 C   0  0  0  0  0  3  0  0  0  0  0  0
  -26.1410  -26.7810   19.3800 C   0  0  0  0  0  3  0  0  0  0  0  0
  -24.9910  -27.5960   19.3940 C   0  0  0  0  0  3  0  0  0  0  0  0
  -23.7400  -29.6960   20.1330 C   0  0  0  0  0  2  0  0  0  0  0  0
  -24.7690  -30.9160   22.0880 N   0  0  0  0  0  0  0  0  0  0  0  0
  -23.5880  -31.9520   23.7370 O   0  0  0  0  0  0  0  0  0  0  0  0
  -22.8550  -29.2800   22.4660 C   0  0  0  0  0  0  0  0  0  0  0  0
  -21.5470  -29.0180   22.2800 N   0  0  0  0  0  0  0  0  0  0  0  0
  -23.5280  -28.7040   23.3240 O   0  0  0  0  0  0  0  0  0  0  0  0
  -21.0570  -29.5390   21.5670 H   0  0  0  0  0  0  0  0  0  0  0  0
  -18.2560  -27.5320   22.5820 C   0  0  0  0  0  0  0  0  0  0  0  0
  -20.7560  -28.0320   23.0210 C   0  0  0  0  0  3  0  0  0  0  0  0
  -21.0240  -26.5990   22.5010 C   0  0  0  0  0  2  0  0  0  0  0  0
  -20.0320  -26.1530   21.4220 C   0  0  0  0  0  2  0  0  0  0  0  0
  -18.6000  -26.1890   21.9630 C   0  0  0  0  0  2  0  0  0  0  0  0
  -19.2690  -28.4050   23.0640 C   0  0  0  0  0  0  0  0  0  0  0  0
  -18.8950  -29.6560   23.6020 C   0  0  0  0  0  3  0  0  0  0  0  0
  -17.5410  -30.0380   23.6630 C   0  0  0  0  0  3  0  0  0  0  0  0
  -16.5420  -29.1660   23.1960 C   0  0  0  0  0  3  0  0  0  0  0  0
  -16.9000  -27.9150   22.6620 C   0  0  0  0  0  3  0  0  0  0  0  0
  -25.9430  -32.3580   23.8410 C   0  0  0  0  0  3  0  0  0  0  0  0
  -26.4470  -31.5950   25.1290 C   0  0  1  0  0  0  0  0  0  0  0  0
  -25.3380  -31.3390   26.1760 C   0  0  0  0  0  1  0  0  0  0  0  0
  -27.0620  -30.2270   24.7540 C   0  0  0  0  0  1  0  0  0  0  0  0
  -27.5700  -32.4120   25.8120 C   0  0  0  0  0  1  0  0  0  0  0  0
  -25.6100  -33.7530   24.1700 N   0  0  0  0  0  0  0  0  0  0  0  0
  -25.9020  -34.8120   23.4030 C   0  0  0  0  0  0  0  0  0  0  0  0
  -26.5460  -34.7170   22.3540 O   0  0  0  0  0  0  0  0  0  0  0  0
  -25.0330  -33.8970   24.9860 H   0  0  0  0  0  0  0  0  0  0  0  0
  -24.1210  -36.5670   23.1090 C   0  0  0  0  0  1  0  0  0  0  0  0
  -25.4040  -36.1940   23.8700 C   0  0  0  0  0  3  0  0  0  0  0  0
  -27.5420  -37.1450   24.6160 C   0  0  0  0  0  1  0  0  0  0  0  0
  -26.4060  -37.2690   23.7060 N   0  0  0  0  0  0  0  0  0  0  0  0
  -25.9820  -38.1810   23.8500 H   0  0  0  0  0  0  0  0  0  0  0  0
  1  6  1  0
  1  4  1  0
  1  3  1  0
  2  7  2  0
  3  5  1  0
  3  2  1  0
  4  8  1  0
  4  2  1  0
  6 49  2  0
  8 19  1  0
  8  9  1  0
 10  8  1  0
 11 19  1  0
 12 17  1  0
 13 14  1  0
 13 12  1  0
 15 14  1  0
 15 24  1  0
 15 16  1  0
 17 11  1  0
 17 16  1  0
 18 11  2  0
 19 20  1  0
 21 22  2  0
 22 41  1  0
 23 22  1  0
 23 26  1  0
 24 25  1  0
 24 21  1  0
 25 23  2  0
 26 27  1  0
 27 28  2  0
 29 32  1  0
 29 28  1  0
 30 29  2  0
 31 30  1  0
 31 26  2  0
 32 33  1  0
 33 38  2  0
 33 34  1  0
 34 35  2  0
 35 36  1  0
 36 40  1  0
 37 36  2  0
 38 37  1  0
 39 38  1  0
 41 42  1  0
 42 45  1  0
 42 44  1  0
 43 41  2  0
 46 21  1  0
 46 47  1  0
 48 46  1  0
 51 50  1  0
 51 52  1  0
 51 49  1  0
 53 64  2  0
 54 52  1  0
 54 59  1  0
 55 63  1  0
 55 65  1  0
 56 62  1  0
 56 58  1  0
 57 63  1  0
 58 57  1  0
 59 58  2  0
 60 61  1  0
 60 54  2  0
 61 56  2  0
 62 55  1  0
 63 53  1  0
 65 67  2  0
 66 65  1  0
 68 66  1  0
 69 78  2  0
 69 74  1  0
 70 66  1  0
 70 74  1  0
 71 70  1  0
 72 73  1  0
 72 71  1  0
 73 69  1  0
 74 75  2  0
 75 76  1  0
 77 76  2  0
 78 77  1  0
 79 53  1  0
 79 84  1  0
 79 80  1  0
 80 83  1  1
 80 81  1  0
 82 80  1  0
 84 87  1  0
 85 89  1  0
 85 84  1  0
 86 85  2  0
 89 88  1  0
 91 92  1  0
 91 89  1  0
 91 90  1  0
M  ISO  4  11 100  19 100  51 101  52 101
M  END
>  <TORSDO>  (57) 
F 19

>  <SCORE>  (57) 
-13.504

>  <name>  (57) 
56

>  <ligand_id>  (57) 
56

>  <original_smiles>  (57) 
[H]c1c([H])c([H])c2c(c1[H])C([H])([H])C([H])([H])C([H])([H])C2([H])N([H])C(=O)C1([H])N(C(=O)C([H])(N([H])C(=O)C([H])(N([H])C([H])([H])[H])C([H])([H])[H])C(C([H])([H])[H])(C([H])([H])[H])C([H])([H])[H])C([H])([H])c2c([H])c(OC([H])(C([H])([H])[H])C([H])([H])N=C3C([H])(C([H])([H])[H])C(=O)C3([H])[N+]([H])([H])N([H])C(=O)N3C([H])([H])C([H])([H])C([H])([H])C([H])(n4nc(-c5c([H])c([H])c(Oc6c([H])c([H])c(F)c([H])c6F)c([H])c5[H])c(C(=O)N([H])[H])c4N([H])[H])C3([H])[H])c([H])c([H])c2C1([H])[H]

>  <smiles>  (57) 
[H]c1c([H])c([H])c2c(c1[H])C([H])([H])C([H])([H])C([H])([H])C2([H])N([H])C(=O)C1([H])N(C(=O)C([H])(N([H])C(=O)C([H])(N([H])C([H])([H])[H])C([H])([H])[H])C(C([H])([H])[H])(C([H])([H])[H])C([H])([H])[H])C([H])([H])c2c([H])c(OC([H])(C([H])([H])[H])C([H])([H])N=C3C([H])(C([H])([H])[H])C(=O)C3([H])[N+]([H])([H])N([H])C(=O)N3C([H])([H])C([H])([H])C([H])([H])C([H])(n4nc(-c5c([H])c([H])c(Oc6c([H])c([H])c(F)c([H])c6F)c([H])c5[H])c(C(=O)N([H])[H])c4N([H])[H])C3([H])[H])c([H])c([H])c2C1([H])[H]

$$$$
57:0:0
     RDKit          3D

 96104  0  0  1  0  0  0  0  0999 V2000
  -31.2170  -21.7810   23.9950 C   0  0  0  0  0  3  0  0  0  0  0  0
  -31.2630  -22.6630   22.9050 C   0  0  0  0  0  3  0  0  0  0  0  0
  -31.1080  -20.3960   23.7710 C   0  0  0  0  0  3  0  0  0  0  0  0
  -31.1280  -20.7660   21.3620 C   0  0  0  0  0  3  0  0  0  0  0  0
  -31.2040  -22.1620   21.5870 C   0  0  0  0  0  0  0  0  0  0  0  0
  -31.0620  -19.8710   22.4630 C   0  0  0  0  0  0  0  0  0  0  0  0
  -31.1860  -23.1450   20.4230 C   0  0  0  0  0  2  0  0  0  0  0  0
  -29.8130  -23.7860   20.1900 C   0  0  0  0  0  0  0  0  0  0  0  0
  -28.7980  -23.3700   20.7610 O   0  0  0  0  0  0  0  0  0  0  0  0
  -29.7600  -24.9430   19.1840 C   0  0  0  0  0  2  0  0  0  0  0  0
  -28.3970  -25.6520   19.1100 C   0  0  0  0  0  2  0  0  0  0  0  0
  -28.2370  -26.6230   20.1520 O   0  0  0  0  0  0  0  0  0  0  0  0
  -24.5350  -31.8490   23.2960 C   0  0  0  0  0  0  0  0  0  0  0  0
  -27.0560  -27.3430   20.1840 C   0  0  0  0  0  0  0  0  0  0  0  0
  -23.2850  -30.4680   21.6720 C   0  0  0  0  0  3  0  0  0  0  0  0
  -24.6890  -28.8960   20.2450 C   0  0  0  0  0  0  0  0  0  0  0  0
  -25.8200  -30.7650   21.4560 C   0  0  0  0  0  2  0  0  0  0  0  0
  -25.8670  -29.3910   20.8220 C   0  0  0  0  0  0  0  0  0  0  0  0
  -27.0470  -28.6150   20.8020 C   0  0  0  0  0  3  0  0  0  0  0  0
  -25.8470  -26.8560   19.6280 C   0  0  0  0  0  3  0  0  0  0  0  0
  -24.6730  -27.6250   19.6570 C   0  0  0  0  0  3  0  0  0  0  0  0
  -23.4700  -29.7860   20.2930 C   0  0  0  0  0  2  0  0  0  0  0  0
  -24.5670  -31.0420   22.1990 N   0  0  0  0  0  0  0  0  0  0  0  0
  -23.4640  -32.1480   23.8410 O   0  0  0  0  0  0  0  0  0  0  0  0
  -22.6230  -29.4610   22.6390 C   0  0  0  0  0  0  0  0  0  0  0  0
  -21.2990  -29.2840   22.5020 N   0  0  0  0  0  0  0  0  0  0  0  0
  -23.2950  -28.8450   23.4690 O   0  0  0  0  0  0  0  0  0  0  0  0
  -20.8200  -29.8320   21.8000 H   0  0  0  0  0  0  0  0  0  0  0  0
  -17.9150  -28.1030   22.9720 C   0  0  0  0  0  0  0  0  0  0  0  0
  -20.4690  -28.3640   23.2780 C   0  0  0  0  0  3  0  0  0  0  0  0
  -20.5770  -26.9220   22.7330 C   0  0  0  0  0  2  0  0  0  0  0  0
  -19.4900  -26.5770   21.7100 C   0  0  0  0  0  2  0  0  0  0  0  0
  -18.0990  -26.7390   22.3300 C   0  0  0  0  0  2  0  0  0  0  0  0
  -19.0280  -28.8730   23.4030 C   0  0  0  0  0  0  0  0  0  0  0  0
  -18.8040  -30.1480   23.9630 C   0  0  0  0  0  3  0  0  0  0  0  0
  -17.4980  -30.6560   24.0980 C   0  0  0  0  0  3  0  0  0  0  0  0
  -16.3980  -29.8840   23.6820 C   0  0  0  0  0  3  0  0  0  0  0  0
  -16.6070  -28.6100   23.1260 C   0  0  0  0  0  3  0  0  0  0  0  0
  -25.8390  -32.4560   23.9020 C   0  0  0  0  0  3  0  0  0  0  0  0
  -25.5690  -33.8670   24.2030 N   0  0  0  0  0  0  0  0  0  0  0  0
  -25.9460  -34.8960   23.4320 C   0  0  0  0  0  0  0  0  0  0  0  0
  -26.6260  -34.7540   22.4120 O   0  0  0  0  0  0  0  0  0  0  0  0
  -24.9670  -34.0540   24.9920 H   0  0  0  0  0  0  0  0  0  0  0  0
  -24.3030  -36.7480   22.9900 C   0  0  0  0  0  1  0  0  0  0  0  0
  -25.4920  -36.3040   23.8570 C   0  0  0  0  0  3  0  0  0  0  0  0
  -27.6170  -37.1210   24.7750 C   0  0  0  0  0  1  0  0  0  0  0  0
  -26.5690  -37.3160   23.7780 N   0  0  0  0  0  0  0  0  0  0  0  0
  -26.1920  -38.2540   23.8890 H   0  0  0  0  0  0  0  0  0  0  0  0
  -26.3390  -31.6940   25.1910 C   0  0  1  0  0  0  0  0  0  0  0  0
  -25.2410  -31.4980   26.2640 C   0  0  0  0  0  1  0  0  0  0  0  0
  -26.8930  -30.2980   24.8230 C   0  0  0  0  0  1  0  0  0  0  0  0
  -27.5080  -32.4720   25.8380 C   0  0  0  0  0  1  0  0  0  0  0  0
  -30.9120  -18.3530   22.3490 C   0  0  0  0  0  2  0  0  0  0  0  0
  -30.3320  -17.7390   21.0580 C   0  0  0  0  0  2  0  0  0  0  0  0
  -31.2760  -14.1590   20.0790 C   0  0  0  0  0  0  0  0  0  0  0  0
  -30.7630  -12.0050   19.0160 C   0  0  0  0  0  2  0  0  0  0  0  0
  -29.7870  -12.2390   17.8450 C   0  0  0  0  0  2  0  0  0  0  0  0
  -28.3300  -12.1840   18.3450 C   0  0  0  0  0  2  0  0  0  0  0  0
  -28.0890  -13.0820   19.5910 C   0  0  0  0  0  3  0  0  0  0  0  0
  -29.1850  -12.8600   20.6620 C   0  0  0  0  0  2  0  0  0  0  0  0
  -30.5010  -13.0420   20.0230 N   0  0  0  0  0  0  0  0  0  0  0  0
  -32.3780  -14.2560   19.5230 O   0  0  0  0  0  0  0  0  0  0  0  0
  -31.1950  -16.6020   20.5870 C   0  0  0  0  0  0  0  0  0  0  0  0
  -30.6790  -15.3390   20.6390 N   0  0  0  0  0  0  0  0  0  0  0  0
  -32.4270  -16.9080   20.1220 N   0  0  0  0  0  4  0  0  0  0  0  0
  -29.7740  -15.2820   21.0730 H   0  0  0  0  0  0  0  0  0  0  0  0
  -32.8050  -17.8470   20.1380 H   0  0  0  0  0  0  0  0  0  0  0  0
  -33.0000  -16.1650   19.7270 H   0  0  0  0  0  0  0  0  0  0  0  0
  -25.7840  -13.8330   20.4640 C   0  0  0  0  0  0  0  0  0  0  0  0
  -24.6880  -13.1230   20.8780 C   0  0  0  0  0  0  0  0  0  0  0  0
  -25.0500  -11.7450   20.7770 C   0  0  0  0  0  0  0  0  0  0  0  0
  -26.7490  -12.8910   20.1410 N   0  0  0  0  0  0  0  0  0  0  0  0
  -26.3140  -11.6270   20.3890 N   0  0  0  0  0  0  0  0  0  0  0  0
  -24.2490  -10.5290   20.9720 C   0  0  0  0  0  0  0  0  0  0  0  0
  -24.6390   -9.5290   21.8900 C   0  0  0  0  0  3  0  0  0  0  0  0
  -23.8450   -8.3760   22.0740 C   0  0  0  0  0  3  0  0  0  0  0  0
  -22.6440   -8.2180   21.3410 C   0  0  0  0  0  0  0  0  0  0  0  0
  -22.2710   -9.2080   20.4140 C   0  0  0  0  0  3  0  0  0  0  0  0
  -23.0650  -10.3520   20.2270 C   0  0  0  0  0  3  0  0  0  0  0  0
  -21.8190   -7.1220   21.4370 O   0  0  0  0  0  0  0  0  0  0  0  0
  -21.7110   -6.4030   22.6000 C   0  0  0  0  0  0  0  0  0  0  0  0
  -21.2450   -6.9890   23.7960 C   0  0  0  0  0  3  0  0  0  0  0  0
  -21.0780   -6.1990   24.9500 C   0  0  0  0  0  3  0  0  0  0  0  0
  -21.3670   -4.8210   24.9100 C   0  0  0  0  0  0  0  0  0  0  0  0
  -21.8250   -4.2320   23.7180 C   0  0  0  0  0  3  0  0  0  0  0  0
  -21.9940   -5.0220   22.5660 C   0  0  0  0  0  0  0  0  0  0  0  0
  -22.4180   -4.4460   21.4140 F   0  0  0  0  0  0  0  0  0  0  0  0
  -21.2010   -4.0600   26.0170 F   0  0  0  0  0  0  0  0  0  0  0  0
  -23.3450  -13.6890   21.2470 C   0  0  0  0  0  0  0  0  0  0  0  0
  -22.6200  -13.0200   22.1370 N   0  0  0  0  0  0  0  0  0  0  0  0
  -22.9480  -14.7560   20.7780 O   0  0  0  0  0  0  0  0  0  0  0  0
  -22.9530  -12.1590   22.5430 H   0  0  0  0  0  0  0  0  0  0  0  0
  -21.7150  -13.3750   22.4110 H   0  0  0  0  0  0  0  0  0  0  0  0
  -26.0260  -15.1950   20.3150 N   0  0  0  0  0  0  0  0  0  0  0  0
  -25.2830  -15.8740   20.4530 H   0  0  0  0  0  0  0  0  0  0  0  0
  -26.8460  -15.5930   19.8760 H   0  0  0  0  0  0  0  0  0  0  0  0
  2  1  2  0
  3  1  1  0
  4  5  2  0
  4  6  1  0
  5  2  1  0
  6  3  2  0
  7  5  1  0
  8  7  1  0
  8  9  2  0
 10  8  1  0
 11 10  1  0
 11 12  1  0
 12 14  1  0
 13 24  2  0
 14 19  1  0
 15 23  1  0
 15 25  1  0
 16 22  1  0
 16 18  1  0
 17 23  1  0
 18 17  1  0
 19 18  2  0
 20 21  1  0
 20 14  2  0
 21 16  2  0
 22 15  1  0
 23 13  1  0
 25 27  2  0
 26 25  1  0
 28 26  1  0
 29 38  2  0
 29 34  1  0
 30 26  1  0
 30 34  1  0
 31 30  1  0
 32 33  1  0
 32 31  1  0
 33 29  1  0
 34 35  2  0
 35 36  1  0
 37 36  2  0
 38 37  1  0
 39 13  1  0
 39 40  1  0
 39 49  1  0
 40 43  1  0
 41 45  1  0
 41 40  1  0
 42 41  2  0
 45 44  1  0
 47 45  1  0
 47 48  1  0
 47 46  1  0
 49 52  1  1
 49 50  1  0
 51 49  1  0
 53  6  1  0
 54 53  1  0
 55 64  1  0
 56 61  1  0
 57 58  1  0
 57 56  1  0
 59 58  1  0
 59 72  1  0
 59 60  1  0
 61 55  1  0
 61 60  1  0
 62 55  2  0
 63 64  1  0
 63 54  1  0
 64 66  1  0
 65 67  1  0
 65 63  2  0
 68 65  1  0
 69 70  2  0
 70 89  1  0
 71 70  1  0
 71 74  1  0
 72 73  1  0
 72 69  1  0
 73 71  2  0
 74 75  1  0
 75 76  2  0
 77 80  1  0
 77 76  1  0
 78 77  2  0
 79 78  1  0
 79 74  2  0
 80 81  1  0
 81 82  1  0
 82 83  2  0
 84 83  1  0
 84 88  1  0
 85 84  2  0
 86 81  2  0
 86 85  1  0
 87 86  1  0
 89 90  1  0
 90 93  1  0
 90 92  1  0
 91 89  2  0
 94 95  1  0
 94 69  1  0
 96 94  1  0
M  ISO  4  11 101  12 101  55 100  64 100
M  END
>  <TORSDO>  (58) 
F 22

>  <SCORE>  (58) 
-12.342

>  <name>  (58) 
57

>  <ligand_id>  (58) 
57

>  <original_smiles>  (58) 
[H]c1c([H])c(C([H])([H])C(=O)C([H])([H])C([H])([H])Oc2c([H])c([H])c3c(c2[H])C([H])([H])N(C(=O)C([H])(N([H])C(=O)C([H])(N([H])C([H])([H])[H])C([H])([H])[H])C(C([H])([H])[H])(C([H])([H])[H])C([H])([H])[H])C([H])(C(=O)N([H])C2([H])c4c([H])c([H])c([H])c([H])c4C([H])([H])C([H])([H])C2([H])[H])C3([H])[H])c([H])c(C([H])([H])C([H])([H])C(N([H])C(=O)N2C([H])([H])C([H])([H])C([H])([H])C([H])(n3nc(-c4c([H])c([H])c(Oc5c([H])c([H])c(F)c([H])c5F)c([H])c4[H])c(C(=O)N([H])[H])c3N([H])[H])C2([H])[H])=[N+]([H])[H])c1[H]

>  <smiles>  (58) 
[H]c1c([H])c(C([H])([H])C(=O)C([H])([H])C([H])([H])Oc2c([H])c([H])c3c(c2[H])C([H])([H])N(C(=O)C([H])(N([H])C(=O)C([H])(N([H])C([H])([H])[H])C([H])([H])[H])C(C([H])([H])[H])(C([H])([H])[H])C([H])([H])[H])C([H])(C(=O)N([H])C2([H])c4c([H])c([H])c([H])c([H])c4C([H])([H])C([H])([H])C2([H])[H])C3([H])[H])c([H])c(C([H])([H])C([H])([H])C(N([H])C(=O)N2C([H])([H])C([H])([H])C([H])([H])C([H])(n3nc(-c4c([H])c([H])c(Oc5c([H])c([H])c(F)c([H])c5F)c([H])c4[H])c(C(=O)N([H])[H])c3N([H])[H])C2([H])[H])=[N+]([H])[H])c1[H]

$$$$
58:0:0
     RDKit          3D

 94102  0  0  1  0  0  0  0  0999 V2000
  -29.3030  -22.3530   20.9250 C   0  0  0  0  0  2  0  0  0  0  0  0
  -29.5660  -22.2700   18.9080 C   0  0  0  0  0  2  0  0  0  0  0  0
  -30.1490  -21.4100   20.0480 C   0  0  1  0  0  0  0  0  0  0  0  0
  -31.6800  -21.5010   20.2190 C   0  0  0  0  0  1  0  0  0  0  0  0
  -29.4380  -23.3600   19.8740 N   0  0  1  0  0  4  0  0  0  0  0  0
  -30.3210  -23.8410   19.9600 H   0  0  0  0  0  0  0  0  0  0  0  0
  -29.7980  -19.9030   20.0530 C   0  0  0  0  0  2  0  0  0  0  0  0
  -30.0180  -19.2160   21.4270 C   0  0  0  0  0  2  0  0  0  0  0  0
  -30.0210  -17.1300   22.6990 C   0  0  0  0  0  1  0  0  0  0  0  0
  -30.2600  -17.7440   21.3680 N   0  0  2  0  0  4  0  0  0  0  0  0
  -29.5640  -17.3500   20.7530 H   0  0  0  0  0  0  0  0  0  0  0  0
  -31.6040  -17.4190   20.7960 C   0  0  0  0  0  2  0  0  0  0  0  0
  -32.1280  -15.9830   21.0460 C   0  0  0  0  0  2  0  0  0  0  0  0
  -31.4780  -14.0840   19.5670 C   0  0  0  0  0  0  0  0  0  0  0  0
  -30.8930  -11.9070   18.5600 C   0  0  0  0  0  2  0  0  0  0  0  0
  -29.8680  -12.0440   17.4200 C   0  0  0  0  0  2  0  0  0  0  0  0
  -28.4320  -12.0400   17.9740 C   0  0  0  0  0  2  0  0  0  0  0  0
  -28.2460  -13.0410   19.1440 C   0  0  0  0  0  3  0  0  0  0  0  0
  -29.3620  -12.8640   20.1970 C   0  0  0  0  0  2  0  0  0  0  0  0
  -30.6680  -12.9960   19.5230 N   0  0  0  0  0  0  0  0  0  0  0  0
  -32.4250  -14.2670   18.7980 O   0  0  0  0  0  0  0  0  0  0  0  0
  -31.2340  -14.9170   20.5880 N   0  0  0  0  0  0  0  0  0  0  0  0
  -30.4790  -14.6420   21.2000 H   0  0  0  0  0  0  0  0  0  0  0  0
  -25.9980  -13.9100   20.0540 C   0  0  0  0  0  0  0  0  0  0  0  0
  -24.8910  -13.2590   20.5270 C   0  0  0  0  0  0  0  0  0  0  0  0
  -25.1980  -11.8640   20.4680 C   0  0  0  0  0  0  0  0  0  0  0  0
  -26.9170  -12.9190   19.7410 N   0  0  0  0  0  0  0  0  0  0  0  0
  -26.4420  -11.6850   20.0450 N   0  0  0  0  0  0  0  0  0  0  0  0
  -24.3590  -10.6890   20.7350 C   0  0  0  0  0  0  0  0  0  0  0  0
  -24.7430   -9.7080   21.6760 C   0  0  0  0  0  3  0  0  0  0  0  0
  -23.9110   -8.5950   21.9290 C   0  0  0  0  0  3  0  0  0  0  0  0
  -22.6830   -8.4560   21.2410 C   0  0  0  0  0  0  0  0  0  0  0  0
  -22.3170   -9.4240   20.2890 C   0  0  0  0  0  3  0  0  0  0  0  0
  -23.1470  -10.5280   20.0340 C   0  0  0  0  0  3  0  0  0  0  0  0
  -21.8240   -7.3970   21.4030 O   0  0  0  0  0  0  0  0  0  0  0  0
  -21.7300   -6.7220   22.5940 C   0  0  0  0  0  0  0  0  0  0  0  0
  -21.4020   -7.3800   23.7990 C   0  0  0  0  0  3  0  0  0  0  0  0
  -21.2470   -6.6370   24.9860 C   0  0  0  0  0  3  0  0  0  0  0  0
  -21.4100   -5.2390   24.9710 C   0  0  0  0  0  0  0  0  0  0  0  0
  -21.7320   -4.5810   23.7700 C   0  0  0  0  0  3  0  0  0  0  0  0
  -21.8880   -5.3210   22.5840 C   0  0  0  0  0  0  0  0  0  0  0  0
  -22.1770   -4.6800   21.4260 F   0  0  0  0  0  0  0  0  0  0  0  0
  -21.2550   -4.5240   26.1090 F   0  0  0  0  0  0  0  0  0  0  0  0
  -23.5830  -13.8850   20.9190 C   0  0  0  0  0  0  0  0  0  0  0  0
  -22.8790  -13.2870   21.8730 N   0  0  0  0  0  0  0  0  0  0  0  0
  -23.2030  -14.9400   20.4140 O   0  0  0  0  0  0  0  0  0  0  0  0
  -23.2010  -12.4310   22.3010 H   0  0  0  0  0  0  0  0  0  0  0  0
  -22.0040  -13.6890   22.1790 H   0  0  0  0  0  0  0  0  0  0  0  0
  -26.2950  -15.2530   19.8470 N   0  0  0  0  0  0  0  0  0  0  0  0
  -25.6060  -15.9840   19.9930 H   0  0  0  0  0  0  0  0  0  0  0  0
  -27.1310  -15.5840   19.3840 H   0  0  0  0  0  0  0  0  0  0  0  0
  -28.3190  -24.3170   19.6720 C   0  0  0  0  0  2  0  0  0  0  0  0
  -28.2990  -25.4210   20.7490 C   0  0  0  0  0  2  0  0  0  0  0  0
  -28.3290  -26.7360   20.1850 O   0  0  0  0  0  0  0  0  0  0  0  0
  -24.5640  -31.9170   23.2620 C   0  0  0  0  0  0  0  0  0  0  0  0
  -27.1490  -27.4390   20.2110 C   0  0  0  0  0  0  0  0  0  0  0  0
  -23.3320  -30.5090   21.6430 C   0  0  0  0  0  3  0  0  0  0  0  0
  -24.7610  -28.9410   20.2280 C   0  0  0  0  0  0  0  0  0  0  0  0
  -25.8560  -30.8520   21.4180 C   0  0  0  0  0  2  0  0  0  0  0  0
  -25.9250  -29.4730   20.7960 C   0  0  0  0  0  0  0  0  0  0  0  0
  -27.1250  -28.7300   20.7820 C   0  0  0  0  0  3  0  0  0  0  0  0
  -25.9690  -26.9100   19.6450 C   0  0  0  0  0  3  0  0  0  0  0  0
  -24.7760  -27.6580   19.6510 C   0  0  0  0  0  3  0  0  0  0  0  0
  -23.5240  -29.8100   20.2700 C   0  0  0  0  0  2  0  0  0  0  0  0
  -24.6020  -31.1070   22.1660 N   0  0  0  0  0  0  0  0  0  0  0  0
  -23.4880  -32.2030   23.8090 O   0  0  0  0  0  0  0  0  0  0  0  0
  -22.6810  -29.5050   22.6200 C   0  0  0  0  0  0  0  0  0  0  0  0
  -21.3570  -29.3190   22.4900 N   0  0  0  0  0  0  0  0  0  0  0  0
  -23.3630  -28.8940   23.4480 O   0  0  0  0  0  0  0  0  0  0  0  0
  -20.8700  -29.8600   21.7900 H   0  0  0  0  0  0  0  0  0  0  0  0
  -17.9870  -28.1090   22.9660 C   0  0  0  0  0  0  0  0  0  0  0  0
  -20.5380  -28.3940   23.2720 C   0  0  0  0  0  3  0  0  0  0  0  0
  -20.6610  -26.9500   22.7310 C   0  0  0  0  0  2  0  0  0  0  0  0
  -19.5770  -26.5940   21.7100 C   0  0  0  0  0  2  0  0  0  0  0  0
  -18.1840  -26.7450   22.3280 C   0  0  0  0  0  2  0  0  0  0  0  0
  -19.0930  -28.8910   23.3930 C   0  0  0  0  0  0  0  0  0  0  0  0
  -18.8550  -30.1680   23.9460 C   0  0  0  0  0  3  0  0  0  0  0  0
  -17.5450  -30.6640   24.0790 C   0  0  0  0  0  3  0  0  0  0  0  0
  -16.4530  -29.8790   23.6690 C   0  0  0  0  0  3  0  0  0  0  0  0
  -16.6750  -28.6050   23.1170 C   0  0  0  0  0  3  0  0  0  0  0  0
  -25.8600  -32.5420   23.8680 C   0  0  0  0  0  3  0  0  0  0  0  0
  -25.5660  -33.9430   24.1960 N   0  0  0  0  0  0  0  0  0  0  0  0
  -25.9010  -34.9900   23.4290 C   0  0  0  0  0  0  0  0  0  0  0  0
  -26.5620  -34.8770   22.3930 O   0  0  0  0  0  0  0  0  0  0  0  0
  -24.9810  -34.1060   25.0030 H   0  0  0  0  0  0  0  0  0  0  0  0
  -24.1820  -36.7900   23.0790 C   0  0  0  0  0  1  0  0  0  0  0  0
  -25.4260  -36.3840   23.8830 C   0  0  0  0  0  3  0  0  0  0  0  0
  -27.5750  -37.2550   24.6900 C   0  0  0  0  0  1  0  0  0  0  0  0
  -26.4650  -37.4290   23.7560 N   0  0  0  0  0  0  0  0  0  0  0  0
  -26.0680  -38.3520   23.9050 H   0  0  0  0  0  0  0  0  0  0  0  0
  -26.3880  -31.7690   25.1380 C   0  0  1  0  0  0  0  0  0  0  0  0
  -25.3060  -31.5350   26.2170 C   0  0  0  0  0  1  0  0  0  0  0  0
  -26.9620  -30.3910   24.7360 C   0  0  0  0  0  1  0  0  0  0  0  0
  -27.5500  -32.5590   25.7860 C   0  0  0  0  0  1  0  0  0  0  0  0
  2  5  1  0
  2  3  1  0
  3  7  1  0
  3  4  1  1
  3  1  1  0
  5  6  1  1
  5  1  1  0
  7  8  1  0
 10  8  1  0
 10  9  1  0
 10 11  1  6
 12 13  1  0
 12 10  1  0
 14 22  1  0
 15 20  1  0
 16 17  1  0
 16 15  1  0
 18 17  1  0
 18 27  1  0
 18 19  1  0
 20 14  1  0
 20 19  1  0
 21 14  2  0
 22 13  1  0
 22 23  1  0
 24 25  2  0
 25 44  1  0
 26 25  1  0
 26 29  1  0
 27 28  1  0
 27 24  1  0
 28 26  2  0
 29 30  1  0
 30 31  2  0
 32 35  1  0
 32 31  1  0
 33 32  2  0
 34 33  1  0
 34 29  2  0
 35 36  1  0
 36 37  1  0
 37 38  2  0
 39 38  1  0
 39 43  1  0
 40 39  2  0
 41 36  2  0
 41 40  1  0
 42 41  1  0
 44 45  1  0
 45 48  1  0
 45 47  1  0
 46 44  2  0
 49 50  1  0
 49 24  1  0
 51 49  1  0
 52  5  1  0
 52 53  1  0
 54 56  1  0
 54 53  1  0
 55 66  2  0
 56 61  1  0
 57 65  1  0
 57 67  1  0
 58 64  1  0
 58 60  1  0
 59 65  1  0
 60 59  1  0
 61 60  2  0
 62 63  1  0
 62 56  2  0
 63 58  2  0
 64 57  1  0
 65 55  1  0
 67 69  2  0
 68 67  1  0
 70 68  1  0
 71 80  2  0
 71 76  1  0
 72 68  1  0
 72 76  1  0
 73 72  1  0
 74 75  1  0
 74 73  1  0
 75 71  1  0
 76 77  2  0
 77 78  1  0
 79 78  2  0
 80 79  1  0
 81 55  1  0
 81 82  1  0
 81 91  1  0
 82 85  1  0
 83 87  1  0
 83 82  1  0
 84 83  2  0
 87 86  1  0
 89 87  1  0
 89 90  1  0
 89 88  1  0
 91 94  1  1
 91 92  1  0
 93 91  1  0
M  ISO  4  14 100  22 100  53 101  54 101
M  END
>  <TORSDO>  (59) 
F 23

>  <SCORE>  (59) 
-11.032

>  <name>  (59) 
58

>  <ligand_id>  (59) 
58

>  <original_smiles>  (59) 
[H]c1c([H])c([H])c2c(c1[H])C([H])([H])C([H])([H])C([H])([H])C2([H])N([H])C(=O)C1([H])N(C(=O)C([H])(N([H])C(=O)C([H])(N([H])C([H])([H])[H])C([H])([H])[H])C(C([H])([H])[H])(C([H])([H])[H])C([H])([H])[H])C([H])([H])c2c([H])c(OC([H])([H])C([H])([H])[N+]3([H])C([H])([H])C(C([H])([H])[H])(C([H])([H])C([H])([H])[N+]([H])(C([H])([H])[H])C([H])([H])C([H])([H])N([H])C(=O)N4C([H])([H])C([H])([H])C([H])([H])C([H])(n5nc(-c6c([H])c([H])c(Oc7c([H])c([H])c(F)c([H])c7F)c([H])c6[H])c(C(=O)N([H])[H])c5N([H])[H])C4([H])[H])C3([H])[H])c([H])c([H])c2C1([H])[H]

>  <smiles>  (59) 
[H]c1c([H])c([H])c2c(c1[H])C([H])([H])C([H])([H])C([H])([H])C2([H])N([H])C(=O)C1([H])N(C(=O)C([H])(N([H])C(=O)C([H])(N([H])C([H])([H])[H])C([H])([H])[H])C(C([H])([H])[H])(C([H])([H])[H])C([H])([H])[H])C([H])([H])c2c([H])c(OC([H])([H])C([H])([H])[N+]3([H])C([H])([H])C(C([H])([H])[H])(C([H])([H])C([H])([H])[N+]([H])(C([H])([H])[H])C([H])([H])C([H])([H])N([H])C(=O)N4C([H])([H])C([H])([H])C([H])([H])C([H])(n5nc(-c6c([H])c([H])c(Oc7c([H])c([H])c(F)c([H])c7F)c([H])c6[H])c(C(=O)N([H])[H])c5N([H])[H])C4([H])[H])C3([H])[H])c([H])c([H])c2C1([H])[H]

$$$$
59:0:0
     RDKit          3D

 98107  0  0  1  0  0  0  0  0999 V2000
  -28.3120  -20.9460   18.7660 C   0  0  0  0  0  2  0  0  0  0  0  0
  -27.9410  -19.6310   20.9270 C   0  0  0  0  0  1  0  0  0  0  0  0
  -28.0670  -19.5600   19.4530 N   0  0  2  0  0  4  0  0  0  0  0  0
  -27.1070  -19.3920   19.1930 H   0  0  0  0  0  0  0  0  0  0  0  0
  -29.9100  -15.0120   18.6590 C   0  0  0  0  0  0  0  0  0  0  0  0
  -29.6940  -12.6650   17.7810 C   0  0  0  0  0  2  0  0  0  0  0  0
  -28.4370  -12.5750   16.8870 C   0  0  0  0  0  2  0  0  0  0  0  0
  -27.1850  -12.2750   17.7320 C   0  0  0  0  0  2  0  0  0  0  0  0
  -27.0960  -13.1570   19.0050 C   0  0  0  0  0  3  0  0  0  0  0  0
  -28.4390  -13.2400   19.7590 C   0  0  0  0  0  2  0  0  0  0  0  0
  -29.4400  -13.7180   18.7970 N   0  0  0  0  0  0  0  0  0  0  0  0
  -30.9190  -15.1990   17.9760 O   0  0  0  0  0  0  0  0  0  0  0  0
  -28.0350  -16.9100   18.6450 C   0  0  0  0  0  2  0  0  0  0  0  0
  -29.5800  -17.3200   19.9640 C   0  0  0  0  0  3  0  0  0  0  0  0
  -28.7940  -18.2480   18.9590 C   0  0  0  0  0  3  0  0  0  0  0  0
  -29.1770  -16.0860   19.2000 N   0  0  0  0  0  0  0  0  0  0  0  0
  -33.8400  -17.7320   20.7810 C   0  0  0  0  0  3  0  0  0  0  0  0
  -33.0530  -16.8400   21.5340 C   0  0  0  0  0  3  0  0  0  0  0  0
  -33.2500  -18.4950   19.7580 C   0  0  0  0  0  3  0  0  0  0  0  0
  -31.6760  -16.7130   21.2630 C   0  0  0  0  0  3  0  0  0  0  0  0
  -31.8730  -18.3700   19.4870 C   0  0  0  0  0  3  0  0  0  0  0  0
  -31.0740  -17.4790   20.2390 C   0  0  0  0  0  0  0  0  0  0  0  0
  -25.1190  -13.5510   20.5830 C   0  0  0  0  0  0  0  0  0  0  0  0
  -24.2300  -12.6970   21.1750 C   0  0  0  0  0  0  0  0  0  0  0  0
  -24.6270  -11.3790   20.7870 C   0  0  0  0  0  0  0  0  0  0  0  0
  -26.0010  -12.7510   19.8760 N   0  0  0  0  0  0  0  0  0  0  0  0
  -25.7320  -11.4310   20.0530 N   0  0  0  0  0  0  0  0  0  0  0  0
  -23.9820  -10.0810   21.0260 C   0  0  0  0  0  0  0  0  0  0  0  0
  -24.5360   -9.1310   21.9120 C   0  0  0  0  0  3  0  0  0  0  0  0
  -23.8870   -7.8990   22.1420 C   0  0  0  0  0  3  0  0  0  0  0  0
  -22.6690   -7.6070   21.4820 C   0  0  0  0  0  0  0  0  0  0  0  0
  -22.1320   -8.5450   20.5830 C   0  0  0  0  0  3  0  0  0  0  0  0
  -22.7830   -9.7680   20.3540 C   0  0  0  0  0  3  0  0  0  0  0  0
  -21.9830   -6.4240   21.6220 O   0  0  0  0  0  0  0  0  0  0  0  0
  -21.8620   -5.8000   22.8370 C   0  0  0  0  0  0  0  0  0  0  0  0
  -21.2150   -6.4180   23.9300 C   0  0  0  0  0  3  0  0  0  0  0  0
  -21.0520   -5.7150   25.1400 C   0  0  0  0  0  3  0  0  0  0  0  0
  -21.5250   -4.3940   25.2590 C   0  0  0  0  0  0  0  0  0  0  0  0
  -22.1650   -3.7760   24.1690 C   0  0  0  0  0  3  0  0  0  0  0  0
  -22.3300   -4.4760   22.9610 C   0  0  0  0  0  0  0  0  0  0  0  0
  -22.9270   -3.8690   21.9090 F   0  0  0  0  0  0  0  0  0  0  0  0
  -21.3610   -3.7160   26.4180 F   0  0  0  0  0  0  0  0  0  0  0  0
  -23.0210  -13.0830   21.9760 C   0  0  0  0  0  0  0  0  0  0  0  0
  -22.6530  -12.2700   22.9590 N   0  0  0  0  0  0  0  0  0  0  0  0
  -22.4250  -14.1380   21.7630 O   0  0  0  0  0  0  0  0  0  0  0  0
  -23.1570  -11.4150   23.1430 H   0  0  0  0  0  0  0  0  0  0  0  0
  -21.8580  -12.5040   23.5390 H   0  0  0  0  0  0  0  0  0  0  0  0
  -25.2360  -14.9380   20.5630 N   0  0  0  0  0  0  0  0  0  0  0  0
  -24.5500  -15.5410   21.0050 H   0  0  0  0  0  0  0  0  0  0  0  0
  -25.8990  -15.4410   19.9890 H   0  0  0  0  0  0  0  0  0  0  0  0
  -29.5010  -23.1640   18.2780 C   0  0  0  0  0  1  0  0  0  0  0  0
  -28.8390  -22.3940   19.4540 C   0  0  2  0  0  0  0  0  0  0  0  0
  -29.9630  -22.1600   20.5020 C   0  0  0  0  0  2  0  0  0  0  0  0
  -32.0400  -20.8380   21.2040 C   0  0  0  0  0  1  0  0  0  0  0  0
  -31.1380  -21.2620   20.0410 C   0  0  0  0  0  2  0  0  0  0  0  0
  -27.7690  -23.5330   19.9960 C   0  0  0  0  0  2  0  0  0  0  0  0
  -28.1070  -25.0190   20.6550 C   0  0  0  0  0  2  0  0  0  0  0  0
  -28.1830  -26.4080   20.0470 O   0  0  0  0  0  0  0  0  0  0  0  0
  -24.5720  -31.9580   23.2070 C   0  0  0  0  0  0  0  0  0  0  0  0
  -27.0900  -27.3120   20.1160 C   0  0  0  0  0  0  0  0  0  0  0  0
  -23.3360  -30.5750   21.5800 C   0  0  0  0  0  3  0  0  0  0  0  0
  -24.7520  -28.9980   20.1380 C   0  0  0  0  0  0  0  0  0  0  0  0
  -25.8800  -30.8500   21.3670 C   0  0  0  0  0  2  0  0  0  0  0  0
  -25.9410  -29.4630   20.7190 C   0  0  0  0  0  0  0  0  0  0  0  0
  -27.1140  -28.6360   20.6920 C   0  0  0  0  0  3  0  0  0  0  0  0
  -25.8780  -26.9140   19.5210 C   0  0  0  0  0  3  0  0  0  0  0  0
  -24.7280  -27.7320   19.5290 C   0  0  0  0  0  3  0  0  0  0  0  0
  -23.5290  -29.8940   20.1990 C   0  0  0  0  0  2  0  0  0  0  0  0
  -24.6160  -31.1470   22.1070 N   0  0  0  0  0  0  0  0  0  0  0  0
  -23.4980  -32.2450   23.7550 O   0  0  0  0  0  0  0  0  0  0  0  0
  -22.6720  -29.5670   22.5490 C   0  0  0  0  0  0  0  0  0  0  0  0
  -21.3510  -29.3630   22.4050 N   0  0  0  0  0  0  0  0  0  0  0  0
  -23.3470  -28.9680   23.3900 O   0  0  0  0  0  0  0  0  0  0  0  0
  -20.8640  -29.8960   21.6970 H   0  0  0  0  0  0  0  0  0  0  0  0
  -17.9920  -28.0960   22.8680 C   0  0  0  0  0  0  0  0  0  0  0  0
  -20.5380  -28.4230   23.1780 C   0  0  0  0  0  3  0  0  0  0  0  0
  -20.6840  -26.9840   22.6330 C   0  0  0  0  0  2  0  0  0  0  0  0
  -19.6100  -26.6160   21.6060 C   0  0  0  0  0  2  0  0  0  0  0  0
  -18.2130  -26.7400   22.2200 C   0  0  0  0  0  2  0  0  0  0  0  0
  -19.0840  -28.8940   23.3030 C   0  0  0  0  0  0  0  0  0  0  0  0
  -18.8250  -30.1610   23.8680 C   0  0  0  0  0  3  0  0  0  0  0  0
  -17.5050  -30.6330   24.0020 C   0  0  0  0  0  3  0  0  0  0  0  0
  -16.4270  -29.8340   23.5830 C   0  0  0  0  0  3  0  0  0  0  0  0
  -16.6710  -28.5680   23.0230 C   0  0  0  0  0  3  0  0  0  0  0  0
  -25.8660  -32.5800   23.8150 C   0  0  0  0  0  3  0  0  0  0  0  0
  -25.5680  -33.9780   24.1660 N   0  0  0  0  0  0  0  0  0  0  0  0
  -25.8850  -35.0380   23.4110 C   0  0  0  0  0  0  0  0  0  0  0  0
  -26.5280  -34.9430   22.3620 O   0  0  0  0  0  0  0  0  0  0  0  0
  -24.9900  -34.1250   24.9800 H   0  0  0  0  0  0  0  0  0  0  0  0
  -24.1530  -36.8430   23.1220 C   0  0  0  0  0  1  0  0  0  0  0  0
  -25.4150  -36.4230   23.8960 C   0  0  0  0  0  3  0  0  0  0  0  0
  -27.5700  -37.2980   24.6840 C   0  0  0  0  0  1  0  0  0  0  0  0
  -26.4470  -37.4750   23.7670 N   0  0  0  0  0  0  0  0  0  0  0  0
  -26.0470  -38.3950   23.9290 H   0  0  0  0  0  0  0  0  0  0  0  0
  -26.3980  -31.7970   25.0780 C   0  0  1  0  0  0  0  0  0  0  0  0
  -25.3070  -31.5090   26.1370 C   0  0  0  0  0  1  0  0  0  0  0  0
  -27.0190  -30.4410   24.6640 C   0  0  0  0  0  1  0  0  0  0  0  0
  -27.5260  -32.6060   25.7630 C   0  0  0  0  0  1  0  0  0  0  0  0
  1  3  1  0
  1 52  1  0
  3  2  1  0
  3  4  1  6
  5 11  1  0
  5 16  1  0
  6 11  1  0
  7  8  1  0
  7  6  1  0
  9  8  1  0
  9 10  1  0
  9 26  1  0
 11 10  1  0
 12  5  2  0
 13 15  1  0
 13 16  1  0
 14 22  1  0
 15  3  1  0
 15 14  1  0
 16 14  1  0
 17 18  1  0
 19 17  2  0
 20 18  2  0
 21 19  1  0
 21 22  2  0
 22 20  1  0
 23 24  2  0
 24 43  1  0
 25 28  1  0
 25 24  1  0
 26 27  1  0
 26 23  1  0
 27 25  2  0
 28 29  1  0
 29 30  2  0
 31 34  1  0
 31 30  1  0
 32 31  2  0
 33 32  1  0
 33 28  2  0
 34 35  1  0
 35 40  2  0
 35 36  1  0
 36 37  2  0
 37 38  1  0
 38 42  1  0
 39 38  2  0
 40 39  1  0
 41 40  1  0
 43 44  1  0
 44 46  1  0
 44 47  1  0
 45 43  2  0
 48 23  1  0
 48 49  1  0
 50 48  1  0
 52 51  1  6
 52 56  1  0
 52 53  1  0
 55 53  1  0
 55 54  1  0
 56 57  1  0
 58 60  1  0
 58 57  1  0
 59 70  2  0
 60 65  1  0
 61 69  1  0
 61 71  1  0
 62 68  1  0
 62 64  1  0
 63 69  1  0
 64 63  1  0
 65 64  2  0
 66 67  1  0
 66 60  2  0
 67 62  2  0
 68 61  1  0
 69 59  1  0
 71 73  2  0
 72 71  1  0
 74 72  1  0
 75 84  2  0
 75 80  1  0
 76 72  1  0
 76 80  1  0
 77 76  1  0
 78 79  1  0
 78 77  1  0
 79 75  1  0
 80 81  2  0
 81 82  1  0
 83 82  2  0
 84 83  1  0
 85 59  1  0
 85 86  1  0
 85 95  1  0
 86 89  1  0
 87 91  1  0
 87 86  1  0
 88 87  2  0
 91 90  1  0
 93 91  1  0
 93 94  1  0
 93 92  1  0
 95 98  1  1
 95 96  1  0
 97 95  1  0
M  ISO  4   5 100  16 100  57 101  58 101
M  END
>  <TORSDO>  (60) 
F 23

>  <SCORE>  (60) 
-5.489

>  <name>  (60) 
59

>  <ligand_id>  (60) 
59

>  <original_smiles>  (60) 
[H]c1c([H])c([H])c(C2([H])N(C(=O)N3C([H])([H])C([H])([H])C([H])([H])C([H])(n4nc(-c5c([H])c([H])c(Oc6c([H])c([H])c(F)c([H])c6F)c([H])c5[H])c(C(=O)N([H])[H])c4N([H])[H])C3([H])[H])C([H])([H])C2([H])[N+]([H])(C([H])([H])[H])C([H])([H])C(C([H])([H])[H])(C([H])([H])C([H])([H])Oc2c([H])c([H])c3c(c2[H])C([H])([H])N(C(=O)C([H])(N([H])C(=O)C([H])(N([H])C([H])([H])[H])C([H])([H])[H])C(C([H])([H])[H])(C([H])([H])[H])C([H])([H])[H])C([H])(C(=O)N([H])C2([H])c4c([H])c([H])c([H])c([H])c4C([H])([H])C([H])([H])C2([H])[H])C3([H])[H])C([H])([H])C([H])([H])C([H])([H])[H])c([H])c1[H]

>  <smiles>  (60) 
[H]c1c([H])c([H])c(C2([H])N(C(=O)N3C([H])([H])C([H])([H])C([H])([H])C([H])(n4nc(-c5c([H])c([H])c(Oc6c([H])c([H])c(F)c([H])c6F)c([H])c5[H])c(C(=O)N([H])[H])c4N([H])[H])C3([H])[H])C([H])([H])C2([H])[N+]([H])(C([H])([H])[H])C([H])([H])C(C([H])([H])[H])(C([H])([H])C([H])([H])Oc2c([H])c([H])c3c(c2[H])C([H])([H])N(C(=O)C([H])(N([H])C(=O)C([H])(N([H])C([H])([H])[H])C([H])([H])[H])C(C([H])([H])[H])(C([H])([H])[H])C([H])([H])[H])C([H])(C(=O)N([H])C2([H])c4c([H])c([H])c([H])c([H])c4C([H])([H])C([H])([H])C2([H])[H])C3([H])[H])C([H])([H])C([H])([H])C([H])([H])[H])c([H])c1[H]

$$$$
60:0:0
     RDKit          3D

103111  0  0  1  0  0  0  0  0999 V2000
  -29.3960  -20.0150   19.7660 C   0  0  0  0  0  3  0  0  0  0  0  0
  -28.5680  -21.0620   20.5070 N   0  0  0  0  0  4  0  0  0  0  0  0
  -27.6370  -21.0770   20.1240 H   0  0  0  0  0  0  0  0  0  0  0  0
  -28.4620  -20.6660   21.4260 H   0  0  0  0  0  0  0  0  0  0  0  0
  -29.0810  -22.4940   20.7280 C   0  0  0  0  0  2  0  0  0  0  0  0
  -28.4060  -23.7780   20.0210 C   0  0  0  0  0  2  0  0  0  0  0  0
  -28.3190  -25.1420   20.8700 C   0  0  0  0  0  2  0  0  0  0  0  0
  -28.4150  -26.5000   20.2660 O   0  0  0  0  0  0  0  0  0  0  0  0
  -24.6170  -31.8870   23.2660 C   0  0  0  0  0  0  0  0  0  0  0  0
  -27.2890  -27.3300   20.2710 C   0  0  0  0  0  0  0  0  0  0  0  0
  -23.4450  -30.4740   21.6110 C   0  0  0  0  0  3  0  0  0  0  0  0
  -24.9180  -28.9180   20.2160 C   0  0  0  0  0  0  0  0  0  0  0  0
  -25.9820  -30.8080   21.4580 C   0  0  0  0  0  2  0  0  0  0  0  0
  -26.0740  -29.4230   20.8270 C   0  0  0  0  0  0  0  0  0  0  0  0
  -27.2660  -28.6430   20.8380 C   0  0  0  0  0  3  0  0  0  0  0  0
  -26.1130  -26.8640   19.6530 C   0  0  0  0  0  3  0  0  0  0  0  0
  -24.9370  -27.6420   19.6240 C   0  0  0  0  0  3  0  0  0  0  0  0
  -23.6780  -29.7900   20.2360 C   0  0  0  0  0  2  0  0  0  0  0  0
  -24.7000  -31.0770   22.1680 N   0  0  0  0  0  0  0  0  0  0  0  0
  -23.5260  -32.1530   23.7860 O   0  0  0  0  0  0  0  0  0  0  0  0
  -22.7700  -29.4620   22.5670 C   0  0  0  0  0  0  0  0  0  0  0  0
  -21.4440  -29.2910   22.4340 N   0  0  0  0  0  0  0  0  0  0  0  0
  -23.4450  -28.8290   23.3860 O   0  0  0  0  0  0  0  0  0  0  0  0
  -20.9560  -29.8480   21.7450 H   0  0  0  0  0  0  0  0  0  0  0  0
  -18.0640  -28.1100   22.9310 C   0  0  0  0  0  0  0  0  0  0  0  0
  -20.6230  -28.3500   23.1990 C   0  0  0  0  0  3  0  0  0  0  0  0
  -20.7200  -26.9250   22.6080 C   0  0  0  0  0  2  0  0  0  0  0  0
  -19.6140  -26.6170   21.5950 C   0  0  0  0  0  2  0  0  0  0  0  0
  -18.2310  -26.7680   22.2380 C   0  0  0  0  0  2  0  0  0  0  0  0
  -19.1860  -28.8590   23.3690 C   0  0  0  0  0  0  0  0  0  0  0  0
  -18.9770  -30.1150   23.9740 C   0  0  0  0  0  3  0  0  0  0  0  0
  -17.6770  -30.6250   24.1460 C   0  0  0  0  0  3  0  0  0  0  0  0
  -16.5660  -29.8720   23.7240 C   0  0  0  0  0  3  0  0  0  0  0  0
  -16.7600  -28.6180   23.1200 C   0  0  0  0  0  3  0  0  0  0  0  0
  -25.8860  -32.5280   23.9070 C   0  0  0  0  0  3  0  0  0  0  0  0
  -25.5740  -33.9300   24.2170 N   0  0  0  0  0  0  0  0  0  0  0  0
  -25.9080  -34.9740   23.4470 C   0  0  0  0  0  0  0  0  0  0  0  0
  -26.5840  -34.8580   22.4220 O   0  0  0  0  0  0  0  0  0  0  0  0
  -24.9870  -34.1000   25.0210 H   0  0  0  0  0  0  0  0  0  0  0  0
  -24.1810  -36.7550   23.0520 C   0  0  0  0  0  1  0  0  0  0  0  0
  -25.4140  -36.3670   23.8840 C   0  0  0  0  0  3  0  0  0  0  0  0
  -27.5350  -37.2660   24.7290 C   0  0  0  0  0  1  0  0  0  0  0  0
  -26.4470  -37.4180   23.7660 N   0  0  0  0  0  0  0  0  0  0  0  0
  -26.0400  -38.3420   23.8790 H   0  0  0  0  0  0  0  0  0  0  0  0
  -26.3680  -31.7760   25.2070 C   0  0  1  0  0  0  0  0  0  0  0  0
  -25.2440  -31.5610   26.2440 C   0  0  0  0  0  1  0  0  0  0  0  0
  -26.9550  -30.3900   24.8490 C   0  0  0  0  0  1  0  0  0  0  0  0
  -27.5040  -32.5750   25.8820 C   0  0  0  0  0  1  0  0  0  0  0  0
  -29.2460  -18.5130   20.4090 C   0  0  0  0  0  0  0  0  0  0  0  0
  -28.1840  -18.2360   20.9720 O   0  0  0  0  0  0  0  0  0  0  0  0
  -30.6580  -14.7650   20.3340 C   0  0  0  0  0  0  0  0  0  0  0  0
  -30.4010  -12.5050   19.3340 C   0  0  0  0  0  2  0  0  0  0  0  0
  -29.4600  -12.4960   18.1160 C   0  0  0  0  0  2  0  0  0  0  0  0
  -27.9900  -12.3450   18.5590 C   0  0  0  0  0  2  0  0  0  0  0  0
  -27.6050  -13.2780   19.7410 C   0  0  0  0  0  3  0  0  0  0  0  0
  -28.6670  -13.2730   20.8540 C   0  0  0  0  0  2  0  0  0  0  0  0
  -29.9410  -13.6030   20.2090 N   0  0  0  0  0  0  0  0  0  0  0  0
  -31.8780  -14.6730   20.4280 O   0  0  0  0  0  0  0  0  0  0  0  0
  -31.7890  -17.8370   19.8180 C   0  0  0  0  0  2  0  0  0  0  0  0
  -30.7150  -16.1640   18.4490 C   0  0  0  0  0  2  0  0  0  0  0  0
  -30.4170  -17.3620   20.3770 C   0  0  0  0  0  3  0  0  0  0  0  0
  -32.0700  -16.8850   18.6640 C   0  0  0  0  0  3  0  0  0  0  0  0
  -30.1300  -15.9530   19.8010 N   0  0  0  0  0  0  0  0  0  0  0  0
  -25.2320  -13.8600   20.5030 C   0  0  0  0  0  0  0  0  0  0  0  0
  -24.1680  -13.0850   20.8660 C   0  0  0  0  0  0  0  0  0  0  0  0
  -24.6330  -11.7330   20.8330 C   0  0  0  0  0  0  0  0  0  0  0  0
  -26.2740  -12.9830   20.2530 N   0  0  0  0  0  0  0  0  0  0  0  0
  -25.9260  -11.7010   20.5270 N   0  0  0  0  0  0  0  0  0  0  0  0
  -23.9100  -10.4680   21.0170 C   0  0  0  0  0  0  0  0  0  0  0  0
  -24.3310   -9.5090   21.9640 C   0  0  0  0  0  3  0  0  0  0  0  0
  -23.6090   -8.3080   22.1350 C   0  0  0  0  0  3  0  0  0  0  0  0
  -22.4480   -8.0610   21.3660 C   0  0  0  0  0  0  0  0  0  0  0  0
  -22.0470   -9.0070   20.4070 C   0  0  0  0  0  3  0  0  0  0  0  0
  -22.7690  -10.1990   20.2330 C   0  0  0  0  0  3  0  0  0  0  0  0
  -21.6940   -6.9170   21.4490 O   0  0  0  0  0  0  0  0  0  0  0  0
  -21.6080   -6.1960   22.6110 C   0  0  0  0  0  0  0  0  0  0  0  0
  -21.1140   -6.7600   23.8080 C   0  0  0  0  0  3  0  0  0  0  0  0
  -20.9820   -5.9590   24.9610 C   0  0  0  0  0  3  0  0  0  0  0  0
  -21.3290   -4.5960   24.9160 C   0  0  0  0  0  0  0  0  0  0  0  0
  -21.8150   -4.0320   23.7230 C   0  0  0  0  0  3  0  0  0  0  0  0
  -21.9520   -4.8290   22.5730 C   0  0  0  0  0  0  0  0  0  0  0  0
  -22.4010   -4.2740   21.4220 F   0  0  0  0  0  0  0  0  0  0  0  0
  -21.1930   -3.8260   26.0210 F   0  0  0  0  0  0  0  0  0  0  0  0
  -22.7700  -13.5550   21.1320 C   0  0  0  0  0  0  0  0  0  0  0  0
  -22.0390  -12.8500   21.9870 N   0  0  0  0  0  0  0  0  0  0  0  0
  -22.3340  -14.5860   20.6170 O   0  0  0  0  0  0  0  0  0  0  0  0
  -22.4050  -12.0170   22.4270 H   0  0  0  0  0  0  0  0  0  0  0  0
  -21.1000  -13.1460   22.2070 H   0  0  0  0  0  0  0  0  0  0  0  0
  -25.4050  -15.2330   20.3360 N   0  0  0  0  0  0  0  0  0  0  0  0
  -24.6580  -15.9010   20.4700 H   0  0  0  0  0  0  0  0  0  0  0  0
  -26.2830  -15.6650   20.0780 H   0  0  0  0  0  0  0  0  0  0  0  0
  -32.7060  -17.4550   17.4660 N   0  0  0  0  0  4  0  0  0  0  0  0
  -32.1460  -18.1590   17.0300 H   0  0  0  0  0  0  0  0  0  0  0  0
  -32.8970  -16.7250   16.8000 H   0  0  0  0  0  0  0  0  0  0  0  0
  -33.5980  -17.8520   17.7160 H   0  0  0  0  0  0  0  0  0  0  0  0
  -28.8960  -20.0260   18.2890 C   0  0  0  0  0  2  0  0  0  0  0  0
  -29.9760  -19.8650   17.2070 C   0  0  0  0  0  2  0  0  0  0  0  0
  -29.4000  -19.4870   15.8260 C   0  0  0  0  0  2  0  0  0  0  0  0
  -30.4970  -19.3540   14.7430 C   0  0  0  0  0  2  0  0  0  0  0  0
  -30.0240  -18.6530   13.5360 N   0  0  0  0  0  4  0  0  0  0  0  0
  -29.7700  -17.7010   13.7330 H   0  0  0  0  0  0  0  0  0  0  0  0
  -30.7610  -18.6390   12.8530 H   0  0  0  0  0  0  0  0  0  0  0  0
  -29.2370  -19.1220   13.1280 H   0  0  0  0  0  0  0  0  0  0  0  0
  1 96  1  0
  1 49  1  0
  1  2  1  0
  2  5  1  0
  2  4  1  0
  3  2  1  0
  6  5  1  0
  6  7  1  0
  8 10  1  0
  8  7  1  0
  9 20  2  0
 10 15  1  0
 11 19  1  0
 11 21  1  0
 12 18  1  0
 12 14  1  0
 13 19  1  0
 14 15  2  0
 14 13  1  0
 16 10  2  0
 17 16  1  0
 17 12  2  0
 18 11  1  0
 19  9  1  0
 21 23  2  0
 22 21  1  0
 24 22  1  0
 25 34  2  0
 25 30  1  0
 26 22  1  0
 26 30  1  0
 27 26  1  0
 28 29  1  0
 28 27  1  0
 29 25  1  0
 30 31  2  0
 31 32  1  0
 33 32  2  0
 34 33  1  0
 35  9  1  0
 35 36  1  0
 35 45  1  0
 36 39  1  0
 37 41  1  0
 37 36  1  0
 38 37  2  0
 41 40  1  0
 43 44  1  0
 43 41  1  0
 43 42  1  0
 45 48  1  1
 45 46  1  0
 47 45  1  0
 49 50  2  0
 51 58  2  0
 52 57  1  0
 53 54  1  0
 53 52  1  0
 55 54  1  0
 55 67  1  0
 55 56  1  0
 57 51  1  0
 57 56  1  0
 59 61  1  0
 60 62  1  0
 60 63  1  0
 61 49  1  0
 62 92  1  0
 62 59  1  0
 63 51  1  0
 63 61  1  0
 64 65  2  0
 65 84  1  0
 66 65  1  0
 66 69  1  0
 67 64  1  0
 67 68  1  0
 68 66  2  0
 69 70  1  0
 70 71  2  0
 72 75  1  0
 72 71  1  0
 73 72  2  0
 74 73  1  0
 74 69  2  0
 75 76  1  0
 76 77  1  0
 77 78  2  0
 79 78  1  0
 79 83  1  0
 80 79  2  0
 81 76  2  0
 81 80  1  0
 82 81  1  0
 84 85  1  0
 85 88  1  0
 85 87  1  0
 86 84  2  0
 89 90  1  0
 89 64  1  0
 91 89  1  0
 92 95  1  0
 93 92  1  0
 94 92  1  0
 97 96  1  0
 98 97  1  0
 99 98  1  0
100101  1  0
100 99  1  0
102100  1  0
103100  1  0
M  ISO  4   7 101   8 101  51 100  63 100
M  END
>  <TORSDO>  (61) 
F 27

>  <SCORE>  (61) 
-12.076

>  <name>  (61) 
60

>  <ligand_id>  (61) 
60

>  <original_smiles>  (61) 
[H]c1c([H])c([H])c2c(c1[H])C([H])([H])C([H])([H])C([H])([H])C2([H])N([H])C(=O)C1([H])N(C(=O)C([H])(N([H])C(=O)C([H])(N([H])C([H])([H])[H])C([H])([H])[H])C(C([H])([H])[H])(C([H])([H])[H])C([H])([H])[H])C([H])([H])c2c([H])c(OC([H])([H])C([H])([H])C([H])([H])[N+]([H])([H])C([H])(C(=O)C3([H])N(C(=O)N4C([H])([H])C([H])([H])C([H])([H])C([H])(n5nc(-c6c([H])c([H])c(Oc7c([H])c([H])c(F)c([H])c7F)c([H])c6[H])c(C(=O)N([H])[H])c5N([H])[H])C4([H])[H])C([H])([H])C([H])([N+]([H])([H])[H])C3([H])[H])C([H])([H])C([H])([H])C([H])([H])C([H])([H])[N+]([H])([H])[H])c([H])c([H])c2C1([H])[H]

>  <smiles>  (61) 
[H]c1c([H])c([H])c2c(c1[H])C([H])([H])C([H])([H])C([H])([H])C2([H])N([H])C(=O)C1([H])N(C(=O)C([H])(N([H])C(=O)C([H])(N([H])C([H])([H])[H])C([H])([H])[H])C(C([H])([H])[H])(C([H])([H])[H])C([H])([H])[H])C([H])([H])c2c([H])c(OC([H])([H])C([H])([H])C([H])([H])[N+]([H])([H])C([H])(C(=O)C3([H])N(C(=O)N4C([H])([H])C([H])([H])C([H])([H])C([H])(n5nc(-c6c([H])c([H])c(Oc7c([H])c([H])c(F)c([H])c7F)c([H])c6[H])c(C(=O)N([H])[H])c5N([H])[H])C4([H])[H])C([H])([H])C([H])([N+]([H])([H])[H])C3([H])[H])C([H])([H])C([H])([H])C([H])([H])C([H])([H])[N+]([H])([H])[H])c([H])c([H])c2C1([H])[H]

$$$$
61:0:0
     RDKit          3D

 94102  0  0  1  0  0  0  0  0999 V2000
  -29.5330  -19.9030   20.4540 C   0  0  0  0  0  3  0  0  0  0  0  0
  -29.3680  -19.8500   21.9200 N   0  0  0  0  0  4  0  0  0  0  0  0
  -28.4170  -19.6120   22.1500 H   0  0  0  0  0  0  0  0  0  0  0  0
  -29.5760  -20.7420   22.3280 H   0  0  0  0  0  0  0  0  0  0  0  0
  -29.9760  -19.1630   22.3300 H   0  0  0  0  0  0  0  0  0  0  0  0
  -29.2610  -18.3990   19.8920 C   0  0  0  0  0  0  0  0  0  0  0  0
  -28.1520  -18.1260   19.4260 O   0  0  0  0  0  0  0  0  0  0  0  0
  -30.6030  -14.7770   19.3290 C   0  0  0  0  0  0  0  0  0  0  0  0
  -30.1060  -12.6580   18.0860 C   0  0  0  0  0  2  0  0  0  0  0  0
  -28.9450  -12.8800   17.0940 C   0  0  0  0  0  2  0  0  0  0  0  0
  -27.5840  -12.6750   17.7890 C   0  0  0  0  0  2  0  0  0  0  0  0
  -27.4920  -13.4400   19.1330 C   0  0  0  0  0  3  0  0  0  0  0  0
  -28.7380  -13.1910   20.0010 C   0  0  0  0  0  2  0  0  0  0  0  0
  -29.9150  -13.5910   19.2220 N   0  0  0  0  0  0  0  0  0  0  0  0
  -31.5980  -14.9730   18.6220 O   0  0  0  0  0  0  0  0  0  0  0  0
  -31.1300  -17.1300   21.3090 C   0  0  0  0  0  2  0  0  0  0  0  0
  -30.4130  -17.3010   19.9740 C   0  0  0  0  0  3  0  0  0  0  0  0
  -30.2570  -15.9100   21.5910 C   0  0  1  0  0  0  0  0  0  0  0  0
  -30.9740  -14.7190   22.2540 C   0  0  0  0  0  1  0  0  0  0  0  0
  -28.9170  -16.1220   22.3220 C   0  0  0  0  0  1  0  0  0  0  0  0
  -30.0680  -15.8060   20.1050 N   0  0  0  0  0  0  0  0  0  0  0  0
  -25.3280  -13.9860   20.4010 C   0  0  0  0  0  0  0  0  0  0  0  0
  -24.3330  -13.1890   20.9030 C   0  0  0  0  0  0  0  0  0  0  0  0
  -24.7310  -11.8460   20.6330 C   0  0  0  0  0  0  0  0  0  0  0  0
  -26.2640  -13.1240   19.8560 N   0  0  0  0  0  0  0  0  0  0  0  0
  -25.9280  -11.8240   20.0600 N   0  0  0  0  0  0  0  0  0  0  0  0
  -24.0180  -10.5780   20.8380 C   0  0  0  0  0  0  0  0  0  0  0  0
  -24.5570   -9.5510   21.6440 C   0  0  0  0  0  3  0  0  0  0  0  0
  -23.8440   -8.3480   21.8390 C   0  0  0  0  0  3  0  0  0  0  0  0
  -22.5790   -8.1640   21.2310 C   0  0  0  0  0  0  0  0  0  0  0  0
  -22.0570   -9.1810   20.4120 C   0  0  0  0  0  3  0  0  0  0  0  0
  -22.7690  -10.3760   20.2130 C   0  0  0  0  0  3  0  0  0  0  0  0
  -21.8260   -7.0210   21.3470 O   0  0  0  0  0  0  0  0  0  0  0  0
  -21.8490   -6.2550   22.4850 C   0  0  0  0  0  0  0  0  0  0  0  0
  -21.5450   -6.7960   23.7530 C   0  0  0  0  0  3  0  0  0  0  0  0
  -21.5060   -5.9580   24.8860 C   0  0  0  0  0  3  0  0  0  0  0  0
  -21.7680   -4.5820   24.7530 C   0  0  0  0  0  0  0  0  0  0  0  0
  -22.0690   -4.0400   23.4910 C   0  0  0  0  0  3  0  0  0  0  0  0
  -22.1060   -4.8740   22.3590 C   0  0  0  0  0  0  0  0  0  0  0  0
  -22.3730   -4.3440   21.1420 F   0  0  0  0  0  0  0  0  0  0  0  0
  -21.7250   -3.7740   25.8390 F   0  0  0  0  0  0  0  0  0  0  0  0
  -23.0390  -13.6490   21.5110 C   0  0  0  0  0  0  0  0  0  0  0  0
  -22.5000  -12.8880   22.4570 N   0  0  0  0  0  0  0  0  0  0  0  0
  -22.5240  -14.7170   21.1840 O   0  0  0  0  0  0  0  0  0  0  0  0
  -22.9320  -12.0200   22.7390 H   0  0  0  0  0  0  0  0  0  0  0  0
  -21.6430  -13.1790   22.9070 H   0  0  0  0  0  0  0  0  0  0  0  0
  -25.5000  -15.3670   20.3400 N   0  0  0  0  0  0  0  0  0  0  0  0
  -24.8040  -16.0140   20.6940 H   0  0  0  0  0  0  0  0  0  0  0  0
  -26.2820  -15.8350   19.8990 H   0  0  0  0  0  0  0  0  0  0  0  0
  -28.6440  -21.1440   19.9210 C   0  0  0  0  0  2  0  0  0  0  0  0
  -29.2540  -22.6380   19.9730 C   0  0  0  0  0  2  0  0  0  0  0  0
  -28.3610  -23.9360   20.3240 C   0  0  0  0  0  2  0  0  0  0  0  0
  -28.7830  -25.3530   19.6920 C   0  0  0  0  0  2  0  0  0  0  0  0
  -28.5320  -26.6590   20.3500 O   0  0  0  0  0  0  0  0  0  0  0  0
  -24.4620  -31.8760   23.2020 C   0  0  0  0  0  0  0  0  0  0  0  0
  -27.3440  -27.3980   20.2510 C   0  0  0  0  0  0  0  0  0  0  0  0
  -23.3450  -30.3690   21.5920 C   0  0  0  0  0  3  0  0  0  0  0  0
  -24.8860  -28.8610   20.2070 C   0  0  0  0  0  0  0  0  0  0  0  0
  -25.8600  -30.8240   21.4070 C   0  0  0  0  0  2  0  0  0  0  0  0
  -26.0180  -29.4340   20.7940 C   0  0  0  0  0  0  0  0  0  0  0  0
  -27.2460  -28.7090   20.8110 C   0  0  0  0  0  3  0  0  0  0  0  0
  -26.1890  -26.8690   19.6400 C   0  0  0  0  0  3  0  0  0  0  0  0
  -24.9720  -27.5850   19.6220 C   0  0  0  0  0  3  0  0  0  0  0  0
  -23.6000  -29.6650   20.2300 C   0  0  0  0  0  2  0  0  0  0  0  0
  -24.5730  -31.0460   22.1230 N   0  0  0  0  0  0  0  0  0  0  0  0
  -23.3620  -32.1050   23.7270 O   0  0  0  0  0  0  0  0  0  0  0  0
  -22.7360  -29.3450   22.5780 C   0  0  0  0  0  0  0  0  0  0  0  0
  -21.4260  -29.0730   22.4360 N   0  0  0  0  0  0  0  0  0  0  0  0
  -23.4400  -28.7950   23.4290 O   0  0  0  0  0  0  0  0  0  0  0  0
  -20.9150  -29.5720   21.7220 H   0  0  0  0  0  0  0  0  0  0  0  0
  -18.1350  -27.6530   22.9080 C   0  0  0  0  0  0  0  0  0  0  0  0
  -20.6590  -28.1070   23.2230 C   0  0  0  0  0  3  0  0  0  0  0  0
  -20.8790  -26.6670   22.7040 C   0  0  0  0  0  2  0  0  0  0  0  0
  -19.8280  -26.2300   21.6790 C   0  0  0  0  0  2  0  0  0  0  0  0
  -18.4250  -26.2960   22.2880 C   0  0  0  0  0  2  0  0  0  0  0  0
  -19.1850  -28.5090   23.3320 C   0  0  0  0  0  0  0  0  0  0  0  0
  -18.8630  -29.7720   23.8730 C   0  0  0  0  0  3  0  0  0  0  0  0
  -17.5240  -30.1830   23.9920 C   0  0  0  0  0  3  0  0  0  0  0  0
  -16.4860  -29.3260   23.5840 C   0  0  0  0  0  3  0  0  0  0  0  0
  -16.7930  -28.0630   23.0460 C   0  0  0  0  0  3  0  0  0  0  0  0
  -25.7070  -32.5910   23.8150 C   0  0  0  0  0  3  0  0  0  0  0  0
  -26.2650  -31.8760   25.1070 C   0  0  1  0  0  0  0  0  0  0  0  0
  -25.1810  -31.5830   26.1710 C   0  0  0  0  0  1  0  0  0  0  0  0
  -26.9440  -30.5360   24.7430 C   0  0  0  0  0  1  0  0  0  0  0  0
  -27.3540  -32.7550   25.7640 C   0  0  0  0  0  1  0  0  0  0  0  0
  -25.3180  -33.9780   24.1170 N   0  0  0  0  0  0  0  0  0  0  0  0
  -25.5730  -35.0310   23.3300 C   0  0  0  0  0  0  0  0  0  0  0  0
  -26.2330  -34.9440   22.2910 O   0  0  0  0  0  0  0  0  0  0  0  0
  -24.7280  -34.1150   24.9250 H   0  0  0  0  0  0  0  0  0  0  0  0
  -23.7280  -36.7030   22.9690 C   0  0  0  0  0  1  0  0  0  0  0  0
  -25.0080  -36.3980   23.7630 C   0  0  0  0  0  3  0  0  0  0  0  0
  -27.1000  -37.4340   24.5220 C   0  0  0  0  0  1  0  0  0  0  0  0
  -25.9690  -37.5110   23.6000 N   0  0  0  0  0  0  0  0  0  0  0  0
  -25.5110  -38.4070   23.7340 H   0  0  0  0  0  0  0  0  0  0  0  0
  1 50  1  0
  1  2  1  0
  2  3  1  0
  2  4  1  0
  2  5  1  0
  6  1  1  0
  7  6  2  0
  8 21  1  0
  9 14  1  0
 10 11  1  0
 10  9  1  0
 12 11  1  0
 12 25  1  0
 12 13  1  0
 14  8  1  0
 14 13  1  0
 15  8  2  0
 16 18  1  0
 17  6  1  0
 17 21  1  0
 17 16  1  0
 18 19  1  1
 18 20  1  0
 21 18  1  0
 22 23  2  0
 23 42  1  0
 24 27  1  0
 24 23  1  0
 25 26  1  0
 25 22  1  0
 26 24  2  0
 27 28  1  0
 28 29  2  0
 30 33  1  0
 30 29  1  0
 31 30  2  0
 32 31  1  0
 32 27  2  0
 33 34  1  0
 34 35  1  0
 35 36  2  0
 37 36  1  0
 37 41  1  0
 38 37  2  0
 39 34  2  0
 39 38  1  0
 40 39  1  0
 42 43  1  0
 43 45  1  0
 43 46  1  0
 44 42  2  0
 47 22  1  0
 47 48  1  0
 49 47  1  0
 50 51  1  0
 51 52  1  0
 53 52  1  0
 53 54  1  0
 55 66  2  0
 56 54  1  0
 56 61  1  0
 57 65  1  0
 57 67  1  0
 58 64  1  0
 58 60  1  0
 59 65  1  0
 60 61  2  0
 60 59  1  0
 62 56  2  0
 63 62  1  0
 63 58  2  0
 64 57  1  0
 65 55  1  0
 67 69  2  0
 68 67  1  0
 70 68  1  0
 71 80  2  0
 71 76  1  0
 72 68  1  0
 72 76  1  0
 73 72  1  0
 74 75  1  0
 74 73  1  0
 75 71  1  0
 76 77  2  0
 77 78  1  0
 79 78  2  0
 80 79  1  0
 81 55  1  0
 81 86  1  0
 81 82  1  0
 82 85  1  1
 82 83  1  0
 84 82  1  0
 86 89  1  0
 87 91  1  0
 87 86  1  0
 88 87  2  0
 91 90  1  0
 93 94  1  0
 93 91  1  0
 93 92  1  0
M  ISO  4   8 100  21 100  53 101  54 101
M  END
>  <TORSDO>  (62) 
F 22

>  <SCORE>  (62) 
-8.026

>  <name>  (62) 
61

>  <ligand_id>  (62) 
61

>  <original_smiles>  (62) 
[H]c1c([H])c([H])c2c(c1[H])C([H])([H])C([H])([H])C([H])([H])C2([H])N([H])C(=O)C1([H])N(C(=O)C([H])(N([H])C(=O)C([H])(N([H])C([H])([H])[H])C([H])([H])[H])C(C([H])([H])[H])(C([H])([H])[H])C([H])([H])[H])C([H])([H])c2c([H])c(OC([H])([H])C([H])([H])C([H])([H])C([H])([H])C([H])(C(=O)C3([H])N(C(=O)N4C([H])([H])C([H])([H])C([H])([H])C([H])(n5nc(-c6c([H])c([H])c(Oc7c([H])c([H])c(F)c([H])c7F)c([H])c6[H])c(C(=O)N([H])[H])c5N([H])[H])C4([H])[H])C(C([H])([H])[H])(C([H])([H])[H])C3([H])[H])[N+]([H])([H])[H])c([H])c([H])c2C1([H])[H]

>  <smiles>  (62) 
[H]c1c([H])c([H])c2c(c1[H])C([H])([H])C([H])([H])C([H])([H])C2([H])N([H])C(=O)C1([H])N(C(=O)C([H])(N([H])C(=O)C([H])(N([H])C([H])([H])[H])C([H])([H])[H])C(C([H])([H])[H])(C([H])([H])[H])C([H])([H])[H])C([H])([H])c2c([H])c(OC([H])([H])C([H])([H])C([H])([H])C([H])([H])C([H])(C(=O)C3([H])N(C(=O)N4C([H])([H])C([H])([H])C([H])([H])C([H])(n5nc(-c6c([H])c([H])c(Oc7c([H])c([H])c(F)c([H])c7F)c([H])c6[H])c(C(=O)N([H])[H])c5N([H])[H])C4([H])[H])C(C([H])([H])[H])(C([H])([H])[H])C3([H])[H])[N+]([H])([H])[H])c([H])c([H])c2C1([H])[H]

$$$$
62:0:0
     RDKit          3D

 95103  0  0  1  0  0  0  0  0999 V2000
  -29.6420  -22.7990   22.8080 C   0  0  0  0  0  0  0  0  0  0  0  0
  -30.0340  -21.3410   23.0300 C   0  0  0  0  0  2  0  0  0  0  0  0
  -29.3000  -22.4370   21.3430 C   0  0  0  0  0  3  0  0  0  0  0  0
  -30.1700  -21.2700   21.5650 N   0  0  2  0  0  4  0  0  0  0  0  0
  -29.6080  -23.8050   23.5250 O   0  0  0  0  0  0  0  0  0  0  0  0
  -31.1000  -21.5500   21.2920 H   0  0  0  0  0  0  0  0  0  0  0  0
  -29.8530  -23.3620   20.2430 C   0  0  0  0  0  0  0  0  0  0  0  0
  -30.3620  -22.9110   19.1670 N   0  0  0  0  0  0  0  0  0  0  0  0
  -30.3490  -21.9050   19.0680 H   0  0  0  0  0  0  0  0  0  0  0  0
  -29.7260  -24.8710   20.4160 C   0  0  0  0  0  2  0  0  0  0  0  0
  -28.3540  -25.4060   19.9900 C   0  0  0  0  0  2  0  0  0  0  0  0
  -28.3990  -26.8210   20.1270 O   0  0  0  0  0  0  0  0  0  0  0  0
  -24.5760  -31.9070   23.2230 C   0  0  0  0  0  0  0  0  0  0  0  0
  -27.2040  -27.4980   20.1170 C   0  0  0  0  0  0  0  0  0  0  0  0
  -23.3610  -30.5070   21.5880 C   0  0  0  0  0  3  0  0  0  0  0  0
  -24.8060  -28.9880   20.1420 C   0  0  0  0  0  0  0  0  0  0  0  0
  -25.8830  -30.8800   21.3720 C   0  0  0  0  0  2  0  0  0  0  0  0
  -25.9670  -29.5150   20.7250 C   0  0  0  0  0  0  0  0  0  0  0  0
  -27.1680  -28.7770   20.7090 C   0  0  0  0  0  3  0  0  0  0  0  0
  -26.0270  -26.9720   19.5380 C   0  0  0  0  0  3  0  0  0  0  0  0
  -24.8330  -27.7150   19.5480 C   0  0  0  0  0  3  0  0  0  0  0  0
  -23.5620  -29.8440   20.2020 C   0  0  0  0  0  2  0  0  0  0  0  0
  -24.6250  -31.1130   22.1170 N   0  0  0  0  0  0  0  0  0  0  0  0
  -23.4980  -32.1730   23.7730 O   0  0  0  0  0  0  0  0  0  0  0  0
  -22.7280  -29.4730   22.5470 C   0  0  0  0  0  0  0  0  0  0  0  0
  -21.4050  -29.2860   22.4260 N   0  0  0  0  0  0  0  0  0  0  0  0
  -23.4200  -28.8440   23.3500 O   0  0  0  0  0  0  0  0  0  0  0  0
  -20.9100  -29.8450   21.7460 H   0  0  0  0  0  0  0  0  0  0  0  0
  -18.0360  -28.0850   22.9230 C   0  0  0  0  0  0  0  0  0  0  0  0
  -20.5920  -28.3460   23.1960 C   0  0  0  0  0  3  0  0  0  0  0  0
  -20.7000  -26.9160   22.6170 C   0  0  0  0  0  2  0  0  0  0  0  0
  -19.5990  -26.5970   21.6000 C   0  0  0  0  0  2  0  0  0  0  0  0
  -18.2160  -26.7360   22.2440 C   0  0  0  0  0  2  0  0  0  0  0  0
  -19.1530  -28.8480   23.3520 C   0  0  0  0  0  0  0  0  0  0  0  0
  -18.9330  -30.1110   23.9410 C   0  0  0  0  0  3  0  0  0  0  0  0
  -17.6280  -30.6130   24.1060 C   0  0  0  0  0  3  0  0  0  0  0  0
  -16.5250  -29.8450   23.6950 C   0  0  0  0  0  3  0  0  0  0  0  0
  -16.7290  -28.5840   23.1070 C   0  0  0  0  0  3  0  0  0  0  0  0
  -25.8670  -32.5370   23.8340 C   0  0  0  0  0  3  0  0  0  0  0  0
  -25.5600  -33.9340   24.1680 N   0  0  0  0  0  0  0  0  0  0  0  0
  -25.8950  -34.9890   23.4120 C   0  0  0  0  0  0  0  0  0  0  0  0
  -26.5670  -34.8870   22.3810 O   0  0  0  0  0  0  0  0  0  0  0  0
  -24.9520  -34.0840   24.9590 H   0  0  0  0  0  0  0  0  0  0  0  0
  -24.1640  -36.7770   23.0520 C   0  0  0  0  0  1  0  0  0  0  0  0
  -25.4020  -36.3740   23.8690 C   0  0  0  0  0  3  0  0  0  0  0  0
  -27.5320  -37.2530   24.7130 C   0  0  0  0  0  1  0  0  0  0  0  0
  -26.4340  -37.4290   23.7660 N   0  0  0  0  0  0  0  0  0  0  0  0
  -26.0290  -38.3480   23.9200 H   0  0  0  0  0  0  0  0  0  0  0  0
  -26.3960  -31.7630   25.1030 C   0  0  1  0  0  0  0  0  0  0  0  0
  -25.3110  -31.5170   26.1760 C   0  0  0  0  0  1  0  0  0  0  0  0
  -26.9840  -30.3920   24.6960 C   0  0  0  0  0  1  0  0  0  0  0  0
  -27.5490  -32.5600   25.7610 C   0  0  0  0  0  1  0  0  0  0  0  0
  -29.7730  -19.9910   20.9310 C   0  0  0  0  0  2  0  0  0  0  0  0
  -32.0930  -19.3360   20.0110 C   0  0  0  0  0  1  0  0  0  0  0  0
  -30.9280  -18.9650   20.9580 C   0  0  0  0  0  3  0  0  0  0  0  0
  -30.4160  -17.5440   20.6560 C   0  0  0  0  0  2  0  0  0  0  0  0
  -30.8590  -16.5460   21.7410 C   0  0  0  0  0  2  0  0  0  0  0  0
  -30.8150  -14.3930   20.5420 C   0  0  0  0  0  0  0  0  0  0  0  0
  -30.4330  -12.3310   19.2610 C   0  0  0  0  0  2  0  0  0  0  0  0
  -29.4960  -12.5860   18.0650 C   0  0  0  0  0  2  0  0  0  0  0  0
  -28.0200  -12.4650   18.4910 C   0  0  0  0  0  2  0  0  0  0  0  0
  -27.6940  -13.2840   19.7660 C   0  0  0  0  0  3  0  0  0  0  0  0
  -28.7350  -13.0040   20.8730 C   0  0  0  0  0  2  0  0  0  0  0  0
  -30.0830  -13.2720   20.3320 N   0  0  0  0  0  0  0  0  0  0  0  0
  -31.8490  -14.6630   19.9210 O   0  0  0  0  0  0  0  0  0  0  0  0
  -30.3300  -15.2200   21.4690 N   0  0  0  0  0  0  0  0  0  0  0  0
  -29.5020  -14.9270   21.9690 H   0  0  0  0  0  0  0  0  0  0  0  0
  -25.2850  -13.9150   20.4300 C   0  0  0  0  0  0  0  0  0  0  0  0
  -24.2090  -13.1510   20.8000 C   0  0  0  0  0  0  0  0  0  0  0  0
  -24.6670  -11.7980   20.7960 C   0  0  0  0  0  0  0  0  0  0  0  0
  -26.3310  -13.0270   20.2300 N   0  0  0  0  0  0  0  0  0  0  0  0
  -25.9600  -11.7490   20.5030 N   0  0  0  0  0  0  0  0  0  0  0  0
  -23.9350  -10.5410   20.9960 C   0  0  0  0  0  0  0  0  0  0  0  0
  -24.3620   -9.5820   21.9410 C   0  0  0  0  0  3  0  0  0  0  0  0
  -23.6310   -8.3900   22.1290 C   0  0  0  0  0  3  0  0  0  0  0  0
  -22.4590   -8.1480   21.3730 C   0  0  0  0  0  0  0  0  0  0  0  0
  -22.0510   -9.0950   20.4190 C   0  0  0  0  0  3  0  0  0  0  0  0
  -22.7830  -10.2800   20.2280 C   0  0  0  0  0  3  0  0  0  0  0  0
  -21.7010   -7.0050   21.4690 O   0  0  0  0  0  0  0  0  0  0  0  0
  -21.6530   -6.2670   22.6250 C   0  0  0  0  0  0  0  0  0  0  0  0
  -21.2450   -6.8320   23.8540 C   0  0  0  0  0  3  0  0  0  0  0  0
  -21.1460   -6.0200   25.0020 C   0  0  0  0  0  3  0  0  0  0  0  0
  -21.4430   -4.6460   24.9230 C   0  0  0  0  0  0  0  0  0  0  0  0
  -21.8460   -4.0830   23.6990 C   0  0  0  0  0  3  0  0  0  0  0  0
  -21.9480   -4.8900   22.5520 C   0  0  0  0  0  0  0  0  0  0  0  0
  -22.3130   -4.3380   21.3710 F   0  0  0  0  0  0  0  0  0  0  0  0
  -21.3400   -3.8660   26.0230 F   0  0  0  0  0  0  0  0  0  0  0  0
  -22.8110  -13.6380   21.0480 C   0  0  0  0  0  0  0  0  0  0  0  0
  -22.0680  -12.9540   21.9130 N   0  0  0  0  0  0  0  0  0  0  0  0
  -22.3810  -14.6550   20.5090 O   0  0  0  0  0  0  0  0  0  0  0  0
  -22.4250  -12.1280   22.3700 H   0  0  0  0  0  0  0  0  0  0  0  0
  -21.1270  -13.2590   22.1170 H   0  0  0  0  0  0  0  0  0  0  0  0
  -25.4550  -15.2810   20.2340 N   0  0  0  0  0  0  0  0  0  0  0  0
  -24.6880  -15.9380   20.3150 H   0  0  0  0  0  0  0  0  0  0  0  0
  -26.3110  -15.7130   19.9050 H   0  0  0  0  0  0  0  0  0  0  0  0
  1  2  1  0
  1  5  2  0
  3  7  1  0
  3  4  1  0
  3  1  1  0
  4  2  1  0
  4  6  1  1
  7 10  1  0
  8  7  2  0
  9  8  1  0
 11 12  1  0
 11 10  1  0
 13 24  2  0
 14 12  1  0
 14 19  1  0
 15 23  1  0
 15 25  1  0
 16 22  1  0
 16 18  1  0
 17 23  1  0
 18 17  1  0
 19 18  2  0
 20 21  1  0
 20 14  2  0
 21 16  2  0
 22 15  1  0
 23 13  1  0
 25 27  2  0
 26 25  1  0
 28 26  1  0
 29 38  2  0
 29 34  1  0
 30 26  1  0
 30 34  1  0
 31 30  1  0
 32 33  1  0
 32 31  1  0
 33 29  1  0
 34 35  2  0
 35 36  1  0
 37 36  2  0
 38 37  1  0
 39 13  1  0
 39 40  1  0
 39 49  1  0
 40 43  1  0
 41 45  1  0
 41 40  1  0
 42 41  2  0
 45 44  1  0
 47 45  1  0
 47 48  1  0
 47 46  1  0
 49 52  1  1
 49 50  1  0
 51 49  1  0
 53 55  1  0
 53  4  1  0
 55 54  1  0
 56 55  1  0
 56 57  1  0
 58 66  1  0
 59 64  1  0
 60 61  1  0
 60 59  1  0
 62 61  1  0
 62 71  1  0
 62 63  1  0
 64 58  1  0
 64 63  1  0
 65 58  2  0
 66 57  1  0
 66 67  1  0
 68 69  2  0
 69 88  1  0
 70 69  1  0
 70 73  1  0
 71 68  1  0
 71 72  1  0
 72 70  2  0
 73 74  1  0
 74 75  2  0
 76 79  1  0
 76 75  1  0
 77 76  2  0
 78 77  1  0
 78 73  2  0
 79 80  1  0
 80 81  1  0
 81 82  2  0
 83 82  1  0
 83 87  1  0
 84 83  2  0
 85 80  2  0
 85 84  1  0
 86 85  1  0
 88 89  1  0
 89 92  1  0
 89 91  1  0
 90 88  2  0
 93 94  1  0
 93 68  1  0
 95 93  1  0
M  ISO  4  11 101  12 101  58 100  66 100
M  END
>  <TORSDO>  (63) 
F 23

>  <SCORE>  (63) 
-13.056

>  <name>  (63) 
62

>  <ligand_id>  (63) 
62

>  <original_smiles>  (63) 
[H]N=C(C([H])([H])C([H])([H])Oc1c([H])c([H])c2c(c1[H])C([H])([H])N(C(=O)C([H])(N([H])C(=O)C([H])(N([H])C([H])([H])[H])C([H])([H])[H])C(C([H])([H])[H])(C([H])([H])[H])C([H])([H])[H])C([H])(C(=O)N([H])C1([H])c3c([H])c([H])c([H])c([H])c3C([H])([H])C([H])([H])C1([H])[H])C2([H])[H])C1([H])C(=O)C([H])([H])[N+]1([H])C([H])([H])C([H])(C([H])([H])[H])C([H])([H])C([H])([H])N([H])C(=O)N1C([H])([H])C([H])([H])C([H])([H])C([H])(n2nc(-c3c([H])c([H])c(Oc4c([H])c([H])c(F)c([H])c4F)c([H])c3[H])c(C(=O)N([H])[H])c2N([H])[H])C1([H])[H]

>  <smiles>  (63) 
[H]N=C(C([H])([H])C([H])([H])Oc1c([H])c([H])c2c(c1[H])C([H])([H])N(C(=O)C([H])(N([H])C(=O)C([H])(N([H])C([H])([H])[H])C([H])([H])[H])C(C([H])([H])[H])(C([H])([H])[H])C([H])([H])[H])C([H])(C(=O)N([H])C1([H])c3c([H])c([H])c([H])c([H])c3C([H])([H])C([H])([H])C1([H])[H])C2([H])[H])C1([H])C(=O)C([H])([H])[N+]1([H])C([H])([H])C([H])(C([H])([H])[H])C([H])([H])C([H])([H])N([H])C(=O)N1C([H])([H])C([H])([H])C([H])([H])C([H])(n2nc(-c3c([H])c([H])c(Oc4c([H])c([H])c(F)c([H])c4F)c([H])c3[H])c(C(=O)N([H])[H])c2N([H])[H])C1([H])[H]

$$$$
63:0:0
     RDKit          3D

102111  0  0  1  0  0  0  0  0999 V2000
  -31.3200  -18.3870   21.6390 C   0  0  0  0  0  3  0  0  0  0  0  0
  -30.3520  -18.6330   20.7500 C   0  0  0  0  0  0  0  0  0  0  0  0
  -31.0630  -21.6940   19.4060 C   0  0  0  0  0  2  0  0  0  0  0  0
  -31.7940  -21.7070   20.7500 C   0  0  0  0  0  2  0  0  0  0  0  0
  -31.8690  -19.6210   22.2850 C   0  0  0  0  0  3  0  0  0  0  0  0
  -29.6740  -21.1680   19.7780 C   0  0  0  0  0  3  0  0  0  0  0  0
  -30.9950  -20.7230   21.6400 C   0  0  0  0  0  3  0  0  0  0  0  0
  -30.0260  -20.0550   20.7510 N   0  0  0  0  0  0  0  0  0  0  0  0
  -31.7710  -19.5800   23.7540 N   0  0  0  0  0  4  0  0  0  0  0  0
  -30.8140  -19.4920   24.0450 H   0  0  0  0  0  0  0  0  0  0  0  0
  -32.1570  -20.4160   24.1540 H   0  0  0  0  0  0  0  0  0  0  0  0
  -32.2910  -18.8020   24.1150 H   0  0  0  0  0  0  0  0  0  0  0  0
  -28.7000  -22.4030   20.2590 C   0  0  0  0  0  0  0  0  0  0  0  0
  -27.5590  -22.1240   20.6370 O   0  0  0  0  0  0  0  0  0  0  0  0
  -29.0910  -23.9690   20.3060 C   0  0  0  0  0  2  0  0  0  0  0  0
  -28.2630  -25.0550   18.1430 C   0  0  0  0  0  1  0  0  0  0  0  0
  -28.1150  -25.1020   19.6770 C   0  0  0  0  0  3  0  0  0  0  0  0
  -28.2400  -26.5550   20.0750 O   0  0  0  0  0  0  0  0  0  0  0  0
  -24.5290  -31.9460   23.2550 C   0  0  0  0  0  0  0  0  0  0  0  0
  -27.1180  -27.4280   20.0550 C   0  0  0  0  0  0  0  0  0  0  0  0
  -23.3130  -30.5830   21.6000 C   0  0  0  0  0  3  0  0  0  0  0  0
  -24.7510  -29.0720   20.1190 C   0  0  0  0  0  0  0  0  0  0  0  0
  -25.8550  -30.9040   21.3950 C   0  0  0  0  0  2  0  0  0  0  0  0
  -25.9310  -29.5390   20.7080 C   0  0  0  0  0  0  0  0  0  0  0  0
  -27.1170  -28.7340   20.6600 C   0  0  0  0  0  3  0  0  0  0  0  0
  -25.8990  -27.0270   19.4590 C   0  0  0  0  0  3  0  0  0  0  0  0
  -24.7390  -27.8240   19.4860 C   0  0  0  0  0  3  0  0  0  0  0  0
  -23.5140  -29.9450   20.2020 C   0  0  0  0  0  2  0  0  0  0  0  0
  -24.5850  -31.1600   22.1400 N   0  0  0  0  0  0  0  0  0  0  0  0
  -23.4500  -32.2070   23.8080 O   0  0  0  0  0  0  0  0  0  0  0  0
  -22.6620  -29.5420   22.5440 C   0  0  0  0  0  0  0  0  0  0  0  0
  -21.3390  -29.3430   22.4140 N   0  0  0  0  0  0  0  0  0  0  0  0
  -23.3500  -28.9120   23.3530 O   0  0  0  0  0  0  0  0  0  0  0  0
  -20.8380  -29.9040   21.7390 H   0  0  0  0  0  0  0  0  0  0  0  0
  -17.9850  -28.0670   22.8920 C   0  0  0  0  0  0  0  0  0  0  0  0
  -20.5370  -28.3800   23.1730 C   0  0  0  0  0  3  0  0  0  0  0  0
  -20.6710  -26.9550   22.5870 C   0  0  0  0  0  2  0  0  0  0  0  0
  -19.5810  -26.6170   21.5640 C   0  0  0  0  0  2  0  0  0  0  0  0
  -18.1940  -26.7280   22.2030 C   0  0  0  0  0  2  0  0  0  0  0  0
  -19.0850  -28.8480   23.3340 C   0  0  0  0  0  0  0  0  0  0  0  0
  -18.8360  -30.0990   23.9380 C   0  0  0  0  0  3  0  0  0  0  0  0
  -17.5190  -30.5700   24.1010 C   0  0  0  0  0  3  0  0  0  0  0  0
  -16.4340  -29.7870   23.6750 C   0  0  0  0  0  3  0  0  0  0  0  0
  -16.6670  -28.5340   23.0770 C   0  0  0  0  0  3  0  0  0  0  0  0
  -25.8140  -32.5740   23.8750 C   0  0  0  0  0  3  0  0  0  0  0  0
  -26.3140  -31.8160   25.1650 C   0  0  1  0  0  0  0  0  0  0  0  0
  -25.2120  -31.6050   26.2300 C   0  0  0  0  0  1  0  0  0  0  0  0
  -26.8820  -30.4260   24.7970 C   0  0  0  0  0  1  0  0  0  0  0  0
  -27.4680  -32.6080   25.8240 C   0  0  0  0  0  1  0  0  0  0  0  0
  -25.5160  -33.9800   24.1880 N   0  0  0  0  0  0  0  0  0  0  0  0
  -25.8680  -35.0210   23.4230 C   0  0  0  0  0  0  0  0  0  0  0  0
  -26.5450  -34.9000   22.3990 O   0  0  0  0  0  0  0  0  0  0  0  0
  -24.9170  -34.1500   24.9820 H   0  0  0  0  0  0  0  0  0  0  0  0
  -24.1830  -36.8450   23.0190 C   0  0  0  0  0  1  0  0  0  0  0  0
  -25.3970  -36.4220   23.8630 C   0  0  0  0  0  3  0  0  0  0  0  0
  -27.5210  -37.2800   24.7490 C   0  0  0  0  0  1  0  0  0  0  0  0
  -26.4520  -37.4560   23.7700 N   0  0  0  0  0  0  0  0  0  0  0  0
  -26.0590  -38.3850   23.8930 H   0  0  0  0  0  0  0  0  0  0  0  0
  -29.7070  -17.4340   19.9420 C   0  0  0  0  0  3  0  0  0  0  0  0
  -30.5620  -14.9120   20.2810 C   0  0  0  0  0  0  0  0  0  0  0  0
  -30.3780  -12.6250   19.2940 C   0  0  0  0  0  2  0  0  0  0  0  0
  -29.4320  -12.7070   18.0750 C   0  0  0  0  0  2  0  0  0  0  0  0
  -27.9640  -12.5250   18.5060 C   0  0  0  0  0  2  0  0  0  0  0  0
  -27.5950  -13.4000   19.7350 C   0  0  0  0  0  3  0  0  0  0  0  0
  -28.6640  -13.3130   20.8510 C   0  0  0  0  0  2  0  0  0  0  0  0
  -29.9600  -13.6720   20.2570 N   0  0  0  0  0  0  0  0  0  0  0  0
  -31.7130  -15.0510   19.8630 O   0  0  0  0  0  0  0  0  0  0  0  0
  -29.7630  -16.0130   20.5410 N   0  0  0  0  0  0  0  0  0  0  0  0
  -28.8980  -15.7510   20.9900 H   0  0  0  0  0  0  0  0  0  0  0  0
  -25.2070  -13.9630   20.4850 C   0  0  0  0  0  0  0  0  0  0  0  0
  -24.1520  -13.1760   20.8590 C   0  0  0  0  0  0  0  0  0  0  0  0
  -24.6270  -11.8300   20.8140 C   0  0  0  0  0  0  0  0  0  0  0  0
  -26.2560  -13.0960   20.2330 N   0  0  0  0  0  0  0  0  0  0  0  0
  -25.9150  -11.8060   20.4930 N   0  0  0  0  0  0  0  0  0  0  0  0
  -23.9130  -10.5590   20.9990 C   0  0  0  0  0  0  0  0  0  0  0  0
  -24.3510   -9.5960   21.9340 C   0  0  0  0  0  3  0  0  0  0  0  0
  -23.6340   -8.3920   22.1100 C   0  0  0  0  0  3  0  0  0  0  0  0
  -22.4670   -8.1420   21.3490 C   0  0  0  0  0  0  0  0  0  0  0  0
  -22.0500   -9.0940   20.4020 C   0  0  0  0  0  3  0  0  0  0  0  0
  -22.7670  -10.2890   20.2250 C   0  0  0  0  0  3  0  0  0  0  0  0
  -21.7250   -6.9890   21.4330 O   0  0  0  0  0  0  0  0  0  0  0  0
  -21.6620   -6.2550   22.5900 C   0  0  0  0  0  0  0  0  0  0  0  0
  -21.1710   -6.8040   23.7960 C   0  0  0  0  0  3  0  0  0  0  0  0
  -21.0580   -5.9950   24.9430 C   0  0  0  0  0  3  0  0  0  0  0  0
  -21.4260   -4.6370   24.8880 C   0  0  0  0  0  0  0  0  0  0  0  0
  -21.9090   -4.0870   23.6870 C   0  0  0  0  0  3  0  0  0  0  0  0
  -22.0220   -4.8930   22.5420 C   0  0  0  0  0  0  0  0  0  0  0  0
  -22.4680   -4.3540   21.3820 F   0  0  0  0  0  0  0  0  0  0  0  0
  -21.3110   -3.8570   25.9880 F   0  0  0  0  0  0  0  0  0  0  0  0
  -22.7540  -13.6380   21.1490 C   0  0  0  0  0  0  0  0  0  0  0  0
  -22.0390  -12.9260   22.0140 N   0  0  0  0  0  0  0  0  0  0  0  0
  -22.3010  -14.6630   20.6410 O   0  0  0  0  0  0  0  0  0  0  0  0
  -22.4190  -12.0970   22.4490 H   0  0  0  0  0  0  0  0  0  0  0  0
  -21.0990  -13.2120   22.2460 H   0  0  0  0  0  0  0  0  0  0  0  0
  -25.3560  -15.3360   20.3140 N   0  0  0  0  0  0  0  0  0  0  0  0
  -24.5850  -15.9830   20.4390 H   0  0  0  0  0  0  0  0  0  0  0  0
  -26.1940  -15.7860   19.9660 H   0  0  0  0  0  0  0  0  0  0  0  0
  -30.1810  -17.3790   18.4640 C   0  0  0  0  0  2  0  0  0  0  0  0
  -29.8700  -18.5820   17.6800 N   0  0  0  0  0  4  0  0  0  0  0  0
  -28.8750  -18.7210   17.6310 H   0  0  0  0  0  0  0  0  0  0  0  0
  -30.2130  -18.4710   16.7410 H   0  0  0  0  0  0  0  0  0  0  0  0
  -30.3070  -19.3890   18.0840 H   0  0  0  0  0  0  0  0  0  0  0  0
  1  5  1  0
  2  8  1  0
  2  1  2  0
  3  6  1  0
  3  4  1  0
  5  9  1  0
  6 13  1  0
  6  8  1  0
  7  4  1  0
  7  5  1  0
  8  7  1  0
  9 10  1  0
  9 12  1  0
  9 11  1  0
 13 15  1  0
 13 14  2  0
 17 16  1  0
 17 18  1  0
 17 15  1  0
 19 30  2  0
 20 18  1  0
 20 25  1  0
 21 29  1  0
 21 31  1  0
 22 28  1  0
 22 24  1  0
 23 29  1  0
 24 23  1  0
 25 24  2  0
 26 27  1  0
 26 20  2  0
 27 22  2  0
 28 21  1  0
 29 19  1  0
 31 33  2  0
 32 31  1  0
 34 32  1  0
 35 44  2  0
 35 40  1  0
 36 32  1  0
 36 40  1  0
 37 36  1  0
 38 39  1  0
 38 37  1  0
 39 35  1  0
 40 41  2  0
 41 42  1  0
 43 42  2  0
 44 43  1  0
 45 19  1  0
 45 50  1  0
 45 46  1  0
 46 49  1  1
 46 47  1  0
 48 46  1  0
 50 53  1  0
 51 55  1  0
 51 50  1  0
 52 51  2  0
 55 54  1  0
 57 55  1  0
 57 58  1  0
 57 56  1  0
 59 98  1  0
 59 68  1  0
 59  2  1  0
 60 68  1  0
 61 66  1  0
 62 63  1  0
 62 61  1  0
 64 63  1  0
 64 73  1  0
 64 65  1  0
 66 60  1  0
 66 65  1  0
 67 60  2  0
 68 69  1  0
 70 71  2  0
 71 90  1  0
 72 71  1  0
 72 75  1  0
 73 70  1  0
 73 74  1  0
 74 72  2  0
 75 76  1  0
 76 77  2  0
 78 81  1  0
 78 77  1  0
 79 78  2  0
 80 79  1  0
 80 75  2  0
 81 82  1  0
 82 83  1  0
 83 84  2  0
 85 84  1  0
 85 89  1  0
 86 85  2  0
 87 82  2  0
 87 86  1  0
 88 87  1  0
 90 91  1  0
 91 94  1  0
 91 93  1  0
 92 90  2  0
 95 96  1  0
 95 70  1  0
 97 95  1  0
 99102  1  0
 99 98  1  0
100 99  1  0
101 99  1  0
M  ISO  4  17 101  18 101  60 100  68 100
M  END
>  <TORSDO>  (64) 
F 23

>  <SCORE>  (64) 
-13.428

>  <name>  (64) 
63

>  <ligand_id>  (64) 
63

>  <original_smiles>  (64) 
[H]C1=C(C([H])(N([H])C(=O)N2C([H])([H])C([H])([H])C([H])([H])C([H])(n3nc(-c4c([H])c([H])c(Oc5c([H])c([H])c(F)c([H])c5F)c([H])c4[H])c(C(=O)N([H])[H])c3N([H])[H])C2([H])[H])C([H])([H])[N+]([H])([H])[H])N2C([H])(C(=O)C([H])([H])C([H])(Oc3c([H])c([H])c4c(c3[H])C([H])([H])N(C(=O)C([H])(N([H])C(=O)C([H])(N([H])C([H])([H])[H])C([H])([H])[H])C(C([H])([H])[H])(C([H])([H])[H])C([H])([H])[H])C([H])(C(=O)N([H])C3([H])c5c([H])c([H])c([H])c([H])c5C([H])([H])C([H])([H])C3([H])[H])C4([H])[H])C([H])([H])[H])C([H])([H])C([H])([H])C2([H])C1([H])[N+]([H])([H])[H]

>  <smiles>  (64) 
[H]C1=C(C([H])(N([H])C(=O)N2C([H])([H])C([H])([H])C([H])([H])C([H])(n3nc(-c4c([H])c([H])c(Oc5c([H])c([H])c(F)c([H])c5F)c([H])c4[H])c(C(=O)N([H])[H])c3N([H])[H])C2([H])[H])C([H])([H])[N+]([H])([H])[H])N2C([H])(C(=O)C([H])([H])C([H])(Oc3c([H])c([H])c4c(c3[H])C([H])([H])N(C(=O)C([H])(N([H])C(=O)C([H])(N([H])C([H])([H])[H])C([H])([H])[H])C(C([H])([H])[H])(C([H])([H])[H])C([H])([H])[H])C([H])(C(=O)N([H])C3([H])c5c([H])c([H])c([H])c([H])c5C([H])([H])C([H])([H])C3([H])[H])C4([H])[H])C([H])([H])[H])C([H])([H])C([H])([H])C2([H])C1([H])[N+]([H])([H])[H]

$$$$
64:0:0
     RDKit          3D

 97105  0  0  1  0  0  0  0  0999 V2000
  -29.5140  -21.7000   22.4230 C   0  0  0  0  0  0  0  0  0  0  0  0
  -30.5940  -20.6140   22.4100 C   0  0  0  0  0  2  0  0  0  0  0  0
  -29.3680  -21.5910   20.8990 C   0  0  0  0  0  3  0  0  0  0  0  0
  -30.2830  -20.3650   20.9910 N   0  0  2  0  0  4  0  0  0  0  0  0
  -28.9230  -22.3210   23.3110 O   0  0  0  0  0  0  0  0  0  0  0  0
  -31.1090  -20.5240   20.4340 H   0  0  0  0  0  0  0  0  0  0  0  0
  -29.9190  -22.8040   20.0150 C   0  0  0  0  0  2  0  0  0  0  0  0
  -30.4340  -24.7910   21.6600 C   0  0  0  0  0  1  0  0  0  0  0  0
  -30.7580  -25.0080   19.2100 C   0  0  0  0  0  1  0  0  0  0  0  0
  -29.8310  -24.4070   20.2950 C   0  0  1  0  0  0  0  0  0  0  0  0
  -28.4520  -25.1970   20.1180 C   0  0  0  0  0  2  0  0  0  0  0  0
  -28.5500  -26.6780   20.1850 O   0  0  0  0  0  0  0  0  0  0  0  0
  -24.6640  -31.9350   23.2060 C   0  0  0  0  0  0  0  0  0  0  0  0
  -27.3930  -27.4690   20.1300 C   0  0  0  0  0  0  0  0  0  0  0  0
  -23.5000  -30.5260   21.5460 C   0  0  0  0  0  3  0  0  0  0  0  0
  -24.9890  -29.0240   20.1100 C   0  0  0  0  0  0  0  0  0  0  0  0
  -26.0300  -30.9080   21.3750 C   0  0  0  0  0  2  0  0  0  0  0  0
  -26.1440  -29.5380   20.7150 C   0  0  0  0  0  0  0  0  0  0  0  0
  -27.3480  -28.7750   20.7080 C   0  0  0  0  0  3  0  0  0  0  0  0
  -26.2130  -27.0000   19.5100 C   0  0  0  0  0  3  0  0  0  0  0  0
  -25.0280  -27.7630   19.4930 C   0  0  0  0  0  3  0  0  0  0  0  0
  -23.7340  -29.8710   20.1590 C   0  0  0  0  0  2  0  0  0  0  0  0
  -24.7500  -31.1380   22.1010 N   0  0  0  0  0  0  0  0  0  0  0  0
  -23.5720  -32.1840   23.7370 O   0  0  0  0  0  0  0  0  0  0  0  0
  -22.8520  -29.4860   22.4930 C   0  0  0  0  0  0  0  0  0  0  0  0
  -21.5270  -29.3030   22.3720 N   0  0  0  0  0  0  0  0  0  0  0  0
  -23.5410  -28.8490   23.2940 O   0  0  0  0  0  0  0  0  0  0  0  0
  -21.0300  -29.8670   21.6960 H   0  0  0  0  0  0  0  0  0  0  0  0
  -18.1550  -28.1000   22.8900 C   0  0  0  0  0  0  0  0  0  0  0  0
  -20.7180  -28.3470   23.1300 C   0  0  0  0  0  3  0  0  0  0  0  0
  -20.8100  -26.9320   22.5130 C   0  0  0  0  0  2  0  0  0  0  0  0
  -19.6930  -26.6380   21.5080 C   0  0  0  0  0  2  0  0  0  0  0  0
  -18.3200  -26.7680   22.1750 C   0  0  0  0  0  2  0  0  0  0  0  0
  -19.2810  -28.8480   23.3230 C   0  0  0  0  0  0  0  0  0  0  0  0
  -19.0720  -30.0960   23.9500 C   0  0  0  0  0  3  0  0  0  0  0  0
  -17.7710  -30.5930   24.1490 C   0  0  0  0  0  3  0  0  0  0  0  0
  -16.6590  -29.8400   23.7340 C   0  0  0  0  0  3  0  0  0  0  0  0
  -16.8530  -28.5960   23.1080 C   0  0  0  0  0  3  0  0  0  0  0  0
  -25.9300  -32.5870   23.8430 C   0  0  0  0  0  3  0  0  0  0  0  0
  -26.4370  -31.8280   25.1300 C   0  0  1  0  0  0  0  0  0  0  0  0
  -25.3290  -31.5790   26.1820 C   0  0  0  0  0  1  0  0  0  0  0  0
  -27.0430  -30.4580   24.7500 C   0  0  0  0  0  1  0  0  0  0  0  0
  -27.5680  -32.6380   25.8060 C   0  0  0  0  0  1  0  0  0  0  0  0
  -25.5980  -33.9820   24.1640 N   0  0  0  0  0  0  0  0  0  0  0  0
  -25.9260  -35.0370   23.4070 C   0  0  0  0  0  0  0  0  0  0  0  0
  -26.6110  -34.9390   22.3840 O   0  0  0  0  0  0  0  0  0  0  0  0
  -24.9910  -34.1310   24.9570 H   0  0  0  0  0  0  0  0  0  0  0  0
  -24.1910  -36.8140   23.0140 C   0  0  0  0  0  1  0  0  0  0  0  0
  -25.4170  -36.4210   23.8550 C   0  0  0  0  0  3  0  0  0  0  0  0
  -27.5160  -37.3310   24.7430 C   0  0  0  0  0  1  0  0  0  0  0  0
  -26.4420  -37.4840   23.7650 N   0  0  0  0  0  0  0  0  0  0  0  0
  -26.0250  -38.4010   23.8940 H   0  0  0  0  0  0  0  0  0  0  0  0
  -29.7330  -18.9720   20.7040 C   0  0  0  0  0  3  0  0  0  0  0  0
  -30.6590  -17.6830   21.0080 C   0  0  0  0  0  3  0  0  0  0  0  0
  -30.1980  -16.2680   20.3940 C   0  0  0  0  0  3  0  0  0  0  0  0
  -31.0330  -14.9350   20.7000 C   0  0  0  0  0  0  0  0  0  0  0  0
  -30.9030  -12.5690   19.9640 C   0  0  0  0  0  2  0  0  0  0  0  0
  -30.0730  -12.5210   18.6590 C   0  0  0  0  0  2  0  0  0  0  0  0
  -28.5570  -12.4540   18.9490 C   0  0  0  0  0  2  0  0  0  0  0  0
  -28.0930  -13.4340   20.0590 C   0  0  0  0  0  3  0  0  0  0  0  0
  -29.0630  -13.4370   21.2630 C   0  0  0  0  0  2  0  0  0  0  0  0
  -30.4180  -13.7070   20.7680 N   0  0  0  0  0  0  0  0  0  0  0  0
  -32.2510  -15.0070   20.5240 O   0  0  0  0  0  0  0  0  0  0  0  0
  -25.6700  -14.0990   20.5900 C   0  0  0  0  0  0  0  0  0  0  0  0
  -24.5610  -13.3580   20.8880 C   0  0  0  0  0  0  0  0  0  0  0  0
  -24.9910  -11.9960   20.9190 C   0  0  0  0  0  0  0  0  0  0  0  0
  -26.7090  -13.1900   20.4560 N   0  0  0  0  0  0  0  0  0  0  0  0
  -26.3010  -11.9220   20.7190 N   0  0  0  0  0  0  0  0  0  0  0  0
  -24.2220  -10.7550   21.0720 C   0  0  0  0  0  0  0  0  0  0  0  0
  -24.5610   -9.7920   22.0490 C   0  0  0  0  0  3  0  0  0  0  0  0
  -23.7960   -8.6160   22.1920 C   0  0  0  0  0  3  0  0  0  0  0  0
  -22.6730   -8.3930   21.3580 C   0  0  0  0  0  0  0  0  0  0  0  0
  -22.3530   -9.3440   20.3730 C   0  0  0  0  0  3  0  0  0  0  0  0
  -23.1200  -10.5120   20.2260 C   0  0  0  0  0  3  0  0  0  0  0  0
  -21.8860   -7.2680   21.4090 O   0  0  0  0  0  0  0  0  0  0  0  0
  -21.7220   -6.5570   22.5710 C   0  0  0  0  0  0  0  0  0  0  0  0
  -21.1810   -7.1450   23.7340 C   0  0  0  0  0  3  0  0  0  0  0  0
  -20.9630   -6.3610   24.8830 C   0  0  0  0  0  3  0  0  0  0  0  0
  -21.2780   -4.9900   24.8710 C   0  0  0  0  0  0  0  0  0  0  0  0
  -21.8140   -4.4000   23.7140 C   0  0  0  0  0  3  0  0  0  0  0  0
  -22.0330   -5.1820   22.5640 C   0  0  0  0  0  0  0  0  0  0  0  0
  -22.5290   -4.6050   21.4430 F   0  0  0  0  0  0  0  0  0  0  0  0
  -21.0620   -4.2340   25.9740 F   0  0  0  0  0  0  0  0  0  0  0  0
  -23.1580  -13.8720   21.0390 C   0  0  0  0  0  0  0  0  0  0  0  0
  -22.3560  -13.2240   21.8750 N   0  0  0  0  0  0  0  0  0  0  0  0
  -22.7820  -14.8850   20.4520 O   0  0  0  0  0  0  0  0  0  0  0  0
  -22.6740  -12.4020   22.3680 H   0  0  0  0  0  0  0  0  0  0  0  0
  -21.4120  -13.5530   22.0240 H   0  0  0  0  0  0  0  0  0  0  0  0
  -25.8790  -15.4620   20.3950 N   0  0  0  0  0  0  0  0  0  0  0  0
  -25.1230  -16.1360   20.4360 H   0  0  0  0  0  0  0  0  0  0  0  0
  -26.7580  -15.8750   20.1150 H   0  0  0  0  0  0  0  0  0  0  0  0
  -30.0480  -16.4210   18.8420 C   0  0  0  0  0  2  0  0  0  0  0  0
  -31.2360  -17.0250   18.0400 C   0  0  0  0  0  2  0  0  0  0  0  0
  -32.3470  -16.0760   17.8230 N   0  0  0  0  0  4  0  0  0  0  0  0
  -33.1070  -16.5370   17.3500 H   0  0  0  0  0  0  0  0  0  0  0  0
  -32.0530  -15.3140   17.2390 H   0  0  0  0  0  0  0  0  0  0  0  0
  -32.6840  -15.7140   18.7040 H   0  0  0  0  0  0  0  0  0  0  0  0
  1  5  2  0
  2  1  1  0
  3  7  1  0
  3  4  1  0
  3  1  1  0
  4  2  1  0
  4  6  1  6
  7 10  1  0
 10  9  1  6
 10  8  1  0
 11 12  1  0
 11 10  1  0
 13 24  2  0
 14 12  1  0
 14 19  1  0
 15 23  1  0
 15 25  1  0
 16 22  1  0
 16 18  1  0
 17 23  1  0
 18 17  1  0
 19 18  2  0
 20 14  2  0
 21 20  1  0
 21 16  2  0
 22 15  1  0
 23 13  1  0
 25 27  2  0
 26 25  1  0
 28 26  1  0
 29 38  2  0
 29 34  1  0
 30 26  1  0
 30 34  1  0
 31 30  1  0
 32 33  1  0
 32 31  1  0
 33 29  1  0
 34 35  2  0
 35 36  1  0
 37 36  2  0
 38 37  1  0
 39 13  1  0
 39 44  1  0
 39 40  1  0
 40 43  1  1
 40 41  1  0
 42 40  1  0
 44 47  1  0
 45 49  1  0
 45 44  1  0
 46 45  2  0
 49 48  1  0
 51 49  1  0
 51 52  1  0
 51 50  1  0
 53  4  1  0
 53 54  2  0
 55 92  1  0
 55 56  1  0
 55 54  1  0
 56 62  1  0
 57 62  1  0
 58 59  1  0
 58 57  1  0
 60 59  1  0
 60 67  1  0
 60 61  1  0
 62 61  1  0
 63 56  2  0
 64 65  2  0
 65 66  1  0
 65 84  1  0
 66 69  1  0
 67 64  1  0
 67 68  1  0
 68 66  2  0
 69 70  1  0
 70 71  2  0
 72 75  1  0
 72 71  1  0
 73 72  2  0
 74 73  1  0
 74 69  2  0
 75 76  1  0
 76 77  1  0
 77 78  2  0
 79 78  1  0
 79 83  1  0
 80 79  2  0
 81 76  2  0
 81 80  1  0
 82 81  1  0
 84 85  1  0
 85 88  1  0
 85 87  1  0
 86 84  2  0
 89 90  1  0
 89 64  1  0
 91 89  1  0
 93 92  1  0
 94 93  1  0
 94 97  1  0
 95 94  1  0
 96 94  1  0
M  ISO  4  11 101  12 101  55 100  56 100
M  END
>  <TORSDO>  (65) 
F 25

>  <SCORE>  (65) 
-11.802

>  <name>  (65) 
64

>  <ligand_id>  (65) 
64

>  <original_smiles>  (65) 
[H]c1c([H])c([H])c2c(c1[H])C([H])([H])C([H])([H])C([H])([H])C2([H])N([H])C(=O)C1([H])N(C(=O)C([H])(N([H])C(=O)C([H])(N([H])C([H])([H])[H])C([H])([H])[H])C(C([H])([H])[H])(C([H])([H])[H])C([H])([H])[H])C([H])([H])c2c([H])c(OC([H])([H])C(C([H])([H])[H])(C([H])([H])[H])C([H])([H])C3([H])C(=O)C([H])([H])[N+]3([H])C([H])([H])C([H])([H])C([H])(C(=O)N3C([H])([H])C([H])([H])C([H])([H])C([H])(n4nc(-c5c([H])c([H])c(Oc6c([H])c([H])c(F)c([H])c6F)c([H])c5[H])c(C(=O)N([H])[H])c4N([H])[H])C3([H])[H])C([H])([H])C([H])([H])[N+]([H])([H])[H])c([H])c([H])c2C1([H])[H]

>  <smiles>  (65) 
[H]c1c([H])c([H])c2c(c1[H])C([H])([H])C([H])([H])C([H])([H])C2([H])N([H])C(=O)C1([H])N(C(=O)C([H])(N([H])C(=O)C([H])(N([H])C([H])([H])[H])C([H])([H])[H])C(C([H])([H])[H])(C([H])([H])[H])C([H])([H])[H])C([H])([H])c2c([H])c(OC([H])([H])C(C([H])([H])[H])(C([H])([H])[H])C([H])([H])C3([H])C(=O)C([H])([H])[N+]3([H])C([H])([H])C([H])([H])C([H])(C(=O)N3C([H])([H])C([H])([H])C([H])([H])C([H])(n4nc(-c5c([H])c([H])c(Oc6c([H])c([H])c(F)c([H])c6F)c([H])c5[H])c(C(=O)N([H])[H])c4N([H])[H])C3([H])[H])C([H])([H])C([H])([H])[N+]([H])([H])[H])c([H])c([H])c2C1([H])[H]

$$$$
65:0:0
     RDKit          3D

 93101  0  0  1  0  0  0  0  0999 V2000
  -29.4850  -23.2010   20.2680 C   0  0  0  0  0  0  0  0  0  0  0  0
  -30.6470  -23.6230   19.9930 N   0  0  0  0  0  0  0  0  0  0  0  0
  -30.6970  -24.6340   20.0330 H   0  0  0  0  0  0  0  0  0  0  0  0
  -28.0890  -21.0650   20.7310 C   0  0  0  0  0  3  0  0  0  0  0  0
  -28.1790  -19.6480   20.5570 C   0  0  0  0  0  3  0  0  0  0  0  0
  -29.2060  -21.7470   20.3010 C   0  0  0  0  0  0  0  0  0  0  0  0
  -29.3520  -19.2280   19.9830 C   0  0  0  0  0  0  0  0  0  0  0  0
  -30.4100  -20.5960   19.7160 S   0  0  0  0  0  0  0  0  0  0  0  0
  -29.7000  -17.8100   19.5990 C   0  0  0  0  0  2  0  0  0  0  0  0
  -30.4100  -16.9930   20.7090 C   0  0  0  0  0  2  0  0  0  0  0  0
  -30.7730  -14.5280   20.2590 C   0  0  0  0  0  0  0  0  0  0  0  0
  -30.4530  -12.3610   19.1370 C   0  0  0  0  0  2  0  0  0  0  0  0
  -29.4960  -12.5680   17.9400 C   0  0  0  0  0  2  0  0  0  0  0  0
  -28.0180  -12.4820   18.3800 C   0  0  0  0  0  2  0  0  0  0  0  0
  -27.7110  -13.3040   19.6590 C   0  0  0  0  0  3  0  0  0  0  0  0
  -28.7830  -13.0550   20.7430 C   0  0  0  0  0  2  0  0  0  0  0  0
  -30.1000  -13.3520   20.1610 N   0  0  0  0  0  0  0  0  0  0  0  0
  -31.9090  -14.6930   19.8120 O   0  0  0  0  0  0  0  0  0  0  0  0
  -30.0410  -15.5630   20.7050 N   0  0  0  0  0  0  0  0  0  0  0  0
  -29.1160  -15.3330   21.0370 H   0  0  0  0  0  0  0  0  0  0  0  0
  -25.3200  -13.9370   20.3910 C   0  0  0  0  0  0  0  0  0  0  0  0
  -24.2500  -13.1710   20.7760 C   0  0  0  0  0  0  0  0  0  0  0  0
  -24.7040  -11.8180   20.7570 C   0  0  0  0  0  0  0  0  0  0  0  0
  -26.3590  -13.0470   20.1600 N   0  0  0  0  0  0  0  0  0  0  0  0
  -25.9920  -11.7680   20.4410 N   0  0  0  0  0  0  0  0  0  0  0  0
  -23.9700  -10.5590   20.9660 C   0  0  0  0  0  0  0  0  0  0  0  0
  -24.4090   -9.5960   21.8980 C   0  0  0  0  0  3  0  0  0  0  0  0
  -23.6790   -8.4030   22.0960 C   0  0  0  0  0  3  0  0  0  0  0  0
  -22.4940   -8.1670   21.3590 C   0  0  0  0  0  0  0  0  0  0  0  0
  -22.0730   -9.1210   20.4160 C   0  0  0  0  0  3  0  0  0  0  0  0
  -22.8050  -10.3020   20.2170 C   0  0  0  0  0  3  0  0  0  0  0  0
  -21.7320   -7.0270   21.4680 O   0  0  0  0  0  0  0  0  0  0  0  0
  -21.7070   -6.2880   22.6230 C   0  0  0  0  0  0  0  0  0  0  0  0
  -21.3160   -6.8500   23.8590 C   0  0  0  0  0  3  0  0  0  0  0  0
  -21.2380   -6.0370   25.0080 C   0  0  0  0  0  3  0  0  0  0  0  0
  -21.5340   -4.6630   24.9220 C   0  0  0  0  0  0  0  0  0  0  0  0
  -21.9170   -4.1010   23.6900 C   0  0  0  0  0  3  0  0  0  0  0  0
  -21.9990   -4.9110   22.5450 C   0  0  0  0  0  0  0  0  0  0  0  0
  -22.3490   -4.3620   21.3550 F   0  0  0  0  0  0  0  0  0  0  0  0
  -21.4500   -3.8810   26.0230 F   0  0  0  0  0  0  0  0  0  0  0  0
  -22.8570  -13.6570   21.0500 C   0  0  0  0  0  0  0  0  0  0  0  0
  -22.1240  -12.9780   21.9280 N   0  0  0  0  0  0  0  0  0  0  0  0
  -22.4170  -14.6730   20.5140 O   0  0  0  0  0  0  0  0  0  0  0  0
  -22.4880  -12.1610   22.3960 H   0  0  0  0  0  0  0  0  0  0  0  0
  -21.1850  -13.2830   22.1430 H   0  0  0  0  0  0  0  0  0  0  0  0
  -25.4880  -15.3030   20.2000 N   0  0  0  0  0  0  0  0  0  0  0  0
  -24.7280  -15.9620   20.3340 H   0  0  0  0  0  0  0  0  0  0  0  0
  -26.3320  -15.7380   19.8510 H   0  0  0  0  0  0  0  0  0  0  0  0
  -28.3070  -24.1820   20.5270 C   0  0  0  0  0  2  0  0  0  0  0  0
  -27.5130  -25.7460   22.3640 C   0  0  0  0  0  1  0  0  0  0  0  0
  -29.9210  -25.8940   21.7580 C   0  0  0  0  0  1  0  0  0  0  0  0
  -28.5170  -25.6120   21.1830 C   0  0  1  0  0  0  0  0  0  0  0  0
  -28.3780  -26.6700   20.1920 O   0  0  0  0  0  0  0  0  0  0  0  0
  -24.5870  -31.8770   23.2430 C   0  0  0  0  0  0  0  0  0  0  0  0
  -27.2240  -27.4260   20.1760 C   0  0  0  0  0  0  0  0  0  0  0  0
  -23.3820  -30.4770   21.6010 C   0  0  0  0  0  3  0  0  0  0  0  0
  -24.8390  -28.9380   20.1720 C   0  0  0  0  0  0  0  0  0  0  0  0
  -25.9090  -30.8350   21.4030 C   0  0  0  0  0  2  0  0  0  0  0  0
  -25.9950  -29.4640   20.7610 C   0  0  0  0  0  0  0  0  0  0  0  0
  -27.1930  -28.7150   20.7550 C   0  0  0  0  0  3  0  0  0  0  0  0
  -26.0590  -26.9130   19.5750 C   0  0  0  0  0  3  0  0  0  0  0  0
  -24.8650  -27.6610   19.5790 C   0  0  0  0  0  3  0  0  0  0  0  0
  -23.5920  -29.7950   20.2220 C   0  0  0  0  0  2  0  0  0  0  0  0
  -24.6450  -31.0780   22.1400 N   0  0  0  0  0  0  0  0  0  0  0  0
  -23.5050  -32.1480   23.7820 O   0  0  0  0  0  0  0  0  0  0  0  0
  -22.7310  -29.4560   22.5600 C   0  0  0  0  0  0  0  0  0  0  0  0
  -21.4070  -29.2760   22.4380 N   0  0  0  0  0  0  0  0  0  0  0  0
  -23.4160  -28.8280   23.3740 O   0  0  0  0  0  0  0  0  0  0  0  0
  -20.9190  -29.8320   21.7510 H   0  0  0  0  0  0  0  0  0  0  0  0
  -18.0280  -28.0960   22.9460 C   0  0  0  0  0  0  0  0  0  0  0  0
  -20.5880  -28.3390   23.2070 C   0  0  0  0  0  3  0  0  0  0  0  0
  -20.6800  -26.9110   22.6200 C   0  0  0  0  0  2  0  0  0  0  0  0
  -19.5690  -26.6000   21.6130 C   0  0  0  0  0  2  0  0  0  0  0  0
  -18.1920  -26.7500   22.2640 C   0  0  0  0  0  2  0  0  0  0  0  0
  -19.1510  -28.8500   23.3750 C   0  0  0  0  0  0  0  0  0  0  0  0
  -18.9440  -30.1120   23.9720 C   0  0  0  0  0  3  0  0  0  0  0  0
  -17.6420  -30.6200   24.1490 C   0  0  0  0  0  3  0  0  0  0  0  0
  -16.5320  -29.8620   23.7340 C   0  0  0  0  0  3  0  0  0  0  0  0
  -16.7260  -28.6030   23.1400 C   0  0  0  0  0  3  0  0  0  0  0  0
  -25.8720  -32.5070   23.8660 C   0  0  0  0  0  3  0  0  0  0  0  0
  -25.5650  -33.9060   24.1890 N   0  0  0  0  0  0  0  0  0  0  0  0
  -25.9010  -34.9550   23.4250 C   0  0  0  0  0  0  0  0  0  0  0  0
  -26.5740  -34.8470   22.3950 O   0  0  0  0  0  0  0  0  0  0  0  0
  -24.9650  -34.0630   24.9850 H   0  0  0  0  0  0  0  0  0  0  0  0
  -24.1760  -36.7510   23.0580 C   0  0  0  0  0  1  0  0  0  0  0  0
  -25.4140  -36.3460   23.8750 C   0  0  0  0  0  3  0  0  0  0  0  0
  -27.5460  -37.2330   24.7110 C   0  0  0  0  0  1  0  0  0  0  0  0
  -26.4480  -37.3970   23.7610 N   0  0  0  0  0  0  0  0  0  0  0  0
  -26.0410  -38.3190   23.9040 H   0  0  0  0  0  0  0  0  0  0  0  0
  -26.3870  -31.7400   25.1440 C   0  0  1  0  0  0  0  0  0  0  0  0
  -25.2940  -31.5070   26.2130 C   0  0  0  0  0  1  0  0  0  0  0  0
  -26.9690  -30.3610   24.7540 C   0  0  0  0  0  1  0  0  0  0  0  0
  -27.5380  -32.5370   25.8040 C   0  0  0  0  0  1  0  0  0  0  0  0
  1  6  1  0
  1 49  1  0
  2  3  1  0
  2  1  2  0
  5  4  1  0
  6  4  2  0
  7  5  2  0
  8  7  1  0
  8  6  1  0
  9  7  1  0
  9 10  1  0
 11 19  1  0
 12 17  1  0
 13 14  1  0
 13 12  1  0
 15 14  1  0
 15 24  1  0
 15 16  1  0
 17 11  1  0
 17 16  1  0
 18 11  2  0
 19 10  1  0
 19 20  1  0
 21 22  2  0
 22 41  1  0
 23 22  1  0
 23 26  1  0
 24 21  1  0
 24 25  1  0
 25 23  2  0
 26 27  1  0
 27 28  2  0
 29 32  1  0
 29 28  1  0
 30 29  2  0
 31 30  1  0
 31 26  2  0
 32 33  1  0
 33 34  1  0
 34 35  2  0
 36 35  1  0
 36 40  1  0
 37 36  2  0
 38 33  2  0
 38 37  1  0
 39 38  1  0
 41 42  1  0
 42 45  1  0
 42 44  1  0
 43 41  2  0
 46 47  1  0
 46 21  1  0
 48 46  1  0
 49 52  1  0
 52 51  1  1
 52 50  1  0
 53 52  1  0
 54 65  2  0
 55 53  1  0
 55 60  1  0
 56 64  1  0
 56 66  1  0
 57 63  1  0
 57 59  1  0
 58 64  1  0
 59 58  1  0
 60 59  2  0
 61 62  1  0
 61 55  2  0
 62 57  2  0
 63 56  1  0
 64 54  1  0
 66 68  2  0
 67 66  1  0
 69 67  1  0
 70 79  2  0
 70 75  1  0
 71 67  1  0
 71 75  1  0
 72 71  1  0
 73 74  1  0
 73 72  1  0
 74 70  1  0
 75 76  2  0
 76 77  1  0
 78 77  2  0
 79 78  1  0
 80 54  1  0
 80 81  1  0
 80 90  1  0
 81 84  1  0
 82 86  1  0
 82 81  1  0
 83 82  2  0
 86 85  1  0
 88 86  1  0
 88 89  1  0
 88 87  1  0
 90 93  1  1
 90 91  1  0
 92 90  1  0
M  ISO  4  11 100  19 100  52 101  53 101
M  END
>  <TORSDO>  (66) 
F 21

>  <SCORE>  (66) 
-13.502

>  <name>  (66) 
65

>  <ligand_id>  (66) 
65

>  <original_smiles>  (66) 
[H]N=C(c1sc(C([H])([H])C([H])([H])N([H])C(=O)N2C([H])([H])C([H])([H])C([H])([H])C([H])(n3nc(-c4c([H])c([H])c(Oc5c([H])c([H])c(F)c([H])c5F)c([H])c4[H])c(C(=O)N([H])[H])c3N([H])[H])C2([H])[H])c([H])c1[H])C([H])([H])C(Oc1c([H])c([H])c2c(c1[H])C([H])([H])N(C(=O)C([H])(N([H])C(=O)C([H])(N([H])C([H])([H])[H])C([H])([H])[H])C(C([H])([H])[H])(C([H])([H])[H])C([H])([H])[H])C([H])(C(=O)N([H])C1([H])c3c([H])c([H])c([H])c([H])c3C([H])([H])C([H])([H])C1([H])[H])C2([H])[H])(C([H])([H])[H])C([H])([H])[H]

>  <smiles>  (66) 
[H]N=C(c1sc(C([H])([H])C([H])([H])N([H])C(=O)N2C([H])([H])C([H])([H])C([H])([H])C([H])(n3nc(-c4c([H])c([H])c(Oc5c([H])c([H])c(F)c([H])c5F)c([H])c4[H])c(C(=O)N([H])[H])c3N([H])[H])C2([H])[H])c([H])c1[H])C([H])([H])C(Oc1c([H])c([H])c2c(c1[H])C([H])([H])N(C(=O)C([H])(N([H])C(=O)C([H])(N([H])C([H])([H])[H])C([H])([H])[H])C(C([H])([H])[H])(C([H])([H])[H])C([H])([H])[H])C([H])(C(=O)N([H])C1([H])c3c([H])c([H])c([H])c([H])c3C([H])([H])C([H])([H])C1([H])[H])C2([H])[H])(C([H])([H])[H])C([H])([H])[H]

$$$$
66:0:0
     RDKit          3D

 95103  0  0  1  0  0  0  0  0999 V2000
  -29.7870  -20.1880   18.6930 C   0  0  0  0  0  3  0  0  0  0  0  0
  -28.6030  -21.1870   20.3600 C   0  0  0  0  0  3  0  0  0  0  0  0
  -29.3720  -20.0950   20.0530 C   0  0  0  0  0  0  0  0  0  0  0  0
  -29.2220  -21.3380   18.2190 C   0  0  0  0  0  0  0  0  0  0  0  0
  -28.4820  -21.9660   19.2120 N   0  0  0  0  0  0  0  0  0  0  0  0
  -29.3430  -21.7960   16.9140 N   0  0  0  0  0  0  0  0  0  0  0  0
  -29.8780  -21.3190   16.1940 H   0  0  0  0  0  0  0  0  0  0  0  0
  -28.9160  -22.6490   16.5680 H   0  0  0  0  0  0  0  0  0  0  0  0
  -29.6930  -19.0700   20.9590 N   0  0  0  0  0  0  0  0  0  0  0  0
  -29.2430  -19.1400   21.8700 H   0  0  0  0  0  0  0  0  0  0  0  0
  -29.8250  -17.7090   20.4410 C   0  0  0  0  0  2  0  0  0  0  0  0
  -30.4260  -16.7460   21.4920 C   0  0  0  0  0  2  0  0  0  0  0  0
  -30.6920  -14.4340   20.5450 C   0  0  0  0  0  0  0  0  0  0  0  0
  -30.3930  -12.3140   19.3110 C   0  0  0  0  0  2  0  0  0  0  0  0
  -29.4520  -12.5520   18.1130 C   0  0  0  0  0  2  0  0  0  0  0  0
  -27.9750  -12.4100   18.5340 C   0  0  0  0  0  2  0  0  0  0  0  0
  -27.6400  -13.2190   19.8160 C   0  0  0  0  0  3  0  0  0  0  0  0
  -28.6890  -12.9490   20.9180 C   0  0  0  0  0  2  0  0  0  0  0  0
  -30.0190  -13.2640   20.3670 N   0  0  0  0  0  0  0  0  0  0  0  0
  -31.7860  -14.6730   20.0250 O   0  0  0  0  0  0  0  0  0  0  0  0
  -30.0310  -15.3590   21.2550 N   0  0  0  0  0  0  0  0  0  0  0  0
  -29.1420  -15.0740   21.6350 H   0  0  0  0  0  0  0  0  0  0  0  0
  -25.2330  -13.8300   20.4920 C   0  0  0  0  0  0  0  0  0  0  0  0
  -24.1630  -13.0590   20.8600 C   0  0  0  0  0  0  0  0  0  0  0  0
  -24.6260  -11.7080   20.8420 C   0  0  0  0  0  0  0  0  0  0  0  0
  -26.2820  -12.9480   20.2790 N   0  0  0  0  0  0  0  0  0  0  0  0
  -25.9180  -11.6660   20.5450 N   0  0  0  0  0  0  0  0  0  0  0  0
  -23.9000  -10.4460   21.0310 C   0  0  0  0  0  0  0  0  0  0  0  0
  -24.3290   -9.4830   21.9710 C   0  0  0  0  0  3  0  0  0  0  0  0
  -23.6050   -8.2860   22.1520 C   0  0  0  0  0  3  0  0  0  0  0  0
  -22.4370   -8.0410   21.3910 C   0  0  0  0  0  0  0  0  0  0  0  0
  -22.0270   -8.9920   20.4400 C   0  0  0  0  0  3  0  0  0  0  0  0
  -22.7510  -10.1820   20.2570 C   0  0  0  0  0  3  0  0  0  0  0  0
  -21.6850   -6.8940   21.4790 O   0  0  0  0  0  0  0  0  0  0  0  0
  -21.6340   -6.1540   22.6320 C   0  0  0  0  0  0  0  0  0  0  0  0
  -21.2000   -6.7100   23.8560 C   0  0  0  0  0  3  0  0  0  0  0  0
  -21.0980   -5.8970   25.0030 C   0  0  0  0  0  3  0  0  0  0  0  0
  -21.4190   -4.5280   24.9260 C   0  0  0  0  0  0  0  0  0  0  0  0
  -21.8460   -3.9710   23.7060 C   0  0  0  0  0  3  0  0  0  0  0  0
  -21.9510   -4.7820   22.5630 C   0  0  0  0  0  0  0  0  0  0  0  0
  -22.3420   -4.2370   21.3860 F   0  0  0  0  0  0  0  0  0  0  0  0
  -21.3130   -3.7450   26.0240 F   0  0  0  0  0  0  0  0  0  0  0  0
  -22.7630  -13.5350   21.1190 C   0  0  0  0  0  0  0  0  0  0  0  0
  -22.0290  -12.8420   21.9830 N   0  0  0  0  0  0  0  0  0  0  0  0
  -22.3260  -14.5570   20.5900 O   0  0  0  0  0  0  0  0  0  0  0  0
  -22.3900  -12.0130   22.4320 H   0  0  0  0  0  0  0  0  0  0  0  0
  -21.0890  -13.1460   22.1980 H   0  0  0  0  0  0  0  0  0  0  0  0
  -25.4000  -15.2000   20.3040 N   0  0  0  0  0  0  0  0  0  0  0  0
  -24.6390  -15.8630   20.4040 H   0  0  0  0  0  0  0  0  0  0  0  0
  -26.2580  -15.6320   19.9830 H   0  0  0  0  0  0  0  0  0  0  0  0
  -27.6540  -23.1660   19.0690 C   0  0  0  0  0  2  0  0  0  0  0  0
  -28.4140  -24.5180   19.0710 C   0  0  0  0  0  2  0  0  0  0  0  0
  -29.4770  -24.9070   21.3540 C   0  0  0  0  0  1  0  0  0  0  0  0
  -28.3370  -25.3000   20.4070 C   0  0  0  0  0  3  0  0  0  0  0  0
  -28.4260  -26.7220   20.2110 O   0  0  0  0  0  0  0  0  0  0  0  0
  -24.5830  -31.8910   23.2590 C   0  0  0  0  0  0  0  0  0  0  0  0
  -27.2440  -27.4390   20.2030 C   0  0  0  0  0  0  0  0  0  0  0  0
  -23.3840  -30.4790   21.6230 C   0  0  0  0  0  3  0  0  0  0  0  0
  -24.8430  -28.9390   20.2090 C   0  0  0  0  0  0  0  0  0  0  0  0
  -25.9100  -30.8430   21.4270 C   0  0  0  0  0  2  0  0  0  0  0  0
  -26.0010  -29.4700   20.7920 C   0  0  0  0  0  0  0  0  0  0  0  0
  -27.2050  -28.7290   20.7800 C   0  0  0  0  0  3  0  0  0  0  0  0
  -26.0630  -26.9210   19.6210 C   0  0  0  0  0  3  0  0  0  0  0  0
  -24.8690  -27.6650   19.6200 C   0  0  0  0  0  3  0  0  0  0  0  0
  -23.5970  -29.7940   20.2470 C   0  0  0  0  0  2  0  0  0  0  0  0
  -24.6450  -31.0860   22.1610 N   0  0  0  0  0  0  0  0  0  0  0  0
  -23.5000  -32.1640   23.7960 O   0  0  0  0  0  0  0  0  0  0  0  0
  -22.7340  -29.4610   22.5870 C   0  0  0  0  0  0  0  0  0  0  0  0
  -21.4110  -29.2730   22.4550 N   0  0  0  0  0  0  0  0  0  0  0  0
  -23.4160  -28.8430   23.4080 O   0  0  0  0  0  0  0  0  0  0  0  0
  -20.9210  -29.8230   21.7630 H   0  0  0  0  0  0  0  0  0  0  0  0
  -18.0370  -28.0750   22.9430 C   0  0  0  0  0  0  0  0  0  0  0  0
  -20.5930  -28.3380   23.2270 C   0  0  0  0  0  3  0  0  0  0  0  0
  -20.7010  -26.9040   22.6590 C   0  0  0  0  0  2  0  0  0  0  0  0
  -19.6050  -26.5740   21.6410 C   0  0  0  0  0  2  0  0  0  0  0  0
  -18.2200  -26.7220   22.2770 C   0  0  0  0  0  2  0  0  0  0  0  0
  -19.1520  -28.8410   23.3740 C   0  0  0  0  0  0  0  0  0  0  0  0
  -18.9280  -30.1080   23.9550 C   0  0  0  0  0  3  0  0  0  0  0  0
  -17.6220  -30.6090   24.1110 C   0  0  0  0  0  3  0  0  0  0  0  0
  -16.5210  -29.8400   23.6960 C   0  0  0  0  0  3  0  0  0  0  0  0
  -16.7300  -28.5760   23.1170 C   0  0  0  0  0  3  0  0  0  0  0  0
  -25.8660  -32.5280   23.8780 C   0  0  0  0  0  3  0  0  0  0  0  0
  -25.5560  -33.9290   24.1940 N   0  0  0  0  0  0  0  0  0  0  0  0
  -25.8970  -34.9750   23.4300 C   0  0  0  0  0  0  0  0  0  0  0  0
  -26.5770  -34.8620   22.4070 O   0  0  0  0  0  0  0  0  0  0  0  0
  -24.9520  -34.0900   24.9870 H   0  0  0  0  0  0  0  0  0  0  0  0
  -24.1780  -36.7670   23.0380 C   0  0  0  0  0  1  0  0  0  0  0  0
  -25.4070  -36.3660   23.8710 C   0  0  0  0  0  3  0  0  0  0  0  0
  -27.5320  -37.2490   24.7280 C   0  0  0  0  0  1  0  0  0  0  0  0
  -26.4430  -37.4170   23.7670 N   0  0  0  0  0  0  0  0  0  0  0  0
  -26.0370  -38.3380   23.9060 H   0  0  0  0  0  0  0  0  0  0  0  0
  -26.3820  -31.7670   25.1600 C   0  0  1  0  0  0  0  0  0  0  0  0
  -25.2890  -31.5340   26.2280 C   0  0  0  0  0  1  0  0  0  0  0  0
  -26.9680  -30.3890   24.7750 C   0  0  0  0  0  1  0  0  0  0  0  0
  -27.5320  -32.5680   25.8180 C   0  0  0  0  0  1  0  0  0  0  0  0
  1  3  1  0
  3  2  2  0
  3  9  1  0
  4  1  2  0
  4  5  1  0
  5  2  1  0
  6  4  1  0
  7  6  1  0
  8  6  1  0
  9 10  1  0
 11  9  1  0
 11 12  1  0
 13 21  1  0
 14 19  1  0
 15 16  1  0
 15 14  1  0
 17 16  1  0
 17 26  1  0
 17 18  1  0
 19 13  1  0
 19 18  1  0
 20 13  2  0
 21 12  1  0
 21 22  1  0
 23 24  2  0
 24 43  1  0
 25 24  1  0
 25 28  1  0
 26 23  1  0
 26 27  1  0
 27 25  2  0
 28 29  1  0
 29 30  2  0
 31 34  1  0
 31 30  1  0
 32 31  2  0
 33 32  1  0
 33 28  2  0
 34 35  1  0
 35 36  1  0
 36 37  2  0
 38 37  1  0
 38 42  1  0
 39 38  2  0
 40 35  2  0
 40 39  1  0
 41 40  1  0
 43 44  1  0
 44 47  1  0
 44 46  1  0
 45 43  2  0
 48 49  1  0
 48 23  1  0
 50 48  1  0
 51 52  1  0
 51  5  1  0
 52 54  1  0
 54 53  1  0
 55 54  1  0
 56 67  2  0
 57 55  1  0
 57 62  1  0
 58 66  1  0
 58 68  1  0
 59 65  1  0
 59 61  1  0
 60 66  1  0
 61 60  1  0
 62 61  2  0
 63 57  2  0
 64 63  1  0
 64 59  2  0
 65 58  1  0
 66 56  1  0
 68 70  2  0
 69 68  1  0
 71 69  1  0
 72 81  2  0
 72 77  1  0
 73 69  1  0
 73 77  1  0
 74 73  1  0
 75 76  1  0
 75 74  1  0
 76 72  1  0
 77 78  2  0
 78 79  1  0
 80 79  2  0
 81 80  1  0
 82 56  1  0
 82 83  1  0
 82 92  1  0
 83 86  1  0
 84 88  1  0
 84 83  1  0
 85 84  2  0
 88 87  1  0
 90 88  1  0
 90 91  1  0
 90 89  1  0
 92 95  1  1
 92 93  1  0
 94 92  1  0
M  ISO  4  13 100  21 100  54 101  55 101
M  END
>  <TORSDO>  (67) 
F 23

>  <SCORE>  (67) 
-13.260

>  <name>  (67) 
66

>  <ligand_id>  (67) 
66

>  <original_smiles>  (67) 
[H]c1c([H])c([H])c2c(c1[H])C([H])([H])C([H])([H])C([H])([H])C2([H])N([H])C(=O)C1([H])N(C(=O)C([H])(N([H])C(=O)C([H])(N([H])C([H])([H])[H])C([H])([H])[H])C(C([H])([H])[H])(C([H])([H])[H])C([H])([H])[H])C([H])([H])c2c([H])c(OC([H])(C([H])([H])[H])C([H])([H])C([H])([H])n3c([H])c(N([H])C([H])([H])C([H])([H])N([H])C(=O)N4C([H])([H])C([H])([H])C([H])([H])C([H])(n5nc(-c6c([H])c([H])c(Oc7c([H])c([H])c(F)c([H])c7F)c([H])c6[H])c(C(=O)N([H])[H])c5N([H])[H])C4([H])[H])c([H])c3N([H])[H])c([H])c([H])c2C1([H])[H]

>  <smiles>  (67) 
[H]c1c([H])c([H])c2c(c1[H])C([H])([H])C([H])([H])C([H])([H])C2([H])N([H])C(=O)C1([H])N(C(=O)C([H])(N([H])C(=O)C([H])(N([H])C([H])([H])[H])C([H])([H])[H])C(C([H])([H])[H])(C([H])([H])[H])C([H])([H])[H])C([H])([H])c2c([H])c(OC([H])(C([H])([H])[H])C([H])([H])C([H])([H])n3c([H])c(N([H])C([H])([H])C([H])([H])N([H])C(=O)N4C([H])([H])C([H])([H])C([H])([H])C([H])(n5nc(-c6c([H])c([H])c(Oc7c([H])c([H])c(F)c([H])c7F)c([H])c6[H])c(C(=O)N([H])[H])c5N([H])[H])C4([H])[H])c([H])c3N([H])[H])c([H])c([H])c2C1([H])[H]

$$$$
67:0:0
     RDKit          3D

 92100  0  0  1  0  0  0  0  0999 V2000
  -28.4780  -20.1210   20.1020 N   0  0  0  0  0  4  0  0  0  0  0  0
  -27.5910  -20.0620   20.5720 H   0  0  0  0  0  0  0  0  0  0  0  0
  -28.2630  -19.9500   19.1340 H   0  0  0  0  0  0  0  0  0  0  0  0
  -30.6090  -15.0260   20.2810 C   0  0  0  0  0  0  0  0  0  0  0  0
  -30.3430  -12.6880   19.3210 C   0  0  0  0  0  2  0  0  0  0  0  0
  -29.3950  -12.5440   18.1140 C   0  0  0  0  0  2  0  0  0  0  0  0
  -27.9710  -12.2960   18.6210 C   0  0  0  0  0  2  0  0  0  0  0  0
  -27.5600  -13.2920   19.7330 C   0  0  0  0  0  3  0  0  0  0  0  0
  -28.6340  -13.4390   20.8320 C   0  0  0  0  0  2  0  0  0  0  0  0
  -29.8620  -13.8500   20.1460 N   0  0  0  0  0  0  0  0  0  0  0  0
  -31.8190  -14.8420   20.1090 O   0  0  0  0  0  0  0  0  0  0  0  0
  -29.0600  -17.2400   20.2250 C   0  0  0  0  0  0  0  0  0  0  0  0
  -31.2380  -17.4100   20.8060 C   0  0  0  0  0  2  0  0  0  0  0  0
  -29.3080  -18.8340   20.5810 C   0  0  0  0  0  3  0  0  0  0  0  0
  -30.8200  -18.8530   20.3710 C   0  0  0  0  0  3  0  0  0  0  0  0
  -30.1860  -16.4130   20.4300 N   0  0  0  0  0  0  0  0  0  0  0  0
  -27.9700  -16.8440   19.7990 O   0  0  0  0  0  0  0  0  0  0  0  0
  -25.2150  -13.8680   20.5350 C   0  0  0  0  0  0  0  0  0  0  0  0
  -24.1510  -13.0880   20.9020 C   0  0  0  0  0  0  0  0  0  0  0  0
  -24.6170  -11.7380   20.8640 C   0  0  0  0  0  0  0  0  0  0  0  0
  -26.2470  -12.9880   20.2730 N   0  0  0  0  0  0  0  0  0  0  0  0
  -25.9050  -11.7020   20.5450 N   0  0  0  0  0  0  0  0  0  0  0  0
  -23.8990  -10.4730   21.0550 C   0  0  0  0  0  0  0  0  0  0  0  0
  -24.3420   -9.4990   21.9760 C   0  0  0  0  0  3  0  0  0  0  0  0
  -23.6190   -8.2980   22.1520 C   0  0  0  0  0  3  0  0  0  0  0  0
  -22.4400   -8.0650   21.4070 C   0  0  0  0  0  0  0  0  0  0  0  0
  -22.0150   -9.0280   20.4740 C   0  0  0  0  0  3  0  0  0  0  0  0
  -22.7380  -10.2190   20.2960 C   0  0  0  0  0  3  0  0  0  0  0  0
  -21.6850   -6.9190   21.4970 O   0  0  0  0  0  0  0  0  0  0  0  0
  -21.6480   -6.1690   22.6450 C   0  0  0  0  0  0  0  0  0  0  0  0
  -21.2410   -6.7160   23.8810 C   0  0  0  0  0  3  0  0  0  0  0  0
  -21.1590   -5.8940   25.0210 C   0  0  0  0  0  3  0  0  0  0  0  0
  -21.4670   -4.5230   24.9270 C   0  0  0  0  0  0  0  0  0  0  0  0
  -21.8640   -3.9740   23.6940 C   0  0  0  0  0  3  0  0  0  0  0  0
  -21.9520   -4.7950   22.5570 C   0  0  0  0  0  0  0  0  0  0  0  0
  -22.3190   -4.2580   21.3670 F   0  0  0  0  0  0  0  0  0  0  0  0
  -21.3780   -3.7300   26.0200 F   0  0  0  0  0  0  0  0  0  0  0  0
  -22.7560  -13.5600   21.1820 C   0  0  0  0  0  0  0  0  0  0  0  0
  -22.0360  -12.8510   22.0450 N   0  0  0  0  0  0  0  0  0  0  0  0
  -22.3140  -14.5890   20.6720 O   0  0  0  0  0  0  0  0  0  0  0  0
  -22.4070  -12.0150   22.4700 H   0  0  0  0  0  0  0  0  0  0  0  0
  -21.1000  -13.1490   22.2890 H   0  0  0  0  0  0  0  0  0  0  0  0
  -25.3950  -15.2360   20.3680 N   0  0  0  0  0  0  0  0  0  0  0  0
  -24.6670  -15.9200   20.5380 H   0  0  0  0  0  0  0  0  0  0  0  0
  -26.2720  -15.6640   20.0800 H   0  0  0  0  0  0  0  0  0  0  0  0
  -31.2440  -19.0230   18.9810 N   0  0  0  0  0  0  0  0  0  0  0  0
  -30.8450  -18.3430   18.3400 H   0  0  0  0  0  0  0  0  0  0  0  0
  -30.9930  -19.9330   18.6070 H   0  0  0  0  0  0  0  0  0  0  0  0
  -28.9740  -21.6480   20.1930 C   0  0  0  0  0  2  0  0  0  0  0  0
  -28.0300  -23.0670   20.4490 C   0  0  0  0  0  2  0  0  0  0  0  0
  -28.2550  -24.6260   19.7750 C   0  0  0  0  0  2  0  0  0  0  0  0
  -28.2110  -26.1030   20.3360 O   0  0  0  0  0  0  0  0  0  0  0  0
  -24.6150  -31.8710   23.1980 C   0  0  0  0  0  0  0  0  0  0  0  0
  -27.1770  -27.1080   20.2000 C   0  0  0  0  0  0  0  0  0  0  0  0
  -23.4230  -30.4750   21.5550 C   0  0  0  0  0  3  0  0  0  0  0  0
  -24.8770  -28.9010   20.1330 C   0  0  0  0  0  0  0  0  0  0  0  0
  -25.9850  -30.7300   21.4080 C   0  0  0  0  0  2  0  0  0  0  0  0
  -26.0530  -29.3320   20.7550 C   0  0  0  0  0  0  0  0  0  0  0  0
  -27.2010  -28.4480   20.7760 C   0  0  0  0  0  3  0  0  0  0  0  0
  -25.9760  -26.7850   19.5370 C   0  0  0  0  0  3  0  0  0  0  0  0
  -24.8530  -27.6420   19.5100 C   0  0  0  0  0  3  0  0  0  0  0  0
  -23.6540  -29.8060   20.1730 C   0  0  0  0  0  2  0  0  0  0  0  0
  -24.6940  -31.0470   22.1080 N   0  0  0  0  0  0  0  0  0  0  0  0
  -23.5240  -32.1550   23.7200 O   0  0  0  0  0  0  0  0  0  0  0  0
  -22.7370  -29.4670   22.5120 C   0  0  0  0  0  0  0  0  0  0  0  0
  -21.4110  -29.2890   22.3760 N   0  0  0  0  0  0  0  0  0  0  0  0
  -23.4060  -28.8480   23.3440 O   0  0  0  0  0  0  0  0  0  0  0  0
  -20.9350  -29.7970   21.6430 H   0  0  0  0  0  0  0  0  0  0  0  0
  -18.0140  -28.1640   22.9360 C   0  0  0  0  0  0  0  0  0  0  0  0
  -20.5830  -28.3830   23.1770 C   0  0  0  0  0  3  0  0  0  0  0  0
  -20.6380  -26.9470   22.6210 C   0  0  0  0  0  2  0  0  0  0  0  0
  -19.5420  -26.6790   21.5850 C   0  0  0  0  0  2  0  0  0  0  0  0
  -18.1690  -26.8190   22.2470 C   0  0  0  0  0  2  0  0  0  0  0  0
  -19.1520  -28.9060   23.3580 C   0  0  0  0  0  0  0  0  0  0  0  0
  -18.9560  -30.1650   23.9660 C   0  0  0  0  0  3  0  0  0  0  0  0
  -17.6590  -30.6840   24.1470 C   0  0  0  0  0  3  0  0  0  0  0  0
  -16.5400  -29.9410   23.7390 C   0  0  0  0  0  3  0  0  0  0  0  0
  -16.7160  -28.6790   23.1470 C   0  0  0  0  0  3  0  0  0  0  0  0
  -25.8880  -32.5070   23.8360 C   0  0  0  0  0  3  0  0  0  0  0  0
  -26.3860  -31.7410   25.1220 C   0  0  1  0  0  0  0  0  0  0  0  0
  -25.2790  -31.5110   26.1770 C   0  0  0  0  0  1  0  0  0  0  0  0
  -26.9690  -30.3600   24.7480 C   0  0  0  0  0  1  0  0  0  0  0  0
  -27.5310  -32.5360   25.7930 C   0  0  0  0  0  1  0  0  0  0  0  0
  -25.5710  -33.9070   24.1650 N   0  0  0  0  0  0  0  0  0  0  0  0
  -25.9110  -34.9660   23.4170 C   0  0  0  0  0  0  0  0  0  0  0  0
  -26.5880  -34.8650   22.3900 O   0  0  0  0  0  0  0  0  0  0  0  0
  -24.9640  -34.0570   24.9570 H   0  0  0  0  0  0  0  0  0  0  0  0
  -24.1850  -36.7650   23.0650 C   0  0  0  0  0  1  0  0  0  0  0  0
  -25.4230  -36.3540   23.8790 C   0  0  0  0  0  3  0  0  0  0  0  0
  -27.5540  -37.2350   24.7230 C   0  0  0  0  0  1  0  0  0  0  0  0
  -26.4570  -37.4070   23.7750 N   0  0  0  0  0  0  0  0  0  0  0  0
  -26.0530  -38.3270   23.9230 H   0  0  0  0  0  0  0  0  0  0  0  0
  1 49  1  0
  1  2  1  0
  3  1  1  0
  4 16  1  0
  5 10  1  0
  6  7  1  0
  6  5  1  0
  8  7  1  0
  8 21  1  0
  8  9  1  0
 10  4  1  0
 10  9  1  0
 11  4  2  0
 12 16  1  0
 12 14  1  0
 14  1  1  0
 15 46  1  0
 15 14  1  0
 15 13  1  0
 16 13  1  0
 17 12  2  0
 18 19  2  0
 19 38  1  0
 20 19  1  0
 20 23  1  0
 21 18  1  0
 21 22  1  0
 22 20  2  0
 23 24  1  0
 24 25  2  0
 26 29  1  0
 26 25  1  0
 27 26  2  0
 28 27  1  0
 28 23  2  0
 29 30  1  0
 30 31  1  0
 31 32  2  0
 33 32  1  0
 33 37  1  0
 34 33  2  0
 35 30  2  0
 35 34  1  0
 36 35  1  0
 38 39  1  0
 39 42  1  0
 39 41  1  0
 40 38  2  0
 43 18  1  0
 43 44  1  0
 45 43  1  0
 47 46  1  0
 48 46  1  0
 49 50  1  0
 51 52  1  0
 51 50  1  0
 53 64  2  0
 54 52  1  0
 54 59  1  0
 55 63  1  0
 55 65  1  0
 56 62  1  0
 56 58  1  0
 57 63  1  0
 58 59  2  0
 58 57  1  0
 60 54  2  0
 61 60  1  0
 61 56  2  0
 62 55  1  0
 63 53  1  0
 65 67  2  0
 66 65  1  0
 68 66  1  0
 69 78  2  0
 69 74  1  0
 70 66  1  0
 70 74  1  0
 71 70  1  0
 72 73  1  0
 72 71  1  0
 73 69  1  0
 74 75  2  0
 75 76  1  0
 77 76  2  0
 78 77  1  0
 79 53  1  0
 79 84  1  0
 79 80  1  0
 80 83  1  1
 80 81  1  0
 82 80  1  0
 84 87  1  0
 85 89  1  0
 85 84  1  0
 86 85  2  0
 89 88  1  0
 91 89  1  0
 91 92  1  0
 91 90  1  0
M  ISO  4   4 100  16 100  51 101  52 101
M  END
>  <TORSDO>  (68) 
F 20

>  <SCORE>  (68) 
-15.431

>  <name>  (68) 
67

>  <ligand_id>  (68) 
67

>  <original_smiles>  (68) 
[H]c1c([H])c([H])c2c(c1[H])C([H])([H])C([H])([H])C([H])([H])C2([H])N([H])C(=O)C1([H])N(C(=O)C([H])(N([H])C(=O)C([H])(N([H])C([H])([H])[H])C([H])([H])[H])C(C([H])([H])[H])(C([H])([H])[H])C([H])([H])[H])C([H])([H])c2c([H])c(OC([H])([H])C([H])([H])C([H])([H])[N+]([H])([H])C3([H])C(=O)N(C(=O)N4C([H])([H])C([H])([H])C([H])([H])C([H])(n5nc(-c6c([H])c([H])c(Oc7c([H])c([H])c(F)c([H])c7F)c([H])c6[H])c(C(=O)N([H])[H])c5N([H])[H])C4([H])[H])C([H])([H])C3([H])N([H])[H])c([H])c([H])c2C1([H])[H]

>  <smiles>  (68) 
[H]c1c([H])c([H])c2c(c1[H])C([H])([H])C([H])([H])C([H])([H])C2([H])N([H])C(=O)C1([H])N(C(=O)C([H])(N([H])C(=O)C([H])(N([H])C([H])([H])[H])C([H])([H])[H])C(C([H])([H])[H])(C([H])([H])[H])C([H])([H])[H])C([H])([H])c2c([H])c(OC([H])([H])C([H])([H])C([H])([H])[N+]([H])([H])C3([H])C(=O)N(C(=O)N4C([H])([H])C([H])([H])C([H])([H])C([H])(n5nc(-c6c([H])c([H])c(Oc7c([H])c([H])c(F)c([H])c7F)c([H])c6[H])c(C(=O)N([H])[H])c5N([H])[H])C4([H])[H])C([H])([H])C3([H])N([H])[H])c([H])c([H])c2C1([H])[H]

$$$$
68:0:0
     RDKit          3D

100108  0  0  1  0  0  0  0  0999 V2000
  -26.3230  -23.2470   20.1500 C   0  0  0  0  0  3  0  0  0  0  0  0
  -24.5610  -25.1300   20.1130 C   0  0  0  0  0  1  0  0  0  0  0  0
  -23.8160  -22.8380   20.6310 C   0  0  0  0  0  1  0  0  0  0  0  0
  -24.5190  -23.3960   18.2970 C   0  0  0  0  0  1  0  0  0  0  0  0
  -24.8370  -23.6420   19.7890 C   0  0  2  0  0  0  0  0  0  0  0  0
  -26.6300  -21.7400   19.8800 C   0  0  0  0  0  2  0  0  0  0  0  0
  -30.4930  -21.7710   19.9180 C   0  0  0  0  0  3  0  0  0  0  0  0
  -30.7760  -20.4140   19.6680 C   0  0  0  0  0  3  0  0  0  0  0  0
  -29.1600  -22.2190   19.9850 C   0  0  0  0  0  3  0  0  0  0  0  0
  -28.3890  -19.9580   19.5240 C   0  0  0  0  0  3  0  0  0  0  0  0
  -29.7220  -19.4920   19.4940 C   0  0  0  0  0  0  0  0  0  0  0  0
  -28.0950  -21.3190   19.7660 C   0  0  0  0  0  0  0  0  0  0  0  0
  -29.9850  -17.9990   19.3120 C   0  0  0  0  0  2  0  0  0  0  0  0
  -30.8300  -17.3540   20.4340 C   0  0  0  0  0  2  0  0  0  0  0  0
  -31.2960  -14.9040   19.9520 C   0  0  0  0  0  0  0  0  0  0  0  0
  -31.1320  -12.5050   19.3790 C   0  0  0  0  0  2  0  0  0  0  0  0
  -30.2040  -12.3190   18.1630 C   0  0  0  0  0  2  0  0  0  0  0  0
  -28.7220  -12.2470   18.5880 C   0  0  0  0  0  2  0  0  0  0  0  0
  -28.3290  -13.3880   19.5630 C   0  0  0  0  0  3  0  0  0  0  0  0
  -29.3570  -13.4880   20.7090 C   0  0  0  0  0  2  0  0  0  0  0  0
  -30.6890  -13.6990   20.1090 N   0  0  0  0  0  0  0  0  0  0  0  0
  -32.3400  -15.0740   19.3130 O   0  0  0  0  0  0  0  0  0  0  0  0
  -30.6220  -15.9110   20.5230 N   0  0  0  0  0  0  0  0  0  0  0  0
  -29.8010  -15.6210   21.0360 H   0  0  0  0  0  0  0  0  0  0  0  0
  -26.0180  -14.1770   20.3800 C   0  0  0  0  0  0  0  0  0  0  0  0
  -24.8960  -13.4870   20.7530 C   0  0  0  0  0  0  0  0  0  0  0  0
  -25.2310  -12.1010   20.6460 C   0  0  0  0  0  0  0  0  0  0  0  0
  -26.9700  -13.2170   20.0720 N   0  0  0  0  0  0  0  0  0  0  0  0
  -26.5000  -11.9630   20.2840 N   0  0  0  0  0  0  0  0  0  0  0  0
  -24.4040  -10.9000   20.8090 C   0  0  0  0  0  0  0  0  0  0  0  0
  -24.7330   -9.8980   21.7510 C   0  0  0  0  0  3  0  0  0  0  0  0
  -23.9120   -8.7600   21.9010 C   0  0  0  0  0  3  0  0  0  0  0  0
  -22.7490   -8.6140   21.1070 C   0  0  0  0  0  0  0  0  0  0  0  0
  -22.4400   -9.6030   20.1560 C   0  0  0  0  0  3  0  0  0  0  0  0
  -23.2600  -10.7320   20.0040 C   0  0  0  0  0  3  0  0  0  0  0  0
  -21.9070   -7.5300   21.1620 O   0  0  0  0  0  0  0  0  0  0  0  0
  -21.6830   -6.8520   22.3350 C   0  0  0  0  0  0  0  0  0  0  0  0
  -21.1470   -7.4910   23.4740 C   0  0  0  0  0  3  0  0  0  0  0  0
  -20.8710   -6.7430   24.6370 C   0  0  0  0  0  3  0  0  0  0  0  0
  -21.1190   -5.3570   24.6570 C   0  0  0  0  0  0  0  0  0  0  0  0
  -21.6470   -4.7180   23.5220 C   0  0  0  0  0  3  0  0  0  0  0  0
  -21.9260   -5.4640   22.3630 C   0  0  0  0  0  0  0  0  0  0  0  0
  -22.4160   -4.8410   21.2630 F   0  0  0  0  0  0  0  0  0  0  0  0
  -20.8460   -4.6350   25.7700 F   0  0  0  0  0  0  0  0  0  0  0  0
  -23.5580  -14.0710   21.1010 C   0  0  0  0  0  0  0  0  0  0  0  0
  -22.8130  -13.4140   21.9810 N   0  0  0  0  0  0  0  0  0  0  0  0
  -23.1870  -15.1460   20.6300 O   0  0  0  0  0  0  0  0  0  0  0  0
  -23.1270  -12.5440   22.3850 H   0  0  0  0  0  0  0  0  0  0  0  0
  -21.9170  -13.7900   22.2590 H   0  0  0  0  0  0  0  0  0  0  0  0
  -26.3010  -15.5350   20.2620 N   0  0  0  0  0  0  0  0  0  0  0  0
  -25.6060  -16.2530   20.4400 H   0  0  0  0  0  0  0  0  0  0  0  0
  -27.1840  -15.9130   19.9440 H   0  0  0  0  0  0  0  0  0  0  0  0
  -27.3990  -24.1690   19.4730 C   0  0  0  0  0  2  0  0  0  0  0  0
  -28.4000  -24.9310   20.3940 C   0  0  0  0  0  3  0  0  0  0  0  0
  -27.7750  -25.4140   21.6490 N   0  0  0  0  0  4  0  0  0  0  0  0
  -27.0750  -26.1140   21.4680 H   0  0  0  0  0  0  0  0  0  0  0  0
  -28.4860  -25.8400   22.2230 H   0  0  0  0  0  0  0  0  0  0  0  0
  -27.3590  -24.6670   22.1760 H   0  0  0  0  0  0  0  0  0  0  0  0
  -29.1570  -26.0760   19.6280 C   0  0  0  0  0  2  0  0  0  0  0  0
  -29.0880  -27.3880   20.2220 O   0  0  0  0  0  0  0  0  0  0  0  0
  -24.9050  -31.8210   23.8440 C   0  0  0  0  0  0  0  0  0  0  0  0
  -27.9010  -28.0940   20.1950 C   0  0  0  0  0  0  0  0  0  0  0  0
  -23.8560  -30.7060   21.9050 C   0  0  0  0  0  3  0  0  0  0  0  0
  -25.4510  -29.5020   20.3220 C   0  0  0  0  0  0  0  0  0  0  0  0
  -26.3720  -31.1640   21.9410 C   0  0  0  0  0  2  0  0  0  0  0  0
  -26.5480  -29.9350   21.0760 C   0  0  0  0  0  0  0  0  0  0  0  0
  -27.7740  -29.2360   21.0170 C   0  0  0  0  0  3  0  0  0  0  0  0
  -26.7900  -27.6940   19.4160 C   0  0  0  0  0  3  0  0  0  0  0  0
  -25.5700  -28.3820   19.4860 C   0  0  0  0  0  3  0  0  0  0  0  0
  -24.1750  -30.3030   20.4410 C   0  0  0  0  0  2  0  0  0  0  0  0
  -25.0590  -31.2350   22.6240 N   0  0  0  0  0  0  0  0  0  0  0  0
  -23.7840  -31.9630   24.3520 O   0  0  0  0  0  0  0  0  0  0  0  0
  -23.1930  -29.5060   22.6180 C   0  0  0  0  0  0  0  0  0  0  0  0
  -21.8970  -29.2900   22.3420 N   0  0  0  0  0  0  0  0  0  0  0  0
  -23.8430  -28.7800   23.3730 O   0  0  0  0  0  0  0  0  0  0  0  0
  -21.4330  -29.9360   21.7190 H   0  0  0  0  0  0  0  0  0  0  0  0
  -18.5750  -27.8740   22.2910 C   0  0  0  0  0  0  0  0  0  0  0  0
  -21.0770  -28.1980   22.8610 C   0  0  0  0  0  3  0  0  0  0  0  0
  -21.3240  -26.8940   22.0660 C   0  0  0  0  0  2  0  0  0  0  0  0
  -20.3410  -26.7000   20.9080 C   0  0  0  0  0  2  0  0  0  0  0  0
  -18.8990  -26.6680   21.4240 C   0  0  0  0  0  2  0  0  0  0  0  0
  -19.6010  -28.6030   22.9510 C   0  0  0  0  0  0  0  0  0  0  0  0
  -19.2530  -29.7380   23.7150 C   0  0  0  0  0  3  0  0  0  0  0  0
  -17.9110  -30.1490   23.8240 C   0  0  0  0  0  3  0  0  0  0  0  0
  -16.8980  -29.4190   23.1800 C   0  0  0  0  0  3  0  0  0  0  0  0
  -17.2310  -28.2810   22.4220 C   0  0  0  0  0  3  0  0  0  0  0  0
  -26.1280  -32.3630   24.6500 C   0  0  0  0  0  3  0  0  0  0  0  0
  -26.4740  -31.4880   25.9180 C   0  0  1  0  0  0  0  0  0  0  0  0
  -25.2520  -31.2020   26.8210 C   0  0  0  0  0  1  0  0  0  0  0  0
  -27.0830  -30.1290   25.4940 C   0  0  0  0  0  1  0  0  0  0  0  0
  -27.5460  -32.2030   26.7730 C   0  0  0  0  0  1  0  0  0  0  0  0
  -25.8220  -33.7440   25.0410 N   0  0  0  0  0  0  0  0  0  0  0  0
  -26.2630  -34.8310   24.3930 C   0  0  0  0  0  0  0  0  0  0  0  0
  -27.0440  -34.7720   23.4380 O   0  0  0  0  0  0  0  0  0  0  0  0
  -25.1510  -33.8650   25.7850 H   0  0  0  0  0  0  0  0  0  0  0  0
  -24.6340  -36.6980   23.9630 C   0  0  0  0  0  1  0  0  0  0  0  0
  -25.7600  -36.2030   24.8840 C   0  0  0  0  0  3  0  0  0  0  0  0
  -27.8040  -36.9630   26.0140 C   0  0  0  0  0  1  0  0  0  0  0  0
  -26.8250  -37.2260   24.9620 N   0  0  0  0  0  0  0  0  0  0  0  0
  -26.4270  -38.1490   25.1210 H   0  0  0  0  0  0  0  0  0  0  0  0
  1 53  1  0
  5  4  1  6
  5  2  1  0
  5  1  1  0
  5  3  1  0
  6  1  1  0
  7  9  1  0
  8  7  2  0
 10 12  1  0
 11 10  2  0
 11  8  1  0
 12  6  1  0
 12  9  2  0
 13 11  1  0
 13 14  1  0
 14 23  1  0
 15 21  1  0
 15 23  1  0
 16 21  1  0
 17 18  1  0
 17 16  1  0
 19 18  1  0
 19 28  1  0
 19 20  1  0
 21 20  1  0
 22 15  2  0
 23 24  1  0
 25 26  2  0
 26 45  1  0
 27 26  1  0
 27 30  1  0
 28 29  1  0
 28 25  1  0
 29 27  2  0
 30 31  1  0
 31 32  2  0
 33 36  1  0
 33 32  1  0
 34 33  2  0
 35 34  1  0
 35 30  2  0
 36 37  1  0
 37 42  2  0
 37 38  1  0
 38 39  2  0
 39 40  1  0
 40 44  1  0
 41 40  2  0
 42 41  1  0
 43 42  1  0
 45 46  1  0
 46 49  1  0
 46 48  1  0
 47 45  2  0
 50 25  1  0
 50 51  1  0
 52 50  1  0
 54 53  1  0
 54 55  1  0
 55 58  1  0
 55 57  1  0
 56 55  1  0
 59 60  1  0
 59 54  1  0
 61 72  2  0
 62 60  1  0
 62 67  1  0
 63 73  1  0
 63 71  1  0
 64 70  1  0
 64 66  1  0
 65 71  1  0
 66 65  1  0
 67 66  2  0
 68 69  1  0
 68 62  2  0
 69 64  2  0
 70 63  1  0
 71 61  1  0
 73 75  2  0
 74 73  1  0
 76 74  1  0
 77 86  2  0
 77 82  1  0
 78 74  1  0
 78 82  1  0
 79 78  1  0
 80 81  1  0
 80 79  1  0
 81 77  1  0
 82 83  2  0
 83 84  1  0
 85 84  2  0
 86 85  1  0
 87 61  1  0
 87 92  1  0
 87 88  1  0
 88 91  1  1
 88 89  1  0
 90 88  1  0
 92 95  1  0
 93 97  1  0
 93 92  1  0
 94 93  2  0
 97 96  1  0
 97 99  1  0
 99100  1  0
 99 98  1  0
M  ISO  4  15 100  23 100  59 101  60 101
M  END
>  <TORSDO>  (69) 
F 25

>  <SCORE>  (69) 
-9.794

>  <name>  (69) 
68

>  <ligand_id>  (69) 
68

>  <original_smiles>  (69) 
[H]c1c([H])c([H])c2c(c1[H])C([H])([H])C([H])([H])C([H])([H])C2([H])N([H])C(=O)C1([H])N(C(=O)C([H])(N([H])C(=O)C([H])(N([H])C([H])([H])[H])C([H])([H])[H])C(C([H])([H])[H])(C([H])([H])[H])C([H])([H])[H])C([H])([H])c2c([H])c(OC([H])([H])C([H])(C([H])([H])C([H])(C([H])([H])c3c([H])c([H])c([H])c(C([H])([H])C([H])([H])N([H])C(=O)N4C([H])([H])C([H])([H])C([H])([H])C([H])(n5nc(-c6c([H])c([H])c(Oc7c([H])c([H])c(F)c([H])c7F)c([H])c6[H])c(C(=O)N([H])[H])c5N([H])[H])C4([H])[H])c3[H])C(C([H])([H])[H])(C([H])([H])[H])C([H])([H])[H])[N+]([H])([H])[H])c([H])c([H])c2C1([H])[H]

>  <smiles>  (69) 
[H]c1c([H])c([H])c2c(c1[H])C([H])([H])C([H])([H])C([H])([H])C2([H])N([H])C(=O)C1([H])N(C(=O)C([H])(N([H])C(=O)C([H])(N([H])C([H])([H])[H])C([H])([H])[H])C(C([H])([H])[H])(C([H])([H])[H])C([H])([H])[H])C([H])([H])c2c([H])c(OC([H])([H])C([H])(C([H])([H])C([H])(C([H])([H])c3c([H])c([H])c([H])c(C([H])([H])C([H])([H])N([H])C(=O)N4C([H])([H])C([H])([H])C([H])([H])C([H])(n5nc(-c6c([H])c([H])c(Oc7c([H])c([H])c(F)c([H])c7F)c([H])c6[H])c(C(=O)N([H])[H])c5N([H])[H])C4([H])[H])c3[H])C(C([H])([H])[H])(C([H])([H])[H])C([H])([H])[H])[N+]([H])([H])[H])c([H])c([H])c2C1([H])[H]

$$$$
69:0:0
     RDKit          3D

 99107  0  0  1  0  0  0  0  0999 V2000
  -29.3490  -21.0400   19.9550 C   0  0  0  0  0  0  0  0  0  0  0  0
  -29.8960  -19.8680   19.4780 N   0  0  0  0  0  0  0  0  0  0  0  0
  -28.8160  -21.0410   21.0680 O   0  0  0  0  0  0  0  0  0  0  0  0
  -30.3220  -19.9020   18.5610 H   0  0  0  0  0  0  0  0  0  0  0  0
  -30.9280  -14.8410   19.5990 C   0  0  0  0  0  0  0  0  0  0  0  0
  -30.5880  -12.5710   18.6000 C   0  0  0  0  0  2  0  0  0  0  0  0
  -29.5280  -12.6150   17.4790 C   0  0  0  0  0  2  0  0  0  0  0  0
  -28.1140  -12.4350   18.0640 C   0  0  0  0  0  2  0  0  0  0  0  0
  -27.8640  -13.3400   19.2980 C   0  0  0  0  0  3  0  0  0  0  0  0
  -29.0340  -13.2300   20.3070 C   0  0  0  0  0  2  0  0  0  0  0  0
  -30.2470  -13.6330   19.5830 N   0  0  0  0  0  0  0  0  0  0  0  0
  -32.0830  -14.8300   19.1630 O   0  0  0  0  0  0  0  0  0  0  0  0
  -30.7220  -17.3190   19.4450 C   0  0  0  0  0  0  0  0  0  0  0  0
  -29.1610  -16.3350   20.7710 C   0  0  0  0  0  2  0  0  0  0  0  0
  -30.0600  -18.5330   20.2000 C   0  0  0  0  0  3  0  0  0  0  0  0
  -28.7750  -17.8380   20.6350 C   0  0  0  0  0  3  0  0  0  0  0  0
  -30.2700  -16.0670   19.8330 N   0  0  0  0  0  0  0  0  0  0  0  0
  -31.5670  -17.5520   18.5720 O   0  0  0  0  0  0  0  0  0  0  0  0
  -25.5770  -13.9700   20.2810 C   0  0  0  0  0  0  0  0  0  0  0  0
  -24.5400  -13.2080   20.7440 C   0  0  0  0  0  0  0  0  0  0  0  0
  -24.9590  -11.8480   20.6120 C   0  0  0  0  0  0  0  0  0  0  0  0
  -26.5690  -13.0750   19.9110 N   0  0  0  0  0  0  0  0  0  0  0  0
  -26.2090  -11.7930   20.1690 N   0  0  0  0  0  0  0  0  0  0  0  0
  -24.2220  -10.5960   20.8180 C   0  0  0  0  0  0  0  0  0  0  0  0
  -24.6550   -9.6280   21.7510 C   0  0  0  0  0  3  0  0  0  0  0  0
  -23.9160   -8.4420   21.9480 C   0  0  0  0  0  3  0  0  0  0  0  0
  -22.7310   -8.2130   21.2120 C   0  0  0  0  0  0  0  0  0  0  0  0
  -22.3160   -9.1680   20.2660 C   0  0  0  0  0  3  0  0  0  0  0  0
  -23.0560  -10.3450   20.0660 C   0  0  0  0  0  3  0  0  0  0  0  0
  -21.9640   -7.0800   21.3150 O   0  0  0  0  0  0  0  0  0  0  0  0
  -21.8230   -6.4160   22.5090 C   0  0  0  0  0  0  0  0  0  0  0  0
  -21.2920   -7.0490   23.6540 C   0  0  0  0  0  3  0  0  0  0  0  0
  -21.1010   -6.3110   24.8400 C   0  0  0  0  0  3  0  0  0  0  0  0
  -21.4340   -4.9440   24.8800 C   0  0  0  0  0  0  0  0  0  0  0  0
  -21.9600   -4.3120   23.7410 C   0  0  0  0  0  3  0  0  0  0  0  0
  -22.1520   -5.0470   22.5570 C   0  0  0  0  0  0  0  0  0  0  0  0
  -22.6400   -4.4300   21.4540 F   0  0  0  0  0  0  0  0  0  0  0  0
  -21.2440   -4.2330   26.0160 F   0  0  0  0  0  0  0  0  0  0  0  0
  -23.1910  -13.7060   21.1740 C   0  0  0  0  0  0  0  0  0  0  0  0
  -22.5440  -13.0140   22.1060 N   0  0  0  0  0  0  0  0  0  0  0  0
  -22.7210  -14.7480   20.7170 O   0  0  0  0  0  0  0  0  0  0  0  0
  -22.9340  -12.1720   22.5020 H   0  0  0  0  0  0  0  0  0  0  0  0
  -21.6440  -13.3340   22.4340 H   0  0  0  0  0  0  0  0  0  0  0  0
  -25.7420  -15.3440   20.1180 N   0  0  0  0  0  0  0  0  0  0  0  0
  -24.9180  -15.9260   20.2260 H   0  0  0  0  0  0  0  0  0  0  0  0
  -26.3710  -15.6990   19.4110 H   0  0  0  0  0  0  0  0  0  0  0  0
  -28.1630  -18.4260   21.8440 N   0  0  0  0  0  4  0  0  0  0  0  0
  -28.6670  -18.1810   22.6790 H   0  0  0  0  0  0  0  0  0  0  0  0
  -27.2040  -18.1400   21.9480 H   0  0  0  0  0  0  0  0  0  0  0  0
  -28.1890  -19.4350   21.7520 H   0  0  0  0  0  0  0  0  0  0  0  0
  -29.3150  -22.3910   19.1030 C   0  0  0  0  0  2  0  0  0  0  0  0
  -29.4550  -23.9020   19.7160 C   0  0  0  0  0  3  0  0  0  0  0  0
  -29.9650  -23.9780   21.1750 C   0  0  0  0  0  2  0  0  0  0  0  0
  -28.9320  -23.6800   22.1830 N   0  0  0  0  0  4  0  0  0  0  0  0
  -28.1650  -24.3250   22.1350 H   0  0  0  0  0  0  0  0  0  0  0  0
  -29.3340  -23.7300   23.1050 H   0  0  0  0  0  0  0  0  0  0  0  0
  -28.5950  -22.7370   22.0360 H   0  0  0  0  0  0  0  0  0  0  0  0
  -28.3060  -24.9930   19.4090 C   0  0  0  0  0  2  0  0  0  0  0  0
  -28.4750  -26.4520   19.7180 O   0  0  0  0  0  0  0  0  0  0  0  0
  -24.6210  -31.6310   23.0240 C   0  0  0  0  0  0  0  0  0  0  0  0
  -27.3390  -27.2950   19.7070 C   0  0  0  0  0  0  0  0  0  0  0  0
  -23.4410  -30.2750   21.3330 C   0  0  0  0  0  3  0  0  0  0  0  0
  -24.9210  -28.8460   19.8100 C   0  0  0  0  0  0  0  0  0  0  0  0
  -25.9670  -30.6830   21.1300 C   0  0  0  0  0  2  0  0  0  0  0  0
  -26.0830  -29.3380   20.4150 C   0  0  0  0  0  0  0  0  0  0  0  0
  -27.2930  -28.5740   20.3550 C   0  0  0  0  0  3  0  0  0  0  0  0
  -26.1500  -26.8760   19.0670 C   0  0  0  0  0  3  0  0  0  0  0  0
  -24.9590  -27.6240   19.1220 C   0  0  0  0  0  3  0  0  0  0  0  0
  -23.6570  -29.6740   19.9200 C   0  0  0  0  0  2  0  0  0  0  0  0
  -24.6950  -30.8790   21.8860 N   0  0  0  0  0  0  0  0  0  0  0  0
  -23.5360  -31.8450   23.5860 O   0  0  0  0  0  0  0  0  0  0  0  0
  -22.8240  -29.1920   22.2530 C   0  0  0  0  0  0  0  0  0  0  0  0
  -21.5070  -28.9660   22.1230 N   0  0  0  0  0  0  0  0  0  0  0  0
  -23.5330  -28.5600   23.0410 O   0  0  0  0  0  0  0  0  0  0  0  0
  -20.9910  -29.5320   21.4640 H   0  0  0  0  0  0  0  0  0  0  0  0
  -18.1860  -27.5950   22.5720 C   0  0  0  0  0  0  0  0  0  0  0  0
  -20.7300  -27.9620   22.8570 C   0  0  0  0  0  3  0  0  0  0  0  0
  -20.8980  -26.5600   22.2270 C   0  0  0  0  0  2  0  0  0  0  0  0
  -19.8120  -26.2260   21.2000 C   0  0  0  0  0  2  0  0  0  0  0  0
  -18.4250  -26.2820   21.8460 C   0  0  0  0  0  2  0  0  0  0  0  0
  -19.2690  -28.3920   23.0320 C   0  0  0  0  0  0  0  0  0  0  0  0
  -18.9900  -29.6200   23.6710 C   0  0  0  0  0  3  0  0  0  0  0  0
  -17.6630  -30.0510   23.8550 C   0  0  0  0  0  3  0  0  0  0  0  0
  -16.5960  -29.2530   23.4080 C   0  0  0  0  0  3  0  0  0  0  0  0
  -16.8590  -28.0270   22.7720 C   0  0  0  0  0  3  0  0  0  0  0  0
  -25.8900  -32.2760   23.6600 C   0  0  0  0  0  3  0  0  0  0  0  0
  -25.5400  -33.6480   24.0560 N   0  0  0  0  0  0  0  0  0  0  0  0
  -25.8200  -34.7430   23.3370 C   0  0  0  0  0  0  0  0  0  0  0  0
  -26.4710  -34.7070   22.2890 O   0  0  0  0  0  0  0  0  0  0  0  0
  -24.9560  -33.7460   24.8730 H   0  0  0  0  0  0  0  0  0  0  0  0
  -24.0260  -36.4910   23.1000 C   0  0  0  0  0  1  0  0  0  0  0  0
  -25.2980  -36.0940   23.8650 C   0  0  0  0  0  3  0  0  0  0  0  0
  -27.4150  -37.0210   24.6960 C   0  0  0  0  0  1  0  0  0  0  0  0
  -26.2920  -37.1850   23.7760 N   0  0  0  0  0  0  0  0  0  0  0  0
  -25.8560  -38.0860   23.9650 H   0  0  0  0  0  0  0  0  0  0  0  0
  -26.4430  -31.4660   24.8970 C   0  0  1  0  0  0  0  0  0  0  0  0
  -25.3690  -31.1450   25.9620 C   0  0  0  0  0  1  0  0  0  0  0  0
  -27.0670  -30.1270   24.4380 C   0  0  0  0  0  1  0  0  0  0  0  0
  -27.5730  -32.2690   25.5830 C   0  0  0  0  0  1  0  0  0  0  0  0
  1  3  2  0
  2  1  1  0
  4  2  1  0
  5 17  1  0
  6 11  1  0
  7  8  1  0
  7  6  1  0
  9  8  1  0
  9 22  1  0
  9 10  1  0
 11  5  1  0
 11 10  1  0
 12  5  2  0
 13 17  1  0
 13 15  1  0
 15  2  1  0
 15 16  1  0
 16 14  1  0
 16 47  1  0
 17 14  1  0
 18 13  2  0
 19 20  2  0
 20 39  1  0
 21 20  1  0
 21 24  1  0
 22 23  1  0
 22 19  1  0
 23 21  2  0
 24 25  1  0
 25 26  2  0
 27 30  1  0
 27 26  1  0
 28 27  2  0
 29 28  1  0
 29 24  2  0
 30 31  1  0
 31 36  2  0
 31 32  1  0
 32 33  2  0
 33 34  1  0
 34 38  1  0
 35 34  2  0
 36 35  1  0
 37 36  1  0
 39 40  1  0
 40 43  1  0
 40 42  1  0
 41 39  2  0
 44 45  1  0
 44 19  1  0
 46 44  1  0
 47 49  1  0
 47 48  1  0
 50 47  1  0
 51  1  1  0
 52 51  1  0
 52 53  1  0
 53 54  1  0
 54 56  1  0
 55 54  1  0
 57 54  1  0
 58 52  1  0
 58 59  1  0
 60 71  2  0
 61 59  1  0
 61 66  1  0
 62 70  1  0
 62 72  1  0
 63 69  1  0
 63 65  1  0
 64 70  1  0
 65 64  1  0
 66 65  2  0
 67 68  1  0
 67 61  2  0
 68 63  2  0
 69 62  1  0
 70 60  1  0
 72 74  2  0
 73 72  1  0
 75 73  1  0
 76 85  2  0
 76 81  1  0
 77 73  1  0
 77 81  1  0
 78 77  1  0
 79 80  1  0
 79 78  1  0
 80 76  1  0
 81 82  2  0
 82 83  1  0
 84 83  2  0
 85 84  1  0
 86 60  1  0
 86 87  1  0
 86 96  1  0
 87 90  1  0
 88 92  1  0
 88 87  1  0
 89 88  2  0
 92 91  1  0
 94 92  1  0
 94 95  1  0
 94 93  1  0
 96 99  1  1
 96 97  1  0
 98 96  1  0
M  ISO  4   5 100  17 100  58 101  59 101
M  END
>  <TORSDO>  (70) 
F 22

>  <SCORE>  (70) 
-10.764

>  <name>  (70) 
69

>  <ligand_id>  (70) 
69

>  <original_smiles>  (70) 
[H]c1c([H])c([H])c2c(c1[H])C([H])([H])C([H])([H])C([H])([H])C2([H])N([H])C(=O)C1([H])N(C(=O)C([H])(N([H])C(=O)C([H])(N([H])C([H])([H])[H])C([H])([H])[H])C(C([H])([H])[H])(C([H])([H])[H])C([H])([H])[H])C([H])([H])c2c([H])c(OC([H])([H])C([H])(C([H])([H])C(=O)N([H])C3([H])C(=O)N(C(=O)N4C([H])([H])C([H])([H])C([H])([H])C([H])(n5nc(-c6c([H])c([H])c(Oc7c([H])c([H])c(F)c([H])c7F)c([H])c6[H])c(C(=O)N([H])[H])c5N([H])[H])C4([H])[H])C([H])([H])C3([H])[N+]([H])([H])[H])C([H])([H])[N+]([H])([H])[H])c([H])c([H])c2C1([H])[H]

>  <smiles>  (70) 
[H]c1c([H])c([H])c2c(c1[H])C([H])([H])C([H])([H])C([H])([H])C2([H])N([H])C(=O)C1([H])N(C(=O)C([H])(N([H])C(=O)C([H])(N([H])C([H])([H])[H])C([H])([H])[H])C(C([H])([H])[H])(C([H])([H])[H])C([H])([H])[H])C([H])([H])c2c([H])c(OC([H])([H])C([H])(C([H])([H])C(=O)N([H])C3([H])C(=O)N(C(=O)N4C([H])([H])C([H])([H])C([H])([H])C([H])(n5nc(-c6c([H])c([H])c(Oc7c([H])c([H])c(F)c([H])c7F)c([H])c6[H])c(C(=O)N([H])[H])c5N([H])[H])C4([H])[H])C([H])([H])C3([H])[N+]([H])([H])[H])C([H])([H])[N+]([H])([H])[H])c([H])c([H])c2C1([H])[H]

$$$$
70:0:0
     RDKit          3D

 94102  0  0  1  0  0  0  0  0999 V2000
  -30.1180  -21.6970   20.6900 C   0  0  0  0  0  0  0  0  0  0  0  0
  -28.5870  -22.2090   18.8350 C   0  0  0  0  0  1  0  0  0  0  0  0
  -29.3910  -22.6520   19.9990 N   0  0  0  0  0  0  0  0  0  0  0  0
  -30.9470  -22.1440   21.6300 N   0  0  0  0  0  4  0  0  0  0  0  0
  -31.4810  -21.4760   22.1650 H   0  0  0  0  0  0  0  0  0  0  0  0
  -31.0110  -23.1160   21.8750 H   0  0  0  0  0  0  0  0  0  0  0  0
  -31.2630  -19.3880   20.5890 C   0  0  0  0  0  3  0  0  0  0  0  0
  -31.2260  -17.9550   20.5620 C   0  0  0  0  0  3  0  0  0  0  0  0
  -28.8720  -19.4760   20.4000 C   0  0  0  0  0  3  0  0  0  0  0  0
  -30.0850  -20.1900   20.5170 C   0  0  0  0  0  0  0  0  0  0  0  0
  -28.8300  -18.0520   20.3760 C   0  0  0  0  0  0  0  0  0  0  0  0
  -30.0000  -17.2370   20.4710 C   0  0  0  0  0  0  0  0  0  0  0  0
  -27.4790  -17.4020   20.2180 C   0  0  0  0  0  1  0  0  0  0  0  0
  -30.5970  -14.7190   20.0570 C   0  0  0  0  0  0  0  0  0  0  0  0
  -30.2690  -12.5280   18.9200 C   0  0  0  0  0  2  0  0  0  0  0  0
  -29.2490  -12.7090   17.7730 C   0  0  0  0  0  2  0  0  0  0  0  0
  -27.8050  -12.5470   18.2900 C   0  0  0  0  0  2  0  0  0  0  0  0
  -27.5350  -13.3620   19.5830 C   0  0  0  0  0  3  0  0  0  0  0  0
  -28.6660  -13.1660   20.6200 C   0  0  0  0  0  2  0  0  0  0  0  0
  -29.9430  -13.5130   19.9700 N   0  0  0  0  0  0  0  0  0  0  0  0
  -31.7350  -14.8620   19.6030 O   0  0  0  0  0  0  0  0  0  0  0  0
  -29.8430  -15.7750   20.4970 N   0  0  0  0  0  0  0  0  0  0  0  0
  -28.9340  -15.4730   20.8110 H   0  0  0  0  0  0  0  0  0  0  0  0
  -25.1820  -13.9380   20.4540 C   0  0  0  0  0  0  0  0  0  0  0  0
  -24.1420  -13.1650   20.8790 C   0  0  0  0  0  0  0  0  0  0  0  0
  -24.5970  -11.8160   20.7850 C   0  0  0  0  0  0  0  0  0  0  0  0
  -26.2150  -13.0680   20.1400 N   0  0  0  0  0  0  0  0  0  0  0  0
  -25.8680  -11.7810   20.3990 N   0  0  0  0  0  0  0  0  0  0  0  0
  -23.8730  -10.5550   20.9810 C   0  0  0  0  0  0  0  0  0  0  0  0
  -24.3280   -9.5790   21.8930 C   0  0  0  0  0  3  0  0  0  0  0  0
  -23.6010   -8.3840   22.0800 C   0  0  0  0  0  3  0  0  0  0  0  0
  -22.4070   -8.1580   21.3550 C   0  0  0  0  0  0  0  0  0  0  0  0
  -21.9710   -9.1250   20.4310 C   0  0  0  0  0  3  0  0  0  0  0  0
  -22.6980  -10.3120   20.2430 C   0  0  0  0  0  3  0  0  0  0  0  0
  -21.6500   -7.0150   21.4520 O   0  0  0  0  0  0  0  0  0  0  0  0
  -21.6000   -6.2840   22.6110 C   0  0  0  0  0  0  0  0  0  0  0  0
  -21.1680   -6.8480   23.8320 C   0  0  0  0  0  3  0  0  0  0  0  0
  -21.0670   -6.0430   24.9830 C   0  0  0  0  0  3  0  0  0  0  0  0
  -21.3890   -4.6730   24.9160 C   0  0  0  0  0  0  0  0  0  0  0  0
  -21.8160   -4.1090   23.7010 C   0  0  0  0  0  3  0  0  0  0  0  0
  -21.9190   -4.9120   22.5510 C   0  0  0  0  0  0  0  0  0  0  0  0
  -22.3100   -4.3590   21.3770 F   0  0  0  0  0  0  0  0  0  0  0  0
  -21.2850   -3.8960   26.0200 F   0  0  0  0  0  0  0  0  0  0  0  0
  -22.7680  -13.6470   21.2440 C   0  0  0  0  0  0  0  0  0  0  0  0
  -22.0910  -12.9420   22.1410 N   0  0  0  0  0  0  0  0  0  0  0  0
  -22.3090  -14.6870   20.7710 O   0  0  0  0  0  0  0  0  0  0  0  0
  -22.4790  -12.1020   22.5460 H   0  0  0  0  0  0  0  0  0  0  0  0
  -21.1710  -13.2460   22.4270 H   0  0  0  0  0  0  0  0  0  0  0  0
  -25.3070  -15.3040   20.2770 N   0  0  0  0  0  0  0  0  0  0  0  0
  -24.5050  -15.9110   20.3990 H   0  0  0  0  0  0  0  0  0  0  0  0
  -26.0400  -15.7240   19.7230 H   0  0  0  0  0  0  0  0  0  0  0  0
  -29.5120  -24.1680   20.2310 C   0  0  0  0  0  3  0  0  0  0  0  0
  -28.3020  -25.1240   19.8340 C   0  0  0  0  0  3  0  0  0  0  0  0
  -28.4240  -26.5660   20.1270 O   0  0  0  0  0  0  0  0  0  0  0  0
  -24.6110  -31.8550   23.1810 C   0  0  0  0  0  0  0  0  0  0  0  0
  -27.2740  -27.3690   20.0850 C   0  0  0  0  0  0  0  0  0  0  0  0
  -23.4170  -30.4620   21.5260 C   0  0  0  0  0  3  0  0  0  0  0  0
  -24.8800  -28.9370   20.0900 C   0  0  0  0  0  0  0  0  0  0  0  0
  -25.9490  -30.8100   21.3430 C   0  0  0  0  0  2  0  0  0  0  0  0
  -26.0420  -29.4400   20.6890 C   0  0  0  0  0  0  0  0  0  0  0  0
  -27.2390  -28.6670   20.6780 C   0  0  0  0  0  3  0  0  0  0  0  0
  -26.0840  -26.9120   19.4680 C   0  0  0  0  0  3  0  0  0  0  0  0
  -24.9020  -27.6770   19.4730 C   0  0  0  0  0  3  0  0  0  0  0  0
  -23.6350  -29.7980   20.1410 C   0  0  0  0  0  2  0  0  0  0  0  0
  -24.6770  -31.0600   22.0740 N   0  0  0  0  0  0  0  0  0  0  0  0
  -23.5260  -32.1150   23.7220 O   0  0  0  0  0  0  0  0  0  0  0  0
  -22.7620  -29.4320   22.4790 C   0  0  0  0  0  0  0  0  0  0  0  0
  -21.4350  -29.2580   22.3650 N   0  0  0  0  0  0  0  0  0  0  0  0
  -23.4500  -28.7920   23.2800 O   0  0  0  0  0  0  0  0  0  0  0  0
  -20.9400  -29.8300   21.6940 H   0  0  0  0  0  0  0  0  0  0  0  0
  -18.0560  -28.0820   22.8980 C   0  0  0  0  0  0  0  0  0  0  0  0
  -20.6200  -28.3120   23.1290 C   0  0  0  0  0  3  0  0  0  0  0  0
  -20.6980  -26.8910   22.5230 C   0  0  0  0  0  2  0  0  0  0  0  0
  -19.5770  -26.6010   21.5210 C   0  0  0  0  0  2  0  0  0  0  0  0
  -18.2080  -26.7470   22.1900 C   0  0  0  0  0  2  0  0  0  0  0  0
  -19.1880  -28.8250   23.3250 C   0  0  0  0  0  0  0  0  0  0  0  0
  -18.9930  -30.0770   23.9450 C   0  0  0  0  0  3  0  0  0  0  0  0
  -17.6960  -30.5870   24.1440 C   0  0  0  0  0  3  0  0  0  0  0  0
  -16.5760  -29.8420   23.7320 C   0  0  0  0  0  3  0  0  0  0  0  0
  -16.7570  -28.5920   23.1150 C   0  0  0  0  0  3  0  0  0  0  0  0
  -25.8890  -32.4900   23.8100 C   0  0  0  0  0  3  0  0  0  0  0  0
  -26.4020  -31.7180   25.0880 C   0  0  1  0  0  0  0  0  0  0  0  0
  -25.3070  -31.4780   26.1530 C   0  0  0  0  0  1  0  0  0  0  0  0
  -26.9870  -30.3430   24.6930 C   0  0  0  0  0  1  0  0  0  0  0  0
  -27.5480  -32.5120   25.7560 C   0  0  0  0  0  1  0  0  0  0  0  0
  -25.5720  -33.8870   24.1420 N   0  0  0  0  0  0  0  0  0  0  0  0
  -25.8900  -34.9410   23.3800 C   0  0  0  0  0  0  0  0  0  0  0  0
  -26.5490  -34.8420   22.3400 O   0  0  0  0  0  0  0  0  0  0  0  0
  -24.9880  -34.0380   24.9520 H   0  0  0  0  0  0  0  0  0  0  0  0
  -24.1400  -36.7180   23.0490 C   0  0  0  0  0  1  0  0  0  0  0  0
  -25.3980  -36.3290   23.8400 C   0  0  0  0  0  3  0  0  0  0  0  0
  -27.5400  -37.2360   24.6300 C   0  0  0  0  0  1  0  0  0  0  0  0
  -26.4200  -37.3900   23.7060 N   0  0  0  0  0  0  0  0  0  0  0  0
  -26.0070  -38.3070   23.8580 H   0  0  0  0  0  0  0  0  0  0  0  0
  1  4  2  0
  2  3  1  0
  3 52  1  0
  3  1  1  0
  4  6  1  0
  4  5  1  0
  8  7  1  0
  9 10  1  0
 10  7  2  0
 10  1  1  0
 11  9  2  0
 11 12  1  0
 12 22  1  0
 12  8  2  0
 13 11  1  0
 14 22  1  0
 15 20  1  0
 16 17  1  0
 16 15  1  0
 18 17  1  0
 18 27  1  0
 18 19  1  0
 20 14  1  0
 20 19  1  0
 21 14  2  0
 22 23  1  0
 24 25  2  0
 25 44  1  0
 26 25  1  0
 26 29  1  0
 27 28  1  0
 27 24  1  0
 28 26  2  0
 29 30  1  0
 30 31  2  0
 32 35  1  0
 32 31  1  0
 33 32  2  0
 34 33  1  0
 34 29  2  0
 35 36  1  0
 36 37  1  0
 37 38  2  0
 39 38  1  0
 39 43  1  0
 40 39  2  0
 41 36  2  0
 41 40  1  0
 42 41  1  0
 44 45  1  0
 45 48  1  0
 45 47  1  0
 46 44  2  0
 49 50  1  0
 49 24  1  0
 51 49  1  0
 53 54  1  0
 53 52  2  0
 55 66  2  0
 56 54  1  0
 56 61  1  0
 57 65  1  0
 57 67  1  0
 58 64  1  0
 58 60  1  0
 59 65  1  0
 60 59  1  0
 61 60  2  0
 62 63  1  0
 62 56  2  0
 63 58  2  0
 64 57  1  0
 65 55  1  0
 67 69  2  0
 68 67  1  0
 70 68  1  0
 71 80  2  0
 71 76  1  0
 72 68  1  0
 72 76  1  0
 73 72  1  0
 74 75  1  0
 74 73  1  0
 75 71  1  0
 76 77  2  0
 77 78  1  0
 79 78  2  0
 80 79  1  0
 81 55  1  0
 81 86  1  0
 81 82  1  0
 82 85  1  1
 82 83  1  0
 84 82  1  0
 86 89  1  0
 87 91  1  0
 87 86  1  0
 88 87  2  0
 91 90  1  0
 93 91  1  0
 93 94  1  0
 93 92  1  0
M  ISO  4  14 100  22 100  53 101  54 101
M  END
>  <TORSDO>  (71) 
F 19

>  <SCORE>  (71) 
-14.506

>  <name>  (71) 
70

>  <ligand_id>  (71) 
70

>  <original_smiles>  (71) 
[H]c1c([H])c([H])c2c(c1[H])C([H])([H])C([H])([H])C([H])([H])C2([H])N([H])C(=O)C1([H])N(C(=O)C([H])(N([H])C(=O)C([H])(N([H])C([H])([H])[H])C([H])([H])[H])C(C([H])([H])[H])(C([H])([H])[H])C([H])([H])[H])C([H])([H])c2c([H])c(OC([H])([H])C([H])([H])N(C(c3c([H])c([H])c(N([H])C(=O)N4C([H])([H])C([H])([H])C([H])([H])C([H])(n5nc(-c6c([H])c([H])c(Oc7c([H])c([H])c(F)c([H])c7F)c([H])c6[H])c(C(=O)N([H])[H])c5N([H])[H])C4([H])[H])c(C([H])([H])[H])c3[H])=[N+]([H])[H])C([H])([H])[H])c([H])c([H])c2C1([H])[H]

>  <smiles>  (71) 
[H]c1c([H])c([H])c2c(c1[H])C([H])([H])C([H])([H])C([H])([H])C2([H])N([H])C(=O)C1([H])N(C(=O)C([H])(N([H])C(=O)C([H])(N([H])C([H])([H])[H])C([H])([H])[H])C(C([H])([H])[H])(C([H])([H])[H])C([H])([H])[H])C([H])([H])c2c([H])c(OC([H])([H])C([H])([H])N(C(c3c([H])c([H])c(N([H])C(=O)N4C([H])([H])C([H])([H])C([H])([H])C([H])(n5nc(-c6c([H])c([H])c(Oc7c([H])c([H])c(F)c([H])c7F)c([H])c6[H])c(C(=O)N([H])[H])c5N([H])[H])C4([H])[H])c(C([H])([H])[H])c3[H])=[N+]([H])[H])C([H])([H])[H])c([H])c([H])c2C1([H])[H]

$$$$
71:0:0
     RDKit          3D

 95103  0  0  1  0  0  0  0  0999 V2000
  -27.8760  -21.3800   19.7520 C   0  0  0  0  0  2  0  0  0  0  0  0
  -28.2380  -21.3160   17.6890 C   0  0  0  0  0  2  0  0  0  0  0  0
  -27.2480  -20.5600   18.5980 C   0  0  2  0  0  0  0  0  0  0  0  0
  -28.7530  -22.0870   18.8200 N   0  0  1  0  0  4  0  0  0  0  0  0
  -29.7140  -21.8420   19.0020 H   0  0  0  0  0  0  0  0  0  0  0  0
  -25.2850  -22.2970   18.3110 C   0  0  0  0  0  1  0  0  0  0  0  0
  -25.2620  -20.2110   16.9590 C   0  0  0  0  0  1  0  0  0  0  0  0
  -25.7310  -20.8200   18.2980 C   0  0  0  0  0  3  0  0  0  0  0  0
  -27.3890  -19.0030   18.6700 C   0  0  0  0  0  2  0  0  0  0  0  0
  -28.9420  -17.8390   20.2500 C   0  0  0  0  0  2  0  0  0  0  0  0
  -28.7340  -18.3700   19.0230 C   0  0  0  0  0  3  0  0  0  0  0  0
  -29.7630  -18.3340   17.9010 C   0  0  0  0  0  1  0  0  0  0  0  0
  -29.5150  -16.5960   20.9400 C   0  0  0  0  0  2  0  0  0  0  0  0
  -30.8170  -14.5650   20.3440 C   0  0  0  0  0  0  0  0  0  0  0  0
  -30.5850  -12.2980   19.4560 C   0  0  0  0  0  2  0  0  0  0  0  0
  -29.6800  -12.4040   18.2090 C   0  0  0  0  0  2  0  0  0  0  0  0
  -28.1940  -12.3070   18.6080 C   0  0  0  0  0  2  0  0  0  0  0  0
  -27.8150  -13.2480   19.7850 C   0  0  0  0  0  3  0  0  0  0  0  0
  -28.8410  -13.1380   20.9370 C   0  0  0  0  0  2  0  0  0  0  0  0
  -30.1770  -13.3740   20.3670 N   0  0  0  0  0  0  0  0  0  0  0  0
  -32.0130  -14.6930   20.0810 O   0  0  0  0  0  0  0  0  0  0  0  0
  -30.0120  -15.5870   20.0070 N   0  0  0  0  0  0  0  0  0  0  0  0
  -30.3130  -16.0010   19.1400 H   0  0  0  0  0  0  0  0  0  0  0  0
  -25.4190  -13.9130   20.4390 C   0  0  0  0  0  0  0  0  0  0  0  0
  -24.3270  -13.1650   20.7910 C   0  0  0  0  0  0  0  0  0  0  0  0
  -24.7640  -11.8070   20.7900 C   0  0  0  0  0  0  0  0  0  0  0  0
  -26.4490  -13.0100   20.2460 N   0  0  0  0  0  0  0  0  0  0  0  0
  -26.0600  -11.7370   20.5140 N   0  0  0  0  0  0  0  0  0  0  0  0
  -24.0110  -10.5580   20.9790 C   0  0  0  0  0  0  0  0  0  0  0  0
  -24.4060   -9.5940   21.9330 C   0  0  0  0  0  3  0  0  0  0  0  0
  -23.6570   -8.4130   22.1070 C   0  0  0  0  0  3  0  0  0  0  0  0
  -22.4990   -8.1830   21.3290 C   0  0  0  0  0  0  0  0  0  0  0  0
  -22.1230   -9.1350   20.3640 C   0  0  0  0  0  3  0  0  0  0  0  0
  -22.8720  -10.3100   20.1880 C   0  0  0  0  0  3  0  0  0  0  0  0
  -21.7260   -7.0500   21.4110 O   0  0  0  0  0  0  0  0  0  0  0  0
  -21.6380   -6.3240   22.5710 C   0  0  0  0  0  0  0  0  0  0  0  0
  -21.1770   -6.8960   23.7770 C   0  0  0  0  0  3  0  0  0  0  0  0
  -21.0360   -6.0950   24.9280 C   0  0  0  0  0  3  0  0  0  0  0  0
  -21.3460   -4.7230   24.8730 C   0  0  0  0  0  0  0  0  0  0  0  0
  -21.7970   -4.1480   23.6710 C   0  0  0  0  0  3  0  0  0  0  0  0
  -21.9390   -4.9470   22.5230 C   0  0  0  0  0  0  0  0  0  0  0  0
  -22.3560   -4.3860   21.3620 F   0  0  0  0  0  0  0  0  0  0  0  0
  -21.2020   -3.9510   25.9750 F   0  0  0  0  0  0  0  0  0  0  0  0
  -22.9320  -13.6700   21.0250 C   0  0  0  0  0  0  0  0  0  0  0  0
  -22.1770  -13.0010   21.8890 N   0  0  0  0  0  0  0  0  0  0  0  0
  -22.5230  -14.6960   20.4820 O   0  0  0  0  0  0  0  0  0  0  0  0
  -22.5210  -12.1730   22.3480 H   0  0  0  0  0  0  0  0  0  0  0  0
  -21.2400  -13.3220   22.0930 H   0  0  0  0  0  0  0  0  0  0  0  0
  -25.6160  -15.2770   20.2470 N   0  0  0  0  0  0  0  0  0  0  0  0
  -24.8640  -15.9520   20.3270 H   0  0  0  0  0  0  0  0  0  0  0  0
  -26.4990  -15.6850   19.9670 H   0  0  0  0  0  0  0  0  0  0  0  0
  -28.6170  -23.5630   18.6530 C   0  0  0  0  0  2  0  0  0  0  0  0
  -28.8970  -24.4350   19.8980 C   0  0  0  0  0  2  0  0  0  0  0  0
  -29.1510  -25.9080   19.4900 C   0  0  0  0  0  2  0  0  0  0  0  0
  -28.8270  -26.8500   20.5200 O   0  0  0  0  0  0  0  0  0  0  0  0
  -24.7170  -31.9350   23.3300 C   0  0  0  0  0  0  0  0  0  0  0  0
  -27.6070  -27.4950   20.4660 C   0  0  0  0  0  0  0  0  0  0  0  0
  -23.6160  -30.4630   21.6700 C   0  0  0  0  0  3  0  0  0  0  0  0
  -25.1690  -28.9310   20.3510 C   0  0  0  0  0  0  0  0  0  0  0  0
  -26.1380  -30.8830   21.5760 C   0  0  0  0  0  2  0  0  0  0  0  0
  -26.2820  -29.4960   20.9810 C   0  0  0  0  0  0  0  0  0  0  0  0
  -27.4980  -28.7810   21.0460 C   0  0  0  0  0  3  0  0  0  0  0  0
  -26.4600  -26.9300   19.8540 C   0  0  0  0  0  3  0  0  0  0  0  0
  -25.2500  -27.6480   19.7850 C   0  0  0  0  0  3  0  0  0  0  0  0
  -23.9020  -29.7580   20.3190 C   0  0  0  0  0  2  0  0  0  0  0  0
  -24.8390  -31.1110   22.2500 N   0  0  0  0  0  0  0  0  0  0  0  0
  -23.6070  -32.1930   23.8150 O   0  0  0  0  0  0  0  0  0  0  0  0
  -22.9500  -29.4510   22.6300 C   0  0  0  0  0  0  0  0  0  0  0  0
  -21.6300  -29.2520   22.4660 N   0  0  0  0  0  0  0  0  0  0  0  0
  -23.6160  -28.8520   23.4810 O   0  0  0  0  0  0  0  0  0  0  0  0
  -21.1570  -29.7770   21.7430 H   0  0  0  0  0  0  0  0  0  0  0  0
  -18.2530  -28.0650   22.9140 C   0  0  0  0  0  0  0  0  0  0  0  0
  -20.8020  -28.3260   23.2330 C   0  0  0  0  0  3  0  0  0  0  0  0
  -20.9140  -26.8890   22.6800 C   0  0  0  0  0  2  0  0  0  0  0  0
  -19.8390  -26.5570   21.6420 C   0  0  0  0  0  2  0  0  0  0  0  0
  -18.4410  -26.7140   22.2470 C   0  0  0  0  0  2  0  0  0  0  0  0
  -19.3640  -28.8270   23.3620 C   0  0  0  0  0  0  0  0  0  0  0  0
  -19.1350  -30.0990   23.9310 C   0  0  0  0  0  3  0  0  0  0  0  0
  -17.8290  -30.6010   24.0680 C   0  0  0  0  0  3  0  0  0  0  0  0
  -16.7340  -29.8330   23.6420 C   0  0  0  0  0  3  0  0  0  0  0  0
  -16.9460  -28.5710   23.0640 C   0  0  0  0  0  3  0  0  0  0  0  0
  -25.9610  -32.6140   23.9890 C   0  0  0  0  0  3  0  0  0  0  0  0
  -25.6060  -34.0110   24.2680 N   0  0  0  0  0  0  0  0  0  0  0  0
  -25.9450  -35.0510   23.4920 C   0  0  0  0  0  0  0  0  0  0  0  0
  -26.6570  -34.9360   22.4900 O   0  0  0  0  0  0  0  0  0  0  0  0
  -24.9660  -34.1730   25.0320 H   0  0  0  0  0  0  0  0  0  0  0  0
  -24.1800  -36.7810   23.0260 C   0  0  0  0  0  1  0  0  0  0  0  0
  -25.4060  -36.4370   23.8880 C   0  0  0  0  0  3  0  0  0  0  0  0
  -27.4880  -37.4060   24.7590 C   0  0  0  0  0  1  0  0  0  0  0  0
  -26.4150  -37.5150   23.7750 N   0  0  0  0  0  0  0  0  0  0  0  0
  -25.9770  -38.4270   23.8820 H   0  0  0  0  0  0  0  0  0  0  0  0
  -26.4430  -31.8860   25.3030 C   0  0  1  0  0  0  0  0  0  0  0  0
  -25.3070  -31.6200   26.3200 C   0  0  0  0  0  1  0  0  0  0  0  0
  -27.0990  -30.5270   24.9640 C   0  0  0  0  0  1  0  0  0  0  0  0
  -27.5270  -32.7370   26.0070 C   0  0  0  0  0  1  0  0  0  0  0  0
  2  3  1  0
  2  4  1  0
  3  9  1  1
  3  1  1  0
  4  5  1  1
  4  1  1  0
  7  8  1  0
  8  6  1  0
  8  3  1  0
  9 11  1  0
 10 13  1  0
 11 12  1  0
 11 10  1  0
 14 20  1  0
 15 20  1  0
 16 17  1  0
 16 15  1  0
 18 17  1  0
 18 27  1  0
 18 19  1  0
 20 19  1  0
 21 14  2  0
 22 14  1  0
 22 13  1  0
 23 22  1  0
 24 25  2  0
 25 44  1  0
 26 25  1  0
 26 29  1  0
 27 24  1  0
 27 28  1  0
 28 26  2  0
 29 30  1  0
 30 31  2  0
 32 35  1  0
 32 31  1  0
 33 32  2  0
 34 33  1  0
 34 29  2  0
 35 36  1  0
 36 37  1  0
 37 38  2  0
 39 38  1  0
 39 43  1  0
 40 39  2  0
 41 36  2  0
 41 40  1  0
 42 41  1  0
 44 45  1  0
 45 48  1  0
 45 47  1  0
 46 44  2  0
 49 50  1  0
 49 24  1  0
 51 49  1  0
 52  4  1  0
 52 53  1  0
 54 53  1  0
 54 55  1  0
 56 67  2  0
 57 55  1  0
 57 62  1  0
 58 66  1  0
 58 68  1  0
 59 61  1  0
 60 66  1  0
 61 62  2  0
 61 60  1  0
 63 57  2  0
 64 63  1  0
 64 59  2  0
 65 59  1  0
 65 58  1  0
 66 56  1  0
 68 70  2  0
 69 68  1  0
 71 69  1  0
 72 81  2  0
 72 77  1  0
 73 69  1  0
 73 77  1  0
 74 73  1  0
 75 76  1  0
 75 74  1  0
 76 72  1  0
 77 78  2  0
 78 79  1  0
 80 79  2  0
 81 80  1  0
 82 56  1  0
 82 83  1  0
 82 92  1  0
 83 86  1  0
 84 88  1  0
 84 83  1  0
 85 84  2  0
 88 87  1  0
 90 91  1  0
 90 88  1  0
 90 89  1  0
 92 95  1  1
 92 93  1  0
 94 92  1  0
M  ISO  4  14 100  22 100  54 101  55 101
M  END
>  <TORSDO>  (72) 
F 23

>  <SCORE>  (72) 
-12.880

>  <name>  (72) 
71

>  <ligand_id>  (72) 
71

>  <original_smiles>  (72) 
[H]C(=C(C([H])([H])[H])C([H])([H])C1(C([H])(C([H])([H])[H])C([H])([H])[H])C([H])([H])[N+]([H])(C([H])([H])C([H])([H])C([H])([H])Oc2c([H])c([H])c3c(c2[H])C([H])([H])N(C(=O)C([H])(N([H])C(=O)C([H])(N([H])C([H])([H])[H])C([H])([H])[H])C(C([H])([H])[H])(C([H])([H])[H])C([H])([H])[H])C([H])(C(=O)N([H])C2([H])c4c([H])c([H])c([H])c([H])c4C([H])([H])C([H])([H])C2([H])[H])C3([H])[H])C1([H])[H])C([H])([H])N([H])C(=O)N1C([H])([H])C([H])([H])C([H])([H])C([H])(n2nc(-c3c([H])c([H])c(Oc4c([H])c([H])c(F)c([H])c4F)c([H])c3[H])c(C(=O)N([H])[H])c2N([H])[H])C1([H])[H]

>  <smiles>  (72) 
[H]C(=C(C([H])([H])[H])C([H])([H])C1(C([H])(C([H])([H])[H])C([H])([H])[H])C([H])([H])[N+]([H])(C([H])([H])C([H])([H])C([H])([H])Oc2c([H])c([H])c3c(c2[H])C([H])([H])N(C(=O)C([H])(N([H])C(=O)C([H])(N([H])C([H])([H])[H])C([H])([H])[H])C(C([H])([H])[H])(C([H])([H])[H])C([H])([H])[H])C([H])(C(=O)N([H])C2([H])c4c([H])c([H])c([H])c([H])c4C([H])([H])C([H])([H])C2([H])[H])C3([H])[H])C1([H])[H])C([H])([H])N([H])C(=O)N1C([H])([H])C([H])([H])C([H])([H])C([H])(n2nc(-c3c([H])c([H])c(Oc4c([H])c([H])c(F)c([H])c4F)c([H])c3[H])c(C(=O)N([H])[H])c2N([H])[H])C1([H])[H]

$$$$
72:0:0
     RDKit          3D

 94102  0  0  1  0  0  0  0  0999 V2000
  -30.7570  -23.2100   21.9410 C   0  0  0  0  0  2  0  0  0  0  0  0
  -29.7450  -24.3480   21.9970 C   0  0  0  0  0  2  0  0  0  0  0  0
  -29.9110  -22.5460   20.8480 C   0  0  0  0  0  3  0  0  0  0  0  0
  -28.8670  -23.5650   21.1270 N   0  0  2  0  0  4  0  0  0  0  0  0
  -28.1630  -23.1350   21.7090 H   0  0  0  0  0  0  0  0  0  0  0  0
  -29.4420  -21.1330   21.2310 C   0  0  0  0  0  3  0  0  0  0  0  0
  -29.9940  -19.8930   21.0850 C   0  0  0  0  0  0  0  0  0  0  0  0
  -29.2760  -18.6710   21.6570 C   0  0  0  0  0  1  0  0  0  0  0  0
  -32.4210  -20.4780   20.7750 C   0  0  0  0  0  1  0  0  0  0  0  0
  -31.3320  -19.5360   20.4150 N   0  0  1  0  0  4  0  0  0  0  0  0
  -31.2160  -19.6740   19.4210 H   0  0  0  0  0  0  0  0  0  0  0  0
  -31.8320  -18.1110   20.5110 C   0  0  0  0  0  2  0  0  0  0  0  0
  -31.0730  -17.0940   19.6200 C   0  0  0  0  0  2  0  0  0  0  0  0
  -31.7300  -14.6520   19.8080 C   0  0  0  0  0  0  0  0  0  0  0  0
  -31.3400  -12.3660   18.9740 C   0  0  0  0  0  2  0  0  0  0  0  0
  -30.3730  -12.4840   17.7730 C   0  0  0  0  0  2  0  0  0  0  0  0
  -28.9010  -12.4950   18.2430 C   0  0  0  0  0  2  0  0  0  0  0  0
  -28.6510  -13.4770   19.4180 C   0  0  0  0  0  3  0  0  0  0  0  0
  -29.7250  -13.3050   20.5170 C   0  0  0  0  0  2  0  0  0  0  0  0
  -31.0480  -13.4770   19.8920 N   0  0  0  0  0  0  0  0  0  0  0  0
  -32.8310  -14.7670   19.2620 O   0  0  0  0  0  0  0  0  0  0  0  0
  -31.0070  -15.7270   20.1720 N   0  0  0  0  0  0  0  0  0  0  0  0
  -30.1520  -15.5000   20.6590 H   0  0  0  0  0  0  0  0  0  0  0  0
  -26.3670  -14.3310   20.2450 C   0  0  0  0  0  0  0  0  0  0  0  0
  -25.2420  -13.6730   20.6620 C   0  0  0  0  0  0  0  0  0  0  0  0
  -25.5520  -12.2800   20.5920 C   0  0  0  0  0  0  0  0  0  0  0  0
  -27.2980  -13.3460   19.9530 N   0  0  0  0  0  0  0  0  0  0  0  0
  -26.8110  -12.1060   20.2160 N   0  0  0  0  0  0  0  0  0  0  0  0
  -24.7060  -11.0990   20.8060 C   0  0  0  0  0  0  0  0  0  0  0  0
  -25.0520  -10.1040   21.7460 C   0  0  0  0  0  3  0  0  0  0  0  0
  -24.2150   -8.9850   21.9470 C   0  0  0  0  0  3  0  0  0  0  0  0
  -23.0160   -8.8550   21.2070 C   0  0  0  0  0  0  0  0  0  0  0  0
  -22.6880   -9.8370   20.2550 C   0  0  0  0  0  3  0  0  0  0  0  0
  -23.5260  -10.9460   20.0520 C   0  0  0  0  0  3  0  0  0  0  0  0
  -22.1540   -7.7910   21.3150 O   0  0  0  0  0  0  0  0  0  0  0  0
  -21.9880   -7.1160   22.4980 C   0  0  0  0  0  0  0  0  0  0  0  0
  -21.5710   -7.7720   23.6780 C   0  0  0  0  0  3  0  0  0  0  0  0
  -21.3460   -7.0290   24.8540 C   0  0  0  0  0  3  0  0  0  0  0  0
  -21.5280   -5.6340   24.8510 C   0  0  0  0  0  0  0  0  0  0  0  0
  -21.9410   -4.9790   23.6770 C   0  0  0  0  0  3  0  0  0  0  0  0
  -22.1670   -5.7180   22.5040 C   0  0  0  0  0  0  0  0  0  0  0  0
  -22.5410   -5.0790   21.3700 F   0  0  0  0  0  0  0  0  0  0  0  0
  -21.3060   -4.9190   25.9800 F   0  0  0  0  0  0  0  0  0  0  0  0
  -23.9200  -14.2920   21.0140 C   0  0  0  0  0  0  0  0  0  0  0  0
  -23.1750  -13.6710   21.9220 N   0  0  0  0  0  0  0  0  0  0  0  0
  -23.5600  -15.3590   20.5180 O   0  0  0  0  0  0  0  0  0  0  0  0
  -23.4810  -12.8080   22.3490 H   0  0  0  0  0  0  0  0  0  0  0  0
  -22.2860  -14.0660   22.1970 H   0  0  0  0  0  0  0  0  0  0  0  0
  -26.6720  -15.6790   20.0710 N   0  0  0  0  0  0  0  0  0  0  0  0
  -25.9860  -16.4120   20.2140 H   0  0  0  0  0  0  0  0  0  0  0  0
  -27.5360  -16.0190   19.6710 H   0  0  0  0  0  0  0  0  0  0  0  0
  -28.1670  -24.2320   19.9840 C   0  0  0  0  0  2  0  0  0  0  0  0
  -28.8520  -25.4580   19.3130 C   0  0  0  0  0  2  0  0  0  0  0  0
  -28.6650  -26.7090   20.0110 O   0  0  0  0  0  0  0  0  0  0  0  0
  -24.5780  -31.6350   23.1210 C   0  0  0  0  0  0  0  0  0  0  0  0
  -27.4490  -27.3710   19.9700 C   0  0  0  0  0  0  0  0  0  0  0  0
  -23.4600  -30.2460   21.4070 C   0  0  0  0  0  3  0  0  0  0  0  0
  -24.9990  -28.8050   19.9690 C   0  0  0  0  0  0  0  0  0  0  0  0
  -25.9760  -30.6920   21.2840 C   0  0  0  0  0  2  0  0  0  0  0  0
  -26.1230  -29.3440   20.6070 C   0  0  0  0  0  0  0  0  0  0  0  0
  -27.3450  -28.6310   20.6080 C   0  0  0  0  0  3  0  0  0  0  0  0
  -26.3000  -26.8510   19.3240 C   0  0  0  0  0  3  0  0  0  0  0  0
  -25.0820  -27.5570   19.3280 C   0  0  0  0  0  3  0  0  0  0  0  0
  -23.7240  -29.6180   20.0130 C   0  0  0  0  0  2  0  0  0  0  0  0
  -24.6880  -30.8720   21.9960 N   0  0  0  0  0  0  0  0  0  0  0  0
  -23.4750  -31.8530   23.6430 O   0  0  0  0  0  0  0  0  0  0  0  0
  -22.8230  -29.1730   22.3180 C   0  0  0  0  0  0  0  0  0  0  0  0
  -21.5020  -28.9760   22.1770 N   0  0  0  0  0  0  0  0  0  0  0  0
  -23.5140  -28.5210   23.1060 O   0  0  0  0  0  0  0  0  0  0  0  0
  -21.0040  -29.5540   21.5150 H   0  0  0  0  0  0  0  0  0  0  0  0
  -18.1400  -27.7400   22.6370 C   0  0  0  0  0  0  0  0  0  0  0  0
  -20.6970  -27.9930   22.9010 C   0  0  0  0  0  3  0  0  0  0  0  0
  -20.8030  -26.5980   22.2440 C   0  0  0  0  0  2  0  0  0  0  0  0
  -19.6930  -26.3270   21.2230 C   0  0  0  0  0  2  0  0  0  0  0  0
  -18.3160  -26.4310   21.8850 C   0  0  0  0  0  2  0  0  0  0  0  0
  -19.2580  -28.4810   23.1000 C   0  0  0  0  0  0  0  0  0  0  0  0
  -19.0410  -29.7110   23.7590 C   0  0  0  0  0  3  0  0  0  0  0  0
  -17.7360  -30.1960   23.9620 C   0  0  0  0  0  3  0  0  0  0  0  0
  -16.6300  -29.4500   23.5170 C   0  0  0  0  0  3  0  0  0  0  0  0
  -16.8330  -28.2230   22.8600 C   0  0  0  0  0  3  0  0  0  0  0  0
  -25.8270  -32.2870   23.7910 C   0  0  0  0  0  3  0  0  0  0  0  0
  -25.4820  -33.6780   24.1190 N   0  0  0  0  0  0  0  0  0  0  0  0
  -25.8160  -34.7390   23.3750 C   0  0  0  0  0  0  0  0  0  0  0  0
  -26.5220  -34.6540   22.3660 O   0  0  0  0  0  0  0  0  0  0  0  0
  -24.8650  -33.8170   24.9060 H   0  0  0  0  0  0  0  0  0  0  0  0
  -24.0580  -36.4900   22.9730 C   0  0  0  0  0  1  0  0  0  0  0  0
  -25.2840  -36.1150   23.8200 C   0  0  0  0  0  3  0  0  0  0  0  0
  -27.3690  -37.0470   24.7170 C   0  0  0  0  0  1  0  0  0  0  0  0
  -26.2940  -37.1920   23.7380 N   0  0  0  0  0  0  0  0  0  0  0  0
  -25.8620  -38.1030   23.8760 H   0  0  0  0  0  0  0  0  0  0  0  0
  -26.3170  -31.5170   25.0790 C   0  0  1  0  0  0  0  0  0  0  0  0
  -25.1920  -31.2480   26.1060 C   0  0  0  0  0  1  0  0  0  0  0  0
  -26.9380  -30.1540   24.6920 C   0  0  0  0  0  1  0  0  0  0  0  0
  -27.4270  -32.3270   25.7880 C   0  0  0  0  0  1  0  0  0  0  0  0
  1  2  1  0
  3  4  1  0
  3  6  1  0
  3  1  1  0
  4  5  1  1
  4  2  1  0
  7  6  2  0
  7  8  1  0
 10 12  1  0
 10  9  1  0
 10  7  1  0
 10 11  1  6
 13 22  1  0
 13 12  1  0
 14 20  1  0
 14 22  1  0
 15 20  1  0
 16 17  1  0
 16 15  1  0
 18 17  1  0
 18 27  1  0
 18 19  1  0
 20 19  1  0
 21 14  2  0
 22 23  1  0
 24 25  2  0
 25 44  1  0
 26 25  1  0
 26 29  1  0
 27 28  1  0
 27 24  1  0
 28 26  2  0
 29 30  1  0
 30 31  2  0
 32 35  1  0
 32 31  1  0
 33 32  2  0
 34 33  1  0
 34 29  2  0
 35 36  1  0
 36 41  2  0
 36 37  1  0
 37 38  2  0
 39 38  1  0
 39 43  1  0
 40 39  2  0
 41 40  1  0
 42 41  1  0
 44 45  1  0
 45 48  1  0
 45 47  1  0
 46 44  2  0
 49 50  1  0
 49 24  1  0
 51 49  1  0
 52  4  1  0
 53 52  1  0
 53 54  1  0
 55 66  2  0
 56 54  1  0
 56 61  1  0
 57 65  1  0
 57 67  1  0
 58 64  1  0
 58 60  1  0
 59 65  1  0
 60 61  2  0
 60 59  1  0
 62 63  1  0
 62 56  2  0
 63 58  2  0
 64 57  1  0
 65 55  1  0
 67 69  2  0
 68 67  1  0
 70 68  1  0
 71 80  2  0
 71 76  1  0
 72 68  1  0
 72 76  1  0
 73 72  1  0
 74 75  1  0
 74 73  1  0
 75 71  1  0
 76 77  2  0
 77 78  1  0
 79 78  2  0
 80 79  1  0
 81 55  1  0
 81 82  1  0
 81 91  1  0
 82 85  1  0
 83 87  1  0
 83 82  1  0
 84 83  2  0
 87 86  1  0
 89 87  1  0
 89 90  1  0
 89 88  1  0
 91 94  1  1
 91 92  1  0
 93 91  1  0
M  ISO  4  14 100  22 100  53 101  54 101
M  END
>  <TORSDO>  (73) 
F 22

>  <SCORE>  (73) 
-11.026

>  <name>  (73) 
72

>  <ligand_id>  (73) 
72

>  <original_smiles>  (73) 
[H]C(=C(C([H])([H])[H])[N+]([H])(C([H])([H])[H])C([H])([H])C([H])([H])N([H])C(=O)N1C([H])([H])C([H])([H])C([H])([H])C([H])(n2nc(-c3c([H])c([H])c(Oc4c([H])c([H])c(F)c([H])c4F)c([H])c3[H])c(C(=O)N([H])[H])c2N([H])[H])C1([H])[H])C1([H])C([H])([H])C([H])([H])[N+]1([H])C([H])([H])C([H])([H])Oc1c([H])c([H])c2c(c1[H])C([H])([H])N(C(=O)C([H])(N([H])C(=O)C([H])(N([H])C([H])([H])[H])C([H])([H])[H])C(C([H])([H])[H])(C([H])([H])[H])C([H])([H])[H])C([H])(C(=O)N([H])C1([H])c3c([H])c([H])c([H])c([H])c3C([H])([H])C([H])([H])C1([H])[H])C2([H])[H]

>  <smiles>  (73) 
[H]C(=C(C([H])([H])[H])[N+]([H])(C([H])([H])[H])C([H])([H])C([H])([H])N([H])C(=O)N1C([H])([H])C([H])([H])C([H])([H])C([H])(n2nc(-c3c([H])c([H])c(Oc4c([H])c([H])c(F)c([H])c4F)c([H])c3[H])c(C(=O)N([H])[H])c2N([H])[H])C1([H])[H])C1([H])C([H])([H])C([H])([H])[N+]1([H])C([H])([H])C([H])([H])Oc1c([H])c([H])c2c(c1[H])C([H])([H])N(C(=O)C([H])(N([H])C(=O)C([H])(N([H])C([H])([H])[H])C([H])([H])[H])C(C([H])([H])[H])(C([H])([H])[H])C([H])([H])[H])C([H])(C(=O)N([H])C1([H])c3c([H])c([H])c([H])c([H])c3C([H])([H])C([H])([H])C1([H])[H])C2([H])[H]

$$$$
73:0:0
     RDKit          3D

 93101  0  0  1  0  0  0  0  0999 V2000
  -30.3500  -23.4540   18.0380 C   0  0  0  0  0  3  0  0  0  0  0  0
  -30.2890  -22.1400   18.5400 C   0  0  0  0  0  3  0  0  0  0  0  0
  -29.7260  -24.5130   18.7290 C   0  0  0  0  0  3  0  0  0  0  0  0
  -28.9500  -22.9310   20.4120 C   0  0  0  0  0  3  0  0  0  0  0  0
  -29.5960  -21.8610   19.7380 C   0  0  0  0  0  0  0  0  0  0  0  0
  -29.0240  -24.2620   19.9240 C   0  0  0  0  0  0  0  0  0  0  0  0
  -29.5090  -20.4060   20.2420 C   0  0  0  0  0  2  0  0  0  0  0  0
  -30.2780  -20.1290   21.5580 C   0  0  0  0  0  0  0  0  0  0  0  0
  -31.3170  -18.5820   23.1640 C   0  0  0  0  0  1  0  0  0  0  0  0
  -30.7860  -18.8910   21.8300 N   0  0  0  0  0  0  0  0  0  0  0  0
  -30.3580  -21.0410   22.3890 O   0  0  0  0  0  0  0  0  0  0  0  0
  -31.0520  -17.8030   20.8680 C   0  0  0  0  0  2  0  0  0  0  0  0
  -29.8250  -16.9120   20.5580 C   0  0  0  0  0  2  0  0  0  0  0  0
  -30.6750  -14.5240   20.4900 C   0  0  0  0  0  0  0  0  0  0  0  0
  -30.4130  -12.3580   19.3440 C   0  0  0  0  0  2  0  0  0  0  0  0
  -29.4720  -12.5740   18.1360 C   0  0  0  0  0  2  0  0  0  0  0  0
  -27.9930  -12.4510   18.5560 C   0  0  0  0  0  2  0  0  0  0  0  0
  -27.6610  -13.2840   19.8240 C   0  0  0  0  0  3  0  0  0  0  0  0
  -28.7040  -13.0190   20.9360 C   0  0  0  0  0  2  0  0  0  0  0  0
  -30.0390  -13.3240   20.3880 N   0  0  0  0  0  0  0  0  0  0  0  0
  -31.7800  -14.7480   19.9890 O   0  0  0  0  0  0  0  0  0  0  0  0
  -29.9080  -15.5080   20.9990 N   0  0  0  0  0  0  0  0  0  0  0  0
  -29.0820  -15.1670   21.4710 H   0  0  0  0  0  0  0  0  0  0  0  0
  -25.2630  -13.9430   20.4980 C   0  0  0  0  0  0  0  0  0  0  0  0
  -24.1790  -13.1910   20.8680 C   0  0  0  0  0  0  0  0  0  0  0  0
  -24.6190  -11.8320   20.8550 C   0  0  0  0  0  0  0  0  0  0  0  0
  -26.2970  -13.0410   20.2880 N   0  0  0  0  0  0  0  0  0  0  0  0
  -25.9100  -11.7690   20.5570 N   0  0  0  0  0  0  0  0  0  0  0  0
  -23.8740  -10.5840   21.0480 C   0  0  0  0  0  0  0  0  0  0  0  0
  -24.3010   -9.6040   21.9720 C   0  0  0  0  0  3  0  0  0  0  0  0
  -23.5570   -8.4190   22.1540 C   0  0  0  0  0  3  0  0  0  0  0  0
  -22.3710   -8.2060   21.4100 C   0  0  0  0  0  0  0  0  0  0  0  0
  -21.9640   -9.1740   20.4740 C   0  0  0  0  0  3  0  0  0  0  0  0
  -22.7080  -10.3500   20.2920 C   0  0  0  0  0  3  0  0  0  0  0  0
  -21.5980   -7.0740   21.5010 O   0  0  0  0  0  0  0  0  0  0  0  0
  -21.5640   -6.3150   22.6430 C   0  0  0  0  0  0  0  0  0  0  0  0
  -21.2020   -6.8660   23.8920 C   0  0  0  0  0  3  0  0  0  0  0  0
  -21.1140   -6.0350   25.0280 C   0  0  0  0  0  3  0  0  0  0  0  0
  -21.3750   -4.6560   24.9150 C   0  0  0  0  0  0  0  0  0  0  0  0
  -21.7280   -4.1060   23.6700 C   0  0  0  0  0  3  0  0  0  0  0  0
  -21.8190   -4.9330   22.5370 C   0  0  0  0  0  0  0  0  0  0  0  0
  -22.1400   -4.3950   21.3350 F   0  0  0  0  0  0  0  0  0  0  0  0
  -21.2830   -3.8560   26.0030 F   0  0  0  0  0  0  0  0  0  0  0  0
  -22.7870  -13.6930   21.1250 C   0  0  0  0  0  0  0  0  0  0  0  0
  -22.0400  -13.0210   21.9940 N   0  0  0  0  0  0  0  0  0  0  0  0
  -22.3680  -14.7200   20.5930 O   0  0  0  0  0  0  0  0  0  0  0  0
  -22.3900  -12.1940   22.4550 H   0  0  0  0  0  0  0  0  0  0  0  0
  -21.1020  -13.3400   22.2000 H   0  0  0  0  0  0  0  0  0  0  0  0
  -25.4470  -15.3090   20.3080 N   0  0  0  0  0  0  0  0  0  0  0  0
  -24.6840  -15.9720   20.4040 H   0  0  0  0  0  0  0  0  0  0  0  0
  -26.3000  -15.7380   19.9680 H   0  0  0  0  0  0  0  0  0  0  0  0
  -28.3430  -25.3940   20.6990 C   0  0  0  0  0  2  0  0  0  0  0  0
  -28.4310  -26.7000   20.0940 O   0  0  0  0  0  0  0  0  0  0  0  0
  -24.6390  -31.8900   23.2100 C   0  0  0  0  0  0  0  0  0  0  0  0
  -27.2670  -27.4410   20.1190 C   0  0  0  0  0  0  0  0  0  0  0  0
  -23.4210  -30.4810   21.5810 C   0  0  0  0  0  3  0  0  0  0  0  0
  -24.8670  -28.9400   20.1530 C   0  0  0  0  0  0  0  0  0  0  0  0
  -25.9460  -30.8420   21.3620 C   0  0  0  0  0  2  0  0  0  0  0  0
  -26.0300  -29.4690   20.7250 C   0  0  0  0  0  0  0  0  0  0  0  0
  -27.2350  -28.7280   20.7060 C   0  0  0  0  0  3  0  0  0  0  0  0
  -26.0880  -26.9280   19.5360 C   0  0  0  0  0  3  0  0  0  0  0  0
  -24.8910  -27.6660   19.5570 C   0  0  0  0  0  3  0  0  0  0  0  0
  -23.6210  -29.7960   20.2040 C   0  0  0  0  0  2  0  0  0  0  0  0
  -24.6870  -31.0860   22.1080 N   0  0  0  0  0  0  0  0  0  0  0  0
  -23.5630  -32.1600   23.7580 O   0  0  0  0  0  0  0  0  0  0  0  0
  -22.7790  -29.4630   22.5510 C   0  0  0  0  0  0  0  0  0  0  0  0
  -21.4530  -29.2810   22.4370 N   0  0  0  0  0  0  0  0  0  0  0  0
  -23.4720  -28.8370   23.3580 O   0  0  0  0  0  0  0  0  0  0  0  0
  -20.9580  -29.8350   21.7530 H   0  0  0  0  0  0  0  0  0  0  0  0
  -18.0850  -28.0890   22.9650 C   0  0  0  0  0  0  0  0  0  0  0  0
  -20.6450  -28.3460   23.2160 C   0  0  0  0  0  3  0  0  0  0  0  0
  -20.7430  -26.9130   22.6440 C   0  0  0  0  0  2  0  0  0  0  0  0
  -19.6330  -26.5880   21.6400 C   0  0  0  0  0  2  0  0  0  0  0  0
  -18.2560  -26.7360   22.2930 C   0  0  0  0  0  2  0  0  0  0  0  0
  -19.2070  -28.8510   23.3840 C   0  0  0  0  0  0  0  0  0  0  0  0
  -18.9950  -30.1170   23.9710 C   0  0  0  0  0  3  0  0  0  0  0  0
  -17.6920  -30.6210   24.1440 C   0  0  0  0  0  3  0  0  0  0  0  0
  -16.5840  -29.8550   23.7420 C   0  0  0  0  0  3  0  0  0  0  0  0
  -16.7800  -28.5910   23.1580 C   0  0  0  0  0  3  0  0  0  0  0  0
  -25.9300  -32.5220   23.8190 C   0  0  0  0  0  3  0  0  0  0  0  0
  -25.6150  -33.9150   24.1650 N   0  0  0  0  0  0  0  0  0  0  0  0
  -25.9310  -34.9760   23.4130 C   0  0  0  0  0  0  0  0  0  0  0  0
  -26.5900  -34.8880   22.3720 O   0  0  0  0  0  0  0  0  0  0  0  0
  -25.0300  -34.0580   24.9750 H   0  0  0  0  0  0  0  0  0  0  0  0
  -24.1790  -36.7510   23.1020 C   0  0  0  0  0  1  0  0  0  0  0  0
  -25.4380  -36.3550   23.8900 C   0  0  0  0  0  3  0  0  0  0  0  0
  -27.5790  -37.2460   24.6920 C   0  0  0  0  0  1  0  0  0  0  0  0
  -26.4580  -37.4190   23.7710 N   0  0  0  0  0  0  0  0  0  0  0  0
  -26.0470  -38.3340   23.9440 H   0  0  0  0  0  0  0  0  0  0  0  0
  -26.4750  -31.7440   25.0770 C   0  0  1  0  0  0  0  0  0  0  0  0
  -25.4040  -31.4870   26.1630 C   0  0  0  0  0  1  0  0  0  0  0  0
  -27.0610  -30.3740   24.6590 C   0  0  0  0  0  1  0  0  0  0  0  0
  -27.6310  -32.5400   25.7260 C   0  0  0  0  0  1  0  0  0  0  0  0
  1  2  2  0
  1  3  1  0
  2  5  1  0
  3  6  2  0
  5  7  1  0
  5  4  2  0
  6  4  1  0
  6 52  1  0
  7  8  1  0
  8 10  1  0
  8 11  2  0
 10  9  1  0
 12 10  1  0
 13 12  1  0
 13 22  1  0
 14 22  1  0
 15 20  1  0
 16 17  1  0
 16 15  1  0
 18 17  1  0
 18 27  1  0
 18 19  1  0
 20 14  1  0
 20 19  1  0
 21 14  2  0
 22 23  1  0
 24 25  2  0
 25 44  1  0
 26 25  1  0
 26 29  1  0
 27 24  1  0
 27 28  1  0
 28 26  2  0
 29 30  1  0
 30 31  2  0
 32 35  1  0
 32 31  1  0
 33 32  2  0
 34 33  1  0
 34 29  2  0
 35 36  1  0
 36 37  1  0
 37 38  2  0
 39 38  1  0
 39 43  1  0
 40 39  2  0
 41 36  2  0
 41 40  1  0
 42 41  1  0
 44 45  1  0
 45 48  1  0
 45 47  1  0
 46 44  2  0
 49 50  1  0
 49 24  1  0
 51 49  1  0
 53 55  1  0
 53 52  1  0
 54 65  2  0
 55 60  1  0
 56 64  1  0
 56 66  1  0
 57 63  1  0
 57 59  1  0
 58 64  1  0
 59 58  1  0
 60 59  2  0
 61 62  1  0
 61 55  2  0
 62 57  2  0
 63 56  1  0
 64 54  1  0
 66 68  2  0
 67 66  1  0
 69 67  1  0
 70 79  2  0
 70 75  1  0
 71 67  1  0
 71 75  1  0
 72 71  1  0
 73 74  1  0
 73 72  1  0
 74 70  1  0
 75 76  2  0
 76 77  1  0
 78 77  2  0
 79 78  1  0
 80 54  1  0
 80 81  1  0
 80 90  1  0
 81 84  1  0
 82 86  1  0
 82 81  1  0
 83 82  2  0
 86 85  1  0
 88 86  1  0
 88 89  1  0
 88 87  1  0
 90 93  1  1
 90 91  1  0
 92 90  1  0
M  ISO  4  14 100  22 100  52 101  53 101
M  END
>  <TORSDO>  (74) 
F 21

>  <SCORE>  (74) 
-13.219

>  <name>  (74) 
73

>  <ligand_id>  (74) 
73

>  <original_smiles>  (74) 
[H]c1c([H])c(C([H])([H])Oc2c([H])c([H])c3c(c2[H])C([H])([H])N(C(=O)C([H])(N([H])C(=O)C([H])(N([H])C([H])([H])[H])C([H])([H])[H])C(C([H])([H])[H])(C([H])([H])[H])C([H])([H])[H])C([H])(C(=O)N([H])C2([H])c4c([H])c([H])c([H])c([H])c4C([H])([H])C([H])([H])C2([H])[H])C3([H])[H])c([H])c(C([H])([H])C(=O)N(C([H])([H])[H])C([H])([H])C([H])([H])N([H])C(=O)N2C([H])([H])C([H])([H])C([H])([H])C([H])(n3nc(-c4c([H])c([H])c(Oc5c([H])c([H])c(F)c([H])c5F)c([H])c4[H])c(C(=O)N([H])[H])c3N([H])[H])C2([H])[H])c1[H]

>  <smiles>  (74) 
[H]c1c([H])c(C([H])([H])Oc2c([H])c([H])c3c(c2[H])C([H])([H])N(C(=O)C([H])(N([H])C(=O)C([H])(N([H])C([H])([H])[H])C([H])([H])[H])C(C([H])([H])[H])(C([H])([H])[H])C([H])([H])[H])C([H])(C(=O)N([H])C2([H])c4c([H])c([H])c([H])c([H])c4C([H])([H])C([H])([H])C2([H])[H])C3([H])[H])c([H])c(C([H])([H])C(=O)N(C([H])([H])[H])C([H])([H])C([H])([H])N([H])C(=O)N2C([H])([H])C([H])([H])C([H])([H])C([H])(n3nc(-c4c([H])c([H])c(Oc5c([H])c([H])c(F)c([H])c5F)c([H])c4[H])c(C(=O)N([H])[H])c3N([H])[H])C2([H])[H])c1[H]

$$$$
74:0:0
     RDKit          3D

 93101  0  0  1  0  0  0  0  0999 V2000
  -29.7080  -21.3870   21.9420 C   0  0  0  0  0  1  0  0  0  0  0  0
  -27.6660  -21.0030   20.5290 C   0  0  0  0  0  1  0  0  0  0  0  0
  -29.1820  -21.2940   20.4960 C   0  0  2  0  0  0  0  0  0  0  0  0
  -29.9630  -20.0820   19.7850 C   0  0  0  0  0  0  0  0  0  0  0  0
  -30.9550  -20.3560   19.0470 N   0  0  0  0  0  0  0  0  0  0  0  0
  -31.3650  -19.5330   18.6190 H   0  0  0  0  0  0  0  0  0  0  0  0
  -28.6920  -18.1280   18.7190 C   0  0  0  0  0  1  0  0  0  0  0  0
  -29.5320  -18.5460   19.9370 C   0  0  0  0  0  3  0  0  0  0  0  0
  -30.9710  -14.8800   20.0830 C   0  0  0  0  0  0  0  0  0  0  0  0
  -30.6640  -12.6310   19.0540 C   0  0  0  0  0  2  0  0  0  0  0  0
  -29.7020  -12.7200   17.8500 C   0  0  0  0  0  2  0  0  0  0  0  0
  -28.2400  -12.5800   18.3160 C   0  0  0  0  0  2  0  0  0  0  0  0
  -27.9090  -13.4860   19.5320 C   0  0  0  0  0  3  0  0  0  0  0  0
  -28.9880  -13.3870   20.6330 C   0  0  0  0  0  2  0  0  0  0  0  0
  -30.2840  -13.6920   20.0110 N   0  0  0  0  0  0  0  0  0  0  0  0
  -32.1050  -14.9730   19.6070 O   0  0  0  0  0  0  0  0  0  0  0  0
  -31.2400  -17.5890   21.6030 C   0  0  0  0  0  0  0  0  0  0  0  0
  -30.4710  -16.3170   21.9750 C   0  0  0  0  0  2  0  0  0  0  0  0
  -30.6940  -17.4690   20.1820 C   0  0  0  0  0  3  0  0  0  0  0  0
  -30.3160  -16.0140   20.5300 N   0  0  0  0  0  0  0  0  0  0  0  0
  -31.9610  -18.3870   22.2050 O   0  0  0  0  0  0  0  0  0  0  0  0
  -25.5440  -14.1140   20.3090 C   0  0  0  0  0  0  0  0  0  0  0  0
  -24.4750  -13.3550   20.7010 C   0  0  0  0  0  0  0  0  0  0  0  0
  -24.9170  -11.9980   20.6620 C   0  0  0  0  0  0  0  0  0  0  0  0
  -26.5710  -13.2190   20.0520 N   0  0  0  0  0  0  0  0  0  0  0  0
  -26.2000  -11.9410   20.3270 N   0  0  0  0  0  0  0  0  0  0  0  0
  -24.1750  -10.7460   20.8690 C   0  0  0  0  0  0  0  0  0  0  0  0
  -24.5830   -9.7960   21.8320 C   0  0  0  0  0  3  0  0  0  0  0  0
  -23.8430   -8.6100   22.0260 C   0  0  0  0  0  3  0  0  0  0  0  0
  -22.6820   -8.3640   21.2570 C   0  0  0  0  0  0  0  0  0  0  0  0
  -22.2930   -9.3010   20.2830 C   0  0  0  0  0  3  0  0  0  0  0  0
  -23.0330  -10.4800   20.0880 C   0  0  0  0  0  3  0  0  0  0  0  0
  -21.9140   -7.2290   21.3580 O   0  0  0  0  0  0  0  0  0  0  0  0
  -21.7970   -6.5430   22.5400 C   0  0  0  0  0  0  0  0  0  0  0  0
  -21.3060   -7.1570   23.7130 C   0  0  0  0  0  3  0  0  0  0  0  0
  -21.1370   -6.3970   24.8870 C   0  0  0  0  0  3  0  0  0  0  0  0
  -21.4470   -5.0240   24.8890 C   0  0  0  0  0  0  0  0  0  0  0  0
  -21.9300   -4.4090   23.7200 C   0  0  0  0  0  3  0  0  0  0  0  0
  -22.1010   -5.1670   22.5490 C   0  0  0  0  0  0  0  0  0  0  0  0
  -22.5460   -4.5650   21.4200 F   0  0  0  0  0  0  0  0  0  0  0  0
  -21.2770   -4.2920   26.0150 F   0  0  0  0  0  0  0  0  0  0  0  0
  -23.0900  -13.8530   21.0020 C   0  0  0  0  0  0  0  0  0  0  0  0
  -22.3750  -13.1740   21.8900 N   0  0  0  0  0  0  0  0  0  0  0  0
  -22.6530  -14.8800   20.4830 O   0  0  0  0  0  0  0  0  0  0  0  0
  -22.7390  -12.3430   22.3320 H   0  0  0  0  0  0  0  0  0  0  0  0
  -21.4460  -13.4890   22.1340 H   0  0  0  0  0  0  0  0  0  0  0  0
  -25.7270  -15.4810   20.1290 N   0  0  0  0  0  0  0  0  0  0  0  0
  -24.9800  -16.1530   20.2610 H   0  0  0  0  0  0  0  0  0  0  0  0
  -26.5870  -15.9030   19.8010 H   0  0  0  0  0  0  0  0  0  0  0  0
  -29.3860  -22.7470   19.8080 C   0  0  0  0  0  2  0  0  0  0  0  0
  -28.7130  -24.0780   20.4200 C   0  0  0  0  0  3  0  0  0  0  0  0
  -28.8840  -25.4550   19.6270 C   0  0  0  0  0  3  0  0  0  0  0  0
  -28.6660  -26.7550   20.3060 O   0  0  0  0  0  0  0  0  0  0  0  0
  -24.6690  -31.9390   23.2890 C   0  0  0  0  0  0  0  0  0  0  0  0
  -27.4850  -27.5080   20.2250 C   0  0  0  0  0  0  0  0  0  0  0  0
  -23.5390  -30.5240   21.6090 C   0  0  0  0  0  3  0  0  0  0  0  0
  -25.0610  -29.0300   20.1930 C   0  0  0  0  0  0  0  0  0  0  0  0
  -26.0660  -30.9240   21.4730 C   0  0  0  0  0  2  0  0  0  0  0  0
  -26.1980  -29.5540   20.8170 C   0  0  0  0  0  0  0  0  0  0  0  0
  -27.4080  -28.8020   20.8280 C   0  0  0  0  0  3  0  0  0  0  0  0
  -26.3210  -27.0240   19.5890 C   0  0  0  0  0  3  0  0  0  0  0  0
  -25.1240  -27.7710   19.5720 C   0  0  0  0  0  3  0  0  0  0  0  0
  -23.7970  -29.8650   20.2270 C   0  0  0  0  0  2  0  0  0  0  0  0
  -24.7760  -31.1470   22.1820 N   0  0  0  0  0  0  0  0  0  0  0  0
  -23.5680  -32.1780   23.8060 O   0  0  0  0  0  0  0  0  0  0  0  0
  -22.8910  -29.4770   22.5470 C   0  0  0  0  0  0  0  0  0  0  0  0
  -21.5730  -29.2630   22.3960 N   0  0  0  0  0  0  0  0  0  0  0  0
  -23.5750  -28.8590   23.3690 O   0  0  0  0  0  0  0  0  0  0  0  0
  -21.0810  -29.8190   21.7110 H   0  0  0  0  0  0  0  0  0  0  0  0
  -18.2180  -27.9840   22.8270 C   0  0  0  0  0  0  0  0  0  0  0  0
  -20.7660  -28.2930   23.1380 C   0  0  0  0  0  3  0  0  0  0  0  0
  -20.9070  -26.8740   22.5370 C   0  0  0  0  0  2  0  0  0  0  0  0
  -19.8260  -26.5480   21.5020 C   0  0  0  0  0  2  0  0  0  0  0  0
  -18.4330  -26.6520   22.1290 C   0  0  0  0  0  2  0  0  0  0  0  0
  -19.3140  -28.7620   23.2850 C   0  0  0  0  0  0  0  0  0  0  0  0
  -19.0600  -30.0110   23.8950 C   0  0  0  0  0  3  0  0  0  0  0  0
  -17.7420  -30.4800   24.0530 C   0  0  0  0  0  3  0  0  0  0  0  0
  -16.6600  -29.6970   23.6110 C   0  0  0  0  0  3  0  0  0  0  0  0
  -16.9000  -28.4520   23.0030 C   0  0  0  0  0  3  0  0  0  0  0  0
  -25.9200  -32.6010   23.9450 C   0  0  0  0  0  3  0  0  0  0  0  0
  -25.5770  -33.9980   24.2460 N   0  0  0  0  0  0  0  0  0  0  0  0
  -25.9170  -35.0480   23.4870 C   0  0  0  0  0  0  0  0  0  0  0  0
  -26.6240  -34.9440   22.4810 O   0  0  0  0  0  0  0  0  0  0  0  0
  -24.9570  -34.1520   25.0270 H   0  0  0  0  0  0  0  0  0  0  0  0
  -24.1720  -36.8060   23.0580 C   0  0  0  0  0  1  0  0  0  0  0  0
  -25.3940  -36.4340   23.9130 C   0  0  0  0  0  3  0  0  0  0  0  0
  -27.4850  -37.3640   24.8000 C   0  0  0  0  0  1  0  0  0  0  0  0
  -26.4110  -37.5020   23.8200 N   0  0  0  0  0  0  0  0  0  0  0  0
  -25.9850  -38.4170   23.9430 H   0  0  0  0  0  0  0  0  0  0  0  0
  -26.4080  -31.8560   25.2490 C   0  0  1  0  0  0  0  0  0  0  0  0
  -25.2810  -31.6010   26.2770 C   0  0  0  0  0  1  0  0  0  0  0  0
  -27.0390  -30.4930   24.8880 C   0  0  0  0  0  1  0  0  0  0  0  0
  -27.5120  -32.6860   25.9450 C   0  0  0  0  0  1  0  0  0  0  0  0
  3  2  1  1
  3  1  1  0
  4  8  1  0
  4  3  1  0
  5  4  2  0
  6  5  1  0
  8  7  1  0
  9 20  1  0
 10 15  1  0
 11 12  1  0
 11 10  1  0
 13 12  1  0
 13 25  1  0
 13 14  1  0
 15  9  1  0
 15 14  1  0
 16  9  2  0
 17 18  1  0
 17 21  2  0
 19  8  1  0
 19 20  1  0
 19 17  1  0
 20 18  1  0
 22 23  2  0
 23 42  1  0
 24 23  1  0
 24 27  1  0
 25 22  1  0
 25 26  1  0
 26 24  2  0
 27 28  1  0
 28 29  2  0
 30 33  1  0
 30 29  1  0
 31 30  2  0
 32 31  1  0
 32 27  2  0
 33 34  1  0
 34 39  2  0
 34 35  1  0
 35 36  2  0
 36 37  1  0
 37 41  1  0
 38 37  2  0
 39 38  1  0
 40 39  1  0
 42 43  1  0
 43 46  1  0
 43 45  1  0
 44 42  2  0
 47 48  1  0
 47 22  1  0
 49 47  1  0
 50 51  1  0
 50  3  1  0
 52 53  1  0
 52 51  2  0
 54 65  2  0
 55 53  1  0
 55 60  1  0
 56 64  1  0
 56 66  1  0
 57 63  1  0
 57 59  1  0
 58 64  1  0
 59 60  2  0
 59 58  1  0
 61 55  2  0
 62 61  1  0
 62 57  2  0
 63 56  1  0
 64 54  1  0
 66 68  2  0
 67 66  1  0
 69 67  1  0
 70 79  2  0
 70 75  1  0
 71 67  1  0
 71 75  1  0
 72 71  1  0
 73 74  1  0
 73 72  1  0
 74 70  1  0
 75 76  2  0
 76 77  1  0
 78 77  2  0
 79 78  1  0
 80 54  1  0
 80 81  1  0
 80 90  1  0
 81 84  1  0
 82 86  1  0
 82 81  1  0
 83 82  2  0
 86 85  1  0
 88 86  1  0
 88 89  1  0
 88 87  1  0
 90 93  1  1
 90 91  1  0
 92 90  1  0
M  ISO  4   9 100  20 100  52 101  53 101
M  END
>  <TORSDO>  (75) 
F 21

>  <SCORE>  (75) 
-13.239

>  <name>  (75) 
74

>  <ligand_id>  (75) 
74

>  <original_smiles>  (75) 
[H]N=C(C([H])(C([H])([H])[H])C1([H])C(=O)C([H])([H])N1C(=O)N1C([H])([H])C([H])([H])C([H])([H])C([H])(n2nc(-c3c([H])c([H])c(Oc4c([H])c([H])c(F)c([H])c4F)c([H])c3[H])c(C(=O)N([H])[H])c2N([H])[H])C1([H])[H])C(C([H])([H])[H])(C([H])([H])[H])C([H])([H])C([H])([H])C([H])([H])Oc1c([H])c([H])c2c(c1[H])C([H])([H])N(C(=O)C([H])(N([H])C(=O)C([H])(N([H])C([H])([H])[H])C([H])([H])[H])C(C([H])([H])[H])(C([H])([H])[H])C([H])([H])[H])C([H])(C(=O)N([H])C1([H])c3c([H])c([H])c([H])c([H])c3C([H])([H])C([H])([H])C1([H])[H])C2([H])[H]

>  <smiles>  (75) 
[H]N=C(C([H])(C([H])([H])[H])C1([H])C(=O)C([H])([H])N1C(=O)N1C([H])([H])C([H])([H])C([H])([H])C([H])(n2nc(-c3c([H])c([H])c(Oc4c([H])c([H])c(F)c([H])c4F)c([H])c3[H])c(C(=O)N([H])[H])c2N([H])[H])C1([H])[H])C(C([H])([H])[H])(C([H])([H])[H])C([H])([H])C([H])([H])C([H])([H])Oc1c([H])c([H])c2c(c1[H])C([H])([H])N(C(=O)C([H])(N([H])C(=O)C([H])(N([H])C([H])([H])[H])C([H])([H])[H])C(C([H])([H])[H])(C([H])([H])[H])C([H])([H])[H])C([H])(C(=O)N([H])C1([H])c3c([H])c([H])c([H])c([H])c3C([H])([H])C([H])([H])C1([H])[H])C2([H])[H]

$$$$
75:0:0
     RDKit          3D

 97105  0  0  1  0  0  0  0  0999 V2000
  -29.1450  -19.0970   20.2810 C   0  0  0  0  0  0  0  0  0  0  0  0
  -29.4080  -20.5040   20.0650 N   0  0  0  0  0  0  0  0  0  0  0  0
  -27.9490  -18.7680   20.7880 N   0  0  0  0  0  4  0  0  0  0  0  0
  -27.6990  -17.7970   20.9010 H   0  0  0  0  0  0  0  0  0  0  0  0
  -27.2660  -19.4610   21.0460 H   0  0  0  0  0  0  0  0  0  0  0  0
  -30.4910  -15.0550   19.9510 C   0  0  0  0  0  0  0  0  0  0  0  0
  -30.2650  -12.7420   18.9480 C   0  0  0  0  0  2  0  0  0  0  0  0
  -29.2450  -12.7220   17.7870 C   0  0  0  0  0  2  0  0  0  0  0  0
  -27.8240  -12.4870   18.3270 C   0  0  0  0  0  2  0  0  0  0  0  0
  -27.5020  -13.3810   19.5530 C   0  0  0  0  0  3  0  0  0  0  0  0
  -28.6370  -13.3890   20.5980 C   0  0  0  0  0  2  0  0  0  0  0  0
  -29.8570  -13.8150   19.9030 N   0  0  0  0  0  0  0  0  0  0  0  0
  -31.6400  -15.1170   19.4960 O   0  0  0  0  0  0  0  0  0  0  0  0
  -30.3000  -16.6700   21.7480 C   0  0  0  0  0  2  0  0  0  0  0  0
  -30.1290  -17.8000   19.9960 C   0  0  0  0  0  3  0  0  0  0  0  0
  -31.1590  -17.7850   21.1260 C   0  0  0  0  0  3  0  0  0  0  0  0
  -29.8650  -16.2690   20.3920 N   0  0  0  0  0  0  0  0  0  0  0  0
  -25.1910  -13.9180   20.5070 C   0  0  0  0  0  0  0  0  0  0  0  0
  -24.1600  -13.1230   20.9240 C   0  0  0  0  0  0  0  0  0  0  0  0
  -24.6210  -11.7770   20.7960 C   0  0  0  0  0  0  0  0  0  0  0  0
  -26.2100  -13.0550   20.1440 N   0  0  0  0  0  0  0  0  0  0  0  0
  -25.8820  -11.7590   20.3840 N   0  0  0  0  0  0  0  0  0  0  0  0
  -23.9100  -10.5040   20.9850 C   0  0  0  0  0  0  0  0  0  0  0  0
  -24.3700   -9.5280   21.8950 C   0  0  0  0  0  3  0  0  0  0  0  0
  -23.6570   -8.3230   22.0730 C   0  0  0  0  0  3  0  0  0  0  0  0
  -22.4690   -8.0860   21.3410 C   0  0  0  0  0  0  0  0  0  0  0  0
  -22.0290   -9.0510   20.4180 C   0  0  0  0  0  3  0  0  0  0  0  0
  -22.7440  -10.2480   20.2380 C   0  0  0  0  0  3  0  0  0  0  0  0
  -21.7250   -6.9340   21.4320 O   0  0  0  0  0  0  0  0  0  0  0  0
  -21.6510   -6.2150   22.5980 C   0  0  0  0  0  0  0  0  0  0  0  0
  -21.1490   -6.7780   23.7910 C   0  0  0  0  0  3  0  0  0  0  0  0
  -21.0250   -5.9830   24.9480 C   0  0  0  0  0  3  0  0  0  0  0  0
  -21.3900   -4.6230   24.9110 C   0  0  0  0  0  0  0  0  0  0  0  0
  -21.8840   -4.0590   23.7220 C   0  0  0  0  0  3  0  0  0  0  0  0
  -22.0100   -4.8520   22.5680 C   0  0  0  0  0  0  0  0  0  0  0  0
  -22.4660   -4.2960   21.4190 F   0  0  0  0  0  0  0  0  0  0  0  0
  -21.2640   -3.8580   26.0200 F   0  0  0  0  0  0  0  0  0  0  0  0
  -22.7880  -13.5840   21.3240 C   0  0  0  0  0  0  0  0  0  0  0  0
  -22.1290  -12.8490   22.2130 N   0  0  0  0  0  0  0  0  0  0  0  0
  -22.3130  -14.6290   20.8820 O   0  0  0  0  0  0  0  0  0  0  0  0
  -22.5290  -12.0060   22.5930 H   0  0  0  0  0  0  0  0  0  0  0  0
  -21.2110  -13.1380   22.5210 H   0  0  0  0  0  0  0  0  0  0  0  0
  -25.3410  -15.2950   20.3760 N   0  0  0  0  0  0  0  0  0  0  0  0
  -24.5730  -15.9360   20.5480 H   0  0  0  0  0  0  0  0  0  0  0  0
  -26.1410  -15.7380   19.9440 H   0  0  0  0  0  0  0  0  0  0  0  0
  -32.5310  -17.3600   20.7340 N   0  0  0  0  0  4  0  0  0  0  0  0
  -32.4730  -16.5200   20.1640 H   0  0  0  0  0  0  0  0  0  0  0  0
  -33.0920  -17.1470   21.5390 H   0  0  0  0  0  0  0  0  0  0  0  0
  -33.0180  -18.0650   20.2090 H   0  0  0  0  0  0  0  0  0  0  0  0
  -30.6780  -20.8000   19.3790 C   0  0  0  0  0  2  0  0  0  0  0  0
  -31.8310  -20.9820   17.1000 C   0  0  0  0  0  1  0  0  0  0  0  0
  -30.5030  -20.8180   17.8500 C   0  0  0  0  0  2  0  0  0  0  0  0
  -28.4530  -21.7820   20.2460 C   0  0  0  0  0  2  0  0  0  0  0  0
  -29.7220  -23.6190   21.6140 C   0  0  0  0  0  1  0  0  0  0  0  0
  -28.9400  -23.4130   20.3070 C   0  0  0  0  0  3  0  0  0  0  0  0
  -27.8830  -24.7290   20.1420 C   0  0  0  0  0  2  0  0  0  0  0  0
  -28.1820  -26.2630   20.2270 O   0  0  0  0  0  0  0  0  0  0  0  0
  -24.6100  -31.9780   23.2520 C   0  0  0  0  0  0  0  0  0  0  0  0
  -27.1300  -27.2560   20.1780 C   0  0  0  0  0  0  0  0  0  0  0  0
  -23.3850  -30.5970   21.6180 C   0  0  0  0  0  3  0  0  0  0  0  0
  -24.8120  -29.0200   20.1740 C   0  0  0  0  0  0  0  0  0  0  0  0
  -25.9410  -30.8450   21.4330 C   0  0  0  0  0  2  0  0  0  0  0  0
  -26.0020  -29.4560   20.7730 C   0  0  0  0  0  0  0  0  0  0  0  0
  -27.1620  -28.5910   20.7550 C   0  0  0  0  0  3  0  0  0  0  0  0
  -25.9120  -26.9240   19.5450 C   0  0  0  0  0  3  0  0  0  0  0  0
  -24.7800  -27.7670   19.5460 C   0  0  0  0  0  3  0  0  0  0  0  0
  -23.5910  -29.9240   20.2360 C   0  0  0  0  0  2  0  0  0  0  0  0
  -24.6650  -31.1610   22.1550 N   0  0  0  0  0  0  0  0  0  0  0  0
  -23.5310  -32.2680   23.7920 O   0  0  0  0  0  0  0  0  0  0  0  0
  -22.7080  -29.5920   22.5820 C   0  0  0  0  0  0  0  0  0  0  0  0
  -21.3820  -29.4120   22.4510 N   0  0  0  0  0  0  0  0  0  0  0  0
  -23.3800  -28.9740   23.4130 O   0  0  0  0  0  0  0  0  0  0  0  0
  -20.8970  -29.9560   21.7500 H   0  0  0  0  0  0  0  0  0  0  0  0
  -18.0080  -28.1960   22.9450 C   0  0  0  0  0  0  0  0  0  0  0  0
  -20.5640  -28.4740   23.2230 C   0  0  0  0  0  3  0  0  0  0  0  0
  -20.6780  -27.0390   22.6560 C   0  0  0  0  0  2  0  0  0  0  0  0
  -19.5820  -26.7060   21.6390 C   0  0  0  0  0  2  0  0  0  0  0  0
  -18.1960  -26.8450   22.2740 C   0  0  0  0  0  2  0  0  0  0  0  0
  -19.1190  -28.9680   23.3760 C   0  0  0  0  0  0  0  0  0  0  0  0
  -18.8890  -30.2310   23.9620 C   0  0  0  0  0  3  0  0  0  0  0  0
  -17.5810  -30.7230   24.1220 C   0  0  0  0  0  3  0  0  0  0  0  0
  -16.4830  -29.9500   23.7070 C   0  0  0  0  0  3  0  0  0  0  0  0
  -16.6970  -28.6880   23.1240 C   0  0  0  0  0  3  0  0  0  0  0  0
  -25.8980  -32.6020   23.8670 C   0  0  0  0  0  3  0  0  0  0  0  0
  -25.6010  -34.0010   24.2080 N   0  0  0  0  0  0  0  0  0  0  0  0
  -25.9080  -35.0570   23.4430 C   0  0  0  0  0  0  0  0  0  0  0  0
  -26.5410  -34.9540   22.3880 O   0  0  0  0  0  0  0  0  0  0  0  0
  -25.0320  -34.1560   25.0290 H   0  0  0  0  0  0  0  0  0  0  0  0
  -24.1600  -36.8470   23.1790 C   0  0  0  0  0  1  0  0  0  0  0  0
  -25.4440  -36.4460   23.9220 C   0  0  0  0  0  3  0  0  0  0  0  0
  -27.6120  -37.3460   24.6440 C   0  0  0  0  0  1  0  0  0  0  0  0
  -26.4670  -37.5010   23.7500 N   0  0  0  0  0  0  0  0  0  0  0  0
  -26.0650  -38.4220   23.9100 H   0  0  0  0  0  0  0  0  0  0  0  0
  -26.4150  -31.8240   25.1420 C   0  0  1  0  0  0  0  0  0  0  0  0
  -25.3200  -31.5840   26.2070 C   0  0  0  0  0  1  0  0  0  0  0  0
  -26.9960  -30.4470   24.7480 C   0  0  0  0  0  1  0  0  0  0  0  0
  -27.5660  -32.6140   25.8060 C   0  0  0  0  0  1  0  0  0  0  0  0
  1  3  2  0
  2 53  1  0
  2  1  1  0
  3  4  1  0
  3  5  1  0
  6 17  1  0
  7 12  1  0
  8  9  1  0
  8  7  1  0
 10  9  1  0
 10 21  1  0
 10 11  1  0
 12  6  1  0
 12 11  1  0
 13  6  2  0
 15  1  1  0
 15 17  1  0
 15 16  1  0
 16 46  1  0
 16 14  1  0
 17 14  1  0
 18 19  2  0
 19 38  1  0
 20 19  1  0
 20 23  1  0
 21 22  1  0
 21 18  1  0
 22 20  2  0
 23 24  1  0
 24 25  2  0
 26 29  1  0
 26 25  1  0
 27 26  2  0
 28 27  1  0
 28 23  2  0
 29 30  1  0
 30 31  1  0
 31 32  2  0
 33 32  1  0
 33 37  1  0
 34 33  2  0
 35 30  2  0
 35 34  1  0
 36 35  1  0
 38 39  1  0
 39 42  1  0
 39 41  1  0
 40 38  2  0
 43 18  1  0
 43 44  1  0
 45 43  1  0
 46 48  1  0
 47 46  1  0
 49 46  1  0
 50  2  1  0
 51 52  1  0
 52 50  1  0
 53 55  1  0
 55 54  1  0
 56 57  1  0
 56 55  1  0
 58 69  2  0
 59 57  1  0
 59 64  1  0
 60 68  1  0
 60 70  1  0
 61 67  1  0
 61 63  1  0
 62 68  1  0
 63 62  1  0
 64 63  2  0
 65 66  1  0
 65 59  2  0
 66 61  2  0
 67 60  1  0
 68 58  1  0
 70 72  2  0
 71 70  1  0
 73 71  1  0
 74 83  2  0
 74 79  1  0
 75 71  1  0
 75 79  1  0
 76 75  1  0
 77 78  1  0
 77 76  1  0
 78 74  1  0
 79 80  2  0
 80 81  1  0
 82 81  2  0
 83 82  1  0
 84 58  1  0
 84 85  1  0
 84 94  1  0
 85 88  1  0
 86 90  1  0
 86 85  1  0
 87 86  2  0
 90 89  1  0
 92 93  1  0
 92 90  1  0
 92 91  1  0
 94 97  1  1
 94 95  1  0
 96 94  1  0
M  ISO  4   6 100  17 100  56 101  57 101
M  END
>  <TORSDO>  (76) 
F 22

>  <SCORE>  (76) 
-14.628

>  <name>  (76) 
75

>  <ligand_id>  (76) 
75

>  <original_smiles>  (76) 
[H]c1c([H])c([H])c2c(c1[H])C([H])([H])C([H])([H])C([H])([H])C2([H])N([H])C(=O)C1([H])N(C(=O)C([H])(N([H])C(=O)C([H])(N([H])C([H])([H])[H])C([H])([H])[H])C(C([H])([H])[H])(C([H])([H])[H])C([H])([H])[H])C([H])([H])c2c([H])c(OC([H])([H])C([H])(C([H])([H])[H])C([H])([H])N(C(=[N+]([H])[H])C3([H])N(C(=O)N4C([H])([H])C([H])([H])C([H])([H])C([H])(n5nc(-c6c([H])c([H])c(Oc7c([H])c([H])c(F)c([H])c7F)c([H])c6[H])c(C(=O)N([H])[H])c5N([H])[H])C4([H])[H])C([H])([H])C3([H])[N+]([H])([H])[H])C([H])([H])C([H])([H])C([H])([H])[H])c([H])c([H])c2C1([H])[H]

>  <smiles>  (76) 
[H]c1c([H])c([H])c2c(c1[H])C([H])([H])C([H])([H])C([H])([H])C2([H])N([H])C(=O)C1([H])N(C(=O)C([H])(N([H])C(=O)C([H])(N([H])C([H])([H])[H])C([H])([H])[H])C(C([H])([H])[H])(C([H])([H])[H])C([H])([H])[H])C([H])([H])c2c([H])c(OC([H])([H])C([H])(C([H])([H])[H])C([H])([H])N(C(=[N+]([H])[H])C3([H])N(C(=O)N4C([H])([H])C([H])([H])C([H])([H])C([H])(n5nc(-c6c([H])c([H])c(Oc7c([H])c([H])c(F)c([H])c7F)c([H])c6[H])c(C(=O)N([H])[H])c5N([H])[H])C4([H])[H])C([H])([H])C3([H])[N+]([H])([H])[H])C([H])([H])C([H])([H])C([H])([H])[H])c([H])c([H])c2C1([H])[H]

$$$$
76:0:0
     RDKit          3D

 93101  0  0  1  0  0  0  0  0999 V2000
  -30.5730  -20.2740   21.9540 C   0  0  0  0  0  0  0  0  0  0  0  0
  -30.2810  -18.9520   22.0370 C   0  0  0  0  0  3  0  0  0  0  0  0
  -30.2220  -21.4970   22.7700 C   0  0  0  0  0  2  0  0  0  0  0  0
  -31.3960  -21.1250   21.0370 C   0  0  0  0  0  2  0  0  0  0  0  0
  -30.7130  -22.3080   21.6270 N   0  0  1  0  0  4  0  0  0  0  0  0
  -31.3970  -22.9830   21.9330 H   0  0  0  0  0  0  0  0  0  0  0  0
  -30.8670  -17.8290   21.1460 C   0  0  0  0  0  2  0  0  0  0  0  0
  -29.4940  -16.0420   22.4950 C   0  0  0  0  0  1  0  0  0  0  0  0
  -30.1580  -16.4150   21.1460 C   0  0  0  0  0  3  0  0  0  0  0  0
  -31.2020  -14.5970   19.6640 C   0  0  0  0  0  0  0  0  0  0  0  0
  -30.7000  -12.4560   18.5130 C   0  0  0  0  0  2  0  0  0  0  0  0
  -29.6570  -12.6170   17.3920 C   0  0  0  0  0  2  0  0  0  0  0  0
  -28.2360  -12.4790   17.9680 C   0  0  0  0  0  2  0  0  0  0  0  0
  -28.0260  -13.3830   19.2140 C   0  0  0  0  0  3  0  0  0  0  0  0
  -29.1680  -13.2130   20.2400 C   0  0  0  0  0  2  0  0  0  0  0  0
  -30.4450  -13.4680   19.5600 N   0  0  0  0  0  0  0  0  0  0  0  0
  -32.1410  -14.8200   18.8940 O   0  0  0  0  0  0  0  0  0  0  0  0
  -31.1080  -15.3270   20.8020 N   0  0  0  0  0  0  0  0  0  0  0  0
  -32.0370  -15.5870   21.1020 H   0  0  0  0  0  0  0  0  0  0  0  0
  -25.7290  -14.0550   20.1560 C   0  0  0  0  0  0  0  0  0  0  0  0
  -24.6840  -13.3130   20.6280 C   0  0  0  0  0  0  0  0  0  0  0  0
  -25.1020  -11.9490   20.5520 C   0  0  0  0  0  0  0  0  0  0  0  0
  -26.7200  -13.1460   19.8200 N   0  0  0  0  0  0  0  0  0  0  0  0
  -26.3510  -11.8750   20.1140 N   0  0  0  0  0  0  0  0  0  0  0  0
  -24.3650  -10.7070   20.8150 C   0  0  0  0  0  0  0  0  0  0  0  0
  -24.7810   -9.7920   21.8120 C   0  0  0  0  0  3  0  0  0  0  0  0
  -24.0410   -8.6150   22.0560 C   0  0  0  0  0  3  0  0  0  0  0  0
  -22.8750   -8.3400   21.3050 C   0  0  0  0  0  0  0  0  0  0  0  0
  -22.4780   -9.2400   20.2970 C   0  0  0  0  0  3  0  0  0  0  0  0
  -23.2170  -10.4110   20.0500 C   0  0  0  0  0  3  0  0  0  0  0  0
  -22.1090   -7.2080   21.4570 O   0  0  0  0  0  0  0  0  0  0  0  0
  -21.9240   -6.6230   22.6840 C   0  0  0  0  0  0  0  0  0  0  0  0
  -21.3820   -7.3380   23.7740 C   0  0  0  0  0  3  0  0  0  0  0  0
  -21.1390   -6.6820   24.9960 C   0  0  0  0  0  3  0  0  0  0  0  0
  -21.4310   -5.3110   25.1300 C   0  0  0  0  0  0  0  0  0  0  0  0
  -21.9690   -4.5960   24.0460 C   0  0  0  0  0  3  0  0  0  0  0  0
  -22.2130   -5.2500   22.8260 C   0  0  0  0  0  0  0  0  0  0  0  0
  -22.7090   -4.5510   21.7760 F   0  0  0  0  0  0  0  0  0  0  0  0
  -21.1950   -4.6790   26.3040 F   0  0  0  0  0  0  0  0  0  0  0  0
  -23.3320  -13.8260   21.0370 C   0  0  0  0  0  0  0  0  0  0  0  0
  -22.6960  -13.1810   22.0070 N   0  0  0  0  0  0  0  0  0  0  0  0
  -22.8560  -14.8450   20.5350 O   0  0  0  0  0  0  0  0  0  0  0  0
  -23.0980  -12.3630   22.4400 H   0  0  0  0  0  0  0  0  0  0  0  0
  -21.8010  -13.5200   22.3340 H   0  0  0  0  0  0  0  0  0  0  0  0
  -25.9160  -15.4210   19.9640 N   0  0  0  0  0  0  0  0  0  0  0  0
  -25.1950  -16.1020   20.1660 H   0  0  0  0  0  0  0  0  0  0  0  0
  -26.7220  -15.8270   19.5040 H   0  0  0  0  0  0  0  0  0  0  0  0
  -29.6650  -22.9550   20.7710 C   0  0  0  0  0  3  0  0  0  0  0  0
  -29.6070  -24.5370   20.8040 C   0  0  0  0  0  3  0  0  0  0  0  0
  -28.5170  -24.6570   18.5270 C   0  0  0  0  0  1  0  0  0  0  0  0
  -27.1490  -24.7100   20.7630 C   0  0  0  0  0  1  0  0  0  0  0  0
  -28.4230  -25.1800   19.9860 C   0  0  1  0  0  0  0  0  0  0  0  0
  -28.5590  -26.6480   19.9220 O   0  0  0  0  0  0  0  0  0  0  0  0
  -24.6910  -31.6850   23.1360 C   0  0  0  0  0  0  0  0  0  0  0  0
  -27.4270  -27.4550   19.8100 C   0  0  0  0  0  0  0  0  0  0  0  0
  -23.5140  -30.3200   21.4480 C   0  0  0  0  0  3  0  0  0  0  0  0
  -25.0000  -28.9400   19.9040 C   0  0  0  0  0  0  0  0  0  0  0  0
  -26.0290  -30.7680   21.2420 C   0  0  0  0  0  2  0  0  0  0  0  0
  -26.1500  -29.4390   20.5250 C   0  0  0  0  0  0  0  0  0  0  0  0
  -27.3620  -28.7060   20.4770 C   0  0  0  0  0  3  0  0  0  0  0  0
  -26.2730  -27.0460   19.0950 C   0  0  0  0  0  3  0  0  0  0  0  0
  -25.0620  -27.7490   19.1750 C   0  0  0  0  0  3  0  0  0  0  0  0
  -23.7260  -29.7420   20.0250 C   0  0  0  0  0  2  0  0  0  0  0  0
  -24.7630  -30.9410   21.9960 N   0  0  0  0  0  0  0  0  0  0  0  0
  -23.6100  -31.8870   23.7040 O   0  0  0  0  0  0  0  0  0  0  0  0
  -22.9180  -29.2190   22.3580 C   0  0  0  0  0  0  0  0  0  0  0  0
  -21.6070  -28.9640   22.2150 N   0  0  0  0  0  0  0  0  0  0  0  0
  -23.6280  -28.6050   23.1590 O   0  0  0  0  0  0  0  0  0  0  0  0
  -21.0810  -29.5310   21.5640 H   0  0  0  0  0  0  0  0  0  0  0  0
  -18.3220  -27.5080   22.6310 C   0  0  0  0  0  0  0  0  0  0  0  0
  -20.8500  -27.9360   22.9360 C   0  0  0  0  0  3  0  0  0  0  0  0
  -21.0620  -26.5410   22.2970 C   0  0  0  0  0  2  0  0  0  0  0  0
  -19.9800  -26.1590   21.2840 C   0  0  0  0  0  2  0  0  0  0  0  0
  -18.5990  -26.1860   21.9400 C   0  0  0  0  0  2  0  0  0  0  0  0
  -19.3780  -28.3320   23.0970 C   0  0  0  0  0  0  0  0  0  0  0  0
  -19.0660  -29.5590   23.7190 C   0  0  0  0  0  3  0  0  0  0  0  0
  -17.7280  -29.9690   23.8770 C   0  0  0  0  0  3  0  0  0  0  0  0
  -16.6830  -29.1440   23.4260 C   0  0  0  0  0  3  0  0  0  0  0  0
  -16.9820  -27.9150   22.8080 C   0  0  0  0  0  3  0  0  0  0  0  0
  -25.9610  -32.3330   23.7650 C   0  0  0  0  0  3  0  0  0  0  0  0
  -25.6180  -33.7200   24.1160 N   0  0  0  0  0  0  0  0  0  0  0  0
  -25.9040  -34.7860   23.3620 C   0  0  0  0  0  0  0  0  0  0  0  0
  -26.5600  -34.7120   22.3160 O   0  0  0  0  0  0  0  0  0  0  0  0
  -25.0400  -33.8460   24.9320 H   0  0  0  0  0  0  0  0  0  0  0  0
  -24.1180  -36.5290   23.0480 C   0  0  0  0  0  1  0  0  0  0  0  0
  -25.3830  -36.1560   23.8360 C   0  0  0  0  0  3  0  0  0  0  0  0
  -27.5040  -37.1010   24.6360 C   0  0  0  0  0  1  0  0  0  0  0  0
  -26.3840  -37.2390   23.7120 N   0  0  0  0  0  0  0  0  0  0  0  0
  -25.9550  -38.1460   23.8700 H   0  0  0  0  0  0  0  0  0  0  0  0
  -26.4970  -31.5540   25.0290 C   0  0  1  0  0  0  0  0  0  0  0  0
  -25.4020  -31.2450   26.0760 C   0  0  0  0  0  1  0  0  0  0  0  0
  -27.1440  -30.2120   24.6100 C   0  0  0  0  0  1  0  0  0  0  0  0
  -27.6090  -32.3800   25.7160 C   0  0  0  0  0  1  0  0  0  0  0  0
  1  2  2  0
  1  3  1  0
  4  5  1  0
  4  1  1  0
  5  6  1  1
  5  3  1  0
  7  2  1  0
  9  7  1  0
  9  8  1  0
 10 18  1  0
 11 16  1  0
 12 13  1  0
 12 11  1  0
 14 13  1  0
 14 23  1  0
 14 15  1  0
 16 10  1  0
 16 15  1  0
 17 10  2  0
 18 19  1  0
 18  9  1  0
 20 21  2  0
 21 40  1  0
 22 21  1  0
 22 25  1  0
 23 24  1  0
 23 20  1  0
 24 22  2  0
 25 26  1  0
 26 27  2  0
 28 31  1  0
 28 27  1  0
 29 28  2  0
 30 29  1  0
 30 25  2  0
 31 32  1  0
 32 37  2  0
 32 33  1  0
 33 34  2  0
 34 35  1  0
 35 39  1  0
 36 35  2  0
 37 36  1  0
 38 37  1  0
 40 41  1  0
 41 44  1  0
 41 43  1  0
 42 40  2  0
 45 20  1  0
 45 46  1  0
 47 45  1  0
 48 49  2  0
 48  5  1  0
 52 50  1  6
 52 51  1  0
 52 49  1  0
 53 52  1  0
 54 65  2  0
 55 53  1  0
 55 60  1  0
 56 64  1  0
 56 66  1  0
 57 63  1  0
 57 59  1  0
 58 64  1  0
 59 58  1  0
 60 59  2  0
 61 62  1  0
 61 55  2  0
 62 57  2  0
 63 56  1  0
 64 54  1  0
 66 68  2  0
 67 66  1  0
 69 67  1  0
 70 79  2  0
 70 75  1  0
 71 67  1  0
 71 75  1  0
 72 71  1  0
 73 74  1  0
 73 72  1  0
 74 70  1  0
 75 76  2  0
 76 77  1  0
 78 77  2  0
 79 78  1  0
 80 54  1  0
 80 81  1  0
 80 90  1  0
 81 84  1  0
 82 86  1  0
 82 81  1  0
 83 82  2  0
 86 85  1  0
 88 86  1  0
 88 89  1  0
 88 87  1  0
 90 93  1  1
 90 91  1  0
 92 90  1  0
M  ISO  4  10 100  18 100  52 101  53 101
M  END
>  <TORSDO>  (77) 
F 21

>  <SCORE>  (77) 
-10.159

>  <name>  (77) 
76

>  <ligand_id>  (77) 
76

>  <original_smiles>  (77) 
[H]C(=C1C([H])([H])[N+]([H])(C([H])([H])C([H])([H])C(Oc2c([H])c([H])c3c(c2[H])C([H])([H])N(C(=O)C([H])(N([H])C(=O)C([H])(N([H])C([H])([H])[H])C([H])([H])[H])C(C([H])([H])[H])(C([H])([H])[H])C([H])([H])[H])C([H])(C(=O)N([H])C2([H])c4c([H])c([H])c([H])c([H])c4C([H])([H])C([H])([H])C2([H])[H])C3([H])[H])(C([H])([H])[H])C([H])([H])[H])C1([H])[H])C([H])([H])C([H])(N([H])C(=O)N1C([H])([H])C([H])([H])C([H])([H])C([H])(n2nc(-c3c([H])c([H])c(Oc4c([H])c([H])c(F)c([H])c4F)c([H])c3[H])c(C(=O)N([H])[H])c2N([H])[H])C1([H])[H])C([H])([H])[H]

>  <smiles>  (77) 
[H]C(=C1C([H])([H])[N+]([H])(C([H])([H])C([H])([H])C(Oc2c([H])c([H])c3c(c2[H])C([H])([H])N(C(=O)C([H])(N([H])C(=O)C([H])(N([H])C([H])([H])[H])C([H])([H])[H])C(C([H])([H])[H])(C([H])([H])[H])C([H])([H])[H])C([H])(C(=O)N([H])C2([H])c4c([H])c([H])c([H])c([H])c4C([H])([H])C([H])([H])C2([H])[H])C3([H])[H])(C([H])([H])[H])C([H])([H])[H])C1([H])[H])C([H])([H])C([H])(N([H])C(=O)N1C([H])([H])C([H])([H])C([H])([H])C([H])(n2nc(-c3c([H])c([H])c(Oc4c([H])c([H])c(F)c([H])c4F)c([H])c3[H])c(C(=O)N([H])[H])c2N([H])[H])C1([H])[H])C([H])([H])[H]

$$$$
77:0:0
     RDKit          3D

 95103  0  0  1  0  0  0  0  0999 V2000
  -27.5590  -22.5000   22.0430 C   0  0  0  0  0  1  0  0  0  0  0  0
  -29.4040  -23.5450   23.3840 C   0  0  0  0  0  1  0  0  0  0  0  0
  -28.8740  -23.3110   21.9520 C   0  0  2  0  0  0  0  0  0  0  0  0
  -28.5270  -24.6280   21.3470 N   0  0  0  0  0  4  0  0  0  0  0  0
  -27.9300  -24.4720   20.5480 H   0  0  0  0  0  0  0  0  0  0  0  0
  -27.9730  -25.1410   22.0170 H   0  0  0  0  0  0  0  0  0  0  0  0
  -29.6400  -25.4980   20.8890 C   0  0  0  0  0  2  0  0  0  0  0  0
  -29.1350  -26.9170   20.5880 C   0  0  0  0  0  2  0  0  0  0  0  0
  -28.1630  -26.8330   19.5430 O   0  0  0  0  0  0  0  0  0  0  0  0
  -24.5640  -31.8580   23.1050 C   0  0  0  0  0  0  0  0  0  0  0  0
  -27.0280  -27.5950   19.6800 C   0  0  0  0  0  0  0  0  0  0  0  0
  -23.2540  -30.5220   21.4810 C   0  0  0  0  0  3  0  0  0  0  0  0
  -24.6200  -29.0540   19.9030 C   0  0  0  0  0  0  0  0  0  0  0  0
  -25.7540  -30.9140   21.1340 C   0  0  0  0  0  2  0  0  0  0  0  0
  -25.8050  -29.5720   20.4400 C   0  0  0  0  0  0  0  0  0  0  0  0
  -27.0110  -28.8530   20.3290 C   0  0  0  0  0  3  0  0  0  0  0  0
  -25.8310  -27.0920   19.1300 C   0  0  0  0  0  3  0  0  0  0  0  0
  -24.6250  -27.8110   19.2460 C   0  0  0  0  0  3  0  0  0  0  0  0
  -23.3760  -29.8970   20.0640 C   0  0  0  0  0  2  0  0  0  0  0  0
  -24.5460  -31.1080   21.9660 N   0  0  0  0  0  0  0  0  0  0  0  0
  -23.5200  -32.1010   23.7260 O   0  0  0  0  0  0  0  0  0  0  0  0
  -22.6700  -29.4580   22.4370 C   0  0  0  0  0  0  0  0  0  0  0  0
  -21.3460  -29.2490   22.3580 N   0  0  0  0  0  0  0  0  0  0  0  0
  -23.4010  -28.8240   23.2030 O   0  0  0  0  0  0  0  0  0  0  0  0
  -20.8160  -29.8150   21.7100 H   0  0  0  0  0  0  0  0  0  0  0  0
  -18.0310  -27.9210   22.9020 C   0  0  0  0  0  0  0  0  0  0  0  0
  -20.5810  -28.2710   23.1310 C   0  0  0  0  0  3  0  0  0  0  0  0
  -20.7280  -26.8520   22.5320 C   0  0  0  0  0  2  0  0  0  0  0  0
  -19.6190  -26.5020   21.5340 C   0  0  0  0  0  2  0  0  0  0  0  0
  -18.2460  -26.5880   22.2050 C   0  0  0  0  0  2  0  0  0  0  0  0
  -19.1280  -28.7190   23.3210 C   0  0  0  0  0  0  0  0  0  0  0  0
  -18.8740  -29.9660   23.9310 C   0  0  0  0  0  3  0  0  0  0  0  0
  -17.5560  -30.4180   24.1250 C   0  0  0  0  0  3  0  0  0  0  0  0
  -16.4730  -29.6160   23.7220 C   0  0  0  0  0  3  0  0  0  0  0  0
  -16.7110  -28.3710   23.1160 C   0  0  0  0  0  3  0  0  0  0  0  0
  -25.8880  -32.4630   23.6670 C   0  0  0  0  0  3  0  0  0  0  0  0
  -25.6040  -33.8440   24.0760 N   0  0  0  0  0  0  0  0  0  0  0  0
  -25.9090  -34.9280   23.3510 C   0  0  0  0  0  0  0  0  0  0  0  0
  -26.5330  -34.8700   22.2870 O   0  0  0  0  0  0  0  0  0  0  0  0
  -25.0470  -33.9650   24.9090 H   0  0  0  0  0  0  0  0  0  0  0  0
  -24.1820  -36.7440   23.1470 C   0  0  0  0  0  1  0  0  0  0  0  0
  -25.4500  -36.2950   23.8920 C   0  0  0  0  0  3  0  0  0  0  0  0
  -27.6220  -37.1260   24.6810 C   0  0  0  0  0  1  0  0  0  0  0  0
  -26.4850  -37.3470   23.7890 N   0  0  0  0  0  0  0  0  0  0  0  0
  -26.0920  -38.2610   23.9990 H   0  0  0  0  0  0  0  0  0  0  0  0
  -26.4900  -31.6350   24.8680 C   0  0  1  0  0  0  0  0  0  0  0  0
  -25.4730  -31.3480   25.9960 C   0  0  0  0  0  1  0  0  0  0  0  0
  -27.0420  -30.2780   24.3720 C   0  0  0  0  0  1  0  0  0  0  0  0
  -27.6850  -32.4000   25.4850 C   0  0  0  0  0  1  0  0  0  0  0  0
  -29.9330  -22.5690   21.0760 C   0  0  0  0  0  2  0  0  0  0  0  0
  -30.2070  -21.0950   21.4140 C   0  0  0  0  0  0  0  0  0  0  0  0
  -30.7510  -20.8050   22.4830 O   0  0  0  0  0  0  0  0  0  0  0  0
  -29.8670  -18.7670   20.5720 C   0  0  0  0  0  0  0  0  0  0  0  0
  -29.8250  -20.1010   20.3950 C   0  0  0  0  0  3  0  0  0  0  0  0
  -29.6140  -17.6400   19.6020 C   0  0  0  0  0  2  0  0  0  0  0  0
  -30.2920  -17.8390   21.6960 C   0  0  0  0  0  2  0  0  0  0  0  0
  -30.6550  -16.9270   20.4990 C   0  0  0  0  0  3  0  0  0  0  0  0
  -30.9260  -14.5280   20.0150 C   0  0  0  0  0  0  0  0  0  0  0  0
  -30.5830  -12.3370   18.9510 C   0  0  0  0  0  2  0  0  0  0  0  0
  -29.6070  -12.4990   17.7680 C   0  0  0  0  0  2  0  0  0  0  0  0
  -28.1470  -12.3740   18.2460 C   0  0  0  0  0  2  0  0  0  0  0  0
  -27.8450  -13.2640   19.4810 C   0  0  0  0  0  3  0  0  0  0  0  0
  -28.9300  -13.0870   20.5680 C   0  0  0  0  0  2  0  0  0  0  0  0
  -30.2440  -13.3550   19.9560 N   0  0  0  0  0  0  0  0  0  0  0  0
  -31.9790  -14.7290   19.4010 O   0  0  0  0  0  0  0  0  0  0  0  0
  -30.3210  -15.5150   20.6870 N   0  0  0  0  0  0  0  0  0  0  0  0
  -29.4740  -15.2850   21.1830 H   0  0  0  0  0  0  0  0  0  0  0  0
  -25.4740  -13.8930   20.2680 C   0  0  0  0  0  0  0  0  0  0  0  0
  -24.4150  -13.1300   20.6830 C   0  0  0  0  0  0  0  0  0  0  0  0
  -24.8670  -11.7750   20.6460 C   0  0  0  0  0  0  0  0  0  0  0  0
  -26.5060  -13.0030   20.0080 N   0  0  0  0  0  0  0  0  0  0  0  0
  -26.1440  -11.7250   20.2890 N   0  0  0  0  0  0  0  0  0  0  0  0
  -24.1410  -10.5190   20.8740 C   0  0  0  0  0  0  0  0  0  0  0  0
  -24.5520   -9.5980   21.8640 C   0  0  0  0  0  3  0  0  0  0  0  0
  -23.8270   -8.4050   22.0770 C   0  0  0  0  0  3  0  0  0  0  0  0
  -22.6780   -8.1250   21.3010 C   0  0  0  0  0  0  0  0  0  0  0  0
  -22.2860   -9.0350   20.3030 C   0  0  0  0  0  3  0  0  0  0  0  0
  -23.0110  -10.2190   20.0880 C   0  0  0  0  0  3  0  0  0  0  0  0
  -21.9280   -6.9800   21.4210 O   0  0  0  0  0  0  0  0  0  0  0  0
  -21.7810   -6.3380   22.6240 C   0  0  0  0  0  0  0  0  0  0  0  0
  -21.2350   -6.9870   23.7530 C   0  0  0  0  0  3  0  0  0  0  0  0
  -21.0380   -6.2690   24.9500 C   0  0  0  0  0  3  0  0  0  0  0  0
  -21.3780   -4.9040   25.0170 C   0  0  0  0  0  0  0  0  0  0  0  0
  -21.9170   -4.2550   23.8920 C   0  0  0  0  0  3  0  0  0  0  0  0
  -22.1150   -4.9710   22.6980 C   0  0  0  0  0  0  0  0  0  0  0  0
  -22.6150   -4.3370   21.6110 F   0  0  0  0  0  0  0  0  0  0  0  0
  -21.1810   -4.2120   26.1630 F   0  0  0  0  0  0  0  0  0  0  0  0
  -23.0330  -13.6190   21.0070 C   0  0  0  0  0  0  0  0  0  0  0  0
  -22.3350  -12.9310   21.9050 N   0  0  0  0  0  0  0  0  0  0  0  0
  -22.5820  -14.6450   20.5000 O   0  0  0  0  0  0  0  0  0  0  0  0
  -22.7150  -12.1010   22.3370 H   0  0  0  0  0  0  0  0  0  0  0  0
  -21.4090  -13.2390   22.1640 H   0  0  0  0  0  0  0  0  0  0  0  0
  -25.6420  -15.2600   20.0740 N   0  0  0  0  0  0  0  0  0  0  0  0
  -24.8860  -15.9240   20.2050 H   0  0  0  0  0  0  0  0  0  0  0  0
  -26.4880  -15.6880   19.7190 H   0  0  0  0  0  0  0  0  0  0  0  0
  3  1  1  1
  3  2  1  0
  4  3  1  0
  4  6  1  0
  5  4  1  0
  7  4  1  0
  8  7  1  0
  9 11  1  0
  9  8  1  0
 10 21  2  0
 11 16  1  0
 12 20  1  0
 12 22  1  0
 13 19  1  0
 13 15  1  0
 14 20  1  0
 15 14  1  0
 16 15  2  0
 17 18  1  0
 17 11  2  0
 18 13  2  0
 19 12  1  0
 20 10  1  0
 22 24  2  0
 23 22  1  0
 25 23  1  0
 26 35  2  0
 26 31  1  0
 27 23  1  0
 27 31  1  0
 28 27  1  0
 29 30  1  0
 29 28  1  0
 30 26  1  0
 31 32  2  0
 32 33  1  0
 34 33  2  0
 35 34  1  0
 36 10  1  0
 36 37  1  0
 36 46  1  0
 37 40  1  0
 38 42  1  0
 38 37  1  0
 39 38  2  0
 42 41  1  0
 44 42  1  0
 44 45  1  0
 44 43  1  0
 46 49  1  1
 46 47  1  0
 48 46  1  0
 50 51  1  0
 50  3  1  0
 51 52  2  0
 53 56  1  0
 54 53  2  0
 54 51  1  0
 55 57  1  0
 55 53  1  0
 57 66  1  0
 57 56  1  0
 58 66  1  0
 59 64  1  0
 60 61  1  0
 60 59  1  0
 62 61  1  0
 62 71  1  0
 62 63  1  0
 64 58  1  0
 64 63  1  0
 65 58  2  0
 66 67  1  0
 68 69  2  0
 69 88  1  0
 70 69  1  0
 70 73  1  0
 71 68  1  0
 71 72  1  0
 72 70  2  0
 73 74  1  0
 74 75  2  0
 76 79  1  0
 76 75  1  0
 77 76  2  0
 78 77  1  0
 78 73  2  0
 79 80  1  0
 80 85  2  0
 80 81  1  0
 81 82  2  0
 82 83  1  0
 83 87  1  0
 84 83  2  0
 85 84  1  0
 86 85  1  0
 88 89  1  0
 89 92  1  0
 89 91  1  0
 90 88  2  0
 93 94  1  0
 93 68  1  0
 95 93  1  0
M  ISO  4   8 101   9 101  58 100  66 100
M  END
>  <TORSDO>  (78) 
F 22

>  <SCORE>  (78) 
-12.354

>  <name>  (78) 
77

>  <ligand_id>  (78) 
77

>  <original_smiles>  (78) 
[H]C(C(=O)C([H])([H])C(C([H])([H])[H])(C([H])([H])[H])[N+]([H])([H])C([H])([H])C([H])([H])Oc1c([H])c([H])c2c(c1[H])C([H])([H])N(C(=O)C([H])(N([H])C(=O)C([H])(N([H])C([H])([H])[H])C([H])([H])[H])C(C([H])([H])[H])(C([H])([H])[H])C([H])([H])[H])C([H])(C(=O)N([H])C1([H])c3c([H])c([H])c([H])c([H])c3C([H])([H])C([H])([H])C1([H])[H])C2([H])[H])=C1C([H])([H])C([H])(N([H])C(=O)N2C([H])([H])C([H])([H])C([H])([H])C([H])(n3nc(-c4c([H])c([H])c(Oc5c([H])c([H])c(F)c([H])c5F)c([H])c4[H])c(C(=O)N([H])[H])c3N([H])[H])C2([H])[H])C1([H])[H]

>  <smiles>  (78) 
[H]C(C(=O)C([H])([H])C(C([H])([H])[H])(C([H])([H])[H])[N+]([H])([H])C([H])([H])C([H])([H])Oc1c([H])c([H])c2c(c1[H])C([H])([H])N(C(=O)C([H])(N([H])C(=O)C([H])(N([H])C([H])([H])[H])C([H])([H])[H])C(C([H])([H])[H])(C([H])([H])[H])C([H])([H])[H])C([H])(C(=O)N([H])C1([H])c3c([H])c([H])c([H])c([H])c3C([H])([H])C([H])([H])C1([H])[H])C2([H])[H])=C1C([H])([H])C([H])(N([H])C(=O)N2C([H])([H])C([H])([H])C([H])([H])C([H])(n3nc(-c4c([H])c([H])c(Oc5c([H])c([H])c(F)c([H])c5F)c([H])c4[H])c(C(=O)N([H])[H])c3N([H])[H])C2([H])[H])C1([H])[H]

$$$$
78:0:0
     RDKit          3D

 98106  0  0  1  0  0  0  0  0999 V2000
  -28.7980  -21.0130   20.5250 C   0  0  0  0  0  0  0  0  0  0  0  0
  -27.8420  -20.3200   20.9790 N   0  0  0  0  0  0  0  0  0  0  0  0
  -27.0180  -20.8780   21.1620 H   0  0  0  0  0  0  0  0  0  0  0  0
  -29.1520  -23.0920   19.1280 C   0  0  0  0  0  3  0  0  0  0  0  0
  -29.0550  -24.4840   18.8810 C   0  0  0  0  0  3  0  0  0  0  0  0
  -28.0540  -24.7880   21.0570 C   0  0  0  0  0  3  0  0  0  0  0  0
  -28.6960  -22.5080   20.3360 C   0  0  0  0  0  0  0  0  0  0  0  0
  -28.1350  -23.3910   21.3090 C   0  0  0  0  0  0  0  0  0  0  0  0
  -28.5000  -25.3570   19.8420 C   0  0  0  0  0  0  0  0  0  0  0  0
  -27.6090  -22.8800   22.6460 C   0  0  0  0  0  1  0  0  0  0  0  0
  -28.4690  -26.7260   19.5960 O   0  0  0  0  0  0  0  0  0  0  0  0
  -24.6670  -31.6810   23.0700 C   0  0  0  0  0  0  0  0  0  0  0  0
  -27.2880  -27.4400   19.6860 C   0  0  0  0  0  0  0  0  0  0  0  0
  -23.4360  -30.3490   21.3900 C   0  0  0  0  0  3  0  0  0  0  0  0
  -24.8730  -28.9200   19.8340 C   0  0  0  0  0  0  0  0  0  0  0  0
  -25.9490  -30.7610   21.1360 C   0  0  0  0  0  2  0  0  0  0  0  0
  -26.0400  -29.4270   20.4230 C   0  0  0  0  0  0  0  0  0  0  0  0
  -27.2510  -28.6950   20.3450 C   0  0  0  0  0  3  0  0  0  0  0  0
  -26.1020  -26.9540   19.0900 C   0  0  0  0  0  3  0  0  0  0  0  0
  -24.8990  -27.6830   19.1650 C   0  0  0  0  0  3  0  0  0  0  0  0
  -23.6160  -29.7540   19.9680 C   0  0  0  0  0  2  0  0  0  0  0  0
  -24.7050  -30.9440   21.9230 N   0  0  0  0  0  0  0  0  0  0  0  0
  -23.6000  -31.8980   23.6580 O   0  0  0  0  0  0  0  0  0  0  0  0
  -22.8340  -29.2640   22.3110 C   0  0  0  0  0  0  0  0  0  0  0  0
  -21.5120  -29.0510   22.2010 N   0  0  0  0  0  0  0  0  0  0  0  0
  -23.5530  -28.6170   23.0760 O   0  0  0  0  0  0  0  0  0  0  0  0
  -20.9910  -29.6290   21.5550 H   0  0  0  0  0  0  0  0  0  0  0  0
  -18.1920  -27.7130   22.6800 C   0  0  0  0  0  0  0  0  0  0  0  0
  -20.7410  -28.0520   22.9390 C   0  0  0  0  0  3  0  0  0  0  0  0
  -20.8920  -26.6500   22.3020 C   0  0  0  0  0  2  0  0  0  0  0  0
  -19.7890  -26.3290   21.2890 C   0  0  0  0  0  2  0  0  0  0  0  0
  -18.4110  -26.4010   21.9500 C   0  0  0  0  0  2  0  0  0  0  0  0
  -19.2870  -28.4950   23.1320 C   0  0  0  0  0  0  0  0  0  0  0  0
  -19.0290  -29.7260   23.7760 C   0  0  0  0  0  3  0  0  0  0  0  0
  -17.7080  -30.1710   23.9720 C   0  0  0  0  0  3  0  0  0  0  0  0
  -16.6290  -29.3830   23.5380 C   0  0  0  0  0  3  0  0  0  0  0  0
  -16.8700  -28.1540   22.9010 C   0  0  0  0  0  3  0  0  0  0  0  0
  -25.9610  -32.3040   23.6830 C   0  0  0  0  0  3  0  0  0  0  0  0
  -25.6380  -33.6760   24.0970 N   0  0  0  0  0  0  0  0  0  0  0  0
  -25.9540  -34.7750   23.3970 C   0  0  0  0  0  0  0  0  0  0  0  0
  -26.6170  -34.7400   22.3580 O   0  0  0  0  0  0  0  0  0  0  0  0
  -25.0500  -33.7760   24.9130 H   0  0  0  0  0  0  0  0  0  0  0  0
  -24.2040  -36.5630   23.1550 C   0  0  0  0  0  1  0  0  0  0  0  0
  -25.4510  -36.1280   23.9390 C   0  0  0  0  0  3  0  0  0  0  0  0
  -27.5790  -36.9850   24.8160 C   0  0  0  0  0  1  0  0  0  0  0  0
  -26.4740  -37.1960   23.8850 N   0  0  0  0  0  0  0  0  0  0  0  0
  -26.0590  -38.1020   24.0880 H   0  0  0  0  0  0  0  0  0  0  0  0
  -26.5350  -31.4740   24.8950 C   0  0  1  0  0  0  0  0  0  0  0  0
  -25.4850  -31.1580   25.9870 C   0  0  0  0  0  1  0  0  0  0  0  0
  -27.1230  -30.1290   24.4060 C   0  0  0  0  0  1  0  0  0  0  0  0
  -27.6990  -32.2500   25.5530 C   0  0  0  0  0  1  0  0  0  0  0  0
  -30.1230  -20.3080   20.1760 C   0  0  0  0  0  2  0  0  0  0  0  0
  -30.8530  -19.5140   21.3210 C   0  0  0  0  0  3  0  0  0  0  0  0
  -30.8760  -20.3040   22.5740 N   0  0  0  0  0  4  0  0  0  0  0  0
  -29.9530  -20.3720   22.9610 H   0  0  0  0  0  0  0  0  0  0  0  0
  -31.2400  -21.2280   22.4170 H   0  0  0  0  0  0  0  0  0  0  0  0
  -31.4670  -19.8550   23.2540 H   0  0  0  0  0  0  0  0  0  0  0  0
  -31.0620  -17.4990   22.9060 C   0  0  0  0  0  1  0  0  0  0  0  0
  -30.4350  -18.0150   21.5820 C   0  0  0  0  0  3  0  0  0  0  0  0
  -30.8000  -17.0660   20.3940 C   0  0  0  0  0  2  0  0  0  0  0  0
  -31.1660  -14.5950   20.0880 C   0  0  0  0  0  0  0  0  0  0  0  0
  -30.8300  -12.3890   19.0380 C   0  0  0  0  0  2  0  0  0  0  0  0
  -29.8750  -12.5770   17.8390 C   0  0  0  0  0  2  0  0  0  0  0  0
  -28.4030  -12.4830   18.2940 C   0  0  0  0  0  2  0  0  0  0  0  0
  -28.1030  -13.3740   19.5280 C   0  0  0  0  0  3  0  0  0  0  0  0
  -29.1680  -13.1560   20.6270 C   0  0  0  0  0  2  0  0  0  0  0  0
  -30.4900  -13.4160   20.0370 N   0  0  0  0  0  0  0  0  0  0  0  0
  -32.2730  -14.7530   19.5680 O   0  0  0  0  0  0  0  0  0  0  0  0
  -30.4710  -15.6360   20.5940 N   0  0  0  0  0  0  0  0  0  0  0  0
  -29.5680  -15.4170   20.9830 H   0  0  0  0  0  0  0  0  0  0  0  0
  -25.7530  -14.0810   20.2970 C   0  0  0  0  0  0  0  0  0  0  0  0
  -24.6590  -13.3530   20.6860 C   0  0  0  0  0  0  0  0  0  0  0  0
  -25.0570  -11.9820   20.6270 C   0  0  0  0  0  0  0  0  0  0  0  0
  -26.7510  -13.1560   20.0330 N   0  0  0  0  0  0  0  0  0  0  0  0
  -26.3360  -11.8870   20.2860 N   0  0  0  0  0  0  0  0  0  0  0  0
  -24.2790  -10.7520   20.8210 C   0  0  0  0  0  0  0  0  0  0  0  0
  -24.6710   -9.7740   21.7610 C   0  0  0  0  0  3  0  0  0  0  0  0
  -23.8970   -8.6070   21.9410 C   0  0  0  0  0  3  0  0  0  0  0  0
  -22.7200   -8.4130   21.1820 C   0  0  0  0  0  0  0  0  0  0  0  0
  -22.3480   -9.3790   20.2300 C   0  0  0  0  0  3  0  0  0  0  0  0
  -23.1210  -10.5380   20.0480 C   0  0  0  0  0  3  0  0  0  0  0  0
  -21.9210   -7.2990   21.2710 O   0  0  0  0  0  0  0  0  0  0  0  0
  -21.7950   -6.5930   22.4410 C   0  0  0  0  0  0  0  0  0  0  0  0
  -21.3380   -7.2010   23.6300 C   0  0  0  0  0  3  0  0  0  0  0  0
  -21.1570   -6.4250   24.7920 C   0  0  0  0  0  3  0  0  0  0  0  0
  -21.4230   -5.0440   24.7670 C   0  0  0  0  0  0  0  0  0  0  0  0
  -21.8740   -4.4350   23.5820 C   0  0  0  0  0  3  0  0  0  0  0  0
  -22.0570   -5.2080   22.4210 C   0  0  0  0  0  0  0  0  0  0  0  0
  -22.4710   -4.6120   21.2770 F   0  0  0  0  0  0  0  0  0  0  0  0
  -21.2410   -4.2960   25.8810 F   0  0  0  0  0  0  0  0  0  0  0  0
  -23.2920  -13.8890   21.0050 C   0  0  0  0  0  0  0  0  0  0  0  0
  -22.5680  -13.2260   21.8990 N   0  0  0  0  0  0  0  0  0  0  0  0
  -22.8800  -14.9300   20.4980 O   0  0  0  0  0  0  0  0  0  0  0  0
  -22.9080  -12.3780   22.3280 H   0  0  0  0  0  0  0  0  0  0  0  0
  -21.6550  -13.5710   22.1580 H   0  0  0  0  0  0  0  0  0  0  0  0
  -25.9720  -15.4460   20.1300 N   0  0  0  0  0  0  0  0  0  0  0  0
  -25.2330  -16.1310   20.2580 H   0  0  0  0  0  0  0  0  0  0  0  0
  -26.8370  -15.8580   19.8000 H   0  0  0  0  0  0  0  0  0  0  0  0
  1  2  2  0
  2  3  1  0
  4  7  1  0
  5  4  2  0
  5  9  1  0
  6  8  1  0
  7  1  1  0
  7  8  2  0
  8 10  1  0
  9  6  2  0
 11 13  1  0
 11  9  1  0
 12 23  2  0
 13 18  1  0
 14 22  1  0
 14 24  1  0
 15 21  1  0
 15 17  1  0
 16 22  1  0
 17 16  1  0
 18 17  2  0
 19 20  1  0
 19 13  2  0
 20 15  2  0
 21 14  1  0
 22 12  1  0
 24 26  2  0
 25 24  1  0
 27 25  1  0
 28 37  2  0
 28 33  1  0
 29 25  1  0
 29 33  1  0
 30 29  1  0
 31 32  1  0
 31 30  1  0
 32 28  1  0
 33 34  2  0
 34 35  1  0
 36 35  2  0
 37 36  1  0
 38 12  1  0
 38 39  1  0
 38 48  1  0
 39 42  1  0
 40 44  1  0
 40 39  1  0
 41 40  2  0
 44 43  1  0
 46 44  1  0
 46 47  1  0
 46 45  1  0
 48 51  1  1
 48 49  1  0
 50 48  1  0
 52  1  1  0
 53 52  1  0
 53 59  1  0
 53 54  1  0
 54 55  1  0
 54 57  1  0
 56 54  1  0
 59 58  1  0
 60 69  1  0
 60 59  1  0
 61 69  1  0
 62 67  1  0
 63 64  1  0
 63 62  1  0
 65 64  1  0
 65 74  1  0
 65 66  1  0
 67 61  1  0
 67 66  1  0
 68 61  2  0
 69 70  1  0
 71 72  2  0
 72 91  1  0
 73 72  1  0
 73 76  1  0
 74 75  1  0
 74 71  1  0
 75 73  2  0
 76 77  1  0
 77 78  2  0
 79 82  1  0
 79 78  1  0
 80 79  2  0
 81 80  1  0
 81 76  2  0
 82 83  1  0
 83 84  1  0
 84 85  2  0
 86 85  1  0
 86 90  1  0
 87 86  2  0
 88 83  2  0
 88 87  1  0
 89 88  1  0
 91 92  1  0
 92 95  1  0
 92 94  1  0
 93 91  2  0
 96 97  1  0
 96 71  1  0
 98 96  1  0
M  ISO  4   9 101  11 101  61 100  69 100
M  END
>  <TORSDO>  (79) 
F 22

>  <SCORE>  (79) 
-11.755

>  <name>  (79) 
78

>  <ligand_id>  (79) 
78

>  <original_smiles>  (79) 
[H]N=C(c1c([H])c([H])c(Oc2c([H])c([H])c3c(c2[H])C([H])([H])N(C(=O)C([H])(N([H])C(=O)C([H])(N([H])C([H])([H])[H])C([H])([H])[H])C(C([H])([H])[H])(C([H])([H])[H])C([H])([H])[H])C([H])(C(=O)N([H])C2([H])c4c([H])c([H])c([H])c([H])c4C([H])([H])C([H])([H])C2([H])[H])C3([H])[H])c([H])c1C([H])([H])[H])C([H])([H])C([H])(C([H])(C([H])([H])[H])C([H])([H])N([H])C(=O)N1C([H])([H])C([H])([H])C([H])([H])C([H])(n2nc(-c3c([H])c([H])c(Oc4c([H])c([H])c(F)c([H])c4F)c([H])c3[H])c(C(=O)N([H])[H])c2N([H])[H])C1([H])[H])[N+]([H])([H])[H]

>  <smiles>  (79) 
[H]N=C(c1c([H])c([H])c(Oc2c([H])c([H])c3c(c2[H])C([H])([H])N(C(=O)C([H])(N([H])C(=O)C([H])(N([H])C([H])([H])[H])C([H])([H])[H])C(C([H])([H])[H])(C([H])([H])[H])C([H])([H])[H])C([H])(C(=O)N([H])C2([H])c4c([H])c([H])c([H])c([H])c4C([H])([H])C([H])([H])C2([H])[H])C3([H])[H])c([H])c1C([H])([H])[H])C([H])([H])C([H])(C([H])(C([H])([H])[H])C([H])([H])N([H])C(=O)N1C([H])([H])C([H])([H])C([H])([H])C([H])(n2nc(-c3c([H])c([H])c(Oc4c([H])c([H])c(F)c([H])c4F)c([H])c3[H])c(C(=O)N([H])[H])c2N([H])[H])C1([H])[H])[N+]([H])([H])[H]

$$$$
79:0:0
     RDKit          3D

 98106  0  0  1  0  0  0  0  0999 V2000
  -29.4270  -19.5840   19.0230 C   0  0  0  0  0  3  0  0  0  0  0  0
  -30.3350  -19.7280   17.8650 N   0  0  0  0  0  4  0  0  0  0  0  0
  -31.1630  -20.2420   18.1100 H   0  0  0  0  0  0  0  0  0  0  0  0
  -29.8730  -20.1890   17.1020 H   0  0  0  0  0  0  0  0  0  0  0  0
  -30.6270  -18.8250   17.5340 H   0  0  0  0  0  0  0  0  0  0  0  0
  -30.2130  -18.9170   20.1720 C   0  0  0  0  0  0  0  0  0  0  0  0
  -30.7030  -19.5580   21.1060 O   0  0  0  0  0  0  0  0  0  0  0  0
  -30.4540  -17.4080   20.0380 C   0  0  0  0  0  2  0  0  0  0  0  0
  -29.8160  -16.9190   22.6290 C   0  0  0  0  0  2  0  0  0  0  0  0
  -31.3080  -16.7580   22.4820 C   0  0  0  0  0  3  0  0  0  0  0  0
  -30.4050  -16.5000   21.2870 C   0  0  2  0  0  0  0  0  0  0  0  0
  -32.0540  -15.6270   23.1570 C   0  0  0  0  0  1  0  0  0  0  0  0
  -30.4950  -14.4400   19.8690 C   0  0  0  0  0  0  0  0  0  0  0  0
  -29.9990  -12.4840   18.4500 C   0  0  0  0  0  2  0  0  0  0  0  0
  -28.9130  -12.8370   17.4160 C   0  0  0  0  0  2  0  0  0  0  0  0
  -27.5000  -12.6550   18.0050 C   0  0  0  0  0  2  0  0  0  0  0  0
  -27.3380  -13.3320   19.3920 C   0  0  0  0  0  3  0  0  0  0  0  0
  -28.5120  -12.9520   20.3190 C   0  0  0  0  0  2  0  0  0  0  0  0
  -29.7760  -13.3100   19.6440 N   0  0  0  0  0  0  0  0  0  0  0  0
  -31.4300  -14.8120   19.1520 O   0  0  0  0  0  0  0  0  0  0  0  0
  -30.0740  -15.1510   20.9250 N   0  0  0  0  0  0  0  0  0  0  0  0
  -29.3320  -14.7160   21.4530 H   0  0  0  0  0  0  0  0  0  0  0  0
  -25.0010  -13.8500   20.3490 C   0  0  0  0  0  0  0  0  0  0  0  0
  -24.0010  -13.0350   20.8110 C   0  0  0  0  0  0  0  0  0  0  0  0
  -24.4990  -11.7000   20.7000 C   0  0  0  0  0  0  0  0  0  0  0  0
  -26.0460  -13.0090   19.9950 N   0  0  0  0  0  0  0  0  0  0  0  0
  -25.7500  -11.7100   20.2590 N   0  0  0  0  0  0  0  0  0  0  0  0
  -23.8370  -10.4090   20.9390 C   0  0  0  0  0  0  0  0  0  0  0  0
  -24.3370   -9.4860   21.8830 C   0  0  0  0  0  3  0  0  0  0  0  0
  -23.6740   -8.2600   22.1060 C   0  0  0  0  0  3  0  0  0  0  0  0
  -22.4960   -7.9490   21.3870 C   0  0  0  0  0  0  0  0  0  0  0  0
  -22.0130   -8.8620   20.4320 C   0  0  0  0  0  3  0  0  0  0  0  0
  -22.6780  -10.0790   20.2070 C   0  0  0  0  0  3  0  0  0  0  0  0
  -21.8000   -6.7720   21.5190 O   0  0  0  0  0  0  0  0  0  0  0  0
  -21.7520   -6.0930   22.7100 C   0  0  0  0  0  0  0  0  0  0  0  0
  -21.2370   -6.6850   23.8840 C   0  0  0  0  0  3  0  0  0  0  0  0
  -21.1450   -5.9290   25.0700 C   0  0  0  0  0  3  0  0  0  0  0  0
  -21.5550   -4.5830   25.0800 C   0  0  0  0  0  0  0  0  0  0  0  0
  -22.0600   -3.9890   23.9110 C   0  0  0  0  0  3  0  0  0  0  0  0
  -22.1550   -4.7430   22.7270 C   0  0  0  0  0  0  0  0  0  0  0  0
  -22.6240   -4.1610   21.5970 F   0  0  0  0  0  0  0  0  0  0  0  0
  -21.4580   -3.8550   26.2180 F   0  0  0  0  0  0  0  0  0  0  0  0
  -22.6260  -13.4590   21.2440 C   0  0  0  0  0  0  0  0  0  0  0  0
  -22.0220  -12.7260   22.1740 N   0  0  0  0  0  0  0  0  0  0  0  0
  -22.0980  -14.4730   20.7930 O   0  0  0  0  0  0  0  0  0  0  0  0
  -22.4620  -11.9030   22.5600 H   0  0  0  0  0  0  0  0  0  0  0  0
  -21.1060  -12.9910   22.5050 H   0  0  0  0  0  0  0  0  0  0  0  0
  -25.1070  -15.2280   20.1860 N   0  0  0  0  0  0  0  0  0  0  0  0
  -24.3450  -15.8630   20.3990 H   0  0  0  0  0  0  0  0  0  0  0  0
  -25.9220  -15.6980   19.8110 H   0  0  0  0  0  0  0  0  0  0  0  0
  -28.7240  -20.9080   19.4390 C   0  0  0  0  0  2  0  0  0  0  0  0
  -29.6280  -22.1390   19.7070 C   0  0  0  0  0  2  0  0  0  0  0  0
  -28.9130  -23.2080   20.4400 N   0  0  0  0  0  4  0  0  0  0  0  0
  -29.1520  -23.1220   21.4170 H   0  0  0  0  0  0  0  0  0  0  0  0
  -27.9200  -23.0560   20.3590 H   0  0  0  0  0  0  0  0  0  0  0  0
  -29.2150  -24.5850   19.9810 C   0  0  0  0  0  2  0  0  0  0  0  0
  -28.5060  -25.6420   20.8400 C   0  0  0  0  0  2  0  0  0  0  0  0
  -28.5600  -26.9040   20.1720 O   0  0  0  0  0  0  0  0  0  0  0  0
  -24.6320  -31.9310   23.2620 C   0  0  0  0  0  0  0  0  0  0  0  0
  -27.3740  -27.5910   20.1680 C   0  0  0  0  0  0  0  0  0  0  0  0
  -23.4560  -30.5220   21.5980 C   0  0  0  0  0  3  0  0  0  0  0  0
  -24.9460  -29.0240   20.1700 C   0  0  0  0  0  0  0  0  0  0  0  0
  -25.9740  -30.9350   21.4200 C   0  0  0  0  0  2  0  0  0  0  0  0
  -26.0880  -29.5760   20.7680 C   0  0  0  0  0  0  0  0  0  0  0  0
  -27.3080  -28.8690   20.7600 C   0  0  0  0  0  3  0  0  0  0  0  0
  -26.2210  -27.0450   19.5630 C   0  0  0  0  0  3  0  0  0  0  0  0
  -25.0070  -27.7560   19.5630 C   0  0  0  0  0  3  0  0  0  0  0  0
  -23.6860  -29.8560   20.2140 C   0  0  0  0  0  2  0  0  0  0  0  0
  -24.7030  -31.1430   22.1520 N   0  0  0  0  0  0  0  0  0  0  0  0
  -23.5450  -32.1830   23.7990 O   0  0  0  0  0  0  0  0  0  0  0  0
  -22.8190  -29.4830   22.5480 C   0  0  0  0  0  0  0  0  0  0  0  0
  -21.5010  -29.2680   22.4020 N   0  0  0  0  0  0  0  0  0  0  0  0
  -23.5070  -28.8710   23.3690 O   0  0  0  0  0  0  0  0  0  0  0  0
  -21.0060  -29.8180   21.7130 H   0  0  0  0  0  0  0  0  0  0  0  0
  -18.1490  -27.9980   22.8450 C   0  0  0  0  0  0  0  0  0  0  0  0
  -20.6960  -28.3100   23.1590 C   0  0  0  0  0  3  0  0  0  0  0  0
  -20.8390  -26.8830   22.5810 C   0  0  0  0  0  2  0  0  0  0  0  0
  -19.7610  -26.5400   21.5480 C   0  0  0  0  0  2  0  0  0  0  0  0
  -18.3660  -26.6550   22.1670 C   0  0  0  0  0  2  0  0  0  0  0  0
  -19.2440  -28.7820   23.2950 C   0  0  0  0  0  0  0  0  0  0  0  0
  -18.9890  -30.0400   23.8840 C   0  0  0  0  0  3  0  0  0  0  0  0
  -17.6710  -30.5130   24.0280 C   0  0  0  0  0  3  0  0  0  0  0  0
  -16.5900  -29.7250   23.5960 C   0  0  0  0  0  3  0  0  0  0  0  0
  -16.8300  -28.4710   23.0090 C   0  0  0  0  0  3  0  0  0  0  0  0
  -25.9080  -32.5750   23.8920 C   0  0  0  0  0  3  0  0  0  0  0  0
  -26.4170  -31.8160   25.1790 C   0  0  1  0  0  0  0  0  0  0  0  0
  -25.3140  -31.5750   26.2340 C   0  0  0  0  0  1  0  0  0  0  0  0
  -27.0180  -30.4410   24.8030 C   0  0  0  0  0  1  0  0  0  0  0  0
  -27.5500  -32.6270   25.8520 C   0  0  0  0  0  1  0  0  0  0  0  0
  -25.5870  -33.9730   24.2070 N   0  0  0  0  0  0  0  0  0  0  0  0
  -25.9240  -35.0210   23.4420 C   0  0  0  0  0  0  0  0  0  0  0  0
  -26.6100  -34.9130   22.4210 O   0  0  0  0  0  0  0  0  0  0  0  0
  -24.9810  -34.1300   24.9980 H   0  0  0  0  0  0  0  0  0  0  0  0
  -24.1930  -36.7980   23.0340 C   0  0  0  0  0  1  0  0  0  0  0  0
  -25.4170  -36.4080   23.8780 C   0  0  0  0  0  3  0  0  0  0  0  0
  -27.5260  -37.3130   24.7550 C   0  0  0  0  0  1  0  0  0  0  0  0
  -26.4480  -37.4660   23.7810 N   0  0  0  0  0  0  0  0  0  0  0  0
  -26.0340  -38.3850   23.9090 H   0  0  0  0  0  0  0  0  0  0  0  0
  1 51  1  0
  1  6  1  0
  2  3  1  0
  2  1  1  0
  4  2  1  0
  5  2  1  0
  6  7  2  0
  8  6  1  0
 10  9  1  0
 10 12  1  0
 11  8  1  6
 11 10  1  0
 11  9  1  0
 13 21  1  0
 14 19  1  0
 15 16  1  0
 15 14  1  0
 17 16  1  0
 17 26  1  0
 17 18  1  0
 19 13  1  0
 19 18  1  0
 20 13  2  0
 21 11  1  0
 21 22  1  0
 23 24  2  0
 24 43  1  0
 25 24  1  0
 25 28  1  0
 26 27  1  0
 26 23  1  0
 27 25  2  0
 28 29  1  0
 29 30  2  0
 31 34  1  0
 31 30  1  0
 32 31  2  0
 33 32  1  0
 33 28  2  0
 34 35  1  0
 35 40  2  0
 35 36  1  0
 36 37  2  0
 37 38  1  0
 38 42  1  0
 39 38  2  0
 40 39  1  0
 41 40  1  0
 43 44  1  0
 44 47  1  0
 44 46  1  0
 45 43  2  0
 48 23  1  0
 48 49  1  0
 50 48  1  0
 51 52  1  0
 52 53  1  0
 53 54  1  0
 55 53  1  0
 56 53  1  0
 56 57  1  0
 58 57  1  0
 59 70  2  0
 60 58  1  0
 60 65  1  0
 61 69  1  0
 61 71  1  0
 62 68  1  0
 62 64  1  0
 63 69  1  0
 64 63  1  0
 65 64  2  0
 66 60  2  0
 67 66  1  0
 67 62  2  0
 68 61  1  0
 69 59  1  0
 71 73  2  0
 72 71  1  0
 74 72  1  0
 75 84  2  0
 75 80  1  0
 76 72  1  0
 76 80  1  0
 77 76  1  0
 78 79  1  0
 78 77  1  0
 79 75  1  0
 80 81  2  0
 81 82  1  0
 83 82  2  0
 84 83  1  0
 85 59  1  0
 85 90  1  0
 85 86  1  0
 86 89  1  1
 86 87  1  0
 88 86  1  0
 90 93  1  0
 91 95  1  0
 91 90  1  0
 92 91  2  0
 95 94  1  0
 97 95  1  0
 97 98  1  0
 97 96  1  0
M  ISO  4  13 100  21 100  57 101  58 101
M  END
>  <TORSDO>  (80) 
F 25

>  <SCORE>  (80) 
-7.857

>  <name>  (80) 
79

>  <ligand_id>  (80) 
79

>  <original_smiles>  (80) 
[H]c1c([H])c([H])c2c(c1[H])C([H])([H])C([H])([H])C([H])([H])C2([H])N([H])C(=O)C1([H])N(C(=O)C([H])(N([H])C(=O)C([H])(N([H])C([H])([H])[H])C([H])([H])[H])C(C([H])([H])[H])(C([H])([H])[H])C([H])([H])[H])C([H])([H])c2c([H])c(OC([H])([H])C([H])([H])[N+]([H])([H])C([H])([H])C([H])([H])C([H])(C(=O)C([H])([H])C3(N([H])C(=O)N4C([H])([H])C([H])([H])C([H])([H])C([H])(n5nc(-c6c([H])c([H])c(Oc7c([H])c([H])c(F)c([H])c7F)c([H])c6[H])c(C(=O)N([H])[H])c5N([H])[H])C4([H])[H])C([H])([H])C3([H])C([H])([H])[H])[N+]([H])([H])[H])c([H])c([H])c2C1([H])[H]

>  <smiles>  (80) 
[H]c1c([H])c([H])c2c(c1[H])C([H])([H])C([H])([H])C([H])([H])C2([H])N([H])C(=O)C1([H])N(C(=O)C([H])(N([H])C(=O)C([H])(N([H])C([H])([H])[H])C([H])([H])[H])C(C([H])([H])[H])(C([H])([H])[H])C([H])([H])[H])C([H])([H])c2c([H])c(OC([H])([H])C([H])([H])[N+]([H])([H])C([H])([H])C([H])([H])C([H])(C(=O)C([H])([H])C3(N([H])C(=O)N4C([H])([H])C([H])([H])C([H])([H])C([H])(n5nc(-c6c([H])c([H])c(Oc7c([H])c([H])c(F)c([H])c7F)c([H])c6[H])c(C(=O)N([H])[H])c5N([H])[H])C4([H])[H])C([H])([H])C3([H])C([H])([H])[H])[N+]([H])([H])[H])c([H])c([H])c2C1([H])[H]

$$$$
80:0:0
     RDKit          3D

 90 98  0  0  1  0  0  0  0  0999 V2000
  -27.5460  -24.0170   20.0960 C   0  0  0  0  0  3  0  0  0  0  0  0
  -27.6250  -22.6410   20.0030 C   0  0  0  0  0  0  0  0  0  0  0  0
  -26.4560  -21.9680   19.2850 C   0  0  0  0  0  1  0  0  0  0  0  0
  -28.3830  -25.1710   20.7320 C   0  0  0  0  0  2  0  0  0  0  0  0
  -28.3520  -26.5290   20.1240 O   0  0  0  0  0  0  0  0  0  0  0  0
  -24.6070  -31.8920   23.2380 C   0  0  0  0  0  0  0  0  0  0  0  0
  -27.2140  -27.3430   20.1790 C   0  0  0  0  0  0  0  0  0  0  0  0
  -23.4030  -30.4920   21.5990 C   0  0  0  0  0  3  0  0  0  0  0  0
  -24.8540  -28.9460   20.1780 C   0  0  0  0  0  0  0  0  0  0  0  0
  -25.9420  -30.8140   21.4180 C   0  0  0  0  0  2  0  0  0  0  0  0
  -26.0200  -29.4350   20.7790 C   0  0  0  0  0  0  0  0  0  0  0  0
  -27.2040  -28.6380   20.7810 C   0  0  0  0  0  3  0  0  0  0  0  0
  -26.0380  -26.9320   19.5230 C   0  0  0  0  0  3  0  0  0  0  0  0
  -24.8610  -27.6960   19.5460 C   0  0  0  0  0  3  0  0  0  0  0  0
  -23.6190  -29.8200   20.2200 C   0  0  0  0  0  2  0  0  0  0  0  0
  -24.6710  -31.0820   22.1430 N   0  0  0  0  0  0  0  0  0  0  0  0
  -23.5230  -32.1640   23.7760 O   0  0  0  0  0  0  0  0  0  0  0  0
  -22.7440  -29.4700   22.5550 C   0  0  0  0  0  0  0  0  0  0  0  0
  -21.4190  -29.2950   22.4270 N   0  0  0  0  0  0  0  0  0  0  0  0
  -23.4220  -28.8430   23.3730 O   0  0  0  0  0  0  0  0  0  0  0  0
  -20.9350  -29.8450   21.7330 H   0  0  0  0  0  0  0  0  0  0  0  0
  -18.0400  -28.0990   22.9260 C   0  0  0  0  0  0  0  0  0  0  0  0
  -20.6000  -28.3560   23.1950 C   0  0  0  0  0  3  0  0  0  0  0  0
  -20.7020  -26.9280   22.6160 C   0  0  0  0  0  2  0  0  0  0  0  0
  -19.6010  -26.6090   21.6010 C   0  0  0  0  0  2  0  0  0  0  0  0
  -18.2190  -26.7500   22.2460 C   0  0  0  0  0  2  0  0  0  0  0  0
  -19.1600  -28.8590   23.3580 C   0  0  0  0  0  0  0  0  0  0  0  0
  -18.9440  -30.1190   23.9580 C   0  0  0  0  0  3  0  0  0  0  0  0
  -17.6420  -30.6230   24.1250 C   0  0  0  0  0  3  0  0  0  0  0  0
  -16.5360  -29.8600   23.7100 C   0  0  0  0  0  3  0  0  0  0  0  0
  -16.7350  -28.5980   23.1180 C   0  0  0  0  0  3  0  0  0  0  0  0
  -25.8890  -32.5240   23.8600 C   0  0  0  0  0  3  0  0  0  0  0  0
  -26.4060  -31.7480   25.1320 C   0  0  1  0  0  0  0  0  0  0  0  0
  -25.3110  -31.5050   26.1980 C   0  0  0  0  0  1  0  0  0  0  0  0
  -26.9890  -30.3700   24.7370 C   0  0  0  0  0  1  0  0  0  0  0  0
  -27.5600  -32.5380   25.7920 C   0  0  0  0  0  1  0  0  0  0  0  0
  -25.5770  -33.9210   24.1930 N   0  0  0  0  0  0  0  0  0  0  0  0
  -25.9070  -34.9760   23.4340 C   0  0  0  0  0  0  0  0  0  0  0  0
  -26.5750  -34.8750   22.4010 O   0  0  0  0  0  0  0  0  0  0  0  0
  -24.9800  -34.0770   24.9940 H   0  0  0  0  0  0  0  0  0  0  0  0
  -24.1740  -36.7650   23.0850 C   0  0  0  0  0  1  0  0  0  0  0  0
  -25.4190  -36.3640   23.8930 C   0  0  0  0  0  3  0  0  0  0  0  0
  -27.5570  -37.2520   24.7130 C   0  0  0  0  0  1  0  0  0  0  0  0
  -26.4490  -37.4190   23.7750 N   0  0  0  0  0  0  0  0  0  0  0  0
  -26.0440  -38.3420   23.9180 H   0  0  0  0  0  0  0  0  0  0  0  0
  -28.6740  -21.5940   20.5310 C   0  0  0  0  0  2  0  0  0  0  0  0
  -29.0440  -20.4080   19.5280 C   0  0  0  0  0  2  0  0  0  0  0  0
  -29.8050  -17.9170   19.2470 C   0  0  0  0  0  0  0  0  0  0  0  0
  -29.7090  -18.2970   21.2680 C   0  0  0  0  0  2  0  0  0  0  0  0
  -30.4190  -17.1680   20.4580 C   0  0  0  0  0  3  0  0  0  0  0  0
  -29.5230  -19.0550   19.9970 N   0  0  0  0  0  0  0  0  0  0  0  0
  -29.6310  -17.6760   18.0700 O   0  0  0  0  0  0  0  0  0  0  0  0
  -30.6640  -14.6570   20.1670 C   0  0  0  0  0  0  0  0  0  0  0  0
  -30.3550  -12.4450   19.0750 C   0  0  0  0  0  2  0  0  0  0  0  0
  -29.3820  -12.6090   17.8870 C   0  0  0  0  0  2  0  0  0  0  0  0
  -27.9210  -12.4700   18.3540 C   0  0  0  0  0  2  0  0  0  0  0  0
  -27.6150  -13.3170   19.6200 C   0  0  0  0  0  3  0  0  0  0  0  0
  -28.7040  -13.1460   20.7010 C   0  0  0  0  0  2  0  0  0  0  0  0
  -30.0010  -13.4610   20.0880 N   0  0  0  0  0  0  0  0  0  0  0  0
  -31.7940  -14.7890   19.6870 O   0  0  0  0  0  0  0  0  0  0  0  0
  -29.9760  -15.7400   20.6290 N   0  0  0  0  0  0  0  0  0  0  0  0
  -29.0540  -15.5810   21.0050 H   0  0  0  0  0  0  0  0  0  0  0  0
  -25.2550  -13.9260   20.4160 C   0  0  0  0  0  0  0  0  0  0  0  0
  -24.1970  -13.1580   20.8220 C   0  0  0  0  0  0  0  0  0  0  0  0
  -24.6490  -11.8030   20.7720 C   0  0  0  0  0  0  0  0  0  0  0  0
  -26.2830  -13.0410   20.1450 N   0  0  0  0  0  0  0  0  0  0  0  0
  -25.9280  -11.7580   20.4210 N   0  0  0  0  0  0  0  0  0  0  0  0
  -23.9220  -10.5450   20.9810 C   0  0  0  0  0  0  0  0  0  0  0  0
  -24.3800   -9.5690   21.8950 C   0  0  0  0  0  3  0  0  0  0  0  0
  -23.6520   -8.3770   22.0920 C   0  0  0  0  0  3  0  0  0  0  0  0
  -22.4520   -8.1500   21.3770 C   0  0  0  0  0  0  0  0  0  0  0  0
  -22.0140   -9.1130   20.4510 C   0  0  0  0  0  3  0  0  0  0  0  0
  -22.7420  -10.2990   20.2520 C   0  0  0  0  0  3  0  0  0  0  0  0
  -21.6910   -7.0120   21.4870 O   0  0  0  0  0  0  0  0  0  0  0  0
  -21.6760   -6.2640   22.6370 C   0  0  0  0  0  0  0  0  0  0  0  0
  -21.3020   -6.8160   23.8810 C   0  0  0  0  0  3  0  0  0  0  0  0
  -21.2320   -5.9950   25.0240 C   0  0  0  0  0  3  0  0  0  0  0  0
  -21.5270   -4.6220   24.9250 C   0  0  0  0  0  0  0  0  0  0  0  0
  -21.8970   -4.0680   23.6860 C   0  0  0  0  0  3  0  0  0  0  0  0
  -21.9670   -4.8870   22.5460 C   0  0  0  0  0  0  0  0  0  0  0  0
  -22.3010   -4.3440   21.3510 F   0  0  0  0  0  0  0  0  0  0  0  0
  -21.4540   -3.8320   26.0220 F   0  0  0  0  0  0  0  0  0  0  0  0
  -22.8130  -13.6420   21.1470 C   0  0  0  0  0  0  0  0  0  0  0  0
  -22.1170  -12.9450   22.0390 N   0  0  0  0  0  0  0  0  0  0  0  0
  -22.3640  -14.6690   20.6450 O   0  0  0  0  0  0  0  0  0  0  0  0
  -22.5030  -12.1130   22.4630 H   0  0  0  0  0  0  0  0  0  0  0  0
  -21.1890  -13.2410   22.3030 H   0  0  0  0  0  0  0  0  0  0  0  0
  -25.4230  -15.2960   20.2320 N   0  0  0  0  0  0  0  0  0  0  0  0
  -24.6540  -15.9500   20.3450 H   0  0  0  0  0  0  0  0  0  0  0  0
  -26.2490  -15.7190   19.8310 H   0  0  0  0  0  0  0  0  0  0  0  0
  1  4  1  0
  2  1  2  0
  2 46  1  0
  3  2  1  0
  5  7  1  0
  5  4  1  0
  6 17  2  0
  7 12  1  0
  8 16  1  0
  8 18  1  0
  9 15  1  0
  9 11  1  0
 10 16  1  0
 11 12  2  0
 11 10  1  0
 13 14  1  0
 13  7  2  0
 14  9  2  0
 15  8  1  0
 16  6  1  0
 18 20  2  0
 19 18  1  0
 21 19  1  0
 22 31  2  0
 22 27  1  0
 23 19  1  0
 23 27  1  0
 24 23  1  0
 25 26  1  0
 25 24  1  0
 26 22  1  0
 27 28  2  0
 28 29  1  0
 30 29  2  0
 31 30  1  0
 32  6  1  0
 32 37  1  0
 32 33  1  0
 33 36  1  1
 33 34  1  0
 35 33  1  0
 37 40  1  0
 38 42  1  0
 38 37  1  0
 39 38  2  0
 42 41  1  0
 44 42  1  0
 44 45  1  0
 44 43  1  0
 47 51  1  0
 47 46  1  0
 48 51  1  0
 48 50  1  0
 50 61  1  0
 50 49  1  0
 51 49  1  0
 52 48  2  0
 53 61  1  0
 54 59  1  0
 55 56  1  0
 55 54  1  0
 57 56  1  0
 57 66  1  0
 57 58  1  0
 59 53  1  0
 59 58  1  0
 60 53  2  0
 61 62  1  0
 63 64  2  0
 64 83  1  0
 65 64  1  0
 65 68  1  0
 66 63  1  0
 66 67  1  0
 67 65  2  0
 68 69  1  0
 69 70  2  0
 71 74  1  0
 71 70  1  0
 72 71  2  0
 73 72  1  0
 73 68  2  0
 74 75  1  0
 75 76  1  0
 76 77  2  0
 78 77  1  0
 78 82  1  0
 79 78  2  0
 80 75  2  0
 80 79  1  0
 81 80  1  0
 83 84  1  0
 84 87  1  0
 84 86  1  0
 85 83  2  0
 88 89  1  0
 88 63  1  0
 90 88  1  0
M  ISO  4   4 101   5 101  53 100  61 100
M  END
>  <TORSDO>  (81) 
F 20

>  <SCORE>  (81) 
-13.523

>  <name>  (81) 
80

>  <ligand_id>  (81) 
80

>  <original_smiles>  (81) 
[H]C(=C(C([H])([H])[H])C([H])([H])C([H])([H])N1C(=O)C([H])(N([H])C(=O)N2C([H])([H])C([H])([H])C([H])([H])C([H])(n3nc(-c4c([H])c([H])c(Oc5c([H])c([H])c(F)c([H])c5F)c([H])c4[H])c(C(=O)N([H])[H])c3N([H])[H])C2([H])[H])C1([H])[H])C([H])([H])Oc1c([H])c([H])c2c(c1[H])C([H])([H])N(C(=O)C([H])(N([H])C(=O)C([H])(N([H])C([H])([H])[H])C([H])([H])[H])C(C([H])([H])[H])(C([H])([H])[H])C([H])([H])[H])C([H])(C(=O)N([H])C1([H])c3c([H])c([H])c([H])c([H])c3C([H])([H])C([H])([H])C1([H])[H])C2([H])[H]

>  <smiles>  (81) 
[H]C(=C(C([H])([H])[H])C([H])([H])C([H])([H])N1C(=O)C([H])(N([H])C(=O)N2C([H])([H])C([H])([H])C([H])([H])C([H])(n3nc(-c4c([H])c([H])c(Oc5c([H])c([H])c(F)c([H])c5F)c([H])c4[H])c(C(=O)N([H])[H])c3N([H])[H])C2([H])[H])C1([H])[H])C([H])([H])Oc1c([H])c([H])c2c(c1[H])C([H])([H])N(C(=O)C([H])(N([H])C(=O)C([H])(N([H])C([H])([H])[H])C([H])([H])[H])C(C([H])([H])[H])(C([H])([H])[H])C([H])([H])[H])C([H])(C(=O)N([H])C1([H])c3c([H])c([H])c([H])c([H])c3C([H])([H])C([H])([H])C1([H])[H])C2([H])[H]

$$$$
81:0:0
     RDKit          3D

 95103  0  0  1  0  0  0  0  0999 V2000
  -31.5080  -20.6920   21.6290 C   0  0  0  0  0  1  0  0  0  0  0  0
  -30.3190  -20.1080   20.9410 N   0  0  2  0  0  4  0  0  0  0  0  0
  -29.5930  -20.1270   21.6400 H   0  0  0  0  0  0  0  0  0  0  0  0
  -30.9400  -15.0100   19.7670 C   0  0  0  0  0  0  0  0  0  0  0  0
  -30.6760  -12.7660   18.6660 C   0  0  0  0  0  2  0  0  0  0  0  0
  -29.6130  -12.8760   17.5470 C   0  0  0  0  0  2  0  0  0  0  0  0
  -28.1950  -12.6630   18.1190 C   0  0  0  0  0  2  0  0  0  0  0  0
  -27.9510  -13.4960   19.4080 C   0  0  0  0  0  3  0  0  0  0  0  0
  -29.1190  -13.3440   20.4050 C   0  0  0  0  0  2  0  0  0  0  0  0
  -30.3410  -13.7650   19.7110 N   0  0  0  0  0  0  0  0  0  0  0  0
  -32.0080  -15.1900   19.1720 O   0  0  0  0  0  0  0  0  0  0  0  0
  -30.2800  -16.2770   21.7840 C   0  0  0  0  0  2  0  0  0  0  0  0
  -29.9420  -17.4900   19.8040 C   0  0  0  0  0  2  0  0  0  0  0  0
  -30.6930  -17.7470   22.1170 C   0  0  0  0  0  3  0  0  0  0  0  0
  -30.5780  -18.5590   20.7860 C   0  0  0  0  0  3  0  0  0  0  0  0
  -30.2310  -16.0810   20.3290 N   0  0  0  0  0  0  0  0  0  0  0  0
  -25.6680  -14.0520   20.4360 C   0  0  0  0  0  0  0  0  0  0  0  0
  -24.6410  -13.2600   20.8770 C   0  0  0  0  0  0  0  0  0  0  0  0
  -25.0810  -11.9120   20.7020 C   0  0  0  0  0  0  0  0  0  0  0  0
  -26.6660  -13.1840   20.0220 N   0  0  0  0  0  0  0  0  0  0  0  0
  -26.3290  -11.8880   20.2420 N   0  0  0  0  0  0  0  0  0  0  0  0
  -24.3680  -10.6440   20.8980 C   0  0  0  0  0  0  0  0  0  0  0  0
  -24.8050   -9.6840   21.8380 C   0  0  0  0  0  3  0  0  0  0  0  0
  -24.0900   -8.4800   22.0190 C   0  0  0  0  0  3  0  0  0  0  0  0
  -22.9240   -8.2280   21.2590 C   0  0  0  0  0  0  0  0  0  0  0  0
  -22.5070   -9.1750   20.3090 C   0  0  0  0  0  3  0  0  0  0  0  0
  -23.2210  -10.3700   20.1260 C   0  0  0  0  0  3  0  0  0  0  0  0
  -22.1800   -7.0770   21.3500 O   0  0  0  0  0  0  0  0  0  0  0  0
  -21.9890   -6.4350   22.5460 C   0  0  0  0  0  0  0  0  0  0  0  0
  -21.3970   -7.0840   23.6530 C   0  0  0  0  0  3  0  0  0  0  0  0
  -21.1550   -6.3670   24.8400 C   0  0  0  0  0  3  0  0  0  0  0  0
  -21.4940   -5.0030   24.9210 C   0  0  0  0  0  0  0  0  0  0  0  0
  -22.0760   -4.3540   23.8180 C   0  0  0  0  0  3  0  0  0  0  0  0
  -22.3210   -5.0680   22.6320 C   0  0  0  0  0  0  0  0  0  0  0  0
  -22.8640   -4.4340   21.5650 F   0  0  0  0  0  0  0  0  0  0  0  0
  -21.2540   -4.3130   26.0590 F   0  0  0  0  0  0  0  0  0  0  0  0
  -23.2910  -13.7280   21.3390 C   0  0  0  0  0  0  0  0  0  0  0  0
  -22.6740  -13.0030   22.2660 N   0  0  0  0  0  0  0  0  0  0  0  0
  -22.7950  -14.7690   20.9140 O   0  0  0  0  0  0  0  0  0  0  0  0
  -23.0940  -12.1620   22.6330 H   0  0  0  0  0  0  0  0  0  0  0  0
  -21.7700  -13.2920   22.6110 H   0  0  0  0  0  0  0  0  0  0  0  0
  -25.8280  -15.4310   20.3350 N   0  0  0  0  0  0  0  0  0  0  0  0
  -25.0940  -16.0810   20.5860 H   0  0  0  0  0  0  0  0  0  0  0  0
  -26.6530  -15.8910   19.9700 H   0  0  0  0  0  0  0  0  0  0  0  0
  -29.9350  -18.2980   23.3590 C   0  0  0  0  0  2  0  0  0  0  0  0
  -30.5260  -17.8530   24.6390 N   0  0  0  0  0  4  0  0  0  0  0  0
  -30.6350  -16.8550   24.6840 H   0  0  0  0  0  0  0  0  0  0  0  0
  -29.9330  -18.1260   25.4070 H   0  0  0  0  0  0  0  0  0  0  0  0
  -31.4240  -18.2760   24.7960 H   0  0  0  0  0  0  0  0  0  0  0  0
  -29.7330  -21.1260   19.9200 C   0  0  0  0  0  2  0  0  0  0  0  0
  -28.7930  -22.6870   21.8130 C   0  0  0  0  0  1  0  0  0  0  0  0
  -29.5070  -22.6930   20.4420 C   0  0  0  0  0  3  0  0  0  0  0  0
  -28.7240  -23.8300   19.5600 C   0  0  0  0  0  2  0  0  0  0  0  0
  -29.1760  -25.3980   19.3600 C   0  0  0  0  0  2  0  0  0  0  0  0
  -28.8400  -26.6550   20.1250 O   0  0  0  0  0  0  0  0  0  0  0  0
  -24.7080  -31.7810   23.1260 C   0  0  0  0  0  0  0  0  0  0  0  0
  -27.6780  -27.4510   19.9890 C   0  0  0  0  0  0  0  0  0  0  0  0
  -23.6270  -30.3370   21.4330 C   0  0  0  0  0  3  0  0  0  0  0  0
  -25.2050  -28.9310   19.9710 C   0  0  0  0  0  0  0  0  0  0  0  0
  -26.1410  -30.8310   21.2970 C   0  0  0  0  0  2  0  0  0  0  0  0
  -26.3290  -29.4760   20.6070 C   0  0  0  0  0  0  0  0  0  0  0  0
  -27.5590  -28.7440   20.6110 C   0  0  0  0  0  3  0  0  0  0  0  0
  -26.5350  -26.9750   19.3100 C   0  0  0  0  0  3  0  0  0  0  0  0
  -25.3160  -27.6900   19.3130 C   0  0  0  0  0  3  0  0  0  0  0  0
  -23.9020  -29.7080   20.0390 C   0  0  0  0  0  2  0  0  0  0  0  0
  -24.8420  -31.0020   22.0080 N   0  0  0  0  0  0  0  0  0  0  0  0
  -23.6010  -31.9700   23.6500 O   0  0  0  0  0  0  0  0  0  0  0  0
  -23.0320  -29.2540   22.3650 C   0  0  0  0  0  0  0  0  0  0  0  0
  -21.7240  -28.9810   22.2160 N   0  0  0  0  0  0  0  0  0  0  0  0
  -23.7450  -28.6630   23.1790 O   0  0  0  0  0  0  0  0  0  0  0  0
  -21.2060  -29.5190   21.5390 H   0  0  0  0  0  0  0  0  0  0  0  0
  -18.4410  -27.5210   22.6310 C   0  0  0  0  0  0  0  0  0  0  0  0
  -20.9680  -27.9620   22.9460 C   0  0  0  0  0  3  0  0  0  0  0  0
  -21.1840  -26.5610   22.3300 C   0  0  0  0  0  2  0  0  0  0  0  0
  -20.1210  -26.1870   21.2900 C   0  0  0  0  0  2  0  0  0  0  0  0
  -18.7230  -26.2070   21.9160 C   0  0  0  0  0  2  0  0  0  0  0  0
  -19.4930  -28.3500   23.0960 C   0  0  0  0  0  0  0  0  0  0  0  0
  -19.1770  -29.5730   23.7260 C   0  0  0  0  0  3  0  0  0  0  0  0
  -17.8380  -29.9740   23.8890 C   0  0  0  0  0  3  0  0  0  0  0  0
  -16.7980  -29.1410   23.4430 C   0  0  0  0  0  3  0  0  0  0  0  0
  -17.0980  -27.9150   22.8210 C   0  0  0  0  0  3  0  0  0  0  0  0
  -25.9360  -32.4880   23.7830 C   0  0  0  0  0  3  0  0  0  0  0  0
  -25.5300  -33.8630   24.1170 N   0  0  0  0  0  0  0  0  0  0  0  0
  -25.8150  -34.9440   23.3780 C   0  0  0  0  0  0  0  0  0  0  0  0
  -26.5070  -34.8930   22.3590 O   0  0  0  0  0  0  0  0  0  0  0  0
  -24.9090  -33.9730   24.9050 H   0  0  0  0  0  0  0  0  0  0  0  0
  -23.9800  -36.6260   23.0110 C   0  0  0  0  0  1  0  0  0  0  0  0
  -25.2320  -36.2940   23.8400 C   0  0  0  0  0  3  0  0  0  0  0  0
  -27.2930  -37.2990   24.7140 C   0  0  0  0  0  1  0  0  0  0  0  0
  -26.1970  -37.4110   23.7570 N   0  0  0  0  0  0  0  0  0  0  0  0
  -25.7340  -38.3030   23.9110 H   0  0  0  0  0  0  0  0  0  0  0  0
  -26.4700  -31.7400   25.0660 C   0  0  1  0  0  0  0  0  0  0  0  0
  -25.3640  -31.4180   26.1000 C   0  0  0  0  0  1  0  0  0  0  0  0
  -27.1570  -30.4100   24.6800 C   0  0  0  0  0  1  0  0  0  0  0  0
  -27.5420  -32.6060   25.7670 C   0  0  0  0  0  1  0  0  0  0  0  0
  2  1  1  0
  2  3  1  1
  4 16  1  0
  5 10  1  0
  6  7  1  0
  6  5  1  0
  8  7  1  0
  8 20  1  0
  8  9  1  0
 10  4  1  0
 10  9  1  0
 11  4  2  0
 12 14  1  0
 13 16  1  0
 13 15  1  0
 14 45  1  0
 15  2  1  0
 15 14  1  0
 16 12  1  0
 17 18  2  0
 18 37  1  0
 19 18  1  0
 19 22  1  0
 20 21  1  0
 20 17  1  0
 21 19  2  0
 22 23  1  0
 23 24  2  0
 25 28  1  0
 25 24  1  0
 26 25  2  0
 27 26  1  0
 27 22  2  0
 28 29  1  0
 29 34  2  0
 29 30  1  0
 30 31  2  0
 31 32  1  0
 32 36  1  0
 33 32  2  0
 34 33  1  0
 35 34  1  0
 37 38  1  0
 38 41  1  0
 38 40  1  0
 39 37  2  0
 42 17  1  0
 42 43  1  0
 44 42  1  0
 45 46  1  0
 46 47  1  0
 46 49  1  0
 46 48  1  0
 50 52  1  0
 50  2  1  0
 52 51  1  0
 53 52  1  0
 54 53  1  0
 54 55  1  0
 56 67  2  0
 57 55  1  0
 57 62  1  0
 58 66  1  0
 58 68  1  0
 59 65  1  0
 59 61  1  0
 60 66  1  0
 61 62  2  0
 61 60  1  0
 63 64  1  0
 63 57  2  0
 64 59  2  0
 65 58  1  0
 66 56  1  0
 68 70  2  0
 69 68  1  0
 71 69  1  0
 72 81  2  0
 72 77  1  0
 73 69  1  0
 73 77  1  0
 74 73  1  0
 75 76  1  0
 75 74  1  0
 76 72  1  0
 77 78  2  0
 78 79  1  0
 80 79  2  0
 81 80  1  0
 82 56  1  0
 82 83  1  0
 82 92  1  0
 83 86  1  0
 84 88  1  0
 84 83  1  0
 85 84  2  0
 88 87  1  0
 90 88  1  0
 90 91  1  0
 90 89  1  0
 92 95  1  1
 92 93  1  0
 94 92  1  0
M  ISO  4   4 100  16 100  54 101  55 101
M  END
>  <TORSDO>  (82) 
F 22

>  <SCORE>  (82) 
-10.308

>  <name>  (82) 
81

>  <ligand_id>  (82) 
81

>  <original_smiles>  (82) 
[H]c1c([H])c([H])c2c(c1[H])C([H])([H])C([H])([H])C([H])([H])C2([H])N([H])C(=O)C1([H])N(C(=O)C([H])(N([H])C(=O)C([H])(N([H])C([H])([H])[H])C([H])([H])[H])C(C([H])([H])[H])(C([H])([H])[H])C([H])([H])[H])C([H])([H])c2c([H])c(OC([H])([H])C([H])([H])C([H])(C([H])([H])[H])C([H])([H])[N+]([H])(C([H])([H])[H])C3([H])C([H])([H])N(C(=O)N4C([H])([H])C([H])([H])C([H])([H])C([H])(n5nc(-c6c([H])c([H])c(Oc7c([H])c([H])c(F)c([H])c7F)c([H])c6[H])c(C(=O)N([H])[H])c5N([H])[H])C4([H])[H])C([H])([H])C3([H])C([H])([H])[N+]([H])([H])[H])c([H])c([H])c2C1([H])[H]

>  <smiles>  (82) 
[H]c1c([H])c([H])c2c(c1[H])C([H])([H])C([H])([H])C([H])([H])C2([H])N([H])C(=O)C1([H])N(C(=O)C([H])(N([H])C(=O)C([H])(N([H])C([H])([H])[H])C([H])([H])[H])C(C([H])([H])[H])(C([H])([H])[H])C([H])([H])[H])C([H])([H])c2c([H])c(OC([H])([H])C([H])([H])C([H])(C([H])([H])[H])C([H])([H])[N+]([H])(C([H])([H])[H])C3([H])C([H])([H])N(C(=O)N4C([H])([H])C([H])([H])C([H])([H])C([H])(n5nc(-c6c([H])c([H])c(Oc7c([H])c([H])c(F)c([H])c7F)c([H])c6[H])c(C(=O)N([H])[H])c5N([H])[H])C4([H])[H])C([H])([H])C3([H])C([H])([H])[N+]([H])([H])[H])c([H])c([H])c2C1([H])[H]

$$$$
82:0:0
     RDKit          3D

 92100  0  0  1  0  0  0  0  0999 V2000
  -28.7450  -22.3000   20.5710 C   0  0  0  0  0  2  0  0  0  0  0  0
  -27.9780  -19.6560   19.3630 C   0  0  0  0  0  2  0  0  0  0  0  0
  -28.7850  -20.7340   18.6310 C   0  0  0  0  0  2  0  0  0  0  0  0
  -29.0900  -19.6550   20.4150 C   0  0  0  0  0  3  0  0  0  0  0  0
  -29.4170  -21.0730   19.9120 N   0  0  2  0  0  4  0  0  0  0  0  0
  -30.4160  -21.1940   19.8310 H   0  0  0  0  0  0  0  0  0  0  0  0
  -30.1410  -18.4910   20.1600 C   0  0  0  0  0  0  0  0  0  0  0  0
  -30.9440  -18.4890   19.2220 O   0  0  0  0  0  0  0  0  0  0  0  0
  -30.2050  -17.2310   21.1320 C   0  0  0  0  0  2  0  0  0  0  0  0
  -30.6320  -14.7290   20.4000 C   0  0  0  0  0  0  0  0  0  0  0  0
  -30.4300  -12.4780   19.3370 C   0  0  0  0  0  2  0  0  0  0  0  0
  -29.4790  -12.5500   18.1220 C   0  0  0  0  0  2  0  0  0  0  0  0
  -28.0100  -12.3770   18.5580 C   0  0  0  0  0  2  0  0  0  0  0  0
  -27.6400  -13.2600   19.7800 C   0  0  0  0  0  3  0  0  0  0  0  0
  -28.7050  -13.1550   20.8940 C   0  0  0  0  0  2  0  0  0  0  0  0
  -29.9980  -13.5150   20.2950 N   0  0  0  0  0  0  0  0  0  0  0  0
  -31.8250  -14.8490   20.1130 O   0  0  0  0  0  0  0  0  0  0  0  0
  -29.8490  -15.8310   20.6510 N   0  0  0  0  0  0  0  0  0  0  0  0
  -28.8660  -15.6140   20.7090 H   0  0  0  0  0  0  0  0  0  0  0  0
  -25.2460  -13.8540   20.4970 C   0  0  0  0  0  0  0  0  0  0  0  0
  -24.1810  -13.0790   20.8690 C   0  0  0  0  0  0  0  0  0  0  0  0
  -24.6480  -11.7290   20.8500 C   0  0  0  0  0  0  0  0  0  0  0  0
  -26.2950  -12.9740   20.2730 N   0  0  0  0  0  0  0  0  0  0  0  0
  -25.9410  -11.6930   20.5480 N   0  0  0  0  0  0  0  0  0  0  0  0
  -23.9260  -10.4650   21.0450 C   0  0  0  0  0  0  0  0  0  0  0  0
  -24.3660   -9.5000   21.9780 C   0  0  0  0  0  3  0  0  0  0  0  0
  -23.6430   -8.3000   22.1620 C   0  0  0  0  0  3  0  0  0  0  0  0
  -22.4680   -8.0570   21.4100 C   0  0  0  0  0  0  0  0  0  0  0  0
  -22.0480   -9.0120   20.4680 C   0  0  0  0  0  3  0  0  0  0  0  0
  -22.7700  -10.2030   20.2820 C   0  0  0  0  0  3  0  0  0  0  0  0
  -21.7190   -6.9090   21.5000 O   0  0  0  0  0  0  0  0  0  0  0  0
  -21.6860   -6.1590   22.6480 C   0  0  0  0  0  0  0  0  0  0  0  0
  -21.2800   -6.7070   23.8840 C   0  0  0  0  0  3  0  0  0  0  0  0
  -21.1950   -5.8840   25.0260 C   0  0  0  0  0  3  0  0  0  0  0  0
  -21.5040   -4.5150   24.9330 C   0  0  0  0  0  0  0  0  0  0  0  0
  -21.9030   -3.9660   23.7010 C   0  0  0  0  0  3  0  0  0  0  0  0
  -21.9910   -4.7850   22.5620 C   0  0  0  0  0  0  0  0  0  0  0  0
  -22.3560   -4.2450   21.3730 F   0  0  0  0  0  0  0  0  0  0  0  0
  -21.4140   -3.7230   26.0260 F   0  0  0  0  0  0  0  0  0  0  0  0
  -22.7810  -13.5540   21.1280 C   0  0  0  0  0  0  0  0  0  0  0  0
  -22.0510  -12.8620   21.9950 N   0  0  0  0  0  0  0  0  0  0  0  0
  -22.3410  -14.5720   20.5960 O   0  0  0  0  0  0  0  0  0  0  0  0
  -22.4200  -12.0370   22.4470 H   0  0  0  0  0  0  0  0  0  0  0  0
  -21.1100  -13.1610   22.2100 H   0  0  0  0  0  0  0  0  0  0  0  0
  -25.4050  -15.2240   20.3070 N   0  0  0  0  0  0  0  0  0  0  0  0
  -24.6320  -15.8720   20.4000 H   0  0  0  0  0  0  0  0  0  0  0  0
  -26.2390  -15.6590   19.9330 H   0  0  0  0  0  0  0  0  0  0  0  0
  -29.8610  -23.9210   18.8320 C   0  0  0  0  0  1  0  0  0  0  0  0
  -30.2720  -24.2230   21.2840 C   0  0  0  0  0  1  0  0  0  0  0  0
  -29.2180  -23.8280   20.2310 C   0  0  2  0  0  0  0  0  0  0  0  0
  -28.0400  -24.9350   20.2790 C   0  0  0  0  0  2  0  0  0  0  0  0
  -28.2980  -26.4120   20.1860 O   0  0  0  0  0  0  0  0  0  0  0  0
  -24.6170  -31.8820   23.2410 C   0  0  0  0  0  0  0  0  0  0  0  0
  -27.1860  -27.2870   20.1620 C   0  0  0  0  0  0  0  0  0  0  0  0
  -23.3980  -30.4890   21.6110 C   0  0  0  0  0  3  0  0  0  0  0  0
  -24.8310  -28.9360   20.1730 C   0  0  0  0  0  0  0  0  0  0  0  0
  -25.9430  -30.7910   21.4110 C   0  0  0  0  0  2  0  0  0  0  0  0
  -26.0120  -29.4110   20.7600 C   0  0  0  0  0  0  0  0  0  0  0  0
  -27.1920  -28.6030   20.7370 C   0  0  0  0  0  3  0  0  0  0  0  0
  -25.9750  -26.8780   19.5540 C   0  0  0  0  0  3  0  0  0  0  0  0
  -24.8170  -27.6770   19.5610 C   0  0  0  0  0  3  0  0  0  0  0  0
  -23.6010  -29.8190   20.2280 C   0  0  0  0  0  2  0  0  0  0  0  0
  -24.6720  -31.0720   22.1430 N   0  0  0  0  0  0  0  0  0  0  0  0
  -23.5360  -32.1620   23.7820 O   0  0  0  0  0  0  0  0  0  0  0  0
  -22.7380  -29.4720   22.5730 C   0  0  0  0  0  0  0  0  0  0  0  0
  -21.4110  -29.2940   22.4540 N   0  0  0  0  0  0  0  0  0  0  0  0
  -23.4200  -28.8460   23.3900 O   0  0  0  0  0  0  0  0  0  0  0  0
  -20.9210  -29.8480   21.7650 H   0  0  0  0  0  0  0  0  0  0  0  0
  -18.0350  -28.0920   22.9630 C   0  0  0  0  0  0  0  0  0  0  0  0
  -20.5940  -28.3590   23.2300 C   0  0  0  0  0  3  0  0  0  0  0  0
  -20.6980  -26.9250   22.6620 C   0  0  0  0  0  2  0  0  0  0  0  0
  -19.5960  -26.5940   21.6510 C   0  0  0  0  0  2  0  0  0  0  0  0
  -18.2140  -26.7400   22.2940 C   0  0  0  0  0  2  0  0  0  0  0  0
  -19.1530  -28.8590   23.3880 C   0  0  0  0  0  0  0  0  0  0  0  0
  -18.9300  -30.1240   23.9740 C   0  0  0  0  0  3  0  0  0  0  0  0
  -17.6240  -30.6230   24.1370 C   0  0  0  0  0  3  0  0  0  0  0  0
  -16.5210  -29.8530   23.7270 C   0  0  0  0  0  3  0  0  0  0  0  0
  -16.7270  -28.5890   23.1460 C   0  0  0  0  0  3  0  0  0  0  0  0
  -25.9040  -32.5120   23.8540 C   0  0  0  0  0  3  0  0  0  0  0  0
  -25.5950  -33.9100   24.1890 N   0  0  0  0  0  0  0  0  0  0  0  0
  -25.9210  -34.9650   23.4320 C   0  0  0  0  0  0  0  0  0  0  0  0
  -26.5830  -34.8650   22.3940 O   0  0  0  0  0  0  0  0  0  0  0  0
  -25.0020  -34.0610   24.9920 H   0  0  0  0  0  0  0  0  0  0  0  0
  -24.1910  -36.7620   23.0980 C   0  0  0  0  0  1  0  0  0  0  0  0
  -25.4390  -36.3530   23.8980 C   0  0  0  0  0  3  0  0  0  0  0  0
  -27.5830  -37.2320   24.7110 C   0  0  0  0  0  1  0  0  0  0  0  0
  -26.4710  -37.4050   23.7790 N   0  0  0  0  0  0  0  0  0  0  0  0
  -26.0680  -38.3260   23.9340 H   0  0  0  0  0  0  0  0  0  0  0  0
  -26.4260  -31.7400   25.1260 C   0  0  1  0  0  0  0  0  0  0  0  0
  -25.3380  -31.5060   26.2020 C   0  0  0  0  0  1  0  0  0  0  0  0
  -27.0010  -30.3600   24.7330 C   0  0  0  0  0  1  0  0  0  0  0  0
  -27.5830  -32.5300   25.7800 C   0  0  0  0  0  1  0  0  0  0  0  0
  2  4  1  0
  3  2  1  0
  3  5  1  0
  4  7  1  0
  5  4  1  0
  5  1  1  0
  5  6  1  6
  7  9  1  0
  8  7  2  0
 10 18  1  0
 11 16  1  0
 12 13  1  0
 12 11  1  0
 14 13  1  0
 14 23  1  0
 14 15  1  0
 16 10  1  0
 16 15  1  0
 17 10  2  0
 18 19  1  0
 18  9  1  0
 20 21  2  0
 21 40  1  0
 22 21  1  0
 22 25  1  0
 23 20  1  0
 23 24  1  0
 24 22  2  0
 25 26  1  0
 26 27  2  0
 28 31  1  0
 28 27  1  0
 29 28  2  0
 30 29  1  0
 30 25  2  0
 31 32  1  0
 32 33  1  0
 33 34  2  0
 35 34  1  0
 35 39  1  0
 36 35  2  0
 37 32  2  0
 37 36  1  0
 38 37  1  0
 40 41  1  0
 41 44  1  0
 41 43  1  0
 42 40  2  0
 45 46  1  0
 45 20  1  0
 47 45  1  0
 50 48  1  6
 50 51  1  0
 50  1  1  0
 50 49  1  0
 52 51  1  0
 53 64  2  0
 54 52  1  0
 54 59  1  0
 55 63  1  0
 55 65  1  0
 56 62  1  0
 56 58  1  0
 57 63  1  0
 58 57  1  0
 59 58  2  0
 60 61  1  0
 60 54  2  0
 61 56  2  0
 62 55  1  0
 63 53  1  0
 65 67  2  0
 66 65  1  0
 68 66  1  0
 69 78  2  0
 69 74  1  0
 70 66  1  0
 70 74  1  0
 71 70  1  0
 72 73  1  0
 72 71  1  0
 73 69  1  0
 74 75  2  0
 75 76  1  0
 77 76  2  0
 78 77  1  0
 79 53  1  0
 79 80  1  0
 79 89  1  0
 80 83  1  0
 81 85  1  0
 81 80  1  0
 82 81  2  0
 85 84  1  0
 87 85  1  0
 87 88  1  0
 87 86  1  0
 89 92  1  1
 89 90  1  0
 91 89  1  0
M  ISO  4  10 100  18 100  51 101  52 101
M  END
>  <TORSDO>  (83) 
F 21

>  <SCORE>  (83) 
-13.591

>  <name>  (83) 
82

>  <ligand_id>  (83) 
82

>  <original_smiles>  (83) 
[H]c1c([H])c([H])c2c(c1[H])C([H])([H])C([H])([H])C([H])([H])C2([H])N([H])C(=O)C1([H])N(C(=O)C([H])(N([H])C(=O)C([H])(N([H])C([H])([H])[H])C([H])([H])[H])C(C([H])([H])[H])(C([H])([H])[H])C([H])([H])[H])C([H])([H])c2c([H])c(OC([H])([H])C(C([H])([H])[H])(C([H])([H])[H])C([H])([H])[N+]3([H])C([H])([H])C([H])([H])C3([H])C(=O)C([H])([H])N([H])C(=O)N3C([H])([H])C([H])([H])C([H])([H])C([H])(n4nc(-c5c([H])c([H])c(Oc6c([H])c([H])c(F)c([H])c6F)c([H])c5[H])c(C(=O)N([H])[H])c4N([H])[H])C3([H])[H])c([H])c([H])c2C1([H])[H]

>  <smiles>  (83) 
[H]c1c([H])c([H])c2c(c1[H])C([H])([H])C([H])([H])C([H])([H])C2([H])N([H])C(=O)C1([H])N(C(=O)C([H])(N([H])C(=O)C([H])(N([H])C([H])([H])[H])C([H])([H])[H])C(C([H])([H])[H])(C([H])([H])[H])C([H])([H])[H])C([H])([H])c2c([H])c(OC([H])([H])C(C([H])([H])[H])(C([H])([H])[H])C([H])([H])[N+]3([H])C([H])([H])C([H])([H])C3([H])C(=O)C([H])([H])N([H])C(=O)N3C([H])([H])C([H])([H])C([H])([H])C([H])(n4nc(-c5c([H])c([H])c(Oc6c([H])c([H])c(F)c([H])c6F)c([H])c5[H])c(C(=O)N([H])[H])c4N([H])[H])C3([H])[H])c([H])c([H])c2C1([H])[H]

$$$$
83:0:0
     RDKit          3D

 97105  0  0  1  0  0  0  0  0999 V2000
  -26.6530  -20.7400   20.8270 C   0  0  0  0  0  3  0  0  0  0  0  0
  -27.7510  -19.8650   20.6940 C   0  0  0  0  0  3  0  0  0  0  0  0
  -26.8590  -22.1300   20.8720 C   0  0  0  0  0  3  0  0  0  0  0  0
  -29.2630  -21.7850   20.6480 C   0  0  0  0  0  3  0  0  0  0  0  0
  -29.0630  -20.3830   20.6010 C   0  0  0  0  0  0  0  0  0  0  0  0
  -28.1660  -22.6640   20.8020 C   0  0  0  0  0  0  0  0  0  0  0  0
  -30.2000  -19.4650   20.4750 C   0  0  0  0  0  0  0  0  0  0  0  0
  -31.1560  -19.6980   19.5800 N   0  0  0  0  0  4  0  0  0  0  0  0
  -30.2830  -18.3870   21.2690 N   0  0  0  0  0  0  0  0  0  0  0  0
  -30.9970  -20.4170   18.8880 H   0  0  0  0  0  0  0  0  0  0  0  0
  -32.0070  -19.1680   19.5400 H   0  0  0  0  0  0  0  0  0  0  0  0
  -29.5160  -18.2760   21.9220 H   0  0  0  0  0  0  0  0  0  0  0  0
  -31.3540  -17.3820   21.3800 C   0  0  0  0  0  2  0  0  0  0  0  0
  -30.7770  -15.9720   21.2170 C   0  0  0  0  0  2  0  0  0  0  0  0
  -31.8070  -14.3110   19.6740 C   0  0  0  0  0  0  0  0  0  0  0  0
  -31.4810  -11.9270   19.1290 C   0  0  0  0  0  2  0  0  0  0  0  0
  -30.5210  -11.8000   17.9300 C   0  0  0  0  0  2  0  0  0  0  0  0
  -29.0480  -11.8250   18.3870 C   0  0  0  0  0  2  0  0  0  0  0  0
  -28.7450  -12.9810   19.3770 C   0  0  0  0  0  3  0  0  0  0  0  0
  -29.8010  -13.0050   20.4990 C   0  0  0  0  0  2  0  0  0  0  0  0
  -31.1250  -13.1500   19.8690 N   0  0  0  0  0  0  0  0  0  0  0  0
  -32.8790  -14.3710   19.0720 O   0  0  0  0  0  0  0  0  0  0  0  0
  -31.1350  -15.4440   19.9030 N   0  0  0  0  0  0  0  0  0  0  0  0
  -31.4480  -16.1830   19.2910 H   0  0  0  0  0  0  0  0  0  0  0  0
  -26.4780  -13.8930   20.1990 C   0  0  0  0  0  0  0  0  0  0  0  0
  -25.3410  -13.2630   20.6210 C   0  0  0  0  0  0  0  0  0  0  0  0
  -25.6160  -11.8640   20.5530 C   0  0  0  0  0  0  0  0  0  0  0  0
  -27.3880  -12.8860   19.9130 N   0  0  0  0  0  0  0  0  0  0  0  0
  -26.8730  -11.6600   20.1820 N   0  0  0  0  0  0  0  0  0  0  0  0
  -24.7390  -10.7060   20.7720 C   0  0  0  0  0  0  0  0  0  0  0  0
  -25.0330   -9.7390   21.7580 C   0  0  0  0  0  3  0  0  0  0  0  0
  -24.1700   -8.6380   21.9580 C   0  0  0  0  0  3  0  0  0  0  0  0
  -22.9970   -8.5040   21.1770 C   0  0  0  0  0  0  0  0  0  0  0  0
  -22.7230   -9.4590   20.1810 C   0  0  0  0  0  3  0  0  0  0  0  0
  -23.5850  -10.5500   19.9790 C   0  0  0  0  0  3  0  0  0  0  0  0
  -22.1120   -7.4570   21.2890 O   0  0  0  0  0  0  0  0  0  0  0  0
  -21.8710   -6.8440   22.4910 C   0  0  0  0  0  0  0  0  0  0  0  0
  -21.3890   -7.5580   23.6100 C   0  0  0  0  0  3  0  0  0  0  0  0
  -21.0930   -6.8750   24.8070 C   0  0  0  0  0  3  0  0  0  0  0  0
  -21.2600   -5.4780   24.8810 C   0  0  0  0  0  0  0  0  0  0  0  0
  -21.7290   -4.7640   23.7650 C   0  0  0  0  0  3  0  0  0  0  0  0
  -22.0310   -5.4450   22.5710 C   0  0  0  0  0  0  0  0  0  0  0  0
  -22.4650   -4.7510   21.4920 F   0  0  0  0  0  0  0  0  0  0  0  0
  -20.9650   -4.8200   26.0260 F   0  0  0  0  0  0  0  0  0  0  0  0
  -24.0300  -13.9120   20.9690 C   0  0  0  0  0  0  0  0  0  0  0  0
  -23.2710  -13.3230   21.8850 N   0  0  0  0  0  0  0  0  0  0  0  0
  -23.6950  -14.9830   20.4600 O   0  0  0  0  0  0  0  0  0  0  0  0
  -23.5530  -12.4580   22.3240 H   0  0  0  0  0  0  0  0  0  0  0  0
  -22.3920  -13.7430   22.1530 H   0  0  0  0  0  0  0  0  0  0  0  0
  -26.8140  -15.2310   20.0140 N   0  0  0  0  0  0  0  0  0  0  0  0
  -26.1460  -15.9830   20.1360 H   0  0  0  0  0  0  0  0  0  0  0  0
  -27.7060  -15.5440   19.6500 H   0  0  0  0  0  0  0  0  0  0  0  0
  -27.3500  -24.8650   21.7950 C   0  0  0  0  0  1  0  0  0  0  0  0
  -28.4090  -24.1710   20.9060 C   0  0  0  0  0  3  0  0  0  0  0  0
  -28.4980  -24.8170   19.5060 C   0  0  0  0  0  2  0  0  0  0  0  0
  -29.1380  -26.2220   19.4860 C   0  0  0  0  0  2  0  0  0  0  0  0
  -28.5530  -27.0120   18.4610 O   0  0  0  0  0  0  0  0  0  0  0  0
  -25.1840  -31.0550   23.2840 C   0  0  0  0  0  0  0  0  0  0  0  0
  -27.4120  -27.6690   18.8390 C   0  0  0  0  0  0  0  0  0  0  0  0
  -23.8020  -30.2070   21.4140 C   0  0  0  0  0  3  0  0  0  0  0  0
  -25.0810  -29.1020   19.5040 C   0  0  0  0  0  0  0  0  0  0  0  0
  -26.3180  -30.5570   21.1230 C   0  0  0  0  0  2  0  0  0  0  0  0
  -26.2970  -29.4180   20.1260 C   0  0  0  0  0  0  0  0  0  0  0  0
  -27.4650  -28.6980   19.8030 C   0  0  0  0  0  3  0  0  0  0  0  0
  -26.1850  -27.3560   18.2210 C   0  0  0  0  0  3  0  0  0  0  0  0
  -25.0140  -28.0610   18.5620 C   0  0  0  0  0  3  0  0  0  0  0  0
  -23.8790  -29.9340   19.8860 C   0  0  0  0  0  2  0  0  0  0  0  0
  -25.1260  -30.6040   21.9990 N   0  0  0  0  0  0  0  0  0  0  0  0
  -24.1580  -31.1860   23.9660 O   0  0  0  0  0  0  0  0  0  0  0  0
  -23.1710  -28.9750   22.1010 C   0  0  0  0  0  0  0  0  0  0  0  0
  -21.8460  -28.8190   21.9530 N   0  0  0  0  0  0  0  0  0  0  0  0
  -23.8690  -28.1740   22.7280 O   0  0  0  0  0  0  0  0  0  0  0  0
  -21.3430  -29.5270   21.4370 H   0  0  0  0  0  0  0  0  0  0  0  0
  -18.5110  -27.4380   22.0630 C   0  0  0  0  0  0  0  0  0  0  0  0
  -21.0480  -27.7100   22.4690 C   0  0  0  0  0  3  0  0  0  0  0  0
  -21.2210  -26.4470   21.5940 C   0  0  0  0  0  2  0  0  0  0  0  0
  -20.1580  -26.3150   20.4980 C   0  0  0  0  0  2  0  0  0  0  0  0
  -18.7590  -26.2750   21.1170 C   0  0  0  0  0  2  0  0  0  0  0  0
  -19.5880  -28.1220   22.6880 C   0  0  0  0  0  0  0  0  0  0  0  0
  -19.3050  -29.2200   23.5290 C   0  0  0  0  0  3  0  0  0  0  0  0
  -17.9790  -29.6340   23.7530 C   0  0  0  0  0  3  0  0  0  0  0  0
  -16.9160  -28.9400   23.1510 C   0  0  0  0  0  3  0  0  0  0  0  0
  -17.1830  -27.8470   22.3080 C   0  0  0  0  0  3  0  0  0  0  0  0
  -26.5380  -31.4470   23.9560 C   0  0  0  0  0  3  0  0  0  0  0  0
  -26.3320  -32.7200   24.6600 N   0  0  0  0  0  0  0  0  0  0  0  0
  -26.7530  -33.9110   24.2130 C   0  0  0  0  0  0  0  0  0  0  0  0
  -27.4250  -34.0410   23.1870 O   0  0  0  0  0  0  0  0  0  0  0  0
  -25.7420  -32.7010   25.4790 H   0  0  0  0  0  0  0  0  0  0  0  0
  -25.1950  -35.8770   24.3520 C   0  0  0  0  0  1  0  0  0  0  0  0
  -26.3680  -35.1560   25.0340 C   0  0  0  0  0  3  0  0  0  0  0  0
  -28.5400  -35.5700   26.1030 C   0  0  0  0  0  1  0  0  0  0  0  0
  -27.4900  -36.1000   25.2340 N   0  0  0  0  0  0  0  0  0  0  0  0
  -27.1590  -36.9740   25.6340 H   0  0  0  0  0  0  0  0  0  0  0  0
  -27.0890  -30.3440   24.9400 C   0  0  1  0  0  0  0  0  0  0  0  0
  -26.0620  -29.8730   25.9960 C   0  0  0  0  0  1  0  0  0  0  0  0
  -27.5530  -29.0980   24.1520 C   0  0  0  0  0  1  0  0  0  0  0  0
  -28.3360  -30.8780   25.6850 C   0  0  0  0  0  1  0  0  0  0  0  0
  1  3  1  0
  2  1  2  0
  4  6  1  0
  5  4  2  0
  5  2  1  0
  6  3  2  0
  6 54  1  0
  7  5  1  0
  7  9  1  0
  8  7  2  0
  9 13  1  0
  9 12  1  0
 10  8  1  0
 11  8  1  0
 14 13  1  0
 15 21  1  0
 15 23  1  0
 16 21  1  0
 17 18  1  0
 17 16  1  0
 19 18  1  0
 19 28  1  0
 19 20  1  0
 21 20  1  0
 22 15  2  0
 23 14  1  0
 24 23  1  0
 25 26  2  0
 26 45  1  0
 27 26  1  0
 27 30  1  0
 28 29  1  0
 28 25  1  0
 29 27  2  0
 30 31  1  0
 31 32  2  0
 33 36  1  0
 33 32  1  0
 34 33  2  0
 35 34  1  0
 35 30  2  0
 36 37  1  0
 37 42  2  0
 37 38  1  0
 38 39  2  0
 39 40  1  0
 40 44  1  0
 41 40  2  0
 42 41  1  0
 43 42  1  0
 45 46  1  0
 46 49  1  0
 46 48  1  0
 47 45  2  0
 50 51  1  0
 50 25  1  0
 52 50  1  0
 54 53  1  0
 55 54  1  0
 56 55  1  0
 57 59  1  0
 57 56  1  0
 58 69  2  0
 59 64  1  0
 60 68  1  0
 60 70  1  0
 61 67  1  0
 61 63  1  0
 62 68  1  0
 63 62  1  0
 64 63  2  0
 65 66  1  0
 65 59  2  0
 66 61  2  0
 67 60  1  0
 68 58  1  0
 70 72  2  0
 71 70  1  0
 73 71  1  0
 74 83  2  0
 74 79  1  0
 75 71  1  0
 75 79  1  0
 76 75  1  0
 77 78  1  0
 77 76  1  0
 78 74  1  0
 79 80  2  0
 80 81  1  0
 82 81  2  0
 83 82  1  0
 84 58  1  0
 84 85  1  0
 84 94  1  0
 85 88  1  0
 86 85  1  0
 86 90  1  0
 87 86  2  0
 90 89  1  0
 90 92  1  0
 92 93  1  0
 92 91  1  0
 94 97  1  1
 94 95  1  0
 96 94  1  0
M  ISO  4  15 100  23 100  56 101  57 101
M  END
>  <TORSDO>  (84) 
F 22

>  <SCORE>  (84) 
-7.519

>  <name>  (84) 
83

>  <ligand_id>  (84) 
83

>  <original_smiles>  (84) 
[H]c1c([H])c([H])c2c(c1[H])C([H])([H])C([H])([H])C([H])([H])C2([H])N([H])C(=O)C1([H])N(C(=O)C([H])(N([H])C(=O)C([H])(N([H])C([H])([H])[H])C([H])([H])[H])C(C([H])([H])[H])(C([H])([H])[H])C([H])([H])[H])C([H])([H])c2c([H])c(OC([H])([H])C([H])([H])C([H])(c3c([H])c([H])c([H])c(C(N([H])[H])=[N+]([H])C([H])([H])C([H])([H])N([H])C(=O)N4C([H])([H])C([H])([H])C([H])([H])C([H])(n5nc(-c6c([H])c([H])c(Oc7c([H])c([H])c(F)c([H])c7F)c([H])c6[H])c(C(=O)N([H])[H])c5N([H])[H])C4([H])[H])c3[H])C([H])([H])[H])c([H])c([H])c2C1([H])[H]

>  <smiles>  (84) 
[H]c1c([H])c([H])c2c(c1[H])C([H])([H])C([H])([H])C([H])([H])C2([H])N([H])C(=O)C1([H])N(C(=O)C([H])(N([H])C(=O)C([H])(N([H])C([H])([H])[H])C([H])([H])[H])C(C([H])([H])[H])(C([H])([H])[H])C([H])([H])[H])C([H])([H])c2c([H])c(OC([H])([H])C([H])([H])C([H])(c3c([H])c([H])c([H])c(C(N([H])[H])=[N+]([H])C([H])([H])C([H])([H])N([H])C(=O)N4C([H])([H])C([H])([H])C([H])([H])C([H])(n5nc(-c6c([H])c([H])c(Oc7c([H])c([H])c(F)c([H])c7F)c([H])c6[H])c(C(=O)N([H])[H])c5N([H])[H])C4([H])[H])c3[H])C([H])([H])[H])c([H])c([H])c2C1([H])[H]

$$$$
84:0:0
     RDKit          3D

 96105  0  0  1  0  0  0  0  0999 V2000
  -28.1000  -19.2830   21.3580 C   0  0  0  0  0  3  0  0  0  0  0  0
  -28.2780  -20.5520   20.7760 C   0  0  0  0  0  3  0  0  0  0  0  0
  -28.9860  -18.2280   21.0750 C   0  0  0  0  0  3  0  0  0  0  0  0
  -30.2100  -19.6920   19.5740 C   0  0  0  0  0  3  0  0  0  0  0  0
  -29.3550  -20.8010   19.8930 C   0  0  0  0  0  0  0  0  0  0  0  0
  -30.0590  -18.3720   20.1500 C   0  0  0  0  0  0  0  0  0  0  0  0
  -31.7620  -14.7510   19.2470 C   0  0  0  0  0  0  0  0  0  0  0  0
  -31.4310  -12.3930   18.6010 C   0  0  0  0  0  2  0  0  0  0  0  0
  -30.3730  -12.3350   17.4820 C   0  0  0  0  0  2  0  0  0  0  0  0
  -28.9600  -12.2360   18.0880 C   0  0  0  0  0  2  0  0  0  0  0  0
  -28.7090  -13.2690   19.2230 C   0  0  0  0  0  3  0  0  0  0  0  0
  -29.8880  -13.3520   20.2150 C   0  0  0  0  0  2  0  0  0  0  0  0
  -31.1070  -13.5670   19.4300 N   0  0  0  0  0  0  0  0  0  0  0  0
  -32.9300  -14.7630   18.8390 O   0  0  0  0  0  0  0  0  0  0  0  0
  -31.9550  -17.5520   18.8020 C   0  0  0  0  0  0  0  0  0  0  0  0
  -33.1220  -18.2290   18.7050 C   0  0  0  0  0  0  0  0  0  0  0  0
  -31.1770  -16.6990   17.8710 C   0  0  0  0  0  2  0  0  0  0  0  0
  -31.0560  -17.1380   19.9640 C   0  0  0  0  0  3  0  0  0  0  0  0
  -33.7900  -18.8960   19.8940 C   0  0  0  0  0  1  0  0  0  0  0  0
  -33.8900  -18.3700   17.4040 C   0  0  0  0  0  1  0  0  0  0  0  0
  -30.9850  -15.8800   19.0860 N   0  0  0  0  0  0  0  0  0  0  0  0
  -26.5290  -13.9450   20.3990 C   0  0  0  0  0  0  0  0  0  0  0  0
  -25.4750  -13.2110   20.8720 C   0  0  0  0  0  0  0  0  0  0  0  0
  -25.8100  -11.8430   20.6370 C   0  0  0  0  0  0  0  0  0  0  0  0
  -27.4420  -13.0270   19.9070 N   0  0  0  0  0  0  0  0  0  0  0  0
  -27.0260  -11.7500   20.1090 N   0  0  0  0  0  0  0  0  0  0  0  0
  -25.0190  -10.6190   20.8300 C   0  0  0  0  0  0  0  0  0  0  0  0
  -25.3450   -9.6840   21.8360 C   0  0  0  0  0  3  0  0  0  0  0  0
  -24.5600   -8.5280   22.0200 C   0  0  0  0  0  3  0  0  0  0  0  0
  -23.4330   -8.2980   21.1960 C   0  0  0  0  0  0  0  0  0  0  0  0
  -23.1250   -9.2220   20.1810 C   0  0  0  0  0  3  0  0  0  0  0  0
  -23.9110  -10.3710   19.9960 C   0  0  0  0  0  3  0  0  0  0  0  0
  -22.6290   -7.1860   21.2810 O   0  0  0  0  0  0  0  0  0  0  0  0
  -22.2040   -6.6950   22.4890 C   0  0  0  0  0  0  0  0  0  0  0  0
  -21.4260   -7.4710   23.3760 C   0  0  0  0  0  3  0  0  0  0  0  0
  -20.9500   -6.9050   24.5760 C   0  0  0  0  0  3  0  0  0  0  0  0
  -21.2440   -5.5640   24.8850 C   0  0  0  0  0  0  0  0  0  0  0  0
  -22.0110   -4.7860   24.0000 C   0  0  0  0  0  3  0  0  0  0  0  0
  -22.4870   -5.3510   22.8040 C   0  0  0  0  0  0  0  0  0  0  0  0
  -23.2080   -4.5920   21.9450 F   0  0  0  0  0  0  0  0  0  0  0  0
  -20.7780   -5.0160   26.0340 F   0  0  0  0  0  0  0  0  0  0  0  0
  -24.1870  -13.7570   21.4150 C   0  0  0  0  0  0  0  0  0  0  0  0
  -23.5620  -13.0430   22.3430 N   0  0  0  0  0  0  0  0  0  0  0  0
  -23.7480  -14.8470   21.0480 O   0  0  0  0  0  0  0  0  0  0  0  0
  -23.9370  -12.1620   22.6630 H   0  0  0  0  0  0  0  0  0  0  0  0
  -22.6980  -13.3840   22.7360 H   0  0  0  0  0  0  0  0  0  0  0  0
  -26.7740  -15.3130   20.3260 N   0  0  0  0  0  0  0  0  0  0  0  0
  -26.1030  -15.9960   20.6530 H   0  0  0  0  0  0  0  0  0  0  0  0
  -27.6120  -15.7310   19.9400 H   0  0  0  0  0  0  0  0  0  0  0  0
  -29.6080  -22.2170   19.3490 C   0  0  0  0  0  0  0  0  0  0  0  0
  -28.8150  -23.2210   19.8010 N   0  0  0  0  0  0  0  0  0  0  0  0
  -30.5370  -22.4240   18.5660 O   0  0  0  0  0  0  0  0  0  0  0  0
  -28.0570  -22.9010   20.3890 H   0  0  0  0  0  0  0  0  0  0  0  0
  -28.9750  -24.7070   19.7940 C   0  0  0  0  0  2  0  0  0  0  0  0
  -29.2740  -25.4550   18.4540 C   0  0  0  0  0  2  0  0  0  0  0  0
  -29.1250  -26.9080   18.5470 O   0  0  0  0  0  0  0  0  0  0  0  0
  -24.8510  -30.8250   22.7420 C   0  0  0  0  0  0  0  0  0  0  0  0
  -27.8700  -27.4810   18.7150 C   0  0  0  0  0  0  0  0  0  0  0  0
  -23.7510  -29.6180   20.8880 C   0  0  0  0  0  3  0  0  0  0  0  0
  -25.3060  -28.6360   19.1190 C   0  0  0  0  0  0  0  0  0  0  0  0
  -26.1930  -30.3680   20.6860 C   0  0  0  0  0  2  0  0  0  0  0  0
  -26.4220  -29.1830   19.7630 C   0  0  0  0  0  0  0  0  0  0  0  0
  -27.7060  -28.6150   19.5560 C   0  0  0  0  0  3  0  0  0  0  0  0
  -26.7270  -26.9720   18.0590 C   0  0  0  0  0  3  0  0  0  0  0  0
  -25.4550  -27.5360   18.2630 C   0  0  0  0  0  3  0  0  0  0  0  0
  -23.9630  -29.2810   19.3890 C   0  0  0  0  0  2  0  0  0  0  0  0
  -24.9510  -30.2770   21.4970 N   0  0  0  0  0  0  0  0  0  0  0  0
  -23.7780  -30.8180   23.3640 O   0  0  0  0  0  0  0  0  0  0  0  0
  -23.3140  -28.3350   21.6320 C   0  0  0  0  0  0  0  0  0  0  0  0
  -22.0400  -27.9440   21.4590 N   0  0  0  0  0  0  0  0  0  0  0  0
  -24.1160  -27.7040   22.3250 O   0  0  0  0  0  0  0  0  0  0  0  0
  -21.4410  -28.5210   20.8850 H   0  0  0  0  0  0  0  0  0  0  0  0
  -18.9590  -26.0630   21.6540 C   0  0  0  0  0  0  0  0  0  0  0  0
  -21.4240  -26.7460   22.0310 C   0  0  0  0  0  3  0  0  0  0  0  0
  -21.7920  -25.4850   21.2160 C   0  0  0  0  0  2  0  0  0  0  0  0
  -20.7620  -25.1440   20.1350 C   0  0  0  0  0  2  0  0  0  0  0  0
  -19.3830  -24.9110   20.7580 C   0  0  0  0  0  2  0  0  0  0  0  0
  -19.9180  -26.9340   22.2400 C   0  0  0  0  0  0  0  0  0  0  0  0
  -19.4670  -28.0100   23.0360 C   0  0  0  0  0  3  0  0  0  0  0  0
  -18.0920  -28.2210   23.2530 C   0  0  0  0  0  3  0  0  0  0  0  0
  -17.1500  -27.3470   22.6850 C   0  0  0  0  0  3  0  0  0  0  0  0
  -17.5840  -26.2700   21.8930 C   0  0  0  0  0  3  0  0  0  0  0  0
  -26.0700  -31.5090   23.4370 C   0  0  0  0  0  3  0  0  0  0  0  0
  -26.7320  -30.6090   24.5510 C   0  0  1  0  0  0  0  0  0  0  0  0
  -25.7270  -30.0560   25.5880 C   0  0  0  0  0  1  0  0  0  0  0  0
  -27.4670  -29.4060   23.9150 C   0  0  0  0  0  1  0  0  0  0  0  0
  -27.8040  -31.4260   25.3100 C   0  0  0  0  0  1  0  0  0  0  0  0
  -25.5990  -32.7790   24.0080 N   0  0  0  0  0  0  0  0  0  0  0  0
  -25.7710  -33.9770   23.4400 C   0  0  0  0  0  0  0  0  0  0  0  0
  -26.4220  -34.1380   22.4020 O   0  0  0  0  0  0  0  0  0  0  0  0
  -25.0200  -32.7170   24.8330 H   0  0  0  0  0  0  0  0  0  0  0  0
  -23.8260  -35.5660   23.4140 C   0  0  0  0  0  1  0  0  0  0  0  0
  -25.1300  -35.1930   24.1350 C   0  0  0  0  0  3  0  0  0  0  0  0
  -27.1570  -36.1910   25.0970 C   0  0  0  0  0  1  0  0  0  0  0  0
  -26.0180  -36.3740   24.2000 N   0  0  0  0  0  0  0  0  0  0  0  0
  -25.5030  -37.1960   24.5040 H   0  0  0  0  0  0  0  0  0  0  0  0
  2  1  2  0
  3  1  1  0
  4  5  2  0
  4  6  1  0
  5  2  1  0
  6  3  2  0
  7 13  1  0
  8 13  1  0
  9 10  1  0
  9  8  1  0
 11 10  1  0
 11 25  1  0
 11 12  1  0
 13 12  1  0
 14  7  2  0
 15 18  1  0
 16 15  2  0
 16 19  1  0
 17 15  1  0
 17 21  1  0
 18  6  1  0
 20 16  1  0
 21  7  1  0
 21 18  1  0
 22 23  2  0
 23 42  1  0
 24 27  1  0
 24 23  1  0
 25 26  1  0
 25 22  1  0
 26 24  2  0
 27 28  1  0
 28 29  2  0
 30 33  1  0
 30 29  1  0
 31 30  2  0
 32 31  1  0
 32 27  2  0
 33 34  1  0
 34 39  2  0
 34 35  1  0
 35 36  2  0
 36 37  1  0
 37 41  1  0
 38 37  2  0
 39 38  1  0
 40 39  1  0
 42 43  1  0
 43 45  1  0
 43 46  1  0
 44 42  2  0
 47 22  1  0
 47 48  1  0
 49 47  1  0
 50 51  1  0
 50  5  1  0
 51 53  1  0
 52 50  2  0
 54 51  1  0
 55 56  1  0
 55 54  1  0
 56 58  1  0
 57 68  2  0
 58 63  1  0
 59 67  1  0
 59 69  1  0
 60 66  1  0
 60 62  1  0
 61 67  1  0
 62 61  1  0
 63 62  2  0
 64 65  1  0
 64 58  2  0
 65 60  2  0
 66 59  1  0
 67 57  1  0
 69 71  2  0
 70 69  1  0
 72 70  1  0
 73 82  2  0
 73 78  1  0
 74 70  1  0
 74 78  1  0
 75 74  1  0
 76 77  1  0
 76 75  1  0
 77 73  1  0
 78 79  2  0
 79 80  1  0
 81 80  2  0
 82 81  1  0
 83 57  1  0
 83 88  1  0
 83 84  1  0
 84 87  1  1
 84 85  1  0
 86 84  1  0
 88 91  1  0
 89 88  1  0
 89 93  1  0
 90 89  2  0
 93 92  1  0
 93 95  1  0
 95 96  1  0
 95 94  1  0
M  ISO  4   7 100  21 100  55 101  56 101
M  END
>  <TORSDO>  (85) 
F 19

>  <SCORE>  (85) 
-6.869

>  <name>  (85) 
84

>  <ligand_id>  (85) 
84

>  <original_smiles>  (85) 
[H]c1c([H])c(C(=O)N([H])C([H])([H])C([H])([H])Oc2c([H])c([H])c3c(c2[H])C([H])([H])N(C(=O)C([H])(N([H])C(=O)C([H])(N([H])C([H])([H])[H])C([H])([H])[H])C(C([H])([H])[H])(C([H])([H])[H])C([H])([H])[H])C([H])(C(=O)N([H])C2([H])c4c([H])c([H])c([H])c([H])c4C([H])([H])C([H])([H])C2([H])[H])C3([H])[H])c([H])c(C2([H])C(=C(C([H])([H])[H])C([H])([H])[H])C([H])([H])N2C(=O)N2C([H])([H])C([H])([H])C([H])([H])C([H])(n3nc(-c4c([H])c([H])c(Oc5c([H])c([H])c(F)c([H])c5F)c([H])c4[H])c(C(=O)N([H])[H])c3N([H])[H])C2([H])[H])c1[H]

>  <smiles>  (85) 
[H]c1c([H])c(C(=O)N([H])C([H])([H])C([H])([H])Oc2c([H])c([H])c3c(c2[H])C([H])([H])N(C(=O)C([H])(N([H])C(=O)C([H])(N([H])C([H])([H])[H])C([H])([H])[H])C(C([H])([H])[H])(C([H])([H])[H])C([H])([H])[H])C([H])(C(=O)N([H])C2([H])c4c([H])c([H])c([H])c([H])c4C([H])([H])C([H])([H])C2([H])[H])C3([H])[H])c([H])c(C2([H])C(=C(C([H])([H])[H])C([H])([H])[H])C([H])([H])N2C(=O)N2C([H])([H])C([H])([H])C([H])([H])C([H])(n3nc(-c4c([H])c([H])c(Oc5c([H])c([H])c(F)c([H])c5F)c([H])c4[H])c(C(=O)N([H])[H])c3N([H])[H])C2([H])[H])c1[H]

$$$$
85:0:0
     RDKit          3D

 91 99  0  0  1  0  0  0  0  0999 V2000
  -28.5990  -21.9130   20.6020 C   0  0  0  0  0  0  0  0  0  0  0  0
  -30.6510  -21.9070   20.8380 C   0  0  0  0  0  2  0  0  0  0  0  0
  -29.5830  -20.8300   21.1290 C   0  0  0  0  0  3  0  0  0  0  0  0
  -29.5640  -22.9080   20.6640 N   0  0  0  0  0  0  0  0  0  0  0  0
  -27.4270  -21.9670   20.2820 O   0  0  0  0  0  0  0  0  0  0  0  0
  -29.7120  -19.5800   20.3040 N   0  0  0  0  0  4  0  0  0  0  0  0
  -30.6360  -19.5930   19.9090 H   0  0  0  0  0  0  0  0  0  0  0  0
  -29.0570  -19.6620   19.5420 H   0  0  0  0  0  0  0  0  0  0  0  0
  -29.5140  -18.2420   20.9720 C   0  0  0  0  0  2  0  0  0  0  0  0
  -30.1420  -17.0440   20.1610 C   0  0  0  0  0  2  0  0  0  0  0  0
  -30.6420  -14.5700   20.2930 C   0  0  0  0  0  0  0  0  0  0  0  0
  -30.3430  -12.3830   19.1820 C   0  0  0  0  0  2  0  0  0  0  0  0
  -29.3910  -12.5850   17.9840 C   0  0  0  0  0  2  0  0  0  0  0  0
  -27.9210  -12.4520   18.4260 C   0  0  0  0  0  2  0  0  0  0  0  0
  -27.6020  -13.2820   19.6960 C   0  0  0  0  0  3  0  0  0  0  0  0
  -28.6710  -13.0690   20.7930 C   0  0  0  0  0  2  0  0  0  0  0  0
  -29.9830  -13.3770   20.2100 N   0  0  0  0  0  0  0  0  0  0  0  0
  -31.7830  -14.7150   19.8480 O   0  0  0  0  0  0  0  0  0  0  0  0
  -29.8950  -15.6520   20.6470 N   0  0  0  0  0  0  0  0  0  0  0  0
  -28.9780  -15.4500   21.0170 H   0  0  0  0  0  0  0  0  0  0  0  0
  -25.2160  -13.8840   20.4350 C   0  0  0  0  0  0  0  0  0  0  0  0
  -24.1540  -13.1120   20.8210 C   0  0  0  0  0  0  0  0  0  0  0  0
  -24.6160  -11.7620   20.7900 C   0  0  0  0  0  0  0  0  0  0  0  0
  -26.2590  -13.0040   20.1940 N   0  0  0  0  0  0  0  0  0  0  0  0
  -25.9040  -11.7220   20.4690 N   0  0  0  0  0  0  0  0  0  0  0  0
  -23.8920  -10.4980   20.9930 C   0  0  0  0  0  0  0  0  0  0  0  0
  -24.3400   -9.5360   21.9240 C   0  0  0  0  0  3  0  0  0  0  0  0
  -23.6190   -8.3370   22.1160 C   0  0  0  0  0  3  0  0  0  0  0  0
  -22.4340   -8.0950   21.3780 C   0  0  0  0  0  0  0  0  0  0  0  0
  -22.0070   -9.0470   20.4370 C   0  0  0  0  0  3  0  0  0  0  0  0
  -22.7290  -10.2380   20.2430 C   0  0  0  0  0  3  0  0  0  0  0  0
  -21.6820   -6.9500   21.4800 O   0  0  0  0  0  0  0  0  0  0  0  0
  -21.6520   -6.2120   22.6360 C   0  0  0  0  0  0  0  0  0  0  0  0
  -21.2530   -6.7700   23.8690 C   0  0  0  0  0  3  0  0  0  0  0  0
  -21.1700   -5.9560   25.0160 C   0  0  0  0  0  3  0  0  0  0  0  0
  -21.4770   -4.5840   24.9300 C   0  0  0  0  0  0  0  0  0  0  0  0
  -21.8720   -4.0260   23.7010 C   0  0  0  0  0  3  0  0  0  0  0  0
  -21.9560   -4.8380   22.5560 C   0  0  0  0  0  0  0  0  0  0  0  0
  -22.3160   -4.2910   21.3710 F   0  0  0  0  0  0  0  0  0  0  0  0
  -21.3890   -3.7990   26.0300 F   0  0  0  0  0  0  0  0  0  0  0  0
  -22.7600  -13.5900   21.1070 C   0  0  0  0  0  0  0  0  0  0  0  0
  -22.0450  -12.8990   21.9850 N   0  0  0  0  0  0  0  0  0  0  0  0
  -22.3170  -14.6120   20.5840 O   0  0  0  0  0  0  0  0  0  0  0  0
  -22.4190  -12.0700   22.4270 H   0  0  0  0  0  0  0  0  0  0  0  0
  -21.1110  -13.2020   22.2240 H   0  0  0  0  0  0  0  0  0  0  0  0
  -25.3740  -15.2530   20.2480 N   0  0  0  0  0  0  0  0  0  0  0  0
  -24.5940  -15.8920   20.3440 H   0  0  0  0  0  0  0  0  0  0  0  0
  -26.2000  -15.6920   19.8650 H   0  0  0  0  0  0  0  0  0  0  0  0
  -29.6050  -24.3930   20.4830 C   0  0  0  0  0  2  0  0  0  0  0  0
  -28.2500  -25.1510   20.2250 C   0  0  0  0  0  2  0  0  0  0  0  0
  -28.3730  -26.6080   20.2230 O   0  0  0  0  0  0  0  0  0  0  0  0
  -24.5860  -31.8810   23.2590 C   0  0  0  0  0  0  0  0  0  0  0  0
  -27.2120  -27.3780   20.1940 C   0  0  0  0  0  0  0  0  0  0  0  0
  -23.3730  -30.4820   21.6190 C   0  0  0  0  0  3  0  0  0  0  0  0
  -24.8200  -28.9340   20.1940 C   0  0  0  0  0  0  0  0  0  0  0  0
  -25.9010  -30.8300   21.4080 C   0  0  0  0  0  2  0  0  0  0  0  0
  -25.9860  -29.4480   20.7770 C   0  0  0  0  0  0  0  0  0  0  0  0
  -27.1840  -28.6820   20.7640 C   0  0  0  0  0  3  0  0  0  0  0  0
  -26.0210  -26.8960   19.6010 C   0  0  0  0  0  3  0  0  0  0  0  0
  -24.8370  -27.6590   19.6020 C   0  0  0  0  0  3  0  0  0  0  0  0
  -23.5750  -29.7960   20.2430 C   0  0  0  0  0  2  0  0  0  0  0  0
  -24.6400  -31.0800   22.1560 N   0  0  0  0  0  0  0  0  0  0  0  0
  -23.5070  -32.1540   23.8040 O   0  0  0  0  0  0  0  0  0  0  0  0
  -22.7180  -29.4670   22.5850 C   0  0  0  0  0  0  0  0  0  0  0  0
  -21.3930  -29.2830   22.4540 N   0  0  0  0  0  0  0  0  0  0  0  0
  -23.4000  -28.8430   23.4020 O   0  0  0  0  0  0  0  0  0  0  0  0
  -20.9060  -29.8340   21.7610 H   0  0  0  0  0  0  0  0  0  0  0  0
  -18.0200  -28.0870   22.9410 C   0  0  0  0  0  0  0  0  0  0  0  0
  -20.5750  -28.3460   23.2230 C   0  0  0  0  0  3  0  0  0  0  0  0
  -20.6820  -26.9140   22.6470 C   0  0  0  0  0  2  0  0  0  0  0  0
  -19.5850  -26.5930   21.6280 C   0  0  0  0  0  2  0  0  0  0  0  0
  -18.2010  -26.7350   22.2680 C   0  0  0  0  0  2  0  0  0  0  0  0
  -19.1360  -28.8490   23.3750 C   0  0  0  0  0  0  0  0  0  0  0  0
  -18.9160  -30.1110   23.9640 C   0  0  0  0  0  3  0  0  0  0  0  0
  -17.6110  -30.6140   24.1260 C   0  0  0  0  0  3  0  0  0  0  0  0
  -16.5080  -29.8480   23.7110 C   0  0  0  0  0  3  0  0  0  0  0  0
  -16.7130  -28.5860   23.1240 C   0  0  0  0  0  3  0  0  0  0  0  0
  -25.8740  -32.5090   23.8780 C   0  0  0  0  0  3  0  0  0  0  0  0
  -25.5680  -33.9070   24.2080 N   0  0  0  0  0  0  0  0  0  0  0  0
  -25.9030  -34.9590   23.4460 C   0  0  0  0  0  0  0  0  0  0  0  0
  -26.5730  -34.8500   22.4140 O   0  0  0  0  0  0  0  0  0  0  0  0
  -24.9680  -34.0640   25.0040 H   0  0  0  0  0  0  0  0  0  0  0  0
  -24.1840  -36.7590   23.0830 C   0  0  0  0  0  1  0  0  0  0  0  0
  -25.4230  -36.3520   23.8970 C   0  0  0  0  0  3  0  0  0  0  0  0
  -27.5620  -37.2320   24.7220 C   0  0  0  0  0  1  0  0  0  0  0  0
  -26.4590  -37.3990   23.7790 N   0  0  0  0  0  0  0  0  0  0  0  0
  -26.0590  -38.3240   23.9180 H   0  0  0  0  0  0  0  0  0  0  0  0
  -26.3880  -31.7310   25.1490 C   0  0  1  0  0  0  0  0  0  0  0  0
  -25.2970  -31.4940   26.2190 C   0  0  0  0  0  1  0  0  0  0  0  0
  -26.9580  -30.3510   24.7490 C   0  0  0  0  0  1  0  0  0  0  0  0
  -27.5500  -32.5120   25.8080 C   0  0  0  0  0  1  0  0  0  0  0  0
  1  4  1  0
  1  3  1  0
  2  3  1  0
  3  6  1  0
  4  2  1  0
  5  1  2  0
  6  9  1  0
  7  6  1  0
  8  6  1  0
 10 19  1  0
 10  9  1  0
 11 19  1  0
 12 17  1  0
 13 14  1  0
 13 12  1  0
 15 14  1  0
 15 24  1  0
 15 16  1  0
 17 11  1  0
 17 16  1  0
 18 11  2  0
 19 20  1  0
 21 22  2  0
 22 41  1  0
 23 22  1  0
 23 26  1  0
 24 21  1  0
 24 25  1  0
 25 23  2  0
 26 27  1  0
 27 28  2  0
 29 32  1  0
 29 28  1  0
 30 29  2  0
 31 30  1  0
 31 26  2  0
 32 33  1  0
 33 34  1  0
 34 35  2  0
 36 35  1  0
 36 40  1  0
 37 36  2  0
 38 33  2  0
 38 37  1  0
 39 38  1  0
 41 42  1  0
 42 45  1  0
 42 44  1  0
 43 41  2  0
 46 47  1  0
 46 21  1  0
 48 46  1  0
 49  4  1  0
 50 49  1  0
 51 50  1  0
 52 63  2  0
 53 51  1  0
 53 58  1  0
 54 62  1  0
 54 64  1  0
 55 61  1  0
 55 57  1  0
 56 62  1  0
 57 56  1  0
 58 57  2  0
 59 60  1  0
 59 53  2  0
 60 55  2  0
 61 54  1  0
 62 52  1  0
 64 66  2  0
 65 64  1  0
 67 65  1  0
 68 77  2  0
 68 73  1  0
 69 65  1  0
 69 73  1  0
 70 69  1  0
 71 72  1  0
 71 70  1  0
 72 68  1  0
 73 74  2  0
 74 75  1  0
 76 75  2  0
 77 76  1  0
 78 52  1  0
 78 79  1  0
 78 88  1  0
 79 82  1  0
 80 84  1  0
 80 79  1  0
 81 80  2  0
 84 83  1  0
 86 84  1  0
 86 87  1  0
 86 85  1  0
 88 91  1  1
 88 89  1  0
 90 88  1  0
M  ISO  4  11 100  19 100  50 101  51 101
M  END
>  <TORSDO>  (86) 
F 21

>  <SCORE>  (86) 
-13.360

>  <name>  (86) 
85

>  <ligand_id>  (86) 
85

>  <original_smiles>  (86) 
[H]c1c([H])c([H])c2c(c1[H])C([H])([H])C([H])([H])C([H])([H])C2([H])N([H])C(=O)C1([H])N(C(=O)C([H])(N([H])C(=O)C([H])(N([H])C([H])([H])[H])C([H])([H])[H])C(C([H])([H])[H])(C([H])([H])[H])C([H])([H])[H])C([H])([H])c2c([H])c(OC([H])([H])C([H])([H])N3C(=O)C([H])([N+]([H])([H])C([H])([H])C([H])([H])N([H])C(=O)N4C([H])([H])C([H])([H])C([H])([H])C([H])(n5nc(-c6c([H])c([H])c(Oc7c([H])c([H])c(F)c([H])c7F)c([H])c6[H])c(C(=O)N([H])[H])c5N([H])[H])C4([H])[H])C3([H])[H])c([H])c([H])c2C1([H])[H]

>  <smiles>  (86) 
[H]c1c([H])c([H])c2c(c1[H])C([H])([H])C([H])([H])C([H])([H])C2([H])N([H])C(=O)C1([H])N(C(=O)C([H])(N([H])C(=O)C([H])(N([H])C([H])([H])[H])C([H])([H])[H])C(C([H])([H])[H])(C([H])([H])[H])C([H])([H])[H])C([H])([H])c2c([H])c(OC([H])([H])C([H])([H])N3C(=O)C([H])([N+]([H])([H])C([H])([H])C([H])([H])N([H])C(=O)N4C([H])([H])C([H])([H])C([H])([H])C([H])(n5nc(-c6c([H])c([H])c(Oc7c([H])c([H])c(F)c([H])c7F)c([H])c6[H])c(C(=O)N([H])[H])c5N([H])[H])C4([H])[H])C3([H])[H])c([H])c([H])c2C1([H])[H]

$$$$
86:0:0
     RDKit          3D

 93101  0  0  1  0  0  0  0  0999 V2000
  -28.7370  -21.0680   19.9440 N   0  0  0  0  0  4  0  0  0  0  0  0
  -27.7670  -21.1150   20.2100 H   0  0  0  0  0  0  0  0  0  0  0  0
  -28.7290  -20.8260   18.9660 H   0  0  0  0  0  0  0  0  0  0  0  0
  -28.9580  -17.6720   21.8240 C   0  0  0  0  0  2  0  0  0  0  0  0
  -30.0820  -18.7260   19.9400 C   0  0  0  0  0  2  0  0  0  0  0  0
  -28.2620  -18.9940   21.3940 C   0  0  0  0  0  3  0  0  0  0  0  0
  -30.0710  -17.3480   20.8010 C   0  0  0  0  0  3  0  0  0  0  0  0
  -29.3430  -19.8880   20.7310 C   0  0  0  0  0  3  0  0  0  0  0  0
  -30.6130  -14.7910   20.3360 C   0  0  0  0  0  0  0  0  0  0  0  0
  -30.4310  -12.4650   19.4290 C   0  0  0  0  0  2  0  0  0  0  0  0
  -29.4940  -12.4690   18.2010 C   0  0  0  0  0  2  0  0  0  0  0  0
  -28.0200  -12.3200   18.6410 C   0  0  0  0  0  2  0  0  0  0  0  0
  -27.6270  -13.2250   19.8410 C   0  0  0  0  0  3  0  0  0  0  0  0
  -28.7010  -13.2190   20.9480 C   0  0  0  0  0  2  0  0  0  0  0  0
  -29.9800  -13.5640   20.3110 N   0  0  0  0  0  0  0  0  0  0  0  0
  -31.8420  -14.8380   20.2360 O   0  0  0  0  0  0  0  0  0  0  0  0
  -29.2110  -16.1500   18.8560 C   0  0  0  0  0  1  0  0  0  0  0  0
  -29.8530  -15.9610   20.1630 N   0  0  0  0  0  0  0  0  0  0  0  0
  -25.2510  -13.8180   20.5890 C   0  0  0  0  0  0  0  0  0  0  0  0
  -24.1790  -13.0450   20.9310 C   0  0  0  0  0  0  0  0  0  0  0  0
  -24.6340  -11.6890   20.8770 C   0  0  0  0  0  0  0  0  0  0  0  0
  -26.2900  -12.9350   20.3380 N   0  0  0  0  0  0  0  0  0  0  0  0
  -25.9260  -11.6490   20.5750 N   0  0  0  0  0  0  0  0  0  0  0  0
  -23.9000  -10.4280   21.0380 C   0  0  0  0  0  0  0  0  0  0  0  0
  -24.3550   -9.4190   21.9160 C   0  0  0  0  0  3  0  0  0  0  0  0
  -23.6210   -8.2240   22.0740 C   0  0  0  0  0  3  0  0  0  0  0  0
  -22.4200   -8.0270   21.3530 C   0  0  0  0  0  0  0  0  0  0  0  0
  -21.9840   -9.0240   20.4630 C   0  0  0  0  0  3  0  0  0  0  0  0
  -22.7180  -10.2120   20.3020 C   0  0  0  0  0  3  0  0  0  0  0  0
  -21.6590   -6.8840   21.4220 O   0  0  0  0  0  0  0  0  0  0  0  0
  -21.6840   -6.0680   22.5270 C   0  0  0  0  0  0  0  0  0  0  0  0
  -21.3990   -6.5580   23.8200 C   0  0  0  0  0  3  0  0  0  0  0  0
  -21.3650   -5.6750   24.9180 C   0  0  0  0  0  3  0  0  0  0  0  0
  -21.6050   -4.3010   24.7250 C   0  0  0  0  0  0  0  0  0  0  0  0
  -21.8830   -3.8100   23.4350 C   0  0  0  0  0  3  0  0  0  0  0  0
  -21.9190   -4.6920   22.3410 C   0  0  0  0  0  0  0  0  0  0  0  0
  -22.1650   -4.2080   21.0990 F   0  0  0  0  0  0  0  0  0  0  0  0
  -21.5660   -3.4500   25.7760 F   0  0  0  0  0  0  0  0  0  0  0  0
  -22.7800  -13.5240   21.1910 C   0  0  0  0  0  0  0  0  0  0  0  0
  -22.0390  -12.8260   22.0430 N   0  0  0  0  0  0  0  0  0  0  0  0
  -22.3500  -14.5570   20.6750 O   0  0  0  0  0  0  0  0  0  0  0  0
  -22.3890  -11.9940   22.4920 H   0  0  0  0  0  0  0  0  0  0  0  0
  -21.1000  -13.1330   22.2480 H   0  0  0  0  0  0  0  0  0  0  0  0
  -25.4230  -15.1960   20.4450 N   0  0  0  0  0  0  0  0  0  0  0  0
  -24.6800  -15.8530   20.6580 H   0  0  0  0  0  0  0  0  0  0  0  0
  -26.2890  -15.6480   20.1880 H   0  0  0  0  0  0  0  0  0  0  0  0
  -27.4890  -19.6560   22.5270 C   0  0  0  0  0  3  0  0  0  0  0  0
  -26.2250  -19.6850   22.5900 N   0  0  0  0  0  0  0  0  0  0  0  0
  -25.7770  -19.2090   21.8110 H   0  0  0  0  0  0  0  0  0  0  0  0
  -29.2630  -22.5050   20.0490 C   0  0  0  0  0  2  0  0  0  0  0  0
  -28.1970  -23.7200   20.1570 C   0  0  0  0  0  2  0  0  0  0  0  0
  -28.5360  -25.1600   19.5170 C   0  0  0  0  0  2  0  0  0  0  0  0
  -28.3670  -26.4690   20.2060 O   0  0  0  0  0  0  0  0  0  0  0  0
  -24.6270  -31.8550   23.1970 C   0  0  0  0  0  0  0  0  0  0  0  0
  -27.2300  -27.2920   20.1160 C   0  0  0  0  0  0  0  0  0  0  0  0
  -23.4190  -30.4740   21.5430 C   0  0  0  0  0  3  0  0  0  0  0  0
  -24.8650  -28.9160   20.1080 C   0  0  0  0  0  0  0  0  0  0  0  0
  -25.9600  -30.7780   21.3690 C   0  0  0  0  0  2  0  0  0  0  0  0
  -26.0310  -29.4000   20.7130 C   0  0  0  0  0  0  0  0  0  0  0  0
  -27.2110  -28.5960   20.7090 C   0  0  0  0  0  3  0  0  0  0  0  0
  -26.0380  -26.8570   19.4950 C   0  0  0  0  0  3  0  0  0  0  0  0
  -24.8720  -27.6520   19.4910 C   0  0  0  0  0  3  0  0  0  0  0  0
  -23.6300  -29.7970   20.1600 C   0  0  0  0  0  2  0  0  0  0  0  0
  -24.6870  -31.0530   22.0940 N   0  0  0  0  0  0  0  0  0  0  0  0
  -23.5440  -32.1360   23.7320 O   0  0  0  0  0  0  0  0  0  0  0  0
  -22.7470  -29.4590   22.4960 C   0  0  0  0  0  0  0  0  0  0  0  0
  -21.4180  -29.3030   22.3720 N   0  0  0  0  0  0  0  0  0  0  0  0
  -23.4210  -28.8160   23.3070 O   0  0  0  0  0  0  0  0  0  0  0  0
  -20.9370  -29.8760   21.6930 H   0  0  0  0  0  0  0  0  0  0  0  0
  -18.0290  -28.1370   22.8490 C   0  0  0  0  0  0  0  0  0  0  0  0
  -20.5880  -28.3670   23.1320 C   0  0  0  0  0  3  0  0  0  0  0  0
  -20.6770  -26.9390   22.5450 C   0  0  0  0  0  2  0  0  0  0  0  0
  -19.5770  -26.6390   21.5220 C   0  0  0  0  0  2  0  0  0  0  0  0
  -18.1940  -26.7930   22.1620 C   0  0  0  0  0  2  0  0  0  0  0  0
  -19.1540  -28.8830   23.2890 C   0  0  0  0  0  0  0  0  0  0  0  0
  -18.9460  -30.1430   23.8900 C   0  0  0  0  0  3  0  0  0  0  0  0
  -17.6460  -30.6560   24.0570 C   0  0  0  0  0  3  0  0  0  0  0  0
  -16.5350  -29.9070   23.6340 C   0  0  0  0  0  3  0  0  0  0  0  0
  -16.7270  -28.6490   23.0340 C   0  0  0  0  0  3  0  0  0  0  0  0
  -25.9120  -32.4760   23.8310 C   0  0  0  0  0  3  0  0  0  0  0  0
  -25.5930  -33.8560   24.2230 N   0  0  0  0  0  0  0  0  0  0  0  0
  -25.9050  -34.9450   23.5090 C   0  0  0  0  0  0  0  0  0  0  0  0
  -26.5610  -34.8920   22.4650 O   0  0  0  0  0  0  0  0  0  0  0  0
  -25.0130  -33.9690   25.0410 H   0  0  0  0  0  0  0  0  0  0  0  0
  -24.1470  -36.7280   23.2630 C   0  0  0  0  0  1  0  0  0  0  0  0
  -25.4110  -36.3080   24.0310 C   0  0  0  0  0  3  0  0  0  0  0  0
  -27.5580  -37.1810   24.8460 C   0  0  0  0  0  1  0  0  0  0  0  0
  -26.4290  -37.3780   23.9400 N   0  0  0  0  0  0  0  0  0  0  0  0
  -26.0160  -38.2850   24.1430 H   0  0  0  0  0  0  0  0  0  0  0  0
  -26.4480  -31.6600   25.0700 C   0  0  1  0  0  0  0  0  0  0  0  0
  -25.3720  -31.3780   26.1430 C   0  0  0  0  0  1  0  0  0  0  0  0
  -27.0310  -30.3010   24.6190 C   0  0  0  0  0  1  0  0  0  0  0  0
  -27.6010  -32.4360   25.7480 C   0  0  0  0  0  1  0  0  0  0  0  0
  1 50  1  0
  1  2  1  0
  3  1  1  0
  5  8  1  0
  5  7  1  0
  6  4  1  0
  6 47  1  0
  7 18  1  0
  7  4  1  0
  8  1  1  0
  8  6  1  0
 10 15  1  0
 11 12  1  0
 11 10  1  0
 13 12  1  0
 13 22  1  0
 13 14  1  0
 15  9  1  0
 15 14  1  0
 16  9  2  0
 17 18  1  0
 18  9  1  0
 19 20  2  0
 20 39  1  0
 21 20  1  0
 21 24  1  0
 22 23  1  0
 22 19  1  0
 23 21  2  0
 24 25  1  0
 25 26  2  0
 27 30  1  0
 27 26  1  0
 28 27  2  0
 29 28  1  0
 29 24  2  0
 30 31  1  0
 31 32  1  0
 32 33  2  0
 34 33  1  0
 34 38  1  0
 35 34  2  0
 36 31  2  0
 36 35  1  0
 37 36  1  0
 39 40  1  0
 40 43  1  0
 40 42  1  0
 41 39  2  0
 44 19  1  0
 44 45  1  0
 46 44  1  0
 47 48  2  0
 49 48  1  0
 50 51  1  0
 52 51  1  0
 52 53  1  0
 54 65  2  0
 55 53  1  0
 55 60  1  0
 56 64  1  0
 56 66  1  0
 57 63  1  0
 57 59  1  0
 58 64  1  0
 59 58  1  0
 60 59  2  0
 61 55  2  0
 62 61  1  0
 62 57  2  0
 63 56  1  0
 64 54  1  0
 66 68  2  0
 67 66  1  0
 69 67  1  0
 70 79  2  0
 70 75  1  0
 71 67  1  0
 71 75  1  0
 72 71  1  0
 73 74  1  0
 73 72  1  0
 74 70  1  0
 75 76  2  0
 76 77  1  0
 78 77  2  0
 79 78  1  0
 80 54  1  0
 80 81  1  0
 80 90  1  0
 81 84  1  0
 82 86  1  0
 82 81  1  0
 83 82  2  0
 86 85  1  0
 88 86  1  0
 88 89  1  0
 88 87  1  0
 90 93  1  1
 90 91  1  0
 92 90  1  0
M  ISO  4   9 100  18 100  52 101  53 101
M  END
>  <TORSDO>  (87) 
F 21

>  <SCORE>  (87) 
2.831

>  <name>  (87) 
86

>  <ligand_id>  (87) 
86

>  <original_smiles>  (87) 
[H]N=C([H])C1([H])C([H])([H])C([H])(N(C(=O)N2C([H])([H])C([H])([H])C([H])([H])C([H])(n3nc(-c4c([H])c([H])c(Oc5c([H])c([H])c(F)c([H])c5F)c([H])c4[H])c(C(=O)N([H])[H])c3N([H])[H])C2([H])[H])C([H])([H])[H])C([H])([H])C1([H])[N+]([H])([H])C([H])([H])C([H])([H])C([H])([H])Oc1c([H])c([H])c2c(c1[H])C([H])([H])N(C(=O)C([H])(N([H])C(=O)C([H])(N([H])C([H])([H])[H])C([H])([H])[H])C(C([H])([H])[H])(C([H])([H])[H])C([H])([H])[H])C([H])(C(=O)N([H])C1([H])c3c([H])c([H])c([H])c([H])c3C([H])([H])C([H])([H])C1([H])[H])C2([H])[H]

>  <smiles>  (87) 
[H]N=C([H])C1([H])C([H])([H])C([H])(N(C(=O)N2C([H])([H])C([H])([H])C([H])([H])C([H])(n3nc(-c4c([H])c([H])c(Oc5c([H])c([H])c(F)c([H])c5F)c([H])c4[H])c(C(=O)N([H])[H])c3N([H])[H])C2([H])[H])C([H])([H])[H])C([H])([H])C1([H])[N+]([H])([H])C([H])([H])C([H])([H])C([H])([H])Oc1c([H])c([H])c2c(c1[H])C([H])([H])N(C(=O)C([H])(N([H])C(=O)C([H])(N([H])C([H])([H])[H])C([H])([H])[H])C(C([H])([H])[H])(C([H])([H])[H])C([H])([H])[H])C([H])(C(=O)N([H])C1([H])c3c([H])c([H])c([H])c([H])c3C([H])([H])C([H])([H])C1([H])[H])C2([H])[H]

$$$$
87:0:0
     RDKit          3D

 91 99  0  0  1  0  0  0  0  0999 V2000
  -28.5500  -21.1980   20.2970 C   0  0  0  0  0  3  0  0  0  0  0  0
  -27.9780  -22.4770   20.0650 C   0  0  0  0  0  3  0  0  0  0  0  0
  -30.5850  -22.2860   20.9380 C   0  0  0  0  0  3  0  0  0  0  0  0
  -29.8890  -21.0500   20.7300 C   0  0  0  0  0  0  0  0  0  0  0  0
  -28.6830  -23.6990   20.2470 C   0  0  0  0  0  0  0  0  0  0  0  0
  -30.0190  -23.5780   20.7010 C   0  0  0  0  0  0  0  0  0  0  0  0
  -30.8610  -24.8180   20.9290 C   0  0  0  0  0  1  0  0  0  0  0  0
  -29.9760  -18.4360   20.8230 C   0  0  0  0  0  3  0  0  0  0  0  0
  -30.5560  -19.6830   20.9300 C   0  0  0  0  0  0  0  0  0  0  0  0
  -32.0430  -19.7840   21.2700 C   0  0  0  0  0  1  0  0  0  0  0  0
  -30.7350  -17.0770   21.0040 C   0  0  0  0  0  2  0  0  0  0  0  0
  -30.7080  -14.5950   20.5170 C   0  0  0  0  0  0  0  0  0  0  0  0
  -30.4130  -12.3740   19.4540 C   0  0  0  0  0  2  0  0  0  0  0  0
  -29.4940  -12.4980   18.2220 C   0  0  0  0  0  2  0  0  0  0  0  0
  -28.0200  -12.3430   18.6390 C   0  0  0  0  0  2  0  0  0  0  0  0
  -27.6470  -13.2260   19.8600 C   0  0  0  0  0  3  0  0  0  0  0  0
  -28.6940  -13.1170   20.9920 C   0  0  0  0  0  2  0  0  0  0  0  0
  -30.0090  -13.4210   20.4140 N   0  0  0  0  0  0  0  0  0  0  0  0
  -31.8800  -14.6620   20.1430 O   0  0  0  0  0  0  0  0  0  0  0  0
  -30.0510  -15.7430   20.8690 N   0  0  0  0  0  0  0  0  0  0  0  0
  -29.0770  -15.6700   21.1240 H   0  0  0  0  0  0  0  0  0  0  0  0
  -25.2530  -13.8190   20.5710 C   0  0  0  0  0  0  0  0  0  0  0  0
  -24.1800  -13.0440   20.9190 C   0  0  0  0  0  0  0  0  0  0  0  0
  -24.6380  -11.6910   20.8730 C   0  0  0  0  0  0  0  0  0  0  0  0
  -26.2960  -12.9400   20.3350 N   0  0  0  0  0  0  0  0  0  0  0  0
  -25.9310  -11.6540   20.5770 N   0  0  0  0  0  0  0  0  0  0  0  0
  -23.9040  -10.4290   21.0390 C   0  0  0  0  0  0  0  0  0  0  0  0
  -24.3600   -9.4220   21.9180 C   0  0  0  0  0  3  0  0  0  0  0  0
  -23.6290   -8.2250   22.0750 C   0  0  0  0  0  3  0  0  0  0  0  0
  -22.4270   -8.0270   21.3540 C   0  0  0  0  0  0  0  0  0  0  0  0
  -21.9900   -9.0240   20.4640 C   0  0  0  0  0  3  0  0  0  0  0  0
  -22.7210  -10.2130   20.3050 C   0  0  0  0  0  3  0  0  0  0  0  0
  -21.6650   -6.8870   21.4230 O   0  0  0  0  0  0  0  0  0  0  0  0
  -21.6860   -6.0730   22.5280 C   0  0  0  0  0  0  0  0  0  0  0  0
  -21.4020   -6.5640   23.8210 C   0  0  0  0  0  3  0  0  0  0  0  0
  -21.3660   -5.6790   24.9170 C   0  0  0  0  0  3  0  0  0  0  0  0
  -21.6040   -4.3060   24.7230 C   0  0  0  0  0  0  0  0  0  0  0  0
  -21.8820   -3.8140   23.4350 C   0  0  0  0  0  3  0  0  0  0  0  0
  -21.9190   -4.6960   22.3400 C   0  0  0  0  0  0  0  0  0  0  0  0
  -22.1660   -4.2140   21.0980 F   0  0  0  0  0  0  0  0  0  0  0  0
  -21.5630   -3.4540   25.7740 F   0  0  0  0  0  0  0  0  0  0  0  0
  -22.7820  -13.5230   21.1860 C   0  0  0  0  0  0  0  0  0  0  0  0
  -22.0480  -12.8200   22.0410 N   0  0  0  0  0  0  0  0  0  0  0  0
  -22.3510  -14.5540   20.6720 O   0  0  0  0  0  0  0  0  0  0  0  0
  -22.4110  -11.9860   22.4780 H   0  0  0  0  0  0  0  0  0  0  0  0
  -21.1090  -13.1210   22.2640 H   0  0  0  0  0  0  0  0  0  0  0  0
  -25.4240  -15.1920   20.4140 N   0  0  0  0  0  0  0  0  0  0  0  0
  -24.6570  -15.8460   20.5190 H   0  0  0  0  0  0  0  0  0  0  0  0
  -26.2790  -15.6310   20.0990 H   0  0  0  0  0  0  0  0  0  0  0  0
  -27.9140  -25.0050   19.8520 C   0  0  0  0  0  2  0  0  0  0  0  0
  -28.2760  -26.4020   20.1930 O   0  0  0  0  0  0  0  0  0  0  0  0
  -24.6280  -31.8630   23.2090 C   0  0  0  0  0  0  0  0  0  0  0  0
  -27.2030  -27.3160   20.1050 C   0  0  0  0  0  0  0  0  0  0  0  0
  -23.4190  -30.4960   21.5520 C   0  0  0  0  0  3  0  0  0  0  0  0
  -24.8610  -28.9700   20.1060 C   0  0  0  0  0  0  0  0  0  0  0  0
  -25.9650  -30.7930   21.3860 C   0  0  0  0  0  2  0  0  0  0  0  0
  -26.0350  -29.4240   20.7220 C   0  0  0  0  0  0  0  0  0  0  0  0
  -27.2080  -28.6070   20.7220 C   0  0  0  0  0  3  0  0  0  0  0  0
  -26.0080  -26.9490   19.4320 C   0  0  0  0  0  3  0  0  0  0  0  0
  -24.8500  -27.7360   19.4540 C   0  0  0  0  0  3  0  0  0  0  0  0
  -23.6320  -29.8490   20.1610 C   0  0  0  0  0  2  0  0  0  0  0  0
  -24.6900  -31.0650   22.1050 N   0  0  0  0  0  0  0  0  0  0  0  0
  -23.5440  -32.1430   23.7410 O   0  0  0  0  0  0  0  0  0  0  0  0
  -22.7470  -29.4650   22.4920 C   0  0  0  0  0  0  0  0  0  0  0  0
  -21.4190  -29.3060   22.3660 N   0  0  0  0  0  0  0  0  0  0  0  0
  -23.4200  -28.8160   23.2970 O   0  0  0  0  0  0  0  0  0  0  0  0
  -20.9350  -29.8820   21.6910 H   0  0  0  0  0  0  0  0  0  0  0  0
  -18.0290  -28.1390   22.8470 C   0  0  0  0  0  0  0  0  0  0  0  0
  -20.5890  -28.3700   23.1270 C   0  0  0  0  0  3  0  0  0  0  0  0
  -20.6790  -26.9420   22.5410 C   0  0  0  0  0  2  0  0  0  0  0  0
  -19.5770  -26.6390   21.5210 C   0  0  0  0  0  2  0  0  0  0  0  0
  -18.1940  -26.7940   22.1600 C   0  0  0  0  0  2  0  0  0  0  0  0
  -19.1540  -28.8860   23.2870 C   0  0  0  0  0  0  0  0  0  0  0  0
  -18.9470  -30.1460   23.8890 C   0  0  0  0  0  3  0  0  0  0  0  0
  -17.6470  -30.6590   24.0570 C   0  0  0  0  0  3  0  0  0  0  0  0
  -16.5360  -29.9090   23.6350 C   0  0  0  0  0  3  0  0  0  0  0  0
  -16.7280  -28.6520   23.0350 C   0  0  0  0  0  3  0  0  0  0  0  0
  -25.9140  -32.4800   23.8390 C   0  0  0  0  0  3  0  0  0  0  0  0
  -26.4520  -31.6600   25.0750 C   0  0  1  0  0  0  0  0  0  0  0  0
  -25.3740  -31.3750   26.1470 C   0  0  0  0  0  1  0  0  0  0  0  0
  -27.0380  -30.3020   24.6230 C   0  0  0  0  0  1  0  0  0  0  0  0
  -27.6080  -32.4340   25.7520 C   0  0  0  0  0  1  0  0  0  0  0  0
  -25.5960  -33.8600   24.2310 N   0  0  0  0  0  0  0  0  0  0  0  0
  -25.9050  -34.9460   23.5100 C   0  0  0  0  0  0  0  0  0  0  0  0
  -26.5600  -34.8920   22.4660 O   0  0  0  0  0  0  0  0  0  0  0  0
  -25.0160  -33.9760   25.0490 H   0  0  0  0  0  0  0  0  0  0  0  0
  -24.1480  -36.7280   23.2630 C   0  0  0  0  0  1  0  0  0  0  0  0
  -25.4110  -36.3080   24.0320 C   0  0  0  0  0  3  0  0  0  0  0  0
  -27.5570  -37.1790   24.8460 C   0  0  0  0  0  1  0  0  0  0  0  0
  -26.4280  -37.3780   23.9420 N   0  0  0  0  0  0  0  0  0  0  0  0
  -26.0150  -38.2840   24.1470 H   0  0  0  0  0  0  0  0  0  0  0  0
  1  4  1  0
  2  5  1  0
  2  1  2  0
  4  9  1  0
  4  3  2  0
  5  6  2  0
  6  7  1  0
  6  3  1  0
  8  9  2  0
  8 11  1  0
  9 10  1  0
 12 20  1  0
 13 18  1  0
 14 15  1  0
 14 13  1  0
 16 15  1  0
 16 25  1  0
 16 17  1  0
 18 12  1  0
 18 17  1  0
 19 12  2  0
 20 11  1  0
 20 21  1  0
 22 23  2  0
 23 42  1  0
 24 23  1  0
 24 27  1  0
 25 22  1  0
 25 26  1  0
 26 24  2  0
 27 28  1  0
 28 29  2  0
 30 33  1  0
 30 29  1  0
 31 30  2  0
 32 31  1  0
 32 27  2  0
 33 34  1  0
 34 35  1  0
 35 36  2  0
 37 36  1  0
 37 41  1  0
 38 37  2  0
 39 34  2  0
 39 38  1  0
 40 39  1  0
 42 43  1  0
 43 46  1  0
 43 45  1  0
 44 42  2  0
 47 48  1  0
 47 22  1  0
 49 47  1  0
 50 51  1  0
 50  5  1  0
 52 63  2  0
 53 51  1  0
 53 58  1  0
 54 62  1  0
 54 64  1  0
 55 61  1  0
 55 57  1  0
 56 62  1  0
 57 56  1  0
 58 57  2  0
 59 60  1  0
 59 53  2  0
 60 55  2  0
 61 54  1  0
 62 52  1  0
 64 66  2  0
 65 64  1  0
 67 65  1  0
 68 77  2  0
 68 73  1  0
 69 65  1  0
 69 73  1  0
 70 69  1  0
 71 72  1  0
 71 70  1  0
 72 68  1  0
 73 74  2  0
 74 75  1  0
 76 75  2  0
 77 76  1  0
 78 52  1  0
 78 83  1  0
 78 79  1  0
 79 82  1  1
 79 80  1  0
 81 79  1  0
 83 86  1  0
 84 88  1  0
 84 83  1  0
 85 84  2  0
 88 87  1  0
 90 88  1  0
 90 91  1  0
 90 89  1  0
M  ISO  4  12 100  20 100  50 101  51 101
M  END
>  <TORSDO>  (88) 
F 19

>  <SCORE>  (88) 
-14.288

>  <name>  (88) 
87

>  <ligand_id>  (88) 
87

>  <original_smiles>  (88) 
[H]C(=C(c1c([H])c([H])c(C([H])([H])Oc2c([H])c([H])c3c(c2[H])C([H])([H])N(C(=O)C([H])(N([H])C(=O)C([H])(N([H])C([H])([H])[H])C([H])([H])[H])C(C([H])([H])[H])(C([H])([H])[H])C([H])([H])[H])C([H])(C(=O)N([H])C2([H])c4c([H])c([H])c([H])c([H])c4C([H])([H])C([H])([H])C2([H])[H])C3([H])[H])c(C([H])([H])[H])c1[H])C([H])([H])[H])C([H])([H])N([H])C(=O)N1C([H])([H])C([H])([H])C([H])([H])C([H])(n2nc(-c3c([H])c([H])c(Oc4c([H])c([H])c(F)c([H])c4F)c([H])c3[H])c(C(=O)N([H])[H])c2N([H])[H])C1([H])[H]

>  <smiles>  (88) 
[H]C(=C(c1c([H])c([H])c(C([H])([H])Oc2c([H])c([H])c3c(c2[H])C([H])([H])N(C(=O)C([H])(N([H])C(=O)C([H])(N([H])C([H])([H])[H])C([H])([H])[H])C(C([H])([H])[H])(C([H])([H])[H])C([H])([H])[H])C([H])(C(=O)N([H])C2([H])c4c([H])c([H])c([H])c([H])c4C([H])([H])C([H])([H])C2([H])[H])C3([H])[H])c(C([H])([H])[H])c1[H])C([H])([H])[H])C([H])([H])N([H])C(=O)N1C([H])([H])C([H])([H])C([H])([H])C([H])(n2nc(-c3c([H])c([H])c(Oc4c([H])c([H])c(F)c([H])c4F)c([H])c3[H])c(C(=O)N([H])[H])c2N([H])[H])C1([H])[H]

$$$$
88:0:0
     RDKit          3D

 92100  0  0  1  0  0  0  0  0999 V2000
  -28.4390  -22.9200   20.9620 C   0  0  0  0  0  2  0  0  0  0  0  0
  -28.7700  -19.5660   19.4430 C   0  0  0  0  0  3  0  0  0  0  0  0
  -29.6750  -19.4450   20.4160 C   0  0  0  0  0  0  0  0  0  0  0  0
  -28.2250  -20.9070   19.4560 C   0  0  0  0  0  0  0  0  0  0  0  0
  -29.8260  -20.7620   21.1410 C   0  0  0  0  0  2  0  0  0  0  0  0
  -28.8760  -21.6150   20.4110 N   0  0  0  0  0  0  0  0  0  0  0  0
  -27.2870  -21.3160   18.7670 O   0  0  0  0  0  0  0  0  0  0  0  0
  -30.4480  -18.1870   20.8370 C   0  0  0  0  0  2  0  0  0  0  0  0
  -29.9920  -16.8670   20.1360 C   0  0  0  0  0  2  0  0  0  0  0  0
  -30.9820  -14.5870   20.0580 C   0  0  0  0  0  0  0  0  0  0  0  0
  -30.5900  -12.4440   18.8830 C   0  0  0  0  0  2  0  0  0  0  0  0
  -29.5780  -12.6370   17.7340 C   0  0  0  0  0  2  0  0  0  0  0  0
  -28.1320  -12.5020   18.2470 C   0  0  0  0  0  2  0  0  0  0  0  0
  -27.8700  -13.3440   19.5230 C   0  0  0  0  0  3  0  0  0  0  0  0
  -28.9820  -13.1130   20.5700 C   0  0  0  0  0  2  0  0  0  0  0  0
  -30.2790  -13.4210   19.9400 N   0  0  0  0  0  0  0  0  0  0  0  0
  -32.0150  -14.8030   19.4150 O   0  0  0  0  0  0  0  0  0  0  0  0
  -30.5290  -15.5870   22.2290 C   0  0  0  0  0  1  0  0  0  0  0  0
  -30.3930  -15.5820   20.7700 N   0  0  0  0  0  0  0  0  0  0  0  0
  -25.5260  -13.9660   20.3850 C   0  0  0  0  0  0  0  0  0  0  0  0
  -24.4720  -13.2010   20.8040 C   0  0  0  0  0  0  0  0  0  0  0  0
  -24.9110  -11.8440   20.7200 C   0  0  0  0  0  0  0  0  0  0  0  0
  -26.5430  -13.0770   20.0750 N   0  0  0  0  0  0  0  0  0  0  0  0
  -26.1780  -11.7940   20.3310 N   0  0  0  0  0  0  0  0  0  0  0  0
  -24.1800  -10.5880   20.9290 C   0  0  0  0  0  0  0  0  0  0  0  0
  -24.6110   -9.6320   21.8750 C   0  0  0  0  0  3  0  0  0  0  0  0
  -23.8820   -8.4400   22.0720 C   0  0  0  0  0  3  0  0  0  0  0  0
  -22.7080   -8.1940   21.3220 C   0  0  0  0  0  0  0  0  0  0  0  0
  -22.2960   -9.1380   20.3650 C   0  0  0  0  0  3  0  0  0  0  0  0
  -23.0250  -10.3210   20.1670 C   0  0  0  0  0  3  0  0  0  0  0  0
  -21.9500   -7.0530   21.4280 O   0  0  0  0  0  0  0  0  0  0  0  0
  -21.8380   -6.3700   22.6130 C   0  0  0  0  0  0  0  0  0  0  0  0
  -21.3500   -6.9890   23.7850 C   0  0  0  0  0  3  0  0  0  0  0  0
  -21.1860   -6.2320   24.9630 C   0  0  0  0  0  3  0  0  0  0  0  0
  -21.4980   -4.8600   24.9680 C   0  0  0  0  0  0  0  0  0  0  0  0
  -21.9790   -4.2420   23.8000 C   0  0  0  0  0  3  0  0  0  0  0  0
  -22.1440   -4.9950   22.6250 C   0  0  0  0  0  0  0  0  0  0  0  0
  -22.5870   -4.3900   21.4970 F   0  0  0  0  0  0  0  0  0  0  0  0
  -21.3320   -4.1310   26.0980 F   0  0  0  0  0  0  0  0  0  0  0  0
  -23.1010  -13.6900   21.1730 C   0  0  0  0  0  0  0  0  0  0  0  0
  -22.4220  -12.9920   22.0750 N   0  0  0  0  0  0  0  0  0  0  0  0
  -22.6430  -14.7260   20.6930 O   0  0  0  0  0  0  0  0  0  0  0  0
  -22.8080  -12.1520   22.4840 H   0  0  0  0  0  0  0  0  0  0  0  0
  -21.5030  -13.2980   22.3620 H   0  0  0  0  0  0  0  0  0  0  0  0
  -25.6990  -15.3380   20.2250 N   0  0  0  0  0  0  0  0  0  0  0  0
  -24.9540  -16.0020   20.4010 H   0  0  0  0  0  0  0  0  0  0  0  0
  -26.5420  -15.7720   19.8720 H   0  0  0  0  0  0  0  0  0  0  0  0
  -28.7480  -24.2580   18.7870 C   0  0  0  0  0  1  0  0  0  0  0  0
  -30.5060  -24.3550   20.5700 C   0  0  0  0  0  1  0  0  0  0  0  0
  -28.9920  -24.2410   20.3080 C   0  0  2  0  0  0  0  0  0  0  0  0
  -28.2550  -25.4620   20.9540 C   0  0  0  0  0  2  0  0  0  0  0  0
  -28.4060  -26.7290   20.2740 O   0  0  0  0  0  0  0  0  0  0  0  0
  -24.5940  -31.9470   23.2740 C   0  0  0  0  0  0  0  0  0  0  0  0
  -27.2560  -27.4920   20.2360 C   0  0  0  0  0  0  0  0  0  0  0  0
  -23.3920  -30.5320   21.6400 C   0  0  0  0  0  3  0  0  0  0  0  0
  -24.8550  -28.9920   20.2220 C   0  0  0  0  0  0  0  0  0  0  0  0
  -25.9160  -30.8990   21.4400 C   0  0  0  0  0  2  0  0  0  0  0  0
  -26.0110  -29.5250   20.8080 C   0  0  0  0  0  0  0  0  0  0  0  0
  -27.2160  -28.7830   20.8120 C   0  0  0  0  0  3  0  0  0  0  0  0
  -26.0880  -26.9790   19.6320 C   0  0  0  0  0  3  0  0  0  0  0  0
  -24.8880  -27.7160   19.6310 C   0  0  0  0  0  3  0  0  0  0  0  0
  -23.6060  -29.8450   20.2640 C   0  0  0  0  0  2  0  0  0  0  0  0
  -24.6530  -31.1410   22.1770 N   0  0  0  0  0  0  0  0  0  0  0  0
  -23.5120  -32.2200   23.8110 O   0  0  0  0  0  0  0  0  0  0  0  0
  -22.7430  -29.5160   22.6060 C   0  0  0  0  0  0  0  0  0  0  0  0
  -21.4200  -29.3280   22.4760 N   0  0  0  0  0  0  0  0  0  0  0  0
  -23.4260  -28.9020   23.4300 O   0  0  0  0  0  0  0  0  0  0  0  0
  -20.9310  -29.8810   21.7860 H   0  0  0  0  0  0  0  0  0  0  0  0
  -18.0510  -28.1070   22.9580 C   0  0  0  0  0  0  0  0  0  0  0  0
  -20.6030  -28.3930   23.2500 C   0  0  0  0  0  3  0  0  0  0  0  0
  -20.7270  -26.9570   22.6900 C   0  0  0  0  0  2  0  0  0  0  0  0
  -19.6370  -26.6100   21.6700 C   0  0  0  0  0  2  0  0  0  0  0  0
  -18.2480  -26.7500   22.2990 C   0  0  0  0  0  2  0  0  0  0  0  0
  -19.1590  -28.8830   23.3890 C   0  0  0  0  0  0  0  0  0  0  0  0
  -18.9250  -30.1500   23.9660 C   0  0  0  0  0  3  0  0  0  0  0  0
  -17.6150  -30.6430   24.1120 C   0  0  0  0  0  3  0  0  0  0  0  0
  -16.5200  -29.8640   23.6980 C   0  0  0  0  0  3  0  0  0  0  0  0
  -16.7390  -28.5970   23.1300 C   0  0  0  0  0  3  0  0  0  0  0  0
  -25.8790  -32.5840   23.8920 C   0  0  0  0  0  3  0  0  0  0  0  0
  -25.5720  -33.9860   24.2050 N   0  0  0  0  0  0  0  0  0  0  0  0
  -25.9170  -35.0290   23.4370 C   0  0  0  0  0  0  0  0  0  0  0  0
  -26.5980  -34.9150   22.4160 O   0  0  0  0  0  0  0  0  0  0  0  0
  -24.9690  -34.1500   24.9970 H   0  0  0  0  0  0  0  0  0  0  0  0
  -24.2010  -36.8270   23.0430 C   0  0  0  0  0  1  0  0  0  0  0  0
  -25.4260  -36.4200   23.8760 C   0  0  0  0  0  3  0  0  0  0  0  0
  -27.5500  -37.3020   24.7390 C   0  0  0  0  0  1  0  0  0  0  0  0
  -26.4640  -37.4680   23.7770 N   0  0  0  0  0  0  0  0  0  0  0  0
  -26.0580  -38.3890   23.9130 H   0  0  0  0  0  0  0  0  0  0  0  0
  -26.3930  -31.8270   25.1780 C   0  0  1  0  0  0  0  0  0  0  0  0
  -25.2960  -31.6020   26.2450 C   0  0  0  0  0  1  0  0  0  0  0  0
  -26.9820  -30.4480   24.7990 C   0  0  0  0  0  1  0  0  0  0  0  0
  -27.5360  -32.6330   25.8370 C   0  0  0  0  0  1  0  0  0  0  0  0
  2  4  1  0
  2  3  2  0
  3  8  1  0
  3  5  1  0
  4  6  1  0
  6  1  1  0
  6  5  1  0
  7  4  2  0
  9 19  1  0
  9  8  1  0
 10 19  1  0
 11 16  1  0
 12 13  1  0
 12 11  1  0
 14 13  1  0
 14 23  1  0
 14 15  1  0
 16 10  1  0
 16 15  1  0
 17 10  2  0
 19 18  1  0
 20 21  2  0
 21 40  1  0
 22 21  1  0
 22 25  1  0
 23 24  1  0
 23 20  1  0
 24 22  2  0
 25 26  1  0
 26 27  2  0
 28 31  1  0
 28 27  1  0
 29 28  2  0
 30 29  1  0
 30 25  2  0
 31 32  1  0
 32 37  2  0
 32 33  1  0
 33 34  2  0
 34 35  1  0
 35 39  1  0
 36 35  2  0
 37 36  1  0
 38 37  1  0
 40 41  1  0
 41 44  1  0
 41 43  1  0
 42 40  2  0
 45 20  1  0
 45 46  1  0
 47 45  1  0
 50 48  1  6
 50 49  1  0
 50 51  1  0
 50  1  1  0
 52 51  1  0
 53 64  2  0
 54 52  1  0
 54 59  1  0
 55 63  1  0
 55 65  1  0
 56 62  1  0
 56 58  1  0
 57 63  1  0
 58 59  2  0
 58 57  1  0
 60 54  2  0
 61 60  1  0
 61 56  2  0
 62 55  1  0
 63 53  1  0
 65 67  2  0
 66 65  1  0
 68 66  1  0
 69 78  2  0
 69 74  1  0
 70 66  1  0
 70 74  1  0
 71 70  1  0
 72 73  1  0
 72 71  1  0
 73 69  1  0
 74 75  2  0
 75 76  1  0
 77 76  2  0
 78 77  1  0
 79 53  1  0
 79 80  1  0
 79 89  1  0
 80 83  1  0
 81 85  1  0
 81 80  1  0
 82 81  2  0
 85 84  1  0
 87 85  1  0
 87 88  1  0
 87 86  1  0
 89 92  1  1
 89 90  1  0
 91 89  1  0
M  ISO  4  10 100  19 100  51 101  52 101
M  END
>  <TORSDO>  (89) 
F 21

>  <SCORE>  (89) 
-13.114

>  <name>  (89) 
88

>  <ligand_id>  (89) 
88

>  <original_smiles>  (89) 
[H]C1=C(C([H])([H])C([H])([H])N(C(=O)N2C([H])([H])C([H])([H])C([H])([H])C([H])(n3nc(-c4c([H])c([H])c(Oc5c([H])c([H])c(F)c([H])c5F)c([H])c4[H])c(C(=O)N([H])[H])c3N([H])[H])C2([H])[H])C([H])([H])[H])C([H])([H])N(C([H])([H])C(C([H])([H])[H])(C([H])([H])[H])C([H])([H])Oc2c([H])c([H])c3c(c2[H])C([H])([H])N(C(=O)C([H])(N([H])C(=O)C([H])(N([H])C([H])([H])[H])C([H])([H])[H])C(C([H])([H])[H])(C([H])([H])[H])C([H])([H])[H])C([H])(C(=O)N([H])C2([H])c4c([H])c([H])c([H])c([H])c4C([H])([H])C([H])([H])C2([H])[H])C3([H])[H])C1=O

>  <smiles>  (89) 
[H]C1=C(C([H])([H])C([H])([H])N(C(=O)N2C([H])([H])C([H])([H])C([H])([H])C([H])(n3nc(-c4c([H])c([H])c(Oc5c([H])c([H])c(F)c([H])c5F)c([H])c4[H])c(C(=O)N([H])[H])c3N([H])[H])C2([H])[H])C([H])([H])[H])C([H])([H])N(C([H])([H])C(C([H])([H])[H])(C([H])([H])[H])C([H])([H])Oc2c([H])c([H])c3c(c2[H])C([H])([H])N(C(=O)C([H])(N([H])C(=O)C([H])(N([H])C([H])([H])[H])C([H])([H])[H])C(C([H])([H])[H])(C([H])([H])[H])C([H])([H])[H])C([H])(C(=O)N([H])C2([H])c4c([H])c([H])c([H])c([H])c4C([H])([H])C([H])([H])C2([H])[H])C3([H])[H])C1=O

$$$$
89:0:0
     RDKit          3D

 93102  0  0  1  0  0  0  0  0999 V2000
  -29.1890  -20.0750   20.0310 C   0  0  0  0  0  3  0  0  0  0  0  0
  -30.8690  -21.3730   21.1990 C   0  0  0  0  0  3  0  0  0  0  0  0
  -28.5370  -21.2670   19.6560 C   0  0  0  0  0  3  0  0  0  0  0  0
  -30.2170  -22.5660   20.8210 C   0  0  0  0  0  3  0  0  0  0  0  0
  -30.3760  -20.1070   20.8010 C   0  0  0  0  0  0  0  0  0  0  0  0
  -29.0470  -22.5270   20.0370 C   0  0  0  0  0  0  0  0  0  0  0  0
  -30.4010  -17.7080   21.4430 C   0  0  0  0  0  3  0  0  0  0  0  0
  -31.0810  -18.8540   21.1910 C   0  0  0  0  0  0  0  0  0  0  0  0
  -32.6010  -18.9610   21.2570 C   0  0  0  0  0  1  0  0  0  0  0  0
  -30.9690  -16.3580   21.8810 C   0  0  0  0  0  2  0  0  0  0  0  0
  -30.7270  -14.4090   20.3270 C   0  0  0  0  0  0  0  0  0  0  0  0
  -30.3130  -12.3580   19.0120 C   0  0  0  0  0  2  0  0  0  0  0  0
  -29.3270  -12.6240   17.8590 C   0  0  0  0  0  2  0  0  0  0  0  0
  -27.8710  -12.4810   18.3400 C   0  0  0  0  0  2  0  0  0  0  0  0
  -27.5930  -13.2710   19.6450 C   0  0  0  0  0  3  0  0  0  0  0  0
  -28.6800  -12.9770   20.7020 C   0  0  0  0  0  2  0  0  0  0  0  0
  -29.9960  -13.2840   20.1090 N   0  0  0  0  0  0  0  0  0  0  0  0
  -31.7540  -14.6790   19.6970 O   0  0  0  0  0  0  0  0  0  0  0  0
  -30.2700  -15.2100   21.3010 N   0  0  0  0  0  0  0  0  0  0  0  0
  -29.4180  -14.9140   21.7540 H   0  0  0  0  0  0  0  0  0  0  0  0
  -25.2160  -13.8820   20.4220 C   0  0  0  0  0  0  0  0  0  0  0  0
  -24.1570  -13.1100   20.8180 C   0  0  0  0  0  0  0  0  0  0  0  0
  -24.6140  -11.7570   20.7670 C   0  0  0  0  0  0  0  0  0  0  0  0
  -26.2530  -13.0000   20.1580 N   0  0  0  0  0  0  0  0  0  0  0  0
  -25.8940  -11.7170   20.4210 N   0  0  0  0  0  0  0  0  0  0  0  0
  -23.8920  -10.4950   20.9720 C   0  0  0  0  0  0  0  0  0  0  0  0
  -24.3390   -9.5310   21.9020 C   0  0  0  0  0  3  0  0  0  0  0  0
  -23.6170   -8.3330   22.0940 C   0  0  0  0  0  3  0  0  0  0  0  0
  -22.4340   -8.0920   21.3550 C   0  0  0  0  0  0  0  0  0  0  0  0
  -22.0070   -9.0440   20.4140 C   0  0  0  0  0  3  0  0  0  0  0  0
  -22.7290  -10.2330   20.2200 C   0  0  0  0  0  3  0  0  0  0  0  0
  -21.6820   -6.9460   21.4570 O   0  0  0  0  0  0  0  0  0  0  0  0
  -21.6370   -6.2150   22.6170 C   0  0  0  0  0  0  0  0  0  0  0  0
  -21.1910   -6.7750   23.8340 C   0  0  0  0  0  3  0  0  0  0  0  0
  -21.0950   -5.9690   24.9860 C   0  0  0  0  0  3  0  0  0  0  0  0
  -21.4350   -4.6050   24.9230 C   0  0  0  0  0  0  0  0  0  0  0  0
  -21.8730   -4.0440   23.7110 C   0  0  0  0  0  3  0  0  0  0  0  0
  -21.9710   -4.8470   22.5600 C   0  0  0  0  0  0  0  0  0  0  0  0
  -22.3750   -4.2970   21.3900 F   0  0  0  0  0  0  0  0  0  0  0  0
  -21.3350   -3.8290   26.0270 F   0  0  0  0  0  0  0  0  0  0  0  0
  -22.7690  -13.5880   21.1340 C   0  0  0  0  0  0  0  0  0  0  0  0
  -22.0630  -12.8820   22.0110 N   0  0  0  0  0  0  0  0  0  0  0  0
  -22.3210  -14.6210   20.6390 O   0  0  0  0  0  0  0  0  0  0  0  0
  -22.4380  -12.0450   22.4320 H   0  0  0  0  0  0  0  0  0  0  0  0
  -21.1330  -13.1830   22.2650 H   0  0  0  0  0  0  0  0  0  0  0  0
  -25.3780  -15.2520   20.2470 N   0  0  0  0  0  0  0  0  0  0  0  0
  -24.6190  -15.9110   20.3850 H   0  0  0  0  0  0  0  0  0  0  0  0
  -26.2260  -15.6900   19.9050 H   0  0  0  0  0  0  0  0  0  0  0  0
  -27.9490  -23.9830   18.1670 C   0  0  0  0  0  2  0  0  0  0  0  0
  -28.3610  -23.7970   19.6080 C   0  0  0  0  0  3  0  0  0  0  0  0
  -29.0650  -24.8280   18.7410 C   0  0  0  0  0  3  0  0  0  0  0  0
  -28.8850  -26.3380   18.8640 C   0  0  0  0  0  2  0  0  0  0  0  0
  -28.4220  -26.7820   20.1420 O   0  0  0  0  0  0  0  0  0  0  0  0
  -24.5890  -31.9040   23.2670 C   0  0  0  0  0  0  0  0  0  0  0  0
  -27.2420  -27.4900   20.1570 C   0  0  0  0  0  0  0  0  0  0  0  0
  -23.3800  -30.4990   21.6280 C   0  0  0  0  0  3  0  0  0  0  0  0
  -24.8330  -28.9650   20.2000 C   0  0  0  0  0  0  0  0  0  0  0  0
  -25.9020  -30.8680   21.4210 C   0  0  0  0  0  2  0  0  0  0  0  0
  -25.9890  -29.4960   20.7860 C   0  0  0  0  0  0  0  0  0  0  0  0
  -27.1930  -28.7570   20.7760 C   0  0  0  0  0  3  0  0  0  0  0  0
  -26.0660  -26.9620   19.5840 C   0  0  0  0  0  3  0  0  0  0  0  0
  -24.8630  -27.6920   19.6030 C   0  0  0  0  0  3  0  0  0  0  0  0
  -23.5860  -29.8190   20.2490 C   0  0  0  0  0  2  0  0  0  0  0  0
  -24.6420  -31.1060   22.1640 N   0  0  0  0  0  0  0  0  0  0  0  0
  -23.5100  -32.1740   23.8120 O   0  0  0  0  0  0  0  0  0  0  0  0
  -22.7370  -29.4760   22.5920 C   0  0  0  0  0  0  0  0  0  0  0  0
  -21.4130  -29.2860   22.4650 N   0  0  0  0  0  0  0  0  0  0  0  0
  -23.4250  -28.8560   23.4060 O   0  0  0  0  0  0  0  0  0  0  0  0
  -20.9190  -29.8400   21.7800 H   0  0  0  0  0  0  0  0  0  0  0  0
  -18.0490  -28.0670   22.9570 C   0  0  0  0  0  0  0  0  0  0  0  0
  -20.6020  -28.3460   23.2370 C   0  0  0  0  0  3  0  0  0  0  0  0
  -20.7180  -26.9130   22.6690 C   0  0  0  0  0  2  0  0  0  0  0  0
  -19.6230  -26.5770   21.6510 C   0  0  0  0  0  2  0  0  0  0  0  0
  -18.2380  -26.7150   22.2900 C   0  0  0  0  0  2  0  0  0  0  0  0
  -19.1590  -28.8400   23.3870 C   0  0  0  0  0  0  0  0  0  0  0  0
  -18.9300  -30.1050   23.9700 C   0  0  0  0  0  3  0  0  0  0  0  0
  -17.6200  -30.5980   24.1260 C   0  0  0  0  0  3  0  0  0  0  0  0
  -16.5240  -29.8230   23.7110 C   0  0  0  0  0  3  0  0  0  0  0  0
  -16.7390  -28.5590   23.1330 C   0  0  0  0  0  3  0  0  0  0  0  0
  -25.8770  -32.5380   23.8810 C   0  0  0  0  0  3  0  0  0  0  0  0
  -26.4030  -31.7680   25.1550 C   0  0  1  0  0  0  0  0  0  0  0  0
  -25.3160  -31.5260   26.2270 C   0  0  0  0  0  1  0  0  0  0  0  0
  -26.9890  -30.3940   24.7580 C   0  0  0  0  0  1  0  0  0  0  0  0
  -27.5540  -32.5660   25.8120 C   0  0  0  0  0  1  0  0  0  0  0  0
  -25.5700  -33.9370   24.2060 N   0  0  0  0  0  0  0  0  0  0  0  0
  -25.9040  -34.9850   23.4420 C   0  0  0  0  0  0  0  0  0  0  0  0
  -26.5750  -34.8780   22.4130 O   0  0  0  0  0  0  0  0  0  0  0  0
  -24.9740  -34.0940   25.0060 H   0  0  0  0  0  0  0  0  0  0  0  0
  -24.1820  -36.7790   23.0710 C   0  0  0  0  0  1  0  0  0  0  0  0
  -25.4160  -36.3750   23.8930 C   0  0  0  0  0  3  0  0  0  0  0  0
  -27.5430  -37.2590   24.7410 C   0  0  0  0  0  1  0  0  0  0  0  0
  -26.4510  -37.4260   23.7860 N   0  0  0  0  0  0  0  0  0  0  0  0
  -26.0450  -38.3470   23.9260 H   0  0  0  0  0  0  0  0  0  0  0  0
  1  5  1  0
  3  1  2  0
  3  6  1  0
  4  2  1  0
  5  8  1  0
  5  2  2  0
  6  4  2  0
  7 10  1  0
  8  9  1  0
  8  7  2  0
 11 19  1  0
 12 17  1  0
 13 14  1  0
 13 12  1  0
 15 14  1  0
 15 24  1  0
 15 16  1  0
 17 11  1  0
 17 16  1  0
 18 11  2  0
 19 20  1  0
 19 10  1  0
 21 22  2  0
 22 41  1  0
 23 22  1  0
 23 26  1  0
 24 25  1  0
 24 21  1  0
 25 23  2  0
 26 27  1  0
 27 28  2  0
 29 32  1  0
 29 28  1  0
 30 29  2  0
 31 30  1  0
 31 26  2  0
 32 33  1  0
 33 34  1  0
 34 35  2  0
 36 35  1  0
 36 40  1  0
 37 36  2  0
 38 33  2  0
 38 37  1  0
 39 38  1  0
 41 42  1  0
 42 45  1  0
 42 44  1  0
 43 41  2  0
 46 47  1  0
 46 21  1  0
 48 46  1  0
 49 51  1  0
 49 50  1  0
 50  6  1  0
 51 52  1  0
 51 50  1  0
 52 53  1  0
 53 55  1  0
 54 65  2  0
 55 60  1  0
 56 64  1  0
 56 66  1  0
 57 63  1  0
 57 59  1  0
 58 64  1  0
 59 58  1  0
 60 59  2  0
 61 62  1  0
 61 55  2  0
 62 57  2  0
 63 56  1  0
 64 54  1  0
 66 68  2  0
 67 66  1  0
 69 67  1  0
 70 79  2  0
 70 75  1  0
 71 67  1  0
 71 75  1  0
 72 71  1  0
 73 74  1  0
 73 72  1  0
 74 70  1  0
 75 76  2  0
 76 77  1  0
 78 77  2  0
 79 78  1  0
 80 54  1  0
 80 85  1  0
 80 81  1  0
 81 84  1  1
 81 82  1  0
 83 81  1  0
 85 88  1  0
 86 90  1  0
 86 85  1  0
 87 86  2  0
 90 89  1  0
 92 90  1  0
 92 93  1  0
 92 91  1  0
M  ISO  4  11 100  19 100  52 101  53 101
M  END
>  <TORSDO>  (90) 
F 20

>  <SCORE>  (90) 
-14.162

>  <name>  (90) 
89

>  <ligand_id>  (90) 
89

>  <original_smiles>  (90) 
[H]C(=C(c1c([H])c([H])c(C2([H])C([H])([H])C2([H])C([H])([H])Oc2c([H])c([H])c3c(c2[H])C([H])([H])N(C(=O)C([H])(N([H])C(=O)C([H])(N([H])C([H])([H])[H])C([H])([H])[H])C(C([H])([H])[H])(C([H])([H])[H])C([H])([H])[H])C([H])(C(=O)N([H])C2([H])c4c([H])c([H])c([H])c([H])c4C([H])([H])C([H])([H])C2([H])[H])C3([H])[H])c([H])c1[H])C([H])([H])[H])C([H])([H])N([H])C(=O)N1C([H])([H])C([H])([H])C([H])([H])C([H])(n2nc(-c3c([H])c([H])c(Oc4c([H])c([H])c(F)c([H])c4F)c([H])c3[H])c(C(=O)N([H])[H])c2N([H])[H])C1([H])[H]

>  <smiles>  (90) 
[H]C(=C(c1c([H])c([H])c(C2([H])C([H])([H])C2([H])C([H])([H])Oc2c([H])c([H])c3c(c2[H])C([H])([H])N(C(=O)C([H])(N([H])C(=O)C([H])(N([H])C([H])([H])[H])C([H])([H])[H])C(C([H])([H])[H])(C([H])([H])[H])C([H])([H])[H])C([H])(C(=O)N([H])C2([H])c4c([H])c([H])c([H])c([H])c4C([H])([H])C([H])([H])C2([H])[H])C3([H])[H])c([H])c1[H])C([H])([H])[H])C([H])([H])N([H])C(=O)N1C([H])([H])C([H])([H])C([H])([H])C([H])(n2nc(-c3c([H])c([H])c(Oc4c([H])c([H])c(F)c([H])c4F)c([H])c3[H])c(C(=O)N([H])[H])c2N([H])[H])C1([H])[H]

$$$$
90:0:0
     RDKit          3D

 93102  0  0  1  0  0  0  0  0999 V2000
  -30.5470  -15.4500   20.2420 C   0  0  0  0  0  0  0  0  0  0  0  0
  -30.4730  -12.9990   19.3400 C   0  0  0  0  0  2  0  0  0  0  0  0
  -29.5550  -12.7840   18.1110 C   0  0  0  0  0  2  0  0  0  0  0  0
  -28.1000  -12.5350   18.5410 C   0  0  0  0  0  2  0  0  0  0  0  0
  -27.6610  -13.4950   19.6720 C   0  0  0  0  0  3  0  0  0  0  0  0
  -28.7120  -13.6360   20.7980 C   0  0  0  0  0  2  0  0  0  0  0  0
  -29.9370  -14.1560   20.1660 N   0  0  0  0  0  0  0  0  0  0  0  0
  -31.7550  -15.3880   19.9610 O   0  0  0  0  0  0  0  0  0  0  0  0
  -29.1340  -18.2130   18.4660 C   0  0  0  0  0  0  0  0  0  0  0  0
  -28.7820  -17.2880   21.1730 C   0  0  0  0  0  2  0  0  0  0  0  0
  -27.7890  -18.3660   19.1330 C   0  0  0  0  0  3  0  0  0  0  0  0
  -30.0880  -18.2670   19.6520 C   0  0  0  0  0  3  0  0  0  0  0  0
  -28.2760  -18.7210   20.5770 C   0  0  0  0  0  3  0  0  0  0  0  0
  -29.8610  -16.7930   20.2790 N   0  0  0  0  0  0  0  0  0  0  0  0
  -29.4720  -19.6180   20.4000 N   0  0  0  0  0  0  0  0  0  0  0  0
  -29.3830  -18.0600   17.2680 O   0  0  0  0  0  0  0  0  0  0  0  0
  -25.2880  -14.0770   20.3910 C   0  0  0  0  0  0  0  0  0  0  0  0
  -24.2180  -13.3160   20.7650 C   0  0  0  0  0  0  0  0  0  0  0  0
  -24.6760  -11.9640   20.7600 C   0  0  0  0  0  0  0  0  0  0  0  0
  -26.3280  -13.1930   20.1750 N   0  0  0  0  0  0  0  0  0  0  0  0
  -25.9710  -11.9150   20.4650 N   0  0  0  0  0  0  0  0  0  0  0  0
  -23.9360  -10.7100   20.9590 C   0  0  0  0  0  0  0  0  0  0  0  0
  -24.3410   -9.7550   21.9180 C   0  0  0  0  0  3  0  0  0  0  0  0
  -23.5980   -8.5670   22.1050 C   0  0  0  0  0  3  0  0  0  0  0  0
  -22.4350   -8.3290   21.3350 C   0  0  0  0  0  0  0  0  0  0  0  0
  -22.0490   -9.2720   20.3660 C   0  0  0  0  0  3  0  0  0  0  0  0
  -22.7910  -10.4490   20.1770 C   0  0  0  0  0  3  0  0  0  0  0  0
  -21.6640   -7.1960   21.4340 O   0  0  0  0  0  0  0  0  0  0  0  0
  -21.5860   -6.4770   22.5990 C   0  0  0  0  0  0  0  0  0  0  0  0
  -21.1370   -7.0590   23.8050 C   0  0  0  0  0  3  0  0  0  0  0  0
  -21.0040   -6.2660   24.9620 C   0  0  0  0  0  3  0  0  0  0  0  0
  -21.3120   -4.8940   24.9150 C   0  0  0  0  0  0  0  0  0  0  0  0
  -21.7570   -4.3120   23.7150 C   0  0  0  0  0  3  0  0  0  0  0  0
  -21.8900   -5.1010   22.5590 C   0  0  0  0  0  0  0  0  0  0  0  0
  -22.2980   -4.5310   21.3990 F   0  0  0  0  0  0  0  0  0  0  0  0
  -21.1780   -4.1300   26.0240 F   0  0  0  0  0  0  0  0  0  0  0  0
  -22.8210  -13.8120   20.9970 C   0  0  0  0  0  0  0  0  0  0  0  0
  -22.0790  -13.1550   21.8790 N   0  0  0  0  0  0  0  0  0  0  0  0
  -22.3990  -14.8170   20.4300 O   0  0  0  0  0  0  0  0  0  0  0  0
  -22.4360  -12.3420   22.3590 H   0  0  0  0  0  0  0  0  0  0  0  0
  -21.1400  -13.4690   22.0790 H   0  0  0  0  0  0  0  0  0  0  0  0
  -25.4560  -15.4410   20.1710 N   0  0  0  0  0  0  0  0  0  0  0  0
  -24.6230  -16.0200   20.1430 H   0  0  0  0  0  0  0  0  0  0  0  0
  -26.1700  -15.7410   19.5280 H   0  0  0  0  0  0  0  0  0  0  0  0
  -26.9670  -19.3550   18.4210 N   0  0  0  0  0  4  0  0  0  0  0  0
  -26.8170  -19.0320   17.4820 H   0  0  0  0  0  0  0  0  0  0  0  0
  -27.4340  -20.2400   18.3730 H   0  0  0  0  0  0  0  0  0  0  0  0
  -26.0770  -19.4670   18.8720 H   0  0  0  0  0  0  0  0  0  0  0  0
  -29.2760  -21.1990   19.8480 C   0  0  0  0  0  2  0  0  0  0  0  0
  -28.8800  -22.7850   20.5600 C   0  0  0  0  0  0  0  0  0  0  0  0
  -28.9570  -22.8080   21.7910 O   0  0  0  0  0  0  0  0  0  0  0  0
  -28.3840  -24.3270   19.8240 C   0  0  0  0  0  2  0  0  0  0  0  0
  -28.3850  -25.8960   20.4030 O   0  0  0  0  0  0  0  0  0  0  0  0
  -24.6520  -31.8880   23.1710 C   0  0  0  0  0  0  0  0  0  0  0  0
  -27.3890  -27.0120   20.2460 C   0  0  0  0  0  0  0  0  0  0  0  0
  -23.5460  -30.4870   21.4770 C   0  0  0  0  0  3  0  0  0  0  0  0
  -25.0710  -28.8920   20.1090 C   0  0  0  0  0  0  0  0  0  0  0  0
  -26.1170  -30.7070   21.4510 C   0  0  0  0  0  2  0  0  0  0  0  0
  -26.2260  -29.2990   20.7910 C   0  0  0  0  0  0  0  0  0  0  0  0
  -27.3700  -28.3750   20.8430 C   0  0  0  0  0  3  0  0  0  0  0  0
  -26.2100  -26.7760   19.5000 C   0  0  0  0  0  3  0  0  0  0  0  0
  -25.0940  -27.6530   19.4440 C   0  0  0  0  0  3  0  0  0  0  0  0
  -23.8420  -29.8030   20.1110 C   0  0  0  0  0  2  0  0  0  0  0  0
  -24.7900  -31.0560   22.0860 N   0  0  0  0  0  0  0  0  0  0  0  0
  -23.5360  -32.1680   23.6400 O   0  0  0  0  0  0  0  0  0  0  0  0
  -22.8160  -29.4880   22.4130 C   0  0  0  0  0  0  0  0  0  0  0  0
  -21.4820  -29.3560   22.2650 N   0  0  0  0  0  0  0  0  0  0  0  0
  -23.4550  -28.8300   23.2370 O   0  0  0  0  0  0  0  0  0  0  0  0
  -21.0200  -29.9490   21.5930 H   0  0  0  0  0  0  0  0  0  0  0  0
  -18.0710  -28.1930   22.7150 C   0  0  0  0  0  0  0  0  0  0  0  0
  -20.6350  -28.3970   22.9830 C   0  0  0  0  0  3  0  0  0  0  0  0
  -20.7190  -26.9950   22.3350 C   0  0  0  0  0  2  0  0  0  0  0  0
  -19.5930  -26.7100   21.3350 C   0  0  0  0  0  2  0  0  0  0  0  0
  -18.2180  -26.8630   21.9930 C   0  0  0  0  0  2  0  0  0  0  0  0
  -19.2050  -28.9180   23.1680 C   0  0  0  0  0  0  0  0  0  0  0  0
  -19.0100  -30.1580   23.8120 C   0  0  0  0  0  3  0  0  0  0  0  0
  -17.7150  -30.6770   23.9980 C   0  0  0  0  0  3  0  0  0  0  0  0
  -16.5950  -29.9500   23.5560 C   0  0  0  0  0  3  0  0  0  0  0  0
  -16.7740  -28.7090   22.9210 C   0  0  0  0  0  3  0  0  0  0  0  0
  -25.8840  -32.5450   23.8640 C   0  0  0  0  0  3  0  0  0  0  0  0
  -26.3160  -31.8010   25.1870 C   0  0  1  0  0  0  0  0  0  0  0  0
  -25.1580  -31.5860   26.1920 C   0  0  0  0  0  1  0  0  0  0  0  0
  -26.9200  -30.4130   24.8710 C   0  0  0  0  0  1  0  0  0  0  0  0
  -27.4250  -32.6090   25.9010 C   0  0  0  0  0  1  0  0  0  0  0  0
  -25.5450  -33.9470   24.1630 N   0  0  0  0  0  0  0  0  0  0  0  0
  -25.9130  -35.0020   23.4230 C   0  0  0  0  0  0  0  0  0  0  0  0
  -26.6330  -34.8950   22.4270 O   0  0  0  0  0  0  0  0  0  0  0  0
  -24.9080  -34.1040   24.9300 H   0  0  0  0  0  0  0  0  0  0  0  0
  -24.2030  -36.8000   22.9830 C   0  0  0  0  0  1  0  0  0  0  0  0
  -25.4040  -36.3950   23.8530 C   0  0  0  0  0  3  0  0  0  0  0  0
  -27.4940  -37.2910   24.7840 C   0  0  0  0  0  1  0  0  0  0  0  0
  -26.4420  -37.4490   23.7840 N   0  0  0  0  0  0  0  0  0  0  0  0
  -26.0300  -38.3720   23.8990 H   0  0  0  0  0  0  0  0  0  0  0  0
  1 14  1  0
  2  7  1  0
  3  4  1  0
  3  2  1  0
  5  4  1  0
  5 20  1  0
  5  6  1  0
  7  1  1  0
  7  6  1  0
  8  1  2  0
  9 11  1  0
 11 45  1  0
 11 13  1  0
 12  9  1  0
 12 14  1  0
 12 15  1  0
 13 10  1  0
 14 10  1  0
 15 13  1  0
 16  9  2  0
 17 18  2  0
 18 37  1  0
 19 18  1  0
 19 22  1  0
 20 17  1  0
 20 21  1  0
 21 19  2  0
 22 23  1  0
 23 24  2  0
 25 28  1  0
 25 24  1  0
 26 25  2  0
 27 26  1  0
 27 22  2  0
 28 29  1  0
 29 30  1  0
 30 31  2  0
 32 31  1  0
 32 36  1  0
 33 32  2  0
 34 29  2  0
 34 33  1  0
 35 34  1  0
 37 38  1  0
 38 41  1  0
 38 40  1  0
 39 37  2  0
 42 17  1  0
 43 42  1  0
 44 42  1  0
 45 48  1  0
 46 45  1  0
 47 45  1  0
 49 15  1  0
 49 50  1  0
 50 51  2  0
 52 53  1  0
 52 50  1  0
 54 65  2  0
 55 53  1  0
 55 60  1  0
 56 64  1  0
 56 66  1  0
 57 63  1  0
 57 59  1  0
 58 64  1  0
 59 60  2  0
 59 58  1  0
 61 55  2  0
 62 61  1  0
 62 57  2  0
 63 56  1  0
 64 54  1  0
 66 68  2  0
 67 66  1  0
 69 67  1  0
 70 79  2  0
 70 75  1  0
 71 67  1  0
 71 75  1  0
 72 71  1  0
 73 74  1  0
 73 72  1  0
 74 70  1  0
 75 76  2  0
 76 77  1  0
 78 77  2  0
 79 78  1  0
 80 54  1  0
 80 85  1  0
 80 81  1  0
 81 84  1  1
 81 82  1  0
 83 81  1  0
 85 88  1  0
 86 90  1  0
 86 85  1  0
 87 86  2  0
 90 89  1  0
 92 90  1  0
 92 93  1  0
 92 91  1  0
M  ISO  4   1 100  14 100  52 101  53 101
M  END
>  <TORSDO>  (91) 
F 19

>  <SCORE>  (91) 
-16.004

>  <name>  (91) 
90

>  <ligand_id>  (91) 
90

>  <original_smiles>  (91) 
[H]c1c([H])c([H])c2c(c1[H])C([H])([H])C([H])([H])C([H])([H])C2([H])N([H])C(=O)C1([H])N(C(=O)C([H])(N([H])C(=O)C([H])(N([H])C([H])([H])[H])C([H])([H])[H])C(C([H])([H])[H])(C([H])([H])[H])C([H])([H])[H])C([H])([H])c2c([H])c(OC([H])([H])C(=O)C([H])([H])N3C4([H])C(=O)C([H])([N+]([H])([H])[H])C3([H])C([H])([H])N4C(=O)N3C([H])([H])C([H])([H])C([H])([H])C([H])(n4nc(-c5c([H])c([H])c(Oc6c([H])c([H])c(F)c([H])c6F)c([H])c5[H])c(C(=O)N([H])[H])c4N([H])[H])C3([H])[H])c([H])c([H])c2C1([H])[H]

>  <smiles>  (91) 
[H]c1c([H])c([H])c2c(c1[H])C([H])([H])C([H])([H])C([H])([H])C2([H])N([H])C(=O)C1([H])N(C(=O)C([H])(N([H])C(=O)C([H])(N([H])C([H])([H])[H])C([H])([H])[H])C(C([H])([H])[H])(C([H])([H])[H])C([H])([H])[H])C([H])([H])c2c([H])c(OC([H])([H])C(=O)C([H])([H])N3C4([H])C(=O)C([H])([N+]([H])([H])[H])C3([H])C([H])([H])N4C(=O)N3C([H])([H])C([H])([H])C([H])([H])C([H])(n4nc(-c5c([H])c([H])c(Oc6c([H])c([H])c(F)c([H])c6F)c([H])c5[H])c(C(=O)N([H])[H])c4N([H])[H])C3([H])[H])c([H])c([H])c2C1([H])[H]

$$$$
91:0:0
     RDKit          3D

 96104  0  0  1  0  0  0  0  0999 V2000
  -27.4740  -21.2760   20.3810 C   0  0  0  0  0  3  0  0  0  0  0  0
  -26.3180  -21.6400   21.2250 N   0  0  0  0  0  4  0  0  0  0  0  0
  -25.5890  -20.9560   21.1570 H   0  0  0  0  0  0  0  0  0  0  0  0
  -25.9460  -22.5330   20.9510 H   0  0  0  0  0  0  0  0  0  0  0  0
  -26.6130  -21.7180   22.1830 H   0  0  0  0  0  0  0  0  0  0  0  0
  -28.5410  -22.3790   20.5400 C   0  0  0  0  0  0  0  0  0  0  0  0
  -28.2030  -23.6080   20.1160 N   0  0  0  0  0  0  0  0  0  0  0  0
  -29.5980  -22.1560   21.1330 O   0  0  0  0  0  0  0  0  0  0  0  0
  -27.3600  -23.7050   19.5660 H   0  0  0  0  0  0  0  0  0  0  0  0
  -28.8570  -24.8600   20.5110 C   0  0  0  0  0  2  0  0  0  0  0  0
  -29.0950  -25.8230   19.3280 C   0  0  0  0  0  2  0  0  0  0  0  0
  -28.9380  -27.1830   19.7520 O   0  0  0  0  0  0  0  0  0  0  0  0
  -24.6420  -31.7040   23.2000 C   0  0  0  0  0  0  0  0  0  0  0  0
  -27.6740  -27.7430   19.8210 C   0  0  0  0  0  0  0  0  0  0  0  0
  -23.5650  -30.3160   21.4630 C   0  0  0  0  0  3  0  0  0  0  0  0
  -25.1450  -29.0180   19.9480 C   0  0  0  0  0  0  0  0  0  0  0  0
  -26.0510  -30.9150   21.3000 C   0  0  0  0  0  2  0  0  0  0  0  0
  -26.2550  -29.6030   20.5690 C   0  0  0  0  0  0  0  0  0  0  0  0
  -27.5180  -28.9710   20.5050 C   0  0  0  0  0  3  0  0  0  0  0  0
  -26.5320  -27.1650   19.2140 C   0  0  0  0  0  3  0  0  0  0  0  0
  -25.2770  -27.7940   19.2740 C   0  0  0  0  0  3  0  0  0  0  0  0
  -23.8330  -29.7620   20.0410 C   0  0  0  0  0  2  0  0  0  0  0  0
  -24.7710  -30.9900   22.0460 N   0  0  0  0  0  0  0  0  0  0  0  0
  -23.5420  -31.8360   23.7510 O   0  0  0  0  0  0  0  0  0  0  0  0
  -23.0120  -29.1700   22.3410 C   0  0  0  0  0  0  0  0  0  0  0  0
  -21.7220  -28.8420   22.1620 N   0  0  0  0  0  0  0  0  0  0  0  0
  -23.7440  -28.5790   23.1420 O   0  0  0  0  0  0  0  0  0  0  0  0
  -21.1770  -29.3820   21.5060 H   0  0  0  0  0  0  0  0  0  0  0  0
  -18.5200  -27.1930   22.4610 C   0  0  0  0  0  0  0  0  0  0  0  0
  -21.0080  -27.7680   22.8530 C   0  0  0  0  0  3  0  0  0  0  0  0
  -21.3230  -26.3900   22.2240 C   0  0  0  0  0  2  0  0  0  0  0  0
  -20.3060  -25.9600   21.1640 C   0  0  0  0  0  2  0  0  0  0  0  0
  -18.9000  -25.8980   21.7640 C   0  0  0  0  0  2  0  0  0  0  0  0
  -19.5100  -28.0740   22.9670 C   0  0  0  0  0  0  0  0  0  0  0  0
  -19.1060  -29.2740   23.5910 C   0  0  0  0  0  3  0  0  0  0  0  0
  -17.7420  -29.5960   23.7160 C   0  0  0  0  0  3  0  0  0  0  0  0
  -16.7650  -28.7140   23.2240 C   0  0  0  0  0  3  0  0  0  0  0  0
  -17.1540  -27.5140   22.6020 C   0  0  0  0  0  3  0  0  0  0  0  0
  -25.8670  -32.4020   23.8670 C   0  0  0  0  0  3  0  0  0  0  0  0
  -26.3940  -31.6390   25.1440 C   0  0  1  0  0  0  0  0  0  0  0  0
  -25.2890  -31.3050   26.1730 C   0  0  0  0  0  1  0  0  0  0  0  0
  -27.0780  -30.3120   24.7370 C   0  0  0  0  0  1  0  0  0  0  0  0
  -27.4710  -32.4910   25.8540 C   0  0  0  0  0  1  0  0  0  0  0  0
  -25.4600  -33.7710   24.2100 N   0  0  0  0  0  0  0  0  0  0  0  0
  -25.7340  -34.8530   23.4680 C   0  0  0  0  0  0  0  0  0  0  0  0
  -26.4310  -34.8070   22.4510 O   0  0  0  0  0  0  0  0  0  0  0  0
  -24.8420  -33.8730   25.0040 H   0  0  0  0  0  0  0  0  0  0  0  0
  -23.8920  -36.5220   23.0840 C   0  0  0  0  0  1  0  0  0  0  0  0
  -25.1390  -36.1980   23.9240 C   0  0  0  0  0  3  0  0  0  0  0  0
  -27.1820  -37.2240   24.8170 C   0  0  0  0  0  1  0  0  0  0  0  0
  -26.0970  -37.3220   23.8440 N   0  0  0  0  0  0  0  0  0  0  0  0
  -25.6250  -38.2110   23.9860 H   0  0  0  0  0  0  0  0  0  0  0  0
  -27.9790  -19.8560   20.7690 C   0  0  0  0  0  2  0  0  0  0  0  0
  -28.8470  -19.1530   19.7220 C   0  0  0  0  0  0  0  0  0  0  0  0
  -29.3710  -19.7690   18.7890 O   0  0  0  0  0  0  0  0  0  0  0  0
  -29.0120  -17.6320   19.8670 C   0  0  0  0  0  2  0  0  0  0  0  0
  -31.2450  -14.8040   19.8730 C   0  0  0  0  0  0  0  0  0  0  0  0
  -30.9380  -12.5380   18.9500 C   0  0  0  0  0  2  0  0  0  0  0  0
  -29.9710  -12.5930   17.7510 C   0  0  0  0  0  2  0  0  0  0  0  0
  -28.5050  -12.5000   18.2170 C   0  0  0  0  0  2  0  0  0  0  0  0
  -28.1820  -13.4820   19.3750 C   0  0  0  0  0  3  0  0  0  0  0  0
  -29.2530  -13.3850   20.4840 C   0  0  0  0  0  2  0  0  0  0  0  0
  -30.5700  -13.6250   19.8690 N   0  0  0  0  0  0  0  0  0  0  0  0
  -32.3080  -14.9770   19.2670 O   0  0  0  0  0  0  0  0  0  0  0  0
  -31.4380  -17.6860   20.9500 C   0  0  0  0  0  2  0  0  0  0  0  0
  -31.1560  -16.4110   21.7260 C   0  0  0  0  0  2  0  0  0  0  0  0
  -30.4790  -17.1730   19.8830 C   0  0  0  0  0  3  0  0  0  0  0  0
  -30.6120  -15.8280   20.4900 N   0  0  0  0  0  0  0  0  0  0  0  0
  -25.8340  -14.1790   20.1700 C   0  0  0  0  0  0  0  0  0  0  0  0
  -24.7550  -13.4480   20.5910 C   0  0  0  0  0  0  0  0  0  0  0  0
  -25.1660  -12.0800   20.5480 C   0  0  0  0  0  0  0  0  0  0  0  0
  -26.8360  -13.2600   19.9050 N   0  0  0  0  0  0  0  0  0  0  0  0
  -26.4390  -11.9930   20.1880 N   0  0  0  0  0  0  0  0  0  0  0  0
  -24.4010  -10.8450   20.7750 C   0  0  0  0  0  0  0  0  0  0  0  0
  -24.7510   -9.9400   21.8010 C   0  0  0  0  0  3  0  0  0  0  0  0
  -23.9940   -8.7680   22.0090 C   0  0  0  0  0  3  0  0  0  0  0  0
  -22.8710   -8.4940   21.1920 C   0  0  0  0  0  0  0  0  0  0  0  0
  -22.5410   -9.3860   20.1580 C   0  0  0  0  0  3  0  0  0  0  0  0
  -23.2990  -10.5500   19.9480 C   0  0  0  0  0  3  0  0  0  0  0  0
  -22.0910   -7.3680   21.3080 O   0  0  0  0  0  0  0  0  0  0  0  0
  -21.8530   -6.7790   22.5230 C   0  0  0  0  0  0  0  0  0  0  0  0
  -21.2270   -7.4770   23.5790 C   0  0  0  0  0  3  0  0  0  0  0  0
  -20.9370   -6.8110   24.7870 C   0  0  0  0  0  3  0  0  0  0  0  0
  -21.2630   -5.4510   24.9380 C   0  0  0  0  0  0  0  0  0  0  0  0
  -21.8800   -4.7530   23.8860 C   0  0  0  0  0  3  0  0  0  0  0  0
  -22.1720   -5.4160   22.6800 C   0  0  0  0  0  0  0  0  0  0  0  0
  -22.7480   -4.7350   21.6610 F   0  0  0  0  0  0  0  0  0  0  0  0
  -20.9780   -4.8090   26.0950 F   0  0  0  0  0  0  0  0  0  0  0  0
  -23.3890  -13.9750   20.9200 C   0  0  0  0  0  0  0  0  0  0  0  0
  -22.6840  -13.3160   21.8340 N   0  0  0  0  0  0  0  0  0  0  0  0
  -22.9570  -15.0030   20.4020 O   0  0  0  0  0  0  0  0  0  0  0  0
  -23.0470  -12.4810   22.2700 H   0  0  0  0  0  0  0  0  0  0  0  0
  -21.7700  -13.6530   22.1000 H   0  0  0  0  0  0  0  0  0  0  0  0
  -26.0410  -15.5380   19.9680 N   0  0  0  0  0  0  0  0  0  0  0  0
  -25.2840  -16.2100   20.0430 H   0  0  0  0  0  0  0  0  0  0  0  0
  -26.8570  -15.9030   19.4950 H   0  0  0  0  0  0  0  0  0  0  0  0
  1  6  1  0
  1 53  1  0
  1  2  1  0
  2  5  1  0
  3  2  1  0
  4  2  1  0
  6  8  2  0
  7 10  1  0
  7  6  1  0
  9  7  1  0
 11 12  1  0
 11 10  1  0
 12 14  1  0
 13 24  2  0
 14 19  1  0
 15 23  1  0
 15 25  1  0
 16 22  1  0
 16 18  1  0
 17 23  1  0
 18 17  1  0
 19 18  2  0
 20 21  1  0
 20 14  2  0
 21 16  2  0
 22 15  1  0
 23 13  1  0
 25 27  2  0
 26 25  1  0
 28 26  1  0
 29 38  2  0
 29 34  1  0
 30 26  1  0
 30 34  1  0
 31 30  1  0
 32 33  1  0
 32 31  1  0
 33 29  1  0
 34 35  2  0
 35 36  1  0
 37 36  2  0
 38 37  1  0
 39 13  1  0
 39 44  1  0
 39 40  1  0
 40 43  1  1
 40 41  1  0
 42 40  1  0
 44 47  1  0
 45 49  1  0
 45 44  1  0
 46 45  2  0
 49 48  1  0
 51 49  1  0
 51 52  1  0
 51 50  1  0
 54 56  1  0
 54 53  1  0
 55 54  2  0
 57 68  1  0
 58 63  1  0
 59 60  1  0
 59 58  1  0
 61 60  1  0
 61 72  1  0
 61 62  1  0
 63 57  1  0
 63 62  1  0
 64 57  2  0
 65 66  1  0
 67 56  1  0
 67 68  1  0
 67 65  1  0
 68 66  1  0
 69 70  2  0
 70 89  1  0
 71 70  1  0
 71 74  1  0
 72 69  1  0
 72 73  1  0
 73 71  2  0
 74 75  1  0
 75 76  2  0
 77 80  1  0
 77 76  1  0
 78 77  2  0
 79 78  1  0
 79 74  2  0
 80 81  1  0
 81 86  2  0
 81 82  1  0
 82 83  2  0
 83 84  1  0
 84 88  1  0
 85 84  2  0
 86 85  1  0
 87 86  1  0
 89 90  1  0
 90 93  1  0
 90 92  1  0
 91 89  2  0
 94 95  1  0
 94 69  1  0
 96 94  1  0
M  ISO  4  11 101  12 101  57 100  68 100
M  END
>  <TORSDO>  (92) 
F 23

>  <SCORE>  (92) 
-9.834

>  <name>  (92) 
91

>  <ligand_id>  (92) 
91

>  <original_smiles>  (92) 
[H]c1c([H])c([H])c2c(c1[H])C([H])([H])C([H])([H])C([H])([H])C2([H])N([H])C(=O)C1([H])N(C(=O)C([H])(N([H])C(=O)C([H])(N([H])C([H])([H])[H])C([H])([H])[H])C(C([H])([H])[H])(C([H])([H])[H])C([H])([H])[H])C([H])([H])c2c([H])c(OC([H])([H])C([H])([H])N([H])C(=O)C([H])(C([H])([H])C(=O)C([H])([H])C3([H])N(C(=O)N4C([H])([H])C([H])([H])C([H])([H])C([H])(n5nc(-c6c([H])c([H])c(Oc7c([H])c([H])c(F)c([H])c7F)c([H])c6[H])c(C(=O)N([H])[H])c5N([H])[H])C4([H])[H])C([H])([H])C3([H])[H])[N+]([H])([H])[H])c([H])c([H])c2C1([H])[H]

>  <smiles>  (92) 
[H]c1c([H])c([H])c2c(c1[H])C([H])([H])C([H])([H])C([H])([H])C2([H])N([H])C(=O)C1([H])N(C(=O)C([H])(N([H])C(=O)C([H])(N([H])C([H])([H])[H])C([H])([H])[H])C(C([H])([H])[H])(C([H])([H])[H])C([H])([H])[H])C([H])([H])c2c([H])c(OC([H])([H])C([H])([H])N([H])C(=O)C([H])(C([H])([H])C(=O)C([H])([H])C3([H])N(C(=O)N4C([H])([H])C([H])([H])C([H])([H])C([H])(n5nc(-c6c([H])c([H])c(Oc7c([H])c([H])c(F)c([H])c7F)c([H])c6[H])c(C(=O)N([H])[H])c5N([H])[H])C4([H])[H])C([H])([H])C3([H])[H])[N+]([H])([H])[H])c([H])c([H])c2C1([H])[H]

$$$$
92:0:0
     RDKit          3D

 91 99  0  0  1  0  0  0  0  0999 V2000
  -27.8520  -20.5540   19.0430 C   0  0  0  0  0  1  0  0  0  0  0  0
  -29.0880  -20.9230   19.7800 N   0  0  2  0  0  4  0  0  0  0  0  0
  -29.7300  -21.2200   19.0590 H   0  0  0  0  0  0  0  0  0  0  0  0
  -31.3530  -17.8140   19.6300 C   0  0  0  0  0  2  0  0  0  0  0  0
  -29.1760  -18.2320   20.4580 C   0  0  0  0  0  2  0  0  0  0  0  0
  -31.1740  -19.3730   19.6830 C   0  0  0  0  0  3  0  0  0  0  0  0
  -30.3910  -17.2310   20.6750 C   0  0  0  0  0  3  0  0  0  0  0  0
  -29.8200  -19.6980   20.3960 C   0  0  0  0  0  3  0  0  0  0  0  0
  -32.3680  -20.0600   20.3750 C   0  0  0  0  0  1  0  0  0  0  0  0
  -30.7300  -14.6510   20.0320 C   0  0  0  0  0  0  0  0  0  0  0  0
  -30.3630  -12.4550   18.8700 C   0  0  0  0  0  2  0  0  0  0  0  0
  -29.3490  -12.5920   17.7120 C   0  0  0  0  0  2  0  0  0  0  0  0
  -27.9060  -12.4230   18.2260 C   0  0  0  0  0  2  0  0  0  0  0  0
  -27.6320  -13.2690   19.4920 C   0  0  0  0  0  3  0  0  0  0  0  0
  -28.7470  -13.0910   20.5350 C   0  0  0  0  0  2  0  0  0  0  0  0
  -30.0330  -13.4630   19.9100 N   0  0  0  0  0  0  0  0  0  0  0  0
  -31.7690  -14.8100   19.3790 O   0  0  0  0  0  0  0  0  0  0  0  0
  -30.1740  -15.3910   22.2450 C   0  0  0  0  0  1  0  0  0  0  0  0
  -30.2010  -15.6950   20.7970 N   0  0  0  0  0  0  0  0  0  0  0  0
  -25.3150  -13.8750   20.4210 C   0  0  0  0  0  0  0  0  0  0  0  0
  -24.2690  -13.1050   20.8530 C   0  0  0  0  0  0  0  0  0  0  0  0
  -24.7070  -11.7480   20.7450 C   0  0  0  0  0  0  0  0  0  0  0  0
  -26.3200  -12.9880   20.0690 N   0  0  0  0  0  0  0  0  0  0  0  0
  -25.9670  -11.7020   20.3300 N   0  0  0  0  0  0  0  0  0  0  0  0
  -23.9790  -10.4900   20.9530 C   0  0  0  0  0  0  0  0  0  0  0  0
  -24.4460   -9.5040   21.8520 C   0  0  0  0  0  3  0  0  0  0  0  0
  -23.7160   -8.3110   22.0480 C   0  0  0  0  0  3  0  0  0  0  0  0
  -22.5070   -8.0970   21.3470 C   0  0  0  0  0  0  0  0  0  0  0  0
  -22.0580   -9.0710   20.4370 C   0  0  0  0  0  3  0  0  0  0  0  0
  -22.7880  -10.2540   20.2390 C   0  0  0  0  0  3  0  0  0  0  0  0
  -21.7440   -6.9580   21.4540 O   0  0  0  0  0  0  0  0  0  0  0  0
  -21.7090   -6.2220   22.6110 C   0  0  0  0  0  0  0  0  0  0  0  0
  -21.3210   -6.7910   23.8440 C   0  0  0  0  0  3  0  0  0  0  0  0
  -21.2310   -5.9800   24.9940 C   0  0  0  0  0  3  0  0  0  0  0  0
  -21.5220   -4.6070   24.9140 C   0  0  0  0  0  0  0  0  0  0  0  0
  -21.9040   -4.0390   23.6850 C   0  0  0  0  0  3  0  0  0  0  0  0
  -21.9940   -4.8430   22.5380 C   0  0  0  0  0  0  0  0  0  0  0  0
  -22.3420   -4.2880   21.3510 F   0  0  0  0  0  0  0  0  0  0  0  0
  -21.4290   -3.8280   26.0150 F   0  0  0  0  0  0  0  0  0  0  0  0
  -22.9050  -13.5900   21.2500 C   0  0  0  0  0  0  0  0  0  0  0  0
  -22.2420  -12.8850   22.1590 N   0  0  0  0  0  0  0  0  0  0  0  0
  -22.4380  -14.6290   20.7850 O   0  0  0  0  0  0  0  0  0  0  0  0
  -22.6330  -12.0440   22.5570 H   0  0  0  0  0  0  0  0  0  0  0  0
  -21.3290  -13.1910   22.4650 H   0  0  0  0  0  0  0  0  0  0  0  0
  -25.4880  -15.2480   20.2780 N   0  0  0  0  0  0  0  0  0  0  0  0
  -24.7510  -15.9130   20.4900 H   0  0  0  0  0  0  0  0  0  0  0  0
  -26.3170  -15.6850   19.8960 H   0  0  0  0  0  0  0  0  0  0  0  0
  -28.8830  -22.1970   20.6330 C   0  0  0  0  0  2  0  0  0  0  0  0
  -28.9120  -23.6700   19.9280 C   0  0  0  0  0  3  0  0  0  0  0  0
  -28.2690  -24.9530   20.6810 C   0  0  0  0  0  3  0  0  0  0  0  0
  -28.4500  -26.3710   20.2020 O   0  0  0  0  0  0  0  0  0  0  0  0
  -24.5140  -31.7350   23.1260 C   0  0  0  0  0  0  0  0  0  0  0  0
  -27.3270  -27.2230   20.1500 C   0  0  0  0  0  0  0  0  0  0  0  0
  -23.3920  -30.2980   21.4610 C   0  0  0  0  0  3  0  0  0  0  0  0
  -24.9250  -28.7890   20.0690 C   0  0  0  0  0  0  0  0  0  0  0  0
  -25.9280  -30.6900   21.3360 C   0  0  0  0  0  2  0  0  0  0  0  0
  -26.0680  -29.3120   20.6880 C   0  0  0  0  0  0  0  0  0  0  0  0
  -27.2780  -28.5470   20.7060 C   0  0  0  0  0  3  0  0  0  0  0  0
  -26.1600  -26.7590   19.5100 C   0  0  0  0  0  3  0  0  0  0  0  0
  -24.9760  -27.5200   19.4680 C   0  0  0  0  0  3  0  0  0  0  0  0
  -23.6610  -29.6260   20.0890 C   0  0  0  0  0  2  0  0  0  0  0  0
  -24.6290  -30.9270   22.0300 N   0  0  0  0  0  0  0  0  0  0  0  0
  -23.4120  -31.9800   23.6350 O   0  0  0  0  0  0  0  0  0  0  0  0
  -22.7390  -29.2630   22.4100 C   0  0  0  0  0  0  0  0  0  0  0  0
  -21.4160  -29.0590   22.2670 N   0  0  0  0  0  0  0  0  0  0  0  0
  -23.4190  -28.6470   23.2320 O   0  0  0  0  0  0  0  0  0  0  0  0
  -20.9240  -29.6150   21.5840 H   0  0  0  0  0  0  0  0  0  0  0  0
  -18.0600  -27.7810   22.7220 C   0  0  0  0  0  0  0  0  0  0  0  0
  -20.6090  -28.0970   23.0200 C   0  0  0  0  0  3  0  0  0  0  0  0
  -20.7470  -26.6710   22.4380 C   0  0  0  0  0  2  0  0  0  0  0  0
  -19.6650  -26.3310   21.4070 C   0  0  0  0  0  2  0  0  0  0  0  0
  -18.2730  -26.4400   22.0350 C   0  0  0  0  0  2  0  0  0  0  0  0
  -19.1570  -28.5660   23.1670 C   0  0  0  0  0  0  0  0  0  0  0  0
  -18.9030  -29.8170   23.7680 C   0  0  0  0  0  3  0  0  0  0  0  0
  -17.5860  -30.2910   23.9220 C   0  0  0  0  0  3  0  0  0  0  0  0
  -16.5040  -29.5040   23.4940 C   0  0  0  0  0  3  0  0  0  0  0  0
  -16.7410  -28.2490   22.9050 C   0  0  0  0  0  3  0  0  0  0  0  0
  -25.7580  -32.4130   23.7760 C   0  0  0  0  0  3  0  0  0  0  0  0
  -26.2790  -31.6560   25.0590 C   0  0  1  0  0  0  0  0  0  0  0  0
  -25.1760  -31.3760   26.1070 C   0  0  0  0  0  1  0  0  0  0  0  0
  -26.9160  -30.3000   24.6760 C   0  0  0  0  0  1  0  0  0  0  0  0
  -27.3910  -32.4890   25.7440 C   0  0  0  0  0  1  0  0  0  0  0  0
  -25.3900  -33.7980   24.1090 N   0  0  0  0  0  0  0  0  0  0  0  0
  -25.6930  -34.8700   23.3620 C   0  0  0  0  0  0  0  0  0  0  0  0
  -26.3720  -34.7970   22.3350 O   0  0  0  0  0  0  0  0  0  0  0  0
  -24.7890  -33.9240   24.9090 H   0  0  0  0  0  0  0  0  0  0  0  0
  -23.8910  -36.5890   23.0110 C   0  0  0  0  0  1  0  0  0  0  0  0
  -25.1500  -36.2340   23.8230 C   0  0  0  0  0  3  0  0  0  0  0  0
  -27.2500  -37.1960   24.6570 C   0  0  0  0  0  1  0  0  0  0  0  0
  -26.1390  -37.3290   23.7180 N   0  0  0  0  0  0  0  0  0  0  0  0
  -25.6970  -38.2320   23.8720 H   0  0  0  0  0  0  0  0  0  0  0  0
  1  2  1  0
  2 48  1  0
  2  3  1  6
  4  6  1  0
  4  7  1  0
  5  7  1  0
  6  9  1  0
  6  8  1  0
  7 19  1  0
  8  2  1  0
  8  5  1  0
 10 19  1  0
 11 16  1  0
 12 13  1  0
 12 11  1  0
 14 13  1  0
 14 23  1  0
 14 15  1  0
 16 10  1  0
 16 15  1  0
 17 10  2  0
 19 18  1  0
 20 21  2  0
 21 40  1  0
 22 21  1  0
 22 25  1  0
 23 24  1  0
 23 20  1  0
 24 22  2  0
 25 26  1  0
 26 27  2  0
 28 31  1  0
 28 27  1  0
 29 28  2  0
 30 29  1  0
 30 25  2  0
 31 32  1  0
 32 33  1  0
 33 34  2  0
 35 34  1  0
 35 39  1  0
 36 35  2  0
 37 32  2  0
 37 36  1  0
 38 37  1  0
 40 41  1  0
 41 44  1  0
 41 43  1  0
 42 40  2  0
 45 20  1  0
 45 46  1  0
 47 45  1  0
 49 48  1  0
 49 50  2  0
 51 50  1  0
 52 63  2  0
 53 51  1  0
 53 58  1  0
 54 62  1  0
 54 64  1  0
 55 61  1  0
 55 57  1  0
 56 62  1  0
 57 58  2  0
 57 56  1  0
 59 53  2  0
 60 59  1  0
 60 55  2  0
 61 54  1  0
 62 52  1  0
 64 66  2  0
 65 64  1  0
 67 65  1  0
 68 77  2  0
 68 73  1  0
 69 65  1  0
 69 73  1  0
 70 69  1  0
 71 72  1  0
 71 70  1  0
 72 68  1  0
 73 74  2  0
 74 75  1  0
 76 75  2  0
 77 76  1  0
 78 52  1  0
 78 83  1  0
 78 79  1  0
 79 82  1  1
 79 80  1  0
 81 79  1  0
 83 86  1  0
 84 88  1  0
 84 83  1  0
 85 84  2  0
 88 87  1  0
 90 88  1  0
 90 91  1  0
 90 89  1  0
M  ISO  4  10 100  19 100  50 101  51 101
M  END
>  <TORSDO>  (93) 
F 20

>  <SCORE>  (93) 
-12.865

>  <name>  (93) 
92

>  <ligand_id>  (93) 
92

>  <original_smiles>  (93) 
[H]c1c([H])c([H])c2c(c1[H])C([H])([H])C([H])([H])C([H])([H])C2([H])N([H])C(=O)C1([H])N(C(=O)C([H])(N([H])C(=O)C([H])(N([H])C([H])([H])[H])C([H])([H])[H])C(C([H])([H])[H])(C([H])([H])[H])C([H])([H])[H])C([H])([H])c2c([H])c(OC([H])([H])C([H])([H])C([H])([H])[N+]([H])(C([H])([H])[H])C3([H])C([H])([H])C([H])(N(C(=O)N4C([H])([H])C([H])([H])C([H])([H])C([H])(n5nc(-c6c([H])c([H])c(Oc7c([H])c([H])c(F)c([H])c7F)c([H])c6[H])c(C(=O)N([H])[H])c5N([H])[H])C4([H])[H])C([H])([H])[H])C([H])([H])C3([H])C([H])([H])[H])c([H])c([H])c2C1([H])[H]

>  <smiles>  (93) 
[H]c1c([H])c([H])c2c(c1[H])C([H])([H])C([H])([H])C([H])([H])C2([H])N([H])C(=O)C1([H])N(C(=O)C([H])(N([H])C(=O)C([H])(N([H])C([H])([H])[H])C([H])([H])[H])C(C([H])([H])[H])(C([H])([H])[H])C([H])([H])[H])C([H])([H])c2c([H])c(OC([H])([H])C([H])([H])C([H])([H])[N+]([H])(C([H])([H])[H])C3([H])C([H])([H])C([H])(N(C(=O)N4C([H])([H])C([H])([H])C([H])([H])C([H])(n5nc(-c6c([H])c([H])c(Oc7c([H])c([H])c(F)c([H])c7F)c([H])c6[H])c(C(=O)N([H])[H])c5N([H])[H])C4([H])[H])C([H])([H])[H])C([H])([H])C3([H])C([H])([H])[H])c([H])c([H])c2C1([H])[H]

$$$$
93:0:0
     RDKit          3D

 98107  0  0  1  0  0  0  0  0999 V2000
  -30.4760  -26.0430   22.4850 C   0  0  0  0  0  2  0  0  0  0  0  0
  -29.7680  -25.3140   20.6890 C   0  0  0  0  0  3  0  0  0  0  0  0
  -29.3070  -26.4610   21.5950 C   0  0  0  0  0  3  0  0  0  0  0  0
  -29.2700  -27.8980   21.0580 C   0  0  0  0  0  1  0  0  0  0  0  0
  -30.3750  -24.7240   21.8740 N   0  0  1  0  0  4  0  0  0  0  0  0
  -29.6870  -24.1710   22.3590 H   0  0  0  0  0  0  0  0  0  0  0  0
  -29.4880  -23.3840   18.4280 C   0  0  1  0  0  0  0  0  0  0  0  0
  -27.6460  -23.1510   20.7460 C   0  0  0  0  0  2  0  0  0  0  0  0
  -28.9130  -21.7240   18.0600 C   0  0  0  0  0  2  0  0  0  0  0  0
  -27.3340  -21.5260   20.0330 C   0  0  0  0  0  2  0  0  0  0  0  0
  -28.9720  -24.2170   20.0050 C   0  0  0  0  0  3  0  0  0  0  0  0
  -28.2750  -20.4200   19.0470 C   0  0  0  0  0  2  0  0  0  0  0  0
  -29.4120  -16.6530   19.1860 C   0  0  0  0  0  0  0  0  0  0  0  0
  -29.9090  -13.7760   18.6260 C   0  0  0  0  0  2  0  0  0  0  0  0
  -29.1510  -12.7160   17.6940 C   0  0  0  0  0  2  0  0  0  0  0  0
  -27.9360  -12.0810   18.3700 C   0  0  0  0  0  2  0  0  0  0  0  0
  -27.2830  -13.1690   19.2330 C   0  0  0  0  0  3  0  0  0  0  0  0
  -28.2520  -14.0770   20.0980 C   0  0  0  0  0  2  0  0  0  0  0  0
  -29.0920  -15.0500   19.2300 N   0  0  0  0  0  0  0  0  0  0  0  0
  -30.6650  -16.4320   19.0320 O   0  0  0  0  0  0  0  0  0  0  0  0
  -28.5780  -18.3110   19.1540 N   0  0  0  0  0  2  0  0  0  0  0  0
  -27.6380  -17.9740   19.3060 H   0  0  0  0  0  0  0  0  0  0  0  0
  -25.0520  -13.5790   20.3130 C   0  0  0  0  0  0  0  0  0  0  0  0
  -24.0400  -12.7850   20.7610 C   0  0  0  0  0  0  0  0  0  0  0  0
  -24.4890  -11.4360   20.5980 C   0  0  0  0  0  0  0  0  0  0  0  0
  -26.0640  -12.7350   19.9140 N   0  0  0  0  0  0  0  0  0  0  0  0
  -25.7420  -11.4250   20.1260 N   0  0  0  0  0  0  0  0  0  0  0  0
  -23.7580  -10.1750   20.8120 C   0  0  0  0  0  0  0  0  0  0  0  0
  -24.1580   -9.2350   21.7880 C   0  0  0  0  0  3  0  0  0  0  0  0
  -23.4130   -8.0500   21.9990 C   0  0  0  0  0  3  0  0  0  0  0  0
  -22.2520   -7.7930   21.2320 C   0  0  0  0  0  0  0  0  0  0  0  0
  -21.8670   -8.7210   20.2470 C   0  0  0  0  0  3  0  0  0  0  0  0
  -22.6120   -9.8940   20.0370 C   0  0  0  0  0  3  0  0  0  0  0  0
  -21.4880   -6.6550   21.3460 O   0  0  0  0  0  0  0  0  0  0  0  0
  -21.3350   -6.0040   22.5430 C   0  0  0  0  0  0  0  0  0  0  0  0
  -20.7460   -6.6320   23.6620 C   0  0  0  0  0  3  0  0  0  0  0  0
  -20.5460   -5.9030   24.8530 C   0  0  0  0  0  3  0  0  0  0  0  0
  -20.9260   -4.5510   24.9230 C   0  0  0  0  0  0  0  0  0  0  0  0
  -21.5070   -3.9220   23.8090 C   0  0  0  0  0  3  0  0  0  0  0  0
  -21.7100   -4.6460   22.6210 C   0  0  0  0  0  0  0  0  0  0  0  0
  -22.2510   -4.0300   21.5420 F   0  0  0  0  0  0  0  0  0  0  0  0
  -20.7280   -3.8500   26.0650 F   0  0  0  0  0  0  0  0  0  0  0  0
  -22.6930  -13.2640   21.2100 C   0  0  0  0  0  0  0  0  0  0  0  0
  -22.0650  -12.5520   22.1370 N   0  0  0  0  0  0  0  0  0  0  0  0
  -22.2130  -14.3100   20.7730 O   0  0  0  0  0  0  0  0  0  0  0  0
  -22.4700  -11.7070   22.5110 H   0  0  0  0  0  0  0  0  0  0  0  0
  -21.1660  -12.8590   22.4810 H   0  0  0  0  0  0  0  0  0  0  0  0
  -25.1890  -14.9570   20.1760 N   0  0  0  0  0  0  0  0  0  0  0  0
  -24.4310  -15.5950   20.3870 H   0  0  0  0  0  0  0  0  0  0  0  0
  -25.9840  -15.4120   19.7480 H   0  0  0  0  0  0  0  0  0  0  0  0
  -31.6260  -23.9640   21.6510 C   0  0  0  0  0  2  0  0  0  0  0  0
  -30.5370  -21.8480   22.6100 C   0  0  0  0  0  1  0  0  0  0  0  0
  -31.4170  -22.4290   21.4760 C   0  0  0  0  0  3  0  0  0  0  0  0
  -30.4370  -20.4280   20.1420 C   0  0  0  0  0  1  0  0  0  0  0  0
  -32.6060  -21.2570   19.5990 C   0  0  0  0  0  1  0  0  0  0  0  0
  -31.1900  -21.7940   20.0220 C   0  0  2  0  0  0  0  0  0  0  0  0
  -30.7470  -22.8280   18.8130 C   0  0  0  0  0  2  0  0  0  0  0  0
  -28.2020  -24.5620   18.1310 O   0  0  0  0  0  0  0  0  0  0  0  0
  -24.5280  -31.2350   22.4030 C   0  0  0  0  0  0  0  0  0  0  0  0
  -27.3820  -26.1780   18.5090 C   0  0  0  0  0  0  0  0  0  0  0  0
  -23.4120  -29.9550   20.6390 C   0  0  0  0  0  3  0  0  0  0  0  0
  -24.9480  -28.5130   18.9440 C   0  0  0  0  0  0  0  0  0  0  0  0
  -26.0100  -30.1120   20.4780 C   0  0  0  0  0  2  0  0  0  0  0  0
  -26.1660  -28.7090   19.5920 C   0  0  0  0  0  0  0  0  0  0  0  0
  -27.3010  -27.6060   19.3390 C   0  0  0  0  0  3  0  0  0  0  0  0
  -26.0780  -26.4360   17.8790 C   0  0  0  0  0  3  0  0  0  0  0  0
  -24.9850  -27.4120   18.0600 C   0  0  0  0  0  3  0  0  0  0  0  0
  -23.6810  -29.4220   19.1860 C   0  0  0  0  0  2  0  0  0  0  0  0
  -24.6840  -30.4820   21.2310 N   0  0  0  0  0  0  0  0  0  0  0  0
  -23.4220  -31.3860   22.9630 O   0  0  0  0  0  0  0  0  0  0  0  0
  -22.7630  -28.8490   21.5260 C   0  0  0  0  0  0  0  0  0  0  0  0
  -21.4260  -28.6520   21.4810 N   0  0  0  0  0  0  0  0  0  0  0  0
  -23.4920  -28.1550   22.2370 O   0  0  0  0  0  0  0  0  0  0  0  0
  -20.8670  -29.2670   20.9060 H   0  0  0  0  0  0  0  0  0  0  0  0
  -18.1620  -27.1240   22.0920 C   0  0  0  0  0  0  0  0  0  0  0  0
  -20.7160  -27.5440   22.1530 C   0  0  0  0  0  3  0  0  0  0  0  0
  -20.8340  -26.2390   21.3310 C   0  0  0  0  0  2  0  0  0  0  0  0
  -19.6560  -26.0200   20.3760 C   0  0  0  0  0  2  0  0  0  0  0  0
  -18.3430  -25.9410   21.1590 C   0  0  0  0  0  2  0  0  0  0  0  0
  -19.2720  -27.8880   22.5450 C   0  0  0  0  0  0  0  0  0  0  0  0
  -19.0380  -28.9920   23.3940 C   0  0  0  0  0  3  0  0  0  0  0  0
  -17.7290  -29.3330   23.7880 C   0  0  0  0  0  3  0  0  0  0  0  0
  -16.6370  -28.5690   23.3450 C   0  0  0  0  0  3  0  0  0  0  0  0
  -16.8560  -27.4650   22.5010 C   0  0  0  0  0  3  0  0  0  0  0  0
  -25.7180  -31.9520   23.1190 C   0  0  0  0  0  3  0  0  0  0  0  0
  -25.2870  -33.3020   23.5700 N   0  0  0  0  0  0  0  0  0  0  0  0
  -25.6250  -34.4720   23.0060 C   0  0  0  0  0  0  0  0  0  0  0  0
  -26.3670  -34.5340   22.0250 O   0  0  0  0  0  0  0  0  0  0  0  0
  -24.6250  -33.3210   24.3330 H   0  0  0  0  0  0  0  0  0  0  0  0
  -23.8530  -36.2650   22.7990 C   0  0  0  0  0  1  0  0  0  0  0  0
  -25.0580  -35.7760   23.6180 C   0  0  0  0  0  3  0  0  0  0  0  0
  -27.0890  -36.6400   24.7100 C   0  0  0  0  0  1  0  0  0  0  0  0
  -26.0520  -36.8720   23.7100 N   0  0  0  0  0  0  0  0  0  0  0  0
  -25.5960  -37.7550   23.9250 H   0  0  0  0  0  0  0  0  0  0  0  0
  -26.2490  -31.1470   24.3730 C   0  0  1  0  0  0  0  0  0  0  0  0
  -25.1490  -30.7840   25.3980 C   0  0  0  0  0  1  0  0  0  0  0  0
  -26.9310  -29.8300   23.9490 C   0  0  0  0  0  1  0  0  0  0  0  0
  -27.3300  -31.9730   25.1100 C   0  0  0  0  0  1  0  0  0  0  0  0
  2  3  1  0
  2  5  1  0
  3  1  1  0
  4  3  1  0
  5  6  1  1
  5  1  1  0
  7 57  1  0
  7 11  1  0
  9  7  1  0
  9 12  1  0
 10  8  1  0
 11  2  1  0
 11  8  1  0
 12 10  1  0
 13 19  1  0
 14 19  1  0
 15 16  1  0
 15 14  1  0
 16 17  1  0
 17 26  1  0
 17 18  1  0
 19 18  1  0
 20 13  2  0
 21 13  1  0
 21 22  1  0
 23 24  2  0
 24 43  1  0
 25 24  1  0
 25 28  1  0
 26 27  1  0
 26 23  1  0
 27 25  2  0
 28 29  1  0
 29 30  2  0
 31 34  1  0
 31 30  1  0
 32 31  2  0
 33 32  1  0
 33 28  2  0
 34 35  1  0
 35 40  2  0
 35 36  1  0
 36 37  2  0
 37 38  1  0
 38 42  1  0
 39 38  2  0
 40 39  1  0
 41 40  1  0
 43 44  1  0
 44 47  1  0
 44 46  1  0
 45 43  2  0
 48 23  1  0
 48 49  1  0
 50 48  1  0
 51  5  1  0
 53 51  1  0
 53 52  1  0
 56 55  1  6
 56 54  1  0
 56 53  1  0
 57 56  1  0
  7 58  1  6
 58 60  1  0
 59 70  2  0
 59 85  1  0
 60 65  1  0
 61 69  1  0
 61 71  1  0
 62 68  1  0
 62 64  1  0
 63 69  1  0
 64 63  1  0
 65 64  2  0
 66 67  1  0
 66 60  2  0
 67 62  2  0
 68 61  1  0
 69 59  1  0
 71 73  2  0
 72 71  1  0
 72 76  1  0
 74 72  1  0
 75 84  2  0
 75 80  1  0
 76 80  1  0
 77 76  1  0
 78 79  1  0
 78 77  1  0
 79 75  1  0
 80 81  2  0
 81 82  1  0
 83 82  2  0
 84 83  1  0
 85 86  1  0
 85 95  1  0
 86 89  1  0
 87 86  1  0
 87 91  1  0
 88 87  2  0
 90 91  1  0
 91 93  1  0
 93 94  1  0
 93 92  1  0
 95 98  1  1
 95 96  1  0
 97 95  1  0
M  ISO  4  13 100  21 100  57 101  58 101
M  END
>  <TORSDO>  (94) 
F 21

>  <SCORE>  (94) 
-10.813

>  <name>  (94) 
93

>  <ligand_id>  (94) 
93

>  <original_smiles>  (94) 
[H]c1c([H])c([H])c2c(c1[H])C([H])([H])C([H])([H])C([H])([H])C2([H])N([H])C(=O)C1([H])N(C(=O)C([H])(N([H])C(=O)C([H])(N([H])C([H])([H])[H])C([H])([H])[H])C(C([H])([H])[H])(C([H])([H])[H])C([H])([H])[H])C([H])([H])c2c([H])c(OC([H])([H])C(C([H])([H])[H])(C([H])([H])[H])C([H])(C([H])([H])[H])C([H])([H])[N+]3([H])C([H])([H])C([H])(C([H])([H])[H])C3([H])c3c([H])c([H])c(N([H])C(=O)N4C([H])([H])C([H])([H])C([H])([H])C([H])(n5nc(-c6c([H])c([H])c(Oc7c([H])c([H])c(F)c([H])c7F)c([H])c6[H])c(C(=O)N([H])[H])c5N([H])[H])C4([H])[H])c([H])c3[H])c([H])c([H])c2C1([H])[H]

>  <smiles>  (94) 
[H]c1c([H])c([H])c2c(c1[H])C([H])([H])C([H])([H])C([H])([H])C2([H])N([H])C(=O)C1([H])N(C(=O)C([H])(N([H])C(=O)C([H])(N([H])C([H])([H])[H])C([H])([H])[H])C(C([H])([H])[H])(C([H])([H])[H])C([H])([H])[H])C([H])([H])c2c([H])c(OC([H])([H])C(C([H])([H])[H])(C([H])([H])[H])C([H])(C([H])([H])[H])C([H])([H])[N+]3([H])C([H])([H])C([H])(C([H])([H])[H])C3([H])c3c([H])c([H])c(N([H])C(=O)N4C([H])([H])C([H])([H])C([H])([H])C([H])(n5nc(-c6c([H])c([H])c(Oc7c([H])c([H])c(F)c([H])c7F)c([H])c6[H])c(C(=O)N([H])[H])c5N([H])[H])C4([H])[H])c([H])c3[H])c([H])c([H])c2C1([H])[H]

$$$$
94:0:0
     RDKit          3D

103111  0  0  1  0  0  0  0  0999 V2000
  -31.4560  -19.6390   19.9230 C   0  0  0  0  0  2  0  0  0  0  0  0
  -32.5920  -21.9160   19.2850 C   0  0  0  0  0  3  0  0  0  0  0  0
  -32.1350  -23.1910   19.0920 C   0  0  0  0  0  3  0  0  0  0  0  0
  -30.3540  -21.8630   19.3590 C   0  0  0  0  0  3  0  0  0  0  0  0
  -31.4630  -21.0790   19.5090 C   0  0  0  0  0  0  0  0  0  0  0  0
  -30.7590  -23.1710   19.2340 N   0  0  0  0  0  0  0  0  0  0  0  0
  -29.8700  -24.3150   19.3520 C   0  0  0  0  0  2  0  0  0  0  0  0
  -29.4690  -23.5420   21.7900 C   0  0  0  0  0  1  0  0  0  0  0  0
  -30.9320  -25.5100   21.3310 C   0  0  0  0  0  1  0  0  0  0  0  0
  -29.6850  -24.7490   20.8410 C   0  0  1  0  0  0  0  0  0  0  0  0
  -28.4420  -25.6420   20.9720 C   0  0  0  0  0  2  0  0  0  0  0  0
  -28.5870  -26.8700   20.2680 O   0  0  0  0  0  0  0  0  0  0  0  0
  -24.6550  -31.9330   23.3240 C   0  0  0  0  0  0  0  0  0  0  0  0
  -27.4180  -27.5830   20.2440 C   0  0  0  0  0  0  0  0  0  0  0  0
  -23.4970  -30.5140   21.6620 C   0  0  0  0  0  3  0  0  0  0  0  0
  -24.9940  -29.0190   20.2440 C   0  0  0  0  0  0  0  0  0  0  0  0
  -26.0190  -30.9220   21.5050 C   0  0  0  0  0  2  0  0  0  0  0  0
  -26.1350  -29.5650   20.8530 C   0  0  0  0  0  0  0  0  0  0  0  0
  -27.3500  -28.8520   20.8500 C   0  0  0  0  0  3  0  0  0  0  0  0
  -26.2670  -27.0470   19.6220 C   0  0  0  0  0  3  0  0  0  0  0  0
  -25.0530  -27.7560   19.6320 C   0  0  0  0  0  3  0  0  0  0  0  0
  -23.7340  -29.8510   20.2800 C   0  0  0  0  0  2  0  0  0  0  0  0
  -24.7390  -31.1380   22.2210 N   0  0  0  0  0  0  0  0  0  0  0  0
  -23.5630  -32.1860   23.8510 O   0  0  0  0  0  0  0  0  0  0  0  0
  -22.8560  -29.4740   22.6080 C   0  0  0  0  0  0  0  0  0  0  0  0
  -21.5410  -29.2550   22.4530 N   0  0  0  0  0  0  0  0  0  0  0  0
  -23.5370  -28.8730   23.4420 O   0  0  0  0  0  0  0  0  0  0  0  0
  -21.0490  -29.7940   21.7540 H   0  0  0  0  0  0  0  0  0  0  0  0
  -18.1890  -27.9800   22.8890 C   0  0  0  0  0  0  0  0  0  0  0  0
  -20.7340  -28.2980   23.2090 C   0  0  0  0  0  3  0  0  0  0  0  0
  -20.8820  -26.8690   22.6360 C   0  0  0  0  0  2  0  0  0  0  0  0
  -19.8070  -26.5200   21.6020 C   0  0  0  0  0  2  0  0  0  0  0  0
  -18.4100  -26.6340   22.2200 C   0  0  0  0  0  2  0  0  0  0  0  0
  -19.2800  -28.7690   23.3400 C   0  0  0  0  0  0  0  0  0  0  0  0
  -19.0220  -30.0270   23.9230 C   0  0  0  0  0  3  0  0  0  0  0  0
  -17.7020  -30.4980   24.0630 C   0  0  0  0  0  3  0  0  0  0  0  0
  -16.6250  -29.7060   23.6300 C   0  0  0  0  0  3  0  0  0  0  0  0
  -16.8680  -28.4490   23.0480 C   0  0  0  0  0  3  0  0  0  0  0  0
  -25.9230  -32.5860   23.9600 C   0  0  0  0  0  3  0  0  0  0  0  0
  -26.4180  -31.8460   25.2640 C   0  0  1  0  0  0  0  0  0  0  0  0
  -25.3040  -31.6190   26.3110 C   0  0  0  0  0  1  0  0  0  0  0  0
  -27.0250  -30.4650   24.9170 C   0  0  0  0  0  1  0  0  0  0  0  0
  -27.5440  -32.6660   25.9360 C   0  0  0  0  0  1  0  0  0  0  0  0
  -25.5970  -33.9870   24.2490 N   0  0  0  0  0  0  0  0  0  0  0  0
  -25.9470  -35.0240   23.4780 C   0  0  0  0  0  0  0  0  0  0  0  0
  -26.6480  -34.9020   22.4700 O   0  0  0  0  0  0  0  0  0  0  0  0
  -24.9790  -34.1550   25.0290 H   0  0  0  0  0  0  0  0  0  0  0  0
  -24.2280  -36.8020   23.0200 C   0  0  0  0  0  1  0  0  0  0  0  0
  -25.4340  -36.4160   23.8910 C   0  0  0  0  0  3  0  0  0  0  0  0
  -27.5240  -37.3270   24.8010 C   0  0  0  0  0  1  0  0  0  0  0  0
  -26.4660  -37.4720   23.8060 N   0  0  0  0  0  0  0  0  0  0  0  0
  -26.0500  -38.3930   23.9180 H   0  0  0  0  0  0  0  0  0  0  0  0
  -30.5960  -18.7510   18.9910 C   0  0  0  0  0  3  0  0  0  0  0  0
  -31.4300  -18.2000   17.8980 N   0  0  0  0  0  4  0  0  0  0  0  0
  -30.8620  -17.7650   17.1920 H   0  0  0  0  0  0  0  0  0  0  0  0
  -32.0930  -17.5240   18.2320 H   0  0  0  0  0  0  0  0  0  0  0  0
  -31.9310  -18.9470   17.4510 H   0  0  0  0  0  0  0  0  0  0  0  0
  -29.1240  -16.6920   18.6700 C   0  0  0  0  0  1  0  0  0  0  0  0
  -29.6730  -17.7020   19.7180 C   0  0  1  0  0  0  0  0  0  0  0  0
  -30.4550  -16.9600   20.8670 C   0  0  0  0  0  2  0  0  0  0  0  0
  -30.7010  -14.5140   20.6830 C   0  0  0  0  0  0  0  0  0  0  0  0
  -30.3650  -12.4050   19.5010 C   0  0  0  0  0  2  0  0  0  0  0  0
  -29.4460  -12.6630   18.2920 C   0  0  0  0  0  2  0  0  0  0  0  0
  -27.9720  -12.4910   18.7000 C   0  0  0  0  0  2  0  0  0  0  0  0
  -27.6110  -13.2930   19.9800 C   0  0  0  0  0  3  0  0  0  0  0  0
  -28.6560  -13.0830   21.1010 C   0  0  0  0  0  2  0  0  0  0  0  0
  -29.9920  -13.3660   20.5490 N   0  0  0  0  0  0  0  0  0  0  0  0
  -31.8370  -14.6620   20.2360 O   0  0  0  0  0  0  0  0  0  0  0  0
  -30.0090  -15.5770   21.1100 N   0  0  0  0  0  0  0  0  0  0  0  0
  -29.0890  -15.4110   21.4860 H   0  0  0  0  0  0  0  0  0  0  0  0
  -25.1920  -13.8700   20.6390 C   0  0  0  0  0  0  0  0  0  0  0  0
  -24.1250  -13.0810   20.9760 C   0  0  0  0  0  0  0  0  0  0  0  0
  -24.6070  -11.7370   20.9460 C   0  0  0  0  0  0  0  0  0  0  0  0
  -26.2540  -13.0040   20.4300 N   0  0  0  0  0  0  0  0  0  0  0  0
  -25.9050  -11.7160   20.6690 N   0  0  0  0  0  0  0  0  0  0  0  0
  -23.9000  -10.4620   21.1100 C   0  0  0  0  0  0  0  0  0  0  0  0
  -24.3150   -9.5060   22.0630 C   0  0  0  0  0  3  0  0  0  0  0  0
  -23.6060   -8.2940   22.2180 C   0  0  0  0  0  3  0  0  0  0  0  0
  -22.4680   -8.0330   21.4180 C   0  0  0  0  0  0  0  0  0  0  0  0
  -22.0710   -8.9780   20.4540 C   0  0  0  0  0  3  0  0  0  0  0  0
  -22.7830  -10.1810   20.2980 C   0  0  0  0  0  3  0  0  0  0  0  0
  -21.7350   -6.8740   21.4780 O   0  0  0  0  0  0  0  0  0  0  0  0
  -21.6400   -6.1420   22.6340 C   0  0  0  0  0  0  0  0  0  0  0  0
  -21.1180   -6.6940   23.8240 C   0  0  0  0  0  3  0  0  0  0  0  0
  -20.9740   -5.8860   24.9700 C   0  0  0  0  0  3  0  0  0  0  0  0
  -21.3440   -4.5290   24.9260 C   0  0  0  0  0  0  0  0  0  0  0  0
  -21.8600   -3.9770   23.7390 C   0  0  0  0  0  3  0  0  0  0  0  0
  -22.0050   -4.7820   22.5960 C   0  0  0  0  0  0  0  0  0  0  0  0
  -22.4820   -4.2400   21.4500 F   0  0  0  0  0  0  0  0  0  0  0  0
  -21.1990   -3.7500   26.0240 F   0  0  0  0  0  0  0  0  0  0  0  0
  -22.7160  -13.5360   21.2220 C   0  0  0  0  0  0  0  0  0  0  0  0
  -21.9800  -12.8200   22.0640 N   0  0  0  0  0  0  0  0  0  0  0  0
  -22.2770  -14.5630   20.7070 O   0  0  0  0  0  0  0  0  0  0  0  0
  -22.3500  -11.9890   22.5030 H   0  0  0  0  0  0  0  0  0  0  0  0
  -21.0330  -13.1070   22.2740 H   0  0  0  0  0  0  0  0  0  0  0  0
  -25.3430  -15.2410   20.4750 N   0  0  0  0  0  0  0  0  0  0  0  0
  -24.5660  -15.8840   20.5850 H   0  0  0  0  0  0  0  0  0  0  0  0
  -26.2040  -15.6880   20.1970 H   0  0  0  0  0  0  0  0  0  0  0  0
  -28.4700  -18.4380   20.4020 C   0  0  0  0  0  2  0  0  0  0  0  0
  -27.4140  -18.9350   19.4890 N   0  0  0  0  0  4  0  0  0  0  0  0
  -27.7320  -19.6870   18.9030 H   0  0  0  0  0  0  0  0  0  0  0  0
  -26.6500  -19.2910   20.0350 H   0  0  0  0  0  0  0  0  0  0  0  0
  -27.0450  -18.1970   18.9130 H   0  0  0  0  0  0  0  0  0  0  0  0
  2  5  1  0
  3  6  1  0
  3  2  2  0
  4  5  2  0
  5  1  1  0
  6  7  1  0
  6  4  1  0
  7 10  1  0
 10 11  1  0
 10  9  1  1
 10  8  1  0
 12 11  1  0
 13 24  2  0
 14 12  1  0
 14 19  1  0
 15 23  1  0
 15 25  1  0
 16 22  1  0
 16 18  1  0
 17 23  1  0
 18 17  1  0
 19 18  2  0
 20 21  1  0
 20 14  2  0
 21 16  2  0
 22 15  1  0
 23 13  1  0
 25 27  2  0
 26 25  1  0
 28 26  1  0
 29 38  2  0
 29 34  1  0
 30 26  1  0
 30 34  1  0
 31 30  1  0
 32 33  1  0
 32 31  1  0
 33 29  1  0
 34 35  2  0
 35 36  1  0
 37 36  2  0
 38 37  1  0
 39 13  1  0
 39 44  1  0
 39 40  1  0
 40 43  1  1
 40 41  1  0
 42 40  1  0
 44 47  1  0
 45 49  1  0
 45 44  1  0
 46 45  2  0
 49 48  1  0
 51 49  1  0
 51 52  1  0
 51 50  1  0
 53 59  1  0
 53  1  1  0
 54 56  1  0
 54 53  1  0
 55 54  1  0
 57 54  1  0
 59 58  1  6
 59 99  1  0
 59 60  1  0
 60 69  1  0
 61 69  1  0
 62 67  1  0
 63 64  1  0
 63 62  1  0
 65 64  1  0
 65 74  1  0
 65 66  1  0
 67 61  1  0
 67 66  1  0
 68 61  2  0
 69 70  1  0
 71 72  2  0
 72 91  1  0
 73 72  1  0
 73 76  1  0
 74 71  1  0
 74 75  1  0
 75 73  2  0
 76 77  1  0
 77 78  2  0
 79 82  1  0
 79 78  1  0
 80 79  2  0
 81 80  1  0
 81 76  2  0
 82 83  1  0
 83 84  1  0
 84 85  2  0
 86 85  1  0
 86 90  1  0
 87 86  2  0
 88 83  2  0
 88 87  1  0
 89 88  1  0
 91 92  1  0
 92 95  1  0
 92 94  1  0
 93 91  2  0
 96 97  1  0
 96 71  1  0
 98 96  1  0
100102  1  0
100 99  1  0
101100  1  0
103100  1  0
M  ISO  4  11 101  12 101  61 100  69 100
M  END
>  <TORSDO>  (95) 
F 26

>  <SCORE>  (95) 
-12.430

>  <name>  (95) 
94

>  <ligand_id>  (95) 
94

>  <original_smiles>  (95) 
[H]c1c([H])c([H])c2c(c1[H])C([H])([H])C([H])([H])C([H])([H])C2([H])N([H])C(=O)C1([H])N(C(=O)C([H])(N([H])C(=O)C([H])(N([H])C([H])([H])[H])C([H])([H])[H])C(C([H])([H])[H])(C([H])([H])[H])C([H])([H])[H])C([H])([H])c2c([H])c(OC([H])([H])C(C([H])([H])[H])(C([H])([H])[H])C([H])([H])n3c([H])c([H])c(C([H])([H])C([H])(C(C([H])([H])[H])(C([H])([H])N([H])C(=O)N4C([H])([H])C([H])([H])C([H])([H])C([H])(n5nc(-c6c([H])c([H])c(Oc7c([H])c([H])c(F)c([H])c7F)c([H])c6[H])c(C(=O)N([H])[H])c5N([H])[H])C4([H])[H])C([H])([H])[N+]([H])([H])[H])[N+]([H])([H])[H])c3[H])c([H])c([H])c2C1([H])[H]

>  <smiles>  (95) 
[H]c1c([H])c([H])c2c(c1[H])C([H])([H])C([H])([H])C([H])([H])C2([H])N([H])C(=O)C1([H])N(C(=O)C([H])(N([H])C(=O)C([H])(N([H])C([H])([H])[H])C([H])([H])[H])C(C([H])([H])[H])(C([H])([H])[H])C([H])([H])[H])C([H])([H])c2c([H])c(OC([H])([H])C(C([H])([H])[H])(C([H])([H])[H])C([H])([H])n3c([H])c([H])c(C([H])([H])C([H])(C(C([H])([H])[H])(C([H])([H])N([H])C(=O)N4C([H])([H])C([H])([H])C([H])([H])C([H])(n5nc(-c6c([H])c([H])c(Oc7c([H])c([H])c(F)c([H])c7F)c([H])c6[H])c(C(=O)N([H])[H])c5N([H])[H])C4([H])[H])C([H])([H])[N+]([H])([H])[H])[N+]([H])([H])[H])c3[H])c([H])c([H])c2C1([H])[H]

$$$$
95:0:0
     RDKit          3D

 99108  0  0  1  0  0  0  0  0999 V2000
  -30.0930  -20.1720   20.0830 C   0  0  0  0  0  2  0  0  0  0  0  0
  -27.7070  -21.1870   20.2240 C   0  0  0  0  0  0  0  0  0  0  0  0
  -27.6410  -22.5650   19.5740 C   0  0  0  0  0  2  0  0  0  0  0  0
  -29.1820  -21.4040   20.5810 C   0  0  0  0  0  3  0  0  0  0  0  0
  -29.1020  -22.6950   19.7460 N   0  0  2  0  0  4  0  0  0  0  0  0
  -26.9000  -20.2660   20.3820 O   0  0  0  0  0  0  0  0  0  0  0  0
  -29.5410  -22.5320   18.8530 H   0  0  0  0  0  0  0  0  0  0  0  0
  -29.5240  -24.0770   20.2760 C   0  0  0  0  0  3  0  0  0  0  0  0
  -28.7310  -25.3250   19.6430 C   0  0  0  0  0  3  0  0  0  0  0  0
  -28.8790  -26.7350   20.1040 O   0  0  0  0  0  0  0  0  0  0  0  0
  -24.7130  -31.6620   23.3140 C   0  0  0  0  0  0  0  0  0  0  0  0
  -27.7420  -27.5620   20.0210 C   0  0  0  0  0  0  0  0  0  0  0  0
  -23.6790  -30.3650   21.4860 C   0  0  0  0  0  3  0  0  0  0  0  0
  -25.2920  -29.0450   20.0080 C   0  0  0  0  0  0  0  0  0  0  0  0
  -26.2010  -30.8450   21.4740 C   0  0  0  0  0  2  0  0  0  0  0  0
  -26.3980  -29.5400   20.7100 C   0  0  0  0  0  0  0  0  0  0  0  0
  -27.6300  -28.8140   20.7060 C   0  0  0  0  0  3  0  0  0  0  0  0
  -26.6170  -27.1460   19.2660 C   0  0  0  0  0  3  0  0  0  0  0  0
  -25.4060  -27.8570   19.2710 C   0  0  0  0  0  3  0  0  0  0  0  0
  -24.0050  -29.8390   20.0630 C   0  0  0  0  0  2  0  0  0  0  0  0
  -24.8790  -30.9710   22.1500 N   0  0  0  0  0  0  0  0  0  0  0  0
  -23.5890  -31.8270   23.8130 O   0  0  0  0  0  0  0  0  0  0  0  0
  -23.0290  -29.2260   22.3120 C   0  0  0  0  0  0  0  0  0  0  0  0
  -21.7140  -29.0240   22.1330 N   0  0  0  0  0  0  0  0  0  0  0  0
  -23.7090  -28.5310   23.0730 O   0  0  0  0  0  0  0  0  0  0  0  0
  -21.2310  -29.6320   21.4850 H   0  0  0  0  0  0  0  0  0  0  0  0
  -18.3490  -27.7300   22.5040 C   0  0  0  0  0  0  0  0  0  0  0  0
  -20.9080  -27.9840   22.7760 C   0  0  0  0  0  3  0  0  0  0  0  0
  -21.0170  -26.6440   22.0100 C   0  0  0  0  0  2  0  0  0  0  0  0
  -19.9020  -26.4290   20.9860 C   0  0  0  0  0  2  0  0  0  0  0  0
  -18.5330  -26.4780   21.6650 C   0  0  0  0  0  2  0  0  0  0  0  0
  -19.4630  -28.4420   23.0200 C   0  0  0  0  0  0  0  0  0  0  0  0
  -19.2360  -29.6100   23.7770 C   0  0  0  0  0  3  0  0  0  0  0  0
  -17.9260  -30.0670   24.0170 C   0  0  0  0  0  3  0  0  0  0  0  0
  -16.8280  -29.3510   23.5130 C   0  0  0  0  0  3  0  0  0  0  0  0
  -17.0390  -28.1850   22.7620 C   0  0  0  0  0  3  0  0  0  0  0  0
  -25.9240  -32.3050   24.0580 C   0  0  0  0  0  3  0  0  0  0  0  0
  -25.5600  -33.6920   24.3770 N   0  0  0  0  0  0  0  0  0  0  0  0
  -25.9140  -34.7610   23.6500 C   0  0  0  0  0  0  0  0  0  0  0  0
  -26.6510  -34.6830   22.6620 O   0  0  0  0  0  0  0  0  0  0  0  0
  -24.9080  -33.8220   25.1360 H   0  0  0  0  0  0  0  0  0  0  0  0
  -24.1550  -36.5080   23.2200 C   0  0  0  0  0  1  0  0  0  0  0  0
  -25.3680  -36.1330   24.0880 C   0  0  0  0  0  3  0  0  0  0  0  0
  -27.4300  -37.0830   25.0260 C   0  0  0  0  0  1  0  0  0  0  0  0
  -26.3750  -37.2170   24.0240 N   0  0  0  0  0  0  0  0  0  0  0  0
  -25.9340  -38.1240   24.1460 H   0  0  0  0  0  0  0  0  0  0  0  0
  -26.3320  -31.5230   25.3670 C   0  0  1  0  0  0  0  0  0  0  0  0
  -25.1490  -31.2630   26.3290 C   0  0  0  0  0  1  0  0  0  0  0  0
  -26.9640  -30.1570   25.0170 C   0  0  0  0  0  1  0  0  0  0  0  0
  -27.4070  -32.3220   26.1390 C   0  0  0  0  0  1  0  0  0  0  0  0
  -29.9610  -18.6540   20.6590 C   0  0  0  0  0  3  0  0  0  0  0  0
  -31.0510  -14.9830   20.3790 C   0  0  0  0  0  0  0  0  0  0  0  0
  -30.9050  -12.6110   19.6600 C   0  0  0  0  0  2  0  0  0  0  0  0
  -30.0380  -12.5370   18.3820 C   0  0  0  0  0  2  0  0  0  0  0  0
  -28.5300  -12.4890   18.7280 C   0  0  0  0  0  2  0  0  0  0  0  0
  -28.1010  -13.4820   19.8470 C   0  0  0  0  0  3  0  0  0  0  0  0
  -29.1030  -13.5050   21.0200 C   0  0  0  0  0  2  0  0  0  0  0  0
  -30.4310  -13.7620   20.4540 N   0  0  0  0  0  0  0  0  0  0  0  0
  -32.2820  -15.0650   20.3310 O   0  0  0  0  0  0  0  0  0  0  0  0
  -30.2280  -15.9360   18.4130 C   0  0  0  0  0  2  0  0  0  0  0  0
  -29.8130  -17.3760   18.3680 C   0  0  0  0  0  3  0  0  0  0  0  0
  -30.5660  -17.5360   19.6870 C   0  0  0  0  0  3  0  0  0  0  0  0
  -30.2680  -16.0320   19.9010 N   0  0  0  0  0  0  0  0  0  0  0  0
  -25.7210  -14.1750   20.4990 C   0  0  0  0  0  0  0  0  0  0  0  0
  -24.6060  -13.4440   20.8110 C   0  0  0  0  0  0  0  0  0  0  0  0
  -25.0140  -12.0750   20.7800 C   0  0  0  0  0  0  0  0  0  0  0  0
  -26.7320  -13.2500   20.2900 N   0  0  0  0  0  0  0  0  0  0  0  0
  -26.3120  -11.9820   20.5270 N   0  0  0  0  0  0  0  0  0  0  0  0
  -24.2280  -10.8430   20.9160 C   0  0  0  0  0  0  0  0  0  0  0  0
  -24.5820   -9.8420   21.8480 C   0  0  0  0  0  3  0  0  0  0  0  0
  -23.7980   -8.6760   21.9770 C   0  0  0  0  0  3  0  0  0  0  0  0
  -22.6470   -8.5020   21.1720 C   0  0  0  0  0  0  0  0  0  0  0  0
  -22.3100   -9.4940   20.2320 C   0  0  0  0  0  3  0  0  0  0  0  0
  -23.0930  -10.6510   20.1020 C   0  0  0  0  0  3  0  0  0  0  0  0
  -21.8410   -7.3910   21.2110 O   0  0  0  0  0  0  0  0  0  0  0  0
  -21.7070   -6.6380   22.3500 C   0  0  0  0  0  0  0  0  0  0  0  0
  -21.2290   -7.1920   23.5570 C   0  0  0  0  0  3  0  0  0  0  0  0
  -21.0390   -6.3670   24.6840 C   0  0  0  0  0  3  0  0  0  0  0  0
  -21.3170   -4.9900   24.6040 C   0  0  0  0  0  0  0  0  0  0  0  0
  -21.7900   -4.4360   23.4020 C   0  0  0  0  0  3  0  0  0  0  0  0
  -21.9800   -5.2570   22.2760 C   0  0  0  0  0  0  0  0  0  0  0  0
  -22.4130   -4.7120   21.1140 F   0  0  0  0  0  0  0  0  0  0  0  0
  -21.1300   -4.1960   25.6840 F   0  0  0  0  0  0  0  0  0  0  0  0
  -23.2220  -13.9800   21.0290 C   0  0  0  0  0  0  0  0  0  0  0  0
  -22.4330  -13.3120   21.8590 N   0  0  0  0  0  0  0  0  0  0  0  0
  -22.8480  -15.0230   20.4920 O   0  0  0  0  0  0  0  0  0  0  0  0
  -22.7470  -12.4670   22.3130 H   0  0  0  0  0  0  0  0  0  0  0  0
  -21.4980  -13.6530   22.0480 H   0  0  0  0  0  0  0  0  0  0  0  0
  -25.9480  -15.5400   20.3600 N   0  0  0  0  0  0  0  0  0  0  0  0
  -25.2050  -16.2200   20.4800 H   0  0  0  0  0  0  0  0  0  0  0  0
  -26.8360  -15.9530   20.1030 H   0  0  0  0  0  0  0  0  0  0  0  0
  -30.2670  -18.1270   17.1700 N   0  0  0  0  0  4  0  0  0  0  0  0
  -31.2690  -18.1250   17.0830 H   0  0  0  0  0  0  0  0  0  0  0  0
  -29.9570  -19.0830   17.1700 H   0  0  0  0  0  0  0  0  0  0  0  0
  -29.8930  -17.7090   16.3390 H   0  0  0  0  0  0  0  0  0  0  0  0
  -30.5160  -18.4850   22.0160 N   0  0  0  0  0  4  0  0  0  0  0  0
  -31.5110  -18.6260   22.0370 H   0  0  0  0  0  0  0  0  0  0  0  0
  -30.3270  -17.5540   22.3430 H   0  0  0  0  0  0  0  0  0  0  0  0
  -30.0930  -19.1130   22.6760 H   0  0  0  0  0  0  0  0  0  0  0  0
  2  6  2  0
  2  4  1  0
  3  5  1  0
  3  2  1  0
  4  1  1  0
  5  8  1  0
  5  4  1  0
  5  7  1  6
  9 10  1  0
  9  8  2  0
 11 22  2  0
 12 10  1  0
 12 17  1  0
 13 21  1  0
 13 23  1  0
 14 20  1  0
 14 16  1  0
 15 21  1  0
 16 15  1  0
 17 16  2  0
 18 19  1  0
 18 12  2  0
 19 14  2  0
 20 13  1  0
 21 11  1  0
 23 25  2  0
 24 23  1  0
 26 24  1  0
 27 36  2  0
 27 32  1  0
 28 24  1  0
 28 32  1  0
 29 28  1  0
 30 31  1  0
 30 29  1  0
 31 27  1  0
 32 33  2  0
 33 34  1  0
 35 34  2  0
 36 35  1  0
 37 11  1  0
 37 38  1  0
 37 47  1  0
 38 41  1  0
 39 43  1  0
 39 38  1  0
 40 39  2  0
 43 42  1  0
 45 43  1  0
 45 46  1  0
 45 44  1  0
 47 50  1  1
 47 48  1  0
 49 47  1  0
 51  1  1  0
 51 96  1  0
 52 58  1  0
 53 58  1  0
 54 55  1  0
 54 53  1  0
 56 55  1  0
 56 67  1  0
 56 57  1  0
 58 57  1  0
 59 52  2  0
 60 63  1  0
 61 92  1  0
 61 60  1  0
 61 62  1  0
 62 63  1  0
 62 51  1  0
 63 52  1  0
 64 65  2  0
 65 84  1  0
 66 65  1  0
 66 69  1  0
 67 64  1  0
 67 68  1  0
 68 66  2  0
 69 70  1  0
 70 71  2  0
 72 75  1  0
 72 71  1  0
 73 72  2  0
 74 73  1  0
 74 69  2  0
 75 76  1  0
 76 77  1  0
 77 78  2  0
 79 78  1  0
 79 83  1  0
 80 79  2  0
 81 76  2  0
 81 80  1  0
 82 81  1  0
 84 85  1  0
 85 88  1  0
 85 87  1  0
 86 84  2  0
 89 90  1  0
 89 64  1  0
 91 89  1  0
 92 94  1  0
 93 92  1  0
 95 92  1  0
 96 97  1  0
 96 98  1  0
 96 99  1  0
M  ISO  4   9 101  10 101  52 100  63 100
M  END
>  <TORSDO>  (96) 
F 22

>  <SCORE>  (96) 
-11.603

>  <name>  (96) 
95

>  <ligand_id>  (96) 
95

>  <original_smiles>  (96) 
[H]c1c([H])c([H])c2c(c1[H])C([H])([H])C([H])([H])C([H])([H])C2([H])N([H])C(=O)C1([H])N(C(=O)C([H])(N([H])C(=O)C([H])(N([H])C([H])([H])[H])C([H])([H])[H])C(C([H])([H])[H])(C([H])([H])[H])C([H])([H])[H])C([H])([H])c2c([H])c(OC([H])([H])C([H])([H])[N+]3([H])C([H])([H])C(=O)C3([H])C([H])([H])C([H])(C3([H])N(C(=O)N4C([H])([H])C([H])([H])C([H])([H])C([H])(n5nc(-c6c([H])c([H])c(Oc7c([H])c([H])c(F)c([H])c7F)c([H])c6[H])c(C(=O)N([H])[H])c5N([H])[H])C4([H])[H])C([H])([H])C3([H])[N+]([H])([H])[H])[N+]([H])([H])[H])c([H])c([H])c2C1([H])[H]

>  <smiles>  (96) 
[H]c1c([H])c([H])c2c(c1[H])C([H])([H])C([H])([H])C([H])([H])C2([H])N([H])C(=O)C1([H])N(C(=O)C([H])(N([H])C(=O)C([H])(N([H])C([H])([H])[H])C([H])([H])[H])C(C([H])([H])[H])(C([H])([H])[H])C([H])([H])[H])C([H])([H])c2c([H])c(OC([H])([H])C([H])([H])[N+]3([H])C([H])([H])C(=O)C3([H])C([H])([H])C([H])(C3([H])N(C(=O)N4C([H])([H])C([H])([H])C([H])([H])C([H])(n5nc(-c6c([H])c([H])c(Oc7c([H])c([H])c(F)c([H])c7F)c([H])c6[H])c(C(=O)N([H])[H])c5N([H])[H])C4([H])[H])C([H])([H])C3([H])[N+]([H])([H])[H])[N+]([H])([H])[H])c([H])c([H])c2C1([H])[H]

$$$$
96:0:0
     RDKit          3D

 90 98  0  0  1  0  0  0  0  0999 V2000
  -29.3730  -23.7740   20.3330 C   0  0  0  0  0  2  0  0  0  0  0  0
  -27.8330  -24.4490   18.5450 C   0  0  0  0  0  1  0  0  0  0  0  0
  -26.9980  -24.3190   21.0180 C   0  0  0  0  0  1  0  0  0  0  0  0
  -28.1050  -24.7770   20.0410 C   0  0  1  0  0  0  0  0  0  0  0  0
  -28.2740  -26.3100   20.1920 O   0  0  0  0  0  0  0  0  0  0  0  0
  -24.6000  -31.8860   23.2280 C   0  0  0  0  0  0  0  0  0  0  0  0
  -27.1900  -27.2560   20.1340 C   0  0  0  0  0  0  0  0  0  0  0  0
  -23.4000  -30.5010   21.5860 C   0  0  0  0  0  3  0  0  0  0  0  0
  -24.8510  -28.9740   20.1400 C   0  0  0  0  0  0  0  0  0  0  0  0
  -25.9520  -30.7960   21.4090 C   0  0  0  0  0  2  0  0  0  0  0  0
  -26.0330  -29.4180   20.7450 C   0  0  0  0  0  0  0  0  0  0  0  0
  -27.2050  -28.5770   20.7240 C   0  0  0  0  0  3  0  0  0  0  0  0
  -25.9690  -26.9160   19.5070 C   0  0  0  0  0  3  0  0  0  0  0  0
  -24.8280  -27.7300   19.5120 C   0  0  0  0  0  3  0  0  0  0  0  0
  -23.6190  -29.8540   20.1970 C   0  0  0  0  0  2  0  0  0  0  0  0
  -24.6720  -31.0770   22.1310 N   0  0  0  0  0  0  0  0  0  0  0  0
  -23.5140  -32.1590   23.7620 O   0  0  0  0  0  0  0  0  0  0  0  0
  -22.7350  -29.4700   22.5320 C   0  0  0  0  0  0  0  0  0  0  0  0
  -21.4090  -29.2920   22.4070 N   0  0  0  0  0  0  0  0  0  0  0  0
  -23.4140  -28.8380   23.3470 O   0  0  0  0  0  0  0  0  0  0  0  0
  -20.9150  -29.8570   21.7300 H   0  0  0  0  0  0  0  0  0  0  0  0
  -18.0320  -28.0840   22.9160 C   0  0  0  0  0  0  0  0  0  0  0  0
  -20.5920  -28.3480   23.1750 C   0  0  0  0  0  3  0  0  0  0  0  0
  -20.6960  -26.9190   22.5900 C   0  0  0  0  0  2  0  0  0  0  0  0
  -19.5900  -26.6010   21.5790 C   0  0  0  0  0  2  0  0  0  0  0  0
  -18.2100  -26.7390   22.2280 C   0  0  0  0  0  2  0  0  0  0  0  0
  -19.1520  -28.8440   23.3470 C   0  0  0  0  0  0  0  0  0  0  0  0
  -18.9330  -30.1020   23.9500 C   0  0  0  0  0  3  0  0  0  0  0  0
  -17.6280  -30.6000   24.1240 C   0  0  0  0  0  3  0  0  0  0  0  0
  -16.5240  -29.8370   23.7110 C   0  0  0  0  0  3  0  0  0  0  0  0
  -16.7260  -28.5810   23.1120 C   0  0  0  0  0  3  0  0  0  0  0  0
  -25.8780  -32.5220   23.8550 C   0  0  0  0  0  3  0  0  0  0  0  0
  -26.3810  -31.7580   25.1410 C   0  0  1  0  0  0  0  0  0  0  0  0
  -25.2780  -31.5280   26.2020 C   0  0  0  0  0  1  0  0  0  0  0  0
  -26.9660  -30.3770   24.7630 C   0  0  0  0  0  1  0  0  0  0  0  0
  -27.5280  -32.5550   25.8080 C   0  0  0  0  0  1  0  0  0  0  0  0
  -25.5700  -33.9230   24.1780 N   0  0  0  0  0  0  0  0  0  0  0  0
  -25.8940  -34.9720   23.4100 C   0  0  0  0  0  0  0  0  0  0  0  0
  -26.5560  -34.8620   22.3740 O   0  0  0  0  0  0  0  0  0  0  0  0
  -25.0020  -34.0850   24.9970 H   0  0  0  0  0  0  0  0  0  0  0  0
  -24.1710  -36.7640   23.0450 C   0  0  0  0  0  1  0  0  0  0  0  0
  -25.4080  -36.3620   23.8620 C   0  0  0  0  0  3  0  0  0  0  0  0
  -27.5380  -37.2470   24.7000 C   0  0  0  0  0  1  0  0  0  0  0  0
  -26.4420  -37.4150   23.7500 N   0  0  0  0  0  0  0  0  0  0  0  0
  -26.0360  -38.3360   23.8950 H   0  0  0  0  0  0  0  0  0  0  0  0
  -29.3690  -22.2760   21.0470 C   0  0  0  0  0  2  0  0  0  0  0  0
  -29.9740  -20.0910   19.5440 C   0  0  0  0  0  2  0  0  0  0  0  0
  -29.1950  -19.7000   21.3550 C   0  0  0  0  0  2  0  0  0  0  0  0
  -29.4430  -18.7260   20.1610 C   0  0  0  0  0  3  0  0  0  0  0  0
  -29.0480  -20.8810   20.4250 N   0  0  1  0  0  4  0  0  0  0  0  0
  -28.1130  -20.8740   20.0470 H   0  0  0  0  0  0  0  0  0  0  0  0
  -30.3500  -17.3590   20.2810 C   0  0  0  0  0  0  0  0  0  0  0  0
  -31.8420  -17.6940   20.3400 C   0  0  0  0  0  1  0  0  0  0  0  0
  -29.8810  -16.0980   20.2940 N   0  0  0  0  0  0  0  0  0  0  0  0
  -30.6770  -14.8860   20.1060 C   0  0  0  0  0  0  0  0  0  0  0  0
  -30.4520  -12.5520   19.2000 C   0  0  0  0  0  2  0  0  0  0  0  0
  -29.5010  -12.5880   17.9830 C   0  0  0  0  0  2  0  0  0  0  0  0
  -28.0420  -12.4080   18.4420 C   0  0  0  0  0  2  0  0  0  0  0  0
  -27.6800  -13.3290   19.6370 C   0  0  0  0  0  3  0  0  0  0  0  0
  -28.7600  -13.3090   20.7380 C   0  0  0  0  0  2  0  0  0  0  0  0
  -30.0470  -13.6510   20.1190 N   0  0  0  0  0  0  0  0  0  0  0  0
  -31.8580  -14.8850   19.7570 O   0  0  0  0  0  0  0  0  0  0  0  0
  -25.3200  -13.9120   20.4480 C   0  0  0  0  0  0  0  0  0  0  0  0
  -24.2590  -13.1350   20.8360 C   0  0  0  0  0  0  0  0  0  0  0  0
  -24.7150  -11.7850   20.7750 C   0  0  0  0  0  0  0  0  0  0  0  0
  -26.3500  -13.0320   20.1660 N   0  0  0  0  0  0  0  0  0  0  0  0
  -25.9970  -11.7450   20.4290 N   0  0  0  0  0  0  0  0  0  0  0  0
  -23.9870  -10.5230   20.9680 C   0  0  0  0  0  0  0  0  0  0  0  0
  -24.4060   -9.5650   21.9160 C   0  0  0  0  0  3  0  0  0  0  0  0
  -23.6800   -8.3670   22.0960 C   0  0  0  0  0  3  0  0  0  0  0  0
  -22.5170   -8.1220   21.3270 C   0  0  0  0  0  0  0  0  0  0  0  0
  -22.1160   -9.0680   20.3680 C   0  0  0  0  0  3  0  0  0  0  0  0
  -22.8440  -10.2560   20.1870 C   0  0  0  0  0  3  0  0  0  0  0  0
  -21.7610   -6.9770   21.4160 O   0  0  0  0  0  0  0  0  0  0  0  0
  -21.6580   -6.2700   22.5870 C   0  0  0  0  0  0  0  0  0  0  0  0
  -21.1490   -6.8550   23.7680 C   0  0  0  0  0  3  0  0  0  0  0  0
  -20.9990   -6.0730   24.9310 C   0  0  0  0  0  3  0  0  0  0  0  0
  -21.3440   -4.7080   24.9120 C   0  0  0  0  0  0  0  0  0  0  0  0
  -21.8450   -4.1240   23.7350 C   0  0  0  0  0  3  0  0  0  0  0  0
  -21.9990   -4.9040   22.5750 C   0  0  0  0  0  0  0  0  0  0  0  0
  -22.4610   -4.3300   21.4380 F   0  0  0  0  0  0  0  0  0  0  0  0
  -21.1910   -3.9540   26.0250 F   0  0  0  0  0  0  0  0  0  0  0  0
  -22.8720  -13.6170   21.1530 C   0  0  0  0  0  0  0  0  0  0  0  0
  -22.1620  -12.9080   22.0240 N   0  0  0  0  0  0  0  0  0  0  0  0
  -22.4280  -14.6550   20.6650 O   0  0  0  0  0  0  0  0  0  0  0  0
  -22.5340  -12.0650   22.4390 H   0  0  0  0  0  0  0  0  0  0  0  0
  -21.2340  -13.2110   22.2810 H   0  0  0  0  0  0  0  0  0  0  0  0
  -25.4920  -15.2820   20.2870 N   0  0  0  0  0  0  0  0  0  0  0  0
  -24.7440  -15.9510   20.4320 H   0  0  0  0  0  0  0  0  0  0  0  0
  -26.3580  -15.7110   19.9820 H   0  0  0  0  0  0  0  0  0  0  0  0
  1 46  1  0
  4  2  1  6
  4  5  1  0
  4  1  1  0
  4  3  1  0
  6 17  2  0
  7  5  1  0
  7 12  1  0
  8 16  1  0
  8 18  1  0
  9 15  1  0
  9 11  1  0
 10 16  1  0
 11 10  1  0
 12 11  2  0
 13 14  1  0
 13  7  2  0
 14  9  2  0
 15  8  1  0
 16  6  1  0
 18 20  2  0
 19 18  1  0
 21 19  1  0
 22 31  2  0
 22 27  1  0
 23 19  1  0
 23 27  1  0
 24 23  1  0
 25 26  1  0
 25 24  1  0
 26 22  1  0
 27 28  2  0
 28 29  1  0
 30 29  2  0
 31 30  1  0
 32  6  1  0
 32 37  1  0
 32 33  1  0
 33 36  1  1
 33 34  1  0
 35 33  1  0
 37 40  1  0
 38 42  1  0
 38 37  1  0
 39 38  2  0
 42 41  1  0
 44 42  1  0
 44 45  1  0
 44 43  1  0
 47 49  1  0
 47 50  1  0
 49 52  1  0
 49 48  1  0
 50 46  1  0
 50 48  1  0
 50 51  1  6
 52 54  2  0
 52 53  1  0
 55 61  1  0
 55 54  1  0
 56 61  1  0
 57 58  1  0
 57 56  1  0
 59 58  1  0
 59 66  1  0
 59 60  1  0
 61 60  1  0
 62 55  2  0
 63 64  2  0
 64 83  1  0
 65 64  1  0
 65 68  1  0
 66 67  1  0
 66 63  1  0
 67 65  2  0
 68 69  1  0
 69 70  2  0
 71 74  1  0
 71 70  1  0
 72 71  2  0
 73 72  1  0
 73 68  2  0
 74 75  1  0
 75 76  1  0
 76 77  2  0
 78 77  1  0
 78 82  1  0
 79 78  2  0
 80 75  2  0
 80 79  1  0
 81 80  1  0
 83 84  1  0
 84 87  1  0
 84 86  1  0
 85 83  2  0
 88 89  1  0
 88 63  1  0
 90 88  1  0
M  ISO  4   4 101   5 101  54 100  55 100
M  END
>  <TORSDO>  (97) 
F 20

>  <SCORE>  (97) 
-13.521

>  <name>  (97) 
96

>  <ligand_id>  (97) 
96

>  <original_smiles>  (97) 
[H]c1c([H])c([H])c2c(c1[H])C([H])([H])C([H])([H])C([H])([H])C2([H])N([H])C(=O)C1([H])N(C(=O)C([H])(N([H])C(=O)C([H])(N([H])C([H])([H])[H])C([H])([H])[H])C(C([H])([H])[H])(C([H])([H])[H])C([H])([H])[H])C([H])([H])c2c([H])c(OC(C([H])([H])[H])(C([H])([H])[H])C([H])([H])C([H])([H])[N+]3([H])C([H])([H])C([H])(C(=NC(=O)N4C([H])([H])C([H])([H])C([H])([H])C([H])(n5nc(-c6c([H])c([H])c(Oc7c([H])c([H])c(F)c([H])c7F)c([H])c6[H])c(C(=O)N([H])[H])c5N([H])[H])C4([H])[H])C([H])([H])[H])C3([H])[H])c([H])c([H])c2C1([H])[H]

>  <smiles>  (97) 
[H]c1c([H])c([H])c2c(c1[H])C([H])([H])C([H])([H])C([H])([H])C2([H])N([H])C(=O)C1([H])N(C(=O)C([H])(N([H])C(=O)C([H])(N([H])C([H])([H])[H])C([H])([H])[H])C(C([H])([H])[H])(C([H])([H])[H])C([H])([H])[H])C([H])([H])c2c([H])c(OC(C([H])([H])[H])(C([H])([H])[H])C([H])([H])C([H])([H])[N+]3([H])C([H])([H])C([H])(C(=NC(=O)N4C([H])([H])C([H])([H])C([H])([H])C([H])(n5nc(-c6c([H])c([H])c(Oc7c([H])c([H])c(F)c([H])c7F)c([H])c6[H])c(C(=O)N([H])[H])c5N([H])[H])C4([H])[H])C([H])([H])[H])C3([H])[H])c([H])c([H])c2C1([H])[H]

$$$$
97:0:0
     RDKit          3D

 99107  0  0  1  0  0  0  0  0999 V2000
  -31.1020  -19.2350   20.5820 C   0  0  0  0  0  0  0  0  0  0  0  0
  -32.1880  -19.1250   20.0030 O   0  0  0  0  0  0  0  0  0  0  0  0
  -29.0950  -20.7510   21.1650 C   0  0  0  0  0  3  0  0  0  0  0  0
  -31.1900  -21.7440   20.4530 C   0  0  0  0  0  3  0  0  0  0  0  0
  -28.5220  -22.0400   21.2600 C   0  0  0  0  0  3  0  0  0  0  0  0
  -30.6220  -23.0310   20.5580 C   0  0  0  0  0  3  0  0  0  0  0  0
  -30.4400  -20.5800   20.7490 C   0  0  0  0  0  0  0  0  0  0  0  0
  -29.2770  -23.1940   20.9520 C   0  0  0  0  0  0  0  0  0  0  0  0
  -28.6730  -24.5930   21.1160 C   0  0  0  0  0  2  0  0  0  0  0  0
  -28.7320  -25.4920   19.8590 C   0  0  0  0  0  2  0  0  0  0  0  0
  -28.5600  -26.8710   20.2080 O   0  0  0  0  0  0  0  0  0  0  0  0
  -24.6230  -31.9310   23.2520 C   0  0  0  0  0  0  0  0  0  0  0  0
  -27.3270  -27.4940   20.2130 C   0  0  0  0  0  0  0  0  0  0  0  0
  -23.4300  -30.5010   21.6230 C   0  0  0  0  0  3  0  0  0  0  0  0
  -24.8980  -28.9560   20.2210 C   0  0  0  0  0  0  0  0  0  0  0  0
  -25.9480  -30.8890   21.4140 C   0  0  0  0  0  2  0  0  0  0  0  0
  -26.0480  -29.5090   20.7950 C   0  0  0  0  0  0  0  0  0  0  0  0
  -27.2600  -28.7850   20.7850 C   0  0  0  0  0  3  0  0  0  0  0  0
  -26.1510  -26.9400   19.6540 C   0  0  0  0  0  3  0  0  0  0  0  0
  -24.9440  -27.6680   19.6580 C   0  0  0  0  0  3  0  0  0  0  0  0
  -23.6450  -29.8020   20.2540 C   0  0  0  0  0  2  0  0  0  0  0  0
  -24.6860  -31.1230   22.1550 N   0  0  0  0  0  0  0  0  0  0  0  0
  -23.5400  -32.1980   23.7880 O   0  0  0  0  0  0  0  0  0  0  0  0
  -22.7870  -29.4870   22.5940 C   0  0  0  0  0  0  0  0  0  0  0  0
  -21.4670  -29.2880   22.4630 N   0  0  0  0  0  0  0  0  0  0  0  0
  -23.4760  -28.8770   23.4170 O   0  0  0  0  0  0  0  0  0  0  0  0
  -20.9730  -29.8330   21.7690 H   0  0  0  0  0  0  0  0  0  0  0  0
  -18.1020  -28.0760   22.9700 C   0  0  0  0  0  0  0  0  0  0  0  0
  -20.6580  -28.3490   23.2380 C   0  0  0  0  0  3  0  0  0  0  0  0
  -20.7680  -26.9170   22.6680 C   0  0  0  0  0  2  0  0  0  0  0  0
  -19.6660  -26.5820   21.6560 C   0  0  0  0  0  2  0  0  0  0  0  0
  -18.2850  -26.7240   22.3010 C   0  0  0  0  0  2  0  0  0  0  0  0
  -19.2170  -28.8460   23.3960 C   0  0  0  0  0  0  0  0  0  0  0  0
  -18.9920  -30.1120   23.9790 C   0  0  0  0  0  3  0  0  0  0  0  0
  -17.6860  -30.6080   24.1420 C   0  0  0  0  0  3  0  0  0  0  0  0
  -16.5850  -29.8350   23.7340 C   0  0  0  0  0  3  0  0  0  0  0  0
  -16.7940  -28.5710   23.1540 C   0  0  0  0  0  3  0  0  0  0  0  0
  -25.9030  -32.5790   23.8670 C   0  0  0  0  0  3  0  0  0  0  0  0
  -26.4280  -31.8220   25.1480 C   0  0  1  0  0  0  0  0  0  0  0  0
  -25.3370  -31.5780   26.2180 C   0  0  0  0  0  1  0  0  0  0  0  0
  -27.0280  -30.4510   24.7600 C   0  0  0  0  0  1  0  0  0  0  0  0
  -27.5670  -32.6350   25.8050 C   0  0  0  0  0  1  0  0  0  0  0  0
  -25.5820  -33.9760   24.1830 N   0  0  0  0  0  0  0  0  0  0  0  0
  -25.9230  -35.0250   23.4230 C   0  0  0  0  0  0  0  0  0  0  0  0
  -26.6130  -34.9190   22.4050 O   0  0  0  0  0  0  0  0  0  0  0  0
  -24.9680  -34.1320   24.9690 H   0  0  0  0  0  0  0  0  0  0  0  0
  -24.2050  -36.8160   23.0140 C   0  0  0  0  0  1  0  0  0  0  0  0
  -25.4220  -36.4140   23.8630 C   0  0  0  0  0  3  0  0  0  0  0  0
  -27.5280  -37.3050   24.7560 C   0  0  0  0  0  1  0  0  0  0  0  0
  -26.4550  -37.4680   23.7770 N   0  0  0  0  0  0  0  0  0  0  0  0
  -26.0440  -38.3880   23.9090 H   0  0  0  0  0  0  0  0  0  0  0  0
  -30.4260  -17.9820   21.1490 C   0  0  0  0  0  0  0  0  0  0  0  0
  -30.3380  -17.7500   22.3950 N   0  0  0  0  0  0  0  0  0  0  0  0
  -30.7870  -18.4890   22.9270 H   0  0  0  0  0  0  0  0  0  0  0  0
  -29.7720  -16.9650   20.1750 C   0  0  0  0  0  3  0  0  0  0  0  0
  -30.6570  -14.5780   20.3080 C   0  0  0  0  0  0  0  0  0  0  0  0
  -30.3540  -12.4900   19.0560 C   0  0  0  0  0  2  0  0  0  0  0  0
  -29.3680  -12.7890   17.9050 C   0  0  0  0  0  2  0  0  0  0  0  0
  -27.9050  -12.6310   18.3730 C   0  0  0  0  0  2  0  0  0  0  0  0
  -27.6200  -13.3640   19.7110 C   0  0  0  0  0  3  0  0  0  0  0  0
  -28.7150  -13.0450   20.7580 C   0  0  0  0  0  2  0  0  0  0  0  0
  -30.0220  -13.3860   20.1710 N   0  0  0  0  0  0  0  0  0  0  0  0
  -31.7780  -14.8120   19.8510 O   0  0  0  0  0  0  0  0  0  0  0  0
  -29.8280  -15.5700   20.6780 N   0  0  0  0  0  0  0  0  0  0  0  0
  -29.0010  -15.2660   21.1680 H   0  0  0  0  0  0  0  0  0  0  0  0
  -25.2310  -13.9250   20.4970 C   0  0  0  0  0  0  0  0  0  0  0  0
  -24.1860  -13.1290   20.8810 C   0  0  0  0  0  0  0  0  0  0  0  0
  -24.6660  -11.7860   20.8060 C   0  0  0  0  0  0  0  0  0  0  0  0
  -26.2820  -13.0640   20.2170 N   0  0  0  0  0  0  0  0  0  0  0  0
  -25.9470  -11.7720   20.4600 N   0  0  0  0  0  0  0  0  0  0  0  0
  -23.9650  -10.5100   20.9900 C   0  0  0  0  0  0  0  0  0  0  0  0
  -24.4040   -9.5580   21.9370 C   0  0  0  0  0  3  0  0  0  0  0  0
  -23.7050   -8.3430   22.1080 C   0  0  0  0  0  3  0  0  0  0  0  0
  -22.5530   -8.0740   21.3320 C   0  0  0  0  0  0  0  0  0  0  0  0
  -22.1350   -9.0140   20.3730 C   0  0  0  0  0  3  0  0  0  0  0  0
  -22.8330  -10.2200   20.2010 C   0  0  0  0  0  3  0  0  0  0  0  0
  -21.8240   -6.9120   21.4130 O   0  0  0  0  0  0  0  0  0  0  0  0
  -21.7300   -6.2010   22.5810 C   0  0  0  0  0  0  0  0  0  0  0  0
  -21.2160   -6.7750   23.7650 C   0  0  0  0  0  3  0  0  0  0  0  0
  -21.0700   -5.9880   24.9240 C   0  0  0  0  0  3  0  0  0  0  0  0
  -21.4290   -4.6260   24.9030 C   0  0  0  0  0  0  0  0  0  0  0  0
  -21.9370   -4.0510   23.7230 C   0  0  0  0  0  3  0  0  0  0  0  0
  -22.0840   -4.8360   22.5670 C   0  0  0  0  0  0  0  0  0  0  0  0
  -22.5510   -4.2700   21.4280 F   0  0  0  0  0  0  0  0  0  0  0  0
  -21.2830   -3.8670   26.0130 F   0  0  0  0  0  0  0  0  0  0  0  0
  -22.7880  -13.5780   21.2030 C   0  0  0  0  0  0  0  0  0  0  0  0
  -22.0940  -12.8480   22.0690 N   0  0  0  0  0  0  0  0  0  0  0  0
  -22.3210  -14.6090   20.7220 O   0  0  0  0  0  0  0  0  0  0  0  0
  -22.4850  -12.0170   22.4880 H   0  0  0  0  0  0  0  0  0  0  0  0
  -21.1550  -13.1270   22.3190 H   0  0  0  0  0  0  0  0  0  0  0  0
  -25.3710  -15.3020   20.3410 N   0  0  0  0  0  0  0  0  0  0  0  0
  -24.5950  -15.9390   20.4840 H   0  0  0  0  0  0  0  0  0  0  0  0
  -26.1920  -15.7610   19.9710 H   0  0  0  0  0  0  0  0  0  0  0  0
  -30.1070  -17.0620   18.6460 C   0  0  0  0  0  2  0  0  0  0  0  0
  -29.4740  -18.2520   17.8790 C   0  0  0  0  0  2  0  0  0  0  0  0
  -29.7720  -18.2150   16.4340 N   0  0  0  0  0  4  0  0  0  0  0  0
  -30.7590  -18.2980   16.2630 H   0  0  0  0  0  0  0  0  0  0  0  0
  -29.3150  -18.9840   15.9730 H   0  0  0  0  0  0  0  0  0  0  0  0
  -29.4400  -17.3670   16.0110 H   0  0  0  0  0  0  0  0  0  0  0  0
  1  7  1  0
  1 52  1  0
  2  1  2  0
  3  5  1  0
  4  6  2  0
  4  7  1  0
  6  8  1  0
  7  3  2  0
  8  9  1  0
  8  5  2  0
 10 11  1  0
 10  9  1  0
 11 13  1  0
 12 23  2  0
 13 18  1  0
 14 22  1  0
 14 24  1  0
 15 21  1  0
 15 17  1  0
 16 22  1  0
 17 16  1  0
 18 17  2  0
 19 20  1  0
 19 13  2  0
 20 15  2  0
 21 14  1  0
 22 12  1  0
 24 26  2  0
 25 24  1  0
 27 25  1  0
 28 37  2  0
 28 33  1  0
 29 25  1  0
 29 33  1  0
 30 29  1  0
 31 32  1  0
 31 30  1  0
 32 28  1  0
 33 34  2  0
 34 35  1  0
 36 35  2  0
 37 36  1  0
 38 12  1  0
 38 43  1  0
 38 39  1  0
 39 42  1  1
 39 40  1  0
 41 39  1  0
 43 46  1  0
 44 48  1  0
 44 43  1  0
 45 44  2  0
 48 47  1  0
 50 48  1  0
 50 51  1  0
 50 49  1  0
 52 53  2  0
 53 54  1  0
 55 94  1  0
 55 64  1  0
 55 52  1  0
 56 64  1  0
 57 62  1  0
 58 59  1  0
 58 57  1  0
 60 59  1  0
 60 69  1  0
 60 61  1  0
 62 56  1  0
 62 61  1  0
 63 56  2  0
 64 65  1  0
 66 67  2  0
 67 86  1  0
 68 67  1  0
 68 71  1  0
 69 70  1  0
 69 66  1  0
 70 68  2  0
 71 72  1  0
 72 73  2  0
 74 77  1  0
 74 73  1  0
 75 74  2  0
 76 75  1  0
 76 71  2  0
 77 78  1  0
 78 79  1  0
 79 80  2  0
 81 80  1  0
 81 85  1  0
 82 81  2  0
 83 78  2  0
 83 82  1  0
 84 83  1  0
 86 87  1  0
 87 90  1  0
 87 89  1  0
 88 86  2  0
 91 92  1  0
 91 66  1  0
 93 91  1  0
 95 94  1  0
 96 95  1  0
 97 96  1  0
 98 96  1  0
 99 96  1  0
M  ISO  4  10 101  11 101  56 100  64 100
M  END
>  <TORSDO>  (98) 
F 24

>  <SCORE>  (98) 
-13.146

>  <name>  (98) 
97

>  <ligand_id>  (98) 
97

>  <original_smiles>  (98) 
[H]N=C(C(=O)c1c([H])c([H])c(C([H])([H])C([H])([H])Oc2c([H])c([H])c3c(c2[H])C([H])([H])N(C(=O)C([H])(N([H])C(=O)C([H])(N([H])C([H])([H])[H])C([H])([H])[H])C(C([H])([H])[H])(C([H])([H])[H])C([H])([H])[H])C([H])(C(=O)N([H])C2([H])c4c([H])c([H])c([H])c([H])c4C([H])([H])C([H])([H])C2([H])[H])C3([H])[H])c([H])c1[H])C([H])(N([H])C(=O)N1C([H])([H])C([H])([H])C([H])([H])C([H])(n2nc(-c3c([H])c([H])c(Oc4c([H])c([H])c(F)c([H])c4F)c([H])c3[H])c(C(=O)N([H])[H])c2N([H])[H])C1([H])[H])C([H])([H])C([H])([H])[N+]([H])([H])[H]

>  <smiles>  (98) 
[H]N=C(C(=O)c1c([H])c([H])c(C([H])([H])C([H])([H])Oc2c([H])c([H])c3c(c2[H])C([H])([H])N(C(=O)C([H])(N([H])C(=O)C([H])(N([H])C([H])([H])[H])C([H])([H])[H])C(C([H])([H])[H])(C([H])([H])[H])C([H])([H])[H])C([H])(C(=O)N([H])C2([H])c4c([H])c([H])c([H])c([H])c4C([H])([H])C([H])([H])C2([H])[H])C3([H])[H])c([H])c1[H])C([H])(N([H])C(=O)N1C([H])([H])C([H])([H])C([H])([H])C([H])(n2nc(-c3c([H])c([H])c(Oc4c([H])c([H])c(F)c([H])c4F)c([H])c3[H])c(C(=O)N([H])[H])c2N([H])[H])C1([H])[H])C([H])([H])C([H])([H])[N+]([H])([H])[H]

$$$$
