0:0:0
     RDKit          3D

 97105  0  0  1  0  0  0  0  0999 V2000
  -29.2480  -18.9290   21.2960 C   0  0  0  0  0  2  0  0  0  0  0  0
  -29.0730  -19.8040   20.0660 C   0  0  0  0  0  3  0  0  0  0  0  0
  -30.0470  -18.2780   20.2000 C   0  0  2  0  0  0  0  0  0  0  0  0
  -30.4210  -15.3450   19.9230 C   0  0  0  0  0  0  0  0  0  0  0  0
  -30.3020  -12.9270   18.9740 C   0  0  0  0  0  2  0  0  0  0  0  0
  -29.2940  -12.7160   17.8180 C   0  0  0  0  0  2  0  0  0  0  0  0
  -27.8870  -12.4070   18.3630 C   0  0  0  0  0  2  0  0  0  0  0  0
  -27.4990  -13.3490   19.5250 C   0  0  0  0  0  3  0  0  0  0  0  0
  -28.6320  -13.5240   20.5660 C   0  0  0  0  0  2  0  0  0  0  0  0
  -29.8070  -14.0560   19.8430 N   0  0  0  0  0  0  0  0  0  0  0  0
  -31.6490  -15.2740   19.7670 O   0  0  0  0  0  0  0  0  0  0  0  0
  -28.3540  -16.6180   19.4230 C   0  0  0  0  0  1  0  0  0  0  0  0
  -29.6960  -16.6660   19.9810 N   0  0  0  0  0  0  0  0  0  0  0  0
  -25.1820  -13.9000   20.4490 C   0  0  0  0  0  0  0  0  0  0  0  0
  -24.1500  -13.1140   20.8760 C   0  0  0  0  0  0  0  0  0  0  0  0
  -24.6200  -11.7680   20.7840 C   0  0  0  0  0  0  0  0  0  0  0  0
  -26.2130  -13.0320   20.1260 N   0  0  0  0  0  0  0  0  0  0  0  0
  -25.8900  -11.7430   20.3960 N   0  0  0  0  0  0  0  0  0  0  0  0
  -23.9110  -10.5020   20.9880 C   0  0  0  0  0  0  0  0  0  0  0  0
  -24.3710   -9.5410   21.9150 C   0  0  0  0  0  3  0  0  0  0  0  0
  -23.6590   -8.3370   22.1080 C   0  0  0  0  0  3  0  0  0  0  0  0
  -22.4740   -8.0900   21.3760 C   0  0  0  0  0  0  0  0  0  0  0  0
  -22.0340   -9.0410   20.4400 C   0  0  0  0  0  3  0  0  0  0  0  0
  -22.7450  -10.2350   20.2430 C   0  0  0  0  0  3  0  0  0  0  0  0
  -21.7310   -6.9390   21.4820 O   0  0  0  0  0  0  0  0  0  0  0  0
  -21.6840   -6.2170   22.6460 C   0  0  0  0  0  0  0  0  0  0  0  0
  -21.1890   -6.7710   23.8480 C   0  0  0  0  0  3  0  0  0  0  0  0
  -21.0950   -5.9720   25.0040 C   0  0  0  0  0  3  0  0  0  0  0  0
  -21.4840   -4.6200   24.9590 C   0  0  0  0  0  0  0  0  0  0  0  0
  -21.9710   -4.0660   23.7620 C   0  0  0  0  0  3  0  0  0  0  0  0
  -22.0680   -4.8620   22.6080 C   0  0  0  0  0  0  0  0  0  0  0  0
  -22.5170   -4.3170   21.4510 F   0  0  0  0  0  0  0  0  0  0  0  0
  -21.3870   -3.8490   26.0680 F   0  0  0  0  0  0  0  0  0  0  0  0
  -22.7710  -13.5830   21.2360 C   0  0  0  0  0  0  0  0  0  0  0  0
  -22.0920  -12.8590   22.1170 N   0  0  0  0  0  0  0  0  0  0  0  0
  -22.3070  -14.6230   20.7720 O   0  0  0  0  0  0  0  0  0  0  0  0
  -22.4830  -12.0180   22.5140 H   0  0  0  0  0  0  0  0  0  0  0  0
  -21.1660  -13.1490   22.4000 H   0  0  0  0  0  0  0  0  0  0  0  0
  -25.3050  -15.2730   20.2770 N   0  0  0  0  0  0  0  0  0  0  0  0
  -24.5230  -15.9010   20.4250 H   0  0  0  0  0  0  0  0  0  0  0  0
  -26.1000  -15.7280   19.8510 H   0  0  0  0  0  0  0  0  0  0  0  0
  -29.1130  -21.3760   20.6330 N   0  0  0  0  0  4  0  0  0  0  0  0
  -29.9710  -21.4910   21.1480 H   0  0  0  0  0  0  0  0  0  0  0  0
  -28.4040  -21.3440   21.3500 H   0  0  0  0  0  0  0  0  0  0  0  0
  -28.8120  -22.8480   19.9250 C   0  0  0  0  0  2  0  0  0  0  0  0
  -28.2120  -24.3710   20.6580 C   0  0  0  0  0  2  0  0  0  0  0  0
  -28.3430  -25.9790   20.3480 O   0  0  0  0  0  0  0  0  0  0  0  0
  -24.6250  -31.8710   23.2670 C   0  0  0  0  0  0  0  0  0  0  0  0
  -27.2840  -27.0200   20.3430 C   0  0  0  0  0  0  0  0  0  0  0  0
  -23.4700  -30.4490   21.6220 C   0  0  0  0  0  3  0  0  0  0  0  0
  -24.9560  -28.8460   20.2430 C   0  0  0  0  0  0  0  0  0  0  0  0
  -26.0340  -30.6960   21.5080 C   0  0  0  0  0  2  0  0  0  0  0  0
  -26.1290  -29.2820   20.8730 C   0  0  0  0  0  0  0  0  0  0  0  0
  -27.2910  -28.3920   20.8910 C   0  0  0  0  0  3  0  0  0  0  0  0
  -26.0770  -26.7210   19.6760 C   0  0  0  0  0  3  0  0  0  0  0  0
  -24.9520  -27.5850   19.6250 C   0  0  0  0  0  3  0  0  0  0  0  0
  -23.7280  -29.7550   20.2560 C   0  0  0  0  0  2  0  0  0  0  0  0
  -24.7310  -31.0320   22.1870 N   0  0  0  0  0  0  0  0  0  0  0  0
  -23.5260  -32.1530   23.7710 O   0  0  0  0  0  0  0  0  0  0  0  0
  -22.7720  -29.4550   22.5850 C   0  0  0  0  0  0  0  0  0  0  0  0
  -21.4440  -29.2840   22.4470 N   0  0  0  0  0  0  0  0  0  0  0  0
  -23.4310  -28.8370   23.4240 O   0  0  0  0  0  0  0  0  0  0  0  0
  -20.9650  -29.8370   21.7500 H   0  0  0  0  0  0  0  0  0  0  0  0
  -18.0570  -28.0800   22.9360 C   0  0  0  0  0  0  0  0  0  0  0  0
  -20.6160  -28.3460   23.2130 C   0  0  0  0  0  3  0  0  0  0  0  0
  -20.7190  -26.9140   22.6370 C   0  0  0  0  0  2  0  0  0  0  0  0
  -19.6220  -26.5920   21.6180 C   0  0  0  0  0  2  0  0  0  0  0  0
  -18.2380  -26.7330   22.2560 C   0  0  0  0  0  2  0  0  0  0  0  0
  -19.1730  -28.8440   23.3710 C   0  0  0  0  0  0  0  0  0  0  0  0
  -18.9470  -30.1030   23.9690 C   0  0  0  0  0  3  0  0  0  0  0  0
  -17.6390  -30.5980   24.1360 C   0  0  0  0  0  3  0  0  0  0  0  0
  -16.5390  -29.8300   23.7140 C   0  0  0  0  0  3  0  0  0  0  0  0
  -16.7490  -28.5730   23.1210 C   0  0  0  0  0  3  0  0  0  0  0  0
  -25.8820  -32.5280   23.9150 C   0  0  0  0  0  3  0  0  0  0  0  0
  -25.5560  -33.9350   24.2080 N   0  0  0  0  0  0  0  0  0  0  0  0
  -25.9050  -34.9790   23.4440 C   0  0  0  0  0  0  0  0  0  0  0  0
  -26.5980  -34.8600   22.4310 O   0  0  0  0  0  0  0  0  0  0  0  0
  -24.9410  -34.1020   24.9910 H   0  0  0  0  0  0  0  0  0  0  0  0
  -24.1950  -36.7780   23.0210 C   0  0  0  0  0  1  0  0  0  0  0  0
  -25.4110  -36.3760   23.8700 C   0  0  0  0  0  3  0  0  0  0  0  0
  -27.5160  -37.2780   24.7590 C   0  0  0  0  0  1  0  0  0  0  0  0
  -26.4490  -37.4260   23.7720 N   0  0  0  0  0  0  0  0  0  0  0  0
  -26.0390  -38.3490   23.8840 H   0  0  0  0  0  0  0  0  0  0  0  0
  -26.3550  -31.7950   25.2310 C   0  0  1  0  0  0  0  0  0  0  0  0
  -25.2270  -31.5880   26.2710 C   0  0  0  0  0  1  0  0  0  0  0  0
  -26.9530  -30.4080   24.9050 C   0  0  0  0  0  1  0  0  0  0  0  0
  -27.4800  -32.6120   25.9080 C   0  0  0  0  0  1  0  0  0  0  0  0
  -31.5930  -18.3330   20.1230 C   0  0  0  0  0  2  0  0  0  0  0  0
  -33.8650  -19.0350   19.4720 C   0  0  0  0  0  1  0  0  0  0  0  0
  -32.4340  -19.5900   19.7150 C   0  0  2  0  0  0  0  0  0  0  0  0
  -33.5560  -21.7150   20.8410 C   0  0  0  0  0  1  0  0  0  0  0  0
  -32.5000  -20.5950   20.9040 C   0  0  0  0  0  2  0  0  0  0  0  0
  -31.8860  -20.1840   18.3760 C   0  0  0  0  0  2  0  0  0  0  0  0
  -32.8050  -21.1220   17.7110 N   0  0  0  0  0  4  0  0  0  0  0  0
  -33.0190  -21.9020   18.3070 H   0  0  0  0  0  0  0  0  0  0  0  0
  -32.3870  -21.4720   16.8670 H   0  0  0  0  0  0  0  0  0  0  0  0
  -33.6610  -20.6590   17.4610 H   0  0  0  0  0  0  0  0  0  0  0  0
  2  3  1  0
  2 42  1  0
  2  1  1  0
  3 88  1  1
  3  1  1  0
  4 13  1  0
  5 10  1  0
  6  7  1  0
  6  5  1  0
  8  7  1  0
  8 17  1  0
  8  9  1  0
 10  4  1  0
 10  9  1  0
 11  4  2  0
 12 13  1  0
 13  3  1  0
 14 15  2  0
 15 34  1  0
 16 15  1  0
 16 19  1  0
 17 18  1  0
 17 14  1  0
 18 16  2  0
 19 20  1  0
 20 21  2  0
 22 25  1  0
 22 21  1  0
 23 22  2  0
 24 23  1  0
 24 19  2  0
 25 26  1  0
 26 27  1  0
 27 28  2  0
 29 28  1  0
 29 33  1  0
 30 29  2  0
 31 26  2  0
 31 30  1  0
 32 31  1  0
 34 35  1  0
 35 38  1  0
 35 37  1  0
 36 34  2  0
 39 40  1  0
 39 14  1  0
 41 39  1  0
 42 43  1  0
 42 44  1  0
 45 42  1  0
 45 46  1  0
 47 46  1  0
 48 59  2  0
 49 47  1  0
 49 54  1  0
 50 58  1  0
 50 60  1  0
 51 57  1  0
 51 53  1  0
 52 58  1  0
 53 54  2  0
 53 52  1  0
 55 49  2  0
 56 55  1  0
 56 51  2  0
 57 50  1  0
 58 48  1  0
 60 62  2  0
 61 60  1  0
 63 61  1  0
 64 73  2  0
 64 69  1  0
 65 61  1  0
 65 69  1  0
 66 65  1  0
 67 68  1  0
 67 66  1  0
 68 64  1  0
 69 70  2  0
 70 71  1  0
 72 71  2  0
 73 72  1  0
 74 48  1  0
 74 75  1  0
 74 84  1  0
 75 78  1  0
 76 80  1  0
 76 75  1  0
 77 76  2  0
 80 79  1  0
 82 80  1  0
 82 83  1  0
 82 81  1  0
 84 87  1  1
 84 85  1  0
 86 84  1  0
 90 89  1  6
 90 88  1  0
 90 92  1  0
 91 92  1  0
 93 90  1  0
 94 95  1  0
 94 93  1  0
 96 94  1  0
 97 94  1  0
M  ISO  4   4 100  13 100  46 101  47 101
M  END
>  <TORSDO>  (1) 
F 24

>  <SCORE>  (1) 
-13.439

>  <name>  (1) 
0

>  <ligand_id>  (1) 
0

>  <original_smiles>  (1) 
[H]c1c([H])c([H])c2c(c1[H])C([H])([H])C([H])([H])C([H])([H])C2([H])N([H])C(=O)C1([H])N(C(=O)C([H])(N([H])C(=O)C([H])(N([H])C([H])([H])[H])C([H])([H])[H])C(C([H])([H])[H])(C([H])([H])[H])C([H])([H])[H])C([H])([H])c2c([H])c(OC([H])([H])C([H])([H])[N+]([H])([H])C3([H])C([H])([H])C3(N(C(=O)N3C([H])([H])C([H])([H])C([H])([H])C([H])(n4nc(-c5c([H])c([H])c(Oc6c([H])c([H])c(F)c([H])c6F)c([H])c5[H])c(C(=O)N([H])[H])c4N([H])[H])C3([H])[H])C([H])([H])[H])C([H])([H])C(C([H])([H])[H])(C([H])([H])C([H])([H])[H])C([H])([H])[N+]([H])([H])[H])c([H])c([H])c2C1([H])[H]

>  <smiles>  (1) 
[H]c1c([H])c([H])c2c(c1[H])C([H])([H])C([H])([H])C([H])([H])C2([H])N([H])C(=O)C1([H])N(C(=O)C([H])(N([H])C(=O)C([H])(N([H])C([H])([H])[H])C([H])([H])[H])C(C([H])([H])[H])(C([H])([H])[H])C([H])([H])[H])C([H])([H])c2c([H])c(OC([H])([H])C([H])([H])[N+]([H])([H])C3([H])C([H])([H])C3(N(C(=O)N3C([H])([H])C([H])([H])C([H])([H])C([H])(n4nc(-c5c([H])c([H])c(Oc6c([H])c([H])c(F)c([H])c6F)c([H])c5[H])c(C(=O)N([H])[H])c4N([H])[H])C3([H])[H])C([H])([H])[H])C([H])([H])C(C([H])([H])[H])(C([H])([H])C([H])([H])[H])C([H])([H])[N+]([H])([H])[H])c([H])c([H])c2C1([H])[H]

$$$$
1:0:0
     RDKit          3D

 92100  0  0  1  0  0  0  0  0999 V2000
  -28.2590  -18.4220   20.8080 C   0  0  0  0  0  3  0  0  0  0  0  0
  -30.3120  -19.1430   19.7270 C   0  0  0  0  0  3  0  0  0  0  0  0
  -27.8910  -19.7770   20.9870 C   0  0  0  0  0  3  0  0  0  0  0  0
  -29.9400  -20.4900   19.8880 C   0  0  0  0  0  3  0  0  0  0  0  0
  -29.4710  -18.0960   20.1630 C   0  0  0  0  0  0  0  0  0  0  0  0
  -28.7180  -20.8220   20.5130 C   0  0  0  0  0  0  0  0  0  0  0  0
  -29.8500  -16.7190   19.7860 C   0  0  0  0  0  0  0  0  0  0  0  0
  -30.4920  -15.8510   20.6220 C   0  0  0  0  0  0  0  0  0  0  0  0
  -29.4910  -16.4380   18.3270 C   0  0  0  0  0  1  0  0  0  0  0  0
  -30.7850  -16.1630   22.0810 C   0  0  0  0  0  1  0  0  0  0  0  0
  -31.1090  -14.6440   20.0660 C   0  0  0  0  0  0  0  0  0  0  0  0
  -30.6870  -12.4880   18.9500 C   0  0  0  0  0  2  0  0  0  0  0  0
  -29.7300  -12.6700   17.7560 C   0  0  0  0  0  2  0  0  0  0  0  0
  -28.2620  -12.5970   18.2160 C   0  0  0  0  0  2  0  0  0  0  0  0
  -27.9670  -13.4550   19.4770 C   0  0  0  0  0  3  0  0  0  0  0  0
  -29.0450  -13.2620   20.5640 C   0  0  0  0  0  2  0  0  0  0  0  0
  -30.3580  -13.5110   19.9570 N   0  0  0  0  0  0  0  0  0  0  0  0
  -32.2350  -14.7220   19.5730 O   0  0  0  0  0  0  0  0  0  0  0  0
  -25.5970  -14.0820   20.2560 C   0  0  0  0  0  0  0  0  0  0  0  0
  -24.5310  -13.3180   20.6510 C   0  0  0  0  0  0  0  0  0  0  0  0
  -24.9790  -11.9620   20.6110 C   0  0  0  0  0  0  0  0  0  0  0  0
  -26.6270  -13.1910   19.9970 N   0  0  0  0  0  0  0  0  0  0  0  0
  -26.2620  -11.9120   20.2720 N   0  0  0  0  0  0  0  0  0  0  0  0
  -24.2470  -10.7050   20.8180 C   0  0  0  0  0  0  0  0  0  0  0  0
  -24.6560   -9.7630   21.7860 C   0  0  0  0  0  3  0  0  0  0  0  0
  -23.9240   -8.5710   21.9800 C   0  0  0  0  0  3  0  0  0  0  0  0
  -22.7680   -8.3150   21.2050 C   0  0  0  0  0  0  0  0  0  0  0  0
  -22.3780   -9.2460   20.2260 C   0  0  0  0  0  3  0  0  0  0  0  0
  -23.1110  -10.4290   20.0310 C   0  0  0  0  0  3  0  0  0  0  0  0
  -22.0080   -7.1730   21.3060 O   0  0  0  0  0  0  0  0  0  0  0  0
  -21.8830   -6.4960   22.4920 C   0  0  0  0  0  0  0  0  0  0  0  0
  -21.3660   -7.1130   23.6510 C   0  0  0  0  0  3  0  0  0  0  0  0
  -21.1870   -6.3600   24.8300 C   0  0  0  0  0  3  0  0  0  0  0  0
  -21.5160   -4.9920   24.8490 C   0  0  0  0  0  0  0  0  0  0  0  0
  -22.0260   -4.3750   23.6930 C   0  0  0  0  0  3  0  0  0  0  0  0
  -22.2070   -5.1240   22.5170 C   0  0  0  0  0  0  0  0  0  0  0  0
  -22.6780   -4.5190   21.4000 F   0  0  0  0  0  0  0  0  0  0  0  0
  -21.3390   -4.2670   25.9780 F   0  0  0  0  0  0  0  0  0  0  0  0
  -23.1450  -13.8080   20.9560 C   0  0  0  0  0  0  0  0  0  0  0  0
  -22.4370  -13.1240   21.8490 N   0  0  0  0  0  0  0  0  0  0  0  0
  -22.6990  -14.8310   20.4390 O   0  0  0  0  0  0  0  0  0  0  0  0
  -22.8110  -12.2970   22.2890 H   0  0  0  0  0  0  0  0  0  0  0  0
  -21.5080  -13.4330   22.0960 H   0  0  0  0  0  0  0  0  0  0  0  0
  -25.7720  -15.4490   20.0720 N   0  0  0  0  0  0  0  0  0  0  0  0
  -25.0190  -16.1160   20.1970 H   0  0  0  0  0  0  0  0  0  0  0  0
  -26.6240  -15.8710   19.7230 H   0  0  0  0  0  0  0  0  0  0  0  0
  -28.2410  -22.2770   20.6000 C   0  0  0  0  0  2  0  0  0  0  0  0
  -29.3070  -23.3150   20.9910 C   0  0  0  0  0  0  0  0  0  0  0  0
  -30.0700  -23.1280   21.9430 O   0  0  0  0  0  0  0  0  0  0  0  0
  -29.3940  -24.6040   20.1610 C   0  0  0  0  0  2  0  0  0  0  0  0
  -28.4220  -25.6880   20.6560 C   0  0  0  0  0  2  0  0  0  0  0  0
  -28.4900  -26.8650   19.8390 O   0  0  0  0  0  0  0  0  0  0  0  0
  -24.7080  -31.8680   23.1770 C   0  0  0  0  0  0  0  0  0  0  0  0
  -27.3330  -27.6040   19.8710 C   0  0  0  0  0  0  0  0  0  0  0  0
  -23.4820  -30.5190   21.5040 C   0  0  0  0  0  3  0  0  0  0  0  0
  -24.9230  -29.0630   19.9850 C   0  0  0  0  0  0  0  0  0  0  0  0
  -25.9950  -30.9260   21.2640 C   0  0  0  0  0  2  0  0  0  0  0  0
  -26.0850  -29.5850   20.5690 C   0  0  0  0  0  0  0  0  0  0  0  0
  -27.2970  -28.8630   20.5080 C   0  0  0  0  0  3  0  0  0  0  0  0
  -26.1590  -27.0950   19.2750 C   0  0  0  0  0  3  0  0  0  0  0  0
  -24.9540  -27.8170   19.3340 C   0  0  0  0  0  3  0  0  0  0  0  0
  -23.6680  -29.9000   20.0940 C   0  0  0  0  0  2  0  0  0  0  0  0
  -24.7470  -31.1170   22.0410 N   0  0  0  0  0  0  0  0  0  0  0  0
  -23.6360  -32.1040   23.7520 O   0  0  0  0  0  0  0  0  0  0  0  0
  -22.8650  -29.4510   22.4360 C   0  0  0  0  0  0  0  0  0  0  0  0
  -21.5400  -29.2570   22.3290 N   0  0  0  0  0  0  0  0  0  0  0  0
  -23.5740  -28.8010   23.2080 O   0  0  0  0  0  0  0  0  0  0  0  0
  -21.0290  -29.8370   21.6790 H   0  0  0  0  0  0  0  0  0  0  0  0
  -18.1910  -28.0070   22.8470 C   0  0  0  0  0  0  0  0  0  0  0  0
  -20.7510  -28.2800   23.0770 C   0  0  0  0  0  3  0  0  0  0  0  0
  -20.8550  -26.8750   22.4400 C   0  0  0  0  0  2  0  0  0  0  0  0
  -19.7350  -26.5840   21.4360 C   0  0  0  0  0  2  0  0  0  0  0  0
  -18.3660  -26.6880   22.1140 C   0  0  0  0  0  2  0  0  0  0  0  0
  -19.3110  -28.7620   23.2860 C   0  0  0  0  0  0  0  0  0  0  0  0
  -19.0930  -29.9980   23.9320 C   0  0  0  0  0  3  0  0  0  0  0  0
  -17.7870  -30.4810   24.1430 C   0  0  0  0  0  3  0  0  0  0  0  0
  -16.6820  -29.7210   23.7220 C   0  0  0  0  0  3  0  0  0  0  0  0
  -16.8850  -28.4870   23.0800 C   0  0  0  0  0  3  0  0  0  0  0  0
  -26.0010  -32.4880   23.7930 C   0  0  0  0  0  3  0  0  0  0  0  0
  -25.6950  -33.8790   24.1540 N   0  0  0  0  0  0  0  0  0  0  0  0
  -26.0190  -34.9450   23.4090 C   0  0  0  0  0  0  0  0  0  0  0  0
  -26.6760  -34.8610   22.3680 O   0  0  0  0  0  0  0  0  0  0  0  0
  -25.1110  -34.0190   24.9640 H   0  0  0  0  0  0  0  0  0  0  0  0
  -24.2790  -36.7360   23.1120 C   0  0  0  0  0  1  0  0  0  0  0  0
  -25.5350  -36.3240   23.8970 C   0  0  0  0  0  3  0  0  0  0  0  0
  -27.6770  -37.2040   24.7090 C   0  0  0  0  0  1  0  0  0  0  0  0
  -26.5620  -37.3820   23.7830 N   0  0  0  0  0  0  0  0  0  0  0  0
  -26.1550  -38.2980   23.9500 H   0  0  0  0  0  0  0  0  0  0  0  0
  -26.5380  -31.6920   25.0450 C   0  0  1  0  0  0  0  0  0  0  0  0
  -25.4600  -31.4310   26.1240 C   0  0  0  0  0  1  0  0  0  0  0  0
  -27.1160  -30.3240   24.6130 C   0  0  0  0  0  1  0  0  0  0  0  0
  -27.6970  -32.4730   25.7060 C   0  0  0  0  0  1  0  0  0  0  0  0
  1  3  1  0
  2  4  2  0
  2  5  1  0
  4  6  1  0
  5  1  2  0
  6 47  1  0
  6  3  2  0
  7  5  1  0
  7  8  2  0
  8 10  1  0
  9  7  1  0
 11  8  1  0
 12 17  1  0
 13 14  1  0
 13 12  1  0
 15 14  1  0
 15 22  1  0
 15 16  1  0
 17 11  1  0
 17 16  1  0
 18 11  2  0
 19 20  2  0
 20 39  1  0
 21 20  1  0
 21 24  1  0
 22 19  1  0
 22 23  1  0
 23 21  2  0
 24 25  1  0
 25 26  2  0
 27 30  1  0
 27 26  1  0
 28 27  2  0
 29 28  1  0
 29 24  2  0
 30 31  1  0
 31 36  2  0
 31 32  1  0
 32 33  2  0
 33 34  1  0
 34 38  1  0
 35 34  2  0
 36 35  1  0
 37 36  1  0
 39 40  1  0
 40 43  1  0
 40 42  1  0
 41 39  2  0
 44 45  1  0
 44 19  1  0
 46 44  1  0
 47 48  1  0
 48 49  2  0
 50 51  1  0
 50 48  1  0
 52 54  1  0
 52 51  1  0
 53 64  2  0
 54 59  1  0
 55 63  1  0
 55 65  1  0
 56 62  1  0
 56 58  1  0
 57 63  1  0
 58 57  1  0
 59 58  2  0
 60 61  1  0
 60 54  2  0
 61 56  2  0
 62 55  1  0
 63 53  1  0
 65 67  2  0
 66 65  1  0
 68 66  1  0
 69 78  2  0
 69 74  1  0
 70 66  1  0
 70 74  1  0
 71 70  1  0
 72 73  1  0
 72 71  1  0
 73 69  1  0
 74 75  2  0
 75 76  1  0
 77 76  2  0
 78 77  1  0
 79 53  1  0
 79 80  1  0
 79 89  1  0
 80 83  1  0
 81 85  1  0
 81 80  1  0
 82 81  2  0
 85 84  1  0
 87 85  1  0
 87 88  1  0
 87 86  1  0
 89 92  1  1
 89 90  1  0
 91 89  1  0
M  ISO  4   8 100  11 100  51 101  52 101
M  END
>  <TORSDO>  (2) 
F 21

>  <SCORE>  (2) 
-11.911

>  <name>  (2) 
1

>  <ligand_id>  (2) 
1

>  <original_smiles>  (2) 
[H]c1c([H])c([H])c2c(c1[H])C([H])([H])C([H])([H])C([H])([H])C2([H])N([H])C(=O)C1([H])N(C(=O)C([H])(N([H])C(=O)C([H])(N([H])C([H])([H])[H])C([H])([H])[H])C(C([H])([H])[H])(C([H])([H])[H])C([H])([H])[H])C([H])([H])c2c([H])c(OC([H])([H])C([H])([H])C(=O)C([H])([H])c3c([H])c([H])c(C(=C(C(=O)N4C([H])([H])C([H])([H])C([H])([H])C([H])(n5nc(-c6c([H])c([H])c(Oc7c([H])c([H])c(F)c([H])c7F)c([H])c6[H])c(C(=O)N([H])[H])c5N([H])[H])C4([H])[H])C([H])([H])[H])C([H])([H])[H])c([H])c3[H])c([H])c([H])c2C1([H])[H]

>  <smiles>  (2) 
[H]c1c([H])c([H])c2c(c1[H])C([H])([H])C([H])([H])C([H])([H])C2([H])N([H])C(=O)C1([H])N(C(=O)C([H])(N([H])C(=O)C([H])(N([H])C([H])([H])[H])C([H])([H])[H])C(C([H])([H])[H])(C([H])([H])[H])C([H])([H])[H])C([H])([H])c2c([H])c(OC([H])([H])C([H])([H])C(=O)C([H])([H])c3c([H])c([H])c(C(=C(C(=O)N4C([H])([H])C([H])([H])C([H])([H])C([H])(n5nc(-c6c([H])c([H])c(Oc7c([H])c([H])c(F)c([H])c7F)c([H])c6[H])c(C(=O)N([H])[H])c5N([H])[H])C4([H])[H])C([H])([H])[H])C([H])([H])[H])c([H])c3[H])c([H])c([H])c2C1([H])[H]

$$$$
2:0:0
     RDKit          3D

 95103  0  0  1  0  0  0  0  0999 V2000
  -26.1910  -22.7170   20.6850 C   0  0  0  0  0  3  0  0  0  0  0  0
  -26.7290  -21.4670   20.3230 C   0  0  0  0  0  3  0  0  0  0  0  0
  -27.0420  -23.7830   21.0240 C   0  0  0  0  0  3  0  0  0  0  0  0
  -28.9790  -22.3340   20.6790 C   0  0  0  0  0  3  0  0  0  0  0  0
  -28.1260  -21.2610   20.3130 C   0  0  0  0  0  0  0  0  0  0  0  0
  -28.4460  -23.6100   21.0160 C   0  0  0  0  0  0  0  0  0  0  0  0
  -28.6360  -19.9550   19.8450 C   0  0  0  0  0  0  0  0  0  0  0  0
  -28.2120  -19.5090   18.6640 N   0  0  0  0  0  4  0  0  0  0  0  0
  -29.4830  -19.1870   20.5630 N   0  0  0  0  0  0  0  0  0  0  0  0
  -27.6010  -20.0970   18.1150 H   0  0  0  0  0  0  0  0  0  0  0  0
  -28.5160  -18.6370   18.2680 H   0  0  0  0  0  0  0  0  0  0  0  0
  -29.7950  -19.5770   21.4430 H   0  0  0  0  0  0  0  0  0  0  0  0
  -30.0490  -17.8650   20.1750 C   0  0  0  0  0  2  0  0  0  0  0  0
  -30.4360  -16.9720   21.3830 C   0  0  0  0  0  2  0  0  0  0  0  0
  -30.7710  -14.5940   20.5950 C   0  0  0  0  0  0  0  0  0  0  0  0
  -30.5070  -12.4590   19.3770 C   0  0  0  0  0  2  0  0  0  0  0  0
  -29.5840  -12.6770   18.1600 C   0  0  0  0  0  2  0  0  0  0  0  0
  -28.1000  -12.5410   18.5610 C   0  0  0  0  0  2  0  0  0  0  0  0
  -27.7430  -13.3600   19.8300 C   0  0  0  0  0  3  0  0  0  0  0  0
  -28.7730  -13.1000   20.9510 C   0  0  0  0  0  2  0  0  0  0  0  0
  -30.1090  -13.4180   20.4190 N   0  0  0  0  0  0  0  0  0  0  0  0
  -31.8910  -14.8140   20.1290 O   0  0  0  0  0  0  0  0  0  0  0  0
  -30.0600  -15.5610   21.2010 N   0  0  0  0  0  0  0  0  0  0  0  0
  -29.1470  -15.2920   21.5360 H   0  0  0  0  0  0  0  0  0  0  0  0
  -25.3270  -13.9750   20.4710 C   0  0  0  0  0  0  0  0  0  0  0  0
  -24.2500  -13.2050   20.8190 C   0  0  0  0  0  0  0  0  0  0  0  0
  -24.7120  -11.8530   20.8110 C   0  0  0  0  0  0  0  0  0  0  0  0
  -26.3780  -13.0920   20.2750 N   0  0  0  0  0  0  0  0  0  0  0  0
  -26.0100  -11.8120   20.5370 N   0  0  0  0  0  0  0  0  0  0  0  0
  -23.9830  -10.5910   20.9920 C   0  0  0  0  0  0  0  0  0  0  0  0
  -24.3940   -9.6300   21.9410 C   0  0  0  0  0  3  0  0  0  0  0  0
  -23.6670   -8.4320   22.1090 C   0  0  0  0  0  3  0  0  0  0  0  0
  -22.5120   -8.1890   21.3270 C   0  0  0  0  0  0  0  0  0  0  0  0
  -22.1190   -9.1390   20.3690 C   0  0  0  0  0  3  0  0  0  0  0  0
  -22.8490  -10.3280   20.1990 C   0  0  0  0  0  3  0  0  0  0  0  0
  -21.7570   -7.0430   21.4050 O   0  0  0  0  0  0  0  0  0  0  0  0
  -21.6830   -6.3060   22.5600 C   0  0  0  0  0  0  0  0  0  0  0  0
  -21.2230   -6.8660   23.7720 C   0  0  0  0  0  3  0  0  0  0  0  0
  -21.0970   -6.0570   24.9190 C   0  0  0  0  0  3  0  0  0  0  0  0
  -21.4190   -4.6880   24.8530 C   0  0  0  0  0  0  0  0  0  0  0  0
  -21.8700   -4.1270   23.6460 C   0  0  0  0  0  3  0  0  0  0  0  0
  -21.9990   -4.9340   22.5020 C   0  0  0  0  0  0  0  0  0  0  0  0
  -22.4140   -4.3850   21.3360 F   0  0  0  0  0  0  0  0  0  0  0  0
  -21.2890   -3.9080   25.9520 F   0  0  0  0  0  0  0  0  0  0  0  0
  -22.8440  -13.6820   21.0490 C   0  0  0  0  0  0  0  0  0  0  0  0
  -22.0930  -12.9930   21.9010 N   0  0  0  0  0  0  0  0  0  0  0  0
  -22.4200  -14.7020   20.5080 O   0  0  0  0  0  0  0  0  0  0  0  0
  -22.4450  -12.1660   22.3590 H   0  0  0  0  0  0  0  0  0  0  0  0
  -21.1500  -13.2990   22.0960 H   0  0  0  0  0  0  0  0  0  0  0  0
  -25.4970  -15.3450   20.2870 N   0  0  0  0  0  0  0  0  0  0  0  0
  -24.7290  -16.0020   20.3740 H   0  0  0  0  0  0  0  0  0  0  0  0
  -26.3560  -15.7800   19.9740 H   0  0  0  0  0  0  0  0  0  0  0  0
  -29.3930  -24.7620   21.3880 C   0  0  0  0  0  2  0  0  0  0  0  0
  -28.8010  -26.1960   21.5140 C   0  0  0  0  0  2  0  0  0  0  0  0
  -28.4240  -26.7480   20.2480 O   0  0  0  0  0  0  0  0  0  0  0  0
  -24.6090  -31.9780   23.2880 C   0  0  0  0  0  0  0  0  0  0  0  0
  -27.2890  -27.5230   20.2680 C   0  0  0  0  0  0  0  0  0  0  0  0
  -23.4200  -30.5590   21.6450 C   0  0  0  0  0  3  0  0  0  0  0  0
  -24.8940  -29.0180   20.2430 C   0  0  0  0  0  0  0  0  0  0  0  0
  -25.9460  -30.9270   21.4660 C   0  0  0  0  0  2  0  0  0  0  0  0
  -26.0420  -29.5480   20.8460 C   0  0  0  0  0  0  0  0  0  0  0  0
  -27.2440  -28.8030   20.8670 C   0  0  0  0  0  3  0  0  0  0  0  0
  -26.1340  -27.0140   19.6470 C   0  0  0  0  0  3  0  0  0  0  0  0
  -24.9320  -27.7470   19.6430 C   0  0  0  0  0  3  0  0  0  0  0  0
  -23.6440  -29.8690   20.2720 C   0  0  0  0  0  2  0  0  0  0  0  0
  -24.6760  -31.1700   22.1920 N   0  0  0  0  0  0  0  0  0  0  0  0
  -23.5230  -32.2500   23.8180 O   0  0  0  0  0  0  0  0  0  0  0  0
  -22.7680  -29.5410   22.6070 C   0  0  0  0  0  0  0  0  0  0  0  0
  -21.4450  -29.3520   22.4710 N   0  0  0  0  0  0  0  0  0  0  0  0
  -23.4470  -28.9250   23.4320 O   0  0  0  0  0  0  0  0  0  0  0  0
  -20.9560  -29.9000   21.7770 H   0  0  0  0  0  0  0  0  0  0  0  0
  -18.0740  -28.1500   22.9540 C   0  0  0  0  0  0  0  0  0  0  0  0
  -20.6280  -28.4150   23.2410 C   0  0  0  0  0  3  0  0  0  0  0  0
  -20.7370  -26.9810   22.6710 C   0  0  0  0  0  2  0  0  0  0  0  0
  -19.6420  -26.6540   21.6510 C   0  0  0  0  0  2  0  0  0  0  0  0
  -18.2560  -26.7990   22.2860 C   0  0  0  0  0  2  0  0  0  0  0  0
  -19.1870  -28.9160   23.3890 C   0  0  0  0  0  0  0  0  0  0  0  0
  -18.9620  -30.1820   23.9710 C   0  0  0  0  0  3  0  0  0  0  0  0
  -17.6550  -30.6820   24.1250 C   0  0  0  0  0  3  0  0  0  0  0  0
  -16.5560  -29.9130   23.7070 C   0  0  0  0  0  3  0  0  0  0  0  0
  -16.7650  -28.6490   23.1280 C   0  0  0  0  0  3  0  0  0  0  0  0
  -25.8880  -32.6180   23.9110 C   0  0  0  0  0  3  0  0  0  0  0  0
  -25.5760  -34.0200   24.2170 N   0  0  0  0  0  0  0  0  0  0  0  0
  -25.9220  -35.0610   23.4490 C   0  0  0  0  0  0  0  0  0  0  0  0
  -26.6080  -34.9440   22.4310 O   0  0  0  0  0  0  0  0  0  0  0  0
  -24.9710  -34.1860   25.0080 H   0  0  0  0  0  0  0  0  0  0  0  0
  -24.2040  -36.8530   23.0360 C   0  0  0  0  0  1  0  0  0  0  0  0
  -25.4260  -36.4550   23.8800 C   0  0  0  0  0  3  0  0  0  0  0  0
  -27.5430  -37.3470   24.7470 C   0  0  0  0  0  1  0  0  0  0  0  0
  -26.4630  -37.5060   23.7770 N   0  0  0  0  0  0  0  0  0  0  0  0
  -26.0550  -38.4280   23.9050 H   0  0  0  0  0  0  0  0  0  0  0  0
  -26.3970  -31.8640   25.2010 C   0  0  1  0  0  0  0  0  0  0  0  0
  -25.2940  -31.6310   26.2590 C   0  0  0  0  0  1  0  0  0  0  0  0
  -26.9930  -30.4860   24.8280 C   0  0  0  0  0  1  0  0  0  0  0  0
  -27.5330  -32.6730   25.8690 C   0  0  0  0  0  1  0  0  0  0  0  0
  1  3  1  0
  2  1  2  0
  4  6  1  0
  5  2  1  0
  5  4  2  0
  6  3  2  0
  6 53  1  0
  7  5  1  0
  7  9  1  0
  8  7  2  0
  9 12  1  0
 10  8  1  0
 11  8  1  0
 13  9  1  0
 13 14  1  0
 15 23  1  0
 16 21  1  0
 17 18  1  0
 17 16  1  0
 19 18  1  0
 19 28  1  0
 19 20  1  0
 21 15  1  0
 21 20  1  0
 22 15  2  0
 23 14  1  0
 23 24  1  0
 25 26  2  0
 26 45  1  0
 27 26  1  0
 27 30  1  0
 28 25  1  0
 28 29  1  0
 29 27  2  0
 30 31  1  0
 31 32  2  0
 33 36  1  0
 33 32  1  0
 34 33  2  0
 35 34  1  0
 35 30  2  0
 36 37  1  0
 37 38  1  0
 38 39  2  0
 40 39  1  0
 40 44  1  0
 41 40  2  0
 42 37  2  0
 42 41  1  0
 43 42  1  0
 45 46  1  0
 46 49  1  0
 46 48  1  0
 47 45  2  0
 50 51  1  0
 50 25  1  0
 52 50  1  0
 53 54  1  0
 55 57  1  0
 55 54  1  0
 56 67  2  0
 57 62  1  0
 58 66  1  0
 58 68  1  0
 59 65  1  0
 59 61  1  0
 60 66  1  0
 61 62  2  0
 61 60  1  0
 63 57  2  0
 64 63  1  0
 64 59  2  0
 65 58  1  0
 66 56  1  0
 68 70  2  0
 69 68  1  0
 71 69  1  0
 72 81  2  0
 72 77  1  0
 73 69  1  0
 73 77  1  0
 74 73  1  0
 75 76  1  0
 75 74  1  0
 76 72  1  0
 77 78  2  0
 78 79  1  0
 80 79  2  0
 81 80  1  0
 82 56  1  0
 82 83  1  0
 82 92  1  0
 83 86  1  0
 84 88  1  0
 84 83  1  0
 85 84  2  0
 88 87  1  0
 90 88  1  0
 90 91  1  0
 90 89  1  0
 92 95  1  1
 92 93  1  0
 94 92  1  0
M  ISO  4  15 100  23 100  54 101  55 101
M  END
>  <TORSDO>  (3) 
F 21

>  <SCORE>  (3) 
-12.894

>  <name>  (3) 
2

>  <ligand_id>  (3) 
2

>  <original_smiles>  (3) 
[H]c1c([H])c(C(N([H])[H])=[N+]([H])C([H])([H])C([H])([H])N([H])C(=O)N2C([H])([H])C([H])([H])C([H])([H])C([H])(n3nc(-c4c([H])c([H])c(Oc5c([H])c([H])c(F)c([H])c5F)c([H])c4[H])c(C(=O)N([H])[H])c3N([H])[H])C2([H])[H])c([H])c(C([H])([H])C([H])([H])Oc2c([H])c([H])c3c(c2[H])C([H])([H])N(C(=O)C([H])(N([H])C(=O)C([H])(N([H])C([H])([H])[H])C([H])([H])[H])C(C([H])([H])[H])(C([H])([H])[H])C([H])([H])[H])C([H])(C(=O)N([H])C2([H])c4c([H])c([H])c([H])c([H])c4C([H])([H])C([H])([H])C2([H])[H])C3([H])[H])c1[H]

>  <smiles>  (3) 
[H]c1c([H])c(C(N([H])[H])=[N+]([H])C([H])([H])C([H])([H])N([H])C(=O)N2C([H])([H])C([H])([H])C([H])([H])C([H])(n3nc(-c4c([H])c([H])c(Oc5c([H])c([H])c(F)c([H])c5F)c([H])c4[H])c(C(=O)N([H])[H])c3N([H])[H])C2([H])[H])c([H])c(C([H])([H])C([H])([H])Oc2c([H])c([H])c3c(c2[H])C([H])([H])N(C(=O)C([H])(N([H])C(=O)C([H])(N([H])C([H])([H])[H])C([H])([H])[H])C(C([H])([H])[H])(C([H])([H])[H])C([H])([H])[H])C([H])(C(=O)N([H])C2([H])c4c([H])c([H])c([H])c([H])c4C([H])([H])C([H])([H])C2([H])[H])C3([H])[H])c1[H]

$$$$
3:0:0
     RDKit          3D

 95103  0  0  1  0  0  0  0  0999 V2000
  -27.8110  -19.1020   19.3870 C   0  0  0  0  0  2  0  0  0  0  0  0
  -27.9430  -20.5730   19.0110 C   0  0  0  0  0  3  0  0  0  0  0  0
  -29.2220  -20.5710   19.8810 C   0  0  0  0  0  3  0  0  0  0  0  0
  -29.2220  -19.0780   19.7720 N   0  0  1  0  0  4  0  0  0  0  0  0
  -29.7830  -18.7700   18.9890 H   0  0  0  0  0  0  0  0  0  0  0  0
  -26.4430  -21.7780   20.7090 C   0  0  0  0  0  1  0  0  0  0  0  0
  -25.4800  -20.8970   18.5830 C   0  0  0  0  0  1  0  0  0  0  0  0
  -26.9830  -22.8810   18.5250 C   0  0  0  0  0  1  0  0  0  0  0  0
  -26.7390  -21.5260   19.2160 C   0  0  2  0  0  0  0  0  0  0  0  0
  -30.4970  -21.2930   19.3300 C   0  0  0  0  0  2  0  0  0  0  0  0
  -30.7760  -22.6920   19.9420 C   0  0  0  0  0  0  0  0  0  0  0  0
  -30.8140  -22.8330   21.1660 O   0  0  0  0  0  0  0  0  0  0  0  0
  -31.0870  -23.9070   19.0280 C   0  0  0  0  0  2  0  0  0  0  0  0
  -29.9450  -24.9610   18.9350 C   0  0  0  0  0  2  0  0  0  0  0  0
  -30.3250  -26.3410   19.2040 O   0  0  0  0  0  0  0  0  0  0  0  0
  -26.8140  -29.8730   24.3370 C   0  0  0  0  0  0  0  0  0  0  0  0
  -29.2780  -27.2000   19.5190 C   0  0  0  0  0  0  0  0  0  0  0  0
  -25.6430  -29.6470   22.1730 C   0  0  0  0  0  3  0  0  0  0  0  0
  -27.0720  -28.8480   20.2160 C   0  0  0  0  0  0  0  0  0  0  0  0
  -28.2030  -29.7050   22.2680 C   0  0  0  0  0  2  0  0  0  0  0  0
  -28.2170  -28.8370   21.0220 C   0  0  0  0  0  0  0  0  0  0  0  0
  -29.3290  -28.0290   20.6710 C   0  0  0  0  0  3  0  0  0  0  0  0
  -28.1180  -27.2550   18.7110 C   0  0  0  0  0  3  0  0  0  0  0  0
  -27.0220  -28.0640   19.0530 C   0  0  0  0  0  3  0  0  0  0  0  0
  -25.9190  -29.7260   20.6490 C   0  0  0  0  0  2  0  0  0  0  0  0
  -26.9010  -29.7240   22.9840 N   0  0  0  0  0  0  0  0  0  0  0  0
  -25.7160  -29.9840   24.9010 O   0  0  0  0  0  0  0  0  0  0  0  0
  -24.8040  -28.3810   22.4600 C   0  0  0  0  0  0  0  0  0  0  0  0
  -23.4990  -28.4410   22.1460 N   0  0  0  0  0  0  0  0  0  0  0  0
  -25.3280  -27.3690   22.9310 O   0  0  0  0  0  0  0  0  0  0  0  0
  -23.1420  -29.3100   21.7740 H   0  0  0  0  0  0  0  0  0  0  0  0
  -20.0360  -27.5420   21.6320 C   0  0  0  0  0  0  0  0  0  0  0  0
  -22.5270  -27.3570   22.2940 C   0  0  0  0  0  3  0  0  0  0  0  0
  -22.6520  -26.3340   21.1410 C   0  0  0  0  0  2  0  0  0  0  0  0
  -21.7100  -26.6280   19.9680 C   0  0  0  0  0  2  0  0  0  0  0  0
  -20.2530  -26.6270   20.4380 C   0  0  0  0  0  2  0  0  0  0  0  0
  -21.1070  -27.8960   22.4940 C   0  0  0  0  0  0  0  0  0  0  0  0
  -20.8580  -28.7790   23.5670 C   0  0  0  0  0  3  0  0  0  0  0  0
  -19.5690  -29.3000   23.7870 C   0  0  0  0  0  3  0  0  0  0  0  0
  -18.5090  -28.9320   22.9410 C   0  0  0  0  0  3  0  0  0  0  0  0
  -18.7420  -28.0510   21.8690 C   0  0  0  0  0  3  0  0  0  0  0  0
  -28.0870  -29.9370   25.2350 C   0  0  0  0  0  3  0  0  0  0  0  0
  -27.8680  -30.9850   26.2420 N   0  0  0  0  0  0  0  0  0  0  0  0
  -28.3810  -32.2210   26.1740 C   0  0  0  0  0  0  0  0  0  0  0  0
  -29.1560  -32.5770   25.2830 O   0  0  0  0  0  0  0  0  0  0  0  0
  -27.2020  -30.7800   26.9710 H   0  0  0  0  0  0  0  0  0  0  0  0
  -26.8800  -34.1600   26.7300 C   0  0  0  0  0  1  0  0  0  0  0  0
  -27.9690  -33.2200   27.2710 C   0  0  0  0  0  3  0  0  0  0  0  0
  -30.0520  -33.2270   28.5710 C   0  0  0  0  0  1  0  0  0  0  0  0
  -29.0990  -34.0160   27.7970 N   0  0  0  0  0  0  0  0  0  0  0  0
  -28.7620  -34.7740   28.3850 H   0  0  0  0  0  0  0  0  0  0  0  0
  -28.4280  -28.5610   25.9290 C   0  0  1  0  0  0  0  0  0  0  0  0
  -27.2320  -27.9330   26.6830 C   0  0  0  0  0  1  0  0  0  0  0  0
  -28.9200  -27.5320   24.8840 C   0  0  0  0  0  1  0  0  0  0  0  0
  -29.5820  -28.7530   26.9400 C   0  0  0  0  0  1  0  0  0  0  0  0
  -29.4780  -18.2410   20.9960 C   0  0  0  0  0  2  0  0  0  0  0  0
  -29.4550  -16.6920   20.7270 C   0  0  0  0  0  2  0  0  0  0  0  0
  -30.8200  -14.7730   21.5050 C   0  0  0  0  0  0  0  0  0  0  0  0
  -30.8300  -12.4060   20.7840 C   0  0  0  0  0  2  0  0  0  0  0  0
  -30.1600  -12.2720   19.4010 C   0  0  0  0  0  2  0  0  0  0  0  0
  -28.6400  -12.0930   19.5560 C   0  0  0  0  0  2  0  0  0  0  0  0
  -28.0090  -13.1450   20.5070 C   0  0  0  0  0  3  0  0  0  0  0  0
  -28.8130  -13.2690   21.8220 C   0  0  0  0  0  2  0  0  0  0  0  0
  -30.2130  -13.5530   21.4720 N   0  0  0  0  0  0  0  0  0  0  0  0
  -32.0070  -14.9340   21.2180 O   0  0  0  0  0  0  0  0  0  0  0  0
  -30.0520  -15.8440   21.7890 N   0  0  0  0  0  0  0  0  0  0  0  0
  -30.5230  -16.4270   22.4670 H   0  0  0  0  0  0  0  0  0  0  0  0
  -25.5170  -13.7350   20.7560 C   0  0  0  0  0  0  0  0  0  0  0  0
  -24.4120  -12.9580   20.9760 C   0  0  0  0  0  0  0  0  0  0  0  0
  -24.8880  -11.6170   21.0990 C   0  0  0  0  0  0  0  0  0  0  0  0
  -26.5980  -12.8660   20.7590 N   0  0  0  0  0  0  0  0  0  0  0  0
  -26.2120  -11.5910   21.0250 N   0  0  0  0  0  0  0  0  0  0  0  0
  -24.1570  -10.3520   21.2280 C   0  0  0  0  0  0  0  0  0  0  0  0
  -24.4810   -9.4130   22.2310 C   0  0  0  0  0  3  0  0  0  0  0  0
  -23.7500   -8.2100   22.3480 C   0  0  0  0  0  3  0  0  0  0  0  0
  -22.6820   -7.9390   21.4590 C   0  0  0  0  0  0  0  0  0  0  0  0
  -22.3800   -8.8680   20.4470 C   0  0  0  0  0  3  0  0  0  0  0  0
  -23.1110  -10.0610   20.3290 C   0  0  0  0  0  3  0  0  0  0  0  0
  -21.9350   -6.7850   21.4810 O   0  0  0  0  0  0  0  0  0  0  0  0
  -21.7880   -6.0430   22.6240 C   0  0  0  0  0  0  0  0  0  0  0  0
  -21.2430   -6.5940   23.8050 C   0  0  0  0  0  3  0  0  0  0  0  0
  -21.0480   -5.7780   24.9380 C   0  0  0  0  0  3  0  0  0  0  0  0
  -21.3820   -4.4120   24.8870 C   0  0  0  0  0  0  0  0  0  0  0  0
  -21.9170   -3.8610   23.7110 C   0  0  0  0  0  3  0  0  0  0  0  0
  -22.1150   -4.6740   22.5810 C   0  0  0  0  0  0  0  0  0  0  0  0
  -22.6110   -4.1330   21.4420 F   0  0  0  0  0  0  0  0  0  0  0  0
  -21.1860   -3.6260   25.9730 F   0  0  0  0  0  0  0  0  0  0  0  0
  -22.9830  -13.4190   20.9730 C   0  0  0  0  0  0  0  0  0  0  0  0
  -22.1270  -12.7610   21.7490 N   0  0  0  0  0  0  0  0  0  0  0  0
  -22.6280  -14.3960   20.3180 O   0  0  0  0  0  0  0  0  0  0  0  0
  -22.4200  -11.9670   22.2990 H   0  0  0  0  0  0  0  0  0  0  0  0
  -21.1600  -13.0530   21.7850 H   0  0  0  0  0  0  0  0  0  0  0  0
  -25.6930  -15.0970   20.5300 N   0  0  0  0  0  0  0  0  0  0  0  0
  -24.9090  -15.7390   20.4750 H   0  0  0  0  0  0  0  0  0  0  0  0
  -26.5750  -15.5210   20.2810 H   0  0  0  0  0  0  0  0  0  0  0  0
  1  4  1  0
  2  9  1  0
  2  1  1  0
  2  3  1  0
  3 10  1  0
  4  3  1  0
  4 56  1  0
  4  5  1  6
  9  7  1  6
  8  9  1  0
  9  6  1  0
 10 11  1  0
 11 12  2  0
 13 11  1  0
 14 13  1  0
 14 15  1  0
 15 17  1  0
 16 27  2  0
 17 22  1  0
 18 28  1  0
 18 26  1  0
 19 25  1  0
 19 21  1  0
 20 26  1  0
 21 20  1  0
 22 21  2  0
 23 24  1  0
 23 17  2  0
 24 19  2  0
 25 18  1  0
 26 16  1  0
 28 30  2  0
 29 28  1  0
 31 29  1  0
 32 41  2  0
 32 37  1  0
 33 29  1  0
 33 37  1  0
 34 33  1  0
 35 36  1  0
 35 34  1  0
 36 32  1  0
 37 38  2  0
 38 39  1  0
 40 39  2  0
 41 40  1  0
 42 16  1  0
 42 52  1  0
 42 43  1  0
 43 46  1  0
 44 43  1  0
 44 48  1  0
 45 44  2  0
 48 47  1  0
 48 50  1  0
 50 51  1  0
 50 49  1  0
 52 53  1  1
 52 55  1  0
 54 52  1  0
 57 56  1  0
 57 66  1  0
 58 66  1  0
 59 64  1  0
 60 61  1  0
 60 59  1  0
 62 61  1  0
 62 71  1  0
 62 63  1  0
 64 58  1  0
 64 63  1  0
 65 58  2  0
 66 67  1  0
 68 71  1  0
 68 69  2  0
 69 70  1  0
 70 73  1  0
 71 72  1  0
 72 70  2  0
 73 74  1  0
 74 75  2  0
 76 79  1  0
 76 75  1  0
 77 76  2  0
 78 77  1  0
 78 73  2  0
 79 80  1  0
 80 81  1  0
 81 82  2  0
 83 82  1  0
 83 87  1  0
 84 83  2  0
 85 80  2  0
 85 84  1  0
 86 85  1  0
 88 69  1  0
 88 89  1  0
 89 92  1  0
 89 91  1  0
 90 88  2  0
 93 68  1  0
 94 93  1  0
 95 93  1  0
M  ISO  4  14 101  15 101  58 100  66 100
M  END
>  <TORSDO>  (4) 
F 23

>  <SCORE>  (4) 
-7.323

>  <name>  (4) 
3

>  <ligand_id>  (4) 
3

>  <original_smiles>  (4) 
[H]c1c([H])c([H])c2c(c1[H])C([H])([H])C([H])([H])C([H])([H])C2([H])N([H])C(=O)C1([H])N(C(=O)C([H])(N([H])C(=O)C([H])(N([H])C([H])([H])[H])C([H])([H])[H])C(C([H])([H])[H])(C([H])([H])[H])C([H])([H])[H])C([H])([H])c2c([H])c(OC([H])([H])C([H])([H])C(=O)C([H])([H])C3([H])C([H])(C(C([H])([H])[H])(C([H])([H])[H])C([H])([H])[H])C([H])([H])[N+]3([H])C([H])([H])C([H])([H])N([H])C(=O)N3C([H])([H])C([H])([H])C([H])([H])C([H])(n4nc(-c5c([H])c([H])c(Oc6c([H])c([H])c(F)c([H])c6F)c([H])c5[H])c(C(=O)N([H])[H])c4N([H])[H])C3([H])[H])c([H])c([H])c2C1([H])[H]

>  <smiles>  (4) 
[H]c1c([H])c([H])c2c(c1[H])C([H])([H])C([H])([H])C([H])([H])C2([H])N([H])C(=O)C1([H])N(C(=O)C([H])(N([H])C(=O)C([H])(N([H])C([H])([H])[H])C([H])([H])[H])C(C([H])([H])[H])(C([H])([H])[H])C([H])([H])[H])C([H])([H])c2c([H])c(OC([H])([H])C([H])([H])C(=O)C([H])([H])C3([H])C([H])(C(C([H])([H])[H])(C([H])([H])[H])C([H])([H])[H])C([H])([H])[N+]3([H])C([H])([H])C([H])([H])N([H])C(=O)N3C([H])([H])C([H])([H])C([H])([H])C([H])(n4nc(-c5c([H])c([H])c(Oc6c([H])c([H])c(F)c([H])c6F)c([H])c5[H])c(C(=O)N([H])[H])c4N([H])[H])C3([H])[H])c([H])c([H])c2C1([H])[H]

$$$$
4:0:0
     RDKit          3D

 89 98  0  0  1  0  0  0  0  0999 V2000
  -29.4280  -21.1680   18.1100 C   0  0  0  0  0  2  0  0  0  0  0  0
  -29.2520  -21.1550   19.4390 C   0  0  2  0  0  0  0  0  0  0  0  0
  -29.9460  -19.9370   18.2120 C   0  0  0  0  0  0  0  0  0  0  0  0
  -29.7780  -19.8170   19.5840 N   0  0  0  0  0  0  0  0  0  0  0  0
  -30.4130  -19.2290   17.3220 O   0  0  0  0  0  1  0  0  0  0  0  0
  -28.8680  -22.3130   20.4290 C   0  0  0  0  0  2  0  0  0  0  0  0
  -28.8870  -23.8160   19.8380 C   0  0  0  0  0  3  0  0  0  0  0  0
  -28.2920  -25.0240   20.6990 C   0  0  0  0  0  3  0  0  0  0  0  0
  -28.4810  -26.4360   20.2620 O   0  0  0  0  0  0  0  0  0  0  0  0
  -24.6560  -31.8350   23.1930 C   0  0  0  0  0  0  0  0  0  0  0  0
  -27.3610  -27.2770   20.2240 C   0  0  0  0  0  0  0  0  0  0  0  0
  -23.4950  -30.4110   21.5450 C   0  0  0  0  0  3  0  0  0  0  0  0
  -24.9840  -28.8630   20.1570 C   0  0  0  0  0  0  0  0  0  0  0  0
  -26.0310  -30.7590   21.3950 C   0  0  0  0  0  2  0  0  0  0  0  0
  -26.1400  -29.3730   20.7660 C   0  0  0  0  0  0  0  0  0  0  0  0
  -27.3340  -28.5930   20.7840 C   0  0  0  0  0  3  0  0  0  0  0  0
  -26.1890  -26.8210   19.5850 C   0  0  0  0  0  3  0  0  0  0  0  0
  -25.0110  -27.5940   19.5580 C   0  0  0  0  0  3  0  0  0  0  0  0
  -23.7390  -29.7260   20.1760 C   0  0  0  0  0  2  0  0  0  0  0  0
  -24.7460  -31.0200   22.1020 N   0  0  0  0  0  0  0  0  0  0  0  0
  -23.5620  -32.1060   23.7090 O   0  0  0  0  0  0  0  0  0  0  0  0
  -22.8280  -29.3950   22.5010 C   0  0  0  0  0  0  0  0  0  0  0  0
  -21.5060  -29.2000   22.3500 N   0  0  0  0  0  0  0  0  0  0  0  0
  -23.4980  -28.7860   23.3390 O   0  0  0  0  0  0  0  0  0  0  0  0
  -21.0270  -29.7400   21.6430 H   0  0  0  0  0  0  0  0  0  0  0  0
  -18.1360  -27.9570   22.7820 C   0  0  0  0  0  0  0  0  0  0  0  0
  -20.6830  -28.2600   23.1130 C   0  0  0  0  0  3  0  0  0  0  0  0
  -20.8210  -26.8230   22.5580 C   0  0  0  0  0  2  0  0  0  0  0  0
  -19.7490  -26.4690   21.5220 C   0  0  0  0  0  2  0  0  0  0  0  0
  -18.3510  -26.6020   22.1290 C   0  0  0  0  0  2  0  0  0  0  0  0
  -19.2330  -28.7430   23.2300 C   0  0  0  0  0  0  0  0  0  0  0  0
  -18.9800  -30.0080   23.8000 C   0  0  0  0  0  3  0  0  0  0  0  0
  -17.6640  -30.4920   23.9250 C   0  0  0  0  0  3  0  0  0  0  0  0
  -16.5820  -29.7050   23.4950 C   0  0  0  0  0  3  0  0  0  0  0  0
  -16.8190  -28.4400   22.9300 C   0  0  0  0  0  3  0  0  0  0  0  0
  -25.9230  -32.4840   23.8350 C   0  0  0  0  0  3  0  0  0  0  0  0
  -25.5920  -33.8760   24.1670 N   0  0  0  0  0  0  0  0  0  0  0  0
  -25.9170  -34.9360   23.4140 C   0  0  0  0  0  0  0  0  0  0  0  0
  -26.6000  -34.8450   22.3900 O   0  0  0  0  0  0  0  0  0  0  0  0
  -24.9900  -34.0190   24.9650 H   0  0  0  0  0  0  0  0  0  0  0  0
  -24.1690  -36.7040   23.0370 C   0  0  0  0  0  1  0  0  0  0  0  0
  -25.4040  -36.3160   23.8670 C   0  0  0  0  0  3  0  0  0  0  0  0
  -27.5150  -37.2280   24.7340 C   0  0  0  0  0  1  0  0  0  0  0  0
  -26.4250  -37.3840   23.7740 N   0  0  0  0  0  0  0  0  0  0  0  0
  -26.0030  -38.2960   23.9230 H   0  0  0  0  0  0  0  0  0  0  0  0
  -26.4340  -31.7150   25.1140 C   0  0  1  0  0  0  0  0  0  0  0  0
  -25.3320  -31.4620   26.1690 C   0  0  0  0  0  1  0  0  0  0  0  0
  -27.0410  -30.3460   24.7240 C   0  0  0  0  0  1  0  0  0  0  0  0
  -27.5640  -32.5240   25.7950 C   0  0  0  0  0  1  0  0  0  0  0  0
  -29.6150  -18.5430   20.3860 C   0  0  0  0  0  3  0  0  0  0  0  0
  -30.3140  -17.1890   19.8180 C   0  0  0  0  0  3  0  0  0  0  0  0
  -30.7880  -14.6670   20.0860 C   0  0  0  0  0  0  0  0  0  0  0  0
  -30.4830  -12.4770   18.9190 C   0  0  0  0  0  2  0  0  0  0  0  0
  -29.4730  -12.6460   17.7600 C   0  0  0  0  0  2  0  0  0  0  0  0
  -28.0200  -12.4850   18.2560 C   0  0  0  0  0  2  0  0  0  0  0  0
  -27.7430  -13.2960   19.5530 C   0  0  0  0  0  3  0  0  0  0  0  0
  -28.8560  -13.0400   20.5880 C   0  0  0  0  0  2  0  0  0  0  0  0
  -30.1260  -13.4600   19.9710 N   0  0  0  0  0  0  0  0  0  0  0  0
  -31.9120  -14.7790   19.5800 O   0  0  0  0  0  0  0  0  0  0  0  0
  -29.4690  -15.8830   21.7920 C   0  0  0  0  0  1  0  0  0  0  0  0
  -30.0900  -15.8180   20.4650 N   0  0  0  0  0  0  0  0  0  0  0  0
  -25.3950  -13.9020   20.4020 C   0  0  0  0  0  0  0  0  0  0  0  0
  -24.3410  -13.1300   20.8090 C   0  0  0  0  0  0  0  0  0  0  0  0
  -24.7900  -11.7750   20.7310 C   0  0  0  0  0  0  0  0  0  0  0  0
  -26.4200  -13.0170   20.0990 N   0  0  0  0  0  0  0  0  0  0  0  0
  -26.0630  -11.7320   20.3560 N   0  0  0  0  0  0  0  0  0  0  0  0
  -24.0640  -10.5160   20.9330 C   0  0  0  0  0  0  0  0  0  0  0  0
  -24.5030   -9.5520   21.8660 C   0  0  0  0  0  3  0  0  0  0  0  0
  -23.7790   -8.3560   22.0560 C   0  0  0  0  0  3  0  0  0  0  0  0
  -22.5990   -8.1160   21.3120 C   0  0  0  0  0  0  0  0  0  0  0  0
  -22.1770   -9.0690   20.3670 C   0  0  0  0  0  3  0  0  0  0  0  0
  -22.9040  -10.2570   20.1760 C   0  0  0  0  0  3  0  0  0  0  0  0
  -21.8430   -6.9730   21.4120 O   0  0  0  0  0  0  0  0  0  0  0  0
  -21.7630   -6.2620   22.5820 C   0  0  0  0  0  0  0  0  0  0  0  0
  -21.2950   -6.8470   23.7800 C   0  0  0  0  0  3  0  0  0  0  0  0
  -21.1630   -6.0610   24.9420 C   0  0  0  0  0  3  0  0  0  0  0  0
  -21.4910   -4.6930   24.9080 C   0  0  0  0  0  0  0  0  0  0  0  0
  -21.9500   -4.1070   23.7150 C   0  0  0  0  0  3  0  0  0  0  0  0
  -22.0830   -4.8900   22.5550 C   0  0  0  0  0  0  0  0  0  0  0  0
  -22.5070   -4.3160   21.4040 F   0  0  0  0  0  0  0  0  0  0  0  0
  -21.3570   -3.9350   26.0220 F   0  0  0  0  0  0  0  0  0  0  0  0
  -22.9630  -13.6130   21.1590 C   0  0  0  0  0  0  0  0  0  0  0  0
  -22.2680  -12.9060   22.0440 N   0  0  0  0  0  0  0  0  0  0  0  0
  -22.5100  -14.6510   20.6780 O   0  0  0  0  0  0  0  0  0  0  0  0
  -22.6450  -12.0670   22.4580 H   0  0  0  0  0  0  0  0  0  0  0  0
  -21.3430  -13.2090   22.3140 H   0  0  0  0  0  0  0  0  0  0  0  0
  -25.5630  -15.2750   20.2420 N   0  0  0  0  0  0  0  0  0  0  0  0
  -24.8080  -15.9310   20.4020 H   0  0  0  0  0  0  0  0  0  0  0  0
  -26.4070  -15.7140   19.8980 H   0  0  0  0  0  0  0  0  0  0  0  0
  1  3  1  0
  1  2  1  0
  2  4  1  0
  2  6  1  6
  3  5  1  0
  3  2  1  0
  3  4  1  0
  4 50  1  0
  7  6  1  0
  7  8  2  0
  9  8  1  0
 10 21  2  0
 11  9  1  0
 11 16  1  0
 12 20  1  0
 12 22  1  0
 13 19  1  0
 13 15  1  0
 14 20  1  0
 15 16  2  0
 15 14  1  0
 17 11  2  0
 18 17  1  0
 18 13  2  0
 19 12  1  0
 20 10  1  0
 22 24  2  0
 23 22  1  0
 25 23  1  0
 26 35  2  0
 26 31  1  0
 27 23  1  0
 27 31  1  0
 28 27  1  0
 29 30  1  0
 29 28  1  0
 30 26  1  0
 31 32  2  0
 32 33  1  0
 34 33  2  0
 35 34  1  0
 36 10  1  0
 36 37  1  0
 36 46  1  0
 37 40  1  0
 38 42  1  0
 38 37  1  0
 39 38  2  0
 42 41  1  0
 44 42  1  0
 44 45  1  0
 44 43  1  0
 46 49  1  1
 46 47  1  0
 48 46  1  0
 51 50  2  0
 51 61  1  0
 52 61  1  0
 53 58  1  0
 54 55  1  0
 54 53  1  0
 56 55  1  0
 56 65  1  0
 56 57  1  0
 58 52  1  0
 58 57  1  0
 59 52  2  0
 61 60  1  0
 62 63  2  0
 63 82  1  0
 64 63  1  0
 64 67  1  0
 65 66  1  0
 65 62  1  0
 66 64  2  0
 67 68  1  0
 68 69  2  0
 70 73  1  0
 70 69  1  0
 71 70  2  0
 72 71  1  0
 72 67  2  0
 73 74  1  0
 74 75  1  0
 75 76  2  0
 77 76  1  0
 77 81  1  0
 78 77  2  0
 79 74  2  0
 79 78  1  0
 80 79  1  0
 82 83  1  0
 83 86  1  0
 83 85  1  0
 84 82  2  0
 87 88  1  0
 87 62  1  0
 89 87  1  0
M  ISO  4   8 101   9 101  52 100  61 100
M  END
>  <TORSDO>  (5) 
F 21

>  <SCORE>  (5) 
-12.846

>  <name>  (5) 
4

>  <ligand_id>  (5) 
4

>  <original_smiles>  (5) 
[H]C1=C(C([H])([H])C([H])([H])C([H])([H])Oc2c([H])c([H])c3c(c2[H])C([H])([H])N(C(=O)C([H])(N([H])C(=O)C([H])(N([H])C([H])([H])[H])C([H])([H])[H])C(C([H])([H])[H])(C([H])([H])[H])C([H])([H])[H])C([H])(C(=O)N([H])C2([H])c4c([H])c([H])c([H])c([H])c4C([H])([H])C([H])([H])C2([H])[H])C3([H])[H])N(C([H])([H])C([H])([H])N(C(=O)N2C([H])([H])C([H])([H])C([H])([H])C([H])(n3nc(-c4c([H])c([H])c(Oc5c([H])c([H])c(F)c([H])c5F)c([H])c4[H])c(C(=O)N([H])[H])c3N([H])[H])C2([H])[H])C([H])([H])[H])C1=O

>  <smiles>  (5) 
[H]C1=C(C([H])([H])C([H])([H])C([H])([H])Oc2c([H])c([H])c3c(c2[H])C([H])([H])N(C(=O)C([H])(N([H])C(=O)C([H])(N([H])C([H])([H])[H])C([H])([H])[H])C(C([H])([H])[H])(C([H])([H])[H])C([H])([H])[H])C([H])(C(=O)N([H])C2([H])c4c([H])c([H])c([H])c([H])c4C([H])([H])C([H])([H])C2([H])[H])C3([H])[H])N(C([H])([H])C([H])([H])N(C(=O)N2C([H])([H])C([H])([H])C([H])([H])C([H])(n3nc(-c4c([H])c([H])c(Oc5c([H])c([H])c(F)c([H])c5F)c([H])c4[H])c(C(=O)N([H])[H])c3N([H])[H])C2([H])[H])C([H])([H])[H])C1=O

$$$$
5:0:0
     RDKit          3D

 93101  0  0  1  0  0  0  0  0999 V2000
  -28.6440  -22.3100   22.9200 C   0  0  0  0  0  2  0  0  0  0  0  0
  -29.6340  -23.5730   21.0640 C   0  0  0  0  0  2  0  0  0  0  0  0
  -28.1120  -24.5460   22.0460 C   0  0  0  0  0  2  0  0  0  0  0  0
  -29.1280  -25.0190   20.9920 C   0  0  0  0  0  3  0  0  0  0  0  0
  -29.1480  -23.5960   22.4400 N   0  0  0  0  0  0  0  0  0  0  0  0
  -28.6650  -25.5900   19.6580 C   0  0  0  0  0  2  0  0  0  0  0  0
  -28.5360  -27.0060   19.7950 O   0  0  0  0  0  0  0  0  0  0  0  0
  -24.5570  -31.8560   23.1120 C   0  0  0  0  0  0  0  0  0  0  0  0
  -27.2970  -27.6010   19.8650 C   0  0  0  0  0  0  0  0  0  0  0  0
  -23.3700  -30.4670   21.4440 C   0  0  0  0  0  3  0  0  0  0  0  0
  -24.8480  -29.0110   19.9650 C   0  0  0  0  0  0  0  0  0  0  0  0
  -25.8790  -30.9080   21.2260 C   0  0  0  0  0  2  0  0  0  0  0  0
  -25.9940  -29.5580   20.5510 C   0  0  0  0  0  0  0  0  0  0  0  0
  -27.2190  -28.8590   20.5000 C   0  0  0  0  0  3  0  0  0  0  0  0
  -26.1280  -27.0590   19.2800 C   0  0  0  0  0  3  0  0  0  0  0  0
  -24.9080  -27.7580   19.3330 C   0  0  0  0  0  3  0  0  0  0  0  0
  -23.5810  -29.8300   20.0440 C   0  0  0  0  0  2  0  0  0  0  0  0
  -24.6210  -31.0900   21.9860 N   0  0  0  0  0  0  0  0  0  0  0  0
  -23.4750  -32.0800   23.6730 O   0  0  0  0  0  0  0  0  0  0  0  0
  -22.7640  -29.3980   22.3820 C   0  0  0  0  0  0  0  0  0  0  0  0
  -21.4570  -29.1380   22.2220 N   0  0  0  0  0  0  0  0  0  0  0  0
  -23.4660  -28.8060   23.2050 O   0  0  0  0  0  0  0  0  0  0  0  0
  -20.9490  -29.6710   21.5300 H   0  0  0  0  0  0  0  0  0  0  0  0
  -18.1600  -27.7100   22.5920 C   0  0  0  0  0  0  0  0  0  0  0  0
  -20.6800  -28.1460   22.9650 C   0  0  0  0  0  3  0  0  0  0  0  0
  -20.9060  -26.7260   22.3980 C   0  0  0  0  0  2  0  0  0  0  0  0
  -19.8710  -26.3250   21.3430 C   0  0  0  0  0  2  0  0  0  0  0  0
  -18.4570  -26.3740   21.9320 C   0  0  0  0  0  2  0  0  0  0  0  0
  -19.2050  -28.5490   23.0630 C   0  0  0  0  0  0  0  0  0  0  0  0
  -18.8760  -29.7960   23.6360 C   0  0  0  0  0  3  0  0  0  0  0  0
  -17.5340  -30.2060   23.7480 C   0  0  0  0  0  3  0  0  0  0  0  0
  -16.5030  -29.3650   23.2950 C   0  0  0  0  0  3  0  0  0  0  0  0
  -16.8170  -28.1200   22.7230 C   0  0  0  0  0  3  0  0  0  0  0  0
  -25.8330  -32.5030   23.7350 C   0  0  0  0  0  3  0  0  0  0  0  0
  -25.5030  -33.8950   24.0680 N   0  0  0  0  0  0  0  0  0  0  0  0
  -25.8370  -34.9550   23.3200 C   0  0  0  0  0  0  0  0  0  0  0  0
  -26.5260  -34.8650   22.3000 O   0  0  0  0  0  0  0  0  0  0  0  0
  -24.8920  -34.0380   24.8590 H   0  0  0  0  0  0  0  0  0  0  0  0
  -24.0930  -36.7270   22.9400 C   0  0  0  0  0  1  0  0  0  0  0  0
  -25.3240  -36.3350   23.7740 C   0  0  0  0  0  3  0  0  0  0  0  0
  -27.4310  -37.2390   24.6510 C   0  0  0  0  0  1  0  0  0  0  0  0
  -26.3450  -37.4000   23.6860 N   0  0  0  0  0  0  0  0  0  0  0  0
  -25.9260  -38.3150   23.8320 H   0  0  0  0  0  0  0  0  0  0  0  0
  -26.3640  -31.7350   25.0060 C   0  0  1  0  0  0  0  0  0  0  0  0
  -25.2750  -31.4690   26.0720 C   0  0  0  0  0  1  0  0  0  0  0  0
  -26.9740  -30.3720   24.6030 C   0  0  0  0  0  1  0  0  0  0  0  0
  -27.4970  -32.5470   25.6750 C   0  0  0  0  0  1  0  0  0  0  0  0
  -29.7950  -21.2820   22.9960 C   0  0  0  0  0  2  0  0  0  0  0  0
  -29.5140  -20.0440   22.2380 N   0  0  0  0  0  4  0  0  0  0  0  0
  -28.9630  -19.4380   22.8230 H   0  0  0  0  0  0  0  0  0  0  0  0
  -28.9670  -20.2720   21.4240 H   0  0  0  0  0  0  0  0  0  0  0  0
  -30.7340  -19.3340   21.8000 C   0  0  0  0  0  2  0  0  0  0  0  0
  -30.4930  -17.8420   21.5140 C   0  0  0  0  0  2  0  0  0  0  0  0
  -31.7580  -17.1680   20.9550 C   0  0  0  0  0  2  0  0  0  0  0  0
  -31.9080  -15.6870   21.3380 C   0  0  0  0  0  2  0  0  0  0  0  0
  -30.9710  -14.1720   19.5990 C   0  0  0  0  0  0  0  0  0  0  0  0
  -30.5160  -11.9610   18.6130 C   0  0  0  0  0  2  0  0  0  0  0  0
  -29.4880  -11.9720   17.4710 C   0  0  0  0  0  2  0  0  0  0  0  0
  -28.0600  -11.8600   18.0310 C   0  0  0  0  0  2  0  0  0  0  0  0
  -27.7850  -12.8930   19.1540 C   0  0  0  0  0  3  0  0  0  0  0  0
  -28.9060  -12.8700   20.2150 C   0  0  0  0  0  2  0  0  0  0  0  0
  -30.2060  -13.0560   19.5410 N   0  0  0  0  0  0  0  0  0  0  0  0
  -31.8360  -14.4560   18.7630 O   0  0  0  0  0  0  0  0  0  0  0  0
  -30.8820  -14.8190   20.7660 N   0  0  0  0  0  0  0  0  0  0  0  0
  -30.1710  -14.4800   21.3980 H   0  0  0  0  0  0  0  0  0  0  0  0
  -25.4730  -13.6030   20.0420 C   0  0  0  0  0  0  0  0  0  0  0  0
  -24.4200  -12.8780   20.5320 C   0  0  0  0  0  0  0  0  0  0  0  0
  -24.8380  -11.5120   20.5120 C   0  0  0  0  0  0  0  0  0  0  0  0
  -26.4700  -12.6810   19.7570 N   0  0  0  0  0  0  0  0  0  0  0  0
  -26.0930  -11.4210   20.0940 N   0  0  0  0  0  0  0  0  0  0  0  0
  -24.0950  -10.2820   20.8110 C   0  0  0  0  0  0  0  0  0  0  0  0
  -24.5260   -9.3840   21.8140 C   0  0  0  0  0  3  0  0  0  0  0  0
  -23.7850   -8.2150   22.0960 C   0  0  0  0  0  3  0  0  0  0  0  0
  -22.5990   -7.9360   21.3760 C   0  0  0  0  0  0  0  0  0  0  0  0
  -22.1870   -8.8210   20.3650 C   0  0  0  0  0  3  0  0  0  0  0  0
  -22.9290   -9.9800   20.0810 C   0  0  0  0  0  3  0  0  0  0  0  0
  -21.8300   -6.8140   21.5640 O   0  0  0  0  0  0  0  0  0  0  0  0
  -21.7290   -6.2070   22.7900 C   0  0  0  0  0  0  0  0  0  0  0  0
  -21.2660   -6.9000   23.9290 C   0  0  0  0  0  3  0  0  0  0  0  0
  -21.1120   -6.2180   25.1530 C   0  0  0  0  0  3  0  0  0  0  0  0
  -21.4120   -4.8450   25.2390 C   0  0  0  0  0  0  0  0  0  0  0  0
  -21.8700   -4.1530   24.1040 C   0  0  0  0  0  3  0  0  0  0  0  0
  -22.0240   -4.8310   22.8820 C   0  0  0  0  0  0  0  0  0  0  0  0
  -22.4450   -4.1540   21.7870 F   0  0  0  0  0  0  0  0  0  0  0  0
  -21.2580   -4.1900   26.4130 F   0  0  0  0  0  0  0  0  0  0  0  0
  -23.0660  -13.4090   20.9080 C   0  0  0  0  0  0  0  0  0  0  0  0
  -22.4100  -12.7810   21.8780 N   0  0  0  0  0  0  0  0  0  0  0  0
  -22.6030  -14.4150   20.3740 O   0  0  0  0  0  0  0  0  0  0  0  0
  -22.7970  -11.9670   22.3300 H   0  0  0  0  0  0  0  0  0  0  0  0
  -21.5050  -13.1210   22.1730 H   0  0  0  0  0  0  0  0  0  0  0  0
  -25.6620  -14.9600   19.8000 N   0  0  0  0  0  0  0  0  0  0  0  0
  -24.9310  -15.6470   19.9510 H   0  0  0  0  0  0  0  0  0  0  0  0
  -26.5020  -15.3570   19.3950 H   0  0  0  0  0  0  0  0  0  0  0  0
  1 48  1  0
  2  5  1  0
  3  5  1  0
  4  6  1  0
  4  2  1  0
  4  3  1  0
  5  1  1  0
  6  7  1  0
  7  9  1  0
  8 19  2  0
  9 14  1  0
 10 18  1  0
 10 20  1  0
 11 17  1  0
 11 13  1  0
 12 18  1  0
 13 12  1  0
 14 13  2  0
 15 16  1  0
 15  9  2  0
 16 11  2  0
 17 10  1  0
 18  8  1  0
 20 22  2  0
 21 20  1  0
 23 21  1  0
 24 33  2  0
 24 29  1  0
 25 21  1  0
 25 29  1  0
 26 25  1  0
 27 28  1  0
 27 26  1  0
 28 24  1  0
 29 30  2  0
 30 31  1  0
 32 31  2  0
 33 32  1  0
 34  8  1  0
 34 35  1  0
 34 44  1  0
 35 38  1  0
 36 40  1  0
 36 35  1  0
 37 36  2  0
 40 39  1  0
 42 40  1  0
 42 43  1  0
 42 41  1  0
 44 47  1  1
 44 45  1  0
 46 44  1  0
 49 50  1  0
 49 48  1  0
 51 49  1  0
 52 49  1  0
 53 52  1  0
 54 55  1  0
 54 53  1  0
 56 64  1  0
 57 62  1  0
 58 59  1  0
 58 57  1  0
 60 59  1  0
 60 69  1  0
 60 61  1  0
 62 56  1  0
 62 61  1  0
 63 56  2  0
 64 55  1  0
 64 65  1  0
 66 67  2  0
 67 86  1  0
 68 67  1  0
 68 71  1  0
 69 66  1  0
 69 70  1  0
 70 68  2  0
 71 72  1  0
 72 73  2  0
 74 77  1  0
 74 73  1  0
 75 74  2  0
 76 75  1  0
 76 71  2  0
 77 78  1  0
 78 83  2  0
 78 79  1  0
 79 80  2  0
 80 81  1  0
 81 85  1  0
 82 81  2  0
 83 82  1  0
 84 83  1  0
 86 87  1  0
 87 90  1  0
 87 89  1  0
 88 86  2  0
 91 92  1  0
 91 66  1  0
 93 91  1  0
M  ISO  4   6 101   7 101  56 100  64 100
M  END
>  <TORSDO>  (6) 
F 24

>  <SCORE>  (6) 
-9.905

>  <name>  (6) 
5

>  <ligand_id>  (6) 
5

>  <original_smiles>  (6) 
[H]c1c([H])c([H])c2c(c1[H])C([H])([H])C([H])([H])C([H])([H])C2([H])N([H])C(=O)C1([H])N(C(=O)C([H])(N([H])C(=O)C([H])(N([H])C([H])([H])[H])C([H])([H])[H])C(C([H])([H])[H])(C([H])([H])[H])C([H])([H])[H])C([H])([H])c2c([H])c(OC([H])([H])C3([H])C([H])([H])N(C([H])([H])C([H])([H])[N+]([H])([H])C([H])([H])C([H])([H])C([H])([H])C([H])([H])N([H])C(=O)N4C([H])([H])C([H])([H])C([H])([H])C([H])(n5nc(-c6c([H])c([H])c(Oc7c([H])c([H])c(F)c([H])c7F)c([H])c6[H])c(C(=O)N([H])[H])c5N([H])[H])C4([H])[H])C3([H])[H])c([H])c([H])c2C1([H])[H]

>  <smiles>  (6) 
[H]c1c([H])c([H])c2c(c1[H])C([H])([H])C([H])([H])C([H])([H])C2([H])N([H])C(=O)C1([H])N(C(=O)C([H])(N([H])C(=O)C([H])(N([H])C([H])([H])[H])C([H])([H])[H])C(C([H])([H])[H])(C([H])([H])[H])C([H])([H])[H])C([H])([H])c2c([H])c(OC([H])([H])C3([H])C([H])([H])N(C([H])([H])C([H])([H])[N+]([H])([H])C([H])([H])C([H])([H])C([H])([H])C([H])([H])N([H])C(=O)N4C([H])([H])C([H])([H])C([H])([H])C([H])(n5nc(-c6c([H])c([H])c(Oc7c([H])c([H])c(F)c([H])c7F)c([H])c6[H])c(C(=O)N([H])[H])c5N([H])[H])C4([H])[H])C3([H])[H])c([H])c([H])c2C1([H])[H]

$$$$
6:0:0
     RDKit          3D

 89 97  0  0  1  0  0  0  0  0999 V2000
  -28.6320  -20.5610   20.9920 C   0  0  0  0  0  0  0  0  0  0  0  0
  -30.5590  -20.8450   20.3070 C   0  0  0  0  0  2  0  0  0  0  0  0
  -29.7890  -19.5590   20.7120 C   0  0  0  0  0  3  0  0  0  0  0  0
  -29.4260  -21.6720   20.7920 N   0  0  0  0  0  0  0  0  0  0  0  0
  -27.4820  -20.4890   21.3740 O   0  0  0  0  0  0  0  0  0  0  0  0
  -28.0400  -17.8840   19.6910 C   0  0  0  0  0  1  0  0  0  0  0  0
  -29.5060  -18.3700   19.7120 C   0  0  0  0  0  3  0  0  0  0  0  0
  -30.4640  -17.1360   19.8070 C   0  0  0  0  0  3  0  0  0  0  0  0
  -30.1230  -15.9430   20.1880 N   0  0  0  0  0  0  0  0  0  0  0  0
  -30.9700  -14.8500   19.9000 C   0  0  0  0  0  0  0  0  0  0  0  0
  -30.6870  -12.5820   18.9420 C   0  0  0  0  0  2  0  0  0  0  0  0
  -29.6790  -12.6940   17.7760 C   0  0  0  0  0  2  0  0  0  0  0  0
  -28.2310  -12.5560   18.2880 C   0  0  0  0  0  2  0  0  0  0  0  0
  -27.9420  -13.4620   19.5140 C   0  0  0  0  0  3  0  0  0  0  0  0
  -29.0600  -13.3370   20.5720 C   0  0  0  0  0  2  0  0  0  0  0  0
  -30.3470  -13.6310   19.9220 N   0  0  0  0  0  0  0  0  0  0  0  0
  -32.1170  -14.9460   19.4560 O   0  0  0  0  0  0  0  0  0  0  0  0
  -25.6180  -14.0920   20.4240 C   0  0  0  0  0  0  0  0  0  0  0  0
  -24.5590  -13.3330   20.8390 C   0  0  0  0  0  0  0  0  0  0  0  0
  -24.9830  -11.9730   20.7280 C   0  0  0  0  0  0  0  0  0  0  0  0
  -26.6230  -13.1970   20.0850 N   0  0  0  0  0  0  0  0  0  0  0  0
  -26.2470  -11.9150   20.3280 N   0  0  0  0  0  0  0  0  0  0  0  0
  -24.2380  -10.7240   20.9260 C   0  0  0  0  0  0  0  0  0  0  0  0
  -24.6620   -9.7500   21.8560 C   0  0  0  0  0  3  0  0  0  0  0  0
  -23.9170   -8.5660   22.0410 C   0  0  0  0  0  3  0  0  0  0  0  0
  -22.7340   -8.3480   21.2950 C   0  0  0  0  0  0  0  0  0  0  0  0
  -22.3300   -9.3100   20.3530 C   0  0  0  0  0  3  0  0  0  0  0  0
  -23.0750  -10.4870   20.1670 C   0  0  0  0  0  3  0  0  0  0  0  0
  -21.9620   -7.2160   21.3880 O   0  0  0  0  0  0  0  0  0  0  0  0
  -21.8620   -6.5090   22.5590 C   0  0  0  0  0  0  0  0  0  0  0  0
  -21.3500   -7.0920   23.7390 C   0  0  0  0  0  3  0  0  0  0  0  0
  -21.1970   -6.3090   24.9010 C   0  0  0  0  0  3  0  0  0  0  0  0
  -21.5470   -4.9460   24.8850 C   0  0  0  0  0  0  0  0  0  0  0  0
  -22.0520   -4.3630   23.7090 C   0  0  0  0  0  3  0  0  0  0  0  0
  -22.2060   -5.1420   22.5480 C   0  0  0  0  0  0  0  0  0  0  0  0
  -22.6730   -4.5710   21.4120 F   0  0  0  0  0  0  0  0  0  0  0  0
  -21.3950   -4.1930   25.9980 F   0  0  0  0  0  0  0  0  0  0  0  0
  -23.1980  -13.8370   21.2250 C   0  0  0  0  0  0  0  0  0  0  0  0
  -22.5160  -13.1310   22.1190 N   0  0  0  0  0  0  0  0  0  0  0  0
  -22.7530  -14.8890   20.7710 O   0  0  0  0  0  0  0  0  0  0  0  0
  -22.8920  -12.2790   22.5090 H   0  0  0  0  0  0  0  0  0  0  0  0
  -21.6070  -13.4510   22.4230 H   0  0  0  0  0  0  0  0  0  0  0  0
  -25.8010  -15.4610   20.2880 N   0  0  0  0  0  0  0  0  0  0  0  0
  -25.0710  -16.1320   20.5030 H   0  0  0  0  0  0  0  0  0  0  0  0
  -26.6690  -15.8900   19.9980 H   0  0  0  0  0  0  0  0  0  0  0  0
  -29.2460  -23.0700   21.2840 C   0  0  0  0  0  2  0  0  0  0  0  0
  -29.1070  -24.2580   20.2640 C   0  0  0  0  0  2  0  0  0  0  0  0
  -28.6720  -25.6030   20.9600 C   0  0  0  0  0  2  0  0  0  0  0  0
  -28.7120  -26.8380   20.1890 O   0  0  0  0  0  0  0  0  0  0  0  0
  -24.6070  -31.8800   23.2310 C   0  0  0  0  0  0  0  0  0  0  0  0
  -27.5400  -27.5790   20.1740 C   0  0  0  0  0  0  0  0  0  0  0  0
  -23.5200  -30.4570   21.5270 C   0  0  0  0  0  3  0  0  0  0  0  0
  -25.0880  -29.0100   20.1220 C   0  0  0  0  0  0  0  0  0  0  0  0
  -26.0370  -30.9250   21.4180 C   0  0  0  0  0  2  0  0  0  0  0  0
  -26.2070  -29.5670   20.7560 C   0  0  0  0  0  0  0  0  0  0  0  0
  -27.4390  -28.8630   20.7720 C   0  0  0  0  0  3  0  0  0  0  0  0
  -26.4050  -27.0460   19.5310 C   0  0  0  0  0  3  0  0  0  0  0  0
  -25.1850  -27.7510   19.5030 C   0  0  0  0  0  3  0  0  0  0  0  0
  -23.8060  -29.8140   20.1440 C   0  0  0  0  0  2  0  0  0  0  0  0
  -24.7370  -31.1030   22.1180 N   0  0  0  0  0  0  0  0  0  0  0  0
  -23.4980  -32.0930   23.7410 O   0  0  0  0  0  0  0  0  0  0  0  0
  -22.8830  -29.3910   22.4480 C   0  0  0  0  0  0  0  0  0  0  0  0
  -21.5700  -29.1590   22.2820 N   0  0  0  0  0  0  0  0  0  0  0  0
  -23.5690  -28.7760   23.2690 O   0  0  0  0  0  0  0  0  0  0  0  0
  -21.0760  -29.7110   21.5950 H   0  0  0  0  0  0  0  0  0  0  0  0
  -18.2290  -27.8410   22.6910 C   0  0  0  0  0  0  0  0  0  0  0  0
  -20.7730  -28.1720   23.0100 C   0  0  0  0  0  3  0  0  0  0  0  0
  -20.9300  -26.7650   22.3890 C   0  0  0  0  0  2  0  0  0  0  0  0
  -19.8530  -26.4400   21.3490 C   0  0  0  0  0  2  0  0  0  0  0  0
  -18.4590  -26.5200   21.9760 C   0  0  0  0  0  2  0  0  0  0  0  0
  -19.3160  -28.6240   23.1620 C   0  0  0  0  0  0  0  0  0  0  0  0
  -19.0480  -29.8600   23.7890 C   0  0  0  0  0  3  0  0  0  0  0  0
  -17.7260  -30.3140   23.9510 C   0  0  0  0  0  3  0  0  0  0  0  0
  -16.6530  -29.5280   23.4960 C   0  0  0  0  0  3  0  0  0  0  0  0
  -16.9050  -28.2940   22.8720 C   0  0  0  0  0  3  0  0  0  0  0  0
  -25.8420  -32.5580   23.9040 C   0  0  0  0  0  3  0  0  0  0  0  0
  -25.4770  -33.9510   24.1970 N   0  0  0  0  0  0  0  0  0  0  0  0
  -25.8160  -35.0010   23.4380 C   0  0  0  0  0  0  0  0  0  0  0  0
  -26.5370  -34.9020   22.4400 O   0  0  0  0  0  0  0  0  0  0  0  0
  -24.8420  -34.1000   24.9670 H   0  0  0  0  0  0  0  0  0  0  0  0
  -24.0590  -36.7390   22.9710 C   0  0  0  0  0  1  0  0  0  0  0  0
  -25.2680  -36.3820   23.8490 C   0  0  0  0  0  3  0  0  0  0  0  0
  -27.3260  -37.3460   24.7790 C   0  0  0  0  0  1  0  0  0  0  0  0
  -26.2750  -37.4610   23.7710 N   0  0  0  0  0  0  0  0  0  0  0  0
  -25.8360  -38.3720   23.8740 H   0  0  0  0  0  0  0  0  0  0  0  0
  -26.3190  -31.8200   25.2150 C   0  0  1  0  0  0  0  0  0  0  0  0
  -25.1810  -31.5550   26.2290 C   0  0  0  0  0  1  0  0  0  0  0  0
  -26.9690  -30.4600   24.8700 C   0  0  0  0  0  1  0  0  0  0  0  0
  -27.4050  -32.6620   25.9240 C   0  0  0  0  0  1  0  0  0  0  0  0
  1  5  2  0
  2  3  1  0
  2  4  1  0
  3  7  1  0
  3  1  1  0
  4  1  1  0
  4 46  1  0
  7  6  1  0
  7  8  1  0
  8  9  2  0
 10 16  1  0
 10  9  1  0
 11 16  1  0
 12 13  1  0
 12 11  1  0
 14 13  1  0
 14 21  1  0
 14 15  1  0
 16 15  1  0
 17 10  2  0
 18 19  2  0
 19 38  1  0
 20 19  1  0
 20 23  1  0
 21 22  1  0
 21 18  1  0
 22 20  2  0
 23 24  1  0
 24 25  2  0
 26 29  1  0
 26 25  1  0
 27 26  2  0
 28 27  1  0
 28 23  2  0
 29 30  1  0
 30 31  1  0
 31 32  2  0
 33 32  1  0
 33 37  1  0
 34 33  2  0
 35 30  2  0
 35 34  1  0
 36 35  1  0
 38 39  1  0
 39 42  1  0
 39 41  1  0
 40 38  2  0
 43 18  1  0
 43 44  1  0
 45 43  1  0
 47 48  1  0
 47 46  1  0
 49 48  1  0
 50 61  2  0
 51 49  1  0
 51 56  1  0
 52 60  1  0
 52 62  1  0
 53 59  1  0
 53 55  1  0
 54 60  1  0
 55 56  2  0
 55 54  1  0
 57 51  2  0
 58 57  1  0
 58 53  2  0
 59 52  1  0
 60 50  1  0
 62 64  2  0
 63 62  1  0
 65 63  1  0
 66 75  2  0
 66 71  1  0
 67 63  1  0
 67 71  1  0
 68 67  1  0
 69 70  1  0
 69 68  1  0
 70 66  1  0
 71 72  2  0
 72 73  1  0
 74 73  2  0
 75 74  1  0
 76 50  1  0
 76 77  1  0
 76 86  1  0
 77 80  1  0
 78 82  1  0
 78 77  1  0
 79 78  2  0
 82 81  1  0
 84 82  1  0
 84 85  1  0
 84 83  1  0
 86 89  1  1
 86 87  1  0
 88 86  1  0
M  ISO  4   9 100  10 100  48 101  49 101
M  END
>  <TORSDO>  (7) 
F 21

>  <SCORE>  (7) 
-12.305

>  <name>  (7) 
6

>  <ligand_id>  (7) 
6

>  <original_smiles>  (7) 
[H]C(=NC(=O)N1C([H])([H])C([H])([H])C([H])([H])C([H])(n2nc(-c3c([H])c([H])c(Oc4c([H])c([H])c(F)c([H])c4F)c([H])c3[H])c(C(=O)N([H])[H])c2N([H])[H])C1([H])[H])C([H])(C([H])([H])[H])C1([H])C(=O)N(C([H])([H])C([H])([H])C([H])([H])Oc2c([H])c([H])c3c(c2[H])C([H])([H])N(C(=O)C([H])(N([H])C(=O)C([H])(N([H])C([H])([H])[H])C([H])([H])[H])C(C([H])([H])[H])(C([H])([H])[H])C([H])([H])[H])C([H])(C(=O)N([H])C2([H])c4c([H])c([H])c([H])c([H])c4C([H])([H])C([H])([H])C2([H])[H])C3([H])[H])C1([H])[H]

>  <smiles>  (7) 
[H]C(=NC(=O)N1C([H])([H])C([H])([H])C([H])([H])C([H])(n2nc(-c3c([H])c([H])c(Oc4c([H])c([H])c(F)c([H])c4F)c([H])c3[H])c(C(=O)N([H])[H])c2N([H])[H])C1([H])[H])C([H])(C([H])([H])[H])C1([H])C(=O)N(C([H])([H])C([H])([H])C([H])([H])Oc2c([H])c([H])c3c(c2[H])C([H])([H])N(C(=O)C([H])(N([H])C(=O)C([H])(N([H])C([H])([H])[H])C([H])([H])[H])C(C([H])([H])[H])(C([H])([H])[H])C([H])([H])[H])C([H])(C(=O)N([H])C2([H])c4c([H])c([H])c([H])c([H])c4C([H])([H])C([H])([H])C2([H])[H])C3([H])[H])C1([H])[H]

$$$$
7:0:0
     RDKit          3D

 92100  0  0  1  0  0  0  0  0999 V2000
  -28.9550  -20.8070   20.0160 C   0  0  0  0  0  2  0  0  0  0  0  0
  -30.3650  -18.4570   19.6220 C   0  0  0  0  0  0  0  0  0  0  0  0
  -31.6210  -18.0760   19.3540 N   0  0  0  0  0  4  0  0  0  0  0  0
  -30.1100  -19.8370   19.7070 N   0  0  0  0  0  0  0  0  0  0  0  0
  -32.4020  -18.7110   19.2890 H   0  0  0  0  0  0  0  0  0  0  0  0
  -31.8120  -17.0910   19.2010 H   0  0  0  0  0  0  0  0  0  0  0  0
  -30.9390  -20.3900   19.5690 H   0  0  0  0  0  0  0  0  0  0  0  0
  -30.6750  -14.8200   19.9240 C   0  0  0  0  0  0  0  0  0  0  0  0
  -30.5260  -12.5380   18.8990 C   0  0  0  0  0  2  0  0  0  0  0  0
  -29.5170  -12.6000   17.7290 C   0  0  0  0  0  2  0  0  0  0  0  0
  -28.0700  -12.4120   18.2270 C   0  0  0  0  0  2  0  0  0  0  0  0
  -27.7510  -13.2870   19.4680 C   0  0  0  0  0  3  0  0  0  0  0  0
  -28.8630  -13.1580   20.5310 C   0  0  0  0  0  2  0  0  0  0  0  0
  -30.1220  -13.5600   19.8900 N   0  0  0  0  0  0  0  0  0  0  0  0
  -31.7900  -15.0380   19.4330 O   0  0  0  0  0  0  0  0  0  0  0  0
  -28.6860  -17.3540   21.1280 C   0  0  0  0  0  2  0  0  0  0  0  0
  -29.7320  -16.3760   21.6610 C   0  0  0  0  0  2  0  0  0  0  0  0
  -29.3920  -17.2510   19.7830 C   0  0  0  0  0  3  0  0  0  0  0  0
  -29.8370  -15.8640   20.2900 N   0  0  0  0  0  0  0  0  0  0  0  0
  -25.3910  -13.8750   20.2840 C   0  0  0  0  0  0  0  0  0  0  0  0
  -24.3460  -13.0970   20.7070 C   0  0  0  0  0  0  0  0  0  0  0  0
  -24.8190  -11.7480   20.6670 C   0  0  0  0  0  0  0  0  0  0  0  0
  -26.4300  -12.9990   20.0140 N   0  0  0  0  0  0  0  0  0  0  0  0
  -26.0940  -11.7160   20.3040 N   0  0  0  0  0  0  0  0  0  0  0  0
  -24.1110  -10.4830   20.8960 C   0  0  0  0  0  0  0  0  0  0  0  0
  -24.5260   -9.5780   21.8980 C   0  0  0  0  0  3  0  0  0  0  0  0
  -23.8170   -8.3750   22.1140 C   0  0  0  0  0  3  0  0  0  0  0  0
  -22.6810   -8.0700   21.3270 C   0  0  0  0  0  0  0  0  0  0  0  0
  -22.2860   -8.9640   20.3180 C   0  0  0  0  0  3  0  0  0  0  0  0
  -22.9940  -10.1580   20.1000 C   0  0  0  0  0  3  0  0  0  0  0  0
  -21.9460   -6.9160   21.4460 O   0  0  0  0  0  0  0  0  0  0  0  0
  -21.7790   -6.2950   22.6570 C   0  0  0  0  0  0  0  0  0  0  0  0
  -21.1880   -6.9540   23.7590 C   0  0  0  0  0  3  0  0  0  0  0  0
  -20.9730   -6.2560   24.9630 C   0  0  0  0  0  3  0  0  0  0  0  0
  -21.3360   -4.9000   25.0670 C   0  0  0  0  0  0  0  0  0  0  0  0
  -21.9220   -4.2420   23.9690 C   0  0  0  0  0  3  0  0  0  0  0  0
  -22.1390   -4.9370   22.7680 C   0  0  0  0  0  0  0  0  0  0  0  0
  -22.6830   -4.2930   21.7080 F   0  0  0  0  0  0  0  0  0  0  0  0
  -21.1210   -4.2250   26.2200 F   0  0  0  0  0  0  0  0  0  0  0  0
  -22.9600  -13.5670   21.0330 C   0  0  0  0  0  0  0  0  0  0  0  0
  -22.2790  -12.8770   21.9420 N   0  0  0  0  0  0  0  0  0  0  0  0
  -22.4910  -14.5810   20.5190 O   0  0  0  0  0  0  0  0  0  0  0  0
  -22.6740  -12.0530   22.3740 H   0  0  0  0  0  0  0  0  0  0  0  0
  -21.3530  -13.1770   22.2100 H   0  0  0  0  0  0  0  0  0  0  0  0
  -25.5360  -15.2440   20.0840 N   0  0  0  0  0  0  0  0  0  0  0  0
  -24.7700  -15.8950   20.2230 H   0  0  0  0  0  0  0  0  0  0  0  0
  -26.3650  -15.6790   19.7000 H   0  0  0  0  0  0  0  0  0  0  0  0
  -29.1610  -22.3780   19.5880 C   0  0  0  0  0  2  0  0  0  0  0  0
  -26.8430  -23.3150   20.3020 C   0  0  0  0  0  1  0  0  0  0  0  0
  -28.3450  -23.6430   20.2360 C   0  0  0  0  0  3  0  0  0  0  0  0
  -28.5200  -25.1280   19.5730 C   0  0  0  0  0  2  0  0  0  0  0  0
  -28.3560  -26.4480   20.2830 O   0  0  0  0  0  0  0  0  0  0  0  0
  -24.6070  -31.8970   23.2640 C   0  0  0  0  0  0  0  0  0  0  0  0
  -27.2320  -27.3040   20.2020 C   0  0  0  0  0  0  0  0  0  0  0  0
  -23.4100  -30.4990   21.6160 C   0  0  0  0  0  3  0  0  0  0  0  0
  -24.8690  -28.9460   20.1860 C   0  0  0  0  0  0  0  0  0  0  0  0
  -25.9540  -30.8090   21.4470 C   0  0  0  0  0  2  0  0  0  0  0  0
  -26.0360  -29.4270   20.7930 C   0  0  0  0  0  0  0  0  0  0  0  0
  -27.2150  -28.6160   20.7920 C   0  0  0  0  0  3  0  0  0  0  0  0
  -26.0410  -26.8840   19.5780 C   0  0  0  0  0  3  0  0  0  0  0  0
  -24.8770  -27.6830   19.5700 C   0  0  0  0  0  3  0  0  0  0  0  0
  -23.6310  -29.8230   20.2350 C   0  0  0  0  0  2  0  0  0  0  0  0
  -24.6750  -31.0870   22.1650 N   0  0  0  0  0  0  0  0  0  0  0  0
  -23.5200  -32.1740   23.7950 O   0  0  0  0  0  0  0  0  0  0  0  0
  -22.7390  -29.4840   22.5740 C   0  0  0  0  0  0  0  0  0  0  0  0
  -21.4160  -29.2970   22.4330 N   0  0  0  0  0  0  0  0  0  0  0  0
  -23.4100  -28.8700   23.4070 O   0  0  0  0  0  0  0  0  0  0  0  0
  -20.9320  -29.8500   21.7380 H   0  0  0  0  0  0  0  0  0  0  0  0
  -18.0450  -28.0610   22.8860 C   0  0  0  0  0  0  0  0  0  0  0  0
  -20.5950  -28.3560   23.1970 C   0  0  0  0  0  3  0  0  0  0  0  0
  -20.7240  -26.9210   22.6360 C   0  0  0  0  0  2  0  0  0  0  0  0
  -19.6440  -26.5780   21.6050 C   0  0  0  0  0  2  0  0  0  0  0  0
  -18.2500  -26.7100   22.2240 C   0  0  0  0  0  2  0  0  0  0  0  0
  -19.1460  -28.8400   23.3310 C   0  0  0  0  0  0  0  0  0  0  0  0
  -18.8990  -30.1040   23.9080 C   0  0  0  0  0  3  0  0  0  0  0  0
  -17.5850  -30.5890   24.0470 C   0  0  0  0  0  3  0  0  0  0  0  0
  -16.4980  -29.8060   23.6200 C   0  0  0  0  0  3  0  0  0  0  0  0
  -16.7290  -28.5420   23.0460 C   0  0  0  0  0  3  0  0  0  0  0  0
  -25.8850  -32.5310   23.8930 C   0  0  0  0  0  3  0  0  0  0  0  0
  -26.3790  -31.7760   25.1890 C   0  0  1  0  0  0  0  0  0  0  0  0
  -25.2700  -31.5620   26.2450 C   0  0  0  0  0  1  0  0  0  0  0  0
  -26.9580  -30.3870   24.8300 C   0  0  0  0  0  1  0  0  0  0  0  0
  -27.5180  -32.5770   25.8580 C   0  0  0  0  0  1  0  0  0  0  0  0
  -25.5780  -33.9360   24.2010 N   0  0  0  0  0  0  0  0  0  0  0  0
  -25.9260  -34.9780   23.4360 C   0  0  0  0  0  0  0  0  0  0  0  0
  -26.6080  -34.8590   22.4150 O   0  0  0  0  0  0  0  0  0  0  0  0
  -24.9700  -34.1010   24.9890 H   0  0  0  0  0  0  0  0  0  0  0  0
  -24.2160  -36.7840   23.0460 C   0  0  0  0  0  1  0  0  0  0  0  0
  -25.4430  -36.3740   23.8750 C   0  0  0  0  0  3  0  0  0  0  0  0
  -27.5690  -37.2590   24.7290 C   0  0  0  0  0  1  0  0  0  0  0  0
  -26.4830  -37.4180   23.7650 N   0  0  0  0  0  0  0  0  0  0  0  0
  -26.0810  -38.3440   23.8890 H   0  0  0  0  0  0  0  0  0  0  0  0
  2  4  1  0
  3  2  2  0
  4  1  1  0
  5  3  1  0
  6  3  1  0
  7  4  1  0
  8 19  1  0
  9 14  1  0
 10 11  1  0
 10  9  1  0
 12 11  1  0
 12 23  1  0
 12 13  1  0
 14  8  1  0
 14 13  1  0
 15  8  2  0
 16 17  1  0
 18  2  1  0
 18 19  1  0
 18 16  1  0
 19 17  1  0
 20 21  2  0
 21 40  1  0
 22 21  1  0
 22 25  1  0
 23 20  1  0
 23 24  1  0
 24 22  2  0
 25 26  1  0
 26 27  2  0
 28 31  1  0
 28 27  1  0
 29 28  2  0
 30 29  1  0
 30 25  2  0
 31 32  1  0
 32 37  2  0
 32 33  1  0
 33 34  2  0
 34 35  1  0
 35 39  1  0
 36 35  2  0
 37 36  1  0
 38 37  1  0
 40 41  1  0
 41 44  1  0
 41 43  1  0
 42 40  2  0
 45 46  1  0
 45 20  1  0
 47 45  1  0
 48  1  1  0
 48 50  1  0
 50 49  1  0
 51 50  1  0
 51 52  1  0
 53 64  2  0
 54 52  1  0
 54 59  1  0
 55 63  1  0
 55 65  1  0
 56 62  1  0
 56 58  1  0
 57 63  1  0
 58 57  1  0
 59 58  2  0
 60 54  2  0
 61 60  1  0
 61 56  2  0
 62 55  1  0
 63 53  1  0
 65 67  2  0
 66 65  1  0
 68 66  1  0
 69 78  2  0
 69 74  1  0
 70 66  1  0
 70 74  1  0
 71 70  1  0
 72 73  1  0
 72 71  1  0
 73 69  1  0
 74 75  2  0
 75 76  1  0
 77 76  2  0
 78 77  1  0
 79 53  1  0
 79 84  1  0
 79 80  1  0
 80 83  1  1
 80 81  1  0
 82 80  1  0
 84 87  1  0
 85 89  1  0
 85 84  1  0
 86 85  2  0
 89 88  1  0
 91 89  1  0
 91 92  1  0
 91 90  1  0
M  ISO  4   8 100  19 100  51 101  52 101
M  END
>  <TORSDO>  (8) 
F 20

>  <SCORE>  (8) 
-13.059

>  <name>  (8) 
7

>  <ligand_id>  (8) 
7

>  <original_smiles>  (8) 
[H]c1c([H])c([H])c2c(c1[H])C([H])([H])C([H])([H])C([H])([H])C2([H])N([H])C(=O)C1([H])N(C(=O)C([H])(N([H])C(=O)C([H])(N([H])C([H])([H])[H])C([H])([H])[H])C(C([H])([H])[H])(C([H])([H])[H])C([H])([H])[H])C([H])([H])c2c([H])c(OC([H])([H])C([H])(C([H])([H])[H])C([H])([H])C([H])([H])[N+]([H])=C(N([H])[H])C3([H])N(C(=O)N4C([H])([H])C([H])([H])C([H])([H])C([H])(n5nc(-c6c([H])c([H])c(Oc7c([H])c([H])c(F)c([H])c7F)c([H])c6[H])c(C(=O)N([H])[H])c5N([H])[H])C4([H])[H])C([H])([H])C3([H])[H])c([H])c([H])c2C1([H])[H]

>  <smiles>  (8) 
[H]c1c([H])c([H])c2c(c1[H])C([H])([H])C([H])([H])C([H])([H])C2([H])N([H])C(=O)C1([H])N(C(=O)C([H])(N([H])C(=O)C([H])(N([H])C([H])([H])[H])C([H])([H])[H])C(C([H])([H])[H])(C([H])([H])[H])C([H])([H])[H])C([H])([H])c2c([H])c(OC([H])([H])C([H])(C([H])([H])[H])C([H])([H])C([H])([H])[N+]([H])=C(N([H])[H])C3([H])N(C(=O)N4C([H])([H])C([H])([H])C([H])([H])C([H])(n5nc(-c6c([H])c([H])c(Oc7c([H])c([H])c(F)c([H])c7F)c([H])c6[H])c(C(=O)N([H])[H])c5N([H])[H])C4([H])[H])C([H])([H])C3([H])[H])c([H])c([H])c2C1([H])[H]

$$$$
8:0:0
     RDKit          3D

 91 99  0  0  1  0  0  0  0  0999 V2000
  -29.3890  -22.8020   21.0230 C   0  0  0  0  0  2  0  0  0  0  0  0
  -30.4070  -24.3220   19.2190 C   0  0  0  0  0  1  0  0  0  0  0  0
  -30.3790  -25.0300   21.6070 C   0  0  0  0  0  1  0  0  0  0  0  0
  -29.5670  -24.3060   20.5110 C   0  0  2  0  0  0  0  0  0  0  0  0
  -28.2410  -25.1490   20.3030 C   0  0  0  0  0  2  0  0  0  0  0  0
  -28.4090  -26.6110   20.2230 O   0  0  0  0  0  0  0  0  0  0  0  0
  -24.6130  -31.9140   23.2540 C   0  0  0  0  0  0  0  0  0  0  0  0
  -27.2610  -27.4060   20.1950 C   0  0  0  0  0  0  0  0  0  0  0  0
  -23.4170  -30.5130   21.6080 C   0  0  0  0  0  3  0  0  0  0  0  0
  -24.8770  -28.9750   20.1860 C   0  0  0  0  0  0  0  0  0  0  0  0
  -25.9510  -30.8560   21.4250 C   0  0  0  0  0  2  0  0  0  0  0  0
  -26.0400  -29.4820   20.7790 C   0  0  0  0  0  0  0  0  0  0  0  0
  -27.2360  -28.7090   20.7700 C   0  0  0  0  0  3  0  0  0  0  0  0
  -26.0730  -26.9390   19.5880 C   0  0  0  0  0  3  0  0  0  0  0  0
  -24.8940  -27.7080   19.5820 C   0  0  0  0  0  3  0  0  0  0  0  0
  -23.6350  -29.8380   20.2290 C   0  0  0  0  0  2  0  0  0  0  0  0
  -24.6790  -31.1110   22.1540 N   0  0  0  0  0  0  0  0  0  0  0  0
  -23.5290  -32.1850   23.7890 O   0  0  0  0  0  0  0  0  0  0  0  0
  -22.7600  -29.4920   22.5660 C   0  0  0  0  0  0  0  0  0  0  0  0
  -21.4350  -29.3100   22.4340 N   0  0  0  0  0  0  0  0  0  0  0  0
  -23.4400  -28.8650   23.3820 O   0  0  0  0  0  0  0  0  0  0  0  0
  -20.9470  -29.8650   21.7450 H   0  0  0  0  0  0  0  0  0  0  0  0
  -18.0580  -28.1130   22.9220 C   0  0  0  0  0  0  0  0  0  0  0  0
  -20.6160  -28.3700   23.2010 C   0  0  0  0  0  3  0  0  0  0  0  0
  -20.7200  -26.9410   22.6200 C   0  0  0  0  0  2  0  0  0  0  0  0
  -19.6190  -26.6210   21.6020 C   0  0  0  0  0  2  0  0  0  0  0  0
  -18.2360  -26.7650   22.2440 C   0  0  0  0  0  2  0  0  0  0  0  0
  -19.1770  -28.8730   23.3570 C   0  0  0  0  0  0  0  0  0  0  0  0
  -18.9560  -30.1350   23.9510 C   0  0  0  0  0  3  0  0  0  0  0  0
  -17.6510  -30.6360   24.1170 C   0  0  0  0  0  3  0  0  0  0  0  0
  -16.5480  -29.8720   23.6980 C   0  0  0  0  0  3  0  0  0  0  0  0
  -16.7520  -28.6120   23.1060 C   0  0  0  0  0  3  0  0  0  0  0  0
  -25.8930  -32.5480   23.8810 C   0  0  0  0  0  3  0  0  0  0  0  0
  -26.4060  -31.7760   25.1580 C   0  0  1  0  0  0  0  0  0  0  0  0
  -25.3100  -31.5370   26.2230 C   0  0  0  0  0  1  0  0  0  0  0  0
  -26.9910  -30.4000   24.7650 C   0  0  0  0  0  1  0  0  0  0  0  0
  -27.5520  -32.5720   25.8270 C   0  0  0  0  0  1  0  0  0  0  0  0
  -25.5810  -33.9460   24.2090 N   0  0  0  0  0  0  0  0  0  0  0  0
  -25.9120  -34.9980   23.4480 C   0  0  0  0  0  0  0  0  0  0  0  0
  -26.5820  -34.8940   22.4180 O   0  0  0  0  0  0  0  0  0  0  0  0
  -24.9860  -34.1010   25.0090 H   0  0  0  0  0  0  0  0  0  0  0  0
  -24.1790  -36.7850   23.0910 C   0  0  0  0  0  1  0  0  0  0  0  0
  -25.4200  -36.3860   23.9030 C   0  0  0  0  0  3  0  0  0  0  0  0
  -27.5530  -37.2790   24.7330 C   0  0  0  0  0  1  0  0  0  0  0  0
  -26.4500  -37.4410   23.7880 N   0  0  0  0  0  0  0  0  0  0  0  0
  -26.0430  -38.3610   23.9340 H   0  0  0  0  0  0  0  0  0  0  0  0
  -27.5200  -21.1000   20.5460 C   0  0  0  0  0  1  0  0  0  0  0  0
  -28.9010  -21.6090   20.1030 C   0  0  0  0  0  3  0  0  0  0  0  0
  -29.8750  -19.0970   20.1260 C   0  0  0  0  0  0  0  0  0  0  0  0
  -29.9290  -20.4500   19.8940 C   0  0  0  0  0  3  0  0  0  0  0  0
  -30.8430  -17.9700   19.7450 C   0  0  0  0  0  2  0  0  0  0  0  0
  -28.8920  -18.1200   20.7690 C   0  0  0  0  0  2  0  0  0  0  0  0
  -30.1430  -17.1770   20.8870 C   0  0  0  0  0  3  0  0  0  0  0  0
  -30.6440  -14.6830   20.2620 C   0  0  0  0  0  0  0  0  0  0  0  0
  -30.4120  -12.4800   19.1420 C   0  0  0  0  0  2  0  0  0  0  0  0
  -29.4460  -12.6420   17.9480 C   0  0  0  0  0  2  0  0  0  0  0  0
  -27.9790  -12.4770   18.3960 C   0  0  0  0  0  2  0  0  0  0  0  0
  -27.6440  -13.3120   19.6600 C   0  0  0  0  0  3  0  0  0  0  0  0
  -28.7200  -13.1260   20.7530 C   0  0  0  0  0  2  0  0  0  0  0  0
  -30.0190  -13.4710   20.1580 N   0  0  0  0  0  0  0  0  0  0  0  0
  -31.8030  -14.8550   19.8730 O   0  0  0  0  0  0  0  0  0  0  0  0
  -29.8500  -15.7240   20.6460 N   0  0  0  0  0  0  0  0  0  0  0  0
  -28.9100  -15.4410   20.8800 H   0  0  0  0  0  0  0  0  0  0  0  0
  -25.2530  -13.9030   20.3950 C   0  0  0  0  0  0  0  0  0  0  0  0
  -24.1960  -13.1260   20.7810 C   0  0  0  0  0  0  0  0  0  0  0  0
  -24.6660  -11.7780   20.7570 C   0  0  0  0  0  0  0  0  0  0  0  0
  -26.3020  -13.0280   20.1590 N   0  0  0  0  0  0  0  0  0  0  0  0
  -25.9540  -11.7450   20.4380 N   0  0  0  0  0  0  0  0  0  0  0  0
  -23.9490  -10.5130   20.9640 C   0  0  0  0  0  0  0  0  0  0  0  0
  -24.4000   -9.5550   21.9000 C   0  0  0  0  0  3  0  0  0  0  0  0
  -23.6860   -8.3540   22.0950 C   0  0  0  0  0  3  0  0  0  0  0  0
  -22.5060   -8.1020   21.3560 C   0  0  0  0  0  0  0  0  0  0  0  0
  -22.0720   -9.0480   20.4110 C   0  0  0  0  0  3  0  0  0  0  0  0
  -22.7890  -10.2420   20.2130 C   0  0  0  0  0  3  0  0  0  0  0  0
  -21.7600   -6.9530   21.4630 O   0  0  0  0  0  0  0  0  0  0  0  0
  -21.7300   -6.2170   22.6200 C   0  0  0  0  0  0  0  0  0  0  0  0
  -21.3150   -6.7780   23.8480 C   0  0  0  0  0  3  0  0  0  0  0  0
  -21.2330   -5.9680   24.9990 C   0  0  0  0  0  3  0  0  0  0  0  0
  -21.5560   -4.6000   24.9220 C   0  0  0  0  0  0  0  0  0  0  0  0
  -21.9650   -4.0400   23.6990 C   0  0  0  0  0  3  0  0  0  0  0  0
  -22.0490   -4.8470   22.5500 C   0  0  0  0  0  0  0  0  0  0  0  0
  -22.4230   -4.2980   21.3690 F   0  0  0  0  0  0  0  0  0  0  0  0
  -21.4710   -3.8190   26.0250 F   0  0  0  0  0  0  0  0  0  0  0  0
  -22.7970  -13.5950   21.0620 C   0  0  0  0  0  0  0  0  0  0  0  0
  -22.0840  -12.9060   21.9450 N   0  0  0  0  0  0  0  0  0  0  0  0
  -22.3460  -14.6100   20.5330 O   0  0  0  0  0  0  0  0  0  0  0  0
  -22.4610  -12.0870   22.3990 H   0  0  0  0  0  0  0  0  0  0  0  0
  -21.1450  -13.2060   22.1720 H   0  0  0  0  0  0  0  0  0  0  0  0
  -25.4020  -15.2740   20.2030 N   0  0  0  0  0  0  0  0  0  0  0  0
  -24.6180  -15.9110   20.3080 H   0  0  0  0  0  0  0  0  0  0  0  0
  -26.2270  -15.7240   19.8300 H   0  0  0  0  0  0  0  0  0  0  0  0
  4  2  1  6
  4  1  1  0
  4  3  1  0
  5  4  1  0
  6  5  1  0
  7 18  2  0
  8  6  1  0
  8 13  1  0
  9 17  1  0
  9 19  1  0
 10 16  1  0
 10 12  1  0
 11 17  1  0
 12 11  1  0
 13 12  2  0
 14  8  2  0
 15 14  1  0
 15 10  2  0
 16  9  1  0
 17  7  1  0
 19 21  2  0
 20 19  1  0
 22 20  1  0
 23 32  2  0
 23 28  1  0
 24 20  1  0
 24 28  1  0
 25 24  1  0
 26 27  1  0
 26 25  1  0
 27 23  1  0
 28 29  2  0
 29 30  1  0
 31 30  2  0
 32 31  1  0
 33  7  1  0
 33 38  1  0
 33 34  1  0
 34 37  1  1
 34 35  1  0
 36 34  1  0
 38 41  1  0
 39 43  1  0
 39 38  1  0
 40 39  2  0
 43 42  1  0
 45 43  1  0
 45 46  1  0
 45 44  1  0
 48 47  1  0
 48  1  1  0
 49 52  1  0
 50 48  1  0
 50 49  2  0
 51 49  1  0
 51 53  1  0
 52 53  1  0
 53 62  1  0
 54 62  1  0
 55 60  1  0
 56 57  1  0
 56 55  1  0
 58 57  1  0
 58 67  1  0
 58 59  1  0
 60 54  1  0
 60 59  1  0
 61 54  2  0
 62 63  1  0
 64 65  2  0
 65 84  1  0
 66 65  1  0
 66 69  1  0
 67 64  1  0
 67 68  1  0
 68 66  2  0
 69 70  1  0
 70 71  2  0
 72 75  1  0
 72 71  1  0
 73 72  2  0
 74 73  1  0
 74 69  2  0
 75 76  1  0
 76 77  1  0
 77 78  2  0
 79 78  1  0
 79 83  1  0
 80 79  2  0
 81 76  2  0
 81 80  1  0
 82 81  1  0
 84 85  1  0
 85 88  1  0
 85 87  1  0
 86 84  2  0
 89 90  1  0
 89 64  1  0
 91 89  1  0
M  ISO  4   5 101   6 101  54 100  62 100
M  END
>  <TORSDO>  (9) 
F 20

>  <SCORE>  (9) 
-13.590

>  <name>  (9) 
8

>  <ligand_id>  (9) 
8

>  <original_smiles>  (9) 
[H]C(=C1C([H])([H])C([H])(N([H])C(=O)N2C([H])([H])C([H])([H])C([H])([H])C([H])(n3nc(-c4c([H])c([H])c(Oc5c([H])c([H])c(F)c([H])c5F)c([H])c4[H])c(C(=O)N([H])[H])c3N([H])[H])C2([H])[H])C1([H])[H])C([H])(C([H])([H])[H])C([H])([H])C(C([H])([H])[H])(C([H])([H])[H])C([H])([H])Oc1c([H])c([H])c2c(c1[H])C([H])([H])N(C(=O)C([H])(N([H])C(=O)C([H])(N([H])C([H])([H])[H])C([H])([H])[H])C(C([H])([H])[H])(C([H])([H])[H])C([H])([H])[H])C([H])(C(=O)N([H])C1([H])c3c([H])c([H])c([H])c([H])c3C([H])([H])C([H])([H])C1([H])[H])C2([H])[H]

>  <smiles>  (9) 
[H]C(=C1C([H])([H])C([H])(N([H])C(=O)N2C([H])([H])C([H])([H])C([H])([H])C([H])(n3nc(-c4c([H])c([H])c(Oc5c([H])c([H])c(F)c([H])c5F)c([H])c4[H])c(C(=O)N([H])[H])c3N([H])[H])C2([H])[H])C1([H])[H])C([H])(C([H])([H])[H])C([H])([H])C(C([H])([H])[H])(C([H])([H])[H])C([H])([H])Oc1c([H])c([H])c2c(c1[H])C([H])([H])N(C(=O)C([H])(N([H])C(=O)C([H])(N([H])C([H])([H])[H])C([H])([H])[H])C(C([H])([H])[H])(C([H])([H])[H])C([H])([H])[H])C([H])(C(=O)N([H])C1([H])c3c([H])c([H])c([H])c([H])c3C([H])([H])C([H])([H])C1([H])[H])C2([H])[H]

$$$$
9:0:0
     RDKit          3D

 95103  0  0  1  0  0  0  0  0999 V2000
  -31.2240  -20.6620   19.4510 C   0  0  0  0  0  2  0  0  0  0  0  0
  -31.5820  -21.9470   20.2240 C   0  0  0  0  0  2  0  0  0  0  0  0
  -30.2090  -20.3490   20.5550 C   0  0  0  0  0  3  0  0  0  0  0  0
  -30.1880  -21.9020   20.8890 C   0  0  0  0  0  3  0  0  0  0  0  0
  -29.2170  -22.8480   20.2280 N   0  0  0  0  0  4  0  0  0  0  0  0
  -28.2890  -22.6200   20.5470 H   0  0  0  0  0  0  0  0  0  0  0  0
  -29.2520  -22.7340   19.2270 H   0  0  0  0  0  0  0  0  0  0  0  0
  -29.4090  -24.3120   20.5280 C   0  0  0  0  0  2  0  0  0  0  0  0
  -28.2610  -25.2180   19.9720 C   0  0  0  0  0  2  0  0  0  0  0  0
  -28.3850  -26.6460   20.2370 O   0  0  0  0  0  0  0  0  0  0  0  0
  -24.5990  -31.9140   23.2470 C   0  0  0  0  0  0  0  0  0  0  0  0
  -27.2280  -27.4190   20.1820 C   0  0  0  0  0  0  0  0  0  0  0  0
  -23.3920  -30.5160   21.6070 C   0  0  0  0  0  3  0  0  0  0  0  0
  -24.8420  -28.9730   20.1820 C   0  0  0  0  0  0  0  0  0  0  0  0
  -25.9250  -30.8540   21.4160 C   0  0  0  0  0  2  0  0  0  0  0  0
  -26.0060  -29.4810   20.7720 C   0  0  0  0  0  0  0  0  0  0  0  0
  -27.2000  -28.7130   20.7650 C   0  0  0  0  0  3  0  0  0  0  0  0
  -26.0390  -26.9480   19.5700 C   0  0  0  0  0  3  0  0  0  0  0  0
  -24.8560  -27.7080   19.5760 C   0  0  0  0  0  3  0  0  0  0  0  0
  -23.6020  -29.8390   20.2270 C   0  0  0  0  0  2  0  0  0  0  0  0
  -24.6570  -31.1100   22.1480 N   0  0  0  0  0  0  0  0  0  0  0  0
  -23.5170  -32.1920   23.7840 O   0  0  0  0  0  0  0  0  0  0  0  0
  -22.7330  -29.4980   22.5670 C   0  0  0  0  0  0  0  0  0  0  0  0
  -21.4080  -29.3210   22.4370 N   0  0  0  0  0  0  0  0  0  0  0  0
  -23.4130  -28.8720   23.3840 O   0  0  0  0  0  0  0  0  0  0  0  0
  -20.9200  -29.8790   21.7500 H   0  0  0  0  0  0  0  0  0  0  0  0
  -18.0280  -28.1400   22.9350 C   0  0  0  0  0  0  0  0  0  0  0  0
  -20.5870  -28.3860   23.2090 C   0  0  0  0  0  3  0  0  0  0  0  0
  -20.6830  -26.9540   22.6340 C   0  0  0  0  0  2  0  0  0  0  0  0
  -19.5800  -26.6350   21.6200 C   0  0  0  0  0  2  0  0  0  0  0  0
  -18.1990  -26.7890   22.2620 C   0  0  0  0  0  2  0  0  0  0  0  0
  -19.1490  -28.8970   23.3660 C   0  0  0  0  0  0  0  0  0  0  0  0
  -18.9360  -30.1610   23.9540 C   0  0  0  0  0  3  0  0  0  0  0  0
  -17.6340  -30.6710   24.1170 C   0  0  0  0  0  3  0  0  0  0  0  0
  -16.5260  -29.9100   23.7020 C   0  0  0  0  0  3  0  0  0  0  0  0
  -16.7240  -28.6460   23.1180 C   0  0  0  0  0  3  0  0  0  0  0  0
  -25.8860  -32.5430   23.8670 C   0  0  0  0  0  3  0  0  0  0  0  0
  -25.5820  -33.9430   24.1930 N   0  0  0  0  0  0  0  0  0  0  0  0
  -25.9120  -34.9910   23.4270 C   0  0  0  0  0  0  0  0  0  0  0  0
  -26.5760  -34.8810   22.3920 O   0  0  0  0  0  0  0  0  0  0  0  0
  -24.9900  -34.1030   24.9960 H   0  0  0  0  0  0  0  0  0  0  0  0
  -24.1830  -36.7830   23.0750 C   0  0  0  0  0  1  0  0  0  0  0  0
  -25.4280  -36.3820   23.8800 C   0  0  0  0  0  3  0  0  0  0  0  0
  -27.5700  -37.2680   24.6920 C   0  0  0  0  0  1  0  0  0  0  0  0
  -26.4620  -37.4320   23.7550 N   0  0  0  0  0  0  0  0  0  0  0  0
  -26.0580  -38.3530   23.9010 H   0  0  0  0  0  0  0  0  0  0  0  0
  -26.4000  -31.7730   25.1440 C   0  0  1  0  0  0  0  0  0  0  0  0
  -25.3060  -31.5400   26.2120 C   0  0  0  0  0  1  0  0  0  0  0  0
  -26.9800  -30.3920   24.7550 C   0  0  0  0  0  1  0  0  0  0  0  0
  -27.5510  -32.5650   25.8060 C   0  0  0  0  0  1  0  0  0  0  0  0
  -29.0300  -19.3350   20.3720 C   0  0  0  0  0  3  0  0  0  0  0  0
  -28.0810  -19.7560   19.3200 N   0  0  0  0  0  4  0  0  0  0  0  0
  -28.5280  -19.8530   18.4250 H   0  0  0  0  0  0  0  0  0  0  0  0
  -27.5850  -20.5960   19.5480 H   0  0  0  0  0  0  0  0  0  0  0  0
  -27.3760  -19.0460   19.2210 H   0  0  0  0  0  0  0  0  0  0  0  0
  -29.4530  -17.8440   20.0670 C   0  0  0  0  0  2  0  0  0  0  0  0
  -30.1790  -16.9990   21.1620 C   0  0  0  0  0  2  0  0  0  0  0  0
  -30.6400  -14.5490   20.5320 C   0  0  0  0  0  0  0  0  0  0  0  0
  -30.3810  -12.3830   19.3650 C   0  0  0  0  0  2  0  0  0  0  0  0
  -29.4320  -12.5780   18.1630 C   0  0  0  0  0  2  0  0  0  0  0  0
  -27.9590  -12.4290   18.5930 C   0  0  0  0  0  2  0  0  0  0  0  0
  -27.6180  -13.2570   19.8600 C   0  0  0  0  0  3  0  0  0  0  0  0
  -28.6740  -13.0280   20.9660 C   0  0  0  0  0  2  0  0  0  0  0  0
  -29.9950  -13.3540   20.4000 N   0  0  0  0  0  0  0  0  0  0  0  0
  -31.7650  -14.7560   20.0690 O   0  0  0  0  0  0  0  0  0  0  0  0
  -29.8950  -15.5450   21.0590 N   0  0  0  0  0  0  0  0  0  0  0  0
  -28.9930  -15.2470   21.4010 H   0  0  0  0  0  0  0  0  0  0  0  0
  -25.2160  -13.8620   20.5630 C   0  0  0  0  0  0  0  0  0  0  0  0
  -24.1490  -13.0880   20.9320 C   0  0  0  0  0  0  0  0  0  0  0  0
  -24.6120  -11.7360   20.9040 C   0  0  0  0  0  0  0  0  0  0  0  0
  -26.2640  -12.9810   20.3360 N   0  0  0  0  0  0  0  0  0  0  0  0
  -25.9040  -11.6990   20.6000 N   0  0  0  0  0  0  0  0  0  0  0  0
  -23.8880  -10.4730   21.0940 C   0  0  0  0  0  0  0  0  0  0  0  0
  -24.3320   -9.5000   22.0150 C   0  0  0  0  0  3  0  0  0  0  0  0
  -23.6090   -8.3000   22.1940 C   0  0  0  0  0  3  0  0  0  0  0  0
  -22.4280   -8.0660   21.4490 C   0  0  0  0  0  0  0  0  0  0  0  0
  -22.0030   -9.0280   20.5160 C   0  0  0  0  0  3  0  0  0  0  0  0
  -22.7280  -10.2180   20.3360 C   0  0  0  0  0  3  0  0  0  0  0  0
  -21.6760   -6.9190   21.5360 O   0  0  0  0  0  0  0  0  0  0  0  0
  -21.6480   -6.1620   22.6790 C   0  0  0  0  0  0  0  0  0  0  0  0
  -21.2450   -6.7020   23.9210 C   0  0  0  0  0  3  0  0  0  0  0  0
  -21.1640   -5.8710   25.0560 C   0  0  0  0  0  3  0  0  0  0  0  0
  -21.4760   -4.5020   24.9510 C   0  0  0  0  0  0  0  0  0  0  0  0
  -21.8720   -3.9620   23.7150 C   0  0  0  0  0  3  0  0  0  0  0  0
  -21.9550   -4.7900   22.5820 C   0  0  0  0  0  0  0  0  0  0  0  0
  -22.3160   -4.2610   21.3880 F   0  0  0  0  0  0  0  0  0  0  0  0
  -21.3920   -3.7010   26.0390 F   0  0  0  0  0  0  0  0  0  0  0  0
  -22.7500  -13.5630   21.2030 C   0  0  0  0  0  0  0  0  0  0  0  0
  -22.0230  -12.8640   22.0680 N   0  0  0  0  0  0  0  0  0  0  0  0
  -22.3100  -14.5860   20.6820 O   0  0  0  0  0  0  0  0  0  0  0  0
  -22.3920  -12.0360   22.5110 H   0  0  0  0  0  0  0  0  0  0  0  0
  -21.0840  -13.1620   22.2900 H   0  0  0  0  0  0  0  0  0  0  0  0
  -25.3800  -15.2310   20.3810 N   0  0  0  0  0  0  0  0  0  0  0  0
  -24.6080  -15.8820   20.4730 H   0  0  0  0  0  0  0  0  0  0  0  0
  -26.2250  -15.6630   20.0280 H   0  0  0  0  0  0  0  0  0  0  0  0
  1  2  1  0
  1  3  1  0
  2  4  1  0
  3 51  1  0
  3  4  1  0
  4  5  1  0
  5  8  1  0
  5  6  1  0
  7  5  1  0
  9 10  1  0
  9  8  1  0
 11 22  2  0
 12 10  1  0
 12 17  1  0
 13 21  1  0
 13 23  1  0
 14 20  1  0
 14 16  1  0
 15 21  1  0
 16 15  1  0
 17 16  2  0
 18 19  1  0
 18 12  2  0
 19 14  2  0
 20 13  1  0
 21 11  1  0
 23 25  2  0
 24 23  1  0
 26 24  1  0
 27 36  2  0
 27 32  1  0
 28 24  1  0
 28 32  1  0
 29 28  1  0
 30 31  1  0
 30 29  1  0
 31 27  1  0
 32 33  2  0
 33 34  1  0
 35 34  2  0
 36 35  1  0
 37 11  1  0
 37 38  1  0
 37 47  1  0
 38 41  1  0
 39 43  1  0
 39 38  1  0
 40 39  2  0
 43 42  1  0
 45 43  1  0
 45 46  1  0
 45 44  1  0
 47 50  1  1
 47 48  1  0
 49 47  1  0
 51 56  1  0
 52 54  1  0
 52 51  1  0
 53 52  1  0
 55 52  1  0
 56 57  1  0
 58 66  1  0
 59 64  1  0
 60 61  1  0
 60 59  1  0
 62 61  1  0
 62 71  1  0
 62 63  1  0
 64 58  1  0
 64 63  1  0
 65 58  2  0
 66 57  1  0
 66 67  1  0
 68 69  2  0
 69 88  1  0
 70 69  1  0
 70 73  1  0
 71 68  1  0
 71 72  1  0
 72 70  2  0
 73 74  1  0
 74 75  2  0
 76 79  1  0
 76 75  1  0
 77 76  2  0
 78 77  1  0
 78 73  2  0
 79 80  1  0
 80 81  1  0
 81 82  2  0
 83 82  1  0
 83 87  1  0
 84 83  2  0
 85 80  2  0
 85 84  1  0
 86 85  1  0
 88 89  1  0
 89 92  1  0
 89 91  1  0
 90 88  2  0
 93 94  1  0
 93 68  1  0
 95 93  1  0
M  ISO  4   9 101  10 101  58 100  66 100
M  END
>  <TORSDO>  (10) 
F 23

>  <SCORE>  (10) 
-13.112

>  <name>  (10) 
9

>  <ligand_id>  (10) 
9

>  <original_smiles>  (10) 
[H]c1c([H])c([H])c2c(c1[H])C([H])([H])C([H])([H])C([H])([H])C2([H])N([H])C(=O)C1([H])N(C(=O)C([H])(N([H])C(=O)C([H])(N([H])C([H])([H])[H])C([H])([H])[H])C(C([H])([H])[H])(C([H])([H])[H])C([H])([H])[H])C([H])([H])c2c([H])c(OC([H])([H])C([H])([H])[N+]([H])([H])C3([H])C([H])([H])C([H])([H])C3([H])C([H])(C([H])([H])C([H])([H])N([H])C(=O)N3C([H])([H])C([H])([H])C([H])([H])C([H])(n4nc(-c5c([H])c([H])c(Oc6c([H])c([H])c(F)c([H])c6F)c([H])c5[H])c(C(=O)N([H])[H])c4N([H])[H])C3([H])[H])[N+]([H])([H])[H])c([H])c([H])c2C1([H])[H]

>  <smiles>  (10) 
[H]c1c([H])c([H])c2c(c1[H])C([H])([H])C([H])([H])C([H])([H])C2([H])N([H])C(=O)C1([H])N(C(=O)C([H])(N([H])C(=O)C([H])(N([H])C([H])([H])[H])C([H])([H])[H])C(C([H])([H])[H])(C([H])([H])[H])C([H])([H])[H])C([H])([H])c2c([H])c(OC([H])([H])C([H])([H])[N+]([H])([H])C3([H])C([H])([H])C([H])([H])C3([H])C([H])(C([H])([H])C([H])([H])N([H])C(=O)N3C([H])([H])C([H])([H])C([H])([H])C([H])(n4nc(-c5c([H])c([H])c(Oc6c([H])c([H])c(F)c([H])c6F)c([H])c5[H])c(C(=O)N([H])[H])c4N([H])[H])C3([H])[H])[N+]([H])([H])[H])c([H])c([H])c2C1([H])[H]

$$$$
10:0:0
     RDKit          3D

 91 99  0  0  1  0  0  0  0  0999 V2000
  -29.7650  -21.8160   19.7360 C   0  0  0  0  0  0  0  0  0  0  0  0
  -30.2760  -20.5160   19.7920 C   0  0  0  0  0  3  0  0  0  0  0  0
  -30.3180  -23.0960   19.0540 C   0  0  0  0  0  2  0  0  0  0  0  0
  -28.4960  -22.5730   20.1820 C   0  0  0  0  0  3  0  0  0  0  0  0
  -29.2760  -23.9430   19.8780 C   0  0  0  0  0  3  0  0  0  0  0  0
  -28.0740  -22.3080   21.6280 C   0  0  0  0  0  0  0  0  0  0  0  0
  -26.8160  -21.4810   21.7860 C   0  0  0  0  0  1  0  0  0  0  0  0
  -28.7050  -22.7350   22.6400 N   0  0  0  0  0  0  0  0  0  0  0  0
  -29.5290  -23.2630   22.3790 H   0  0  0  0  0  0  0  0  0  0  0  0
  -29.7610  -19.1120   20.3560 C   0  0  0  0  0  3  0  0  0  0  0  0
  -30.7540  -17.8160   20.2350 C   0  0  0  0  0  3  0  0  0  0  0  0
  -31.0350  -15.1950   20.3190 C   0  0  0  0  0  0  0  0  0  0  0  0
  -30.8350  -12.8770   19.3940 C   0  0  0  0  0  2  0  0  0  0  0  0
  -29.9320  -12.8860   18.1400 C   0  0  0  0  0  2  0  0  0  0  0  0
  -28.4510  -12.7400   18.5370 C   0  0  0  0  0  2  0  0  0  0  0  0
  -28.0480  -13.6970   19.6900 C   0  0  0  0  0  3  0  0  0  0  0  0
  -29.0700  -13.6610   20.8470 C   0  0  0  0  0  2  0  0  0  0  0  0
  -30.3860  -13.9780   20.2800 N   0  0  0  0  0  0  0  0  0  0  0  0
  -32.2300  -15.2520   20.0200 O   0  0  0  0  0  0  0  0  0  0  0  0
  -30.2950  -16.3650   20.4770 N   0  0  0  0  0  0  0  0  0  0  0  0
  -29.3180  -16.2310   20.6960 H   0  0  0  0  0  0  0  0  0  0  0  0
  -25.6740  -14.3620   20.3910 C   0  0  0  0  0  0  0  0  0  0  0  0
  -24.5750  -13.6180   20.7280 C   0  0  0  0  0  0  0  0  0  0  0  0
  -24.9920  -12.2530   20.6820 C   0  0  0  0  0  0  0  0  0  0  0  0
  -26.6890  -13.4500   20.1540 N   0  0  0  0  0  0  0  0  0  0  0  0
  -26.2870  -12.1750   20.3970 N   0  0  0  0  0  0  0  0  0  0  0  0
  -24.2190  -11.0140   20.8350 C   0  0  0  0  0  0  0  0  0  0  0  0
  -24.5940  -10.0180   21.7640 C   0  0  0  0  0  3  0  0  0  0  0  0
  -23.8230   -8.8440   21.9070 C   0  0  0  0  0  3  0  0  0  0  0  0
  -22.6630   -8.6580   21.1190 C   0  0  0  0  0  0  0  0  0  0  0  0
  -22.3070   -9.6390   20.1770 C   0  0  0  0  0  3  0  0  0  0  0  0
  -23.0790  -10.8050   20.0320 C   0  0  0  0  0  3  0  0  0  0  0  0
  -21.8660   -7.5390   21.1710 O   0  0  0  0  0  0  0  0  0  0  0  0
  -21.7580   -6.7840   22.3120 C   0  0  0  0  0  0  0  0  0  0  0  0
  -21.2980   -7.3320   23.5280 C   0  0  0  0  0  3  0  0  0  0  0  0
  -21.1370   -6.5040   24.6570 C   0  0  0  0  0  3  0  0  0  0  0  0
  -21.4290   -5.1300   24.5700 C   0  0  0  0  0  0  0  0  0  0  0  0
  -21.8830   -4.5810   23.3560 C   0  0  0  0  0  3  0  0  0  0  0  0
  -22.0440   -5.4060   22.2300 C   0  0  0  0  0  0  0  0  0  0  0  0
  -22.4630   -4.8690   21.0590 F   0  0  0  0  0  0  0  0  0  0  0  0
  -21.2670   -4.3320   25.6510 F   0  0  0  0  0  0  0  0  0  0  0  0
  -23.1890  -14.1380   20.9790 C   0  0  0  0  0  0  0  0  0  0  0  0
  -22.4200  -13.4560   21.8190 N   0  0  0  0  0  0  0  0  0  0  0  0
  -22.7980  -15.1850   20.4630 O   0  0  0  0  0  0  0  0  0  0  0  0
  -22.7510  -12.6070   22.2530 H   0  0  0  0  0  0  0  0  0  0  0  0
  -21.4870  -13.7840   22.0270 H   0  0  0  0  0  0  0  0  0  0  0  0
  -25.8900  -15.7280   20.2420 N   0  0  0  0  0  0  0  0  0  0  0  0
  -25.1400  -16.4010   20.3500 H   0  0  0  0  0  0  0  0  0  0  0  0
  -26.7480  -16.1430   19.9030 H   0  0  0  0  0  0  0  0  0  0  0  0
  -28.4640  -25.2120   19.2600 C   0  0  0  0  0  2  0  0  0  0  0  0
  -28.6800  -26.6940   19.5050 O   0  0  0  0  0  0  0  0  0  0  0  0
  -24.6640  -31.6600   22.9950 C   0  0  0  0  0  0  0  0  0  0  0  0
  -27.5410  -27.5480   19.5090 C   0  0  0  0  0  0  0  0  0  0  0  0
  -23.5400  -30.3260   21.2530 C   0  0  0  0  0  3  0  0  0  0  0  0
  -25.0730  -29.0320   19.6650 C   0  0  0  0  0  0  0  0  0  0  0  0
  -26.0520  -30.8400   21.0680 C   0  0  0  0  0  2  0  0  0  0  0  0
  -26.2200  -29.5320   20.2940 C   0  0  0  0  0  0  0  0  0  0  0  0
  -27.4560  -28.8060   20.2060 C   0  0  0  0  0  3  0  0  0  0  0  0
  -26.3630  -27.1410   18.8340 C   0  0  0  0  0  3  0  0  0  0  0  0
  -25.1500  -27.8460   18.9260 C   0  0  0  0  0  3  0  0  0  0  0  0
  -23.7770  -29.8070   19.8120 C   0  0  0  0  0  2  0  0  0  0  0  0
  -24.7710  -30.9570   21.8290 N   0  0  0  0  0  0  0  0  0  0  0  0
  -23.5730  -31.8010   23.5680 O   0  0  0  0  0  0  0  0  0  0  0  0
  -22.9770  -29.1760   22.1240 C   0  0  0  0  0  0  0  0  0  0  0  0
  -21.6640  -28.9090   22.0070 N   0  0  0  0  0  0  0  0  0  0  0  0
  -23.7210  -28.5290   22.8670 O   0  0  0  0  0  0  0  0  0  0  0  0
  -21.1170  -29.4880   21.3870 H   0  0  0  0  0  0  0  0  0  0  0  0
  -18.3950  -27.4290   22.4810 C   0  0  0  0  0  0  0  0  0  0  0  0
  -20.9390  -27.8440   22.7030 C   0  0  0  0  0  3  0  0  0  0  0  0
  -21.1180  -26.4840   21.9880 C   0  0  0  0  0  2  0  0  0  0  0  0
  -20.0090  -26.1840   20.9770 C   0  0  0  0  0  2  0  0  0  0  0  0
  -18.6410  -26.1690   21.6670 C   0  0  0  0  0  2  0  0  0  0  0  0
  -19.4750  -28.2240   22.9530 C   0  0  0  0  0  0  0  0  0  0  0  0
  -19.1890  -29.4030   23.6730 C   0  0  0  0  0  3  0  0  0  0  0  0
  -17.8600  -29.7900   23.9260 C   0  0  0  0  0  3  0  0  0  0  0  0
  -16.7970  -28.9920   23.4670 C   0  0  0  0  0  3  0  0  0  0  0  0
  -17.0650  -27.8140   22.7500 C   0  0  0  0  0  3  0  0  0  0  0  0
  -25.9050  -32.3360   23.6540 C   0  0  0  0  0  3  0  0  0  0  0  0
  -26.4630  -31.5370   24.8950 C   0  0  1  0  0  0  0  0  0  0  0  0
  -25.3840  -31.1940   25.9480 C   0  0  0  0  0  1  0  0  0  0  0  0
  -27.1190  -30.2110   24.4440 C   0  0  0  0  0  1  0  0  0  0  0  0
  -27.5660  -32.3620   25.5970 C   0  0  0  0  0  1  0  0  0  0  0  0
  -25.5120  -33.6970   24.0530 N   0  0  0  0  0  0  0  0  0  0  0  0
  -25.7620  -34.8020   23.3400 C   0  0  0  0  0  0  0  0  0  0  0  0
  -26.4190  -34.7910   22.2960 O   0  0  0  0  0  0  0  0  0  0  0  0
  -24.9280  -33.7780   24.8720 H   0  0  0  0  0  0  0  0  0  0  0  0
  -23.9050  -36.4830   23.1120 C   0  0  0  0  0  1  0  0  0  0  0  0
  -25.1950  -36.1340   23.8710 C   0  0  0  0  0  3  0  0  0  0  0  0
  -27.2830  -37.1350   24.6840 C   0  0  0  0  0  1  0  0  0  0  0  0
  -26.1470  -37.2610   23.7750 N   0  0  0  0  0  0  0  0  0  0  0  0
  -25.6810  -38.1430   23.9680 H   0  0  0  0  0  0  0  0  0  0  0  0
  1  2  2  0
  1  4  1  0
  2 10  1  0
  3  1  1  0
  3  5  1  0
  4  6  1  0
  5 50  1  0
  5  4  1  0
  6  7  1  0
  6  8  2  0
  9  8  1  0
 11 10  2  0
 11 20  1  0
 12 20  1  0
 13 18  1  0
 14 15  1  0
 14 13  1  0
 16 15  1  0
 16 25  1  0
 16 17  1  0
 18 12  1  0
 18 17  1  0
 19 12  2  0
 20 21  1  0
 22 23  2  0
 23 42  1  0
 24 23  1  0
 24 27  1  0
 25 22  1  0
 25 26  1  0
 26 24  2  0
 27 28  1  0
 28 29  2  0
 30 33  1  0
 30 29  1  0
 31 30  2  0
 32 31  1  0
 32 27  2  0
 33 34  1  0
 34 35  1  0
 35 36  2  0
 37 36  1  0
 37 41  1  0
 38 37  2  0
 39 34  2  0
 39 38  1  0
 40 39  1  0
 42 43  1  0
 43 46  1  0
 43 45  1  0
 44 42  2  0
 47 48  1  0
 47 22  1  0
 49 47  1  0
 50 51  1  0
 51 53  1  0
 52 63  2  0
 53 58  1  0
 54 62  1  0
 54 64  1  0
 55 61  1  0
 55 57  1  0
 56 62  1  0
 57 56  1  0
 58 57  2  0
 59 60  1  0
 59 53  2  0
 60 55  2  0
 61 54  1  0
 62 52  1  0
 64 66  2  0
 65 64  1  0
 67 65  1  0
 68 77  2  0
 68 73  1  0
 69 65  1  0
 69 73  1  0
 70 69  1  0
 71 72  1  0
 71 70  1  0
 72 68  1  0
 73 74  2  0
 74 75  1  0
 76 75  2  0
 77 76  1  0
 78 52  1  0
 78 83  1  0
 78 79  1  0
 79 82  1  1
 79 80  1  0
 81 79  1  0
 83 86  1  0
 84 88  1  0
 84 83  1  0
 85 84  2  0
 88 87  1  0
 90 88  1  0
 90 91  1  0
 90 89  1  0
M  ISO  4  12 100  20 100  50 101  51 101
M  END
>  <TORSDO>  (11) 
F 20

>  <SCORE>  (11) 
-10.235

>  <name>  (11) 
10

>  <ligand_id>  (11) 
10

>  <original_smiles>  (11) 
[H]N=C(C([H])([H])[H])C1([H])C(=C([H])C([H])([H])C([H])([H])N([H])C(=O)N2C([H])([H])C([H])([H])C([H])([H])C([H])(n3nc(-c4c([H])c([H])c(Oc5c([H])c([H])c(F)c([H])c5F)c([H])c4[H])c(C(=O)N([H])[H])c3N([H])[H])C2([H])[H])C([H])([H])C1([H])C([H])([H])Oc1c([H])c([H])c2c(c1[H])C([H])([H])N(C(=O)C([H])(N([H])C(=O)C([H])(N([H])C([H])([H])[H])C([H])([H])[H])C(C([H])([H])[H])(C([H])([H])[H])C([H])([H])[H])C([H])(C(=O)N([H])C1([H])c3c([H])c([H])c([H])c([H])c3C([H])([H])C([H])([H])C1([H])[H])C2([H])[H]

>  <smiles>  (11) 
[H]N=C(C([H])([H])[H])C1([H])C(=C([H])C([H])([H])C([H])([H])N([H])C(=O)N2C([H])([H])C([H])([H])C([H])([H])C([H])(n3nc(-c4c([H])c([H])c(Oc5c([H])c([H])c(F)c([H])c5F)c([H])c4[H])c(C(=O)N([H])[H])c3N([H])[H])C2([H])[H])C([H])([H])C1([H])C([H])([H])Oc1c([H])c([H])c2c(c1[H])C([H])([H])N(C(=O)C([H])(N([H])C(=O)C([H])(N([H])C([H])([H])[H])C([H])([H])[H])C(C([H])([H])[H])(C([H])([H])[H])C([H])([H])[H])C([H])(C(=O)N([H])C1([H])c3c([H])c([H])c([H])c([H])c3C([H])([H])C([H])([H])C1([H])[H])C2([H])[H]

$$$$
11:0:0
     RDKit          3D

 90 98  0  0  1  0  0  0  0  0999 V2000
  -28.5980  -22.7200   20.5310 C   0  0  0  0  0  0  0  0  0  0  0  0
  -27.8460  -22.5570   21.4970 O   0  0  0  0  0  0  0  0  0  0  0  0
  -28.7730  -24.1290   19.8860 C   0  0  0  0  0  3  0  0  0  0  0  0
  -28.2640  -25.3400   20.7370 C   0  0  0  0  0  3  0  0  0  0  0  0
  -28.3950  -26.6520   20.1160 O   0  0  0  0  0  0  0  0  0  0  0  0
  -24.6150  -31.8750   23.2220 C   0  0  0  0  0  0  0  0  0  0  0  0
  -27.2510  -27.4320   20.1120 C   0  0  0  0  0  0  0  0  0  0  0  0
  -23.4050  -30.4810   21.5770 C   0  0  0  0  0  3  0  0  0  0  0  0
  -24.8590  -28.9580   20.1290 C   0  0  0  0  0  0  0  0  0  0  0  0
  -25.9330  -30.8450   21.3680 C   0  0  0  0  0  2  0  0  0  0  0  0
  -26.0210  -29.4800   20.7110 C   0  0  0  0  0  0  0  0  0  0  0  0
  -27.2240  -28.7280   20.6860 C   0  0  0  0  0  3  0  0  0  0  0  0
  -26.0710  -26.9350   19.5230 C   0  0  0  0  0  3  0  0  0  0  0  0
  -24.8800  -27.6890   19.5260 C   0  0  0  0  0  3  0  0  0  0  0  0
  -23.6100  -29.8110   20.1900 C   0  0  0  0  0  2  0  0  0  0  0  0
  -24.6690  -31.0820   22.1120 N   0  0  0  0  0  0  0  0  0  0  0  0
  -23.5360  -32.1350   23.7730 O   0  0  0  0  0  0  0  0  0  0  0  0
  -22.7640  -29.4500   22.5350 C   0  0  0  0  0  0  0  0  0  0  0  0
  -21.4380  -29.2600   22.4160 N   0  0  0  0  0  0  0  0  0  0  0  0
  -23.4560  -28.8210   23.3390 O   0  0  0  0  0  0  0  0  0  0  0  0
  -20.9380  -29.8200   21.7420 H   0  0  0  0  0  0  0  0  0  0  0  0
  -18.0770  -28.0340   22.9220 C   0  0  0  0  0  0  0  0  0  0  0  0
  -20.6330  -28.3120   23.1870 C   0  0  0  0  0  3  0  0  0  0  0  0
  -20.7450  -26.8820   22.6050 C   0  0  0  0  0  2  0  0  0  0  0  0
  -19.6450  -26.5560   21.5910 C   0  0  0  0  0  2  0  0  0  0  0  0
  -18.2640  -26.6890   22.2400 C   0  0  0  0  0  2  0  0  0  0  0  0
  -19.1890  -28.8030   23.3520 C   0  0  0  0  0  0  0  0  0  0  0  0
  -18.9640  -30.0640   23.9450 C   0  0  0  0  0  3  0  0  0  0  0  0
  -17.6570  -30.5560   24.1130 C   0  0  0  0  0  3  0  0  0  0  0  0
  -16.5580  -29.7840   23.7040 C   0  0  0  0  0  3  0  0  0  0  0  0
  -16.7680  -28.5240   23.1140 C   0  0  0  0  0  3  0  0  0  0  0  0
  -25.9030  -32.5090   23.8350 C   0  0  0  0  0  3  0  0  0  0  0  0
  -25.5920  -33.9020   24.1770 N   0  0  0  0  0  0  0  0  0  0  0  0
  -25.9190  -34.9610   23.4230 C   0  0  0  0  0  0  0  0  0  0  0  0
  -26.5850  -34.8680   22.3890 O   0  0  0  0  0  0  0  0  0  0  0  0
  -25.0050  -34.0500   24.9840 H   0  0  0  0  0  0  0  0  0  0  0  0
  -24.1850  -36.7520   23.0890 C   0  0  0  0  0  1  0  0  0  0  0  0
  -25.4290  -36.3450   23.8950 C   0  0  0  0  0  3  0  0  0  0  0  0
  -27.5610  -37.2270   24.7350 C   0  0  0  0  0  1  0  0  0  0  0  0
  -26.4590  -37.4010   23.7930 N   0  0  0  0  0  0  0  0  0  0  0  0
  -26.0510  -38.3190   23.9500 H   0  0  0  0  0  0  0  0  0  0  0  0
  -26.4380  -31.7320   25.1010 C   0  0  1  0  0  0  0  0  0  0  0  0
  -25.3590  -31.4810   26.1790 C   0  0  0  0  0  1  0  0  0  0  0  0
  -27.0230  -30.3620   24.6920 C   0  0  0  0  0  1  0  0  0  0  0  0
  -27.5880  -32.5290   25.7590 C   0  0  0  0  0  1  0  0  0  0  0  0
  -29.3780  -21.5180   19.9260 C   0  0  0  0  0  2  0  0  0  0  0  0
  -30.4250  -18.6720   21.5610 C   0  0  0  0  0  2  0  0  0  0  0  0
  -29.7030  -19.7770   21.7850 C   0  0  0  0  0  2  0  0  0  0  0  0
  -29.0990  -19.0280   19.6270 C   0  0  0  0  0  2  0  0  0  0  0  0
  -30.3370  -18.2290   20.1240 C   0  0  0  0  0  3  0  0  0  0  0  0
  -28.9770  -20.2090   20.5470 N   0  0  2  0  0  4  0  0  0  0  0  0
  -27.9970  -20.3120   20.7650 H   0  0  0  0  0  0  0  0  0  0  0  0
  -30.3820  -16.7160   19.8210 C   0  0  0  0  0  2  0  0  0  0  0  0
  -30.5000  -15.7450   20.6620 N   0  0  0  0  0  2  0  0  0  0  0  0
  -31.0960  -14.6080   20.1030 C   0  0  0  0  0  0  0  0  0  0  0  0
  -30.6480  -12.4700   18.9570 C   0  0  0  0  0  2  0  0  0  0  0  0
  -29.6850  -12.7100   17.7780 C   0  0  0  0  0  2  0  0  0  0  0  0
  -28.2230  -12.6020   18.2510 C   0  0  0  0  0  2  0  0  0  0  0  0
  -27.9430  -13.4380   19.5310 C   0  0  0  0  0  3  0  0  0  0  0  0
  -29.0310  -13.2260   20.6050 C   0  0  0  0  0  2  0  0  0  0  0  0
  -30.3430  -13.4770   19.9900 N   0  0  0  0  0  0  0  0  0  0  0  0
  -32.2150  -14.6620   19.5860 O   0  0  0  0  0  0  0  0  0  0  0  0
  -25.5820  -14.0710   20.3330 C   0  0  0  0  0  0  0  0  0  0  0  0
  -24.5140  -13.3150   20.7300 C   0  0  0  0  0  0  0  0  0  0  0  0
  -24.9480  -11.9550   20.6720 C   0  0  0  0  0  0  0  0  0  0  0  0
  -26.6040  -13.1770   20.0590 N   0  0  0  0  0  0  0  0  0  0  0  0
  -26.2280  -11.8990   20.3230 N   0  0  0  0  0  0  0  0  0  0  0  0
  -24.2070  -10.7040   20.8760 C   0  0  0  0  0  0  0  0  0  0  0  0
  -24.6000   -9.7640   21.8540 C   0  0  0  0  0  3  0  0  0  0  0  0
  -23.8590   -8.5780   22.0470 C   0  0  0  0  0  3  0  0  0  0  0  0
  -22.7100   -8.3220   21.2610 C   0  0  0  0  0  0  0  0  0  0  0  0
  -22.3360   -9.2510   20.2730 C   0  0  0  0  0  3  0  0  0  0  0  0
  -23.0780  -10.4290   20.0790 C   0  0  0  0  0  3  0  0  0  0  0  0
  -21.9480   -7.1830   21.3560 O   0  0  0  0  0  0  0  0  0  0  0  0
  -21.7860   -6.5230   22.5480 C   0  0  0  0  0  0  0  0  0  0  0  0
  -21.2340   -7.1590   23.6820 C   0  0  0  0  0  3  0  0  0  0  0  0
  -21.0190   -6.4240   24.8660 C   0  0  0  0  0  3  0  0  0  0  0  0
  -21.3440   -5.0550   24.9160 C   0  0  0  0  0  0  0  0  0  0  0  0
  -21.8890   -4.4210   23.7860 C   0  0  0  0  0  3  0  0  0  0  0  0
  -22.1060   -5.1520   22.6040 C   0  0  0  0  0  0  0  0  0  0  0  0
  -22.6100   -4.5300   21.5120 F   0  0  0  0  0  0  0  0  0  0  0  0
  -21.1320   -4.3480   26.0490 F   0  0  0  0  0  0  0  0  0  0  0  0
  -23.1340  -13.8140   21.0510 C   0  0  0  0  0  0  0  0  0  0  0  0
  -22.4250  -13.1270   21.9380 N   0  0  0  0  0  0  0  0  0  0  0  0
  -22.6940  -14.8470   20.5480 O   0  0  0  0  0  0  0  0  0  0  0  0
  -22.8000  -12.2970   22.3760 H   0  0  0  0  0  0  0  0  0  0  0  0
  -21.4950  -13.4330   22.1850 H   0  0  0  0  0  0  0  0  0  0  0  0
  -25.7720  -15.4410   20.1640 N   0  0  0  0  0  0  0  0  0  0  0  0
  -25.0300  -16.1170   20.3010 H   0  0  0  0  0  0  0  0  0  0  0  0
  -26.6430  -15.8540   19.8570 H   0  0  0  0  0  0  0  0  0  0  0  0
  1  2  2  0
  3  1  1  0
  3  4  2  0
  5  4  1  0
  6 17  2  0
  7  5  1  0
  7 12  1  0
  8 16  1  0
  8 18  1  0
  9 15  1  0
  9 11  1  0
 10 16  1  0
 11 10  1  0
 12 11  2  0
 13 14  1  0
 13  7  2  0
 14  9  2  0
 15  8  1  0
 16  6  1  0
 18 20  2  0
 19 18  1  0
 21 19  1  0
 22 31  2  0
 22 27  1  0
 23 19  1  0
 23 27  1  0
 24 23  1  0
 25 26  1  0
 25 24  1  0
 26 22  1  0
 27 28  2  0
 28 29  1  0
 30 29  2  0
 31 30  1  0
 32  6  1  0
 32 33  1  0
 32 42  1  0
 33 36  1  0
 34 38  1  0
 34 33  1  0
 35 34  2  0
 38 37  1  0
 40 38  1  0
 40 41  1  0
 40 39  1  0
 42 45  1  1
 42 43  1  0
 44 42  1  0
 46  1  1  0
 46 51  1  0
 47 48  1  0
 49 50  1  0
 49 51  1  0
 50 53  1  0
 50 47  1  0
 51 52  1  1
 51 48  1  0
 53 54  1  0
 55 54  1  0
 56 61  1  0
 57 58  1  0
 57 56  1  0
 59 58  1  0
 59 66  1  0
 59 60  1  0
 61 55  1  0
 61 60  1  0
 62 55  2  0
 63 64  2  0
 64 83  1  0
 65 64  1  0
 65 68  1  0
 66 67  1  0
 66 63  1  0
 67 65  2  0
 68 69  1  0
 69 70  2  0
 71 74  1  0
 71 70  1  0
 72 71  2  0
 73 72  1  0
 73 68  2  0
 74 75  1  0
 75 80  2  0
 75 76  1  0
 76 77  2  0
 77 78  1  0
 78 82  1  0
 79 78  2  0
 80 79  1  0
 81 80  1  0
 83 84  1  0
 84 87  1  0
 84 86  1  0
 85 83  2  0
 88 89  1  0
 88 63  1  0
 90 88  1  0
M  ISO  4   4 101   5 101  54 100  55 100
M  END
>  <TORSDO>  (12) 
F 21

>  <SCORE>  (12) 
-12.740

>  <name>  (12) 
11

>  <ligand_id>  (12) 
11

>  <original_smiles>  (12) 
[H]C(=NC(=O)N1C([H])([H])C([H])([H])C([H])([H])C([H])(n2nc(-c3c([H])c([H])c(Oc4c([H])c([H])c(F)c([H])c4F)c([H])c3[H])c(C(=O)N([H])[H])c2N([H])[H])C1([H])[H])C1([H])C([H])=C([H])[N+]([H])(C([H])([H])C(=O)C([H])([H])C([H])([H])Oc2c([H])c([H])c3c(c2[H])C([H])([H])N(C(=O)C([H])(N([H])C(=O)C([H])(N([H])C([H])([H])[H])C([H])([H])[H])C(C([H])([H])[H])(C([H])([H])[H])C([H])([H])[H])C([H])(C(=O)N([H])C2([H])c4c([H])c([H])c([H])c([H])c4C([H])([H])C([H])([H])C2([H])[H])C3([H])[H])C1([H])[H]

>  <smiles>  (12) 
[H]C(=NC(=O)N1C([H])([H])C([H])([H])C([H])([H])C([H])(n2nc(-c3c([H])c([H])c(Oc4c([H])c([H])c(F)c([H])c4F)c([H])c3[H])c(C(=O)N([H])[H])c2N([H])[H])C1([H])[H])C1([H])C([H])=C([H])[N+]([H])(C([H])([H])C(=O)C([H])([H])C([H])([H])Oc2c([H])c([H])c3c(c2[H])C([H])([H])N(C(=O)C([H])(N([H])C(=O)C([H])(N([H])C([H])([H])[H])C([H])([H])[H])C(C([H])([H])[H])(C([H])([H])[H])C([H])([H])[H])C([H])(C(=O)N([H])C2([H])c4c([H])c([H])c([H])c([H])c4C([H])([H])C([H])([H])C2([H])[H])C3([H])[H])C1([H])[H]

$$$$
12:0:0
     RDKit          3D

 95103  0  0  1  0  0  0  0  0999 V2000
  -29.9230  -19.0610   19.3950 C   0  0  0  0  0  0  0  0  0  0  0  0
  -29.0240  -18.8140   18.5390 N   0  0  0  0  0  0  0  0  0  0  0  0
  -28.9900  -17.8270   18.3040 H   0  0  0  0  0  0  0  0  0  0  0  0
  -30.7960  -17.8990   19.9420 C   0  0  0  0  0  2  0  0  0  0  0  0
  -30.7130  -14.5260   20.0540 C   0  0  0  0  0  0  0  0  0  0  0  0
  -30.2990  -12.4830   18.6940 C   0  0  0  0  0  2  0  0  0  0  0  0
  -29.2490  -12.8050   17.6060 C   0  0  0  0  0  2  0  0  0  0  0  0
  -27.8100  -12.6740   18.1500 C   0  0  0  0  0  2  0  0  0  0  0  0
  -27.6190  -13.3560   19.5310 C   0  0  0  0  0  3  0  0  0  0  0  0
  -28.7600  -12.9610   20.4890 C   0  0  0  0  0  2  0  0  0  0  0  0
  -30.0280  -13.3540   19.8520 N   0  0  0  0  0  0  0  0  0  0  0  0
  -31.7540  -14.7840   19.4490 O   0  0  0  0  0  0  0  0  0  0  0  0
  -29.8680  -15.3810   22.2490 C   0  0  0  0  0  2  0  0  0  0  0  0
  -30.6510  -16.6850   22.3180 C   0  0  0  0  0  3  0  0  0  0  0  0
  -30.0410  -16.9810   20.9510 C   0  0  0  0  0  3  0  0  0  0  0  0
  -30.0490  -15.4730   20.7890 N   0  0  0  0  0  0  0  0  0  0  0  0
  -25.3070  -13.9510   20.5000 C   0  0  0  0  0  0  0  0  0  0  0  0
  -24.2540  -13.1760   20.9020 C   0  0  0  0  0  0  0  0  0  0  0  0
  -24.6740  -11.8210   20.7260 C   0  0  0  0  0  0  0  0  0  0  0  0
  -26.3040  -13.0710   20.1070 N   0  0  0  0  0  0  0  0  0  0  0  0
  -25.9270  -11.7790   20.2900 N   0  0  0  0  0  0  0  0  0  0  0  0
  -23.9350  -10.5620   20.8980 C   0  0  0  0  0  0  0  0  0  0  0  0
  -24.4280   -9.5200   21.7140 C   0  0  0  0  0  3  0  0  0  0  0  0
  -23.6920   -8.3270   21.8760 C   0  0  0  0  0  3  0  0  0  0  0  0
  -22.4470   -8.1680   21.2190 C   0  0  0  0  0  0  0  0  0  0  0  0
  -21.9690   -9.2010   20.3920 C   0  0  0  0  0  3  0  0  0  0  0  0
  -22.7070  -10.3860   20.2280 C   0  0  0  0  0  3  0  0  0  0  0  0
  -21.6810   -7.0310   21.2900 O   0  0  0  0  0  0  0  0  0  0  0  0
  -21.7200   -6.2000   22.3820 C   0  0  0  0  0  0  0  0  0  0  0  0
  -21.4500   -6.6750   23.6850 C   0  0  0  0  0  3  0  0  0  0  0  0
  -21.4270   -5.7770   24.7690 C   0  0  0  0  0  3  0  0  0  0  0  0
  -21.6700   -4.4060   24.5560 C   0  0  0  0  0  0  0  0  0  0  0  0
  -21.9360   -3.9320   23.2580 C   0  0  0  0  0  3  0  0  0  0  0  0
  -21.9550   -4.8250   22.1740 C   0  0  0  0  0  0  0  0  0  0  0  0
  -22.1910   -4.3610   20.9240 F   0  0  0  0  0  0  0  0  0  0  0  0
  -21.6410   -3.5420   25.5960 F   0  0  0  0  0  0  0  0  0  0  0  0
  -22.9020  -13.6610   21.3370 C   0  0  0  0  0  0  0  0  0  0  0  0
  -22.2480  -12.9310   22.2310 N   0  0  0  0  0  0  0  0  0  0  0  0
  -22.4330  -14.7240   20.9230 O   0  0  0  0  0  0  0  0  0  0  0  0
  -22.6350  -12.0800   22.6120 H   0  0  0  0  0  0  0  0  0  0  0  0
  -21.3440  -13.2380   22.5590 H   0  0  0  0  0  0  0  0  0  0  0  0
  -25.4840  -15.3300   20.4220 N   0  0  0  0  0  0  0  0  0  0  0  0
  -24.7350  -15.9730   20.6500 H   0  0  0  0  0  0  0  0  0  0  0  0
  -26.3120  -15.7920   20.0680 H   0  0  0  0  0  0  0  0  0  0  0  0
  -30.3030  -17.6020   23.4280 N   0  0  0  0  0  4  0  0  0  0  0  0
  -29.3360  -17.8760   23.3980 H   0  0  0  0  0  0  0  0  0  0  0  0
  -30.8640  -18.4350   23.3980 H   0  0  0  0  0  0  0  0  0  0  0  0
  -30.4700  -17.1700   24.3180 H   0  0  0  0  0  0  0  0  0  0  0  0
  -30.1970  -20.5150   19.8770 C   0  0  0  0  0  3  0  0  0  0  0  0
  -29.0610  -21.5570   19.5760 C   0  0  0  0  0  3  0  0  0  0  0  0
  -29.2910  -23.0780   19.9490 C   0  0  0  0  0  2  0  0  0  0  0  0
  -26.8690  -23.7180   19.3000 C   0  0  0  0  0  1  0  0  0  0  0  0
  -28.3620  -24.0750   19.1570 C   0  0  0  0  0  3  0  0  0  0  0  0
  -28.6790  -25.6370   19.1510 C   0  0  0  0  0  2  0  0  0  0  0  0
  -28.3670  -26.5720   20.2250 O   0  0  0  0  0  0  0  0  0  0  0  0
  -24.6190  -31.9040   23.2180 C   0  0  0  0  0  0  0  0  0  0  0  0
  -27.2340  -27.3810   20.1640 C   0  0  0  0  0  0  0  0  0  0  0  0
  -23.4090  -30.4920   21.5950 C   0  0  0  0  0  3  0  0  0  0  0  0
  -24.8540  -28.9480   20.1750 C   0  0  0  0  0  0  0  0  0  0  0  0
  -25.9410  -30.8330   21.3860 C   0  0  0  0  0  2  0  0  0  0  0  0
  -26.0210  -29.4500   20.7600 C   0  0  0  0  0  0  0  0  0  0  0  0
  -27.2100  -28.6700   20.7660 C   0  0  0  0  0  3  0  0  0  0  0  0
  -26.0460  -26.9320   19.5540 C   0  0  0  0  0  3  0  0  0  0  0  0
  -24.8620  -27.6840   19.5730 C   0  0  0  0  0  3  0  0  0  0  0  0
  -23.6130  -29.8090   20.2190 C   0  0  0  0  0  2  0  0  0  0  0  0
  -24.6770  -31.0910   22.1250 N   0  0  0  0  0  0  0  0  0  0  0  0
  -23.5360  -32.1810   23.7550 O   0  0  0  0  0  0  0  0  0  0  0  0
  -22.7580  -29.4760   22.5630 C   0  0  0  0  0  0  0  0  0  0  0  0
  -21.4340  -29.2890   22.4320 N   0  0  0  0  0  0  0  0  0  0  0  0
  -23.4400  -28.8590   23.3870 O   0  0  0  0  0  0  0  0  0  0  0  0
  -20.9470  -29.8320   21.7320 H   0  0  0  0  0  0  0  0  0  0  0  0
  -18.0590  -28.0920   22.9290 C   0  0  0  0  0  0  0  0  0  0  0  0
  -20.6140  -28.3620   23.2110 C   0  0  0  0  0  3  0  0  0  0  0  0
  -20.7250  -26.9250   22.6540 C   0  0  0  0  0  2  0  0  0  0  0  0
  -19.6300  -26.5840   21.6370 C   0  0  0  0  0  2  0  0  0  0  0  0
  -18.2430  -26.7360   22.2710 C   0  0  0  0  0  2  0  0  0  0  0  0
  -19.1730  -28.8620   23.3550 C   0  0  0  0  0  0  0  0  0  0  0  0
  -18.9460  -30.1320   23.9280 C   0  0  0  0  0  3  0  0  0  0  0  0
  -17.6390  -30.6300   24.0840 C   0  0  0  0  0  3  0  0  0  0  0  0
  -16.5400  -29.8570   23.6750 C   0  0  0  0  0  3  0  0  0  0  0  0
  -16.7510  -28.5900   23.1020 C   0  0  0  0  0  3  0  0  0  0  0  0
  -25.9050  -32.5400   23.8290 C   0  0  0  0  0  3  0  0  0  0  0  0
  -26.4380  -31.7630   25.0940 C   0  0  1  0  0  0  0  0  0  0  0  0
  -25.3580  -31.5130   26.1710 C   0  0  0  0  0  1  0  0  0  0  0  0
  -27.0220  -30.3910   24.6830 C   0  0  0  0  0  1  0  0  0  0  0  0
  -27.5980  -32.5560   25.7430 C   0  0  0  0  0  1  0  0  0  0  0  0
  -25.5910  -33.9340   24.1690 N   0  0  0  0  0  0  0  0  0  0  0  0
  -25.9020  -34.9900   23.4050 C   0  0  0  0  0  0  0  0  0  0  0  0
  -26.5550  -34.8920   22.3630 O   0  0  0  0  0  0  0  0  0  0  0  0
  -25.0130  -34.0820   24.9830 H   0  0  0  0  0  0  0  0  0  0  0  0
  -24.1480  -36.7610   23.0840 C   0  0  0  0  0  1  0  0  0  0  0  0
  -25.4100  -36.3740   23.8710 C   0  0  0  0  0  3  0  0  0  0  0  0
  -27.5570  -37.2730   24.6510 C   0  0  0  0  0  1  0  0  0  0  0  0
  -26.4310  -37.4360   23.7340 N   0  0  0  0  0  0  0  0  0  0  0  0
  -26.0220  -38.3530   23.8950 H   0  0  0  0  0  0  0  0  0  0  0  0
  1 49  1  0
  1  4  1  0
  2  1  2  0
  3  2  1  0
  5 16  1  0
  6 11  1  0
  7  8  1  0
  7  6  1  0
  9  8  1  0
  9 20  1  0
  9 10  1  0
 11  5  1  0
 11 10  1  0
 12  5  2  0
 13 14  1  0
 14 45  1  0
 15  4  1  0
 15 14  1  0
 16 15  1  0
 16 13  1  0
 17 18  2  0
 18 37  1  0
 19 22  1  0
 19 18  1  0
 20 21  1  0
 20 17  1  0
 21 19  2  0
 22 23  1  0
 23 24  2  0
 25 28  1  0
 25 24  1  0
 26 25  2  0
 27 26  1  0
 27 22  2  0
 28 29  1  0
 29 30  1  0
 30 31  2  0
 32 31  1  0
 32 36  1  0
 33 32  2  0
 34 29  2  0
 34 33  1  0
 35 34  1  0
 37 38  1  0
 38 41  1  0
 38 40  1  0
 39 37  2  0
 42 17  1  0
 42 43  1  0
 44 42  1  0
 45 48  1  0
 46 45  1  0
 47 45  1  0
 50 49  2  0
 50 51  1  0
 53 52  1  0
 53 51  1  0
 54 53  1  0
 54 55  1  0
 56 67  2  0
 57 55  1  0
 57 62  1  0
 58 66  1  0
 58 68  1  0
 59 65  1  0
 59 61  1  0
 60 66  1  0
 61 62  2  0
 61 60  1  0
 63 64  1  0
 63 57  2  0
 64 59  2  0
 65 58  1  0
 66 56  1  0
 68 70  2  0
 69 68  1  0
 71 69  1  0
 72 81  2  0
 72 77  1  0
 73 69  1  0
 73 77  1  0
 74 73  1  0
 75 76  1  0
 75 74  1  0
 76 72  1  0
 77 78  2  0
 78 79  1  0
 80 79  2  0
 81 80  1  0
 82 56  1  0
 82 87  1  0
 82 83  1  0
 83 86  1  1
 83 84  1  0
 85 83  1  0
 87 90  1  0
 88 92  1  0
 88 87  1  0
 89 88  2  0
 92 91  1  0
 94 92  1  0
 94 95  1  0
 94 93  1  0
M  ISO  4   5 100  16 100  54 101  55 101
M  END
>  <TORSDO>  (13) 
F 23

>  <SCORE>  (13) 
-11.458

>  <name>  (13) 
12

>  <ligand_id>  (13) 
12

>  <original_smiles>  (13) 
[H]N=C(C([H])([H])C([H])([H])C([H])([H])C([H])(C([H])([H])[H])C([H])([H])Oc1c([H])c([H])c2c(c1[H])C([H])([H])N(C(=O)C([H])(N([H])C(=O)C([H])(N([H])C([H])([H])[H])C([H])([H])[H])C(C([H])([H])[H])(C([H])([H])[H])C([H])([H])[H])C([H])(C(=O)N([H])C1([H])c3c([H])c([H])c([H])c([H])c3C([H])([H])C([H])([H])C1([H])[H])C2([H])[H])C([H])([H])C1([H])N(C(=O)N2C([H])([H])C([H])([H])C([H])([H])C([H])(n3nc(-c4c([H])c([H])c(Oc5c([H])c([H])c(F)c([H])c5F)c([H])c4[H])c(C(=O)N([H])[H])c3N([H])[H])C2([H])[H])C([H])([H])C1([H])[N+]([H])([H])[H]

>  <smiles>  (13) 
[H]N=C(C([H])([H])C([H])([H])C([H])([H])C([H])(C([H])([H])[H])C([H])([H])Oc1c([H])c([H])c2c(c1[H])C([H])([H])N(C(=O)C([H])(N([H])C(=O)C([H])(N([H])C([H])([H])[H])C([H])([H])[H])C(C([H])([H])[H])(C([H])([H])[H])C([H])([H])[H])C([H])(C(=O)N([H])C1([H])c3c([H])c([H])c([H])c([H])c3C([H])([H])C([H])([H])C1([H])[H])C2([H])[H])C([H])([H])C1([H])N(C(=O)N2C([H])([H])C([H])([H])C([H])([H])C([H])(n3nc(-c4c([H])c([H])c(Oc5c([H])c([H])c(F)c([H])c5F)c([H])c4[H])c(C(=O)N([H])[H])c3N([H])[H])C2([H])[H])C([H])([H])C1([H])[N+]([H])([H])[H]

$$$$
13:0:0
     RDKit          3D

 97105  0  0  1  0  0  0  0  0999 V2000
  -28.0620  -21.6720   22.1810 C   0  0  0  0  0  3  0  0  0  0  0  0
  -28.2790  -23.0350   21.9040 C   0  0  0  0  0  3  0  0  0  0  0  0
  -29.0630  -20.7240   21.8940 C   0  0  0  0  0  3  0  0  0  0  0  0
  -30.4890  -22.5000   21.0260 C   0  0  0  0  0  3  0  0  0  0  0  0
  -29.4930  -23.4580   21.3240 C   0  0  0  0  0  0  0  0  0  0  0  0
  -30.2830  -21.1290   21.3080 C   0  0  0  0  0  0  0  0  0  0  0  0
  -32.1690  -19.7130   22.2380 C   0  0  0  0  0  1  0  0  0  0  0  0
  -31.3640  -20.0950   20.9840 C   0  0  0  0  0  3  0  0  0  0  0  0
  -30.7710  -18.8530   20.2710 C   0  0  0  0  0  2  0  0  0  0  0  0
  -32.1070  -15.2700   19.9470 C   0  0  0  0  0  0  0  0  0  0  0  0
  -31.7820  -12.9390   19.2260 C   0  0  0  0  0  2  0  0  0  0  0  0
  -30.8560  -12.8980   17.9930 C   0  0  0  0  0  2  0  0  0  0  0  0
  -29.3740  -12.8750   18.4190 C   0  0  0  0  0  2  0  0  0  0  0  0
  -29.0340  -13.9610   19.4730 C   0  0  0  0  0  3  0  0  0  0  0  0
  -30.0680  -13.9560   20.6230 C   0  0  0  0  0  2  0  0  0  0  0  0
  -31.4070  -14.1090   20.0350 N   0  0  0  0  0  0  0  0  0  0  0  0
  -33.2400  -15.3550   19.4490 O   0  0  0  0  0  0  0  0  0  0  0  0
  -31.7800  -17.7520   20.0340 C   0  0  0  0  0  0  0  0  0  0  0  0
  -31.3830  -16.4720   20.2720 N   0  0  0  0  0  0  0  0  0  0  0  0
  -32.9970  -18.0850   19.5440 N   0  0  0  0  0  4  0  0  0  0  0  0
  -30.4560  -16.4010   20.6560 H   0  0  0  0  0  0  0  0  0  0  0  0
  -33.6630  -17.3460   19.3300 H   0  0  0  0  0  0  0  0  0  0  0  0
  -33.2530  -19.0330   19.3040 H   0  0  0  0  0  0  0  0  0  0  0  0
  -26.7280  -14.7940   20.2550 C   0  0  0  0  0  0  0  0  0  0  0  0
  -25.5940  -14.1240   20.6270 C   0  0  0  0  0  0  0  0  0  0  0  0
  -25.9100  -12.7340   20.5410 C   0  0  0  0  0  0  0  0  0  0  0  0
  -27.6690  -13.8170   19.9710 N   0  0  0  0  0  0  0  0  0  0  0  0
  -27.1820  -12.5720   20.2020 N   0  0  0  0  0  0  0  0  0  0  0  0
  -25.0610  -11.5470   20.7050 C   0  0  0  0  0  0  0  0  0  0  0  0
  -25.3520  -10.5630   21.6750 C   0  0  0  0  0  3  0  0  0  0  0  0
  -24.5130   -9.4390   21.8260 C   0  0  0  0  0  3  0  0  0  0  0  0
  -23.3690   -9.2920   21.0050 C   0  0  0  0  0  0  0  0  0  0  0  0
  -23.0990  -10.2630   20.0240 C   0  0  0  0  0  3  0  0  0  0  0  0
  -23.9370  -11.3800   19.8720 C   0  0  0  0  0  3  0  0  0  0  0  0
  -22.5100   -8.2210   21.0620 O   0  0  0  0  0  0  0  0  0  0  0  0
  -22.2320   -7.5860   22.2460 C   0  0  0  0  0  0  0  0  0  0  0  0
  -21.6760   -8.2700   23.3490 C   0  0  0  0  0  3  0  0  0  0  0  0
  -21.3420   -7.5640   24.5210 C   0  0  0  0  0  3  0  0  0  0  0  0
  -21.5550   -6.1740   24.5900 C   0  0  0  0  0  0  0  0  0  0  0  0
  -22.1030   -5.4890   23.4910 C   0  0  0  0  0  3  0  0  0  0  0  0
  -22.4380   -6.1940   22.3220 C   0  0  0  0  0  0  0  0  0  0  0  0
  -22.9460   -5.5260   21.2590 F   0  0  0  0  0  0  0  0  0  0  0  0
  -21.2260   -5.4920   25.7130 F   0  0  0  0  0  0  0  0  0  0  0  0
  -24.2600  -14.7340   20.9490 C   0  0  0  0  0  0  0  0  0  0  0  0
  -23.4860  -14.0950   21.8180 N   0  0  0  0  0  0  0  0  0  0  0  0
  -23.9140  -15.8110   20.4620 O   0  0  0  0  0  0  0  0  0  0  0  0
  -23.7760  -13.2230   22.2360 H   0  0  0  0  0  0  0  0  0  0  0  0
  -22.5880  -14.4830   22.0710 H   0  0  0  0  0  0  0  0  0  0  0  0
  -27.0340  -16.1460   20.1130 N   0  0  0  0  0  0  0  0  0  0  0  0
  -26.3290  -16.8650   20.2400 H   0  0  0  0  0  0  0  0  0  0  0  0
  -27.8780  -16.4980   19.6820 H   0  0  0  0  0  0  0  0  0  0  0  0
  -29.7470  -24.9390   21.0790 C   0  0  0  0  0  2  0  0  0  0  0  0
  -28.7200  -25.6260   20.1430 C   0  0  0  0  0  2  0  0  0  0  0  0
  -29.2360  -28.0060   20.9570 C   0  0  0  0  0  1  0  0  0  0  0  0
  -30.3640  -27.1400   18.8990 C   0  0  0  0  0  1  0  0  0  0  0  0
  -29.0680  -27.0820   19.7290 C   0  0  1  0  0  0  0  0  0  0  0  0
  -28.0810  -27.5140   18.7710 O   0  0  0  0  0  0  0  0  0  0  0  0
  -24.5860  -31.8450   23.2430 C   0  0  0  0  0  0  0  0  0  0  0  0
  -26.9050  -28.1210   19.1600 C   0  0  0  0  0  0  0  0  0  0  0  0
  -23.1950  -30.6850   21.5550 C   0  0  0  0  0  3  0  0  0  0  0  0
  -24.4780  -29.4620   19.7220 C   0  0  0  0  0  0  0  0  0  0  0  0
  -25.6530  -31.1990   21.0900 C   0  0  0  0  0  2  0  0  0  0  0  0
  -25.6850  -29.9530   20.2300 C   0  0  0  0  0  0  0  0  0  0  0  0
  -26.8970  -29.3030   19.9350 C   0  0  0  0  0  3  0  0  0  0  0  0
  -25.6830  -27.6410   18.6440 C   0  0  0  0  0  3  0  0  0  0  0  0
  -24.4700  -28.3030   18.9230 C   0  0  0  0  0  3  0  0  0  0  0  0
  -23.2290  -30.2420   20.0660 C   0  0  0  0  0  2  0  0  0  0  0  0
  -24.5040  -31.2490   22.0210 N   0  0  0  0  0  0  0  0  0  0  0  0
  -23.5840  -31.9750   23.9600 O   0  0  0  0  0  0  0  0  0  0  0  0
  -22.7040  -29.4920   22.4050 C   0  0  0  0  0  0  0  0  0  0  0  0
  -21.4030  -29.1770   22.2930 N   0  0  0  0  0  0  0  0  0  0  0  0
  -23.4860  -28.8570   23.1170 O   0  0  0  0  0  0  0  0  0  0  0  0
  -20.8280  -29.7510   21.6930 H   0  0  0  0  0  0  0  0  0  0  0  0
  -18.2480  -27.4450   22.5790 C   0  0  0  0  0  0  0  0  0  0  0  0
  -20.7260  -28.0690   22.9640 C   0  0  0  0  0  3  0  0  0  0  0  0
  -21.0650  -26.7200   22.2910 C   0  0  0  0  0  2  0  0  0  0  0  0
  -20.0530  -26.3110   21.2160 C   0  0  0  0  0  2  0  0  0  0  0  0
  -18.6500  -26.1930   21.8180 C   0  0  0  0  0  2  0  0  0  0  0  0
  -19.2220  -28.3350   23.1030 C   0  0  0  0  0  0  0  0  0  0  0  0
  -18.7950  -29.5030   23.7710 C   0  0  0  0  0  3  0  0  0  0  0  0
  -17.4240  -29.7840   23.9220 C   0  0  0  0  0  3  0  0  0  0  0  0
  -16.4630  -28.8920   23.4160 C   0  0  0  0  0  3  0  0  0  0  0  0
  -16.8760  -27.7240   22.7490 C   0  0  0  0  0  3  0  0  0  0  0  0
  -25.9330  -32.4160   23.7900 C   0  0  0  0  0  3  0  0  0  0  0  0
  -25.6610  -33.7550   24.3250 N   0  0  0  0  0  0  0  0  0  0  0  0
  -25.9720  -34.8990   23.7020 C   0  0  0  0  0  0  0  0  0  0  0  0
  -26.5910  -34.9360   22.6350 O   0  0  0  0  0  0  0  0  0  0  0  0
  -25.1080  -33.8020   25.1690 H   0  0  0  0  0  0  0  0  0  0  0  0
  -24.2640  -36.7460   23.6650 C   0  0  0  0  0  1  0  0  0  0  0  0
  -25.5230  -36.2160   24.3670 C   0  0  0  0  0  3  0  0  0  0  0  0
  -27.7010  -36.9440   25.2380 C   0  0  0  0  0  1  0  0  0  0  0  0
  -26.5700  -37.2600   24.3690 N   0  0  0  0  0  0  0  0  0  0  0  0
  -26.1850  -38.1540   24.6610 H   0  0  0  0  0  0  0  0  0  0  0  0
  -26.5980  -31.4970   24.8880 C   0  0  1  0  0  0  0  0  0  0  0  0
  -25.6330  -31.0870   26.0230 C   0  0  0  0  0  1  0  0  0  0  0  0
  -27.1570  -30.2040   24.2490 C   0  0  0  0  0  1  0  0  0  0  0  0
  -27.8010  -32.2320   25.5270 C   0  0  0  0  0  1  0  0  0  0  0  0
  2  1  1  0
  3  1  2  0
  4  6  2  0
  4  5  1  0
  5  2  2  0
  6  3  1  0
  8  6  1  0
  8  7  1  0
  9  8  1  0
 10 16  1  0
 10 19  1  0
 11 16  1  0
 12 13  1  0
 12 11  1  0
 14 13  1  0
 14 27  1  0
 14 15  1  0
 16 15  1  0
 17 10  2  0
 18  9  1  0
 18 19  1  0
 19 21  1  0
 20 18  2  0
 22 20  1  0
 23 20  1  0
 24 25  2  0
 25 44  1  0
 26 25  1  0
 26 29  1  0
 27 28  1  0
 27 24  1  0
 28 26  2  0
 29 30  1  0
 30 31  2  0
 32 35  1  0
 32 31  1  0
 33 32  2  0
 34 33  1  0
 34 29  2  0
 35 36  1  0
 36 41  2  0
 36 37  1  0
 37 38  2  0
 38 39  1  0
 39 43  1  0
 40 39  2  0
 41 40  1  0
 42 41  1  0
 44 45  1  0
 45 48  1  0
 45 47  1  0
 46 44  2  0
 49 50  1  0
 49 24  1  0
 51 49  1  0
 52  5  1  0
 53 52  1  0
 56 55  1  6
 56 53  1  0
 56 54  1  0
 57 59  1  0
 57 56  1  0
 58 69  2  0
 59 64  1  0
 60 68  1  0
 60 70  1  0
 61 67  1  0
 61 63  1  0
 62 68  1  0
 63 62  1  0
 64 63  2  0
 65 66  1  0
 65 59  2  0
 66 61  2  0
 67 60  1  0
 68 58  1  0
 70 72  2  0
 71 70  1  0
 73 71  1  0
 74 83  2  0
 74 79  1  0
 75 71  1  0
 75 79  1  0
 76 75  1  0
 77 78  1  0
 77 76  1  0
 78 74  1  0
 79 80  2  0
 80 81  1  0
 82 81  2  0
 83 82  1  0
 84 58  1  0
 84 85  1  0
 84 94  1  0
 85 88  1  0
 86 85  1  0
 86 90  1  0
 87 86  2  0
 90 89  1  0
 90 92  1  0
 92 93  1  0
 92 91  1  0
 94 97  1  1
 94 95  1  0
 96 94  1  0
M  ISO  4  10 100  19 100  56 101  57 101
M  END
>  <TORSDO>  (14) 
F 21

>  <SCORE>  (14) 
-9.340

>  <name>  (14) 
13

>  <ligand_id>  (14) 
13

>  <original_smiles>  (14) 
[H]c1c([H])c([H])c2c(c1[H])C([H])([H])C([H])([H])C([H])([H])C2([H])N([H])C(=O)C1([H])N(C(=O)C([H])(N([H])C(=O)C([H])(N([H])C([H])([H])[H])C([H])([H])[H])C(C([H])([H])[H])(C([H])([H])[H])C([H])([H])[H])C([H])([H])c2c([H])c(OC(C([H])([H])[H])(C([H])([H])[H])C([H])([H])C([H])([H])c3c([H])c([H])c([H])c(C([H])(C([H])([H])[H])C([H])([H])C(N([H])C(=O)N4C([H])([H])C([H])([H])C([H])([H])C([H])(n5nc(-c6c([H])c([H])c(Oc7c([H])c([H])c(F)c([H])c7F)c([H])c6[H])c(C(=O)N([H])[H])c5N([H])[H])C4([H])[H])=[N+]([H])[H])c3[H])c([H])c([H])c2C1([H])[H]

>  <smiles>  (14) 
[H]c1c([H])c([H])c2c(c1[H])C([H])([H])C([H])([H])C([H])([H])C2([H])N([H])C(=O)C1([H])N(C(=O)C([H])(N([H])C(=O)C([H])(N([H])C([H])([H])[H])C([H])([H])[H])C(C([H])([H])[H])(C([H])([H])[H])C([H])([H])[H])C([H])([H])c2c([H])c(OC(C([H])([H])[H])(C([H])([H])[H])C([H])([H])C([H])([H])c3c([H])c([H])c([H])c(C([H])(C([H])([H])[H])C([H])([H])C(N([H])C(=O)N4C([H])([H])C([H])([H])C([H])([H])C([H])(n5nc(-c6c([H])c([H])c(Oc7c([H])c([H])c(F)c([H])c7F)c([H])c6[H])c(C(=O)N([H])[H])c5N([H])[H])C4([H])[H])=[N+]([H])[H])c3[H])c([H])c([H])c2C1([H])[H]

$$$$
14:0:0
     RDKit          3D

 95103  0  0  1  0  0  0  0  0999 V2000
  -30.6380  -14.8020   20.3630 C   0  0  0  0  0  0  0  0  0  0  0  0
  -30.4230  -12.5450   19.3230 C   0  0  0  0  0  2  0  0  0  0  0  0
  -29.4860  -12.6560   18.0990 C   0  0  0  0  0  2  0  0  0  0  0  0
  -28.0190  -12.4610   18.5230 C   0  0  0  0  0  2  0  0  0  0  0  0
  -27.6450  -13.3460   19.7410 C   0  0  0  0  0  3  0  0  0  0  0  0
  -28.6930  -13.2610   20.8700 C   0  0  0  0  0  2  0  0  0  0  0  0
  -29.9980  -13.5870   20.2830 N   0  0  0  0  0  0  0  0  0  0  0  0
  -31.8240  -14.8860   20.0250 O   0  0  0  0  0  0  0  0  0  0  0  0
  -30.0140  -16.9260   21.4000 C   0  0  0  0  0  0  0  0  0  0  0  0
  -29.6530  -17.0430   19.4720 C   0  0  0  0  0  2  0  0  0  0  0  0
  -30.1480  -18.1530   20.4720 C   0  0  2  0  0  0  0  0  0  0  0  0
  -29.8470  -15.9410   20.4800 N   0  0  0  0  0  0  0  0  0  0  0  0
  -30.1360  -16.8730   22.6270 O   0  0  0  0  0  0  0  0  0  0  0  0
  -25.2570  -13.9580   20.4440 C   0  0  0  0  0  0  0  0  0  0  0  0
  -24.1840  -13.1910   20.8130 C   0  0  0  0  0  0  0  0  0  0  0  0
  -24.6460  -11.8390   20.8040 C   0  0  0  0  0  0  0  0  0  0  0  0
  -26.2980  -13.0690   20.2270 N   0  0  0  0  0  0  0  0  0  0  0  0
  -25.9400  -11.7900   20.5070 N   0  0  0  0  0  0  0  0  0  0  0  0
  -23.9150  -10.5800   20.9990 C   0  0  0  0  0  0  0  0  0  0  0  0
  -24.3300   -9.6220   21.9510 C   0  0  0  0  0  3  0  0  0  0  0  0
  -23.5950   -8.4310   22.1340 C   0  0  0  0  0  3  0  0  0  0  0  0
  -22.4330   -8.1870   21.3640 C   0  0  0  0  0  0  0  0  0  0  0  0
  -22.0400   -9.1320   20.4020 C   0  0  0  0  0  3  0  0  0  0  0  0
  -22.7740  -10.3150   20.2160 C   0  0  0  0  0  3  0  0  0  0  0  0
  -21.6730   -7.0460   21.4540 O   0  0  0  0  0  0  0  0  0  0  0  0
  -21.5900   -6.3250   22.6190 C   0  0  0  0  0  0  0  0  0  0  0  0
  -21.1190   -6.9020   23.8180 C   0  0  0  0  0  3  0  0  0  0  0  0
  -20.9840   -6.1100   24.9760 C   0  0  0  0  0  3  0  0  0  0  0  0
  -21.3100   -4.7410   24.9350 C   0  0  0  0  0  0  0  0  0  0  0  0
  -21.7740   -4.1640   23.7390 C   0  0  0  0  0  3  0  0  0  0  0  0
  -21.9090   -4.9530   22.5840 C   0  0  0  0  0  0  0  0  0  0  0  0
  -22.3360   -4.3870   21.4300 F   0  0  0  0  0  0  0  0  0  0  0  0
  -21.1740   -3.9770   26.0440 F   0  0  0  0  0  0  0  0  0  0  0  0
  -22.7870  -13.6770   21.0740 C   0  0  0  0  0  0  0  0  0  0  0  0
  -22.0580  -12.9850   21.9420 N   0  0  0  0  0  0  0  0  0  0  0  0
  -22.3540  -14.6970   20.5440 O   0  0  0  0  0  0  0  0  0  0  0  0
  -22.4230  -12.1500   22.3740 H   0  0  0  0  0  0  0  0  0  0  0  0
  -21.1240  -13.2900   22.1780 H   0  0  0  0  0  0  0  0  0  0  0  0
  -25.4370  -15.3240   20.2460 N   0  0  0  0  0  0  0  0  0  0  0  0
  -24.6830  -16.0010   20.3210 H   0  0  0  0  0  0  0  0  0  0  0  0
  -26.3040  -15.7380   19.9300 H   0  0  0  0  0  0  0  0  0  0  0  0
  -32.1920  -19.3370   21.5940 C   0  0  0  0  0  1  0  0  0  0  0  0
  -31.6560  -18.5400   20.3840 C   0  0  0  0  0  3  0  0  0  0  0  0
  -32.0390  -19.1920   19.0340 C   0  0  0  0  0  2  0  0  0  0  0  0
  -33.2450  -18.5240   18.3440 C   0  0  0  0  0  2  0  0  0  0  0  0
  -33.3720  -18.9350   16.9360 N   0  0  0  0  0  4  0  0  0  0  0  0
  -32.6200  -18.5550   16.3860 H   0  0  0  0  0  0  0  0  0  0  0  0
  -34.2320  -18.5850   16.5540 H   0  0  0  0  0  0  0  0  0  0  0  0
  -33.3630  -19.9350   16.8370 H   0  0  0  0  0  0  0  0  0  0  0  0
  -29.2510  -19.4570   20.8810 C   0  0  0  0  0  3  0  0  0  0  0  0
  -29.4110  -20.9070   20.1630 C   0  0  0  0  0  3  0  0  0  0  0  0
  -28.7210  -22.2300   20.7880 C   0  0  0  0  0  2  0  0  0  0  0  0
  -29.0040  -23.6920   20.1390 C   0  0  0  0  0  3  0  0  0  0  0  0
  -28.1240  -24.9670   20.6170 C   0  0  0  0  0  3  0  0  0  0  0  0
  -28.3830  -26.3940   20.1970 O   0  0  0  0  0  0  0  0  0  0  0  0
  -24.6560  -31.9010   23.1960 C   0  0  0  0  0  0  0  0  0  0  0  0
  -27.2910  -27.2940   20.1660 C   0  0  0  0  0  0  0  0  0  0  0  0
  -23.4730  -30.4860   21.5570 C   0  0  0  0  0  3  0  0  0  0  0  0
  -24.9350  -28.9350   20.1410 C   0  0  0  0  0  0  0  0  0  0  0  0
  -26.0150  -30.8020   21.3880 C   0  0  0  0  0  2  0  0  0  0  0  0
  -26.1030  -29.4170   20.7490 C   0  0  0  0  0  0  0  0  0  0  0  0
  -27.2860  -28.6060   20.7530 C   0  0  0  0  0  3  0  0  0  0  0  0
  -26.1050  -26.8930   19.5150 C   0  0  0  0  0  3  0  0  0  0  0  0
  -24.9420  -27.6810   19.5160 C   0  0  0  0  0  3  0  0  0  0  0  0
  -23.6990  -29.8080   20.1810 C   0  0  0  0  0  2  0  0  0  0  0  0
  -24.7340  -31.0820   22.1030 N   0  0  0  0  0  0  0  0  0  0  0  0
  -23.5670  -32.1730   23.7220 O   0  0  0  0  0  0  0  0  0  0  0  0
  -22.8090  -29.4710   22.5210 C   0  0  0  0  0  0  0  0  0  0  0  0
  -21.4810  -29.3000   22.4010 N   0  0  0  0  0  0  0  0  0  0  0  0
  -23.4880  -28.8440   23.3380 O   0  0  0  0  0  0  0  0  0  0  0  0
  -20.9950  -29.8580   21.7140 H   0  0  0  0  0  0  0  0  0  0  0  0
  -18.0950  -28.1170   22.9150 C   0  0  0  0  0  0  0  0  0  0  0  0
  -20.6580  -28.3620   23.1710 C   0  0  0  0  0  3  0  0  0  0  0  0
  -20.7530  -26.9350   22.5830 C   0  0  0  0  0  2  0  0  0  0  0  0
  -19.6410  -26.6230   21.5770 C   0  0  0  0  0  2  0  0  0  0  0  0
  -18.2630  -26.7710   22.2300 C   0  0  0  0  0  2  0  0  0  0  0  0
  -19.2210  -28.8690   23.3430 C   0  0  0  0  0  0  0  0  0  0  0  0
  -19.0140  -30.1290   23.9480 C   0  0  0  0  0  3  0  0  0  0  0  0
  -17.7130  -30.6330   24.1310 C   0  0  0  0  0  3  0  0  0  0  0  0
  -16.6020  -29.8760   23.7210 C   0  0  0  0  0  3  0  0  0  0  0  0
  -16.7950  -28.6200   23.1190 C   0  0  0  0  0  3  0  0  0  0  0  0
  -25.9290  -32.5490   23.8240 C   0  0  0  0  0  3  0  0  0  0  0  0
  -26.4530  -31.7760   25.0960 C   0  0  1  0  0  0  0  0  0  0  0  0
  -25.3600  -31.5180   26.1600 C   0  0  0  0  0  1  0  0  0  0  0  0
  -27.0520  -30.4080   24.6900 C   0  0  0  0  0  1  0  0  0  0  0  0
  -27.5940  -32.5770   25.7620 C   0  0  0  0  0  1  0  0  0  0  0  0
  -25.6000  -33.9390   24.1690 N   0  0  0  0  0  0  0  0  0  0  0  0
  -25.9370  -35.0120   23.4370 C   0  0  0  0  0  0  0  0  0  0  0  0
  -26.6300  -34.9300   22.4190 O   0  0  0  0  0  0  0  0  0  0  0  0
  -24.9920  -34.0740   24.9650 H   0  0  0  0  0  0  0  0  0  0  0  0
  -24.2080  -36.8020   23.0760 C   0  0  0  0  0  1  0  0  0  0  0  0
  -25.4300  -36.3860   23.9110 C   0  0  0  0  0  3  0  0  0  0  0  0
  -27.5350  -37.2700   24.8150 C   0  0  0  0  0  1  0  0  0  0  0  0
  -26.4590  -37.4490   23.8440 N   0  0  0  0  0  0  0  0  0  0  0  0
  -26.0430  -38.3640   23.9970 H   0  0  0  0  0  0  0  0  0  0  0  0
  1 12  1  0
  2  7  1  0
  3  4  1  0
  3  2  1  0
  5  4  1  0
  5 17  1  0
  5  6  1  0
  7  1  1  0
  7  6  1  0
  8  1  2  0
  9 13  2  0
 10 11  1  0
 10 12  1  0
 11 50  1  0
 11  9  1  0
 12  9  1  0
 14 15  2  0
 15 34  1  0
 16 15  1  0
 16 19  1  0
 17 14  1  0
 17 18  1  0
 18 16  2  0
 19 20  1  0
 20 21  2  0
 22 25  1  0
 22 21  1  0
 23 22  2  0
 24 23  1  0
 24 19  2  0
 25 26  1  0
 26 27  1  0
 27 28  2  0
 29 28  1  0
 29 33  1  0
 30 29  2  0
 31 26  2  0
 31 30  1  0
 32 31  1  0
 34 35  1  0
 35 38  1  0
 35 37  1  0
 36 34  2  0
 39 40  1  0
 39 14  1  0
 41 39  1  0
 11 43  1  6
 43 42  1  0
 44 43  1  0
 45 44  1  0
 46 45  1  0
 47 46  1  0
 48 46  1  0
 49 46  1  0
 51 52  1  0
 51 50  2  0
 53 54  2  0
 53 52  1  0
 55 54  1  0
 56 67  2  0
 57 55  1  0
 57 62  1  0
 58 66  1  0
 58 68  1  0
 59 65  1  0
 59 61  1  0
 60 66  1  0
 61 62  2  0
 61 60  1  0
 63 64  1  0
 63 57  2  0
 64 59  2  0
 65 58  1  0
 66 56  1  0
 68 70  2  0
 69 68  1  0
 71 69  1  0
 72 81  2  0
 72 77  1  0
 73 69  1  0
 73 77  1  0
 74 73  1  0
 75 76  1  0
 75 74  1  0
 76 72  1  0
 77 78  2  0
 78 79  1  0
 80 79  2  0
 81 80  1  0
 82 56  1  0
 82 87  1  0
 82 83  1  0
 83 86  1  1
 83 84  1  0
 85 83  1  0
 87 90  1  0
 88 92  1  0
 88 87  1  0
 89 88  2  0
 92 91  1  0
 94 92  1  0
 94 95  1  0
 94 93  1  0
M  ISO  4   1 100  12 100  54 101  55 101
M  END
>  <TORSDO>  (15) 
F 24

>  <SCORE>  (15) 
-12.964

>  <name>  (15) 
14

>  <ligand_id>  (15) 
14

>  <original_smiles>  (15) 
[H]c1c([H])c([H])c2c(c1[H])C([H])([H])C([H])([H])C([H])([H])C2([H])N([H])C(=O)C1([H])N(C(=O)C([H])(N([H])C(=O)C([H])(N([H])C([H])([H])[H])C([H])([H])[H])C(C([H])([H])[H])(C([H])([H])[H])C([H])([H])[H])C([H])([H])c2c([H])c(OC([H])([H])C([H])([H])C([H])([H])C([H])([H])C([H])([H])C3(C([H])(C([H])([H])[H])C([H])([H])C([H])([H])[N+]([H])([H])[H])C(=O)N(C(=O)N4C([H])([H])C([H])([H])C([H])([H])C([H])(n5nc(-c6c([H])c([H])c(Oc7c([H])c([H])c(F)c([H])c7F)c([H])c6[H])c(C(=O)N([H])[H])c5N([H])[H])C4([H])[H])C3([H])[H])c([H])c([H])c2C1([H])[H]

>  <smiles>  (15) 
[H]c1c([H])c([H])c2c(c1[H])C([H])([H])C([H])([H])C([H])([H])C2([H])N([H])C(=O)C1([H])N(C(=O)C([H])(N([H])C(=O)C([H])(N([H])C([H])([H])[H])C([H])([H])[H])C(C([H])([H])[H])(C([H])([H])[H])C([H])([H])[H])C([H])([H])c2c([H])c(OC([H])([H])C([H])([H])C([H])([H])C([H])([H])C([H])([H])C3(C([H])(C([H])([H])[H])C([H])([H])C([H])([H])[N+]([H])([H])[H])C(=O)N(C(=O)N4C([H])([H])C([H])([H])C([H])([H])C([H])(n5nc(-c6c([H])c([H])c(Oc7c([H])c([H])c(F)c([H])c7F)c([H])c6[H])c(C(=O)N([H])[H])c5N([H])[H])C4([H])[H])C3([H])[H])c([H])c([H])c2C1([H])[H]

$$$$
15:0:0
     RDKit          3D

 90 98  0  0  1  0  0  0  0  0999 V2000
  -29.3430  -21.0420   19.7940 C   0  0  0  0  0  3  0  0  0  0  0  0
  -28.8380  -18.5970   20.8580 C   0  0  0  0  0  0  0  0  0  0  0  0
  -30.8010  -18.7130   20.2140 C   0  0  0  0  0  2  0  0  0  0  0  0
  -30.0000  -17.5160   20.8420 C   0  0  0  0  0  3  0  0  0  0  0  0
  -29.6300  -19.6470   20.3790 N   0  0  0  0  0  0  0  0  0  0  0  0
  -27.6580  -18.5940   21.1470 O   0  0  0  0  0  0  0  0  0  0  0  0
  -30.6050  -15.0160   20.3060 C   0  0  0  0  0  0  0  0  0  0  0  0
  -30.4810  -12.6930   19.3790 C   0  0  0  0  0  2  0  0  0  0  0  0
  -29.5480  -12.6240   18.1490 C   0  0  0  0  0  2  0  0  0  0  0  0
  -28.0730  -12.4800   18.5780 C   0  0  0  0  0  2  0  0  0  0  0  0
  -27.6690  -13.4030   19.7610 C   0  0  0  0  0  3  0  0  0  0  0  0
  -28.7210  -13.4100   20.8830 C   0  0  0  0  0  2  0  0  0  0  0  0
  -29.9940  -13.7810   20.2580 N   0  0  0  0  0  0  0  0  0  0  0  0
  -31.8320  -15.0830   20.1980 O   0  0  0  0  0  0  0  0  0  0  0  0
  -29.8270  -16.1690   20.0820 N   0  0  0  0  0  0  0  0  0  0  0  0
  -25.2830  -13.9800   20.4940 C   0  0  0  0  0  0  0  0  0  0  0  0
  -24.2190  -13.1970   20.8480 C   0  0  0  0  0  0  0  0  0  0  0  0
  -24.6940  -11.8490   20.8170 C   0  0  0  0  0  0  0  0  0  0  0  0
  -26.3310  -13.1080   20.2570 N   0  0  0  0  0  0  0  0  0  0  0  0
  -25.9870  -11.8220   20.5200 N   0  0  0  0  0  0  0  0  0  0  0  0
  -23.9770  -10.5820   20.9980 C   0  0  0  0  0  0  0  0  0  0  0  0
  -24.4040   -9.6220   21.9400 C   0  0  0  0  0  3  0  0  0  0  0  0
  -23.6880   -8.4180   22.1080 C   0  0  0  0  0  3  0  0  0  0  0  0
  -22.5330   -8.1660   21.3310 C   0  0  0  0  0  0  0  0  0  0  0  0
  -22.1250   -9.1140   20.3770 C   0  0  0  0  0  3  0  0  0  0  0  0
  -22.8410  -10.3110   20.2090 C   0  0  0  0  0  3  0  0  0  0  0  0
  -21.7890   -7.0130   21.4070 O   0  0  0  0  0  0  0  0  0  0  0  0
  -21.7110   -6.2820   22.5660 C   0  0  0  0  0  0  0  0  0  0  0  0
  -21.2120   -6.8370   23.7640 C   0  0  0  0  0  3  0  0  0  0  0  0
  -21.0820   -6.0290   24.9110 C   0  0  0  0  0  3  0  0  0  0  0  0
  -21.4440   -4.6700   24.8620 C   0  0  0  0  0  0  0  0  0  0  0  0
  -21.9370   -4.1150   23.6680 C   0  0  0  0  0  3  0  0  0  0  0  0
  -22.0680   -4.9190   22.5210 C   0  0  0  0  0  0  0  0  0  0  0  0
  -22.5230   -4.3750   21.3670 F   0  0  0  0  0  0  0  0  0  0  0  0
  -21.3140   -3.8920   25.9610 F   0  0  0  0  0  0  0  0  0  0  0  0
  -22.8170  -13.6650   21.1050 C   0  0  0  0  0  0  0  0  0  0  0  0
  -22.0870  -12.9650   21.9650 N   0  0  0  0  0  0  0  0  0  0  0  0
  -22.3760  -14.6870   20.5810 O   0  0  0  0  0  0  0  0  0  0  0  0
  -22.4580  -12.1400   22.4150 H   0  0  0  0  0  0  0  0  0  0  0  0
  -21.1440  -13.2600   22.1780 H   0  0  0  0  0  0  0  0  0  0  0  0
  -25.4380  -15.3510   20.3320 N   0  0  0  0  0  0  0  0  0  0  0  0
  -24.6730  -16.0000   20.4750 H   0  0  0  0  0  0  0  0  0  0  0  0
  -26.3040  -15.8100   20.0770 H   0  0  0  0  0  0  0  0  0  0  0  0
  -29.5000  -16.4030   18.6460 C   0  0  0  0  0  2  0  0  0  0  0  0
  -28.2540  -18.3500   17.5300 C   0  0  0  0  0  1  0  0  0  0  0  0
  -28.1280  -17.0510   18.3390 C   0  0  0  0  0  2  0  0  0  0  0  0
  -28.9350  -22.3530   20.6600 C   0  0  0  0  0  3  0  0  0  0  0  0
  -28.8610  -23.8170   19.9260 C   0  0  0  0  0  3  0  0  0  0  0  0
  -28.1780  -25.1150   20.6390 C   0  0  0  0  0  3  0  0  0  0  0  0
  -28.3510  -26.5370   20.1510 O   0  0  0  0  0  0  0  0  0  0  0  0
  -24.5600  -31.9600   23.2130 C   0  0  0  0  0  0  0  0  0  0  0  0
  -27.2440  -27.4150   20.1430 C   0  0  0  0  0  0  0  0  0  0  0  0
  -23.3880  -30.5590   21.5520 C   0  0  0  0  0  3  0  0  0  0  0  0
  -24.8690  -29.0310   20.1220 C   0  0  0  0  0  0  0  0  0  0  0  0
  -25.9270  -30.9020   21.3900 C   0  0  0  0  0  2  0  0  0  0  0  0
  -26.0320  -29.5240   20.7330 C   0  0  0  0  0  0  0  0  0  0  0  0
  -27.2240  -28.7290   20.7280 C   0  0  0  0  0  3  0  0  0  0  0  0
  -26.0600  -26.9940   19.5050 C   0  0  0  0  0  3  0  0  0  0  0  0
  -24.8860  -27.7760   19.4960 C   0  0  0  0  0  3  0  0  0  0  0  0
  -23.6220  -29.8960   20.1690 C   0  0  0  0  0  2  0  0  0  0  0  0
  -24.6430  -31.1590   22.1100 N   0  0  0  0  0  0  0  0  0  0  0  0
  -23.4670  -32.2180   23.7410 O   0  0  0  0  0  0  0  0  0  0  0  0
  -22.7300  -29.5270   22.5000 C   0  0  0  0  0  0  0  0  0  0  0  0
  -21.4070  -29.3320   22.3600 N   0  0  0  0  0  0  0  0  0  0  0  0
  -23.4080  -28.9050   23.3230 O   0  0  0  0  0  0  0  0  0  0  0  0
  -20.9200  -29.8830   21.6680 H   0  0  0  0  0  0  0  0  0  0  0  0
  -18.0400  -28.0840   22.8270 C   0  0  0  0  0  0  0  0  0  0  0  0
  -20.5930  -28.3760   23.1140 C   0  0  0  0  0  3  0  0  0  0  0  0
  -20.7190  -26.9530   22.5240 C   0  0  0  0  0  2  0  0  0  0  0  0
  -19.6270  -26.6260   21.5000 C   0  0  0  0  0  2  0  0  0  0  0  0
  -18.2390  -26.7450   22.1380 C   0  0  0  0  0  2  0  0  0  0  0  0
  -19.1460  -28.8570   23.2710 C   0  0  0  0  0  0  0  0  0  0  0  0
  -18.9070  -30.1100   23.8770 C   0  0  0  0  0  3  0  0  0  0  0  0
  -17.5930  -30.5910   24.0410 C   0  0  0  0  0  3  0  0  0  0  0  0
  -16.5030  -29.8160   23.6120 C   0  0  0  0  0  3  0  0  0  0  0  0
  -16.7260  -28.5640   23.0120 C   0  0  0  0  0  3  0  0  0  0  0  0
  -25.8280  -32.6060   23.8500 C   0  0  0  0  0  3  0  0  0  0  0  0
  -25.4960  -34.0000   24.1820 N   0  0  0  0  0  0  0  0  0  0  0  0
  -25.8260  -35.0620   23.4330 C   0  0  0  0  0  0  0  0  0  0  0  0
  -26.5090  -34.9700   22.4100 O   0  0  0  0  0  0  0  0  0  0  0  0
  -24.8880  -34.1430   24.9750 H   0  0  0  0  0  0  0  0  0  0  0  0
  -24.0910  -36.8440   23.0610 C   0  0  0  0  0  1  0  0  0  0  0  0
  -25.3200  -36.4420   23.8930 C   0  0  0  0  0  3  0  0  0  0  0  0
  -27.4280  -37.3370   24.7750 C   0  0  0  0  0  1  0  0  0  0  0  0
  -26.3460  -37.5050   23.8080 N   0  0  0  0  0  0  0  0  0  0  0  0
  -25.9290  -38.4210   23.9540 H   0  0  0  0  0  0  0  0  0  0  0  0
  -26.3360  -31.8370   25.1310 C   0  0  1  0  0  0  0  0  0  0  0  0
  -25.2320  -31.5760   26.1810 C   0  0  0  0  0  1  0  0  0  0  0  0
  -26.9450  -30.4690   24.7430 C   0  0  0  0  0  1  0  0  0  0  0  0
  -27.4660  -32.6450   25.8090 C   0  0  0  0  0  1  0  0  0  0  0  0
  1  5  1  0
  1 47  2  0
  2  6  2  0
  3  5  1  0
  3  4  1  0
  4 15  1  0
  4  2  1  0
  5  2  1  0
  8 13  1  0
  9 10  1  0
  9  8  1  0
 11 10  1  0
 11 19  1  0
 11 12  1  0
 13  7  1  0
 13 12  1  0
 14  7  2  0
 15  7  1  0
 16 17  2  0
 17 36  1  0
 18 17  1  0
 18 21  1  0
 19 16  1  0
 19 20  1  0
 20 18  2  0
 21 22  1  0
 22 23  2  0
 24 27  1  0
 24 23  1  0
 25 24  2  0
 26 25  1  0
 26 21  2  0
 27 28  1  0
 28 29  1  0
 29 30  2  0
 31 30  1  0
 31 35  1  0
 32 31  2  0
 33 28  2  0
 33 32  1  0
 34 33  1  0
 36 37  1  0
 37 40  1  0
 37 39  1  0
 38 36  2  0
 41 42  1  0
 41 16  1  0
 43 41  1  0
 44 15  1  0
 45 46  1  0
 46 44  1  0
 48 49  2  0
 48 47  1  0
 50 49  1  0
 51 62  2  0
 52 50  1  0
 52 57  1  0
 53 61  1  0
 53 63  1  0
 54 60  1  0
 54 56  1  0
 55 61  1  0
 56 55  1  0
 57 56  2  0
 58 52  2  0
 59 58  1  0
 59 54  2  0
 60 53  1  0
 61 51  1  0
 63 65  2  0
 64 63  1  0
 66 64  1  0
 67 76  2  0
 67 72  1  0
 68 64  1  0
 68 72  1  0
 69 68  1  0
 70 71  1  0
 70 69  1  0
 71 67  1  0
 72 73  2  0
 73 74  1  0
 75 74  2  0
 76 75  1  0
 77 51  1  0
 77 78  1  0
 77 87  1  0
 78 81  1  0
 79 83  1  0
 79 78  1  0
 80 79  2  0
 83 82  1  0
 85 83  1  0
 85 86  1  0
 85 84  1  0
 87 90  1  1
 87 88  1  0
 89 87  1  0
M  ISO  4   7 100  15 100  49 101  50 101
M  END
>  <TORSDO>  (16) 
F 22

>  <SCORE>  (16) 
-12.353

>  <name>  (16) 
15

>  <ligand_id>  (16) 
15

>  <original_smiles>  (16) 
[H]c1c([H])c([H])c2c(c1[H])C([H])([H])C([H])([H])C([H])([H])C2([H])N([H])C(=O)C1([H])N(C(=O)C([H])(N([H])C(=O)C([H])(N([H])C([H])([H])[H])C([H])([H])[H])C(C([H])([H])[H])(C([H])([H])[H])C([H])([H])[H])C([H])([H])c2c([H])c(OC([H])([H])C([H])([H])C([H])([H])C([H])([H])N3C(=O)C([H])(N(C(=O)N4C([H])([H])C([H])([H])C([H])([H])C([H])(n5nc(-c6c([H])c([H])c(Oc7c([H])c([H])c(F)c([H])c7F)c([H])c6[H])c(C(=O)N([H])[H])c5N([H])[H])C4([H])[H])C([H])([H])C([H])([H])C([H])([H])[H])C3([H])[H])c([H])c([H])c2C1([H])[H]

>  <smiles>  (16) 
[H]c1c([H])c([H])c2c(c1[H])C([H])([H])C([H])([H])C([H])([H])C2([H])N([H])C(=O)C1([H])N(C(=O)C([H])(N([H])C(=O)C([H])(N([H])C([H])([H])[H])C([H])([H])[H])C(C([H])([H])[H])(C([H])([H])[H])C([H])([H])[H])C([H])([H])c2c([H])c(OC([H])([H])C([H])([H])C([H])([H])C([H])([H])N3C(=O)C([H])(N(C(=O)N4C([H])([H])C([H])([H])C([H])([H])C([H])(n5nc(-c6c([H])c([H])c(Oc7c([H])c([H])c(F)c([H])c7F)c([H])c6[H])c(C(=O)N([H])[H])c5N([H])[H])C4([H])[H])C([H])([H])C([H])([H])C([H])([H])[H])C3([H])[H])c([H])c([H])c2C1([H])[H]

$$$$
16:0:0
     RDKit          3D

 96104  0  0  1  0  0  0  0  0999 V2000
  -29.6740  -21.8190   19.8550 C   0  0  0  0  0  3  0  0  0  0  0  0
  -29.2460  -22.9840   20.6970 N   0  0  0  0  0  4  0  0  0  0  0  0
  -28.3540  -22.7400   21.0990 H   0  0  0  0  0  0  0  0  0  0  0  0
  -29.8850  -23.0650   21.4730 H   0  0  0  0  0  0  0  0  0  0  0  0
  -29.1220  -24.3080   19.9900 C   0  0  0  0  0  2  0  0  0  0  0  0
  -28.3940  -25.4070   20.8140 C   0  0  0  0  0  2  0  0  0  0  0  0
  -28.5140  -26.7290   20.2310 O   0  0  0  0  0  0  0  0  0  0  0  0
  -24.5470  -31.8700   23.2030 C   0  0  0  0  0  0  0  0  0  0  0  0
  -27.3520  -27.4730   20.1900 C   0  0  0  0  0  0  0  0  0  0  0  0
  -23.4170  -30.4560   21.5190 C   0  0  0  0  0  3  0  0  0  0  0  0
  -24.9390  -28.9550   20.1280 C   0  0  0  0  0  0  0  0  0  0  0  0
  -25.9450  -30.8570   21.4030 C   0  0  0  0  0  2  0  0  0  0  0  0
  -26.0730  -29.4930   20.7510 C   0  0  0  0  0  0  0  0  0  0  0  0
  -27.2860  -28.7630   20.7710 C   0  0  0  0  0  3  0  0  0  0  0  0
  -26.2040  -26.9580   19.5480 C   0  0  0  0  0  3  0  0  0  0  0  0
  -25.0020  -27.6890   19.5210 C   0  0  0  0  0  3  0  0  0  0  0  0
  -23.6780  -29.7900   20.1430 C   0  0  0  0  0  2  0  0  0  0  0  0
  -24.6530  -31.0760   22.1010 N   0  0  0  0  0  0  0  0  0  0  0  0
  -23.4440  -32.1220   23.7090 O   0  0  0  0  0  0  0  0  0  0  0  0
  -22.7540  -29.4180   22.4540 C   0  0  0  0  0  0  0  0  0  0  0  0
  -21.4360  -29.2200   22.2900 N   0  0  0  0  0  0  0  0  0  0  0  0
  -23.4250  -28.7930   23.2790 O   0  0  0  0  0  0  0  0  0  0  0  0
  -20.9580  -29.7740   21.5930 H   0  0  0  0  0  0  0  0  0  0  0  0
  -18.0600  -27.9990   22.7150 C   0  0  0  0  0  0  0  0  0  0  0  0
  -20.6110  -28.2650   23.0320 C   0  0  0  0  0  3  0  0  0  0  0  0
  -20.7310  -26.8440   22.4340 C   0  0  0  0  0  2  0  0  0  0  0  0
  -19.6460  -26.5320   21.3980 C   0  0  0  0  0  2  0  0  0  0  0  0
  -18.2540  -26.6620   22.0210 C   0  0  0  0  0  2  0  0  0  0  0  0
  -19.1670  -28.7600   23.1750 C   0  0  0  0  0  0  0  0  0  0  0  0
  -18.9310  -30.0140   23.7800 C   0  0  0  0  0  3  0  0  0  0  0  0
  -17.6210  -30.5070   23.9300 C   0  0  0  0  0  3  0  0  0  0  0  0
  -16.5290  -29.7410   23.4870 C   0  0  0  0  0  3  0  0  0  0  0  0
  -16.7490  -28.4890   22.8860 C   0  0  0  0  0  3  0  0  0  0  0  0
  -25.8010  -32.5190   23.8660 C   0  0  0  0  0  3  0  0  0  0  0  0
  -26.2880  -31.7600   25.1610 C   0  0  1  0  0  0  0  0  0  0  0  0
  -25.1640  -31.4990   26.1910 C   0  0  0  0  0  1  0  0  0  0  0  0
  -26.9110  -30.3940   24.7910 C   0  0  0  0  0  1  0  0  0  0  0  0
  -27.4050  -32.5750   25.8590 C   0  0  0  0  0  1  0  0  0  0  0  0
  -25.4630  -33.9150   24.1800 N   0  0  0  0  0  0  0  0  0  0  0  0
  -25.7980  -34.9670   23.4210 C   0  0  0  0  0  0  0  0  0  0  0  0
  -26.4960  -34.8670   22.4080 O   0  0  0  0  0  0  0  0  0  0  0  0
  -24.8510  -34.0680   24.9680 H   0  0  0  0  0  0  0  0  0  0  0  0
  -24.0550  -36.7290   23.0000 C   0  0  0  0  0  1  0  0  0  0  0  0
  -25.2760  -36.3500   23.8540 C   0  0  0  0  0  3  0  0  0  0  0  0
  -27.3650  -37.2740   24.7540 C   0  0  0  0  0  1  0  0  0  0  0  0
  -26.2940  -37.4170   23.7690 N   0  0  0  0  0  0  0  0  0  0  0  0
  -25.8710  -38.3330   23.8930 H   0  0  0  0  0  0  0  0  0  0  0  0
  -29.7410  -20.5060   20.7190 C   0  0  0  0  0  0  0  0  0  0  0  0
  -29.8350  -20.5280   21.9520 O   0  0  0  0  0  0  0  0  0  0  0  0
  -29.7090  -19.1330   19.9490 C   0  0  0  0  0  0  0  0  0  0  0  0
  -29.7950  -19.1910   18.7180 O   0  0  0  0  0  0  0  0  0  0  0  0
  -30.7390  -14.6250   20.4650 C   0  0  0  0  0  0  0  0  0  0  0  0
  -30.4380  -12.3920   19.4470 C   0  0  0  0  0  2  0  0  0  0  0  0
  -29.5340  -12.4960   18.2030 C   0  0  0  0  0  2  0  0  0  0  0  0
  -28.0410  -12.4170   18.5900 C   0  0  0  0  0  2  0  0  0  0  0  0
  -27.6670  -13.2810   19.8250 C   0  0  0  0  0  3  0  0  0  0  0  0
  -28.7120  -13.1750   20.9590 C   0  0  0  0  0  2  0  0  0  0  0  0
  -30.0330  -13.4560   20.3840 N   0  0  0  0  0  0  0  0  0  0  0  0
  -31.9190  -14.6860   20.1190 O   0  0  0  0  0  0  0  0  0  0  0  0
  -30.8060  -17.0350   21.1210 C   0  0  0  0  0  2  0  0  0  0  0  0
  -29.5450  -17.8290   20.7630 C   0  0  0  0  0  3  0  0  0  0  0  0
  -29.0870  -16.5420   20.0320 C   0  0  0  0  0  3  0  0  0  0  0  0
  -29.2610  -16.3760   18.5110 C   0  0  0  0  0  1  0  0  0  0  0  0
  -30.0850  -15.7730   20.8240 N   0  0  0  0  0  0  0  0  0  0  0  0
  -25.2710  -13.8910   20.5190 C   0  0  0  0  0  0  0  0  0  0  0  0
  -24.1990  -13.1220   20.8790 C   0  0  0  0  0  0  0  0  0  0  0  0
  -24.6590  -11.7700   20.8580 C   0  0  0  0  0  0  0  0  0  0  0  0
  -26.3170  -13.0060   20.3000 N   0  0  0  0  0  0  0  0  0  0  0  0
  -25.9530  -11.7260   20.5670 N   0  0  0  0  0  0  0  0  0  0  0  0
  -23.9300  -10.5100   21.0420 C   0  0  0  0  0  0  0  0  0  0  0  0
  -24.3460   -9.5480   21.9880 C   0  0  0  0  0  3  0  0  0  0  0  0
  -23.6170   -8.3530   22.1580 C   0  0  0  0  0  3  0  0  0  0  0  0
  -22.4600   -8.1100   21.3810 C   0  0  0  0  0  0  0  0  0  0  0  0
  -22.0650   -9.0590   20.4230 C   0  0  0  0  0  3  0  0  0  0  0  0
  -22.7930  -10.2480   20.2500 C   0  0  0  0  0  3  0  0  0  0  0  0
  -21.7030   -6.9660   21.4620 O   0  0  0  0  0  0  0  0  0  0  0  0
  -21.6270   -6.2330   22.6180 C   0  0  0  0  0  0  0  0  0  0  0  0
  -21.1470   -6.7900   23.8250 C   0  0  0  0  0  3  0  0  0  0  0  0
  -21.0190   -5.9810   24.9710 C   0  0  0  0  0  3  0  0  0  0  0  0
  -21.3620   -4.6170   24.9130 C   0  0  0  0  0  0  0  0  0  0  0  0
  -21.8330   -4.0600   23.7130 C   0  0  0  0  0  3  0  0  0  0  0  0
  -21.9610   -4.8660   22.5670 C   0  0  0  0  0  0  0  0  0  0  0  0
  -22.3960   -4.3180   21.4060 F   0  0  0  0  0  0  0  0  0  0  0  0
  -21.2320   -3.8380   26.0120 F   0  0  0  0  0  0  0  0  0  0  0  0
  -22.7990  -13.6020   21.1330 C   0  0  0  0  0  0  0  0  0  0  0  0
  -22.0540  -12.9010   21.9810 N   0  0  0  0  0  0  0  0  0  0  0  0
  -22.3710  -14.6320   20.6120 O   0  0  0  0  0  0  0  0  0  0  0  0
  -22.4140  -12.0660   22.4220 H   0  0  0  0  0  0  0  0  0  0  0  0
  -21.1120  -13.1960   22.1900 H   0  0  0  0  0  0  0  0  0  0  0  0
  -25.4390  -15.2600   20.3350 N   0  0  0  0  0  0  0  0  0  0  0  0
  -24.6740  -15.9200   20.4200 H   0  0  0  0  0  0  0  0  0  0  0  0
  -26.2950  -15.6840   20.0040 H   0  0  0  0  0  0  0  0  0  0  0  0
  -31.0010  -22.0960   19.0900 C   0  0  0  0  0  2  0  0  0  0  0  0
  -32.2650  -22.2920   19.9510 C   0  0  0  0  0  2  0  0  0  0  0  0
  -34.7770  -22.7560   19.9010 C   0  0  0  0  0  1  0  0  0  0  0  0
  -33.4800  -22.6720   19.0920 C   0  0  0  0  0  2  0  0  0  0  0  0
  1 93  1  0
  1  2  1  0
  1 48  1  0
  2  3  1  0
  2  4  1  0
  5  2  1  0
  5  6  1  0
  7  6  1  0
  8 19  2  0
  9  7  1  0
  9 14  1  0
 10 18  1  0
 10 20  1  0
 11 17  1  0
 11 13  1  0
 12 18  1  0
 13 14  2  0
 13 12  1  0
 15  9  2  0
 16 15  1  0
 16 11  2  0
 17 10  1  0
 18  8  1  0
 20 22  2  0
 21 20  1  0
 23 21  1  0
 24 33  2  0
 24 29  1  0
 25 21  1  0
 25 29  1  0
 26 25  1  0
 27 28  1  0
 27 26  1  0
 28 24  1  0
 29 30  2  0
 30 31  1  0
 32 31  2  0
 33 32  1  0
 34  8  1  0
 34 39  1  0
 34 35  1  0
 35 38  1  1
 35 36  1  0
 37 35  1  0
 39 42  1  0
 40 44  1  0
 40 39  1  0
 41 40  2  0
 44 43  1  0
 46 44  1  0
 46 47  1  0
 46 45  1  0
 48 49  2  0
 50 48  1  0
 51 50  2  0
 52 64  1  0
 53 58  1  0
 54 55  1  0
 54 53  1  0
 56 55  1  0
 56 68  1  0
 56 57  1  0
 58 52  1  0
 58 57  1  0
 59 52  2  0
 61 50  1  0
 61 60  1  0
 62 63  1  0
 62 61  1  0
 62 64  1  0
 64 60  1  0
 65 66  2  0
 66 85  1  0
 67 66  1  0
 67 70  1  0
 68 65  1  0
 68 69  1  0
 69 67  2  0
 70 71  1  0
 71 72  2  0
 73 76  1  0
 73 72  1  0
 74 73  2  0
 75 74  1  0
 75 70  2  0
 76 77  1  0
 77 78  1  0
 78 79  2  0
 80 79  1  0
 80 84  1  0
 81 80  2  0
 82 77  2  0
 82 81  1  0
 83 82  1  0
 85 86  1  0
 86 89  1  0
 86 88  1  0
 87 85  2  0
 90 91  1  0
 90 65  1  0
 92 90  1  0
 93 94  1  0
 96 95  1  0
 96 94  1  0
M  ISO  4   6 101   7 101  52 100  64 100
M  END
>  <TORSDO>  (17) 
F 24

>  <SCORE>  (17) 
-12.371

>  <name>  (17) 
16

>  <ligand_id>  (17) 
16

>  <original_smiles>  (17) 
[H]c1c([H])c([H])c2c(c1[H])C([H])([H])C([H])([H])C([H])([H])C2([H])N([H])C(=O)C1([H])N(C(=O)C([H])(N([H])C(=O)C([H])(N([H])C([H])([H])[H])C([H])([H])[H])C(C([H])([H])[H])(C([H])([H])[H])C([H])([H])[H])C([H])([H])c2c([H])c(OC([H])([H])C([H])([H])[N+]([H])([H])C([H])(C(=O)C(=O)C3([H])C([H])([H])N(C(=O)N4C([H])([H])C([H])([H])C([H])([H])C([H])(n5nc(-c6c([H])c([H])c(Oc7c([H])c([H])c(F)c([H])c7F)c([H])c6[H])c(C(=O)N([H])[H])c5N([H])[H])C4([H])[H])C3([H])C([H])([H])[H])C([H])([H])C([H])([H])C([H])([H])C([H])([H])[H])c([H])c([H])c2C1([H])[H]

>  <smiles>  (17) 
[H]c1c([H])c([H])c2c(c1[H])C([H])([H])C([H])([H])C([H])([H])C2([H])N([H])C(=O)C1([H])N(C(=O)C([H])(N([H])C(=O)C([H])(N([H])C([H])([H])[H])C([H])([H])[H])C(C([H])([H])[H])(C([H])([H])[H])C([H])([H])[H])C([H])([H])c2c([H])c(OC([H])([H])C([H])([H])[N+]([H])([H])C([H])(C(=O)C(=O)C3([H])C([H])([H])N(C(=O)N4C([H])([H])C([H])([H])C([H])([H])C([H])(n5nc(-c6c([H])c([H])c(Oc7c([H])c([H])c(F)c([H])c7F)c([H])c6[H])c(C(=O)N([H])[H])c5N([H])[H])C4([H])[H])C3([H])C([H])([H])[H])C([H])([H])C([H])([H])C([H])([H])C([H])([H])[H])c([H])c([H])c2C1([H])[H]

$$$$
17:0:0
     RDKit          3D

 95103  0  0  1  0  0  0  0  0999 V2000
  -30.0340  -23.7630   20.0530 C   0  0  0  0  0  0  0  0  0  0  0  0
  -30.6240  -24.6430   19.4180 O   0  0  0  0  0  0  0  0  0  0  0  0
  -31.8750  -22.0780   19.8420 C   0  0  0  0  0  3  0  0  0  0  0  0
  -30.6200  -22.4250   20.2870 C   0  0  0  0  0  0  0  0  0  0  0  0
  -30.7660  -20.2610   21.0700 C   0  0  0  0  0  0  0  0  0  0  0  0
  -29.9920  -21.3550   20.9570 N   0  0  0  0  0  0  0  0  0  0  0  0
  -32.3200  -20.4470   20.2720 S   0  0  0  0  0  0  0  0  0  0  0  0
  -30.3830  -19.0380   21.8570 C   0  0  0  0  0  2  0  0  0  0  0  0
  -30.0390  -17.7610   21.0480 C   0  0  0  0  0  2  0  0  0  0  0  0
  -31.1530  -16.6850   21.0190 C   0  0  0  0  0  2  0  0  0  0  0  0
  -31.2000  -14.3390   20.0970 C   0  0  0  0  0  0  0  0  0  0  0  0
  -30.7750  -12.1810   18.9710 C   0  0  0  0  0  2  0  0  0  0  0  0
  -29.8040  -12.3950   17.7930 C   0  0  0  0  0  2  0  0  0  0  0  0
  -28.3400  -12.3210   18.2690 C   0  0  0  0  0  2  0  0  0  0  0  0
  -28.0730  -13.1980   19.5220 C   0  0  0  0  0  3  0  0  0  0  0  0
  -29.1500  -12.9510   20.6020 C   0  0  0  0  0  2  0  0  0  0  0  0
  -30.4700  -13.1950   19.9920 N   0  0  0  0  0  0  0  0  0  0  0  0
  -32.2870  -14.4980   19.5360 O   0  0  0  0  0  0  0  0  0  0  0  0
  -30.6140  -15.3360   20.7840 N   0  0  0  0  0  0  0  0  0  0  0  0
  -29.7190  -15.1200   21.1970 H   0  0  0  0  0  0  0  0  0  0  0  0
  -25.7320  -13.9240   20.3100 C   0  0  0  0  0  0  0  0  0  0  0  0
  -24.6400  -13.2040   20.7150 C   0  0  0  0  0  0  0  0  0  0  0  0
  -25.0320  -11.8320   20.6660 C   0  0  0  0  0  0  0  0  0  0  0  0
  -26.7240  -12.9920   20.0450 N   0  0  0  0  0  0  0  0  0  0  0  0
  -26.3060  -11.7290   20.3140 N   0  0  0  0  0  0  0  0  0  0  0  0
  -24.2500  -10.6070   20.8790 C   0  0  0  0  0  0  0  0  0  0  0  0
  -24.6420   -9.6370   21.8290 C   0  0  0  0  0  3  0  0  0  0  0  0
  -23.8660   -8.4760   22.0290 C   0  0  0  0  0  3  0  0  0  0  0  0
  -22.6810   -8.2760   21.2810 C   0  0  0  0  0  0  0  0  0  0  0  0
  -22.3070   -9.2340   20.3210 C   0  0  0  0  0  3  0  0  0  0  0  0
  -23.0840  -10.3860   20.1190 C   0  0  0  0  0  3  0  0  0  0  0  0
  -21.8780   -7.1680   21.3880 O   0  0  0  0  0  0  0  0  0  0  0  0
  -21.7690   -6.4680   22.5630 C   0  0  0  0  0  0  0  0  0  0  0  0
  -21.3090   -7.0770   23.7510 C   0  0  0  0  0  3  0  0  0  0  0  0
  -21.1470   -6.3070   24.9200 C   0  0  0  0  0  3  0  0  0  0  0  0
  -21.4350   -4.9280   24.9000 C   0  0  0  0  0  0  0  0  0  0  0  0
  -21.8870   -4.3200   23.7170 C   0  0  0  0  0  3  0  0  0  0  0  0
  -22.0510   -5.0880   22.5510 C   0  0  0  0  0  0  0  0  0  0  0  0
  -22.4680   -4.4920   21.4080 F   0  0  0  0  0  0  0  0  0  0  0  0
  -21.2710   -4.1860   26.0210 F   0  0  0  0  0  0  0  0  0  0  0  0
  -23.2780  -13.7510   21.0360 C   0  0  0  0  0  0  0  0  0  0  0  0
  -22.5470  -13.0890   21.9270 N   0  0  0  0  0  0  0  0  0  0  0  0
  -22.8740  -14.7980   20.5340 O   0  0  0  0  0  0  0  0  0  0  0  0
  -22.8870  -12.2410   22.3560 H   0  0  0  0  0  0  0  0  0  0  0  0
  -21.6330  -13.4360   22.1830 H   0  0  0  0  0  0  0  0  0  0  0  0
  -25.9590  -15.2850   20.1280 N   0  0  0  0  0  0  0  0  0  0  0  0
  -25.2320  -15.9780   20.2670 H   0  0  0  0  0  0  0  0  0  0  0  0
  -26.8220  -15.6810   19.7740 H   0  0  0  0  0  0  0  0  0  0  0  0
  -28.6060  -24.0160   20.5720 C   0  0  0  0  0  3  0  0  0  0  0  0
  -27.6790  -23.6920   19.4680 N   0  0  0  0  0  4  0  0  0  0  0  0
  -27.8410  -24.3150   18.6930 H   0  0  0  0  0  0  0  0  0  0  0  0
  -26.7210  -23.7580   19.7620 H   0  0  0  0  0  0  0  0  0  0  0  0
  -27.8400  -22.7520   19.1480 H   0  0  0  0  0  0  0  0  0  0  0  0
  -28.3870  -25.4460   21.1540 C   0  0  0  0  0  2  0  0  0  0  0  0
  -28.4220  -26.5330   20.2040 O   0  0  0  0  0  0  0  0  0  0  0  0
  -24.5730  -31.7460   23.2070 C   0  0  0  0  0  0  0  0  0  0  0  0
  -27.2790  -27.3040   20.1820 C   0  0  0  0  0  0  0  0  0  0  0  0
  -23.4050  -30.3520   21.5320 C   0  0  0  0  0  3  0  0  0  0  0  0
  -24.8910  -28.8180   20.1390 C   0  0  0  0  0  0  0  0  0  0  0  0
  -25.9370  -30.7060   21.3970 C   0  0  0  0  0  2  0  0  0  0  0  0
  -26.0370  -29.3360   20.7590 C   0  0  0  0  0  0  0  0  0  0  0  0
  -27.2360  -28.5850   20.7800 C   0  0  0  0  0  3  0  0  0  0  0  0
  -26.1210  -26.8080   19.5470 C   0  0  0  0  0  3  0  0  0  0  0  0
  -24.9290  -27.5540   19.5290 C   0  0  0  0  0  3  0  0  0  0  0  0
  -23.6470  -29.6770   20.1550 C   0  0  0  0  0  2  0  0  0  0  0  0
  -24.6560  -30.9500   22.1040 N   0  0  0  0  0  0  0  0  0  0  0  0
  -23.4790  -32.0190   23.7210 O   0  0  0  0  0  0  0  0  0  0  0  0
  -22.7290  -29.3280   22.4720 C   0  0  0  0  0  0  0  0  0  0  0  0
  -21.4070  -29.1540   22.3160 N   0  0  0  0  0  0  0  0  0  0  0  0
  -23.3930  -28.6920   23.2950 O   0  0  0  0  0  0  0  0  0  0  0  0
  -20.9330  -29.7190   21.6260 H   0  0  0  0  0  0  0  0  0  0  0  0
  -18.0170  -27.9730   22.7330 C   0  0  0  0  0  0  0  0  0  0  0  0
  -20.5690  -28.2160   23.0640 C   0  0  0  0  0  3  0  0  0  0  0  0
  -20.6770  -26.7870   22.4840 C   0  0  0  0  0  2  0  0  0  0  0  0
  -19.5960  -26.4750   21.4440 C   0  0  0  0  0  2  0  0  0  0  0  0
  -18.2010  -26.6260   22.0560 C   0  0  0  0  0  2  0  0  0  0  0  0
  -19.1290  -28.7280   23.1920 C   0  0  0  0  0  0  0  0  0  0  0  0
  -18.9040  -29.9900   23.7810 C   0  0  0  0  0  3  0  0  0  0  0  0
  -17.5990  -30.4990   23.9180 C   0  0  0  0  0  3  0  0  0  0  0  0
  -16.5010  -29.7410   23.4760 C   0  0  0  0  0  3  0  0  0  0  0  0
  -16.7090  -28.4810   22.8890 C   0  0  0  0  0  3  0  0  0  0  0  0
  -25.8440  -32.3730   23.8590 C   0  0  0  0  0  3  0  0  0  0  0  0
  -26.3280  -31.6000   25.1470 C   0  0  1  0  0  0  0  0  0  0  0  0
  -25.2080  -31.3630   26.1860 C   0  0  0  0  0  1  0  0  0  0  0  0
  -26.9190  -30.2230   24.7660 C   0  0  0  0  0  1  0  0  0  0  0  0
  -27.4630  -32.3930   25.8380 C   0  0  0  0  0  1  0  0  0  0  0  0
  -25.5330  -33.7720   24.1790 N   0  0  0  0  0  0  0  0  0  0  0  0
  -25.8880  -34.8220   23.4250 C   0  0  0  0  0  0  0  0  0  0  0  0
  -26.5830  -34.7130   22.4110 O   0  0  0  0  0  0  0  0  0  0  0  0
  -24.9210  -33.9310   24.9660 H   0  0  0  0  0  0  0  0  0  0  0  0
  -24.1760  -36.6180   23.0200 C   0  0  0  0  0  1  0  0  0  0  0  0
  -25.3930  -36.2120   23.8660 C   0  0  0  0  0  3  0  0  0  0  0  0
  -27.5040  -37.0920   24.7590 C   0  0  0  0  0  1  0  0  0  0  0  0
  -26.4330  -37.2600   23.7810 N   0  0  0  0  0  0  0  0  0  0  0  0
  -26.0260  -38.1820   23.9110 H   0  0  0  0  0  0  0  0  0  0  0  0
  1  4  1  0
  1 49  1  0
  2  1  2  0
  3  7  1  0
  3  4  2  0
  4  6  1  0
  5  8  1  0
  6  5  2  0
  7  5  1  0
  9  8  1  0
 10  9  1  0
 11 19  1  0
 12 17  1  0
 13 14  1  0
 13 12  1  0
 15 14  1  0
 15 24  1  0
 15 16  1  0
 17 11  1  0
 17 16  1  0
 18 11  2  0
 19 10  1  0
 19 20  1  0
 21 22  2  0
 22 41  1  0
 23 22  1  0
 23 26  1  0
 24 21  1  0
 24 25  1  0
 25 23  2  0
 26 27  1  0
 27 28  2  0
 29 32  1  0
 29 28  1  0
 30 29  2  0
 31 30  1  0
 31 26  2  0
 32 33  1  0
 33 34  1  0
 34 35  2  0
 36 35  1  0
 36 40  1  0
 37 36  2  0
 38 33  2  0
 38 37  1  0
 39 38  1  0
 41 42  1  0
 42 45  1  0
 42 44  1  0
 43 41  2  0
 46 47  1  0
 46 21  1  0
 48 46  1  0
 49 54  1  0
 50 52  1  0
 50 49  1  0
 51 50  1  0
 53 50  1  0
 55 54  1  0
 56 67  2  0
 57 55  1  0
 57 62  1  0
 58 66  1  0
 58 68  1  0
 59 65  1  0
 59 61  1  0
 60 66  1  0
 61 62  2  0
 61 60  1  0
 63 57  2  0
 64 63  1  0
 64 59  2  0
 65 58  1  0
 66 56  1  0
 68 70  2  0
 69 68  1  0
 71 69  1  0
 72 81  2  0
 72 77  1  0
 73 69  1  0
 73 77  1  0
 74 73  1  0
 75 76  1  0
 75 74  1  0
 76 72  1  0
 77 78  2  0
 78 79  1  0
 80 79  2  0
 81 80  1  0
 82 56  1  0
 82 87  1  0
 82 83  1  0
 83 86  1  1
 83 84  1  0
 85 83  1  0
 87 90  1  0
 88 92  1  0
 88 87  1  0
 89 88  2  0
 92 91  1  0
 94 92  1  0
 94 95  1  0
 94 93  1  0
M  ISO  4  11 100  19 100  54 101  55 101
M  END
>  <TORSDO>  (18) 
F 23

>  <SCORE>  (18) 
-12.603

>  <name>  (18) 
17

>  <ligand_id>  (18) 
17

>  <original_smiles>  (18) 
[H]c1sc(C([H])([H])C([H])([H])C([H])([H])N([H])C(=O)N2C([H])([H])C([H])([H])C([H])([H])C([H])(n3nc(-c4c([H])c([H])c(Oc5c([H])c([H])c(F)c([H])c5F)c([H])c4[H])c(C(=O)N([H])[H])c3N([H])[H])C2([H])[H])nc1C(=O)C([H])(C([H])([H])Oc1c([H])c([H])c2c(c1[H])C([H])([H])N(C(=O)C([H])(N([H])C(=O)C([H])(N([H])C([H])([H])[H])C([H])([H])[H])C(C([H])([H])[H])(C([H])([H])[H])C([H])([H])[H])C([H])(C(=O)N([H])C1([H])c3c([H])c([H])c([H])c([H])c3C([H])([H])C([H])([H])C1([H])[H])C2([H])[H])[N+]([H])([H])[H]

>  <smiles>  (18) 
[H]c1sc(C([H])([H])C([H])([H])C([H])([H])N([H])C(=O)N2C([H])([H])C([H])([H])C([H])([H])C([H])(n3nc(-c4c([H])c([H])c(Oc5c([H])c([H])c(F)c([H])c5F)c([H])c4[H])c(C(=O)N([H])[H])c3N([H])[H])C2([H])[H])nc1C(=O)C([H])(C([H])([H])Oc1c([H])c([H])c2c(c1[H])C([H])([H])N(C(=O)C([H])(N([H])C(=O)C([H])(N([H])C([H])([H])[H])C([H])([H])[H])C(C([H])([H])[H])(C([H])([H])[H])C([H])([H])[H])C([H])(C(=O)N([H])C1([H])c3c([H])c([H])c([H])c([H])c3C([H])([H])C([H])([H])C1([H])[H])C2([H])[H])[N+]([H])([H])[H]

$$$$
18:0:0
     RDKit          3D

 93101  0  0  1  0  0  0  0  0999 V2000
  -29.5010  -21.0900   21.8820 C   0  0  0  0  0  2  0  0  0  0  0  0
  -30.4400  -17.3370   21.7290 C   0  0  0  0  0  0  0  0  0  0  0  0
  -30.4560  -18.8180   22.1800 C   0  0  0  0  0  2  0  0  0  0  0  0
  -29.1520  -17.9190   19.7030 C   0  0  0  0  0  2  0  0  0  0  0  0
  -29.2870  -19.4120   20.0440 C   0  0  0  0  0  2  0  0  0  0  0  0
  -30.3890  -17.1330   20.2030 C   0  0  0  0  0  3  0  0  0  0  0  0
  -29.3860  -19.6400   21.5150 N   0  0  2  0  0  4  0  0  0  0  0  0
  -30.4490  -16.4180   22.5540 O   0  0  0  0  0  0  0  0  0  0  0  0
  -28.5110  -19.3210   21.9040 H   0  0  0  0  0  0  0  0  0  0  0  0
  -31.1630  -14.7420   20.2480 C   0  0  0  0  0  0  0  0  0  0  0  0
  -30.9330  -12.4610   19.3760 C   0  0  0  0  0  2  0  0  0  0  0  0
  -29.9960  -12.4540   18.1450 C   0  0  0  0  0  2  0  0  0  0  0  0
  -28.5140  -12.4040   18.5610 C   0  0  0  0  0  2  0  0  0  0  0  0
  -28.1440  -13.3580   19.7290 C   0  0  0  0  0  3  0  0  0  0  0  0
  -29.1930  -13.3040   20.8590 C   0  0  0  0  0  2  0  0  0  0  0  0
  -30.5090  -13.5520   20.2600 N   0  0  0  0  0  0  0  0  0  0  0  0
  -32.3900  -14.8340   20.1930 O   0  0  0  0  0  0  0  0  0  0  0  0
  -30.6550  -15.7750   18.1920 C   0  0  0  0  0  1  0  0  0  0  0  0
  -30.4490  -15.7430   19.6600 N   0  0  0  0  0  0  0  0  0  0  0  0
  -25.7570  -13.9780   20.4550 C   0  0  0  0  0  0  0  0  0  0  0  0
  -24.6820  -13.2110   20.8140 C   0  0  0  0  0  0  0  0  0  0  0  0
  -25.1340  -11.8550   20.7790 C   0  0  0  0  0  0  0  0  0  0  0  0
  -26.7960  -13.0910   20.2220 N   0  0  0  0  0  0  0  0  0  0  0  0
  -26.4260  -11.8100   20.4840 N   0  0  0  0  0  0  0  0  0  0  0  0
  -24.4010  -10.5950   20.9530 C   0  0  0  0  0  0  0  0  0  0  0  0
  -24.7740   -9.6540   21.9370 C   0  0  0  0  0  3  0  0  0  0  0  0
  -24.0440   -8.4580   22.0980 C   0  0  0  0  0  3  0  0  0  0  0  0
  -22.9250   -8.1940   21.2740 C   0  0  0  0  0  0  0  0  0  0  0  0
  -22.5700   -9.1220   20.2790 C   0  0  0  0  0  3  0  0  0  0  0  0
  -23.3020  -10.3100   20.1160 C   0  0  0  0  0  3  0  0  0  0  0  0
  -22.1700   -7.0460   21.3440 O   0  0  0  0  0  0  0  0  0  0  0  0
  -21.9650   -6.3920   22.5330 C   0  0  0  0  0  0  0  0  0  0  0  0
  -21.3610   -7.0270   23.6400 C   0  0  0  0  0  3  0  0  0  0  0  0
  -21.1060   -6.2970   24.8180 C   0  0  0  0  0  3  0  0  0  0  0  0
  -21.4410   -4.9320   24.8870 C   0  0  0  0  0  0  0  0  0  0  0  0
  -22.0360   -4.2960   23.7840 C   0  0  0  0  0  3  0  0  0  0  0  0
  -22.2950   -5.0240   22.6090 C   0  0  0  0  0  0  0  0  0  0  0  0
  -22.8490   -4.4010   21.5410 F   0  0  0  0  0  0  0  0  0  0  0  0
  -21.1890   -4.2260   26.0140 F   0  0  0  0  0  0  0  0  0  0  0  0
  -23.2860  -13.6920   21.0760 C   0  0  0  0  0  0  0  0  0  0  0  0
  -22.5540  -13.0040   21.9450 N   0  0  0  0  0  0  0  0  0  0  0  0
  -22.8510  -14.7130   20.5450 O   0  0  0  0  0  0  0  0  0  0  0  0
  -22.9170  -12.1750   22.3950 H   0  0  0  0  0  0  0  0  0  0  0  0
  -21.6160  -13.3060   22.1640 H   0  0  0  0  0  0  0  0  0  0  0  0
  -25.9380  -15.3480   20.2800 N   0  0  0  0  0  0  0  0  0  0  0  0
  -25.1770  -16.0120   20.3610 H   0  0  0  0  0  0  0  0  0  0  0  0
  -26.7880  -15.7570   19.9160 H   0  0  0  0  0  0  0  0  0  0  0  0
  -28.6630  -22.0770   21.0050 C   0  0  0  0  0  2  0  0  0  0  0  0
  -27.8720  -23.7170   22.5710 C   0  0  0  0  0  1  0  0  0  0  0  0
  -28.7560  -23.4890   21.4240 N   0  0  0  0  0  0  0  0  0  0  0  0
  -28.3780  -24.3860   20.3110 C   0  0  0  0  0  2  0  0  0  0  0  0
  -28.6620  -25.8910   20.5780 C   0  0  0  0  0  2  0  0  0  0  0  0
  -28.3790  -26.7130   19.4370 O   0  0  0  0  0  0  0  0  0  0  0  0
  -24.6360  -31.6300   22.9670 C   0  0  0  0  0  0  0  0  0  0  0  0
  -27.2140  -27.4340   19.5310 C   0  0  0  0  0  0  0  0  0  0  0  0
  -23.3810  -30.3030   21.2960 C   0  0  0  0  0  3  0  0  0  0  0  0
  -24.7980  -28.8790   19.7210 C   0  0  0  0  0  0  0  0  0  0  0  0
  -25.8870  -30.7270   21.0080 C   0  0  0  0  0  2  0  0  0  0  0  0
  -25.9680  -29.3970   20.2900 C   0  0  0  0  0  0  0  0  0  0  0  0
  -27.1820  -28.6810   20.1930 C   0  0  0  0  0  3  0  0  0  0  0  0
  -26.0340  -26.9270   18.9530 C   0  0  0  0  0  3  0  0  0  0  0  0
  -24.8240  -27.6430   19.0480 C   0  0  0  0  0  3  0  0  0  0  0  0
  -23.5410  -29.7060   19.8710 C   0  0  0  0  0  2  0  0  0  0  0  0
  -24.6560  -30.8980   21.8160 N   0  0  0  0  0  0  0  0  0  0  0  0
  -23.5760  -31.8480   23.5680 O   0  0  0  0  0  0  0  0  0  0  0  0
  -22.7910  -29.2170   22.2230 C   0  0  0  0  0  0  0  0  0  0  0  0
  -21.4670  -29.0070   22.1300 N   0  0  0  0  0  0  0  0  0  0  0  0
  -23.5180  -28.5650   22.9790 O   0  0  0  0  0  0  0  0  0  0  0  0
  -20.9390  -29.5870   21.4920 H   0  0  0  0  0  0  0  0  0  0  0  0
  -18.1440  -27.6920   22.6630 C   0  0  0  0  0  0  0  0  0  0  0  0
  -20.7010  -28.0090   22.8760 C   0  0  0  0  0  3  0  0  0  0  0  0
  -20.8250  -26.6120   22.2230 C   0  0  0  0  0  2  0  0  0  0  0  0
  -19.7020  -26.3090   21.2260 C   0  0  0  0  0  2  0  0  0  0  0  0
  -18.3370  -26.3840   21.9140 C   0  0  0  0  0  2  0  0  0  0  0  0
  -19.2540  -28.4630   23.0990 C   0  0  0  0  0  0  0  0  0  0  0  0
  -19.0190  -29.6900   23.7580 C   0  0  0  0  0  3  0  0  0  0  0  0
  -17.7060  -30.1450   23.9850 C   0  0  0  0  0  3  0  0  0  0  0  0
  -16.6110  -29.3700   23.5640 C   0  0  0  0  0  3  0  0  0  0  0  0
  -16.8310  -28.1460   22.9090 C   0  0  0  0  0  3  0  0  0  0  0  0
  -25.9390  -32.2450   23.5680 C   0  0  0  0  0  3  0  0  0  0  0  0
  -25.6220  -33.6110   24.0020 N   0  0  0  0  0  0  0  0  0  0  0  0
  -25.9380  -34.7190   23.3160 C   0  0  0  0  0  0  0  0  0  0  0  0
  -26.5960  -34.6970   22.2720 O   0  0  0  0  0  0  0  0  0  0  0  0
  -25.0370  -33.7030   24.8190 H   0  0  0  0  0  0  0  0  0  0  0  0
  -24.1990  -36.5230   23.0970 C   0  0  0  0  0  1  0  0  0  0  0  0
  -25.4420  -36.0660   23.8760 C   0  0  0  0  0  3  0  0  0  0  0  0
  -27.5690  -36.8990   24.7770 C   0  0  0  0  0  1  0  0  0  0  0  0
  -26.4690  -37.1300   23.8440 N   0  0  0  0  0  0  0  0  0  0  0  0
  -26.0580  -38.0350   24.0590 H   0  0  0  0  0  0  0  0  0  0  0  0
  -26.5330  -31.4010   24.7620 C   0  0  1  0  0  0  0  0  0  0  0  0
  -25.5010  -31.0730   25.8660 C   0  0  0  0  0  1  0  0  0  0  0  0
  -27.1170  -30.0650   24.2470 C   0  0  0  0  0  1  0  0  0  0  0  0
  -27.7040  -32.1730   25.4160 C   0  0  0  0  0  1  0  0  0  0  0  0
  2  3  1  0
  2  8  2  0
  4  5  1  0
  4  6  1  0
  5  7  1  0
  6 19  1  0
  6  2  1  0
  7  1  1  0
  7  9  1  1
  7  3  1  0
 10 16  1  0
 11 16  1  0
 12 13  1  0
 12 11  1  0
 14 13  1  0
 14 23  1  0
 14 15  1  0
 16 15  1  0
 17 10  2  0
 18 19  1  0
 19 10  1  0
 20 21  2  0
 21 40  1  0
 22 21  1  0
 22 25  1  0
 23 20  1  0
 23 24  1  0
 24 22  2  0
 25 26  1  0
 26 27  2  0
 28 31  1  0
 28 27  1  0
 29 28  2  0
 30 29  1  0
 30 25  2  0
 31 32  1  0
 32 37  2  0
 32 33  1  0
 33 34  2  0
 34 35  1  0
 35 39  1  0
 36 35  2  0
 37 36  1  0
 38 37  1  0
 40 41  1  0
 41 44  1  0
 41 43  1  0
 42 40  2  0
 45 46  1  0
 45 20  1  0
 47 45  1  0
 48 50  1  0
 48  1  1  0
 50 49  1  0
 51 52  1  0
 51 50  1  0
 53 55  1  0
 53 52  1  0
 54 65  2  0
 55 60  1  0
 56 64  1  0
 56 66  1  0
 57 63  1  0
 57 59  1  0
 58 64  1  0
 59 58  1  0
 60 59  2  0
 61 62  1  0
 61 55  2  0
 62 57  2  0
 63 56  1  0
 64 54  1  0
 66 68  2  0
 67 66  1  0
 69 67  1  0
 70 79  2  0
 70 75  1  0
 71 67  1  0
 71 75  1  0
 72 71  1  0
 73 74  1  0
 73 72  1  0
 74 70  1  0
 75 76  2  0
 76 77  1  0
 78 77  2  0
 79 78  1  0
 80 54  1  0
 80 81  1  0
 80 90  1  0
 81 84  1  0
 82 86  1  0
 82 81  1  0
 83 82  2  0
 86 85  1  0
 88 86  1  0
 88 89  1  0
 88 87  1  0
 90 93  1  1
 90 91  1  0
 92 90  1  0
M  ISO  4  10 100  19 100  52 101  53 101
M  END
>  <TORSDO>  (19) 
F 21

>  <SCORE>  (19) 
-11.704

>  <name>  (19) 
18

>  <ligand_id>  (19) 
18

>  <original_smiles>  (19) 
[H]c1c([H])c([H])c2c(c1[H])C([H])([H])C([H])([H])C([H])([H])C2([H])N([H])C(=O)C1([H])N(C(=O)C([H])(N([H])C(=O)C([H])(N([H])C([H])([H])[H])C([H])([H])[H])C(C([H])([H])[H])(C([H])([H])[H])C([H])([H])[H])C([H])([H])c2c([H])c(OC([H])([H])C([H])([H])N(C([H])([H])[H])C([H])([H])C([H])([H])[N+]3([H])C([H])([H])C(=O)C([H])(N(C(=O)N4C([H])([H])C([H])([H])C([H])([H])C([H])(n5nc(-c6c([H])c([H])c(Oc7c([H])c([H])c(F)c([H])c7F)c([H])c6[H])c(C(=O)N([H])[H])c5N([H])[H])C4([H])[H])C([H])([H])[H])C([H])([H])C3([H])[H])c([H])c([H])c2C1([H])[H]

>  <smiles>  (19) 
[H]c1c([H])c([H])c2c(c1[H])C([H])([H])C([H])([H])C([H])([H])C2([H])N([H])C(=O)C1([H])N(C(=O)C([H])(N([H])C(=O)C([H])(N([H])C([H])([H])[H])C([H])([H])[H])C(C([H])([H])[H])(C([H])([H])[H])C([H])([H])[H])C([H])([H])c2c([H])c(OC([H])([H])C([H])([H])N(C([H])([H])[H])C([H])([H])C([H])([H])[N+]3([H])C([H])([H])C(=O)C([H])(N(C(=O)N4C([H])([H])C([H])([H])C([H])([H])C([H])(n5nc(-c6c([H])c([H])c(Oc7c([H])c([H])c(F)c([H])c7F)c([H])c6[H])c(C(=O)N([H])[H])c5N([H])[H])C4([H])[H])C([H])([H])[H])C([H])([H])C3([H])[H])c([H])c([H])c2C1([H])[H]

$$$$
19:0:0
     RDKit          3D

 92100  0  0  1  0  0  0  0  0999 V2000
  -29.7600  -20.4100   21.4820 C   0  0  0  0  0  2  0  0  0  0  0  0
  -30.3000  -17.9470   21.1780 C   0  0  0  0  0  0  0  0  0  0  0  0
  -30.2490  -19.2300   20.7480 N   0  0  0  0  0  0  0  0  0  0  0  0
  -30.1970  -17.6450   22.3690 O   0  0  0  0  0  0  0  0  0  0  0  0
  -30.4070  -19.3580   19.7580 H   0  0  0  0  0  0  0  0  0  0  0  0
  -30.8600  -14.5920   20.5280 C   0  0  0  0  0  0  0  0  0  0  0  0
  -30.6620  -12.3170   19.6260 C   0  0  0  0  0  2  0  0  0  0  0  0
  -29.7720  -12.3740   18.3640 C   0  0  0  0  0  2  0  0  0  0  0  0
  -28.2730  -12.3140   18.7280 C   0  0  0  0  0  2  0  0  0  0  0  0
  -27.8680  -13.2280   19.9190 C   0  0  0  0  0  3  0  0  0  0  0  0
  -28.8860  -13.1320   21.0780 C   0  0  0  0  0  2  0  0  0  0  0  0
  -30.2250  -13.3890   20.5310 N   0  0  0  0  0  0  0  0  0  0  0  0
  -32.0860  -14.7000   20.4610 O   0  0  0  0  0  0  0  0  0  0  0  0
  -30.3940  -16.9810   20.0740 C   0  0  0  0  0  3  0  0  0  0  0  0
  -30.0650  -17.2260   18.7980 C   0  0  0  0  0  3  0  0  0  0  0  0
  -30.0980  -15.7570   18.5610 C   0  0  0  0  0  2  0  0  0  0  0  0
  -30.0840  -15.5940   20.0370 N   0  0  0  0  0  0  0  0  0  0  0  0
  -25.4500  -13.8540   20.5300 C   0  0  0  0  0  0  0  0  0  0  0  0
  -24.3640  -13.0910   20.8620 C   0  0  0  0  0  0  0  0  0  0  0  0
  -24.8240  -11.7380   20.8790 C   0  0  0  0  0  0  0  0  0  0  0  0
  -26.5010  -12.9660   20.3610 N   0  0  0  0  0  0  0  0  0  0  0  0
  -26.1270  -11.6900   20.6350 N   0  0  0  0  0  0  0  0  0  0  0  0
  -24.0880  -10.4810   21.0600 C   0  0  0  0  0  0  0  0  0  0  0  0
  -24.4830   -9.5270   22.0240 C   0  0  0  0  0  3  0  0  0  0  0  0
  -23.7500   -8.3340   22.1900 C   0  0  0  0  0  3  0  0  0  0  0  0
  -22.6090   -8.0840   21.3910 C   0  0  0  0  0  0  0  0  0  0  0  0
  -22.2340   -9.0260   20.4170 C   0  0  0  0  0  3  0  0  0  0  0  0
  -22.9670  -10.2120   20.2490 C   0  0  0  0  0  3  0  0  0  0  0  0
  -21.8500   -6.9410   21.4660 O   0  0  0  0  0  0  0  0  0  0  0  0
  -21.7550   -6.2140   22.6270 C   0  0  0  0  0  0  0  0  0  0  0  0
  -21.2680   -6.7840   23.8240 C   0  0  0  0  0  3  0  0  0  0  0  0
  -21.1230   -5.9830   24.9740 C   0  0  0  0  0  3  0  0  0  0  0  0
  -21.4520   -4.6160   24.9280 C   0  0  0  0  0  0  0  0  0  0  0  0
  -21.9300   -4.0460   23.7350 C   0  0  0  0  0  3  0  0  0  0  0  0
  -22.0780   -4.8430   22.5870 C   0  0  0  0  0  0  0  0  0  0  0  0
  -22.5190   -4.2850   21.4340 F   0  0  0  0  0  0  0  0  0  0  0  0
  -21.3060   -3.8450   26.0320 F   0  0  0  0  0  0  0  0  0  0  0  0
  -22.9560  -13.5750   21.0570 C   0  0  0  0  0  0  0  0  0  0  0  0
  -22.1880  -12.9000   21.9050 N   0  0  0  0  0  0  0  0  0  0  0  0
  -22.5440  -14.5880   20.4930 O   0  0  0  0  0  0  0  0  0  0  0  0
  -22.5340  -12.0810   22.3830 H   0  0  0  0  0  0  0  0  0  0  0  0
  -21.2420  -13.2070   22.0810 H   0  0  0  0  0  0  0  0  0  0  0  0
  -25.6280  -15.2210   20.3370 N   0  0  0  0  0  0  0  0  0  0  0  0
  -24.8600  -15.8780   20.4080 H   0  0  0  0  0  0  0  0  0  0  0  0
  -26.5010  -15.6570   20.0680 H   0  0  0  0  0  0  0  0  0  0  0  0
  -30.8250  -17.9460   17.9580 O   0  0  0  0  0  0  0  0  0  0  0  0
  -30.3200  -18.7000   17.6790 H   0  0  0  0  0  0  0  0  0  0  0  0
  -30.0230  -21.7570   20.7370 C   0  0  0  0  0  2  0  0  0  0  0  0
  -29.0690  -22.9120   21.1600 C   0  0  0  0  0  2  0  0  0  0  0  0
  -29.4070  -24.3450   20.6380 C   0  0  0  0  0  2  0  0  0  0  0  0
  -28.1440  -25.2230   20.4420 C   0  0  0  0  0  2  0  0  0  0  0  0
  -28.3740  -26.6420   20.2640 O   0  0  0  0  0  0  0  0  0  0  0  0
  -24.5980  -31.9000   23.2930 C   0  0  0  0  0  0  0  0  0  0  0  0
  -27.2250  -27.4210   20.2250 C   0  0  0  0  0  0  0  0  0  0  0  0
  -23.3900  -30.5020   21.6540 C   0  0  0  0  0  3  0  0  0  0  0  0
  -24.8410  -28.9640   20.2280 C   0  0  0  0  0  0  0  0  0  0  0  0
  -25.9210  -30.8480   21.4560 C   0  0  0  0  0  2  0  0  0  0  0  0
  -26.0040  -29.4750   20.8140 C   0  0  0  0  0  0  0  0  0  0  0  0
  -27.2020  -28.7150   20.8060 C   0  0  0  0  0  3  0  0  0  0  0  0
  -26.0390  -26.9440   19.6160 C   0  0  0  0  0  3  0  0  0  0  0  0
  -24.8550  -27.6980   19.6230 C   0  0  0  0  0  3  0  0  0  0  0  0
  -23.5980  -29.8250   20.2750 C   0  0  0  0  0  2  0  0  0  0  0  0
  -24.6560  -31.0970   22.1930 N   0  0  0  0  0  0  0  0  0  0  0  0
  -23.5180  -32.1730   23.8320 O   0  0  0  0  0  0  0  0  0  0  0  0
  -22.7360  -29.4800   22.6130 C   0  0  0  0  0  0  0  0  0  0  0  0
  -21.4120  -29.2950   22.4800 N   0  0  0  0  0  0  0  0  0  0  0  0
  -23.4170  -28.8580   23.4320 O   0  0  0  0  0  0  0  0  0  0  0  0
  -20.9230  -29.8510   21.7920 H   0  0  0  0  0  0  0  0  0  0  0  0
  -18.0380  -28.0900   22.9570 C   0  0  0  0  0  0  0  0  0  0  0  0
  -20.5930  -28.3590   23.2490 C   0  0  0  0  0  3  0  0  0  0  0  0
  -20.7050  -26.9250   22.6830 C   0  0  0  0  0  2  0  0  0  0  0  0
  -19.6120  -26.5920   21.6600 C   0  0  0  0  0  2  0  0  0  0  0  0
  -18.2250  -26.7370   22.2920 C   0  0  0  0  0  2  0  0  0  0  0  0
  -19.1500  -28.8590   23.3930 C   0  0  0  0  0  0  0  0  0  0  0  0
  -18.9230  -30.1250   23.9740 C   0  0  0  0  0  3  0  0  0  0  0  0
  -17.6150  -30.6240   24.1230 C   0  0  0  0  0  3  0  0  0  0  0  0
  -16.5170  -29.8540   23.7050 C   0  0  0  0  0  3  0  0  0  0  0  0
  -16.7290  -28.5880   23.1290 C   0  0  0  0  0  3  0  0  0  0  0  0
  -25.8850  -32.5290   23.9140 C   0  0  0  0  0  3  0  0  0  0  0  0
  -25.5860  -33.9330   24.2210 N   0  0  0  0  0  0  0  0  0  0  0  0
  -25.9380  -34.9710   23.4500 C   0  0  0  0  0  0  0  0  0  0  0  0
  -26.6190  -34.8460   22.4300 O   0  0  0  0  0  0  0  0  0  0  0  0
  -24.9870  -34.1050   25.0160 H   0  0  0  0  0  0  0  0  0  0  0  0
  -24.2400  -36.7800   23.0380 C   0  0  0  0  0  1  0  0  0  0  0  0
  -25.4580  -36.3710   23.8810 C   0  0  0  0  0  3  0  0  0  0  0  0
  -27.5840  -37.2410   24.7510 C   0  0  0  0  0  1  0  0  0  0  0  0
  -26.5060  -37.4100   23.7780 N   0  0  0  0  0  0  0  0  0  0  0  0
  -26.1080  -38.3370   23.9050 H   0  0  0  0  0  0  0  0  0  0  0  0
  -26.3890  -31.7690   25.2030 C   0  0  1  0  0  0  0  0  0  0  0  0
  -25.2880  -31.5540   26.2670 C   0  0  0  0  0  1  0  0  0  0  0  0
  -26.9620  -30.3830   24.8290 C   0  0  0  0  0  1  0  0  0  0  0  0
  -27.5420  -32.5620   25.8620 C   0  0  0  0  0  1  0  0  0  0  0  0
  2  4  2  0
  3  2  1  0
  3  1  1  0
  5  3  1  0
  6 12  1  0
  7 12  1  0
  8  9  1  0
  8  7  1  0
 10  9  1  0
 10 21  1  0
 10 11  1  0
 12 11  1  0
 13  6  2  0
 14  2  1  0
 15 46  1  0
 15 14  1  0
 16 15  1  0
 16 17  1  0
 17 14  1  0
 17  6  1  0
 18 19  2  0
 19 20  1  0
 19 38  1  0
 20 23  1  0
 21 18  1  0
 21 22  1  0
 22 20  2  0
 23 24  1  0
 24 25  2  0
 26 29  1  0
 26 25  1  0
 27 26  2  0
 28 27  1  0
 28 23  2  0
 29 30  1  0
 30 31  1  0
 31 32  2  0
 33 32  1  0
 33 37  1  0
 34 33  2  0
 35 30  2  0
 35 34  1  0
 36 35  1  0
 38 39  1  0
 39 42  1  0
 39 41  1  0
 40 38  2  0
 43 44  1  0
 43 18  1  0
 45 43  1  0
 47 46  1  0
 48 49  1  0
 48  1  1  0
 50 49  1  0
 51 50  1  0
 52 51  1  0
 53 64  2  0
 54 52  1  0
 54 59  1  0
 55 63  1  0
 55 65  1  0
 56 62  1  0
 56 58  1  0
 57 63  1  0
 58 57  1  0
 59 58  2  0
 60 61  1  0
 60 54  2  0
 61 56  2  0
 62 55  1  0
 63 53  1  0
 65 67  2  0
 66 65  1  0
 68 66  1  0
 69 78  2  0
 69 74  1  0
 70 66  1  0
 70 74  1  0
 71 70  1  0
 72 73  1  0
 72 71  1  0
 73 69  1  0
 74 75  2  0
 75 76  1  0
 77 76  2  0
 78 77  1  0
 79 53  1  0
 79 80  1  0
 79 89  1  0
 80 83  1  0
 81 85  1  0
 81 80  1  0
 82 81  2  0
 85 84  1  0
 87 85  1  0
 87 88  1  0
 87 86  1  0
 89 92  1  1
 89 90  1  0
 91 89  1  0
M  ISO  4   6 100  17 100  51 101  52 101
M  END
>  <TORSDO>  (20) 
F 22

>  <SCORE>  (20) 
-12.727

>  <name>  (20) 
19

>  <ligand_id>  (20) 
19

>  <original_smiles>  (20) 
[H]OC1=C(C(=O)N([H])C([H])([H])C([H])([H])C([H])([H])C([H])([H])C([H])([H])Oc2c([H])c([H])c3c(c2[H])C([H])([H])N(C(=O)C([H])(N([H])C(=O)C([H])(N([H])C([H])([H])[H])C([H])([H])[H])C(C([H])([H])[H])(C([H])([H])[H])C([H])([H])[H])C([H])(C(=O)N([H])C2([H])c4c([H])c([H])c([H])c([H])c4C([H])([H])C([H])([H])C2([H])[H])C3([H])[H])N(C(=O)N2C([H])([H])C([H])([H])C([H])([H])C([H])(n3nc(-c4c([H])c([H])c(Oc5c([H])c([H])c(F)c([H])c5F)c([H])c4[H])c(C(=O)N([H])[H])c3N([H])[H])C2([H])[H])C1([H])[H]

>  <smiles>  (20) 
[H]OC1=C(C(=O)N([H])C([H])([H])C([H])([H])C([H])([H])C([H])([H])C([H])([H])Oc2c([H])c([H])c3c(c2[H])C([H])([H])N(C(=O)C([H])(N([H])C(=O)C([H])(N([H])C([H])([H])[H])C([H])([H])[H])C(C([H])([H])[H])(C([H])([H])[H])C([H])([H])[H])C([H])(C(=O)N([H])C2([H])c4c([H])c([H])c([H])c([H])c4C([H])([H])C([H])([H])C2([H])[H])C3([H])[H])N(C(=O)N2C([H])([H])C([H])([H])C([H])([H])C([H])(n3nc(-c4c([H])c([H])c(Oc5c([H])c([H])c(F)c([H])c5F)c([H])c4[H])c(C(=O)N([H])[H])c3N([H])[H])C2([H])[H])C1([H])[H]

$$$$
20:0:0
     RDKit          3D

 88 96  0  0  1  0  0  0  0  0999 V2000
  -28.4720  -22.0230   19.9760 C   0  0  0  0  0  2  0  0  0  0  0  0
  -29.9900  -19.9070   20.8880 C   0  0  0  0  0  0  0  0  0  0  0  0
  -29.1420  -19.4610   19.0650 C   0  0  0  0  0  2  0  0  0  0  0  0
  -30.0700  -18.5820   19.9800 C   0  0  0  0  0  3  0  0  0  0  0  0
  -29.2520  -20.6710   19.9690 N   0  0  0  0  0  0  0  0  0  0  0  0
  -30.3820  -20.2230   21.9920 O   0  0  0  0  0  0  0  0  0  0  0  0
  -29.4750  -17.1800   20.5810 C   0  0  0  0  0  0  0  0  0  0  0  0
  -28.1630  -17.4210   21.3360 C   0  0  0  0  0  1  0  0  0  0  0  0
  -29.7460  -15.8670   20.5970 N   0  0  0  0  0  0  0  0  0  0  0  0
  -30.6830  -14.9260   20.0290 C   0  0  0  0  0  0  0  0  0  0  0  0
  -30.5860  -12.6500   18.9210 C   0  0  0  0  0  2  0  0  0  0  0  0
  -29.5500  -12.6940   17.7700 C   0  0  0  0  0  2  0  0  0  0  0  0
  -28.1090  -12.4730   18.2760 C   0  0  0  0  0  2  0  0  0  0  0  0
  -27.8020  -13.3170   19.5360 C   0  0  0  0  0  3  0  0  0  0  0  0
  -28.9250  -13.1740   20.5810 C   0  0  0  0  0  2  0  0  0  0  0  0
  -30.1770  -13.6370   19.9510 N   0  0  0  0  0  0  0  0  0  0  0  0
  -31.7900  -15.1610   19.5360 O   0  0  0  0  0  0  0  0  0  0  0  0
  -25.4600  -13.8880   20.4220 C   0  0  0  0  0  0  0  0  0  0  0  0
  -24.4210  -13.1020   20.8400 C   0  0  0  0  0  0  0  0  0  0  0  0
  -24.8830  -11.7530   20.7340 C   0  0  0  0  0  0  0  0  0  0  0  0
  -26.4870  -13.0170   20.0980 N   0  0  0  0  0  0  0  0  0  0  0  0
  -26.1510  -11.7260   20.3410 N   0  0  0  0  0  0  0  0  0  0  0  0
  -24.1710  -10.4840   20.9230 C   0  0  0  0  0  0  0  0  0  0  0  0
  -24.6020   -9.5300   21.8700 C   0  0  0  0  0  3  0  0  0  0  0  0
  -23.8880   -8.3240   22.0480 C   0  0  0  0  0  3  0  0  0  0  0  0
  -22.7310   -8.0660   21.2750 C   0  0  0  0  0  0  0  0  0  0  0  0
  -22.3220   -9.0090   20.3150 C   0  0  0  0  0  3  0  0  0  0  0  0
  -23.0370  -10.2050   20.1370 C   0  0  0  0  0  3  0  0  0  0  0  0
  -21.9910   -6.9120   21.3590 O   0  0  0  0  0  0  0  0  0  0  0  0
  -21.8360   -6.2390   22.5460 C   0  0  0  0  0  0  0  0  0  0  0  0
  -21.2740   -6.8580   23.6830 C   0  0  0  0  0  3  0  0  0  0  0  0
  -21.0670   -6.1100   24.8610 C   0  0  0  0  0  3  0  0  0  0  0  0
  -21.4190   -4.7460   24.8990 C   0  0  0  0  0  0  0  0  0  0  0  0
  -21.9780   -4.1310   23.7660 C   0  0  0  0  0  3  0  0  0  0  0  0
  -22.1830   -4.8750   22.5930 C   0  0  0  0  0  0  0  0  0  0  0  0
  -22.6990   -4.2700   21.4950 F   0  0  0  0  0  0  0  0  0  0  0  0
  -21.2160   -4.0280   26.0270 F   0  0  0  0  0  0  0  0  0  0  0  0
  -23.0450  -13.5670   21.2190 C   0  0  0  0  0  0  0  0  0  0  0  0
  -22.3790  -12.8430   22.1120 N   0  0  0  0  0  0  0  0  0  0  0  0
  -22.5710  -14.6060   20.7620 O   0  0  0  0  0  0  0  0  0  0  0  0
  -22.7800  -12.0070   22.5070 H   0  0  0  0  0  0  0  0  0  0  0  0
  -21.4580  -13.1330   22.4100 H   0  0  0  0  0  0  0  0  0  0  0  0
  -25.6110  -15.2610   20.2630 N   0  0  0  0  0  0  0  0  0  0  0  0
  -24.8430  -15.9130   20.3780 H   0  0  0  0  0  0  0  0  0  0  0  0
  -26.4400  -15.6840   19.8630 H   0  0  0  0  0  0  0  0  0  0  0  0
  -29.0450  -23.5400   20.2810 C   0  0  0  0  0  3  0  0  0  0  0  0
  -28.0560  -24.8340   19.9970 C   0  0  0  0  0  3  0  0  0  0  0  0
  -28.3300  -26.3270   20.2170 O   0  0  0  0  0  0  0  0  0  0  0  0
  -24.6630  -31.8650   23.2790 C   0  0  0  0  0  0  0  0  0  0  0  0
  -27.2510  -27.2670   20.1550 C   0  0  0  0  0  0  0  0  0  0  0  0
  -23.4530  -30.5040   21.6130 C   0  0  0  0  0  3  0  0  0  0  0  0
  -24.9030  -28.9580   20.1670 C   0  0  0  0  0  0  0  0  0  0  0  0
  -26.0000  -30.7930   21.4400 C   0  0  0  0  0  2  0  0  0  0  0  0
  -26.0810  -29.4160   20.7680 C   0  0  0  0  0  0  0  0  0  0  0  0
  -27.2560  -28.5870   20.7440 C   0  0  0  0  0  3  0  0  0  0  0  0
  -26.0430  -26.8960   19.5180 C   0  0  0  0  0  3  0  0  0  0  0  0
  -24.8930  -27.7100   19.5280 C   0  0  0  0  0  3  0  0  0  0  0  0
  -23.6730  -29.8430   20.2240 C   0  0  0  0  0  2  0  0  0  0  0  0
  -24.7250  -31.0680   22.1680 N   0  0  0  0  0  0  0  0  0  0  0  0
  -23.5820  -32.1350   23.8220 O   0  0  0  0  0  0  0  0  0  0  0  0
  -22.7830  -29.4760   22.5560 C   0  0  0  0  0  0  0  0  0  0  0  0
  -21.4600  -29.2860   22.4100 N   0  0  0  0  0  0  0  0  0  0  0  0
  -23.4540  -28.8540   23.3810 O   0  0  0  0  0  0  0  0  0  0  0  0
  -20.9730  -29.8440   21.7200 H   0  0  0  0  0  0  0  0  0  0  0  0
  -18.1000  -28.0180   22.8570 C   0  0  0  0  0  0  0  0  0  0  0  0
  -20.6460  -28.3330   23.1670 C   0  0  0  0  0  3  0  0  0  0  0  0
  -20.7820  -26.8990   22.6000 C   0  0  0  0  0  2  0  0  0  0  0  0
  -19.7070  -26.5540   21.5640 C   0  0  0  0  0  2  0  0  0  0  0  0
  -18.3130  -26.6730   22.1850 C   0  0  0  0  0  2  0  0  0  0  0  0
  -19.1940  -28.8040   23.3060 C   0  0  0  0  0  0  0  0  0  0  0  0
  -18.9410  -30.0600   23.8970 C   0  0  0  0  0  3  0  0  0  0  0  0
  -17.6240  -30.5350   24.0390 C   0  0  0  0  0  3  0  0  0  0  0  0
  -16.5420  -29.7500   23.6010 C   0  0  0  0  0  3  0  0  0  0  0  0
  -16.7820  -28.4910   23.0190 C   0  0  0  0  0  3  0  0  0  0  0  0
  -25.9470  -32.4890   23.9050 C   0  0  0  0  0  3  0  0  0  0  0  0
  -26.4360  -31.7310   25.1990 C   0  0  1  0  0  0  0  0  0  0  0  0
  -25.3270  -31.5220   26.2560 C   0  0  0  0  0  1  0  0  0  0  0  0
  -27.0020  -30.3390   24.8370 C   0  0  0  0  0  1  0  0  0  0  0  0
  -27.5870  -32.5180   25.8690 C   0  0  0  0  0  1  0  0  0  0  0  0
  -25.6500  -33.8940   24.2180 N   0  0  0  0  0  0  0  0  0  0  0  0
  -25.9730  -34.9350   23.4400 C   0  0  0  0  0  0  0  0  0  0  0  0
  -26.6180  -34.8130   22.3940 O   0  0  0  0  0  0  0  0  0  0  0  0
  -25.0710  -34.0630   25.0270 H   0  0  0  0  0  0  0  0  0  0  0  0
  -24.2340  -36.7260   23.1170 C   0  0  0  0  0  1  0  0  0  0  0  0
  -25.5060  -36.3340   23.8860 C   0  0  0  0  0  3  0  0  0  0  0  0
  -27.6650  -37.2380   24.6260 C   0  0  0  0  0  1  0  0  0  0  0  0
  -26.5340  -37.3830   23.7140 N   0  0  0  0  0  0  0  0  0  0  0  0
  -26.1320  -38.3040   23.8630 H   0  0  0  0  0  0  0  0  0  0  0  0
  1 46  1  0
  2  6  2  0
  3  5  1  0
  3  4  1  0
  4  7  1  0
  4  2  1  0
  5  1  1  0
  5  2  1  0
  7  9  2  0
  7  8  1  0
 10  9  1  0
 11 16  1  0
 12 13  1  0
 12 11  1  0
 14 13  1  0
 14 21  1  0
 14 15  1  0
 16 10  1  0
 16 15  1  0
 17 10  2  0
 18 19  2  0
 19 38  1  0
 20 19  1  0
 20 23  1  0
 21 22  1  0
 21 18  1  0
 22 20  2  0
 23 24  1  0
 24 25  2  0
 26 29  1  0
 26 25  1  0
 27 26  2  0
 28 27  1  0
 28 23  2  0
 29 30  1  0
 30 35  2  0
 30 31  1  0
 31 32  2  0
 32 33  1  0
 33 37  1  0
 34 33  2  0
 35 34  1  0
 36 35  1  0
 38 39  1  0
 39 42  1  0
 39 41  1  0
 40 38  2  0
 43 44  1  0
 43 18  1  0
 45 43  1  0
 47 48  1  0
 47 46  2  0
 49 60  2  0
 50 48  1  0
 50 55  1  0
 51 59  1  0
 51 61  1  0
 52 58  1  0
 52 54  1  0
 53 59  1  0
 54 53  1  0
 55 54  2  0
 56 57  1  0
 56 50  2  0
 57 52  2  0
 58 51  1  0
 59 49  1  0
 61 63  2  0
 62 61  1  0
 64 62  1  0
 65 74  2  0
 65 70  1  0
 66 62  1  0
 66 70  1  0
 67 66  1  0
 68 69  1  0
 68 67  1  0
 69 65  1  0
 70 71  2  0
 71 72  1  0
 73 72  2  0
 74 73  1  0
 75 49  1  0
 75 80  1  0
 75 76  1  0
 76 79  1  1
 76 77  1  0
 78 76  1  0
 80 83  1  0
 81 85  1  0
 81 80  1  0
 82 81  2  0
 85 84  1  0
 87 88  1  0
 87 85  1  0
 87 86  1  0
M  ISO  4   9 100  10 100  47 101  48 101
M  END
>  <TORSDO>  (21) 
F 20

>  <SCORE>  (21) 
-12.395

>  <name>  (21) 
20

>  <ligand_id>  (21) 
20

>  <original_smiles>  (21) 
[H]c1c([H])c([H])c2c(c1[H])C([H])([H])C([H])([H])C([H])([H])C2([H])N([H])C(=O)C1([H])N(C(=O)C([H])(N([H])C(=O)C([H])(N([H])C([H])([H])[H])C([H])([H])[H])C(C([H])([H])[H])(C([H])([H])[H])C([H])([H])[H])C([H])([H])c2c([H])c(OC([H])([H])C([H])([H])C([H])([H])N3C(=O)C([H])(C(=NC(=O)N4C([H])([H])C([H])([H])C([H])([H])C([H])(n5nc(-c6c([H])c([H])c(Oc7c([H])c([H])c(F)c([H])c7F)c([H])c6[H])c(C(=O)N([H])[H])c5N([H])[H])C4([H])[H])C([H])([H])[H])C3([H])[H])c([H])c([H])c2C1([H])[H]

>  <smiles>  (21) 
[H]c1c([H])c([H])c2c(c1[H])C([H])([H])C([H])([H])C([H])([H])C2([H])N([H])C(=O)C1([H])N(C(=O)C([H])(N([H])C(=O)C([H])(N([H])C([H])([H])[H])C([H])([H])[H])C(C([H])([H])[H])(C([H])([H])[H])C([H])([H])[H])C([H])([H])c2c([H])c(OC([H])([H])C([H])([H])C([H])([H])N3C(=O)C([H])(C(=NC(=O)N4C([H])([H])C([H])([H])C([H])([H])C([H])(n5nc(-c6c([H])c([H])c(Oc7c([H])c([H])c(F)c([H])c7F)c([H])c6[H])c(C(=O)N([H])[H])c5N([H])[H])C4([H])[H])C([H])([H])[H])C3([H])[H])c([H])c([H])c2C1([H])[H]

$$$$
21:0:0
     RDKit          3D

 98106  0  0  1  0  0  0  0  0999 V2000
  -29.3350  -19.8320   21.4540 C   0  0  0  0  0  3  0  0  0  0  0  0
  -30.3960  -20.7830   19.4820 C   0  0  0  0  0  3  0  0  0  0  0  0
  -30.4160  -18.9370   21.6070 C   0  0  0  0  0  3  0  0  0  0  0  0
  -31.4740  -19.8940   19.6320 C   0  0  0  0  0  3  0  0  0  0  0  0
  -29.2920  -20.7200   20.3580 C   0  0  0  0  0  0  0  0  0  0  0  0
  -31.4600  -18.9280   20.6580 C   0  0  0  0  0  0  0  0  0  0  0  0
  -28.0770  -21.6180   20.1410 C   0  0  0  0  0  2  0  0  0  0  0  0
  -28.0060  -22.3010   18.7470 C   0  0  0  0  0  2  0  0  0  0  0  0
  -25.7350  -23.2470   17.9710 C   0  0  0  0  0  1  0  0  0  0  0  0
  -27.0480  -23.5160   18.7280 C   0  0  0  0  0  3  0  0  0  0  0  0
  -27.7160  -24.8590   18.3260 C   0  0  0  0  0  2  0  0  0  0  0  0
  -27.7790  -25.2270   16.8190 C   0  0  0  0  0  2  0  0  0  0  0  0
  -27.8020  -26.6520   16.6070 O   0  0  0  0  0  0  0  0  0  0  0  0
  -25.5750  -29.0570   22.9000 C   0  0  0  0  0  0  0  0  0  0  0  0
  -26.8250  -27.3650   17.2720 C   0  0  0  0  0  0  0  0  0  0  0  0
  -23.9010  -29.0950   21.0810 C   0  0  0  0  0  3  0  0  0  0  0  0
  -24.8100  -28.6970   18.7350 C   0  0  0  0  0  0  0  0  0  0  0  0
  -26.4040  -29.3170   20.5630 C   0  0  0  0  0  2  0  0  0  0  0  0
  -26.1220  -28.6570   19.2270 C   0  0  0  0  0  0  0  0  0  0  0  0
  -27.1370  -28.0040   18.4890 C   0  0  0  0  0  3  0  0  0  0  0  0
  -25.4980  -27.4220   16.7870 C   0  0  0  0  0  3  0  0  0  0  0  0
  -24.4910  -28.0860   17.5110 C   0  0  0  0  0  3  0  0  0  0  0  0
  -23.7860  -29.4320   19.5720 C   0  0  0  0  0  2  0  0  0  0  0  0
  -25.3210  -29.1300   21.5620 N   0  0  0  0  0  0  0  0  0  0  0  0
  -24.6510  -29.0050   23.7250 O   0  0  0  0  0  0  0  0  0  0  0  0
  -23.2020  -27.7430   21.3450 C   0  0  0  0  0  0  0  0  0  0  0  0
  -21.8650  -27.7250   21.2100 N   0  0  0  0  0  0  0  0  0  0  0  0
  -23.8590  -26.7400   21.6350 O   0  0  0  0  0  0  0  0  0  0  0  0
  -21.4050  -28.5940   20.9810 H   0  0  0  0  0  0  0  0  0  0  0  0
  -18.4560  -26.5760   20.9050 C   0  0  0  0  0  0  0  0  0  0  0  0
  -20.9980  -26.5620   21.3720 C   0  0  0  0  0  3  0  0  0  0  0  0
  -21.1130  -25.6150   20.1570 C   0  0  0  0  0  2  0  0  0  0  0  0
  -20.0640  -25.8880   19.0770 C   0  0  0  0  0  2  0  0  0  0  0  0
  -18.6500  -25.7420   19.6500 C   0  0  0  0  0  2  0  0  0  0  0  0
  -19.5600  -26.9760   21.7040 C   0  0  0  0  0  0  0  0  0  0  0  0
  -19.3280  -27.7790   22.8410 C   0  0  0  0  0  3  0  0  0  0  0  0
  -18.0220  -28.1770   23.1870 C   0  0  0  0  0  3  0  0  0  0  0  0
  -16.9330  -27.7640   22.4000 C   0  0  0  0  0  3  0  0  0  0  0  0
  -17.1500  -26.9620   21.2680 C   0  0  0  0  0  3  0  0  0  0  0  0
  -27.0340  -29.0670   23.4580 C   0  0  0  0  0  3  0  0  0  0  0  0
  -27.0430  -29.9160   24.6560 N   0  0  0  0  0  0  0  0  0  0  0  0
  -27.5410  -31.1590   24.7010 C   0  0  0  0  0  0  0  0  0  0  0  0
  -28.1170  -31.6850   23.7440 O   0  0  0  0  0  0  0  0  0  0  0  0
  -26.5460  -29.5680   25.4640 H   0  0  0  0  0  0  0  0  0  0  0  0
  -26.2430  -32.9680   25.8630 C   0  0  0  0  0  1  0  0  0  0  0  0
  -27.3790  -31.9440   26.0150 C   0  0  0  0  0  3  0  0  0  0  0  0
  -29.6640  -31.7080   26.8780 C   0  0  0  0  0  1  0  0  0  0  0  0
  -28.6160  -32.6280   26.4480 N   0  0  0  0  0  0  0  0  0  0  0  0
  -28.4240  -33.2690   27.2120 H   0  0  0  0  0  0  0  0  0  0  0  0
  -27.5800  -27.6250   23.7920 C   0  0  1  0  0  0  0  0  0  0  0  0
  -26.6320  -26.7900   24.6860 C   0  0  0  0  0  1  0  0  0  0  0  0
  -27.8280  -26.8220   22.4960 C   0  0  0  0  0  1  0  0  0  0  0  0
  -28.9480  -27.7360   24.5070 C   0  0  0  0  0  1  0  0  0  0  0  0
  -32.4920  -17.8050   20.6490 C   0  0  0  0  0  2  0  0  0  0  0  0
  -32.0670  -16.5790   19.7870 C   0  0  0  0  0  3  0  0  0  0  0  0
  -33.0800  -14.4320   19.1380 C   0  0  0  0  0  0  0  0  0  0  0  0
  -32.5590  -12.0560   18.7220 C   0  0  0  0  0  2  0  0  0  0  0  0
  -31.4770  -11.8740   17.6470 C   0  0  0  0  0  2  0  0  0  0  0  0
  -30.0750  -11.9260   18.2820 C   0  0  0  0  0  2  0  0  0  0  0  0
  -29.8810  -13.1700   19.1830 C   0  0  0  0  0  3  0  0  0  0  0  0
  -31.0630  -13.3220   20.1690 C   0  0  0  0  0  2  0  0  0  0  0  0
  -32.3210  -13.3380   19.4030 N   0  0  0  0  0  0  0  0  0  0  0  0
  -33.9640  -14.4440   18.2780 O   0  0  0  0  0  0  0  0  0  0  0  0
  -32.9800  -15.4490   20.0100 N   0  0  0  0  0  0  0  0  0  0  0  0
  -33.9020  -15.8270   20.1770 H   0  0  0  0  0  0  0  0  0  0  0  0
  -27.8530  -14.1770   20.4200 C   0  0  0  0  0  0  0  0  0  0  0  0
  -26.7000  -13.6120   20.8930 C   0  0  0  0  0  0  0  0  0  0  0  0
  -26.7950  -12.2180   20.6020 C   0  0  0  0  0  0  0  0  0  0  0  0
  -28.5940  -13.1360   19.8760 N   0  0  0  0  0  0  0  0  0  0  0  0
  -27.9650  -11.9440   20.0370 N   0  0  0  0  0  0  0  0  0  0  0  0
  -25.8180  -11.1350   20.7720 C   0  0  0  0  0  0  0  0  0  0  0  0
  -26.0090  -10.1100   21.7250 C   0  0  0  0  0  3  0  0  0  0  0  0
  -25.0420   -9.0940   21.8880 C   0  0  0  0  0  3  0  0  0  0  0  0
  -23.8730   -9.0960   21.0950 C   0  0  0  0  0  0  0  0  0  0  0  0
  -23.6960  -10.1060   20.1320 C   0  0  0  0  0  3  0  0  0  0  0  0
  -24.6610  -11.1130   19.9680 C   0  0  0  0  0  3  0  0  0  0  0  0
  -22.8920   -8.1330   21.1600 O   0  0  0  0  0  0  0  0  0  0  0  0
  -22.4350   -7.6580   22.3600 C   0  0  0  0  0  0  0  0  0  0  0  0
  -21.8210   -8.5000   23.3160 C   0  0  0  0  0  3  0  0  0  0  0  0
  -21.3060   -7.9570   24.5070 C   0  0  0  0  0  3  0  0  0  0  0  0
  -21.3910   -6.5710   24.7450 C   0  0  0  0  0  0  0  0  0  0  0  0
  -21.9960   -5.7310   23.7920 C   0  0  0  0  0  3  0  0  0  0  0  0
  -22.5140   -6.2730   22.6060 C   0  0  0  0  0  0  0  0  0  0  0  0
  -23.0790   -5.4560   21.6840 F   0  0  0  0  0  0  0  0  0  0  0  0
  -20.8870   -6.0440   25.8860 F   0  0  0  0  0  0  0  0  0  0  0  0
  -25.5280  -14.3350   21.4970 C   0  0  0  0  0  0  0  0  0  0  0  0
  -24.8080  -13.6970   22.4140 N   0  0  0  0  0  0  0  0  0  0  0  0
  -25.2670  -15.4970   21.1900 O   0  0  0  0  0  0  0  0  0  0  0  0
  -25.0330  -12.7540   22.7020 H   0  0  0  0  0  0  0  0  0  0  0  0
  -24.0170  -14.1590   22.8450 H   0  0  0  0  0  0  0  0  0  0  0  0
  -28.3270  -15.4870   20.3920 N   0  0  0  0  0  0  0  0  0  0  0  0
  -27.7780  -16.2610   20.7500 H   0  0  0  0  0  0  0  0  0  0  0  0
  -29.2130  -15.7740   20.0030 H   0  0  0  0  0  0  0  0  0  0  0  0
  -32.0480  -16.9100   18.2810 C   0  0  0  0  0  0  0  0  0  0  0  0
  -30.9160  -16.6910   17.6260 N   0  0  0  0  0  0  0  0  0  0  0  0
  -33.0600  -17.3180   17.7110 O   0  0  0  0  0  0  0  0  0  0  0  0
  -30.0960  -16.3640   18.1140 H   0  0  0  0  0  0  0  0  0  0  0  0
  -30.8490  -16.8980   16.6400 H   0  0  0  0  0  0  0  0  0  0  0  0
  1  3  1  0
  2  4  2  0
  2  5  1  0
  4  6  1  0
  5  1  2  0
  6  3  2  0
  7  5  1  0
  8  7  1  0
 10  9  1  0
 10  8  1  0
 11 10  1  0
 12 11  1  0
 13 12  1  0
 13 15  1  0
 14 25  2  0
 15 20  1  0
 16 26  1  0
 16 24  1  0
 17 19  1  0
 17 23  1  0
 18 24  1  0
 19 18  1  0
 20 19  2  0
 21 15  2  0
 21 22  1  0
 22 17  2  0
 23 16  1  0
 24 14  1  0
 26 28  2  0
 27 26  1  0
 29 27  1  0
 30 39  2  0
 30 35  1  0
 31 27  1  0
 31 35  1  0
 32 31  1  0
 33 34  1  0
 33 32  1  0
 34 30  1  0
 35 36  2  0
 36 37  1  0
 38 37  2  0
 39 38  1  0
 40 14  1  0
 40 50  1  0
 40 41  1  0
 41 42  1  0
 41 44  1  0
 42 46  1  0
 43 42  2  0
 46 45  1  0
 46 48  1  0
 48 47  1  0
 48 49  1  0
 50 53  1  1
 50 51  1  0
 52 50  1  0
 54  6  1  0
 55 64  1  0
 55 54  1  0
 56 62  1  0
 56 64  1  0
 57 62  1  0
 58 59  1  0
 58 57  1  0
 60 59  1  0
 60 69  1  0
 60 61  1  0
 62 61  1  0
 63 56  2  0
 64 65  1  0
 66 67  2  0
 67 86  1  0
 68 71  1  0
 68 67  1  0
 69 70  1  0
 69 66  1  0
 70 68  2  0
 71 72  1  0
 72 73  2  0
 74 77  1  0
 74 73  1  0
 75 74  2  0
 76 75  1  0
 76 71  2  0
 77 78  1  0
 78 83  2  0
 78 79  1  0
 79 80  2  0
 80 81  1  0
 81 85  1  0
 82 81  2  0
 83 82  1  0
 84 83  1  0
 86 87  1  0
 87 89  1  0
 87 90  1  0
 88 86  2  0
 91 66  1  0
 91 92  1  0
 93 91  1  0
 94 55  1  0
 95 97  1  0
 95 94  1  0
 96 94  2  0
 98 95  1  0
M  ISO  4  12 101  13 101  56 100  64 100
M  END
>  <TORSDO>  (22) 
F 24

>  <SCORE>  (22) 
-6.679

>  <name>  (22) 
21

>  <ligand_id>  (22) 
21

>  <original_smiles>  (22) 
[H]c1c([H])c([H])c2c(c1[H])C([H])([H])C([H])([H])C([H])([H])C2([H])N([H])C(=O)C1([H])N(C(=O)C([H])(N([H])C(=O)C([H])(N([H])C([H])([H])[H])C([H])([H])[H])C(C([H])([H])[H])(C([H])([H])[H])C([H])([H])[H])C([H])([H])c2c([H])c(OC([H])([H])C([H])([H])C([H])(C([H])([H])[H])C([H])([H])C([H])([H])c3c([H])c([H])c(C([H])([H])C([H])(C(=O)N([H])[H])N([H])C(=O)N4C([H])([H])C([H])([H])C([H])([H])C([H])(n5nc(-c6c([H])c([H])c(Oc7c([H])c([H])c(F)c([H])c7F)c([H])c6[H])c(C(=O)N([H])[H])c5N([H])[H])C4([H])[H])c([H])c3[H])c([H])c([H])c2C1([H])[H]

>  <smiles>  (22) 
[H]c1c([H])c([H])c2c(c1[H])C([H])([H])C([H])([H])C([H])([H])C2([H])N([H])C(=O)C1([H])N(C(=O)C([H])(N([H])C(=O)C([H])(N([H])C([H])([H])[H])C([H])([H])[H])C(C([H])([H])[H])(C([H])([H])[H])C([H])([H])[H])C([H])([H])c2c([H])c(OC([H])([H])C([H])([H])C([H])(C([H])([H])[H])C([H])([H])C([H])([H])c3c([H])c([H])c(C([H])([H])C([H])(C(=O)N([H])[H])N([H])C(=O)N4C([H])([H])C([H])([H])C([H])([H])C([H])(n5nc(-c6c([H])c([H])c(Oc7c([H])c([H])c(F)c([H])c7F)c([H])c6[H])c(C(=O)N([H])[H])c5N([H])[H])C4([H])[H])c([H])c3[H])c([H])c([H])c2C1([H])[H]

$$$$
22:0:0
     RDKit          3D

 88 96  0  0  1  0  0  0  0  0999 V2000
  -29.6740  -20.8000   19.5640 C   0  0  0  0  0  0  0  0  0  0  0  0
  -28.8330  -19.8380   21.5110 C   0  0  0  0  0  2  0  0  0  0  0  0
  -28.3750  -21.3400   21.3270 C   0  0  0  0  0  2  0  0  0  0  0  0
  -29.2940  -19.3070   20.1360 C   0  0  0  0  0  3  0  0  0  0  0  0
  -29.0410  -21.9220   20.1500 N   0  0  0  0  0  0  0  0  0  0  0  0
  -30.4870  -20.9260   18.6430 O   0  0  0  0  0  0  0  0  0  0  0  0
  -30.2730  -17.9040   20.1180 C   0  0  0  0  0  0  0  0  0  0  0  0
  -31.7330  -18.3250   20.0430 C   0  0  0  0  0  1  0  0  0  0  0  0
  -29.9200  -16.5730   20.1710 N   0  0  0  0  0  0  0  0  0  0  0  0
  -30.7760  -15.3520   19.9870 C   0  0  0  0  0  0  0  0  0  0  0  0
  -30.6860  -12.9540   19.1240 C   0  0  0  0  0  2  0  0  0  0  0  0
  -29.7250  -12.8730   17.9140 C   0  0  0  0  0  2  0  0  0  0  0  0
  -28.2750  -12.6480   18.3790 C   0  0  0  0  0  2  0  0  0  0  0  0
  -27.8860  -13.5830   19.5510 C   0  0  0  0  0  3  0  0  0  0  0  0
  -28.9670  -13.6380   20.6450 C   0  0  0  0  0  2  0  0  0  0  0  0
  -30.2200  -14.0650   20.0110 N   0  0  0  0  0  0  0  0  0  0  0  0
  -31.9660  -15.3720   19.6530 O   0  0  0  0  0  0  0  0  0  0  0  0
  -25.5470  -14.1450   20.4100 C   0  0  0  0  0  0  0  0  0  0  0  0
  -24.4950  -13.3660   20.8070 C   0  0  0  0  0  0  0  0  0  0  0  0
  -24.9510  -12.0160   20.7260 C   0  0  0  0  0  0  0  0  0  0  0  0
  -26.5710  -13.2710   20.0990 N   0  0  0  0  0  0  0  0  0  0  0  0
  -26.2270  -11.9820   20.3560 N   0  0  0  0  0  0  0  0  0  0  0  0
  -24.2260  -10.7520   20.9180 C   0  0  0  0  0  0  0  0  0  0  0  0
  -24.6450   -9.8010   21.8720 C   0  0  0  0  0  3  0  0  0  0  0  0
  -23.9190   -8.6020   22.0510 C   0  0  0  0  0  3  0  0  0  0  0  0
  -22.7620   -8.3460   21.2780 C   0  0  0  0  0  0  0  0  0  0  0  0
  -22.3650   -9.2900   20.3130 C   0  0  0  0  0  3  0  0  0  0  0  0
  -23.0890  -10.4800   20.1310 C   0  0  0  0  0  3  0  0  0  0  0  0
  -22.0100   -7.1990   21.3660 O   0  0  0  0  0  0  0  0  0  0  0  0
  -21.8690   -6.5200   22.5490 C   0  0  0  0  0  0  0  0  0  0  0  0
  -21.2740   -7.1130   23.6840 C   0  0  0  0  0  3  0  0  0  0  0  0
  -21.0860   -6.3550   24.8580 C   0  0  0  0  0  3  0  0  0  0  0  0
  -21.4830   -5.0050   24.8960 C   0  0  0  0  0  0  0  0  0  0  0  0
  -22.0710   -4.4100   23.7660 C   0  0  0  0  0  3  0  0  0  0  0  0
  -22.2620   -5.1670   22.5950 C   0  0  0  0  0  0  0  0  0  0  0  0
  -22.8080   -4.5840   21.5010 F   0  0  0  0  0  0  0  0  0  0  0  0
  -21.2970   -4.2740   26.0190 F   0  0  0  0  0  0  0  0  0  0  0  0
  -23.1130  -13.8450   21.1480 C   0  0  0  0  0  0  0  0  0  0  0  0
  -22.4170  -13.1370   22.0300 N   0  0  0  0  0  0  0  0  0  0  0  0
  -22.6580  -14.8820   20.6650 O   0  0  0  0  0  0  0  0  0  0  0  0
  -22.7940  -12.3010   22.4500 H   0  0  0  0  0  0  0  0  0  0  0  0
  -21.4880  -13.4390   22.2910 H   0  0  0  0  0  0  0  0  0  0  0  0
  -25.7170  -15.5180   20.2650 N   0  0  0  0  0  0  0  0  0  0  0  0
  -24.9760  -16.1840   20.4560 H   0  0  0  0  0  0  0  0  0  0  0  0
  -26.5810  -15.9540   19.9660 H   0  0  0  0  0  0  0  0  0  0  0  0
  -29.2890  -23.5140   20.0300 C   0  0  0  0  0  3  0  0  0  0  0  0
  -28.1690  -24.8050   19.8660 C   0  0  0  0  0  3  0  0  0  0  0  0
  -28.4220  -26.3700   19.9660 O   0  0  0  0  0  0  0  0  0  0  0  0
  -24.7290  -31.8730   23.2800 C   0  0  0  0  0  0  0  0  0  0  0  0
  -27.3640  -27.3710   19.9510 C   0  0  0  0  0  0  0  0  0  0  0  0
  -23.5510  -30.5810   21.5450 C   0  0  0  0  0  3  0  0  0  0  0  0
  -25.0200  -29.1240   20.0100 C   0  0  0  0  0  0  0  0  0  0  0  0
  -26.1040  -30.8790   21.4030 C   0  0  0  0  0  2  0  0  0  0  0  0
  -26.1940  -29.5330   20.6570 C   0  0  0  0  0  0  0  0  0  0  0  0
  -27.3660  -28.6770   20.6060 C   0  0  0  0  0  3  0  0  0  0  0  0
  -26.1630  -27.0810   19.2660 C   0  0  0  0  0  3  0  0  0  0  0  0
  -25.0230  -27.9170   19.2950 C   0  0  0  0  0  3  0  0  0  0  0  0
  -23.7820  -30.0040   20.1210 C   0  0  0  0  0  2  0  0  0  0  0  0
  -24.8150  -31.1310   22.1330 N   0  0  0  0  0  0  0  0  0  0  0  0
  -23.6390  -32.1050   23.8260 O   0  0  0  0  0  0  0  0  0  0  0  0
  -22.8810  -29.5020   22.4330 C   0  0  0  0  0  0  0  0  0  0  0  0
  -21.5580  -29.3080   22.2760 N   0  0  0  0  0  0  0  0  0  0  0  0
  -23.5550  -28.8440   23.2290 O   0  0  0  0  0  0  0  0  0  0  0  0
  -21.0710  -29.8910   21.6090 H   0  0  0  0  0  0  0  0  0  0  0  0
  -18.1960  -28.0130   22.6790 C   0  0  0  0  0  0  0  0  0  0  0  0
  -20.7500  -28.3050   22.9750 C   0  0  0  0  0  3  0  0  0  0  0  0
  -20.8810  -26.9200   22.2990 C   0  0  0  0  0  2  0  0  0  0  0  0
  -19.7870  -26.6500   21.2610 C   0  0  0  0  0  2  0  0  0  0  0  0
  -18.4010  -26.7200   21.9070 C   0  0  0  0  0  2  0  0  0  0  0  0
  -19.3000  -28.7640   23.1660 C   0  0  0  0  0  0  0  0  0  0  0  0
  -19.0540  -29.9740   23.8510 C   0  0  0  0  0  3  0  0  0  0  0  0
  -17.7400  -30.4350   24.0530 C   0  0  0  0  0  3  0  0  0  0  0  0
  -16.6510  -29.6810   23.5790 C   0  0  0  0  0  3  0  0  0  0  0  0
  -16.8810  -28.4710   22.8990 C   0  0  0  0  0  3  0  0  0  0  0  0
  -25.9950  -32.4810   23.9560 C   0  0  0  0  0  3  0  0  0  0  0  0
  -26.4550  -31.6840   25.2390 C   0  0  1  0  0  0  0  0  0  0  0  0
  -25.3210  -31.4440   26.2650 C   0  0  0  0  0  1  0  0  0  0  0  0
  -27.0350  -30.3040   24.8520 C   0  0  0  0  0  1  0  0  0  0  0  0
  -27.5900  -32.4540   25.9520 C   0  0  0  0  0  1  0  0  0  0  0  0
  -25.6900  -33.8780   24.3040 N   0  0  0  0  0  0  0  0  0  0  0  0
  -26.0120  -34.9420   23.5560 C   0  0  0  0  0  0  0  0  0  0  0  0
  -26.6600  -34.8510   22.5100 O   0  0  0  0  0  0  0  0  0  0  0  0
  -25.1080  -34.0210   25.1160 H   0  0  0  0  0  0  0  0  0  0  0  0
  -24.2600  -36.7340   23.2920 C   0  0  0  0  0  1  0  0  0  0  0  0
  -25.5410  -36.3290   24.0420 C   0  0  0  0  0  3  0  0  0  0  0  0
  -27.6980  -37.2330   24.7890 C   0  0  0  0  0  1  0  0  0  0  0  0
  -26.5620  -37.3870   23.8840 N   0  0  0  0  0  0  0  0  0  0  0  0
  -26.1580  -38.3080   24.0370 H   0  0  0  0  0  0  0  0  0  0  0  0
  1  4  1  0
  1  5  1  0
  3  2  1  0
  4  7  1  0
  4  2  1  0
  5  3  1  0
  6  1  2  0
  7  9  2  0
  8  7  1  0
 10 16  1  0
 10  9  1  0
 11 16  1  0
 12 13  1  0
 12 11  1  0
 14 13  1  0
 14 21  1  0
 14 15  1  0
 16 15  1  0
 17 10  2  0
 18 19  2  0
 19 38  1  0
 20 19  1  0
 20 23  1  0
 21 22  1  0
 21 18  1  0
 22 20  2  0
 23 24  1  0
 24 25  2  0
 26 29  1  0
 26 25  1  0
 27 26  2  0
 28 27  1  0
 28 23  2  0
 29 30  1  0
 30 35  2  0
 30 31  1  0
 31 32  2  0
 32 33  1  0
 33 37  1  0
 34 33  2  0
 35 34  1  0
 36 35  1  0
 38 39  1  0
 39 42  1  0
 39 41  1  0
 40 38  2  0
 43 18  1  0
 43 44  1  0
 45 43  1  0
 46  5  1  0
 47 48  1  0
 47 46  2  0
 49 60  2  0
 50 48  1  0
 50 55  1  0
 51 59  1  0
 51 61  1  0
 52 58  1  0
 52 54  1  0
 53 59  1  0
 54 53  1  0
 55 54  2  0
 56 57  1  0
 56 50  2  0
 57 52  2  0
 58 51  1  0
 59 49  1  0
 61 63  2  0
 62 61  1  0
 64 62  1  0
 65 74  2  0
 65 70  1  0
 66 62  1  0
 66 70  1  0
 67 66  1  0
 68 69  1  0
 68 67  1  0
 69 65  1  0
 70 71  2  0
 71 72  1  0
 73 72  2  0
 74 73  1  0
 75 49  1  0
 75 80  1  0
 75 76  1  0
 76 79  1  1
 76 77  1  0
 78 76  1  0
 80 83  1  0
 81 85  1  0
 81 80  1  0
 82 81  2  0
 85 84  1  0
 87 88  1  0
 87 85  1  0
 87 86  1  0
M  ISO  4   9 100  10 100  47 101  48 101
M  END
>  <TORSDO>  (23) 
F 19

>  <SCORE>  (23) 
-14.295

>  <name>  (23) 
22

>  <ligand_id>  (23) 
22

>  <original_smiles>  (23) 
[H]c1c([H])c([H])c2c(c1[H])C([H])([H])C([H])([H])C([H])([H])C2([H])N([H])C(=O)C1([H])N(C(=O)C([H])(N([H])C(=O)C([H])(N([H])C([H])([H])[H])C([H])([H])[H])C(C([H])([H])[H])(C([H])([H])[H])C([H])([H])[H])C([H])([H])c2c([H])c(OC([H])([H])C([H])([H])N3C(=O)C([H])(C(=NC(=O)N4C([H])([H])C([H])([H])C([H])([H])C([H])(n5nc(-c6c([H])c([H])c(Oc7c([H])c([H])c(F)c([H])c7F)c([H])c6[H])c(C(=O)N([H])[H])c5N([H])[H])C4([H])[H])C([H])([H])[H])C([H])([H])C3([H])[H])c([H])c([H])c2C1([H])[H]

>  <smiles>  (23) 
[H]c1c([H])c([H])c2c(c1[H])C([H])([H])C([H])([H])C([H])([H])C2([H])N([H])C(=O)C1([H])N(C(=O)C([H])(N([H])C(=O)C([H])(N([H])C([H])([H])[H])C([H])([H])[H])C(C([H])([H])[H])(C([H])([H])[H])C([H])([H])[H])C([H])([H])c2c([H])c(OC([H])([H])C([H])([H])N3C(=O)C([H])(C(=NC(=O)N4C([H])([H])C([H])([H])C([H])([H])C([H])(n5nc(-c6c([H])c([H])c(Oc7c([H])c([H])c(F)c([H])c7F)c([H])c6[H])c(C(=O)N([H])[H])c5N([H])[H])C4([H])[H])C([H])([H])[H])C([H])([H])C3([H])[H])c([H])c([H])c2C1([H])[H]

$$$$
23:0:0
     RDKit          3D

 89 97  0  0  1  0  0  0  0  0999 V2000
  -29.8840  -21.0790   20.2310 C   0  0  0  0  0  3  0  0  0  0  0  0
  -30.8190  -14.6980   19.4190 C   0  0  0  0  0  0  0  0  0  0  0  0
  -30.3890  -12.4870   18.3470 C   0  0  0  0  0  2  0  0  0  0  0  0
  -29.2740  -12.6390   17.2900 C   0  0  0  0  0  2  0  0  0  0  0  0
  -27.8850  -12.4750   17.9380 C   0  0  0  0  0  2  0  0  0  0  0  0
  -27.7310  -13.3040   19.2430 C   0  0  0  0  0  3  0  0  0  0  0  0
  -28.9500  -13.1230   20.1720 C   0  0  0  0  0  2  0  0  0  0  0  0
  -30.1420  -13.4980   19.4020 N   0  0  0  0  0  0  0  0  0  0  0  0
  -31.9100  -14.7810   18.8450 O   0  0  0  0  0  0  0  0  0  0  0  0
  -29.9500  -18.3780   19.8700 C   0  0  0  0  0  0  0  0  0  0  0  0
  -29.9300  -19.7020   19.4550 C   0  0  0  0  0  3  0  0  0  0  0  0
  -30.2430  -17.1580   18.9620 C   0  0  0  0  0  2  0  0  0  0  0  0
  -29.6450  -16.2420   21.0540 C   0  0  0  0  0  2  0  0  0  0  0  0
  -29.7780  -17.7900   21.2630 C   0  0  2  0  0  0  0  0  0  0  0  0
  -28.5220  -18.3120   21.9870 C   0  0  0  0  0  1  0  0  0  0  0  0
  -31.0350  -18.0910   22.0970 C   0  0  0  0  0  1  0  0  0  0  0  0
  -30.1230  -15.8660   19.7160 N   0  0  0  0  0  0  0  0  0  0  0  0
  -25.5180  -13.8930   20.3990 C   0  0  0  0  0  0  0  0  0  0  0  0
  -24.4960  -13.1180   20.8750 C   0  0  0  0  0  0  0  0  0  0  0  0
  -24.8910  -11.7620   20.6530 C   0  0  0  0  0  0  0  0  0  0  0  0
  -26.4730  -13.0110   19.9210 N   0  0  0  0  0  0  0  0  0  0  0  0
  -26.1120  -11.7190   20.1320 N   0  0  0  0  0  0  0  0  0  0  0  0
  -24.1550  -10.5080   20.8540 C   0  0  0  0  0  0  0  0  0  0  0  0
  -24.6190   -9.5120   21.7420 C   0  0  0  0  0  3  0  0  0  0  0  0
  -23.8830   -8.3230   21.9310 C   0  0  0  0  0  3  0  0  0  0  0  0
  -22.6670   -8.1210   21.2350 C   0  0  0  0  0  0  0  0  0  0  0  0
  -22.2200   -9.1060   20.3370 C   0  0  0  0  0  3  0  0  0  0  0  0
  -22.9570  -10.2870   20.1440 C   0  0  0  0  0  3  0  0  0  0  0  0
  -21.8980   -6.9870   21.3390 O   0  0  0  0  0  0  0  0  0  0  0  0
  -21.7700   -6.3110   22.5250 C   0  0  0  0  0  0  0  0  0  0  0  0
  -21.2710   -6.9360   23.6890 C   0  0  0  0  0  3  0  0  0  0  0  0
  -21.0890   -6.1850   24.8680 C   0  0  0  0  0  3  0  0  0  0  0  0
  -21.3950   -4.8120   24.8830 C   0  0  0  0  0  0  0  0  0  0  0  0
  -21.8860   -4.1860   23.7230 C   0  0  0  0  0  3  0  0  0  0  0  0
  -22.0690   -4.9330   22.5470 C   0  0  0  0  0  0  0  0  0  0  0  0
  -22.5220   -4.3220   21.4270 F   0  0  0  0  0  0  0  0  0  0  0  0
  -21.2130   -4.0890   26.0130 F   0  0  0  0  0  0  0  0  0  0  0  0
  -23.1830  -13.6050   21.4150 C   0  0  0  0  0  0  0  0  0  0  0  0
  -22.5910  -12.8660   22.3460 N   0  0  0  0  0  0  0  0  0  0  0  0
  -22.6970  -14.6740   21.0470 O   0  0  0  0  0  0  0  0  0  0  0  0
  -23.0000  -11.9990   22.6630 H   0  0  0  0  0  0  0  0  0  0  0  0
  -21.7170  -13.1710   22.7510 H   0  0  0  0  0  0  0  0  0  0  0  0
  -25.7060  -15.2690   20.3130 N   0  0  0  0  0  0  0  0  0  0  0  0
  -24.9990  -15.9320   20.6090 H   0  0  0  0  0  0  0  0  0  0  0  0
  -26.5160  -15.7130   19.8970 H   0  0  0  0  0  0  0  0  0  0  0  0
  -29.0090  -22.3020   19.6650 C   0  0  0  0  0  3  0  0  0  0  0  0
  -29.1910  -23.7780   20.2900 C   0  0  0  0  0  3  0  0  0  0  0  0
  -28.1760  -24.9330   19.8390 C   0  0  0  0  0  3  0  0  0  0  0  0
  -28.3140  -26.3470   20.3030 O   0  0  0  0  0  0  0  0  0  0  0  0
  -24.4790  -31.7290   23.2520 C   0  0  0  0  0  0  0  0  0  0  0  0
  -27.1980  -27.2050   20.2140 C   0  0  0  0  0  0  0  0  0  0  0  0
  -23.3170  -30.3110   21.6000 C   0  0  0  0  0  3  0  0  0  0  0  0
  -24.8090  -28.7940   20.1810 C   0  0  0  0  0  0  0  0  0  0  0  0
  -25.8550  -30.6700   21.4440 C   0  0  0  0  0  2  0  0  0  0  0  0
  -25.9630  -29.2940   20.7950 C   0  0  0  0  0  0  0  0  0  0  0  0
  -27.1590  -28.5100   20.8050 C   0  0  0  0  0  3  0  0  0  0  0  0
  -26.0210  -26.7790   19.5530 C   0  0  0  0  0  3  0  0  0  0  0  0
  -24.8410  -27.5430   19.5490 C   0  0  0  0  0  3  0  0  0  0  0  0
  -23.5560  -29.6450   20.2200 C   0  0  0  0  0  2  0  0  0  0  0  0
  -24.5680  -30.9210   22.1550 N   0  0  0  0  0  0  0  0  0  0  0  0
  -23.3850  -31.9860   23.7760 O   0  0  0  0  0  0  0  0  0  0  0  0
  -22.6650  -29.2800   22.5520 C   0  0  0  0  0  0  0  0  0  0  0  0
  -21.3570  -29.0280   22.3680 N   0  0  0  0  0  0  0  0  0  0  0  0
  -23.3360  -28.7080   23.4160 O   0  0  0  0  0  0  0  0  0  0  0  0
  -20.8730  -29.5430   21.6480 H   0  0  0  0  0  0  0  0  0  0  0  0
  -18.0310  -27.6530   22.7330 C   0  0  0  0  0  0  0  0  0  0  0  0
  -20.5540  -28.0650   23.1240 C   0  0  0  0  0  3  0  0  0  0  0  0
  -20.7660  -26.6270   22.5970 C   0  0  0  0  0  2  0  0  0  0  0  0
  -19.7380  -26.2150   21.5380 C   0  0  0  0  0  2  0  0  0  0  0  0
  -18.3180  -26.2980   22.1060 C   0  0  0  0  0  2  0  0  0  0  0  0
  -19.0820  -28.4890   23.1970 C   0  0  0  0  0  0  0  0  0  0  0  0
  -18.7620  -29.7520   23.7410 C   0  0  0  0  0  3  0  0  0  0  0  0
  -17.4240  -30.1810   23.8260 C   0  0  0  0  0  3  0  0  0  0  0  0
  -16.3870  -29.3440   23.3790 C   0  0  0  0  0  3  0  0  0  0  0  0
  -16.6910  -28.0810   22.8390 C   0  0  0  0  0  3  0  0  0  0  0  0
  -25.7430  -32.3860   23.8860 C   0  0  0  0  0  3  0  0  0  0  0  0
  -26.1970  -31.6910   25.2280 C   0  0  1  0  0  0  0  0  0  0  0  0
  -25.0530  -31.5170   26.2550 C   0  0  0  0  0  1  0  0  0  0  0  0
  -26.7930  -30.2910   24.9480 C   0  0  0  0  0  1  0  0  0  0  0  0
  -27.3170  -32.5210   25.8960 C   0  0  0  0  0  1  0  0  0  0  0  0
  -25.4380  -33.8050   24.1170 N   0  0  0  0  0  0  0  0  0  0  0  0
  -25.7820  -34.8020   23.2910 C   0  0  0  0  0  0  0  0  0  0  0  0
  -26.4590  -34.6250   22.2750 O   0  0  0  0  0  0  0  0  0  0  0  0
  -24.8390  -34.0160   24.9000 H   0  0  0  0  0  0  0  0  0  0  0  0
  -24.0620  -36.5740   22.8090 C   0  0  0  0  0  1  0  0  0  0  0  0
  -25.3000  -36.2210   23.6500 C   0  0  0  0  0  3  0  0  0  0  0  0
  -27.4300  -37.1610   24.4310 C   0  0  0  0  0  1  0  0  0  0  0  0
  -26.3370  -37.2600   23.4670 N   0  0  0  0  0  0  0  0  0  0  0  0
  -25.9330  -38.1900   23.5390 H   0  0  0  0  0  0  0  0  0  0  0  0
  2 17  1  0
  3  8  1  0
  4  5  1  0
  4  3  1  0
  6  5  1  0
  6 21  1  0
  6  7  1  0
  8  2  1  0
  8  7  1  0
  9  2  2  0
 10 14  1  0
 11 10  2  0
 11  1  1  0
 12 17  1  0
 12 10  1  0
 13 14  1  0
 14 15  1  1
 14 16  1  0
 17 13  1  0
 18 19  2  0
 19 38  1  0
 20 23  1  0
 20 19  1  0
 21 22  1  0
 21 18  1  0
 22 20  2  0
 23 24  1  0
 24 25  2  0
 26 29  1  0
 26 25  1  0
 27 26  2  0
 28 27  1  0
 28 23  2  0
 29 30  1  0
 30 35  2  0
 30 31  1  0
 31 32  2  0
 32 33  1  0
 33 37  1  0
 34 33  2  0
 35 34  1  0
 36 35  1  0
 38 39  1  0
 39 41  1  0
 39 42  1  0
 40 38  2  0
 43 18  1  0
 43 44  1  0
 45 43  1  0
 46  1  2  0
 46 47  1  0
 48 47  2  0
 48 49  1  0
 50 61  2  0
 51 49  1  0
 51 56  1  0
 52 60  1  0
 52 62  1  0
 53 59  1  0
 53 55  1  0
 54 60  1  0
 55 56  2  0
 55 54  1  0
 57 51  2  0
 58 57  1  0
 58 53  2  0
 59 52  1  0
 60 50  1  0
 62 64  2  0
 63 62  1  0
 65 63  1  0
 66 75  2  0
 66 71  1  0
 67 63  1  0
 67 71  1  0
 68 67  1  0
 69 70  1  0
 69 68  1  0
 70 66  1  0
 71 72  2  0
 72 73  1  0
 74 73  2  0
 75 74  1  0
 76 50  1  0
 76 81  1  0
 76 77  1  0
 77 80  1  1
 77 78  1  0
 79 77  1  0
 81 84  1  0
 82 86  1  0
 82 81  1  0
 83 82  2  0
 86 85  1  0
 88 89  1  0
 88 86  1  0
 88 87  1  0
M  ISO  4   2 100  17 100  48 101  49 101
M  END
>  <TORSDO>  (24) 
F 19

>  <SCORE>  (24) 
-10.012

>  <name>  (24) 
23

>  <ligand_id>  (24) 
23

>  <original_smiles>  (24) 
[H]C(=C1C([H])([H])N(C(=O)N2C([H])([H])C([H])([H])C([H])([H])C([H])(n3nc(-c4c([H])c([H])c(Oc5c([H])c([H])c(F)c([H])c5F)c([H])c4[H])c(C(=O)N([H])[H])c3N([H])[H])C2([H])[H])C([H])([H])C1(C([H])([H])[H])C([H])([H])[H])C([H])([H])C([H])([H])C([H])([H])C([H])([H])Oc1c([H])c([H])c2c(c1[H])C([H])([H])N(C(=O)C([H])(N([H])C(=O)C([H])(N([H])C([H])([H])[H])C([H])([H])[H])C(C([H])([H])[H])(C([H])([H])[H])C([H])([H])[H])C([H])(C(=O)N([H])C1([H])c3c([H])c([H])c([H])c([H])c3C([H])([H])C([H])([H])C1([H])[H])C2([H])[H]

>  <smiles>  (24) 
[H]C(=C1C([H])([H])N(C(=O)N2C([H])([H])C([H])([H])C([H])([H])C([H])(n3nc(-c4c([H])c([H])c(Oc5c([H])c([H])c(F)c([H])c5F)c([H])c4[H])c(C(=O)N([H])[H])c3N([H])[H])C2([H])[H])C([H])([H])C1(C([H])([H])[H])C([H])([H])[H])C([H])([H])C([H])([H])C([H])([H])C([H])([H])Oc1c([H])c([H])c2c(c1[H])C([H])([H])N(C(=O)C([H])(N([H])C(=O)C([H])(N([H])C([H])([H])[H])C([H])([H])[H])C(C([H])([H])[H])(C([H])([H])[H])C([H])([H])[H])C([H])(C(=O)N([H])C1([H])c3c([H])c([H])c([H])c([H])c3C([H])([H])C([H])([H])C1([H])[H])C2([H])[H]

$$$$
24:0:0
     RDKit          3D

100108  0  0  1  0  0  0  0  0999 V2000
  -30.3550  -20.3620   20.0060 C   0  0  0  0  0  0  0  0  0  0  0  0
  -31.5300  -20.5590   19.5780 N   0  0  0  0  0  0  0  0  0  0  0  0
  -32.1670  -19.8380   19.8990 H   0  0  0  0  0  0  0  0  0  0  0  0
  -31.1530  -18.0370   21.0580 C   0  0  0  0  0  2  0  0  0  0  0  0
  -30.4780  -17.1060   20.0260 C   0  0  0  0  0  3  0  0  0  0  0  0
  -29.1980  -17.9810   20.2330 C   0  0  0  0  0  3  0  0  0  0  0  0
  -30.0200  -19.1160   20.9180 C   0  0  2  0  0  0  0  0  0  0  0  0
  -31.1390  -14.6250   19.9210 C   0  0  0  0  0  0  0  0  0  0  0  0
  -30.8230  -12.4340   18.8130 C   0  0  0  0  0  2  0  0  0  0  0  0
  -29.8050  -12.6300   17.6680 C   0  0  0  0  0  2  0  0  0  0  0  0
  -28.3570  -12.4920   18.1800 C   0  0  0  0  0  2  0  0  0  0  0  0
  -28.0980  -13.3250   19.4630 C   0  0  0  0  0  3  0  0  0  0  0  0
  -29.2180  -13.0920   20.5030 C   0  0  0  0  0  2  0  0  0  0  0  0
  -30.5030  -13.4180   19.8630 N   0  0  0  0  0  0  0  0  0  0  0  0
  -32.2410  -14.8180   19.4010 O   0  0  0  0  0  0  0  0  0  0  0  0
  -30.3760  -15.6510   20.3890 N   0  0  0  0  0  0  0  0  0  0  0  0
  -29.4930  -15.3190   20.7420 H   0  0  0  0  0  0  0  0  0  0  0  0
  -25.7740  -13.9640   20.3700 C   0  0  0  0  0  0  0  0  0  0  0  0
  -24.7150  -13.2030   20.7840 C   0  0  0  0  0  0  0  0  0  0  0  0
  -25.1310  -11.8420   20.6580 C   0  0  0  0  0  0  0  0  0  0  0  0
  -26.7720  -13.0650   20.0180 N   0  0  0  0  0  0  0  0  0  0  0  0
  -26.3940  -11.7840   20.2540 N   0  0  0  0  0  0  0  0  0  0  0  0
  -24.3830  -10.5920   20.8430 C   0  0  0  0  0  0  0  0  0  0  0  0
  -24.7360   -9.6660   21.8490 C   0  0  0  0  0  3  0  0  0  0  0  0
  -23.9950   -8.4770   22.0210 C   0  0  0  0  0  3  0  0  0  0  0  0
  -22.8840   -8.2060   21.1870 C   0  0  0  0  0  0  0  0  0  0  0  0
  -22.5510   -9.1200   20.1710 C   0  0  0  0  0  3  0  0  0  0  0  0
  -23.2910  -10.3010   19.9980 C   0  0  0  0  0  3  0  0  0  0  0  0
  -22.1200   -7.0660   21.2660 O   0  0  0  0  0  0  0  0  0  0  0  0
  -21.8280   -6.4780   22.4700 C   0  0  0  0  0  0  0  0  0  0  0  0
  -21.1220   -7.1620   23.4830 C   0  0  0  0  0  3  0  0  0  0  0  0
  -20.7810   -6.4960   24.6770 C   0  0  0  0  0  3  0  0  0  0  0  0
  -21.1360   -5.1450   24.8570 C   0  0  0  0  0  0  0  0  0  0  0  0
  -21.8340   -4.4600   23.8480 C   0  0  0  0  0  3  0  0  0  0  0  0
  -22.1760   -5.1240   22.6570 C   0  0  0  0  0  0  0  0  0  0  0  0
  -22.8290   -4.4530   21.6780 F   0  0  0  0  0  0  0  0  0  0  0  0
  -20.8020   -4.5030   26.0010 F   0  0  0  0  0  0  0  0  0  0  0  0
  -23.3500  -13.7010   21.1700 C   0  0  0  0  0  0  0  0  0  0  0  0
  -22.6670  -12.9920   22.0630 N   0  0  0  0  0  0  0  0  0  0  0  0
  -22.9040  -14.7530   20.7150 O   0  0  0  0  0  0  0  0  0  0  0  0
  -23.0410  -12.1400   22.4520 H   0  0  0  0  0  0  0  0  0  0  0  0
  -21.7510  -13.3030   22.3590 H   0  0  0  0  0  0  0  0  0  0  0  0
  -25.9790  -15.3390   20.2380 N   0  0  0  0  0  0  0  0  0  0  0  0
  -25.1480  -15.9210   20.2810 H   0  0  0  0  0  0  0  0  0  0  0  0
  -26.6080  -15.6420   19.5060 H   0  0  0  0  0  0  0  0  0  0  0  0
  -28.2120  -17.4250   21.1840 N   0  0  0  0  0  4  0  0  0  0  0  0
  -28.6520  -16.8570   21.8820 H   0  0  0  0  0  0  0  0  0  0  0  0
  -27.4710  -16.9230   20.7270 H   0  0  0  0  0  0  0  0  0  0  0  0
  -27.8300  -18.2170   21.6780 H   0  0  0  0  0  0  0  0  0  0  0  0
  -29.5030  -19.6620   22.1740 N   0  0  0  0  0  0  0  0  0  0  0  0
  -30.0930  -20.4540   22.4090 H   0  0  0  0  0  0  0  0  0  0  0  0
  -29.7180  -19.0250   22.9330 H   0  0  0  0  0  0  0  0  0  0  0  0
  -29.2300  -21.3970   19.6860 C   0  0  0  0  0  2  0  0  0  0  0  0
  -29.2080  -22.7280   20.5090 C   0  0  0  0  0  0  0  0  0  0  0  0
  -29.2000  -22.6950   21.7770 N   0  0  0  0  0  0  0  0  0  0  0  0
  -29.1960  -21.7400   22.1240 H   0  0  0  0  0  0  0  0  0  0  0  0
  -30.5700  -24.4910   19.2800 C   0  0  0  0  0  1  0  0  0  0  0  0
  -29.1590  -24.1040   19.7530 C   0  0  0  0  0  3  0  0  0  0  0  0
  -28.5300  -25.2980   20.5790 C   0  0  0  0  0  2  0  0  0  0  0  0
  -28.6230  -26.6460   20.0200 O   0  0  0  0  0  0  0  0  0  0  0  0
  -24.6340  -31.7270   23.1500 C   0  0  0  0  0  0  0  0  0  0  0  0
  -27.4630  -27.4060   20.0250 C   0  0  0  0  0  0  0  0  0  0  0  0
  -23.5170  -30.3660   21.4150 C   0  0  0  0  0  3  0  0  0  0  0  0
  -25.0510  -28.9020   19.9910 C   0  0  0  0  0  0  0  0  0  0  0  0
  -26.0460  -30.7670   21.3260 C   0  0  0  0  0  2  0  0  0  0  0  0
  -26.1820  -29.4180   20.6390 C   0  0  0  0  0  0  0  0  0  0  0  0
  -27.3950  -28.6830   20.6440 C   0  0  0  0  0  3  0  0  0  0  0  0
  -26.3180  -26.9160   19.3650 C   0  0  0  0  0  3  0  0  0  0  0  0
  -25.1180  -27.6540   19.3460 C   0  0  0  0  0  3  0  0  0  0  0  0
  -23.7890  -29.7410   20.0220 C   0  0  0  0  0  2  0  0  0  0  0  0
  -24.7490  -30.9680   22.0230 N   0  0  0  0  0  0  0  0  0  0  0  0
  -23.5280  -31.9600   23.6580 O   0  0  0  0  0  0  0  0  0  0  0  0
  -22.8460  -29.3000   22.3130 C   0  0  0  0  0  0  0  0  0  0  0  0
  -21.5170  -29.1530   22.1850 N   0  0  0  0  0  0  0  0  0  0  0  0
  -23.5210  -28.6100   23.0830 O   0  0  0  0  0  0  0  0  0  0  0  0
  -21.0330  -29.7610   21.5400 H   0  0  0  0  0  0  0  0  0  0  0  0
  -18.1120  -28.0690   22.7210 C   0  0  0  0  0  0  0  0  0  0  0  0
  -20.6870  -28.1830   22.9000 C   0  0  0  0  0  3  0  0  0  0  0  0
  -20.6950  -26.8110   22.1880 C   0  0  0  0  0  2  0  0  0  0  0  0
  -19.5370  -26.6390   21.1980 C   0  0  0  0  0  2  0  0  0  0  0  0
  -18.1920  -26.7850   21.9150 C   0  0  0  0  0  2  0  0  0  0  0  0
  -19.2830  -28.7340   23.1720 C   0  0  0  0  0  0  0  0  0  0  0  0
  -19.1500  -29.9430   23.8880 C   0  0  0  0  0  3  0  0  0  0  0  0
  -17.8800  -30.4860   24.1560 C   0  0  0  0  0  3  0  0  0  0  0  0
  -16.7230  -29.8160   23.7220 C   0  0  0  0  0  3  0  0  0  0  0  0
  -16.8400  -28.6080   23.0100 C   0  0  0  0  0  3  0  0  0  0  0  0
  -25.8820  -32.3570   23.8400 C   0  0  0  0  0  3  0  0  0  0  0  0
  -26.3680  -31.5500   25.1060 C   0  0  1  0  0  0  0  0  0  0  0  0
  -25.2400  -31.2430   26.1190 C   0  0  0  0  0  1  0  0  0  0  0  0
  -27.0020  -30.2030   24.6840 C   0  0  0  0  0  1  0  0  0  0  0  0
  -27.4700  -32.3450   25.8430 C   0  0  0  0  0  1  0  0  0  0  0  0
  -25.5350  -33.7380   24.2070 N   0  0  0  0  0  0  0  0  0  0  0  0
  -25.8700  -34.8210   23.4940 C   0  0  0  0  0  0  0  0  0  0  0  0
  -26.5710  -34.7650   22.4800 O   0  0  0  0  0  0  0  0  0  0  0  0
  -24.9130  -33.8540   24.9940 H   0  0  0  0  0  0  0  0  0  0  0  0
  -24.1240  -36.5960   23.1400 C   0  0  0  0  0  1  0  0  0  0  0  0
  -25.3410  -36.1840   23.9820 C   0  0  0  0  0  3  0  0  0  0  0  0
  -27.4180  -37.0830   24.9320 C   0  0  0  0  0  1  0  0  0  0  0  0
  -26.3580  -37.2560   23.9440 N   0  0  0  0  0  0  0  0  0  0  0  0
  -25.9290  -38.1660   24.0910 H   0  0  0  0  0  0  0  0  0  0  0  0
  2  3  1  0
  2  1  2  0
  5  6  1  0
  5 16  1  0
  5  4  1  0
  6  7  1  0
  6 46  1  0
  7  1  1  0
  7  4  1  0
  7 50  1  1
  8 16  1  0
  9 14  1  0
 10 11  1  0
 10  9  1  0
 12 11  1  0
 12 21  1  0
 12 13  1  0
 14  8  1  0
 14 13  1  0
 15  8  2  0
 16 17  1  0
 18 19  2  0
 19 38  1  0
 20 19  1  0
 20 23  1  0
 21 22  1  0
 21 18  1  0
 22 20  2  0
 23 24  1  0
 24 25  2  0
 26 29  1  0
 26 25  1  0
 27 26  2  0
 28 27  1  0
 28 23  2  0
 29 30  1  0
 30 35  2  0
 30 31  1  0
 31 32  2  0
 32 33  1  0
 33 37  1  0
 34 33  2  0
 35 34  1  0
 36 35  1  0
 38 39  1  0
 39 42  1  0
 39 41  1  0
 40 38  2  0
 43 44  1  0
 43 18  1  0
 45 43  1  0
 46 49  1  0
 46 47  1  0
 48 46  1  0
 50 51  1  0
 50 52  1  0
 53  1  1  0
 53 54  1  0
 54 55  2  0
 55 56  1  0
 58 57  1  0
 58 54  1  0
 58 59  1  0
 60 62  1  0
 60 59  1  0
 61 72  2  0
 62 67  1  0
 63 71  1  0
 63 73  1  0
 64 70  1  0
 64 66  1  0
 65 71  1  0
 66 67  2  0
 66 65  1  0
 68 62  2  0
 69 68  1  0
 69 64  2  0
 70 63  1  0
 71 61  1  0
 73 75  2  0
 74 73  1  0
 76 74  1  0
 77 86  2  0
 77 82  1  0
 78 74  1  0
 78 82  1  0
 79 78  1  0
 80 81  1  0
 80 79  1  0
 81 77  1  0
 82 83  2  0
 83 84  1  0
 85 84  2  0
 86 85  1  0
 87 61  1  0
 87 92  1  0
 87 88  1  0
 88 91  1  1
 88 89  1  0
 90 88  1  0
 92 95  1  0
 93 97  1  0
 93 92  1  0
 94 93  2  0
 97 96  1  0
 99 97  1  0
 99100  1  0
 99 98  1  0
M  ISO  4   8 100  16 100  59 101  60 101
M  END
>  <TORSDO>  (25) 
F 23

>  <SCORE>  (25) 
-11.569

>  <name>  (25) 
24

>  <ligand_id>  (25) 
24

>  <original_smiles>  (25) 
[H]N=C(C([H])([H])C(=N[H])C1(N([H])[H])C([H])([H])C([H])(N([H])C(=O)N2C([H])([H])C([H])([H])C([H])([H])C([H])(n3nc(-c4c([H])c([H])c(Oc5c([H])c([H])c(F)c([H])c5F)c([H])c4[H])c(C(=O)N([H])[H])c3N([H])[H])C2([H])[H])C1([H])[N+]([H])([H])[H])C([H])(C([H])([H])[H])C([H])([H])Oc1c([H])c([H])c2c(c1[H])C([H])([H])N(C(=O)C([H])(N([H])C(=O)C([H])(N([H])C([H])([H])[H])C([H])([H])[H])C(C([H])([H])[H])(C([H])([H])[H])C([H])([H])[H])C([H])(C(=O)N([H])C1([H])c3c([H])c([H])c([H])c([H])c3C([H])([H])C([H])([H])C1([H])[H])C2([H])[H]

>  <smiles>  (25) 
[H]N=C(C([H])([H])C(=N[H])C1(N([H])[H])C([H])([H])C([H])(N([H])C(=O)N2C([H])([H])C([H])([H])C([H])([H])C([H])(n3nc(-c4c([H])c([H])c(Oc5c([H])c([H])c(F)c([H])c5F)c([H])c4[H])c(C(=O)N([H])[H])c3N([H])[H])C2([H])[H])C1([H])[N+]([H])([H])[H])C([H])(C([H])([H])[H])C([H])([H])Oc1c([H])c([H])c2c(c1[H])C([H])([H])N(C(=O)C([H])(N([H])C(=O)C([H])(N([H])C([H])([H])[H])C([H])([H])[H])C(C([H])([H])[H])(C([H])([H])[H])C([H])([H])[H])C([H])(C(=O)N([H])C1([H])c3c([H])c([H])c([H])c([H])c3C([H])([H])C([H])([H])C1([H])[H])C2([H])[H]

$$$$
25:0:0
     RDKit          3D

 94102  0  0  1  0  0  0  0  0999 V2000
  -27.8200  -22.8590   20.8250 C   0  0  0  0  0  3  0  0  0  0  0  0
  -31.3030  -21.2010   20.7160 C   0  0  0  0  0  3  0  0  0  0  0  0
  -30.9670  -19.8350   20.7350 C   0  0  0  0  0  3  0  0  0  0  0  0
  -30.2950  -22.1850   20.7300 C   0  0  0  0  0  3  0  0  0  0  0  0
  -28.6090  -20.4240   20.7510 C   0  0  0  0  0  3  0  0  0  0  0  0
  -29.6140  -19.4240   20.7530 C   0  0  0  0  0  0  0  0  0  0  0  0
  -28.9370  -21.8070   20.7490 C   0  0  0  0  0  0  0  0  0  0  0  0
  -29.2160  -17.9370   20.7830 C   0  0  0  0  0  2  0  0  0  0  0  0
  -30.3880  -16.9190   20.8460 C   0  0  0  0  0  2  0  0  0  0  0  0
  -30.6840  -14.4740   20.4490 C   0  0  0  0  0  0  0  0  0  0  0  0
  -30.4080  -12.2920   19.3430 C   0  0  0  0  0  2  0  0  0  0  0  0
  -29.4840  -12.4810   18.1210 C   0  0  0  0  0  2  0  0  0  0  0  0
  -28.0030  -12.3560   18.5340 C   0  0  0  0  0  2  0  0  0  0  0  0
  -27.6500  -13.2190   19.7770 C   0  0  0  0  0  3  0  0  0  0  0  0
  -28.6870  -13.0080   20.9030 C   0  0  0  0  0  2  0  0  0  0  0  0
  -30.0190  -13.2930   20.3470 N   0  0  0  0  0  0  0  0  0  0  0  0
  -31.8230  -14.6430   20.0040 O   0  0  0  0  0  0  0  0  0  0  0  0
  -29.9570  -15.5120   20.9020 N   0  0  0  0  0  0  0  0  0  0  0  0
  -29.0280  -15.3120   21.2390 H   0  0  0  0  0  0  0  0  0  0  0  0
  -25.2470  -13.8480   20.4500 C   0  0  0  0  0  0  0  0  0  0  0  0
  -24.1710  -13.0840   20.8160 C   0  0  0  0  0  0  0  0  0  0  0  0
  -24.6260  -11.7310   20.8070 C   0  0  0  0  0  0  0  0  0  0  0  0
  -26.2900  -12.9580   20.2410 N   0  0  0  0  0  0  0  0  0  0  0  0
  -25.9190  -11.6810   20.5140 N   0  0  0  0  0  0  0  0  0  0  0  0
  -23.8930  -10.4730   21.0020 C   0  0  0  0  0  0  0  0  0  0  0  0
  -24.3070   -9.5140   21.9530 C   0  0  0  0  0  3  0  0  0  0  0  0
  -23.5740   -8.3220   22.1320 C   0  0  0  0  0  3  0  0  0  0  0  0
  -22.4120   -8.0810   21.3610 C   0  0  0  0  0  0  0  0  0  0  0  0
  -22.0180   -9.0280   20.3990 C   0  0  0  0  0  3  0  0  0  0  0  0
  -22.7520  -10.2120   20.2170 C   0  0  0  0  0  3  0  0  0  0  0  0
  -21.6490   -6.9410   21.4530 O   0  0  0  0  0  0  0  0  0  0  0  0
  -21.5760   -6.2150   22.6150 C   0  0  0  0  0  0  0  0  0  0  0  0
  -21.1360   -6.7900   23.8260 C   0  0  0  0  0  3  0  0  0  0  0  0
  -21.0080   -5.9890   24.9800 C   0  0  0  0  0  3  0  0  0  0  0  0
  -21.3110   -4.6160   24.9210 C   0  0  0  0  0  0  0  0  0  0  0  0
  -21.7440   -4.0410   23.7140 C   0  0  0  0  0  3  0  0  0  0  0  0
  -21.8730   -4.8380   22.5630 C   0  0  0  0  0  0  0  0  0  0  0  0
  -22.2700   -4.2750   21.3960 F   0  0  0  0  0  0  0  0  0  0  0  0
  -21.1820   -3.8450   26.0260 F   0  0  0  0  0  0  0  0  0  0  0  0
  -22.7740  -13.5710   21.0670 C   0  0  0  0  0  0  0  0  0  0  0  0
  -22.0320  -12.8870   21.9320 N   0  0  0  0  0  0  0  0  0  0  0  0
  -22.3480  -14.5930   20.5320 O   0  0  0  0  0  0  0  0  0  0  0  0
  -22.3870  -12.0610   22.3890 H   0  0  0  0  0  0  0  0  0  0  0  0
  -21.0940  -13.1980   22.1420 H   0  0  0  0  0  0  0  0  0  0  0  0
  -25.4200  -15.2150   20.2560 N   0  0  0  0  0  0  0  0  0  0  0  0
  -24.6500  -15.8710   20.3350 H   0  0  0  0  0  0  0  0  0  0  0  0
  -26.2700  -15.6420   19.9100 H   0  0  0  0  0  0  0  0  0  0  0  0
  -27.4230  -23.0360   22.2340 N   0  0  0  0  0  4  0  0  0  0  0  0
  -28.1820  -23.4060   22.7760 H   0  0  0  0  0  0  0  0  0  0  0  0
  -27.1830  -22.1420   22.6260 H   0  0  0  0  0  0  0  0  0  0  0  0
  -26.6170  -23.6290   22.3210 H   0  0  0  0  0  0  0  0  0  0  0  0
  -28.0620  -24.2020   20.0400 C   0  0  0  0  0  3  0  0  0  0  0  0
  -28.3690  -25.4980   20.8510 C   0  0  0  0  0  3  0  0  0  0  0  0
  -28.3890  -26.7160   20.0770 O   0  0  0  0  0  0  0  0  0  0  0  0
  -24.5910  -31.8860   23.2140 C   0  0  0  0  0  0  0  0  0  0  0  0
  -27.2250  -27.4560   20.1010 C   0  0  0  0  0  0  0  0  0  0  0  0
  -23.3800  -30.4890   21.5710 C   0  0  0  0  0  3  0  0  0  0  0  0
  -24.8290  -28.9580   20.1370 C   0  0  0  0  0  0  0  0  0  0  0  0
  -25.9050  -30.8500   21.3640 C   0  0  0  0  0  2  0  0  0  0  0  0
  -25.9910  -29.4810   20.7220 C   0  0  0  0  0  0  0  0  0  0  0  0
  -27.1940  -28.7380   20.7010 C   0  0  0  0  0  3  0  0  0  0  0  0
  -26.0500  -26.9560   19.5030 C   0  0  0  0  0  3  0  0  0  0  0  0
  -24.8530  -27.6940   19.5270 C   0  0  0  0  0  3  0  0  0  0  0  0
  -23.5850  -29.8150   20.1880 C   0  0  0  0  0  2  0  0  0  0  0  0
  -24.6430  -31.0920   22.1060 N   0  0  0  0  0  0  0  0  0  0  0  0
  -23.5110  -32.1540   23.7590 O   0  0  0  0  0  0  0  0  0  0  0  0
  -22.7380  -29.4610   22.5300 C   0  0  0  0  0  0  0  0  0  0  0  0
  -21.4140  -29.2790   22.4110 N   0  0  0  0  0  0  0  0  0  0  0  0
  -23.4300  -28.8290   23.3330 O   0  0  0  0  0  0  0  0  0  0  0  0
  -20.9170  -29.8410   21.7340 H   0  0  0  0  0  0  0  0  0  0  0  0
  -18.0430  -28.0850   22.9310 C   0  0  0  0  0  0  0  0  0  0  0  0
  -20.6030  -28.3360   23.1830 C   0  0  0  0  0  3  0  0  0  0  0  0
  -20.6980  -26.9080   22.5960 C   0  0  0  0  0  2  0  0  0  0  0  0
  -19.5860  -26.5950   21.5890 C   0  0  0  0  0  2  0  0  0  0  0  0
  -18.2110  -26.7390   22.2460 C   0  0  0  0  0  2  0  0  0  0  0  0
  -19.1670  -28.8420   23.3570 C   0  0  0  0  0  0  0  0  0  0  0  0
  -18.9550  -30.1040   23.9560 C   0  0  0  0  0  3  0  0  0  0  0  0
  -17.6520  -30.6050   24.1350 C   0  0  0  0  0  3  0  0  0  0  0  0
  -16.5430  -29.8460   23.7240 C   0  0  0  0  0  3  0  0  0  0  0  0
  -16.7400  -28.5870   23.1280 C   0  0  0  0  0  3  0  0  0  0  0  0
  -25.8790  -32.5170   23.8290 C   0  0  0  0  0  3  0  0  0  0  0  0
  -25.5670  -33.9110   24.1720 N   0  0  0  0  0  0  0  0  0  0  0  0
  -25.8900  -34.9700   23.4190 C   0  0  0  0  0  0  0  0  0  0  0  0
  -26.5530  -34.8770   22.3820 O   0  0  0  0  0  0  0  0  0  0  0  0
  -24.9780  -34.0550   24.9790 H   0  0  0  0  0  0  0  0  0  0  0  0
  -24.1520  -36.7560   23.0830 C   0  0  0  0  0  1  0  0  0  0  0  0
  -25.3970  -36.3520   23.8890 C   0  0  0  0  0  3  0  0  0  0  0  0
  -27.5320  -37.2370   24.7190 C   0  0  0  0  0  1  0  0  0  0  0  0
  -26.4260  -37.4100   23.7810 N   0  0  0  0  0  0  0  0  0  0  0  0
  -26.0160  -38.3280   23.9370 H   0  0  0  0  0  0  0  0  0  0  0  0
  -26.4120  -31.7370   25.0930 C   0  0  1  0  0  0  0  0  0  0  0  0
  -25.3320  -31.4830   26.1700 C   0  0  0  0  0  1  0  0  0  0  0  0
  -26.9960  -30.3660   24.6780 C   0  0  0  0  0  1  0  0  0  0  0  0
  -27.5640  -32.5300   25.7510 C   0  0  0  0  0  1  0  0  0  0  0  0
  1 52  1  0
  1 48  1  0
  2  4  2  0
  2  3  1  0
  3  6  2  0
  4  7  1  0
  5  6  1  0
  6  8  1  0
  7  5  2  0
  7  1  1  0
  8  9  1  0
  9 18  1  0
 10 18  1  0
 11 16  1  0
 12 13  1  0
 12 11  1  0
 14 13  1  0
 14 23  1  0
 14 15  1  0
 16 10  1  0
 16 15  1  0
 17 10  2  0
 18 19  1  0
 20 21  2  0
 21 40  1  0
 22 21  1  0
 22 25  1  0
 23 20  1  0
 23 24  1  0
 24 22  2  0
 25 26  1  0
 26 27  2  0
 28 31  1  0
 28 27  1  0
 29 28  2  0
 30 29  1  0
 30 25  2  0
 31 32  1  0
 32 33  1  0
 33 34  2  0
 35 34  1  0
 35 39  1  0
 36 35  2  0
 37 32  2  0
 37 36  1  0
 38 37  1  0
 40 41  1  0
 41 44  1  0
 41 43  1  0
 42 40  2  0
 45 46  1  0
 45 20  1  0
 47 45  1  0
 48 51  1  0
 48 50  1  0
 48 49  1  0
 52 53  2  0
 54 56  1  0
 54 53  1  0
 55 66  2  0
 56 61  1  0
 57 65  1  0
 57 67  1  0
 58 64  1  0
 58 60  1  0
 59 65  1  0
 60 59  1  0
 61 60  2  0
 62 63  1  0
 62 56  2  0
 63 58  2  0
 64 57  1  0
 65 55  1  0
 67 69  2  0
 68 67  1  0
 70 68  1  0
 71 80  2  0
 71 76  1  0
 72 68  1  0
 72 76  1  0
 73 72  1  0
 74 75  1  0
 74 73  1  0
 75 71  1  0
 76 77  2  0
 77 78  1  0
 79 78  2  0
 80 79  1  0
 81 55  1  0
 81 82  1  0
 81 91  1  0
 82 85  1  0
 83 87  1  0
 83 82  1  0
 84 83  2  0
 87 86  1  0
 89 87  1  0
 89 90  1  0
 89 88  1  0
 91 94  1  1
 91 92  1  0
 93 91  1  0
M  ISO  4  10 100  18 100  53 101  54 101
M  END
>  <TORSDO>  (26) 
F 22

>  <SCORE>  (26) 
-13.370

>  <name>  (26) 
25

>  <ligand_id>  (26) 
25

>  <original_smiles>  (26) 
[H]c1c([H])c([H])c2c(c1[H])C([H])([H])C([H])([H])C([H])([H])C2([H])N([H])C(=O)C1([H])N(C(=O)C([H])(N([H])C(=O)C([H])(N([H])C([H])([H])[H])C([H])([H])[H])C(C([H])([H])[H])(C([H])([H])[H])C([H])([H])[H])C([H])([H])c2c([H])c(OC([H])([H])C([H])([H])C([H])(c3c([H])c([H])c([H])c(C([H])([H])C([H])([H])N([H])C(=O)N4C([H])([H])C([H])([H])C([H])([H])C([H])(n5nc(-c6c([H])c([H])c(Oc7c([H])c([H])c(F)c([H])c7F)c([H])c6[H])c(C(=O)N([H])[H])c5N([H])[H])C4([H])[H])c3[H])[N+]([H])([H])[H])c([H])c([H])c2C1([H])[H]

>  <smiles>  (26) 
[H]c1c([H])c([H])c2c(c1[H])C([H])([H])C([H])([H])C([H])([H])C2([H])N([H])C(=O)C1([H])N(C(=O)C([H])(N([H])C(=O)C([H])(N([H])C([H])([H])[H])C([H])([H])[H])C(C([H])([H])[H])(C([H])([H])[H])C([H])([H])[H])C([H])([H])c2c([H])c(OC([H])([H])C([H])([H])C([H])(c3c([H])c([H])c([H])c(C([H])([H])C([H])([H])N([H])C(=O)N4C([H])([H])C([H])([H])C([H])([H])C([H])(n5nc(-c6c([H])c([H])c(Oc7c([H])c([H])c(F)c([H])c7F)c([H])c6[H])c(C(=O)N([H])[H])c5N([H])[H])C4([H])[H])c3[H])[N+]([H])([H])[H])c([H])c([H])c2C1([H])[H]

$$$$
26:0:0
     RDKit          3D

 98106  0  0  1  0  0  0  0  0999 V2000
  -28.5020  -18.1440   19.6820 C   0  0  0  0  0  2  0  0  0  0  0  0
  -28.4430  -19.6950   19.3780 C   0  0  0  0  0  2  0  0  0  0  0  0
  -29.8340  -19.1980   21.1940 C   0  0  0  0  0  2  0  0  0  0  0  0
  -29.8830  -17.7850   20.3130 C   0  0  1  0  0  0  0  0  0  0  0  0
  -29.3000  -20.4180   20.3570 N   0  0  2  0  0  4  0  0  0  0  0  0
  -30.1090  -20.7310   19.8380 H   0  0  0  0  0  0  0  0  0  0  0  0
  -30.7690  -15.1380   20.7430 C   0  0  0  0  0  0  0  0  0  0  0  0
  -30.7580  -12.7850   19.7830 C   0  0  0  0  0  2  0  0  0  0  0  0
  -29.9200  -12.7330   18.4810 C   0  0  0  0  0  2  0  0  0  0  0  0
  -28.4260  -12.5310   18.7980 C   0  0  0  0  0  2  0  0  0  0  0  0
  -27.9330  -13.4460   19.9480 C   0  0  0  0  0  3  0  0  0  0  0  0
  -28.8940  -13.4370   21.1560 C   0  0  0  0  0  2  0  0  0  0  0  0
  -30.2100  -13.8630   20.6640 N   0  0  0  0  0  0  0  0  0  0  0  0
  -31.9700  -15.2380   20.4700 O   0  0  0  0  0  0  0  0  0  0  0  0
  -29.9320  -16.2880   20.8910 N   0  0  0  0  0  0  0  0  0  0  0  0
  -29.0330  -16.0120   21.2560 H   0  0  0  0  0  0  0  0  0  0  0  0
  -25.4960  -14.0140   20.4840 C   0  0  0  0  0  0  0  0  0  0  0  0
  -24.4120  -13.2350   20.7780 C   0  0  0  0  0  0  0  0  0  0  0  0
  -24.8870  -11.8890   20.8010 C   0  0  0  0  0  0  0  0  0  0  0  0
  -26.5600  -13.1430   20.3370 N   0  0  0  0  0  0  0  0  0  0  0  0
  -26.1970  -11.8610   20.5940 N   0  0  0  0  0  0  0  0  0  0  0  0
  -24.1570  -10.6230   20.9450 C   0  0  0  0  0  0  0  0  0  0  0  0
  -24.5300   -9.6600   21.9100 C   0  0  0  0  0  3  0  0  0  0  0  0
  -23.8000   -8.4610   22.0430 C   0  0  0  0  0  3  0  0  0  0  0  0
  -22.6830   -8.2120   21.2100 C   0  0  0  0  0  0  0  0  0  0  0  0
  -22.3320   -9.1620   20.2350 C   0  0  0  0  0  3  0  0  0  0  0  0
  -23.0620  -10.3540   20.1000 C   0  0  0  0  0  3  0  0  0  0  0  0
  -21.9290   -7.0660   21.2510 O   0  0  0  0  0  0  0  0  0  0  0  0
  -21.8060   -6.3240   22.3980 C   0  0  0  0  0  0  0  0  0  0  0  0
  -21.3090   -6.8810   23.5960 C   0  0  0  0  0  3  0  0  0  0  0  0
  -21.1360   -6.0670   24.7320 C   0  0  0  0  0  3  0  0  0  0  0  0
  -21.4500   -4.6960   24.6720 C   0  0  0  0  0  0  0  0  0  0  0  0
  -21.9420   -4.1390   23.4790 C   0  0  0  0  0  3  0  0  0  0  0  0
  -22.1170   -4.9500   22.3440 C   0  0  0  0  0  0  0  0  0  0  0  0
  -22.5710   -4.4040   21.1890 F   0  0  0  0  0  0  0  0  0  0  0  0
  -21.2780   -3.9110   25.7600 F   0  0  0  0  0  0  0  0  0  0  0  0
  -22.9940  -13.7040   20.9330 C   0  0  0  0  0  0  0  0  0  0  0  0
  -22.2160  -13.0350   21.7750 N   0  0  0  0  0  0  0  0  0  0  0  0
  -22.5840  -14.7000   20.3380 O   0  0  0  0  0  0  0  0  0  0  0  0
  -22.5600  -12.2290   22.2770 H   0  0  0  0  0  0  0  0  0  0  0  0
  -21.2610  -13.3350   21.9230 H   0  0  0  0  0  0  0  0  0  0  0  0
  -25.6640  -15.3830   20.2960 N   0  0  0  0  0  0  0  0  0  0  0  0
  -24.8780  -16.0240   20.3190 H   0  0  0  0  0  0  0  0  0  0  0  0
  -26.5140  -15.8140   19.9610 H   0  0  0  0  0  0  0  0  0  0  0  0
  -30.9630  -17.8670   19.2040 C   0  0  0  0  0  0  0  0  0  0  0  0
  -32.0480  -18.4150   19.4150 O   0  0  0  0  0  0  0  0  0  0  0  0
  -30.6330  -17.2490   17.8310 C   0  0  0  0  0  2  0  0  0  0  0  0
  -31.6720  -17.5180   16.7230 C   0  0  0  0  0  2  0  0  0  0  0  0
  -31.0770  -17.4600   15.3700 N   0  0  0  0  0  4  0  0  0  0  0  0
  -30.6250  -16.5800   15.1980 H   0  0  0  0  0  0  0  0  0  0  0  0
  -31.7990  -17.5750   14.6810 H   0  0  0  0  0  0  0  0  0  0  0  0
  -30.4110  -18.1980   15.2310 H   0  0  0  0  0  0  0  0  0  0  0  0
  -28.6770  -21.7580   20.9750 C   0  0  0  0  0  3  0  0  0  0  0  0
  -28.6810  -23.3080   20.2500 C   0  0  0  0  0  3  0  0  0  0  0  0
  -26.5300  -24.3790   21.1710 C   0  0  0  0  0  1  0  0  0  0  0  0
  -28.6880  -24.9500   22.2630 C   0  0  0  0  0  1  0  0  0  0  0  0
  -28.0070  -24.7350   20.9020 C   0  0  1  0  0  0  0  0  0  0  0  0
  -28.1240  -26.2050   20.3280 O   0  0  0  0  0  0  0  0  0  0  0  0
  -24.6050  -32.0260   23.3190 C   0  0  0  0  0  0  0  0  0  0  0  0
  -27.0810  -27.2160   20.3390 C   0  0  0  0  0  0  0  0  0  0  0  0
  -23.3670  -30.6060   21.7330 C   0  0  0  0  0  3  0  0  0  0  0  0
  -24.7760  -28.9970   20.3080 C   0  0  0  0  0  0  0  0  0  0  0  0
  -25.9180  -30.8460   21.5160 C   0  0  0  0  0  2  0  0  0  0  0  0
  -25.9710  -29.4360   20.8950 C   0  0  0  0  0  0  0  0  0  0  0  0
  -27.1260  -28.5610   20.8970 C   0  0  0  0  0  3  0  0  0  0  0  0
  -25.8780  -26.9070   19.6720 C   0  0  0  0  0  3  0  0  0  0  0  0
  -24.7440  -27.7450   19.6750 C   0  0  0  0  0  3  0  0  0  0  0  0
  -23.5590  -29.9100   20.3610 C   0  0  0  0  0  2  0  0  0  0  0  0
  -24.6510  -31.1820   22.2420 N   0  0  0  0  0  0  0  0  0  0  0  0
  -23.5320  -32.3280   23.8630 O   0  0  0  0  0  0  0  0  0  0  0  0
  -22.7030  -29.6200   22.7260 C   0  0  0  0  0  0  0  0  0  0  0  0
  -21.3940  -29.3590   22.5530 N   0  0  0  0  0  0  0  0  0  0  0  0
  -23.3690  -29.0910   23.6190 O   0  0  0  0  0  0  0  0  0  0  0  0
  -20.9100  -29.8410   21.8080 H   0  0  0  0  0  0  0  0  0  0  0  0
  -18.0950  -27.9050   22.9200 C   0  0  0  0  0  0  0  0  0  0  0  0
  -20.5940  -28.4230   23.3460 C   0  0  0  0  0  3  0  0  0  0  0  0
  -20.8630  -26.9600   22.9210 C   0  0  0  0  0  2  0  0  0  0  0  0
  -19.8770  -26.4490   21.8650 C   0  0  0  0  0  2  0  0  0  0  0  0
  -18.4400  -26.5230   22.3890 C   0  0  0  0  0  2  0  0  0  0  0  0
  -19.1080  -28.8010   23.3540 C   0  0  0  0  0  0  0  0  0  0  0  0
  -18.7360  -30.0850   23.8090 C   0  0  0  0  0  3  0  0  0  0  0  0
  -17.3850  -30.4780   23.8350 C   0  0  0  0  0  3  0  0  0  0  0  0
  -16.3860  -29.5830   23.4150 C   0  0  0  0  0  3  0  0  0  0  0  0
  -16.7410  -28.2990   22.9640 C   0  0  0  0  0  3  0  0  0  0  0  0
  -25.8980  -32.6690   23.9040 C   0  0  0  0  0  3  0  0  0  0  0  0
  -26.4290  -31.9290   25.1950 C   0  0  1  0  0  0  0  0  0  0  0  0
  -25.3330  -31.6740   26.2580 C   0  0  0  0  0  1  0  0  0  0  0  0
  -27.0530  -30.5610   24.8280 C   0  0  0  0  0  1  0  0  0  0  0  0
  -27.5540  -32.7620   25.8510 C   0  0  0  0  0  1  0  0  0  0  0  0
  -25.6010  -34.0790   24.2100 N   0  0  0  0  0  0  0  0  0  0  0  0
  -25.9200  -35.1150   23.4240 C   0  0  0  0  0  0  0  0  0  0  0  0
  -26.5600  -34.9880   22.3770 O   0  0  0  0  0  0  0  0  0  0  0  0
  -25.0220  -34.2470   25.0190 H   0  0  0  0  0  0  0  0  0  0  0  0
  -24.1830  -36.9070   23.0970 C   0  0  0  0  0  1  0  0  0  0  0  0
  -25.4520  -36.5150   23.8680 C   0  0  0  0  0  3  0  0  0  0  0  0
  -27.6210  -37.4160   24.5890 C   0  0  0  0  0  1  0  0  0  0  0  0
  -26.4810  -37.5630   23.6910 N   0  0  0  0  0  0  0  0  0  0  0  0
  -26.0840  -38.4880   23.8310 H   0  0  0  0  0  0  0  0  0  0  0  0
  1  4  1  0
  2  1  1  0
  2  5  1  0
  4 45  1  0
  4 15  1  1
  4  3  1  0
  5 53  1  0
  5  3  1  0
  5  6  1  6
  7 15  1  0
  8 13  1  0
  9 10  1  0
  9  8  1  0
 11 10  1  0
 11 20  1  0
 11 12  1  0
 13  7  1  0
 13 12  1  0
 14  7  2  0
 15 16  1  0
 17 18  2  0
 18 19  1  0
 18 37  1  0
 19 22  1  0
 20 17  1  0
 20 21  1  0
 21 19  2  0
 22 23  1  0
 23 24  2  0
 25 28  1  0
 25 24  1  0
 26 25  2  0
 27 26  1  0
 27 22  2  0
 28 29  1  0
 29 30  1  0
 30 31  2  0
 32 31  1  0
 32 36  1  0
 33 32  2  0
 34 29  2  0
 34 33  1  0
 35 34  1  0
 37 38  1  0
 38 41  1  0
 38 40  1  0
 39 37  2  0
 42 43  1  0
 42 17  1  0
 44 42  1  0
 45 46  2  0
 47 45  1  0
 48 47  1  0
 49 48  1  0
 50 49  1  0
 51 49  1  0
 52 49  1  0
 54 57  1  0
 54 53  2  0
 57 55  1  1
 57 56  1  0
 58 60  1  0
 58 57  1  0
 59 70  2  0
 60 65  1  0
 61 69  1  0
 61 71  1  0
 62 68  1  0
 62 64  1  0
 63 69  1  0
 64 65  2  0
 64 63  1  0
 66 67  1  0
 66 60  2  0
 67 62  2  0
 68 61  1  0
 69 59  1  0
 71 73  2  0
 72 71  1  0
 74 72  1  0
 75 84  2  0
 75 80  1  0
 76 72  1  0
 76 80  1  0
 77 76  1  0
 78 79  1  0
 78 77  1  0
 79 75  1  0
 80 81  2  0
 81 82  1  0
 83 82  2  0
 84 83  1  0
 85 59  1  0
 85 90  1  0
 85 86  1  0
 86 89  1  1
 86 87  1  0
 88 86  1  0
 90 93  1  0
 91 95  1  0
 91 90  1  0
 92 91  2  0
 95 94  1  0
 97 98  1  0
 97 95  1  0
 97 96  1  0
M  ISO  4   7 100  15 100  57 101  58 101
M  END
>  <TORSDO>  (27) 
F 23

>  <SCORE>  (27) 
-13.566

>  <name>  (27) 
26

>  <ligand_id>  (27) 
26

>  <original_smiles>  (27) 
[H]c1c([H])c([H])c2c(c1[H])C([H])([H])C([H])([H])C([H])([H])C2([H])N([H])C(=O)C1([H])N(C(=O)C([H])(N([H])C(=O)C([H])(N([H])C([H])([H])[H])C([H])([H])[H])C(C([H])([H])[H])(C([H])([H])[H])C([H])([H])[H])C([H])([H])c2c([H])c(OC(C([H])([H])[H])(C([H])([H])[H])C([H])([H])C([H])([H])[N+]3([H])C([H])([H])C([H])([H])C(C(=O)C([H])([H])C([H])([H])[N+]([H])([H])[H])(N([H])C(=O)N4C([H])([H])C([H])([H])C([H])([H])C([H])(n5nc(-c6c([H])c([H])c(Oc7c([H])c([H])c(F)c([H])c7F)c([H])c6[H])c(C(=O)N([H])[H])c5N([H])[H])C4([H])[H])C3([H])[H])c([H])c([H])c2C1([H])[H]

>  <smiles>  (27) 
[H]c1c([H])c([H])c2c(c1[H])C([H])([H])C([H])([H])C([H])([H])C2([H])N([H])C(=O)C1([H])N(C(=O)C([H])(N([H])C(=O)C([H])(N([H])C([H])([H])[H])C([H])([H])[H])C(C([H])([H])[H])(C([H])([H])[H])C([H])([H])[H])C([H])([H])c2c([H])c(OC(C([H])([H])[H])(C([H])([H])[H])C([H])([H])C([H])([H])[N+]3([H])C([H])([H])C([H])([H])C(C(=O)C([H])([H])C([H])([H])[N+]([H])([H])[H])(N([H])C(=O)N4C([H])([H])C([H])([H])C([H])([H])C([H])(n5nc(-c6c([H])c([H])c(Oc7c([H])c([H])c(F)c([H])c7F)c([H])c6[H])c(C(=O)N([H])[H])c5N([H])[H])C4([H])[H])C3([H])[H])c([H])c([H])c2C1([H])[H]

$$$$
27:0:0
     RDKit          3D

 99108  0  0  1  0  0  0  0  0999 V2000
  -27.3650  -21.5480   20.5130 C   0  0  0  0  0  2  0  0  0  0  0  0
  -29.0470  -21.7190   22.3880 C   0  0  0  0  0  2  0  0  0  0  0  0
  -26.8010  -22.8110   21.2120 C   0  0  0  0  0  2  0  0  0  0  0  0
  -28.8980  -23.2540   22.4770 C   0  0  0  0  0  2  0  0  0  0  0  0
  -28.8180  -21.2530   20.9460 C   0  0  0  0  0  3  0  0  0  0  0  0
  -27.8610  -23.8030   21.5500 N   0  0  1  0  0  4  0  0  0  0  0  0
  -27.4200  -24.5560   22.0630 H   0  0  0  0  0  0  0  0  0  0  0  0
  -29.3420  -17.6590   20.4260 C   0  0  0  0  0  3  0  0  0  0  0  0
  -30.6420  -18.1050   20.3430 C   0  0  0  0  0  0  0  0  0  0  0  0
  -29.3040  -19.8540   20.7080 C   0  0  0  0  0  3  0  0  0  0  0  0
  -31.7230  -20.3990   20.6520 C   0  0  0  0  0  1  0  0  0  0  0  0
  -30.5840  -19.4620   20.5690 N   0  0  0  0  0  0  0  0  0  0  0  0
  -28.5560  -18.7510   20.6650 N   0  0  0  0  0  0  0  0  0  0  0  0
  -27.5520  -18.7210   20.7980 H   0  0  0  0  0  0  0  0  0  0  0  0
  -31.9300  -17.3870   20.0470 C   0  0  0  0  0  2  0  0  0  0  0  0
  -32.1380  -16.1120   20.8770 C   0  0  0  0  0  2  0  0  0  0  0  0
  -31.4000  -14.2430   19.4030 C   0  0  0  0  0  0  0  0  0  0  0  0
  -30.8460  -12.0060   18.5380 C   0  0  0  0  0  2  0  0  0  0  0  0
  -29.7790  -12.0250   17.4330 C   0  0  0  0  0  2  0  0  0  0  0  0
  -28.3650  -12.0110   18.0390 C   0  0  0  0  0  2  0  0  0  0  0  0
  -28.1780  -13.0950   19.1310 C   0  0  0  0  0  3  0  0  0  0  0  0
  -29.3310  -13.0330   20.1550 C   0  0  0  0  0  2  0  0  0  0  0  0
  -30.6140  -13.1440   19.4340 N   0  0  0  0  0  0  0  0  0  0  0  0
  -32.2640  -14.4510   18.5460 O   0  0  0  0  0  0  0  0  0  0  0  0
  -31.2680  -15.0110   20.4880 N   0  0  0  0  0  0  0  0  0  0  0  0
  -30.5900  -14.6990   21.1670 H   0  0  0  0  0  0  0  0  0  0  0  0
  -26.0080  -13.9680   20.2090 C   0  0  0  0  0  0  0  0  0  0  0  0
  -24.9050  -13.3180   20.6960 C   0  0  0  0  0  0  0  0  0  0  0  0
  -25.1630  -11.9250   20.5280 C   0  0  0  0  0  0  0  0  0  0  0  0
  -26.8780  -12.9750   19.7840 N   0  0  0  0  0  0  0  0  0  0  0  0
  -26.3770  -11.7380   20.0290 N   0  0  0  0  0  0  0  0  0  0  0  0
  -24.3010  -10.7570   20.7550 C   0  0  0  0  0  0  0  0  0  0  0  0
  -24.6840   -9.7160   21.6290 C   0  0  0  0  0  3  0  0  0  0  0  0
  -23.8300   -8.6120   21.8450 C   0  0  0  0  0  3  0  0  0  0  0  0
  -22.5800   -8.5430   21.1880 C   0  0  0  0  0  0  0  0  0  0  0  0
  -22.2130   -9.5710   20.3020 C   0  0  0  0  0  3  0  0  0  0  0  0
  -23.0650  -10.6660   20.0830 C   0  0  0  0  0  3  0  0  0  0  0  0
  -21.6970   -7.4980   21.3160 O   0  0  0  0  0  0  0  0  0  0  0  0
  -21.6050   -6.7720   22.4770 C   0  0  0  0  0  0  0  0  0  0  0  0
  -21.2940   -7.3810   23.7140 C   0  0  0  0  0  3  0  0  0  0  0  0
  -21.1410   -6.5890   24.8700 C   0  0  0  0  0  3  0  0  0  0  0  0
  -21.2890   -5.1900   24.7900 C   0  0  0  0  0  0  0  0  0  0  0  0
  -21.5930   -4.5830   23.5600 C   0  0  0  0  0  3  0  0  0  0  0  0
  -21.7490   -5.3720   22.4060 C   0  0  0  0  0  0  0  0  0  0  0  0
  -22.0200   -4.7790   21.2170 F   0  0  0  0  0  0  0  0  0  0  0  0
  -21.1340   -4.4290   25.8980 F   0  0  0  0  0  0  0  0  0  0  0  0
  -23.6410  -13.9530   21.1950 C   0  0  0  0  0  0  0  0  0  0  0  0
  -22.9620  -13.3100   22.1400 N   0  0  0  0  0  0  0  0  0  0  0  0
  -23.2700  -15.0510   20.7820 O   0  0  0  0  0  0  0  0  0  0  0  0
  -23.2780  -12.4210   22.4950 H   0  0  0  0  0  0  0  0  0  0  0  0
  -22.1140  -13.7130   22.5140 H   0  0  0  0  0  0  0  0  0  0  0  0
  -26.3340  -15.3140   20.0680 N   0  0  0  0  0  0  0  0  0  0  0  0
  -25.6210  -16.0220   20.2060 H   0  0  0  0  0  0  0  0  0  0  0  0
  -27.0760  -15.6190   19.4510 H   0  0  0  0  0  0  0  0  0  0  0  0
  -28.4050  -24.5010   20.3530 C   0  0  0  0  0  2  0  0  0  0  0  0
  -28.7550  -25.9470   20.7150 C   0  0  0  0  0  0  0  0  0  0  0  0
  -28.5810  -26.3980   21.8530 O   0  0  0  0  0  0  0  0  0  0  0  0
  -29.2650  -26.8310   19.5750 C   0  0  0  0  0  2  0  0  0  0  0  0
  -28.3250  -26.7790   18.4990 O   0  0  0  0  0  0  0  0  0  0  0  0
  -24.7200  -31.2310   22.6970 C   0  0  0  0  0  0  0  0  0  0  0  0
  -27.1540  -27.4550   18.7370 C   0  0  0  0  0  0  0  0  0  0  0  0
  -23.3770  -30.0240   20.9960 C   0  0  0  0  0  3  0  0  0  0  0  0
  -24.7120  -28.7750   19.2220 C   0  0  0  0  0  0  0  0  0  0  0  0
  -25.8450  -30.5380   20.5950 C   0  0  0  0  0  2  0  0  0  0  0  0
  -25.9020  -29.2840   19.7560 C   0  0  0  0  0  0  0  0  0  0  0  0
  -27.1240  -28.6340   19.5120 C   0  0  0  0  0  3  0  0  0  0  0  0
  -25.9540  -26.9490   18.2000 C   0  0  0  0  0  3  0  0  0  0  0  0
  -24.7270  -27.6020   18.4440 C   0  0  0  0  0  3  0  0  0  0  0  0
  -23.4490  -29.5490   19.5210 C   0  0  0  0  0  2  0  0  0  0  0  0
  -24.6700  -30.6040   21.4860 N   0  0  0  0  0  0  0  0  0  0  0  0
  -23.6990  -31.3780   23.3790 O   0  0  0  0  0  0  0  0  0  0  0  0
  -22.8640  -28.8530   21.8620 C   0  0  0  0  0  0  0  0  0  0  0  0
  -21.5480  -28.5980   21.7960 N   0  0  0  0  0  0  0  0  0  0  0  0
  -23.6440  -28.1820   22.5450 O   0  0  0  0  0  0  0  0  0  0  0  0
  -20.9800  -29.2010   21.2180 H   0  0  0  0  0  0  0  0  0  0  0  0
  -18.3150  -27.0570   22.2510 C   0  0  0  0  0  0  0  0  0  0  0  0
  -20.8450  -27.5200   22.4910 C   0  0  0  0  0  3  0  0  0  0  0  0
  -21.0570  -26.1670   21.7740 C   0  0  0  0  0  2  0  0  0  0  0  0
  -19.9580  -25.8420   20.7590 C   0  0  0  0  0  2  0  0  0  0  0  0
  -18.5890  -25.7990   21.4440 C   0  0  0  0  0  2  0  0  0  0  0  0
  -19.3740  -27.8730   22.7280 C   0  0  0  0  0  0  0  0  0  0  0  0
  -19.0640  -29.0510   23.4420 C   0  0  0  0  0  3  0  0  0  0  0  0
  -17.7250  -29.4130   23.6860 C   0  0  0  0  0  3  0  0  0  0  0  0
  -16.6810  -28.5910   23.2260 C   0  0  0  0  0  3  0  0  0  0  0  0
  -16.9770  -27.4160   22.5140 C   0  0  0  0  0  3  0  0  0  0  0  0
  -26.0520  -31.8140   23.2660 C   0  0  0  0  0  3  0  0  0  0  0  0
  -25.7320  -33.0930   23.9120 N   0  0  0  0  0  0  0  0  0  0  0  0
  -25.9450  -34.2960   23.3620 C   0  0  0  0  0  0  0  0  0  0  0  0
  -26.5060  -34.4480   22.2720 O   0  0  0  0  0  0  0  0  0  0  0  0
  -25.2240  -33.0460   24.7820 H   0  0  0  0  0  0  0  0  0  0  0  0
  -24.1330  -36.0270   23.5530 C   0  0  0  0  0  1  0  0  0  0  0  0
  -25.4580  -35.5270   24.1480 C   0  0  0  0  0  3  0  0  0  0  0  0
  -27.6320  -36.3230   24.9610 C   0  0  0  0  0  1  0  0  0  0  0  0
  -26.4410  -36.6320   24.1760 N   0  0  0  0  0  0  0  0  0  0  0  0
  -26.0220  -37.4770   24.5570 H   0  0  0  0  0  0  0  0  0  0  0  0
  -26.7830  -30.8430   24.2740 C   0  0  1  0  0  0  0  0  0  0  0  0
  -25.8680  -30.3210   25.4050 C   0  0  0  0  0  1  0  0  0  0  0  0
  -27.3650  -29.6160   23.5310 C   0  0  0  0  0  1  0  0  0  0  0  0
  -27.9830  -31.5710   24.9250 C   0  0  0  0  0  1  0  0  0  0  0  0
  1  3  1  0
  2  4  1  0
  3  6  1  0
  5  1  1  0
  5  2  1  0
  6  7  1  1
  6  4  1  0
  8 13  1  0
  9  8  2  0
  9 12  1  0
 10 12  1  0
 10  5  1  0
 12 11  1  0
 13 10  1  0
 13 14  1  0
 15  9  1  0
 15 16  1  0
 17 23  1  0
 17 25  1  0
 18 23  1  0
 19 20  1  0
 19 18  1  0
 21 20  1  0
 21 30  1  0
 21 22  1  0
 23 22  1  0
 24 17  2  0
 25 16  1  0
 25 26  1  0
 27 28  2  0
 28 47  1  0
 29 28  1  0
 29 32  1  0
 30 31  1  0
 30 27  1  0
 31 29  2  0
 32 33  1  0
 33 34  2  0
 35 38  1  0
 35 34  1  0
 36 35  2  0
 37 36  1  0
 37 32  2  0
 38 39  1  0
 39 40  1  0
 40 41  2  0
 42 41  1  0
 42 46  1  0
 43 42  2  0
 44 39  2  0
 44 43  1  0
 45 44  1  0
 47 48  1  0
 48 50  1  0
 48 51  1  0
 49 47  2  0
 52 53  1  0
 52 27  1  0
 54 52  1  0
 55 56  1  0
 55  6  1  0
 56 57  2  0
 58 56  1  0
 59 61  1  0
 59 58  1  0
 60 71  2  0
 61 66  1  0
 62 70  1  0
 62 72  1  0
 63 69  1  0
 63 65  1  0
 64 70  1  0
 65 64  1  0
 66 65  2  0
 67 68  1  0
 67 61  2  0
 68 63  2  0
 69 62  1  0
 70 60  1  0
 72 74  2  0
 73 72  1  0
 75 73  1  0
 76 85  2  0
 76 81  1  0
 77 73  1  0
 77 81  1  0
 78 77  1  0
 79 80  1  0
 79 78  1  0
 80 76  1  0
 81 82  2  0
 82 83  1  0
 84 83  2  0
 85 84  1  0
 86 60  1  0
 86 87  1  0
 86 96  1  0
 87 90  1  0
 88 87  1  0
 88 92  1  0
 89 88  2  0
 92 91  1  0
 92 94  1  0
 94 95  1  0
 94 93  1  0
 96 99  1  1
 96 97  1  0
 98 96  1  0
M  ISO  4  17 100  25 100  58 101  59 101
M  END
>  <TORSDO>  (28) 
F 22

>  <SCORE>  (28) 
-10.253

>  <name>  (28) 
27

>  <ligand_id>  (28) 
27

>  <original_smiles>  (28) 
[H]c1c([H])c([H])c2c(c1[H])C([H])([H])C([H])([H])C([H])([H])C2([H])N([H])C(=O)C1([H])N(C(=O)C([H])(N([H])C(=O)C([H])(N([H])C([H])([H])[H])C([H])([H])[H])C(C([H])([H])[H])(C([H])([H])[H])C([H])([H])[H])C([H])([H])c2c([H])c(OC([H])([H])C(=O)C([H])([H])[N+]3([H])C([H])([H])C([H])([H])C([H])(c4n(C([H])([H])[H])c(C([H])([H])C([H])([H])N([H])C(=O)N5C([H])([H])C([H])([H])C([H])([H])C([H])(n6nc(-c7c([H])c([H])c(Oc8c([H])c([H])c(F)c([H])c8F)c([H])c7[H])c(C(=O)N([H])[H])c6N([H])[H])C5([H])[H])c([H])[n+]4[H])C([H])([H])C3([H])[H])c([H])c([H])c2C1([H])[H]

>  <smiles>  (28) 
[H]c1c([H])c([H])c2c(c1[H])C([H])([H])C([H])([H])C([H])([H])C2([H])N([H])C(=O)C1([H])N(C(=O)C([H])(N([H])C(=O)C([H])(N([H])C([H])([H])[H])C([H])([H])[H])C(C([H])([H])[H])(C([H])([H])[H])C([H])([H])[H])C([H])([H])c2c([H])c(OC([H])([H])C(=O)C([H])([H])[N+]3([H])C([H])([H])C([H])([H])C([H])(c4n(C([H])([H])[H])c(C([H])([H])C([H])([H])N([H])C(=O)N5C([H])([H])C([H])([H])C([H])([H])C([H])(n6nc(-c7c([H])c([H])c(Oc8c([H])c([H])c(F)c([H])c8F)c([H])c7[H])c(C(=O)N([H])[H])c6N([H])[H])C5([H])[H])c([H])[n+]4[H])C([H])([H])C3([H])[H])c([H])c([H])c2C1([H])[H]

$$$$
28:0:0
     RDKit          3D

 96104  0  0  1  0  0  0  0  0999 V2000
  -29.2060  -20.5690   20.4740 C   0  0  0  0  0  3  0  0  0  0  0  0
  -28.8250  -19.2700   20.2660 C   0  0  0  0  0  0  0  0  0  0  0  0
  -27.3740  -18.8120   20.1190 C   0  0  0  0  0  1  0  0  0  0  0  0
  -30.1270  -16.7540   18.5020 C   0  0  0  0  0  2  0  0  0  0  0  0
  -29.9060  -18.1500   20.1780 C   0  0  0  0  0  3  0  0  0  0  0  0
  -29.4930  -16.6500   19.9130 C   0  0  0  0  0  3  0  0  0  0  0  0
  -30.7290  -18.1230   18.8530 C   0  0  0  0  0  3  0  0  0  0  0  0
  -30.8350  -14.5660   20.5120 C   0  0  0  0  0  0  0  0  0  0  0  0
  -30.5740  -12.3610   19.4540 C   0  0  0  0  0  2  0  0  0  0  0  0
  -29.6640  -12.4940   18.2130 C   0  0  0  0  0  2  0  0  0  0  0  0
  -28.1790  -12.3650   18.6070 C   0  0  0  0  0  2  0  0  0  0  0  0
  -27.8040  -13.2490   19.8260 C   0  0  0  0  0  3  0  0  0  0  0  0
  -28.8310  -13.1010   20.9680 C   0  0  0  0  0  2  0  0  0  0  0  0
  -30.1610  -13.3900   20.4140 N   0  0  0  0  0  0  0  0  0  0  0  0
  -32.0070  -14.6990   20.1520 O   0  0  0  0  0  0  0  0  0  0  0  0
  -30.1010  -15.6500   20.8400 N   0  0  0  0  0  0  0  0  0  0  0  0
  -30.4040  -16.0590   21.7120 H   0  0  0  0  0  0  0  0  0  0  0  0
  -25.4010  -13.8680   20.4780 C   0  0  0  0  0  0  0  0  0  0  0  0
  -24.3180  -13.1050   20.8250 C   0  0  0  0  0  0  0  0  0  0  0  0
  -24.7760  -11.7530   20.8230 C   0  0  0  0  0  0  0  0  0  0  0  0
  -26.4450  -12.9810   20.2850 N   0  0  0  0  0  0  0  0  0  0  0  0
  -26.0730  -11.7060   20.5500 N   0  0  0  0  0  0  0  0  0  0  0  0
  -24.0460  -10.4950   21.0140 C   0  0  0  0  0  0  0  0  0  0  0  0
  -24.4590   -9.5370   21.9700 C   0  0  0  0  0  3  0  0  0  0  0  0
  -23.7280   -8.3440   22.1450 C   0  0  0  0  0  3  0  0  0  0  0  0
  -22.5720   -8.0980   21.3650 C   0  0  0  0  0  0  0  0  0  0  0  0
  -22.1820   -9.0430   20.4010 C   0  0  0  0  0  3  0  0  0  0  0  0
  -22.9130  -10.2300   20.2230 C   0  0  0  0  0  3  0  0  0  0  0  0
  -21.8130   -6.9570   21.4480 O   0  0  0  0  0  0  0  0  0  0  0  0
  -21.7360   -6.2260   22.6080 C   0  0  0  0  0  0  0  0  0  0  0  0
  -21.2730   -6.7920   23.8140 C   0  0  0  0  0  3  0  0  0  0  0  0
  -21.1460   -5.9880   24.9650 C   0  0  0  0  0  3  0  0  0  0  0  0
  -21.4710   -4.6210   24.9070 C   0  0  0  0  0  0  0  0  0  0  0  0
  -21.9280   -4.0540   23.7050 C   0  0  0  0  0  3  0  0  0  0  0  0
  -22.0580   -4.8550   22.5560 C   0  0  0  0  0  0  0  0  0  0  0  0
  -22.4780   -4.3000   21.3940 F   0  0  0  0  0  0  0  0  0  0  0  0
  -21.3420   -3.8460   26.0110 F   0  0  0  0  0  0  0  0  0  0  0  0
  -22.9170  -13.5900   21.0530 C   0  0  0  0  0  0  0  0  0  0  0  0
  -22.1680  -12.9070   21.9130 N   0  0  0  0  0  0  0  0  0  0  0  0
  -22.4940  -14.6050   20.5030 O   0  0  0  0  0  0  0  0  0  0  0  0
  -22.5250  -12.0820   22.3700 H   0  0  0  0  0  0  0  0  0  0  0  0
  -21.2290  -13.2160   22.1210 H   0  0  0  0  0  0  0  0  0  0  0  0
  -25.5800  -15.2360   20.2930 N   0  0  0  0  0  0  0  0  0  0  0  0
  -24.8340  -15.9140   20.3940 H   0  0  0  0  0  0  0  0  0  0  0  0
  -26.4680  -15.6520   20.0430 H   0  0  0  0  0  0  0  0  0  0  0  0
  -30.4320  -19.1700   17.8350 N   0  0  0  0  0  4  0  0  0  0  0  0
  -30.8360  -18.9320   16.9460 H   0  0  0  0  0  0  0  0  0  0  0  0
  -30.8150  -20.0670   18.0890 H   0  0  0  0  0  0  0  0  0  0  0  0
  -29.4420  -19.2750   17.6890 H   0  0  0  0  0  0  0  0  0  0  0  0
  -28.3480  -21.8020   20.4880 C   0  0  0  0  0  0  0  0  0  0  0  0
  -27.3080  -21.8990   19.8330 O   0  0  0  0  0  0  0  0  0  0  0  0
  -28.8470  -23.0200   21.3130 C   0  0  0  0  0  2  0  0  0  0  0  0
  -26.6190  -24.3520   21.6590 C   0  0  0  0  0  1  0  0  0  0  0  0
  -28.1090  -24.4100   21.2630 C   0  0  0  0  0  3  0  0  0  0  0  0
  -28.3630  -25.2610   19.9830 C   0  0  0  0  0  2  0  0  0  0  0  0
  -28.3350  -26.6890   20.2250 O   0  0  0  0  0  0  0  0  0  0  0  0
  -24.5090  -31.8840   23.2610 C   0  0  0  0  0  0  0  0  0  0  0  0
  -27.1510  -27.4100   20.2000 C   0  0  0  0  0  0  0  0  0  0  0  0
  -23.3100  -30.4970   21.6010 C   0  0  0  0  0  3  0  0  0  0  0  0
  -24.7690  -28.9490   20.1930 C   0  0  0  0  0  0  0  0  0  0  0  0
  -25.8420  -30.8330   21.4340 C   0  0  0  0  0  2  0  0  0  0  0  0
  -25.9260  -29.4630   20.7910 C   0  0  0  0  0  0  0  0  0  0  0  0
  -27.1170  -28.6980   20.7920 C   0  0  0  0  0  3  0  0  0  0  0  0
  -25.9720  -26.9250   19.5860 C   0  0  0  0  0  3  0  0  0  0  0  0
  -24.7860  -27.6800   19.5940 C   0  0  0  0  0  3  0  0  0  0  0  0
  -23.5310  -29.8170   20.2240 C   0  0  0  0  0  2  0  0  0  0  0  0
  -24.5700  -31.0880   22.1550 N   0  0  0  0  0  0  0  0  0  0  0  0
  -23.4250  -32.1650   23.7880 O   0  0  0  0  0  0  0  0  0  0  0  0
  -22.6450  -29.4770   22.5550 C   0  0  0  0  0  0  0  0  0  0  0  0
  -21.3210  -29.3070   22.4150 N   0  0  0  0  0  0  0  0  0  0  0  0
  -23.3160  -28.8430   23.3710 O   0  0  0  0  0  0  0  0  0  0  0  0
  -20.8380  -29.8790   21.7360 H   0  0  0  0  0  0  0  0  0  0  0  0
  -17.9310  -28.1590   22.8940 C   0  0  0  0  0  0  0  0  0  0  0  0
  -20.4940  -28.3680   23.1740 C   0  0  0  0  0  3  0  0  0  0  0  0
  -20.5730  -26.9430   22.5790 C   0  0  0  0  0  2  0  0  0  0  0  0
  -19.4650  -26.6550   21.5620 C   0  0  0  0  0  2  0  0  0  0  0  0
  -18.0840  -26.8150   22.2050 C   0  0  0  0  0  2  0  0  0  0  0  0
  -19.0630  -28.8950   23.3340 C   0  0  0  0  0  0  0  0  0  0  0  0
  -18.8680  -30.1560   23.9360 C   0  0  0  0  0  3  0  0  0  0  0  0
  -17.5730  -30.6800   24.1020 C   0  0  0  0  0  3  0  0  0  0  0  0
  -16.4560  -29.9400   23.6810 C   0  0  0  0  0  3  0  0  0  0  0  0
  -16.6340  -28.6830   23.0820 C   0  0  0  0  0  3  0  0  0  0  0  0
  -25.7920  -32.5030   23.8970 C   0  0  0  0  0  3  0  0  0  0  0  0
  -25.4990  -33.9110   24.2030 N   0  0  0  0  0  0  0  0  0  0  0  0
  -25.8670  -34.9480   23.4400 C   0  0  0  0  0  0  0  0  0  0  0  0
  -26.5580  -34.8200   22.4270 O   0  0  0  0  0  0  0  0  0  0  0  0
  -24.8850  -34.0840   24.9860 H   0  0  0  0  0  0  0  0  0  0  0  0
  -24.1840  -36.7690   23.0120 C   0  0  0  0  0  1  0  0  0  0  0  0
  -25.3900  -36.3490   23.8680 C   0  0  0  0  0  3  0  0  0  0  0  0
  -27.5110  -37.2050   24.7610 C   0  0  0  0  0  1  0  0  0  0  0  0
  -26.4450  -37.3800   23.7780 N   0  0  0  0  0  0  0  0  0  0  0  0
  -26.0500  -38.3110   23.8970 H   0  0  0  0  0  0  0  0  0  0  0  0
  -26.2770  -31.7390   25.1900 C   0  0  1  0  0  0  0  0  0  0  0  0
  -25.1650  -31.5300   26.2440 C   0  0  0  0  0  1  0  0  0  0  0  0
  -26.8470  -30.3490   24.8230 C   0  0  0  0  0  1  0  0  0  0  0  0
  -27.4250  -32.5260   25.8630 C   0  0  0  0  0  1  0  0  0  0  0  0
  1 50  1  0
  2  1  2  0
  3  2  1  0
  4  7  1  0
  4  6  1  0
  5  2  1  0
  6  5  1  0
  6 16  1  0
  7 46  1  0
  7  5  1  0
  8 16  1  0
  9 14  1  0
 10 11  1  0
 10  9  1  0
 12 11  1  0
 12 21  1  0
 12 13  1  0
 14  8  1  0
 14 13  1  0
 15  8  2  0
 16 17  1  0
 18 19  2  0
 19 38  1  0
 20 19  1  0
 20 23  1  0
 21 18  1  0
 21 22  1  0
 22 20  2  0
 23 24  1  0
 24 25  2  0
 26 29  1  0
 26 25  1  0
 27 26  2  0
 28 27  1  0
 28 23  2  0
 29 30  1  0
 30 31  1  0
 31 32  2  0
 33 32  1  0
 33 37  1  0
 34 33  2  0
 35 30  2  0
 35 34  1  0
 36 35  1  0
 38 39  1  0
 39 42  1  0
 39 41  1  0
 40 38  2  0
 43 44  1  0
 43 18  1  0
 45 43  1  0
 46 48  1  0
 47 46  1  0
 49 46  1  0
 50 52  1  0
 51 50  2  0
 54 52  1  0
 54 53  1  0
 55 56  1  0
 55 54  1  0
 57 68  2  0
 58 56  1  0
 58 63  1  0
 59 67  1  0
 59 69  1  0
 60 66  1  0
 60 62  1  0
 61 67  1  0
 62 63  2  0
 62 61  1  0
 64 65  1  0
 64 58  2  0
 65 60  2  0
 66 59  1  0
 67 57  1  0
 69 71  2  0
 70 69  1  0
 72 70  1  0
 73 82  2  0
 73 78  1  0
 74 70  1  0
 74 78  1  0
 75 74  1  0
 76 77  1  0
 76 75  1  0
 77 73  1  0
 78 79  2  0
 79 80  1  0
 81 80  2  0
 82 81  1  0
 83 57  1  0
 83 84  1  0
 83 93  1  0
 84 87  1  0
 85 89  1  0
 85 84  1  0
 86 85  2  0
 89 88  1  0
 91 89  1  0
 91 92  1  0
 91 90  1  0
 93 96  1  1
 93 94  1  0
 95 93  1  0
M  ISO  4   8 100  16 100  55 101  56 101
M  END
>  <TORSDO>  (29) 
F 22

>  <SCORE>  (29) 
-13.318

>  <name>  (29) 
28

>  <ligand_id>  (29) 
28

>  <original_smiles>  (29) 
[H]C(C(=O)C([H])([H])C([H])(C([H])([H])[H])C([H])([H])Oc1c([H])c([H])c2c(c1[H])C([H])([H])N(C(=O)C([H])(N([H])C(=O)C([H])(N([H])C([H])([H])[H])C([H])([H])[H])C(C([H])([H])[H])(C([H])([H])[H])C([H])([H])[H])C([H])(C(=O)N([H])C1([H])c3c([H])c([H])c([H])c([H])c3C([H])([H])C([H])([H])C1([H])[H])C2([H])[H])=C(C([H])([H])[H])C1([H])C([H])(N([H])C(=O)N2C([H])([H])C([H])([H])C([H])([H])C([H])(n3nc(-c4c([H])c([H])c(Oc5c([H])c([H])c(F)c([H])c5F)c([H])c4[H])c(C(=O)N([H])[H])c3N([H])[H])C2([H])[H])C([H])([H])C1([H])[N+]([H])([H])[H]

>  <smiles>  (29) 
[H]C(C(=O)C([H])([H])C([H])(C([H])([H])[H])C([H])([H])Oc1c([H])c([H])c2c(c1[H])C([H])([H])N(C(=O)C([H])(N([H])C(=O)C([H])(N([H])C([H])([H])[H])C([H])([H])[H])C(C([H])([H])[H])(C([H])([H])[H])C([H])([H])[H])C([H])(C(=O)N([H])C1([H])c3c([H])c([H])c([H])c([H])c3C([H])([H])C([H])([H])C1([H])[H])C2([H])[H])=C(C([H])([H])[H])C1([H])C([H])(N([H])C(=O)N2C([H])([H])C([H])([H])C([H])([H])C([H])(n3nc(-c4c([H])c([H])c(Oc5c([H])c([H])c(F)c([H])c5F)c([H])c4[H])c(C(=O)N([H])[H])c3N([H])[H])C2([H])[H])C([H])([H])C1([H])[N+]([H])([H])[H]

$$$$
29:0:0
     RDKit          3D

 94103  0  0  1  0  0  0  0  0999 V2000
  -30.3240  -19.8800   22.2640 C   0  0  0  0  0  0  0  0  0  0  0  0
  -31.1160  -21.0670   21.9480 C   0  0  0  0  0  0  0  0  0  0  0  0
  -29.7630  -19.3940   21.0000 C   0  0  0  0  0  0  0  0  0  0  0  0
  -31.6830  -21.8490   22.8890 C   0  0  0  0  0  3  0  0  0  0  0  0
  -29.6530  -18.0010   20.8840 C   0  0  0  0  0  3  0  0  0  0  0  0
  -31.0900  -21.2350   20.4350 C   0  0  0  0  0  2  0  0  0  0  0  0
  -32.4860  -23.1140   22.6510 C   0  0  0  0  0  1  0  0  0  0  0  0
  -29.7850  -20.6390   20.0350 N   0  0  2  0  0  4  0  0  0  0  0  0
  -30.1780  -19.3750   23.3820 O   0  0  0  0  0  0  0  0  0  0  0  0
  -29.8740  -20.3340   19.0780 H   0  0  0  0  0  0  0  0  0  0  0  0
  -30.3830  -14.4000   20.1890 C   0  0  0  0  0  0  0  0  0  0  0  0
  -30.2620  -12.0500   19.3600 C   0  0  0  0  0  2  0  0  0  0  0  0
  -29.2880  -12.0000   18.1600 C   0  0  0  0  0  2  0  0  0  0  0  0
  -27.8290  -11.8400   18.6320 C   0  0  0  0  0  2  0  0  0  0  0  0
  -27.4570  -12.7890   19.8030 C   0  0  0  0  0  3  0  0  0  0  0  0
  -28.5460  -12.8010   20.8960 C   0  0  0  0  0  2  0  0  0  0  0  0
  -29.8140  -13.1470   20.2430 N   0  0  0  0  0  0  0  0  0  0  0  0
  -31.6060  -14.5190   20.0570 O   0  0  0  0  0  0  0  0  0  0  0  0
  -30.1180  -17.0090   18.5070 C   0  0  0  0  0  2  0  0  0  0  0  0
  -29.5790  -15.5960   18.2950 C   0  0  0  0  0  2  0  0  0  0  0  0
  -29.2870  -16.9700   19.7620 C   0  0  0  0  0  3  0  0  0  0  0  0
  -29.5190  -15.4250   19.7740 N   0  0  0  0  0  0  0  0  0  0  0  0
  -25.0870  -13.3730   20.5930 C   0  0  0  0  0  0  0  0  0  0  0  0
  -24.0380  -12.5970   21.0030 C   0  0  0  0  0  0  0  0  0  0  0  0
  -24.5140  -11.2490   20.9850 C   0  0  0  0  0  0  0  0  0  0  0  0
  -26.1320  -12.4980   20.3440 N   0  0  0  0  0  0  0  0  0  0  0  0
  -25.7970  -11.2180   20.6460 N   0  0  0  0  0  0  0  0  0  0  0  0
  -23.8050   -9.9840   21.2140 C   0  0  0  0  0  0  0  0  0  0  0  0
  -24.2600   -9.0450   22.1660 C   0  0  0  0  0  3  0  0  0  0  0  0
  -23.5490   -7.8440   22.3830 C   0  0  0  0  0  3  0  0  0  0  0  0
  -22.3700   -7.5740   21.6480 C   0  0  0  0  0  0  0  0  0  0  0  0
  -21.9350   -8.5020   20.6860 C   0  0  0  0  0  3  0  0  0  0  0  0
  -22.6450   -9.6940   20.4670 C   0  0  0  0  0  3  0  0  0  0  0  0
  -21.6310   -6.4240   21.7740 O   0  0  0  0  0  0  0  0  0  0  0  0
  -21.6040   -5.7080   22.9450 C   0  0  0  0  0  0  0  0  0  0  0  0
  -21.1120   -6.2650   24.1460 C   0  0  0  0  0  3  0  0  0  0  0  0
  -21.0380   -5.4730   25.3090 C   0  0  0  0  0  3  0  0  0  0  0  0
  -21.4450   -4.1250   25.2720 C   0  0  0  0  0  0  0  0  0  0  0  0
  -21.9290   -3.5690   24.0750 C   0  0  0  0  0  3  0  0  0  0  0  0
  -22.0060   -4.3580   22.9150 C   0  0  0  0  0  0  0  0  0  0  0  0
  -22.4540   -3.8110   21.7580 F   0  0  0  0  0  0  0  0  0  0  0  0
  -21.3670   -3.3620   26.3870 F   0  0  0  0  0  0  0  0  0  0  0  0
  -22.6430  -13.0650   21.2990 C   0  0  0  0  0  0  0  0  0  0  0  0
  -21.9360  -12.3700   22.1830 N   0  0  0  0  0  0  0  0  0  0  0  0
  -22.1870  -14.0830   20.7810 O   0  0  0  0  0  0  0  0  0  0  0  0
  -22.3170  -11.5470   22.6260 H   0  0  0  0  0  0  0  0  0  0  0  0
  -21.0000  -12.6670   22.4210 H   0  0  0  0  0  0  0  0  0  0  0  0
  -25.2360  -14.7420   20.3880 N   0  0  0  0  0  0  0  0  0  0  0  0
  -24.4710  -15.3960   20.5140 H   0  0  0  0  0  0  0  0  0  0  0  0
  -26.0860  -15.1830   20.0620 H   0  0  0  0  0  0  0  0  0  0  0  0
  -28.6780  -21.7390   20.0760 C   0  0  0  0  0  2  0  0  0  0  0  0
  -29.0470  -23.3440   19.9960 C   0  0  0  0  0  3  0  0  0  0  0  0
  -27.9020  -24.4940   19.9210 C   0  0  0  0  0  3  0  0  0  0  0  0
  -28.1990  -25.9760   19.9790 O   0  0  0  0  0  0  0  0  0  0  0  0
  -24.6330  -31.5140   23.0810 C   0  0  0  0  0  0  0  0  0  0  0  0
  -27.1220  -26.9010   19.9450 C   0  0  0  0  0  0  0  0  0  0  0  0
  -23.3980  -30.1830   21.4110 C   0  0  0  0  0  3  0  0  0  0  0  0
  -24.8100  -28.6190   19.9570 C   0  0  0  0  0  0  0  0  0  0  0  0
  -25.9500  -30.4240   21.2420 C   0  0  0  0  0  2  0  0  0  0  0  0
  -25.9960  -29.0520   20.5670 C   0  0  0  0  0  0  0  0  0  0  0  0
  -27.1540  -28.2070   20.5450 C   0  0  0  0  0  3  0  0  0  0  0  0
  -25.9100  -26.5440   19.3080 C   0  0  0  0  0  3  0  0  0  0  0  0
  -24.7740  -27.3740   19.3170 C   0  0  0  0  0  3  0  0  0  0  0  0
  -23.6000  -29.5310   20.0190 C   0  0  0  0  0  2  0  0  0  0  0  0
  -24.6810  -30.7230   21.9690 N   0  0  0  0  0  0  0  0  0  0  0  0
  -23.5540  -31.8090   23.6170 O   0  0  0  0  0  0  0  0  0  0  0  0
  -22.7010  -29.1660   22.3480 C   0  0  0  0  0  0  0  0  0  0  0  0
  -21.3650  -29.0610   22.2470 N   0  0  0  0  0  0  0  0  0  0  0  0
  -23.3630  -28.4760   23.1280 O   0  0  0  0  0  0  0  0  0  0  0  0
  -20.8910  -29.6690   21.5930 H   0  0  0  0  0  0  0  0  0  0  0  0
  -17.9380  -28.0470   22.8200 C   0  0  0  0  0  0  0  0  0  0  0  0
  -20.5160  -28.1360   23.0010 C   0  0  0  0  0  3  0  0  0  0  0  0
  -20.5070  -26.7330   22.3540 C   0  0  0  0  0  2  0  0  0  0  0  0
  -19.3510  -26.5300   21.3680 C   0  0  0  0  0  2  0  0  0  0  0  0
  -18.0050  -26.7250   22.0720 C   0  0  0  0  0  2  0  0  0  0  0  0
  -19.1170  -28.7170   23.2420 C   0  0  0  0  0  0  0  0  0  0  0  0
  -18.9990  -29.9570   23.9060 C   0  0  0  0  0  3  0  0  0  0  0  0
  -17.7360  -30.5290   24.1460 C   0  0  0  0  0  3  0  0  0  0  0  0
  -16.5720  -29.8550   23.7380 C   0  0  0  0  0  3  0  0  0  0  0  0
  -16.6730  -28.6140   23.0830 C   0  0  0  0  0  3  0  0  0  0  0  0
  -25.9280  -32.1000   23.7210 C   0  0  0  0  0  3  0  0  0  0  0  0
  -26.4240  -31.2840   24.9780 C   0  0  1  0  0  0  0  0  0  0  0  0
  -25.3250  -31.0500   26.0410 C   0  0  0  0  0  1  0  0  0  0  0  0
  -26.9690  -29.9020   24.5520 C   0  0  0  0  0  1  0  0  0  0  0  0
  -27.5960  -32.0290   25.6580 C   0  0  0  0  0  1  0  0  0  0  0  0
  -25.6510  -33.4960   24.0890 N   0  0  0  0  0  0  0  0  0  0  0  0
  -26.0490  -34.5640   23.3830 C   0  0  0  0  0  0  0  0  0  0  0  0
  -26.7570  -34.4740   22.3770 O   0  0  0  0  0  0  0  0  0  0  0  0
  -25.0300  -33.6430   24.8710 H   0  0  0  0  0  0  0  0  0  0  0  0
  -24.4310  -36.4520   22.9950 C   0  0  0  0  0  1  0  0  0  0  0  0
  -25.5900  -35.9520   23.8720 C   0  0  0  0  0  3  0  0  0  0  0  0
  -27.6860  -36.7090   24.9060 C   0  0  0  0  0  1  0  0  0  0  0  0
  -26.6740  -36.9600   23.8830 N   0  0  0  0  0  0  0  0  0  0  0  0
  -26.2980  -37.8930   24.0310 H   0  0  0  0  0  0  0  0  0  0  0  0
  1  9  2  0
  2  1  1  0
  2  4  2  0
  3  1  1  0
  5  3  2  0
  6  2  1  0
  7  4  1  0
  8 51  1  0
  8  6  1  0
  8  3  1  0
  8 10  1  6
 11 17  1  0
 12 17  1  0
 13 14  1  0
 13 12  1  0
 15 14  1  0
 15 26  1  0
 15 16  1  0
 17 16  1  0
 18 11  2  0
 19 21  1  0
 20 19  1  0
 20 22  1  0
 21 22  1  0
 21  5  1  0
 22 11  1  0
 23 24  2  0
 24 43  1  0
 25 24  1  0
 25 28  1  0
 26 23  1  0
 26 27  1  0
 27 25  2  0
 28 29  1  0
 29 30  2  0
 31 34  1  0
 31 30  1  0
 32 31  2  0
 33 32  1  0
 33 28  2  0
 34 35  1  0
 35 36  1  0
 36 37  2  0
 38 37  1  0
 38 42  1  0
 39 38  2  0
 40 35  2  0
 40 39  1  0
 41 40  1  0
 43 44  1  0
 44 47  1  0
 44 46  1  0
 45 43  2  0
 48 49  1  0
 48 23  1  0
 50 48  1  0
 52 51  1  0
 53 54  1  0
 53 52  2  0
 55 66  2  0
 56 54  1  0
 56 61  1  0
 57 65  1  0
 57 67  1  0
 58 64  1  0
 58 60  1  0
 59 65  1  0
 60 59  1  0
 61 60  2  0
 62 63  1  0
 62 56  2  0
 63 58  2  0
 64 57  1  0
 65 55  1  0
 67 69  2  0
 68 67  1  0
 70 68  1  0
 71 80  2  0
 71 76  1  0
 72 68  1  0
 72 76  1  0
 73 72  1  0
 74 75  1  0
 74 73  1  0
 75 71  1  0
 76 77  2  0
 77 78  1  0
 79 78  2  0
 80 79  1  0
 81 55  1  0
 81 86  1  0
 81 82  1  0
 82 85  1  1
 82 83  1  0
 84 82  1  0
 86 89  1  0
 87 91  1  0
 87 86  1  0
 88 87  2  0
 91 90  1  0
 91 93  1  0
 93 94  1  0
 93 92  1  0
M  ISO  4  11 100  22 100  53 101  54 101
M  END
>  <TORSDO>  (30) 
F 19

>  <SCORE>  (30) 
-7.454

>  <name>  (30) 
29

>  <ligand_id>  (30) 
29

>  <original_smiles>  (30) 
[H]C(=C1C(=O)C(=C([H])C2([H])N(C(=O)N3C([H])([H])C([H])([H])C([H])([H])C([H])(n4nc(-c5c([H])c([H])c(Oc6c([H])c([H])c(F)c([H])c6F)c([H])c5[H])c(C(=O)N([H])[H])c4N([H])[H])C3([H])[H])C([H])([H])C2([H])[H])[N+]([H])(C([H])([H])C([H])([H])C([H])([H])Oc2c([H])c([H])c3c(c2[H])C([H])([H])N(C(=O)C([H])(N([H])C(=O)C([H])(N([H])C([H])([H])[H])C([H])([H])[H])C(C([H])([H])[H])(C([H])([H])[H])C([H])([H])[H])C([H])(C(=O)N([H])C2([H])c4c([H])c([H])c([H])c([H])c4C([H])([H])C([H])([H])C2([H])[H])C3([H])[H])C1([H])[H])C([H])([H])[H]

>  <smiles>  (30) 
[H]C(=C1C(=O)C(=C([H])C2([H])N(C(=O)N3C([H])([H])C([H])([H])C([H])([H])C([H])(n4nc(-c5c([H])c([H])c(Oc6c([H])c([H])c(F)c([H])c6F)c([H])c5[H])c(C(=O)N([H])[H])c4N([H])[H])C3([H])[H])C([H])([H])C2([H])[H])[N+]([H])(C([H])([H])C([H])([H])C([H])([H])Oc2c([H])c([H])c3c(c2[H])C([H])([H])N(C(=O)C([H])(N([H])C(=O)C([H])(N([H])C([H])([H])[H])C([H])([H])[H])C(C([H])([H])[H])(C([H])([H])[H])C([H])([H])[H])C([H])(C(=O)N([H])C2([H])c4c([H])c([H])c([H])c([H])c4C([H])([H])C([H])([H])C2([H])[H])C3([H])[H])C1([H])[H])C([H])([H])[H]

$$$$
30:0:0
     RDKit          3D

 94102  0  0  1  0  0  0  0  0999 V2000
  -29.1130  -23.2930   20.1490 C   0  0  0  0  0  3  0  0  0  0  0  0
  -29.9690  -24.2280   18.0690 C   0  0  0  0  0  3  0  0  0  0  0  0
  -28.4910  -24.5220   20.4480 C   0  0  0  0  0  3  0  0  0  0  0  0
  -29.3600  -25.4600   18.3720 C   0  0  0  0  0  3  0  0  0  0  0  0
  -29.9110  -23.1600   18.9890 C   0  0  0  0  0  0  0  0  0  0  0  0
  -28.6760  -25.6300   19.5960 C   0  0  0  0  0  0  0  0  0  0  0  0
  -28.4450  -26.8930   20.0670 O   0  0  0  0  0  0  0  0  0  0  0  0
  -24.5770  -31.8920   23.2440 C   0  0  0  0  0  0  0  0  0  0  0  0
  -27.2100  -27.4910   20.1130 C   0  0  0  0  0  0  0  0  0  0  0  0
  -23.3540  -30.4950   21.6060 C   0  0  0  0  0  3  0  0  0  0  0  0
  -24.7950  -28.9480   20.1740 C   0  0  0  0  0  0  0  0  0  0  0  0
  -25.8740  -30.8540   21.3920 C   0  0  0  0  0  2  0  0  0  0  0  0
  -25.9490  -29.4850   20.7540 C   0  0  0  0  0  0  0  0  0  0  0  0
  -27.1530  -28.7560   20.7280 C   0  0  0  0  0  3  0  0  0  0  0  0
  -26.0400  -26.9440   19.5450 C   0  0  0  0  0  3  0  0  0  0  0  0
  -24.8280  -27.6710   19.5810 C   0  0  0  0  0  3  0  0  0  0  0  0
  -23.5540  -29.8100   20.2270 C   0  0  0  0  0  2  0  0  0  0  0  0
  -24.6200  -31.0950   22.1420 N   0  0  0  0  0  0  0  0  0  0  0  0
  -23.5010  -32.1640   23.7930 O   0  0  0  0  0  0  0  0  0  0  0  0
  -22.7120  -29.4750   22.5660 C   0  0  0  0  0  0  0  0  0  0  0  0
  -21.3870  -29.2910   22.4410 N   0  0  0  0  0  0  0  0  0  0  0  0
  -23.3960  -28.8500   23.3800 O   0  0  0  0  0  0  0  0  0  0  0  0
  -20.8960  -29.8460   21.7560 H   0  0  0  0  0  0  0  0  0  0  0  0
  -18.0170  -28.0960   22.9320 C   0  0  0  0  0  0  0  0  0  0  0  0
  -20.5740  -28.3510   23.2090 C   0  0  0  0  0  3  0  0  0  0  0  0
  -20.6760  -26.9200   22.6300 C   0  0  0  0  0  2  0  0  0  0  0  0
  -19.5750  -26.5990   21.6140 C   0  0  0  0  0  2  0  0  0  0  0  0
  -18.1930  -26.7460   22.2570 C   0  0  0  0  0  2  0  0  0  0  0  0
  -19.1360  -28.8550   23.3660 C   0  0  0  0  0  0  0  0  0  0  0  0
  -18.9200  -30.1200   23.9540 C   0  0  0  0  0  3  0  0  0  0  0  0
  -17.6150  -30.6250   24.1160 C   0  0  0  0  0  3  0  0  0  0  0  0
  -16.5100  -29.8610   23.7020 C   0  0  0  0  0  3  0  0  0  0  0  0
  -16.7120  -28.5990   23.1140 C   0  0  0  0  0  3  0  0  0  0  0  0
  -25.8690  -32.5140   23.8590 C   0  0  0  0  0  3  0  0  0  0  0  0
  -25.5700  -33.9130   24.1900 N   0  0  0  0  0  0  0  0  0  0  0  0
  -25.9100  -34.9620   23.4290 C   0  0  0  0  0  0  0  0  0  0  0  0
  -26.5770  -34.8520   22.3970 O   0  0  0  0  0  0  0  0  0  0  0  0
  -24.9780  -34.0730   24.9890 H   0  0  0  0  0  0  0  0  0  0  0  0
  -24.1920  -36.7630   23.0680 C   0  0  0  0  0  1  0  0  0  0  0  0
  -25.4290  -36.3510   23.8830 C   0  0  0  0  0  3  0  0  0  0  0  0
  -27.5680  -37.2280   24.7140 C   0  0  0  0  0  1  0  0  0  0  0  0
  -26.4680  -37.3990   23.7680 N   0  0  0  0  0  0  0  0  0  0  0  0
  -26.0680  -38.3230   23.9120 H   0  0  0  0  0  0  0  0  0  0  0  0
  -26.3890  -31.7400   25.1320 C   0  0  1  0  0  0  0  0  0  0  0  0
  -25.3030  -31.5060   26.2080 C   0  0  0  0  0  1  0  0  0  0  0  0
  -26.9650  -30.3600   24.7340 C   0  0  0  0  0  1  0  0  0  0  0  0
  -27.5480  -32.5260   25.7900 C   0  0  0  0  0  1  0  0  0  0  0  0
  -30.8400  -21.9590   18.7960 C   0  0  0  0  0  2  0  0  0  0  0  0
  -30.1610  -20.6200   18.4890 C   0  0  0  0  0  0  0  0  0  0  0  0
  -30.0150  -20.2460   17.3200 O   0  0  0  0  0  0  0  0  0  0  0  0
  -29.6810  -19.7380   19.6470 C   0  0  0  0  0  2  0  0  0  0  0  0
  -30.7100  -18.7660   20.0990 N   0  0  0  0  0  4  0  0  0  0  0  0
  -31.2730  -19.1660   20.8360 H   0  0  0  0  0  0  0  0  0  0  0  0
  -31.3310  -18.5590   19.3290 H   0  0  0  0  0  0  0  0  0  0  0  0
  -30.0690  -17.4960   20.5200 C   0  0  0  0  0  2  0  0  0  0  0  0
  -30.8360  -16.6460   21.5670 C   0  0  0  0  0  2  0  0  0  0  0  0
  -30.7720  -14.4030   20.5510 C   0  0  0  0  0  0  0  0  0  0  0  0
  -30.3660  -12.3400   19.2880 C   0  0  0  0  0  2  0  0  0  0  0  0
  -29.4310  -12.5650   18.0830 C   0  0  0  0  0  2  0  0  0  0  0  0
  -27.9560  -12.4460   18.5010 C   0  0  0  0  0  2  0  0  0  0  0  0
  -27.6290  -13.2600   19.7750 C   0  0  0  0  0  3  0  0  0  0  0  0
  -28.6710  -13.0370   20.8930 C   0  0  0  0  0  2  0  0  0  0  0  0
  -30.0170  -13.2910   20.3530 N   0  0  0  0  0  0  0  0  0  0  0  0
  -31.7620  -14.6710   19.8720 O   0  0  0  0  0  0  0  0  0  0  0  0
  -30.3660  -15.2530   21.5090 N   0  0  0  0  0  0  0  0  0  0  0  0
  -29.6300  -14.9530   22.1350 H   0  0  0  0  0  0  0  0  0  0  0  0
  -25.2200  -13.8850   20.4490 C   0  0  0  0  0  0  0  0  0  0  0  0
  -24.1470  -13.1170   20.8090 C   0  0  0  0  0  0  0  0  0  0  0  0
  -24.6030  -11.7620   20.8050 C   0  0  0  0  0  0  0  0  0  0  0  0
  -26.2660  -12.9970   20.2370 N   0  0  0  0  0  0  0  0  0  0  0  0
  -25.8970  -11.7170   20.5100 N   0  0  0  0  0  0  0  0  0  0  0  0
  -23.8740  -10.5020   21.0040 C   0  0  0  0  0  0  0  0  0  0  0  0
  -24.3040   -9.5410   21.9440 C   0  0  0  0  0  3  0  0  0  0  0  0
  -23.5710   -8.3500   22.1320 C   0  0  0  0  0  3  0  0  0  0  0  0
  -22.3940   -8.1130   21.3830 C   0  0  0  0  0  0  0  0  0  0  0  0
  -21.9890   -9.0620   20.4280 C   0  0  0  0  0  3  0  0  0  0  0  0
  -22.7230  -10.2430   20.2380 C   0  0  0  0  0  3  0  0  0  0  0  0
  -21.6370   -6.9690   21.4760 O   0  0  0  0  0  0  0  0  0  0  0  0
  -21.5950   -6.2300   22.6300 C   0  0  0  0  0  0  0  0  0  0  0  0
  -21.1830   -6.7890   23.8610 C   0  0  0  0  0  3  0  0  0  0  0  0
  -21.0880   -5.9760   25.0080 C   0  0  0  0  0  3  0  0  0  0  0  0
  -21.3880   -4.6020   24.9250 C   0  0  0  0  0  0  0  0  0  0  0  0
  -21.7940   -4.0420   23.7000 C   0  0  0  0  0  3  0  0  0  0  0  0
  -21.8900   -4.8550   22.5550 C   0  0  0  0  0  0  0  0  0  0  0  0
  -22.2570   -4.3050   21.3730 F   0  0  0  0  0  0  0  0  0  0  0  0
  -21.2890   -3.8160   26.0240 F   0  0  0  0  0  0  0  0  0  0  0  0
  -22.7470  -13.5970   21.0630 C   0  0  0  0  0  0  0  0  0  0  0  0
  -22.0100  -12.9150   21.9320 N   0  0  0  0  0  0  0  0  0  0  0  0
  -22.3140  -14.6170   20.5220 O   0  0  0  0  0  0  0  0  0  0  0  0
  -22.3750  -12.0890   22.3810 H   0  0  0  0  0  0  0  0  0  0  0  0
  -21.0720  -13.2230   22.1480 H   0  0  0  0  0  0  0  0  0  0  0  0
  -25.3880  -15.2550   20.2630 N   0  0  0  0  0  0  0  0  0  0  0  0
  -24.6210  -15.9120   20.3780 H   0  0  0  0  0  0  0  0  0  0  0  0
  -26.2500  -15.6920   19.9590 H   0  0  0  0  0  0  0  0  0  0  0  0
  1  3  1  0
  2  4  2  0
  2  5  1  0
  4  6  1  0
  5  1  2  0
  6  7  1  0
  6  3  2  0
  7  9  1  0
  8 19  2  0
  9 14  1  0
 10 18  1  0
 10 20  1  0
 11 17  1  0
 11 13  1  0
 12 18  1  0
 13 12  1  0
 14 13  2  0
 15 16  1  0
 15  9  2  0
 16 11  2  0
 17 10  1  0
 18  8  1  0
 20 22  2  0
 21 20  1  0
 23 21  1  0
 24 33  2  0
 24 29  1  0
 25 21  1  0
 25 29  1  0
 26 25  1  0
 27 28  1  0
 27 26  1  0
 28 24  1  0
 29 30  2  0
 30 31  1  0
 32 31  2  0
 33 32  1  0
 34  8  1  0
 34 35  1  0
 34 44  1  0
 35 38  1  0
 36 40  1  0
 36 35  1  0
 37 36  2  0
 40 39  1  0
 42 40  1  0
 42 43  1  0
 42 41  1  0
 44 47  1  1
 44 45  1  0
 46 44  1  0
 48  5  1  0
 49 48  1  0
 49 51  1  0
 50 49  2  0
 51 52  1  0
 52 55  1  0
 52 53  1  0
 54 52  1  0
 55 56  1  0
 57 65  1  0
 58 63  1  0
 59 60  1  0
 59 58  1  0
 61 60  1  0
 61 70  1  0
 61 62  1  0
 63 57  1  0
 63 62  1  0
 64 57  2  0
 65 56  1  0
 65 66  1  0
 67 68  2  0
 68 87  1  0
 69 68  1  0
 69 72  1  0
 70 67  1  0
 70 71  1  0
 71 69  2  0
 72 73  1  0
 73 74  2  0
 75 78  1  0
 75 74  1  0
 76 75  2  0
 77 76  1  0
 77 72  2  0
 78 79  1  0
 79 80  1  0
 80 81  2  0
 82 81  1  0
 82 86  1  0
 83 82  2  0
 84 79  2  0
 84 83  1  0
 85 84  1  0
 87 88  1  0
 88 91  1  0
 88 90  1  0
 89 87  2  0
 92 93  1  0
 92 67  1  0
 94 92  1  0
M  ISO  4   6 101   7 101  57 100  65 100
M  END
>  <TORSDO>  (31) 
F 22

>  <SCORE>  (31) 
-13.084

>  <name>  (31) 
30

>  <ligand_id>  (31) 
30

>  <original_smiles>  (31) 
[H]c1c([H])c([H])c2c(c1[H])C([H])([H])C([H])([H])C([H])([H])C2([H])N([H])C(=O)C1([H])N(C(=O)C([H])(N([H])C(=O)C([H])(N([H])C([H])([H])[H])C([H])([H])[H])C(C([H])([H])[H])(C([H])([H])[H])C([H])([H])[H])C([H])([H])c2c([H])c(Oc3c([H])c([H])c(C([H])([H])C(=O)C([H])([H])[N+]([H])([H])C([H])([H])C([H])([H])N([H])C(=O)N4C([H])([H])C([H])([H])C([H])([H])C([H])(n5nc(-c6c([H])c([H])c(Oc7c([H])c([H])c(F)c([H])c7F)c([H])c6[H])c(C(=O)N([H])[H])c5N([H])[H])C4([H])[H])c([H])c3[H])c([H])c([H])c2C1([H])[H]

>  <smiles>  (31) 
[H]c1c([H])c([H])c2c(c1[H])C([H])([H])C([H])([H])C([H])([H])C2([H])N([H])C(=O)C1([H])N(C(=O)C([H])(N([H])C(=O)C([H])(N([H])C([H])([H])[H])C([H])([H])[H])C(C([H])([H])[H])(C([H])([H])[H])C([H])([H])[H])C([H])([H])c2c([H])c(Oc3c([H])c([H])c(C([H])([H])C(=O)C([H])([H])[N+]([H])([H])C([H])([H])C([H])([H])N([H])C(=O)N4C([H])([H])C([H])([H])C([H])([H])C([H])(n5nc(-c6c([H])c([H])c(Oc7c([H])c([H])c(F)c([H])c7F)c([H])c6[H])c(C(=O)N([H])[H])c5N([H])[H])C4([H])[H])c([H])c3[H])c([H])c([H])c2C1([H])[H]

$$$$
31:0:0
     RDKit          3D

 91 99  0  0  1  0  0  0  0  0999 V2000
  -29.6620  -20.5580   21.1790 C   0  0  0  0  0  0  0  0  0  0  0  0
  -28.8030  -21.5600   20.6240 C   0  0  0  0  0  0  0  0  0  0  0  0
  -29.4730  -19.2400   21.3930 C   0  0  0  0  0  3  0  0  0  0  0  0
  -30.7520  -21.5610   21.3830 C   0  0  0  0  0  2  0  0  0  0  0  0
  -29.7680  -22.5370   20.8290 N   0  0  0  0  0  0  0  0  0  0  0  0
  -27.6750  -21.5000   20.1840 O   0  0  0  0  0  0  0  0  0  0  0  0
  -30.4660  -18.2810   22.0330 C   0  0  0  0  0  2  0  0  0  0  0  0
  -31.4980  -17.6940   21.0510 C   0  0  0  0  0  2  0  0  0  0  0  0
  -30.9120  -16.8290   19.9210 C   0  0  0  0  0  2  0  0  0  0  0  0
  -31.2040  -14.3690   19.9820 C   0  0  0  0  0  0  0  0  0  0  0  0
  -30.8340  -12.1190   19.0710 C   0  0  0  0  0  2  0  0  0  0  0  0
  -29.8870  -12.2310   17.8590 C   0  0  0  0  0  2  0  0  0  0  0  0
  -28.4170  -12.1640   18.3130 C   0  0  0  0  0  2  0  0  0  0  0  0
  -28.1070  -13.1230   19.4950 C   0  0  0  0  0  3  0  0  0  0  0  0
  -29.1730  -13.0130   20.6080 C   0  0  0  0  0  2  0  0  0  0  0  0
  -30.4960  -13.2120   19.9960 N   0  0  0  0  0  0  0  0  0  0  0  0
  -32.3330  -14.4600   19.4930 O   0  0  0  0  0  0  0  0  0  0  0  0
  -30.5280  -15.4730   20.3380 N   0  0  0  0  0  0  0  0  0  0  0  0
  -29.5960  -15.3400   20.7030 H   0  0  0  0  0  0  0  0  0  0  0  0
  -25.7580  -13.8280   20.2700 C   0  0  0  0  0  0  0  0  0  0  0  0
  -24.6710  -13.1020   20.6730 C   0  0  0  0  0  0  0  0  0  0  0  0
  -25.0740  -11.7330   20.6360 C   0  0  0  0  0  0  0  0  0  0  0  0
  -26.7590  -12.9050   20.0140 N   0  0  0  0  0  0  0  0  0  0  0  0
  -26.3530  -11.6390   20.2920 N   0  0  0  0  0  0  0  0  0  0  0  0
  -24.3020  -10.5010   20.8540 C   0  0  0  0  0  0  0  0  0  0  0  0
  -24.6600   -9.5750   21.8580 C   0  0  0  0  0  3  0  0  0  0  0  0
  -23.8930   -8.4070   22.0580 C   0  0  0  0  0  3  0  0  0  0  0  0
  -22.7540   -8.1590   21.2560 C   0  0  0  0  0  0  0  0  0  0  0  0
  -22.4160   -9.0730   20.2440 C   0  0  0  0  0  3  0  0  0  0  0  0
  -23.1820  -10.2330   20.0420 C   0  0  0  0  0  3  0  0  0  0  0  0
  -21.9640   -7.0410   21.3660 O   0  0  0  0  0  0  0  0  0  0  0  0
  -21.7510   -6.4250   22.5720 C   0  0  0  0  0  0  0  0  0  0  0  0
  -21.1470   -7.0950   23.6570 C   0  0  0  0  0  3  0  0  0  0  0  0
  -20.8840   -6.4020   24.8540 C   0  0  0  0  0  3  0  0  0  0  0  0
  -21.2180   -5.0390   24.9680 C   0  0  0  0  0  0  0  0  0  0  0  0
  -21.8150   -4.3680   23.8870 C   0  0  0  0  0  3  0  0  0  0  0  0
  -22.0790   -5.0590   22.6910 C   0  0  0  0  0  0  0  0  0  0  0  0
  -22.6370   -4.4020   21.6460 F   0  0  0  0  0  0  0  0  0  0  0  0
  -20.9570   -4.3690   26.1150 F   0  0  0  0  0  0  0  0  0  0  0  0
  -23.3040  -13.6390   20.9840 C   0  0  0  0  0  0  0  0  0  0  0  0
  -22.5770  -12.9820   21.8840 N   0  0  0  0  0  0  0  0  0  0  0  0
  -22.8890  -14.6740   20.4660 O   0  0  0  0  0  0  0  0  0  0  0  0
  -22.9260  -12.1450   22.3280 H   0  0  0  0  0  0  0  0  0  0  0  0
  -21.6610  -13.3250   22.1330 H   0  0  0  0  0  0  0  0  0  0  0  0
  -25.9680  -15.1900   20.0810 N   0  0  0  0  0  0  0  0  0  0  0  0
  -25.2180  -15.8620   20.1940 H   0  0  0  0  0  0  0  0  0  0  0  0
  -26.8140  -15.6010   19.7090 H   0  0  0  0  0  0  0  0  0  0  0  0
  -29.8150  -23.9760   20.5660 C   0  0  0  0  0  2  0  0  0  0  0  0
  -28.9640  -24.7760   21.5760 C   0  0  0  0  0  2  0  0  0  0  0  0
  -29.0750  -26.3130   21.4580 C   0  0  0  0  0  2  0  0  0  0  0  0
  -28.5710  -26.7820   20.2060 O   0  0  0  0  0  0  0  0  0  0  0  0
  -24.7270  -31.9440   23.3200 C   0  0  0  0  0  0  0  0  0  0  0  0
  -27.4190  -27.5290   20.2580 C   0  0  0  0  0  0  0  0  0  0  0  0
  -23.5340  -30.5250   21.6810 C   0  0  0  0  0  3  0  0  0  0  0  0
  -25.0060  -28.9990   20.2620 C   0  0  0  0  0  0  0  0  0  0  0  0
  -26.0550  -30.9100   21.4860 C   0  0  0  0  0  2  0  0  0  0  0  0
  -26.1540  -29.5370   20.8580 C   0  0  0  0  0  0  0  0  0  0  0  0
  -27.3630  -28.8070   20.8620 C   0  0  0  0  0  3  0  0  0  0  0  0
  -26.2610  -27.0060   19.6500 C   0  0  0  0  0  3  0  0  0  0  0  0
  -25.0510  -27.7300   19.6570 C   0  0  0  0  0  3  0  0  0  0  0  0
  -23.7520  -29.8440   20.3040 C   0  0  0  0  0  2  0  0  0  0  0  0
  -24.7900  -31.1410   22.2210 N   0  0  0  0  0  0  0  0  0  0  0  0
  -23.6430  -32.2090   23.8600 O   0  0  0  0  0  0  0  0  0  0  0  0
  -22.8930  -29.5000   22.6420 C   0  0  0  0  0  0  0  0  0  0  0  0
  -21.5800  -29.2720   22.4870 N   0  0  0  0  0  0  0  0  0  0  0  0
  -23.5760  -28.9130   23.4870 O   0  0  0  0  0  0  0  0  0  0  0  0
  -21.0910  -29.7990   21.7780 H   0  0  0  0  0  0  0  0  0  0  0  0
  -18.2360  -27.9710   22.9090 C   0  0  0  0  0  0  0  0  0  0  0  0
  -20.7730  -28.3220   23.2520 C   0  0  0  0  0  3  0  0  0  0  0  0
  -20.9440  -26.8850   22.7100 C   0  0  0  0  0  2  0  0  0  0  0  0
  -19.8850  -26.5030   21.6700 C   0  0  0  0  0  2  0  0  0  0  0  0
  -18.4800  -26.6130   22.2700 C   0  0  0  0  0  2  0  0  0  0  0  0
  -19.3140  -28.7800   23.3550 C   0  0  0  0  0  0  0  0  0  0  0  0
  -19.0360  -30.0470   23.9120 C   0  0  0  0  0  3  0  0  0  0  0  0
  -17.7100  -30.5080   24.0240 C   0  0  0  0  0  3  0  0  0  0  0  0
  -16.6460  -29.6950   23.5960 C   0  0  0  0  0  3  0  0  0  0  0  0
  -16.9090  -28.4290   23.0450 C   0  0  0  0  0  3  0  0  0  0  0  0
  -26.0070  -32.5880   23.9380 C   0  0  0  0  0  3  0  0  0  0  0  0
  -25.6990  -33.9950   24.2260 N   0  0  0  0  0  0  0  0  0  0  0  0
  -26.0470  -35.0260   23.4420 C   0  0  0  0  0  0  0  0  0  0  0  0
  -26.7280  -34.8900   22.4220 O   0  0  0  0  0  0  0  0  0  0  0  0
  -25.0930  -34.1760   25.0130 H   0  0  0  0  0  0  0  0  0  0  0  0
  -24.3270  -36.8100   23.0160 C   0  0  0  0  0  1  0  0  0  0  0  0
  -25.5570  -36.4250   23.8550 C   0  0  0  0  0  3  0  0  0  0  0  0
  -27.6760  -37.3340   24.6980 C   0  0  0  0  0  1  0  0  0  0  0  0
  -26.5940  -37.4720   23.7260 N   0  0  0  0  0  0  0  0  0  0  0  0
  -26.1890  -38.3970   23.8330 H   0  0  0  0  0  0  0  0  0  0  0  0
  -26.5130  -31.8460   25.2360 C   0  0  1  0  0  0  0  0  0  0  0  0
  -25.4020  -31.6030   26.2830 C   0  0  0  0  0  1  0  0  0  0  0  0
  -27.1300  -30.4740   24.8780 C   0  0  0  0  0  1  0  0  0  0  0  0
  -27.6330  -32.6730   25.9110 C   0  0  0  0  0  1  0  0  0  0  0  0
  1  4  1  0
  1  3  2  0
  2  5  1  0
  2  1  1  0
  3  7  1  0
  5  4  1  0
  6  2  2  0
  8  7  1  0
  9 18  1  0
  9  8  1  0
 10 16  1  0
 10 18  1  0
 11 16  1  0
 12 13  1  0
 12 11  1  0
 14 13  1  0
 14 23  1  0
 14 15  1  0
 16 15  1  0
 17 10  2  0
 18 19  1  0
 20 21  2  0
 21 40  1  0
 22 21  1  0
 22 25  1  0
 23 20  1  0
 23 24  1  0
 24 22  2  0
 25 26  1  0
 26 27  2  0
 28 31  1  0
 28 27  1  0
 29 28  2  0
 30 29  1  0
 30 25  2  0
 31 32  1  0
 32 37  2  0
 32 33  1  0
 33 34  2  0
 34 35  1  0
 35 39  1  0
 36 35  2  0
 37 36  1  0
 38 37  1  0
 40 41  1  0
 41 44  1  0
 41 43  1  0
 42 40  2  0
 45 46  1  0
 45 20  1  0
 47 45  1  0
 48  5  1  0
 48 49  1  0
 50 49  1  0
 51 53  1  0
 51 50  1  0
 52 63  2  0
 53 58  1  0
 54 62  1  0
 54 64  1  0
 55 61  1  0
 55 57  1  0
 56 62  1  0
 57 58  2  0
 57 56  1  0
 59 60  1  0
 59 53  2  0
 60 55  2  0
 61 54  1  0
 62 52  1  0
 64 66  2  0
 65 64  1  0
 67 65  1  0
 68 77  2  0
 68 73  1  0
 69 65  1  0
 69 73  1  0
 70 69  1  0
 71 72  1  0
 71 70  1  0
 72 68  1  0
 73 74  2  0
 74 75  1  0
 76 75  2  0
 77 76  1  0
 78 52  1  0
 78 79  1  0
 78 88  1  0
 79 82  1  0
 80 84  1  0
 80 79  1  0
 81 80  2  0
 84 83  1  0
 86 87  1  0
 86 84  1  0
 86 85  1  0
 88 91  1  1
 88 89  1  0
 90 88  1  0
M  ISO  4  10 100  18 100  50 101  51 101
M  END
>  <TORSDO>  (32) 
F 22

>  <SCORE>  (32) 
-12.132

>  <name>  (32) 
31

>  <ligand_id>  (32) 
31

>  <original_smiles>  (32) 
[H]C(=C1C(=O)N(C([H])([H])C([H])([H])C([H])([H])Oc2c([H])c([H])c3c(c2[H])C([H])([H])N(C(=O)C([H])(N([H])C(=O)C([H])(N([H])C([H])([H])[H])C([H])([H])[H])C(C([H])([H])[H])(C([H])([H])[H])C([H])([H])[H])C([H])(C(=O)N([H])C2([H])c4c([H])c([H])c([H])c([H])c4C([H])([H])C([H])([H])C2([H])[H])C3([H])[H])C1([H])[H])C([H])([H])C([H])([H])C([H])([H])N([H])C(=O)N1C([H])([H])C([H])([H])C([H])([H])C([H])(n2nc(-c3c([H])c([H])c(Oc4c([H])c([H])c(F)c([H])c4F)c([H])c3[H])c(C(=O)N([H])[H])c2N([H])[H])C1([H])[H]

>  <smiles>  (32) 
[H]C(=C1C(=O)N(C([H])([H])C([H])([H])C([H])([H])Oc2c([H])c([H])c3c(c2[H])C([H])([H])N(C(=O)C([H])(N([H])C(=O)C([H])(N([H])C([H])([H])[H])C([H])([H])[H])C(C([H])([H])[H])(C([H])([H])[H])C([H])([H])[H])C([H])(C(=O)N([H])C2([H])c4c([H])c([H])c([H])c([H])c4C([H])([H])C([H])([H])C2([H])[H])C3([H])[H])C1([H])[H])C([H])([H])C([H])([H])C([H])([H])N([H])C(=O)N1C([H])([H])C([H])([H])C([H])([H])C([H])(n2nc(-c3c([H])c([H])c(Oc4c([H])c([H])c(F)c([H])c4F)c([H])c3[H])c(C(=O)N([H])[H])c2N([H])[H])C1([H])[H]

$$$$
32:0:0
     RDKit          3D

 94102  0  0  1  0  0  0  0  0999 V2000
  -30.5060  -21.4390   23.1260 C   0  0  0  0  0  2  0  0  0  0  0  0
  -29.9020  -20.1010   23.0010 N   0  0  0  0  0  0  0  0  0  0  0  0
  -28.9050  -20.0470   23.2010 H   0  0  0  0  0  0  0  0  0  0  0  0
  -31.3760  -18.9540   19.7870 C   0  0  0  0  0  3  0  0  0  0  0  0
  -30.9690  -19.7840   20.8320 C   0  0  0  0  0  3  0  0  0  0  0  0
  -30.2360  -17.8260   22.0770 C   0  0  0  0  0  3  0  0  0  0  0  0
  -31.2000  -17.5590   19.8520 C   0  0  0  0  0  0  0  0  0  0  0  0
  -30.3650  -19.2420   21.9830 C   0  0  0  0  0  0  0  0  0  0  0  0
  -30.6870  -16.9530   21.0410 C   0  0  0  0  0  0  0  0  0  0  0  0
  -31.5250  -16.7910   18.5830 C   0  0  0  0  0  1  0  0  0  0  0  0
  -31.1670  -14.5190   20.5420 C   0  0  0  0  0  0  0  0  0  0  0  0
  -30.8280  -12.4370   19.2590 C   0  0  0  0  0  2  0  0  0  0  0  0
  -29.8750  -12.6590   18.0600 C   0  0  0  0  0  2  0  0  0  0  0  0
  -28.4020  -12.5340   18.4950 C   0  0  0  0  0  2  0  0  0  0  0  0
  -28.0870  -13.3560   19.7710 C   0  0  0  0  0  3  0  0  0  0  0  0
  -29.1290  -13.0780   20.8800 C   0  0  0  0  0  2  0  0  0  0  0  0
  -30.4580  -13.3770   20.3310 N   0  0  0  0  0  0  0  0  0  0  0  0
  -32.3050  -14.6680   20.0840 O   0  0  0  0  0  0  0  0  0  0  0  0
  -30.5100  -15.5230   21.1770 N   0  0  0  0  0  0  0  0  0  0  0  0
  -29.7000  -15.2340   21.7040 H   0  0  0  0  0  0  0  0  0  0  0  0
  -25.6930  -14.0340   20.4340 C   0  0  0  0  0  0  0  0  0  0  0  0
  -24.5980  -13.2970   20.7850 C   0  0  0  0  0  0  0  0  0  0  0  0
  -25.0170  -11.9300   20.7490 C   0  0  0  0  0  0  0  0  0  0  0  0
  -26.7180  -13.1260   20.2220 N   0  0  0  0  0  0  0  0  0  0  0  0
  -26.3100  -11.8550   20.4600 N   0  0  0  0  0  0  0  0  0  0  0  0
  -24.2550  -10.6890   20.9290 C   0  0  0  0  0  0  0  0  0  0  0  0
  -24.6240   -9.7300   21.8970 C   0  0  0  0  0  3  0  0  0  0  0  0
  -23.8610   -8.5540   22.0660 C   0  0  0  0  0  3  0  0  0  0  0  0
  -22.7160   -8.3300   21.2680 C   0  0  0  0  0  0  0  0  0  0  0  0
  -22.3650   -9.2800   20.2900 C   0  0  0  0  0  3  0  0  0  0  0  0
  -23.1280  -10.4470   20.1200 C   0  0  0  0  0  3  0  0  0  0  0  0
  -21.9330   -7.2020   21.3440 O   0  0  0  0  0  0  0  0  0  0  0  0
  -21.7720   -6.5140   22.5200 C   0  0  0  0  0  0  0  0  0  0  0  0
  -21.2330   -7.1270   23.6740 C   0  0  0  0  0  3  0  0  0  0  0  0
  -21.0200   -6.3670   24.8420 C   0  0  0  0  0  3  0  0  0  0  0  0
  -21.3300   -4.9930   24.8530 C   0  0  0  0  0  0  0  0  0  0  0  0
  -21.8580   -4.3790   23.7050 C   0  0  0  0  0  3  0  0  0  0  0  0
  -22.0750   -5.1360   22.5420 C   0  0  0  0  0  0  0  0  0  0  0  0
  -22.5640   -4.5330   21.4300 F   0  0  0  0  0  0  0  0  0  0  0  0
  -21.1180   -4.2630   25.9720 F   0  0  0  0  0  0  0  0  0  0  0  0
  -23.2120  -13.8100   21.0470 C   0  0  0  0  0  0  0  0  0  0  0  0
  -22.4680  -13.1370   21.9180 N   0  0  0  0  0  0  0  0  0  0  0  0
  -22.8040  -14.8430   20.5200 O   0  0  0  0  0  0  0  0  0  0  0  0
  -22.8200  -12.2930   22.3460 H   0  0  0  0  0  0  0  0  0  0  0  0
  -21.5410  -13.4600   22.1550 H   0  0  0  0  0  0  0  0  0  0  0  0
  -25.9100  -15.3980   20.2550 N   0  0  0  0  0  0  0  0  0  0  0  0
  -25.1720  -16.0880   20.3330 H   0  0  0  0  0  0  0  0  0  0  0  0
  -26.7830  -15.7880   19.9210 H   0  0  0  0  0  0  0  0  0  0  0  0
  -29.6560  -22.5910   22.5370 C   0  0  0  0  0  2  0  0  0  0  0  0
  -30.4760  -23.8780   22.2930 C   0  0  0  0  0  2  0  0  0  0  0  0
  -29.6230  -25.0770   21.8320 C   0  0  0  0  0  2  0  0  0  0  0  0
  -30.3620  -26.0090   20.8540 C   0  0  0  0  0  2  0  0  0  0  0  0
  -29.5200  -27.2370   20.4940 C   0  0  0  0  0  2  0  0  0  0  0  0
  -28.3330  -26.7760   19.8530 O   0  0  0  0  0  0  0  0  0  0  0  0
  -24.4980  -31.8230   23.1450 C   0  0  0  0  0  0  0  0  0  0  0  0
  -27.1800  -27.5220   19.9500 C   0  0  0  0  0  0  0  0  0  0  0  0
  -23.2800  -30.4400   21.4860 C   0  0  0  0  0  3  0  0  0  0  0  0
  -24.7350  -28.9390   20.0230 C   0  0  0  0  0  0  0  0  0  0  0  0
  -25.7900  -30.8450   21.2600 C   0  0  0  0  0  2  0  0  0  0  0  0
  -25.8840  -29.4900   20.5980 C   0  0  0  0  0  0  0  0  0  0  0  0
  -27.1050  -28.7950   20.5610 C   0  0  0  0  0  3  0  0  0  0  0  0
  -26.0100  -26.9690   19.3850 C   0  0  0  0  0  3  0  0  0  0  0  0
  -24.7880  -27.6690   19.4170 C   0  0  0  0  0  3  0  0  0  0  0  0
  -23.4790  -29.7760   20.0950 C   0  0  0  0  0  2  0  0  0  0  0  0
  -24.5390  -31.0490   22.0230 N   0  0  0  0  0  0  0  0  0  0  0  0
  -23.4220  -32.0730   23.7050 O   0  0  0  0  0  0  0  0  0  0  0  0
  -22.6510  -29.3980   22.4370 C   0  0  0  0  0  0  0  0  0  0  0  0
  -21.3260  -29.2120   22.3260 N   0  0  0  0  0  0  0  0  0  0  0  0
  -23.3500  -28.7590   23.2270 O   0  0  0  0  0  0  0  0  0  0  0  0
  -20.8230  -29.7860   21.6630 H   0  0  0  0  0  0  0  0  0  0  0  0
  -17.9660  -28.0040   22.8510 C   0  0  0  0  0  0  0  0  0  0  0  0
  -20.5260  -28.2580   23.0920 C   0  0  0  0  0  3  0  0  0  0  0  0
  -20.6240  -26.8420   22.4820 C   0  0  0  0  0  2  0  0  0  0  0  0
  -19.5070  -26.5370   21.4770 C   0  0  0  0  0  2  0  0  0  0  0  0
  -18.1340  -26.6700   22.1440 C   0  0  0  0  0  2  0  0  0  0  0  0
  -19.0910  -28.7580   23.2800 C   0  0  0  0  0  0  0  0  0  0  0  0
  -18.8810  -30.0090   23.8990 C   0  0  0  0  0  3  0  0  0  0  0  0
  -17.5810  -30.5060   24.0970 C   0  0  0  0  0  3  0  0  0  0  0  0
  -16.4700  -29.7510   23.6820 C   0  0  0  0  0  3  0  0  0  0  0  0
  -16.6640  -28.5010   23.0640 C   0  0  0  0  0  3  0  0  0  0  0  0
  -25.7890  -32.4490   23.7590 C   0  0  0  0  0  3  0  0  0  0  0  0
  -25.4820  -33.8400   24.1150 N   0  0  0  0  0  0  0  0  0  0  0  0
  -25.8210  -34.9050   23.3760 C   0  0  0  0  0  0  0  0  0  0  0  0
  -26.4970  -34.8200   22.3450 O   0  0  0  0  0  0  0  0  0  0  0  0
  -24.8870  -33.9830   24.9180 H   0  0  0  0  0  0  0  0  0  0  0  0
  -24.1130  -36.7150   23.0180 C   0  0  0  0  0  1  0  0  0  0  0  0
  -25.3310  -36.2860   23.8520 C   0  0  0  0  0  3  0  0  0  0  0  0
  -27.4480  -37.1400   24.7580 C   0  0  0  0  0  1  0  0  0  0  0  0
  -26.3730  -37.3360   23.7870 N   0  0  0  0  0  0  0  0  0  0  0  0
  -25.9690  -38.2540   23.9480 H   0  0  0  0  0  0  0  0  0  0  0  0
  -26.3300  -31.6560   25.0120 C   0  0  1  0  0  0  0  0  0  0  0  0
  -25.2530  -31.3830   26.0880 C   0  0  0  0  0  1  0  0  0  0  0  0
  -26.9280  -30.2950   24.5850 C   0  0  0  0  0  1  0  0  0  0  0  0
  -27.4760  -32.4500   25.6810 C   0  0  0  0  0  1  0  0  0  0  0  0
  2  1  1  0
  2  3  1  0
  4  7  2  0
  4  5  1  0
  5  8  2  0
  7  9  1  0
  8  6  1  0
  8  2  1  0
  9 19  1  0
  9  6  2  0
 10  7  1  0
 11 19  1  0
 12 17  1  0
 13 14  1  0
 13 12  1  0
 15 14  1  0
 15 24  1  0
 15 16  1  0
 17 11  1  0
 17 16  1  0
 18 11  2  0
 19 20  1  0
 21 22  2  0
 22 41  1  0
 23 22  1  0
 23 26  1  0
 24 21  1  0
 24 25  1  0
 25 23  2  0
 26 27  1  0
 27 28  2  0
 29 32  1  0
 29 28  1  0
 30 29  2  0
 31 30  1  0
 31 26  2  0
 32 33  1  0
 33 38  2  0
 33 34  1  0
 34 35  2  0
 35 36  1  0
 36 40  1  0
 37 36  2  0
 38 37  1  0
 39 38  1  0
 41 42  1  0
 42 45  1  0
 42 44  1  0
 43 41  2  0
 46 47  1  0
 46 21  1  0
 48 46  1  0
 49  1  1  0
 50 49  1  0
 51 50  1  0
 52 51  1  0
 53 52  1  0
 54 56  1  0
 54 53  1  0
 55 66  2  0
 56 61  1  0
 57 65  1  0
 57 67  1  0
 58 64  1  0
 58 60  1  0
 59 65  1  0
 60 59  1  0
 61 60  2  0
 62 63  1  0
 62 56  2  0
 63 58  2  0
 64 57  1  0
 65 55  1  0
 67 69  2  0
 68 67  1  0
 70 68  1  0
 71 80  2  0
 71 76  1  0
 72 68  1  0
 72 76  1  0
 73 72  1  0
 74 75  1  0
 74 73  1  0
 75 71  1  0
 76 77  2  0
 77 78  1  0
 79 78  2  0
 80 79  1  0
 81 55  1  0
 81 82  1  0
 81 91  1  0
 82 85  1  0
 83 87  1  0
 83 82  1  0
 84 83  2  0
 87 86  1  0
 89 87  1  0
 89 90  1  0
 89 88  1  0
 91 94  1  1
 91 92  1  0
 93 91  1  0
M  ISO  4  11 100  19 100  53 101  54 101
M  END
>  <TORSDO>  (33) 
F 23

>  <SCORE>  (33) 
-11.866

>  <name>  (33) 
32

>  <ligand_id>  (33) 
32

>  <original_smiles>  (33) 
[H]c1c([H])c([H])c2c(c1[H])C([H])([H])C([H])([H])C([H])([H])C2([H])N([H])C(=O)C1([H])N(C(=O)C([H])(N([H])C(=O)C([H])(N([H])C([H])([H])[H])C([H])([H])[H])C(C([H])([H])[H])(C([H])([H])[H])C([H])([H])[H])C([H])([H])c2c([H])c(OC([H])([H])C([H])([H])C([H])([H])C([H])([H])C([H])([H])C([H])([H])N([H])c3c([H])c([H])c(C([H])([H])[H])c(N([H])C(=O)N4C([H])([H])C([H])([H])C([H])([H])C([H])(n5nc(-c6c([H])c([H])c(Oc7c([H])c([H])c(F)c([H])c7F)c([H])c6[H])c(C(=O)N([H])[H])c5N([H])[H])C4([H])[H])c3[H])c([H])c([H])c2C1([H])[H]

>  <smiles>  (33) 
[H]c1c([H])c([H])c2c(c1[H])C([H])([H])C([H])([H])C([H])([H])C2([H])N([H])C(=O)C1([H])N(C(=O)C([H])(N([H])C(=O)C([H])(N([H])C([H])([H])[H])C([H])([H])[H])C(C([H])([H])[H])(C([H])([H])[H])C([H])([H])[H])C([H])([H])c2c([H])c(OC([H])([H])C([H])([H])C([H])([H])C([H])([H])C([H])([H])C([H])([H])N([H])c3c([H])c([H])c(C([H])([H])[H])c(N([H])C(=O)N4C([H])([H])C([H])([H])C([H])([H])C([H])(n5nc(-c6c([H])c([H])c(Oc7c([H])c([H])c(F)c([H])c7F)c([H])c6[H])c(C(=O)N([H])[H])c5N([H])[H])C4([H])[H])c3[H])c([H])c([H])c2C1([H])[H]

$$$$
33:0:0
     RDKit          3D

 91 99  0  0  1  0  0  0  0  0999 V2000
  -30.6510  -23.0740   18.5300 C   0  0  0  0  0  2  0  0  0  0  0  0
  -29.1420  -23.4850   19.9450 C   0  0  0  0  0  2  0  0  0  0  0  0
  -29.6730  -22.1900   19.3120 C   0  0  0  0  0  3  0  0  0  0  0  0
  -29.6450  -24.2270   18.6940 C   0  0  0  0  0  3  0  0  0  0  0  0
  -30.0940  -19.8790   20.2390 C   0  0  0  0  0  3  0  0  0  0  0  0
  -30.3200  -21.2060   20.2700 C   0  0  0  0  0  3  0  0  0  0  0  0
  -30.3460  -17.6070   20.9880 C   0  0  0  0  0  3  0  0  0  0  0  0
  -30.6920  -18.9040   21.1400 C   0  0  0  0  0  0  0  0  0  0  0  0
  -31.6680  -19.3490   22.2200 C   0  0  0  0  0  1  0  0  0  0  0  0
  -30.8410  -16.4380   21.8290 C   0  0  0  0  0  2  0  0  0  0  0  0
  -30.7340  -14.3560   20.4520 C   0  0  0  0  0  0  0  0  0  0  0  0
  -30.3380  -12.3000   19.1460 C   0  0  0  0  0  2  0  0  0  0  0  0
  -29.3680  -12.5770   17.9810 C   0  0  0  0  0  2  0  0  0  0  0  0
  -27.9030  -12.4390   18.4400 C   0  0  0  0  0  2  0  0  0  0  0  0
  -27.6120  -13.2280   19.7440 C   0  0  0  0  0  3  0  0  0  0  0  0
  -28.6850  -12.9270   20.8150 C   0  0  0  0  0  2  0  0  0  0  0  0
  -30.0120  -13.2250   20.2410 N   0  0  0  0  0  0  0  0  0  0  0  0
  -31.7550  -14.6380   19.8170 O   0  0  0  0  0  0  0  0  0  0  0  0
  -30.2600  -15.1630   21.4090 N   0  0  0  0  0  0  0  0  0  0  0  0
  -29.4320  -14.8470   21.8930 H   0  0  0  0  0  0  0  0  0  0  0  0
  -25.2240  -13.8430   20.4880 C   0  0  0  0  0  0  0  0  0  0  0  0
  -24.1600  -13.0730   20.8740 C   0  0  0  0  0  0  0  0  0  0  0  0
  -24.6170  -11.7200   20.8330 C   0  0  0  0  0  0  0  0  0  0  0  0
  -26.2640  -12.9590   20.2410 N   0  0  0  0  0  0  0  0  0  0  0  0
  -25.9010  -11.6770   20.5020 N   0  0  0  0  0  0  0  0  0  0  0  0
  -23.8910  -10.4590   21.0350 C   0  0  0  0  0  0  0  0  0  0  0  0
  -24.3460   -9.4840   21.9500 C   0  0  0  0  0  3  0  0  0  0  0  0
  -23.6220   -8.2870   22.1400 C   0  0  0  0  0  3  0  0  0  0  0  0
  -22.4280   -8.0580   21.4150 C   0  0  0  0  0  0  0  0  0  0  0  0
  -21.9920   -9.0220   20.4890 C   0  0  0  0  0  3  0  0  0  0  0  0
  -22.7180  -10.2090   20.2970 C   0  0  0  0  0  3  0  0  0  0  0  0
  -21.6740   -6.9140   21.5150 O   0  0  0  0  0  0  0  0  0  0  0  0
  -21.6630   -6.1550   22.6580 C   0  0  0  0  0  0  0  0  0  0  0  0
  -21.2910   -6.6960   23.9080 C   0  0  0  0  0  3  0  0  0  0  0  0
  -21.2270   -5.8660   25.0450 C   0  0  0  0  0  3  0  0  0  0  0  0
  -21.5240   -4.4940   24.9320 C   0  0  0  0  0  0  0  0  0  0  0  0
  -21.8880   -3.9520   23.6870 C   0  0  0  0  0  3  0  0  0  0  0  0
  -21.9550   -4.7810   22.5540 C   0  0  0  0  0  0  0  0  0  0  0  0
  -22.2850   -4.2490   21.3520 F   0  0  0  0  0  0  0  0  0  0  0  0
  -21.4550   -3.6930   26.0210 F   0  0  0  0  0  0  0  0  0  0  0  0
  -22.7690  -13.5520   21.1740 C   0  0  0  0  0  0  0  0  0  0  0  0
  -22.0570  -12.8560   22.0530 N   0  0  0  0  0  0  0  0  0  0  0  0
  -22.3220  -14.5800   20.6660 O   0  0  0  0  0  0  0  0  0  0  0  0
  -22.4300  -12.0250   22.4870 H   0  0  0  0  0  0  0  0  0  0  0  0
  -21.1250  -13.1600   22.2980 H   0  0  0  0  0  0  0  0  0  0  0  0
  -25.3920  -15.2130   20.3100 N   0  0  0  0  0  0  0  0  0  0  0  0
  -24.6340  -15.8770   20.4320 H   0  0  0  0  0  0  0  0  0  0  0  0
  -26.2490  -15.6450   19.9870 H   0  0  0  0  0  0  0  0  0  0  0  0
  -30.1540  -25.6660   18.7770 C   0  0  0  0  0  2  0  0  0  0  0  0
  -29.0360  -26.7200   18.8070 C   0  0  0  0  0  2  0  0  0  0  0  0
  -28.4310  -26.7800   20.0950 O   0  0  0  0  0  0  0  0  0  0  0  0
  -24.5930  -31.8900   23.2230 C   0  0  0  0  0  0  0  0  0  0  0  0
  -27.2590  -27.4900   20.1240 C   0  0  0  0  0  0  0  0  0  0  0  0
  -23.3900  -30.4880   21.5760 C   0  0  0  0  0  3  0  0  0  0  0  0
  -24.8500  -28.9550   20.1530 C   0  0  0  0  0  0  0  0  0  0  0  0
  -25.9120  -30.8580   21.3820 C   0  0  0  0  0  2  0  0  0  0  0  0
  -26.0020  -29.4880   20.7450 C   0  0  0  0  0  0  0  0  0  0  0  0
  -27.2090  -28.7560   20.7410 C   0  0  0  0  0  3  0  0  0  0  0  0
  -26.0920  -26.9530   19.5430 C   0  0  0  0  0  3  0  0  0  0  0  0
  -24.8860  -27.6820   19.5540 C   0  0  0  0  0  3  0  0  0  0  0  0
  -23.6020  -29.8070   20.1970 C   0  0  0  0  0  2  0  0  0  0  0  0
  -24.6490  -31.0930   22.1190 N   0  0  0  0  0  0  0  0  0  0  0  0
  -23.5120  -32.1590   23.7640 O   0  0  0  0  0  0  0  0  0  0  0  0
  -22.7420  -29.4630   22.5350 C   0  0  0  0  0  0  0  0  0  0  0  0
  -21.4170  -29.2820   22.4090 N   0  0  0  0  0  0  0  0  0  0  0  0
  -23.4260  -28.8350   23.3460 O   0  0  0  0  0  0  0  0  0  0  0  0
  -20.9260  -29.8420   21.7250 H   0  0  0  0  0  0  0  0  0  0  0  0
  -18.0410  -28.0990   22.9090 C   0  0  0  0  0  0  0  0  0  0  0  0
  -20.6000  -28.3430   23.1760 C   0  0  0  0  0  3  0  0  0  0  0  0
  -20.6950  -26.9150   22.5900 C   0  0  0  0  0  2  0  0  0  0  0  0
  -19.5890  -26.6040   21.5770 C   0  0  0  0  0  2  0  0  0  0  0  0
  -18.2100  -26.7520   22.2250 C   0  0  0  0  0  2  0  0  0  0  0  0
  -19.1640  -28.8530   23.3410 C   0  0  0  0  0  0  0  0  0  0  0  0
  -18.9540  -30.1140   23.9390 C   0  0  0  0  0  3  0  0  0  0  0  0
  -17.6530  -30.6230   24.1090 C   0  0  0  0  0  3  0  0  0  0  0  0
  -16.5440  -29.8650   23.6950 C   0  0  0  0  0  3  0  0  0  0  0  0
  -16.7390  -28.6050   23.1010 C   0  0  0  0  0  3  0  0  0  0  0  0
  -25.8800  -32.5190   23.8450 C   0  0  0  0  0  3  0  0  0  0  0  0
  -25.5710  -33.9160   24.1780 N   0  0  0  0  0  0  0  0  0  0  0  0
  -25.9080  -34.9700   23.4230 C   0  0  0  0  0  0  0  0  0  0  0  0
  -26.5840  -34.8690   22.3950 O   0  0  0  0  0  0  0  0  0  0  0  0
  -24.9700  -34.0680   24.9750 H   0  0  0  0  0  0  0  0  0  0  0  0
  -24.1840  -36.7640   23.0570 C   0  0  0  0  0  1  0  0  0  0  0  0
  -25.4170  -36.3570   23.8810 C   0  0  0  0  0  3  0  0  0  0  0  0
  -27.5460  -37.2340   24.7330 C   0  0  0  0  0  1  0  0  0  0  0  0
  -26.4500  -37.4100   23.7820 N   0  0  0  0  0  0  0  0  0  0  0  0
  -26.0430  -38.3290   23.9340 H   0  0  0  0  0  0  0  0  0  0  0  0
  -26.4020  -31.7440   25.1160 C   0  0  1  0  0  0  0  0  0  0  0  0
  -25.3120  -31.5000   26.1850 C   0  0  0  0  0  1  0  0  0  0  0  0
  -26.9860  -30.3690   24.7140 C   0  0  0  0  0  1  0  0  0  0  0  0
  -27.5530  -32.5370   25.7790 C   0  0  0  0  0  1  0  0  0  0  0  0
  1  4  1  0
  1  3  1  0
  3  2  1  0
  3  6  1  0
  4 49  1  0
  4  2  1  0
  5  6  2  0
  5  8  1  0
  7  8  2  0
  7 10  1  0
  8  9  1  0
 11 19  1  0
 12 17  1  0
 13 14  1  0
 13 12  1  0
 15 14  1  0
 15 24  1  0
 15 16  1  0
 17 11  1  0
 17 16  1  0
 18 11  2  0
 19 10  1  0
 19 20  1  0
 21 22  2  0
 22 41  1  0
 23 22  1  0
 23 26  1  0
 24 21  1  0
 24 25  1  0
 25 23  2  0
 26 27  1  0
 27 28  2  0
 29 32  1  0
 29 28  1  0
 30 29  2  0
 31 30  1  0
 31 26  2  0
 32 33  1  0
 33 34  1  0
 34 35  2  0
 36 35  1  0
 36 40  1  0
 37 36  2  0
 38 33  2  0
 38 37  1  0
 39 38  1  0
 41 42  1  0
 42 45  1  0
 42 44  1  0
 43 41  2  0
 46 47  1  0
 46 21  1  0
 48 46  1  0
 49 50  1  0
 50 51  1  0
 51 53  1  0
 52 63  2  0
 53 58  1  0
 54 62  1  0
 54 64  1  0
 55 61  1  0
 55 57  1  0
 56 62  1  0
 57 56  1  0
 58 57  2  0
 59 60  1  0
 59 53  2  0
 60 55  2  0
 61 54  1  0
 62 52  1  0
 64 66  2  0
 65 64  1  0
 67 65  1  0
 68 77  2  0
 68 73  1  0
 69 65  1  0
 69 73  1  0
 70 69  1  0
 71 72  1  0
 71 70  1  0
 72 68  1  0
 73 74  2  0
 74 75  1  0
 76 75  2  0
 77 76  1  0
 78 52  1  0
 78 79  1  0
 78 88  1  0
 79 82  1  0
 80 84  1  0
 80 79  1  0
 81 80  2  0
 84 83  1  0
 86 84  1  0
 86 87  1  0
 86 85  1  0
 88 91  1  1
 88 89  1  0
 90 88  1  0
M  ISO  4  11 100  19 100  50 101  51 101
M  END
>  <TORSDO>  (34) 
F 21

>  <SCORE>  (34) 
-13.564

>  <name>  (34) 
33

>  <ligand_id>  (34) 
33

>  <original_smiles>  (34) 
[H]C(C(=C([H])C([H])([H])N([H])C(=O)N1C([H])([H])C([H])([H])C([H])([H])C([H])(n2nc(-c3c([H])c([H])c(Oc4c([H])c([H])c(F)c([H])c4F)c([H])c3[H])c(C(=O)N([H])[H])c2N([H])[H])C1([H])[H])C([H])([H])[H])=C([H])C1([H])C([H])([H])C([H])(C([H])([H])C([H])([H])Oc2c([H])c([H])c3c(c2[H])C([H])([H])N(C(=O)C([H])(N([H])C(=O)C([H])(N([H])C([H])([H])[H])C([H])([H])[H])C(C([H])([H])[H])(C([H])([H])[H])C([H])([H])[H])C([H])(C(=O)N([H])C2([H])c4c([H])c([H])c([H])c([H])c4C([H])([H])C([H])([H])C2([H])[H])C3([H])[H])C1([H])[H]

>  <smiles>  (34) 
[H]C(C(=C([H])C([H])([H])N([H])C(=O)N1C([H])([H])C([H])([H])C([H])([H])C([H])(n2nc(-c3c([H])c([H])c(Oc4c([H])c([H])c(F)c([H])c4F)c([H])c3[H])c(C(=O)N([H])[H])c2N([H])[H])C1([H])[H])C([H])([H])[H])=C([H])C1([H])C([H])([H])C([H])(C([H])([H])C([H])([H])Oc2c([H])c([H])c3c(c2[H])C([H])([H])N(C(=O)C([H])(N([H])C(=O)C([H])(N([H])C([H])([H])[H])C([H])([H])[H])C(C([H])([H])[H])(C([H])([H])[H])C([H])([H])[H])C([H])(C(=O)N([H])C2([H])c4c([H])c([H])c([H])c([H])c4C([H])([H])C([H])([H])C2([H])[H])C3([H])[H])C1([H])[H]

$$$$
34:0:0
     RDKit          3D

 98106  0  0  1  0  0  0  0  0999 V2000
  -28.8270  -19.9460   20.8060 C   0  0  0  0  0  0  0  0  0  0  0  0
  -29.2720  -19.9810   19.3160 C   0  0  0  0  0  3  0  0  0  0  0  0
  -29.1550  -21.4570   20.9920 C   0  0  0  0  0  3  0  0  0  0  0  0
  -28.9890  -21.6070   19.4650 C   0  0  0  0  0  3  0  0  0  0  0  0
  -28.3430  -19.0880   21.5500 O   0  0  0  0  0  0  0  0  0  0  0  0
  -29.7820  -22.7840   18.8830 N   0  0  0  0  0  4  0  0  0  0  0  0
  -30.5830  -22.9770   19.4650 H   0  0  0  0  0  0  0  0  0  0  0  0
  -30.1580  -22.4580   18.0070 H   0  0  0  0  0  0  0  0  0  0  0  0
  -29.0840  -24.1300   18.5350 C   0  0  0  0  0  2  0  0  0  0  0  0
  -28.7410  -25.2570   19.6490 C   0  0  0  0  0  2  0  0  0  0  0  0
  -28.6510  -26.7200   19.3040 O   0  0  0  0  0  0  0  0  0  0  0  0
  -24.5320  -31.4520   22.9910 C   0  0  0  0  0  0  0  0  0  0  0  0
  -27.4520  -27.4540   19.4310 C   0  0  0  0  0  0  0  0  0  0  0  0
  -23.4150  -30.1670   21.1970 C   0  0  0  0  0  3  0  0  0  0  0  0
  -24.9650  -28.8830   19.6120 C   0  0  0  0  0  0  0  0  0  0  0  0
  -25.9220  -30.6880   21.0470 C   0  0  0  0  0  2  0  0  0  0  0  0
  -26.1010  -29.3920   20.2520 C   0  0  0  0  0  0  0  0  0  0  0  0
  -27.3480  -28.7000   20.1370 C   0  0  0  0  0  3  0  0  0  0  0  0
  -26.2860  -26.9940   18.7860 C   0  0  0  0  0  3  0  0  0  0  0  0
  -25.0600  -27.6920   18.8690 C   0  0  0  0  0  3  0  0  0  0  0  0
  -23.6680  -29.6600   19.7530 C   0  0  0  0  0  2  0  0  0  0  0  0
  -24.6410  -30.7830   21.8040 N   0  0  0  0  0  0  0  0  0  0  0  0
  -23.4390  -31.5860   23.5580 O   0  0  0  0  0  0  0  0  0  0  0  0
  -22.8310  -29.0090   22.0400 C   0  0  0  0  0  0  0  0  0  0  0  0
  -21.5210  -28.7510   21.8930 N   0  0  0  0  0  0  0  0  0  0  0  0
  -23.5580  -28.3480   22.7890 O   0  0  0  0  0  0  0  0  0  0  0  0
  -20.9930  -29.3450   21.2710 H   0  0  0  0  0  0  0  0  0  0  0  0
  -18.2460  -27.2550   22.2450 C   0  0  0  0  0  0  0  0  0  0  0  0
  -20.7790  -27.6720   22.5490 C   0  0  0  0  0  3  0  0  0  0  0  0
  -20.9830  -26.3280   21.8120 C   0  0  0  0  0  2  0  0  0  0  0  0
  -19.8990  -26.0440   20.7650 C   0  0  0  0  0  2  0  0  0  0  0  0
  -18.5170  -26.0100   21.4200 C   0  0  0  0  0  2  0  0  0  0  0  0
  -19.3090  -28.0450   22.7630 C   0  0  0  0  0  0  0  0  0  0  0  0
  -19.0000  -29.2110   23.4980 C   0  0  0  0  0  3  0  0  0  0  0  0
  -17.6630  -29.5910   23.7160 C   0  0  0  0  0  3  0  0  0  0  0  0
  -16.6170  -28.8000   23.2140 C   0  0  0  0  0  3  0  0  0  0  0  0
  -16.9080  -27.6320   22.4870 C   0  0  0  0  0  3  0  0  0  0  0  0
  -25.7720  -32.0980   23.6820 C   0  0  0  0  0  3  0  0  0  0  0  0
  -25.4070  -33.4690   24.0630 N   0  0  0  0  0  0  0  0  0  0  0  0
  -25.7310  -34.5660   23.3650 C   0  0  0  0  0  0  0  0  0  0  0  0
  -26.4390  -34.5290   22.3550 O   0  0  0  0  0  0  0  0  0  0  0  0
  -24.7820  -33.5680   24.8490 H   0  0  0  0  0  0  0  0  0  0  0  0
  -23.9550  -36.3170   23.0380 C   0  0  0  0  0  1  0  0  0  0  0  0
  -25.1850  -35.9190   23.8680 C   0  0  0  0  0  3  0  0  0  0  0  0
  -27.2570  -36.8430   24.8120 C   0  0  0  0  0  1  0  0  0  0  0  0
  -26.1860  -37.0090   23.8320 N   0  0  0  0  0  0  0  0  0  0  0  0
  -25.7440  -37.9090   23.9970 H   0  0  0  0  0  0  0  0  0  0  0  0
  -26.2740  -31.2880   24.9390 C   0  0  1  0  0  0  0  0  0  0  0  0
  -25.1650  -30.9800   25.9710 C   0  0  0  0  0  1  0  0  0  0  0  0
  -26.9000  -29.9410   24.5070 C   0  0  0  0  0  1  0  0  0  0  0  0
  -27.3880  -32.0830   25.6630 C   0  0  0  0  0  1  0  0  0  0  0  0
  -28.3070  -22.1520   21.9630 N   0  0  0  0  0  0  0  0  0  0  0  0
  -27.3440  -21.8510   21.8360 H   0  0  0  0  0  0  0  0  0  0  0  0
  -28.5350  -21.8250   22.8990 H   0  0  0  0  0  0  0  0  0  0  0  0
  -30.5200  -18.9640   19.0590 C   0  0  0  0  0  3  0  0  0  0  0  0
  -31.6760  -19.0540   19.9780 N   0  0  0  0  0  4  0  0  0  0  0  0
  -31.4440  -18.7960   20.9210 H   0  0  0  0  0  0  0  0  0  0  0  0
  -32.1050  -19.9640   19.9640 H   0  0  0  0  0  0  0  0  0  0  0  0
  -32.3780  -18.4030   19.6590 H   0  0  0  0  0  0  0  0  0  0  0  0
  -30.1480  -17.3980   18.8330 C   0  0  0  0  0  2  0  0  0  0  0  0
  -31.2430  -15.1550   19.6500 C   0  0  0  0  0  0  0  0  0  0  0  0
  -31.0950  -12.7650   18.9720 C   0  0  0  0  0  2  0  0  0  0  0  0
  -30.1160  -12.6690   17.7790 C   0  0  0  0  0  2  0  0  0  0  0  0
  -28.6680  -12.5100   18.2830 C   0  0  0  0  0  2  0  0  0  0  0  0
  -28.3060  -13.5370   19.3870 C   0  0  0  0  0  3  0  0  0  0  0  0
  -29.3980  -13.6180   20.4780 C   0  0  0  0  0  2  0  0  0  0  0  0
  -30.6770  -13.9090   19.8150 N   0  0  0  0  0  0  0  0  0  0  0  0
  -32.3740  -15.2700   19.1770 O   0  0  0  0  0  0  0  0  0  0  0  0
  -30.4260  -16.2590   19.8130 N   0  0  0  0  0  0  0  0  0  0  0  0
  -29.6140  -16.0400   20.3700 H   0  0  0  0  0  0  0  0  0  0  0  0
  -25.9950  -14.1950   20.2940 C   0  0  0  0  0  0  0  0  0  0  0  0
  -24.9280  -13.4480   20.7060 C   0  0  0  0  0  0  0  0  0  0  0  0
  -25.3280  -12.0850   20.5890 C   0  0  0  0  0  0  0  0  0  0  0  0
  -26.9850  -13.2850   19.9540 N   0  0  0  0  0  0  0  0  0  0  0  0
  -26.5940  -12.0060   20.1960 N   0  0  0  0  0  0  0  0  0  0  0  0
  -24.5640  -10.8430   20.7790 C   0  0  0  0  0  0  0  0  0  0  0  0
  -24.9640   -9.8640   21.7160 C   0  0  0  0  0  3  0  0  0  0  0  0
  -24.2000   -8.6900   21.8920 C   0  0  0  0  0  3  0  0  0  0  0  0
  -23.0240   -8.4860   21.1320 C   0  0  0  0  0  0  0  0  0  0  0  0
  -22.6450   -9.4550   20.1850 C   0  0  0  0  0  3  0  0  0  0  0  0
  -23.4070  -10.6190   20.0070 C   0  0  0  0  0  3  0  0  0  0  0  0
  -22.2350   -7.3650   21.2160 O   0  0  0  0  0  0  0  0  0  0  0  0
  -22.0840   -6.6800   22.3940 C   0  0  0  0  0  0  0  0  0  0  0  0
  -21.5370   -7.2900   23.5450 C   0  0  0  0  0  3  0  0  0  0  0  0
  -21.3320   -6.5310   24.7140 C   0  0  0  0  0  3  0  0  0  0  0  0
  -21.6650   -5.1620   24.7340 C   0  0  0  0  0  0  0  0  0  0  0  0
  -22.2040   -4.5530   23.5880 C   0  0  0  0  0  3  0  0  0  0  0  0
  -22.4100   -5.3100   22.4200 C   0  0  0  0  0  0  0  0  0  0  0  0
  -22.9100   -4.7130   21.3130 F   0  0  0  0  0  0  0  0  0  0  0  0
  -21.4630   -4.4310   25.8550 F   0  0  0  0  0  0  0  0  0  0  0  0
  -23.5710  -13.9700   21.0880 C   0  0  0  0  0  0  0  0  0  0  0  0
  -22.8760  -13.2760   21.9820 N   0  0  0  0  0  0  0  0  0  0  0  0
  -23.1400  -15.0240   20.6270 O   0  0  0  0  0  0  0  0  0  0  0  0
  -23.2380  -12.4230   22.3820 H   0  0  0  0  0  0  0  0  0  0  0  0
  -21.9680  -13.6060   22.2760 H   0  0  0  0  0  0  0  0  0  0  0  0
  -26.2020  -15.5660   20.1550 N   0  0  0  0  0  0  0  0  0  0  0  0
  -25.4630  -16.2360   20.3370 H   0  0  0  0  0  0  0  0  0  0  0  0
  -27.0330  -15.9880   19.7620 H   0  0  0  0  0  0  0  0  0  0  0  0
  1  3  1  0
  1  5  2  0
  2 55  1  0
  2  4  1  0
  2  1  1  0
  3 52  1  0
  4  6  1  0
  4  3  1  0
  6  7  1  0
  8  6  1  0
  9  6  1  0
  9 10  1  0
 11 13  1  0
 11 10  1  0
 12 23  2  0
 13 18  1  0
 14 22  1  0
 14 24  1  0
 15 21  1  0
 15 17  1  0
 16 22  1  0
 17 16  1  0
 18 17  2  0
 19 20  1  0
 19 13  2  0
 20 15  2  0
 21 14  1  0
 22 12  1  0
 24 26  2  0
 25 24  1  0
 27 25  1  0
 28 37  2  0
 28 33  1  0
 29 25  1  0
 29 33  1  0
 30 29  1  0
 31 32  1  0
 31 30  1  0
 32 28  1  0
 33 34  2  0
 34 35  1  0
 36 35  2  0
 37 36  1  0
 38 12  1  0
 38 39  1  0
 38 48  1  0
 39 42  1  0
 40 44  1  0
 40 39  1  0
 41 40  2  0
 44 43  1  0
 46 44  1  0
 46 47  1  0
 46 45  1  0
 48 51  1  1
 48 49  1  0
 50 48  1  0
 52 54  1  0
 53 52  1  0
 55 60  1  0
 55 56  1  0
 56 57  1  0
 58 56  1  0
 59 56  1  0
 60 69  1  0
 61 69  1  0
 61 67  1  0
 62 67  1  0
 63 64  1  0
 63 62  1  0
 65 64  1  0
 65 74  1  0
 65 66  1  0
 67 66  1  0
 68 61  2  0
 69 70  1  0
 71 72  2  0
 72 91  1  0
 73 72  1  0
 73 76  1  0
 74 75  1  0
 74 71  1  0
 75 73  2  0
 76 77  1  0
 77 78  2  0
 79 82  1  0
 79 78  1  0
 80 79  2  0
 81 80  1  0
 81 76  2  0
 82 83  1  0
 83 88  2  0
 83 84  1  0
 84 85  2  0
 85 86  1  0
 86 90  1  0
 87 86  2  0
 88 87  1  0
 89 88  1  0
 91 92  1  0
 92 95  1  0
 92 94  1  0
 93 91  2  0
 96 71  1  0
 96 97  1  0
 98 96  1  0
M  ISO  4  10 101  11 101  61 100  69 100
M  END
>  <TORSDO>  (35) 
F 23

>  <SCORE>  (35) 
-10.559

>  <name>  (35) 
34

>  <ligand_id>  (35) 
34

>  <original_smiles>  (35) 
[H]c1c([H])c([H])c2c(c1[H])C([H])([H])C([H])([H])C([H])([H])C2([H])N([H])C(=O)C1([H])N(C(=O)C([H])(N([H])C(=O)C([H])(N([H])C([H])([H])[H])C([H])([H])[H])C(C([H])([H])[H])(C([H])([H])[H])C([H])([H])[H])C([H])([H])c2c([H])c(OC([H])([H])C([H])([H])[N+]([H])([H])C3([H])C([H])(N([H])[H])C(=O)C3([H])C([H])(C([H])([H])N([H])C(=O)N3C([H])([H])C([H])([H])C([H])([H])C([H])(n4nc(-c5c([H])c([H])c(Oc6c([H])c([H])c(F)c([H])c6F)c([H])c5[H])c(C(=O)N([H])[H])c4N([H])[H])C3([H])[H])[N+]([H])([H])[H])c([H])c([H])c2C1([H])[H]

>  <smiles>  (35) 
[H]c1c([H])c([H])c2c(c1[H])C([H])([H])C([H])([H])C([H])([H])C2([H])N([H])C(=O)C1([H])N(C(=O)C([H])(N([H])C(=O)C([H])(N([H])C([H])([H])[H])C([H])([H])[H])C(C([H])([H])[H])(C([H])([H])[H])C([H])([H])[H])C([H])([H])c2c([H])c(OC([H])([H])C([H])([H])[N+]([H])([H])C3([H])C([H])(N([H])[H])C(=O)C3([H])C([H])(C([H])([H])N([H])C(=O)N3C([H])([H])C([H])([H])C([H])([H])C([H])(n4nc(-c5c([H])c([H])c(Oc6c([H])c([H])c(F)c([H])c6F)c([H])c5[H])c(C(=O)N([H])[H])c4N([H])[H])C3([H])[H])[N+]([H])([H])[H])c([H])c([H])c2C1([H])[H]

$$$$
36:0:0
     RDKit          3D

 91 99  0  0  1  0  0  0  0  0999 V2000
  -27.6610  -22.0600   21.8370 C   0  0  0  0  0  3  0  0  0  0  0  0
  -28.0130  -23.3220   21.3220 C   0  0  0  0  0  3  0  0  0  0  0  0
  -28.4570  -20.9310   21.5670 C   0  0  0  0  0  3  0  0  0  0  0  0
  -29.9710  -22.3320   20.2680 C   0  0  0  0  0  3  0  0  0  0  0  0
  -29.1620  -23.4750   20.5110 C   0  0  0  0  0  0  0  0  0  0  0  0
  -29.6200  -21.0520   20.7780 C   0  0  0  0  0  0  0  0  0  0  0  0
  -29.5500  -24.8280   19.9790 C   0  0  0  0  0  0  0  0  0  0  0  0
  -30.7230  -25.2190   19.9280 O   0  0  0  0  0  0  0  0  0  0  0  0
  -28.4250  -25.7030   19.3850 C   0  0  0  0  0  2  0  0  0  0  0  0
  -28.5300  -27.1010   19.7360 O   0  0  0  0  0  0  0  0  0  0  0  0
  -24.5840  -31.9180   23.2050 C   0  0  0  0  0  0  0  0  0  0  0  0
  -27.3380  -27.8100   19.7600 C   0  0  0  0  0  0  0  0  0  0  0  0
  -23.4050  -30.5930   21.4840 C   0  0  0  0  0  3  0  0  0  0  0  0
  -24.8900  -29.2340   19.9210 C   0  0  0  0  0  0  0  0  0  0  0  0
  -25.9140  -31.0640   21.2760 C   0  0  0  0  0  2  0  0  0  0  0  0
  -26.0400  -29.7490   20.5310 C   0  0  0  0  0  0  0  0  0  0  0  0
  -27.2650  -29.0450   20.4500 C   0  0  0  0  0  3  0  0  0  0  0  0
  -26.1660  -27.3280   19.1250 C   0  0  0  0  0  3  0  0  0  0  0  0
  -24.9490  -28.0220   19.2160 C   0  0  0  0  0  3  0  0  0  0  0  0
  -23.6150  -30.0320   20.0540 C   0  0  0  0  0  2  0  0  0  0  0  0
  -24.6530  -31.2040   22.0480 N   0  0  0  0  0  0  0  0  0  0  0  0
  -23.5030  -32.1070   23.7800 O   0  0  0  0  0  0  0  0  0  0  0  0
  -22.8140  -29.4760   22.3760 C   0  0  0  0  0  0  0  0  0  0  0  0
  -21.5040  -29.2220   22.2280 N   0  0  0  0  0  0  0  0  0  0  0  0
  -23.5310  -28.8440   23.1560 O   0  0  0  0  0  0  0  0  0  0  0  0
  -20.9860  -29.7900   21.5720 H   0  0  0  0  0  0  0  0  0  0  0  0
  -18.2110  -27.7790   22.5980 C   0  0  0  0  0  0  0  0  0  0  0  0
  -20.7400  -28.1930   22.9330 C   0  0  0  0  0  3  0  0  0  0  0  0
  -20.9490  -26.8050   22.2850 C   0  0  0  0  0  2  0  0  0  0  0  0
  -19.8870  -26.4630   21.2350 C   0  0  0  0  0  2  0  0  0  0  0  0
  -18.4880  -26.4810   21.8590 C   0  0  0  0  0  2  0  0  0  0  0  0
  -19.2690  -28.5900   23.0890 C   0  0  0  0  0  0  0  0  0  0  0  0
  -18.9560  -29.8050   23.7370 C   0  0  0  0  0  3  0  0  0  0  0  0
  -17.6180  -30.2080   23.9030 C   0  0  0  0  0  3  0  0  0  0  0  0
  -16.5740  -29.3940   23.4310 C   0  0  0  0  0  3  0  0  0  0  0  0
  -16.8720  -28.1820   22.7820 C   0  0  0  0  0  3  0  0  0  0  0  0
  -25.8560  -32.5520   23.8510 C   0  0  0  0  0  3  0  0  0  0  0  0
  -25.5280  -33.9410   24.2010 N   0  0  0  0  0  0  0  0  0  0  0  0
  -25.8530  -35.0080   23.4590 C   0  0  0  0  0  0  0  0  0  0  0  0
  -26.5300  -34.9290   22.4300 O   0  0  0  0  0  0  0  0  0  0  0  0
  -24.9240  -34.0760   24.9970 H   0  0  0  0  0  0  0  0  0  0  0  0
  -24.1010  -36.7810   23.1190 C   0  0  0  0  0  1  0  0  0  0  0  0
  -25.3420  -36.3830   23.9340 C   0  0  0  0  0  3  0  0  0  0  0  0
  -27.4540  -37.2880   24.7980 C   0  0  0  0  0  1  0  0  0  0  0  0
  -26.3610  -37.4510   23.8410 N   0  0  0  0  0  0  0  0  0  0  0  0
  -25.9420  -38.3650   23.9900 H   0  0  0  0  0  0  0  0  0  0  0  0
  -26.3700  -31.7640   25.1170 C   0  0  1  0  0  0  0  0  0  0  0  0
  -25.2690  -31.4860   26.1660 C   0  0  0  0  0  1  0  0  0  0  0  0
  -26.9810  -30.4050   24.7000 C   0  0  0  0  0  1  0  0  0  0  0  0
  -27.5010  -32.5630   25.8050 C   0  0  0  0  0  1  0  0  0  0  0  0
  -30.5290  -19.8440   20.5110 C   0  0  0  0  0  2  0  0  0  0  0  0
  -29.8930  -18.4270   20.6250 C   0  0  0  0  0  2  0  0  0  0  0  0
  -30.9430  -17.3050   20.4240 C   0  0  0  0  0  2  0  0  0  0  0  0
  -31.1060  -14.8440   20.1010 C   0  0  0  0  0  0  0  0  0  0  0  0
  -30.8440  -12.5590   19.2170 C   0  0  0  0  0  2  0  0  0  0  0  0
  -29.9050  -12.5890   17.9940 C   0  0  0  0  0  2  0  0  0  0  0  0
  -28.4330  -12.4710   18.4330 C   0  0  0  0  0  2  0  0  0  0  0  0
  -28.0690  -13.4500   19.5820 C   0  0  0  0  0  3  0  0  0  0  0  0
  -29.1240  -13.4030   20.7120 C   0  0  0  0  0  2  0  0  0  0  0  0
  -30.4420  -13.6570   20.1110 N   0  0  0  0  0  0  0  0  0  0  0  0
  -32.2310  -14.9720   19.6120 O   0  0  0  0  0  0  0  0  0  0  0  0
  -30.4210  -15.9270   20.5220 N   0  0  0  0  0  0  0  0  0  0  0  0
  -29.4850  -15.7870   20.8700 H   0  0  0  0  0  0  0  0  0  0  0  0
  -25.7060  -14.1110   20.3570 C   0  0  0  0  0  0  0  0  0  0  0  0
  -24.6230  -13.3620   20.7330 C   0  0  0  0  0  0  0  0  0  0  0  0
  -25.0430  -11.9990   20.6640 C   0  0  0  0  0  0  0  0  0  0  0  0
  -26.7200  -13.2050   20.0870 N   0  0  0  0  0  0  0  0  0  0  0  0
  -26.3260  -11.9270   20.3290 N   0  0  0  0  0  0  0  0  0  0  0  0
  -24.2850  -10.7530   20.8460 C   0  0  0  0  0  0  0  0  0  0  0  0
  -24.6500   -9.8030   21.8260 C   0  0  0  0  0  3  0  0  0  0  0  0
  -23.8940   -8.6220   21.9940 C   0  0  0  0  0  3  0  0  0  0  0  0
  -22.7610   -8.3840   21.1810 C   0  0  0  0  0  0  0  0  0  0  0  0
  -22.4150   -9.3230   20.1930 C   0  0  0  0  0  3  0  0  0  0  0  0
  -23.1710  -10.4940   20.0240 C   0  0  0  0  0  3  0  0  0  0  0  0
  -21.9830   -7.2540   21.2550 O   0  0  0  0  0  0  0  0  0  0  0  0
  -21.7780   -6.5980   22.4430 C   0  0  0  0  0  0  0  0  0  0  0  0
  -21.1740   -7.2330   23.5500 C   0  0  0  0  0  3  0  0  0  0  0  0
  -20.9180   -6.5020   24.7280 C   0  0  0  0  0  3  0  0  0  0  0  0
  -21.2560   -5.1370   24.7970 C   0  0  0  0  0  0  0  0  0  0  0  0
  -21.8520   -4.5010   23.6940 C   0  0  0  0  0  3  0  0  0  0  0  0
  -22.1090   -5.2300   22.5190 C   0  0  0  0  0  0  0  0  0  0  0  0
  -22.6640   -4.6070   21.4520 F   0  0  0  0  0  0  0  0  0  0  0  0
  -21.0040   -4.4330   25.9260 F   0  0  0  0  0  0  0  0  0  0  0  0
  -23.2460  -13.8720   21.0470 C   0  0  0  0  0  0  0  0  0  0  0  0
  -22.5240  -13.1860   21.9260 N   0  0  0  0  0  0  0  0  0  0  0  0
  -22.8210  -14.9140   20.5490 O   0  0  0  0  0  0  0  0  0  0  0  0
  -22.8810  -12.3430   22.3510 H   0  0  0  0  0  0  0  0  0  0  0  0
  -21.5990  -13.5060   22.1770 H   0  0  0  0  0  0  0  0  0  0  0  0
  -25.9080  -15.4810   20.2040 N   0  0  0  0  0  0  0  0  0  0  0  0
  -25.1680  -16.1590   20.3520 H   0  0  0  0  0  0  0  0  0  0  0  0
  -26.7670  -15.8980   19.8700 H   0  0  0  0  0  0  0  0  0  0  0  0
  2  1  2  0
  3  1  1  0
  4  5  2  0
  4  6  1  0
  5  2  1  0
  6  3  2  0
  7  5  1  0
  8  7  2  0
  9 10  1  0
  9  7  1  0
 10 12  1  0
 11 22  2  0
 12 17  1  0
 13 21  1  0
 13 23  1  0
 14 20  1  0
 14 16  1  0
 15 21  1  0
 16 15  1  0
 17 16  2  0
 18 19  1  0
 18 12  2  0
 19 14  2  0
 20 13  1  0
 21 11  1  0
 23 25  2  0
 24 23  1  0
 26 24  1  0
 27 36  2  0
 27 32  1  0
 28 24  1  0
 28 32  1  0
 29 28  1  0
 30 31  1  0
 30 29  1  0
 31 27  1  0
 32 33  2  0
 33 34  1  0
 35 34  2  0
 36 35  1  0
 37 11  1  0
 37 38  1  0
 37 47  1  0
 38 41  1  0
 39 43  1  0
 39 38  1  0
 40 39  2  0
 43 42  1  0
 45 43  1  0
 45 46  1  0
 45 44  1  0
 47 50  1  1
 47 48  1  0
 49 47  1  0
 51 52  1  0
 51  6  1  0
 53 62  1  0
 53 52  1  0
 54 60  1  0
 54 62  1  0
 55 60  1  0
 56 57  1  0
 56 55  1  0
 58 57  1  0
 58 67  1  0
 58 59  1  0
 60 59  1  0
 61 54  2  0
 62 63  1  0
 64 65  2  0
 65 84  1  0
 66 65  1  0
 66 69  1  0
 67 68  1  0
 67 64  1  0
 68 66  2  0
 69 70  1  0
 70 71  2  0
 72 75  1  0
 72 71  1  0
 73 72  2  0
 74 73  1  0
 74 69  2  0
 75 76  1  0
 76 81  2  0
 76 77  1  0
 77 78  2  0
 78 79  1  0
 79 83  1  0
 80 79  2  0
 81 80  1  0
 82 81  1  0
 84 85  1  0
 85 88  1  0
 85 87  1  0
 86 84  2  0
 89 90  1  0
 89 64  1  0
 91 89  1  0
M  ISO  4   9 101  10 101  54 100  62 100
M  END
>  <TORSDO>  (36) 
F 21

>  <SCORE>  (36) 
-12.299

>  <name>  (36) 
36

>  <ligand_id>  (36) 
36

>  <original_smiles>  (36) 
[H]c1c([H])c(C(=O)C([H])([H])Oc2c([H])c([H])c3c(c2[H])C([H])([H])N(C(=O)C([H])(N([H])C(=O)C([H])(N([H])C([H])([H])[H])C([H])([H])[H])C(C([H])([H])[H])(C([H])([H])[H])C([H])([H])[H])C([H])(C(=O)N([H])C2([H])c4c([H])c([H])c([H])c([H])c4C([H])([H])C([H])([H])C2([H])[H])C3([H])[H])c([H])c(C([H])([H])C([H])([H])C([H])([H])N([H])C(=O)N2C([H])([H])C([H])([H])C([H])([H])C([H])(n3nc(-c4c([H])c([H])c(Oc5c([H])c([H])c(F)c([H])c5F)c([H])c4[H])c(C(=O)N([H])[H])c3N([H])[H])C2([H])[H])c1[H]

>  <smiles>  (36) 
[H]c1c([H])c(C(=O)C([H])([H])Oc2c([H])c([H])c3c(c2[H])C([H])([H])N(C(=O)C([H])(N([H])C(=O)C([H])(N([H])C([H])([H])[H])C([H])([H])[H])C(C([H])([H])[H])(C([H])([H])[H])C([H])([H])[H])C([H])(C(=O)N([H])C2([H])c4c([H])c([H])c([H])c([H])c4C([H])([H])C([H])([H])C2([H])[H])C3([H])[H])c([H])c(C([H])([H])C([H])([H])C([H])([H])N([H])C(=O)N2C([H])([H])C([H])([H])C([H])([H])C([H])(n3nc(-c4c([H])c([H])c(Oc5c([H])c([H])c(F)c([H])c5F)c([H])c4[H])c(C(=O)N([H])[H])c3N([H])[H])C2([H])[H])c1[H]

$$$$
37:0:0
     RDKit          3D

 95103  0  0  1  0  0  0  0  0999 V2000
  -28.3560  -22.3130   19.6510 C   0  0  0  0  0  3  0  0  0  0  0  0
  -30.5820  -22.2080   20.6020 C   0  0  0  0  0  3  0  0  0  0  0  0
  -28.3940  -20.9210   19.4250 C   0  0  0  0  0  3  0  0  0  0  0  0
  -30.6200  -20.8120   20.3770 C   0  0  0  0  0  3  0  0  0  0  0  0
  -29.4600  -22.9850   20.2240 C   0  0  0  0  0  0  0  0  0  0  0  0
  -29.5310  -20.1510   19.7600 C   0  0  0  0  0  0  0  0  0  0  0  0
  -29.4710  -24.4790   20.4220 C   0  0  0  0  0  0  0  0  0  0  0  0
  -30.4190  -25.0740   20.9490 O   0  0  0  0  0  0  0  0  0  0  0  0
  -28.2430  -25.2760   19.9370 C   0  0  0  0  0  2  0  0  0  0  0  0
  -28.3680  -26.6910   20.1800 O   0  0  0  0  0  0  0  0  0  0  0  0
  -24.5840  -31.8830   23.2490 C   0  0  0  0  0  0  0  0  0  0  0  0
  -27.1970  -27.4250   20.1530 C   0  0  0  0  0  0  0  0  0  0  0  0
  -23.3660  -30.4890   21.6090 C   0  0  0  0  0  3  0  0  0  0  0  0
  -24.8070  -28.9500   20.1750 C   0  0  0  0  0  0  0  0  0  0  0  0
  -25.8940  -30.8340   21.4040 C   0  0  0  0  0  2  0  0  0  0  0  0
  -25.9710  -29.4650   20.7600 C   0  0  0  0  0  0  0  0  0  0  0  0
  -27.1670  -28.7100   20.7440 C   0  0  0  0  0  3  0  0  0  0  0  0
  -26.0100  -26.9310   19.5570 C   0  0  0  0  0  3  0  0  0  0  0  0
  -24.8230  -27.6830   19.5700 C   0  0  0  0  0  3  0  0  0  0  0  0
  -23.5680  -29.8140   20.2270 C   0  0  0  0  0  2  0  0  0  0  0  0
  -24.6340  -31.0840   22.1450 N   0  0  0  0  0  0  0  0  0  0  0  0
  -23.5070  -32.1600   23.7930 O   0  0  0  0  0  0  0  0  0  0  0  0
  -22.7160  -29.4670   22.5690 C   0  0  0  0  0  0  0  0  0  0  0  0
  -21.3910  -29.2860   22.4420 N   0  0  0  0  0  0  0  0  0  0  0  0
  -23.4000  -28.8410   23.3840 O   0  0  0  0  0  0  0  0  0  0  0  0
  -20.9020  -29.8440   21.7560 H   0  0  0  0  0  0  0  0  0  0  0  0
  -18.0160  -28.0890   22.9290 C   0  0  0  0  0  0  0  0  0  0  0  0
  -20.5720  -28.3500   23.2130 C   0  0  0  0  0  3  0  0  0  0  0  0
  -20.6800  -26.9170   22.6420 C   0  0  0  0  0  2  0  0  0  0  0  0
  -19.5820  -26.5890   21.6250 C   0  0  0  0  0  2  0  0  0  0  0  0
  -18.1970  -26.7370   22.2610 C   0  0  0  0  0  2  0  0  0  0  0  0
  -19.1320  -28.8540   23.3610 C   0  0  0  0  0  0  0  0  0  0  0  0
  -18.9110  -30.1210   23.9440 C   0  0  0  0  0  3  0  0  0  0  0  0
  -17.6050  -30.6230   24.1000 C   0  0  0  0  0  3  0  0  0  0  0  0
  -16.5030  -29.8550   23.6850 C   0  0  0  0  0  3  0  0  0  0  0  0
  -16.7090  -28.5900   23.1050 C   0  0  0  0  0  3  0  0  0  0  0  0
  -25.8760  -32.5070   23.8640 C   0  0  0  0  0  3  0  0  0  0  0  0
  -25.5750  -33.9050   24.2000 N   0  0  0  0  0  0  0  0  0  0  0  0
  -25.9020  -34.9560   23.4380 C   0  0  0  0  0  0  0  0  0  0  0  0
  -26.5620  -34.8520   22.4000 O   0  0  0  0  0  0  0  0  0  0  0  0
  -24.9910  -34.0600   25.0090 H   0  0  0  0  0  0  0  0  0  0  0  0
  -24.1700  -36.7480   23.1020 C   0  0  0  0  0  1  0  0  0  0  0  0
  -25.4210  -36.3450   23.9000 C   0  0  0  0  0  3  0  0  0  0  0  0
  -27.5690  -37.2260   24.7000 C   0  0  0  0  0  1  0  0  0  0  0  0
  -26.4530  -37.3970   23.7730 N   0  0  0  0  0  0  0  0  0  0  0  0
  -26.0510  -38.3180   23.9250 H   0  0  0  0  0  0  0  0  0  0  0  0
  -26.3990  -31.7270   25.1330 C   0  0  1  0  0  0  0  0  0  0  0  0
  -25.3140  -31.4890   26.2080 C   0  0  0  0  0  1  0  0  0  0  0  0
  -26.9730  -30.3480   24.7270 C   0  0  0  0  0  1  0  0  0  0  0  0
  -27.5590  -32.5120   25.7890 C   0  0  0  0  0  1  0  0  0  0  0  0
  -29.5330  -18.6690   19.3400 C   0  0  0  0  0  2  0  0  0  0  0  0
  -30.7480  -17.7550   19.6970 C   0  0  0  0  0  3  0  0  0  0  0  0
  -31.0690  -16.8740   18.5600 N   0  0  0  0  0  4  0  0  0  0  0  0
  -30.2370  -16.4660   18.1720 H   0  0  0  0  0  0  0  0  0  0  0  0
  -31.6670  -16.1270   18.8980 H   0  0  0  0  0  0  0  0  0  0  0  0
  -31.5530  -17.3790   17.8380 H   0  0  0  0  0  0  0  0  0  0  0  0
  -30.5640  -16.9290   21.0180 C   0  0  0  0  0  2  0  0  0  0  0  0
  -30.7290  -14.4660   20.5000 C   0  0  0  0  0  0  0  0  0  0  0  0
  -30.3970  -12.3090   19.3720 C   0  0  0  0  0  2  0  0  0  0  0  0
  -29.4840  -12.5220   18.1480 C   0  0  0  0  0  2  0  0  0  0  0  0
  -28.0000  -12.4070   18.5520 C   0  0  0  0  0  2  0  0  0  0  0  0
  -27.6510  -13.2600   19.8020 C   0  0  0  0  0  3  0  0  0  0  0  0
  -28.6860  -13.0510   20.9320 C   0  0  0  0  0  2  0  0  0  0  0  0
  -30.0240  -13.3130   20.3780 N   0  0  0  0  0  0  0  0  0  0  0  0
  -31.8690  -14.6200   20.0540 O   0  0  0  0  0  0  0  0  0  0  0  0
  -30.0320  -15.5500   20.8890 N   0  0  0  0  0  0  0  0  0  0  0  0
  -29.0760  -15.3960   21.1760 H   0  0  0  0  0  0  0  0  0  0  0  0
  -25.2470  -13.9020   20.4590 C   0  0  0  0  0  0  0  0  0  0  0  0
  -24.1650  -13.1470   20.8220 C   0  0  0  0  0  0  0  0  0  0  0  0
  -24.6110  -11.7900   20.8190 C   0  0  0  0  0  0  0  0  0  0  0  0
  -26.2870  -13.0060   20.2600 N   0  0  0  0  0  0  0  0  0  0  0  0
  -25.9070  -11.7310   20.5350 N   0  0  0  0  0  0  0  0  0  0  0  0
  -23.8680  -10.5380   21.0150 C   0  0  0  0  0  0  0  0  0  0  0  0
  -24.2880   -9.5670   21.9520 C   0  0  0  0  0  3  0  0  0  0  0  0
  -23.5450   -8.3810   22.1350 C   0  0  0  0  0  3  0  0  0  0  0  0
  -22.3690   -8.1570   21.3810 C   0  0  0  0  0  0  0  0  0  0  0  0
  -21.9680   -9.1150   20.4340 C   0  0  0  0  0  3  0  0  0  0  0  0
  -22.7110  -10.2920   20.2470 C   0  0  0  0  0  3  0  0  0  0  0  0
  -21.5990   -7.0220   21.4730 O   0  0  0  0  0  0  0  0  0  0  0  0
  -21.5530   -6.2750   22.6220 C   0  0  0  0  0  0  0  0  0  0  0  0
  -21.1680   -6.8350   23.8600 C   0  0  0  0  0  3  0  0  0  0  0  0
  -21.0660   -6.0150   25.0010 C   0  0  0  0  0  3  0  0  0  0  0  0
  -21.3410   -4.6370   24.9080 C   0  0  0  0  0  0  0  0  0  0  0  0
  -21.7200   -4.0770   23.6750 C   0  0  0  0  0  3  0  0  0  0  0  0
  -21.8230   -4.8930   22.5350 C   0  0  0  0  0  0  0  0  0  0  0  0
  -22.1680   -4.3450   21.3450 F   0  0  0  0  0  0  0  0  0  0  0  0
  -21.2350   -3.8480   26.0030 F   0  0  0  0  0  0  0  0  0  0  0  0
  -22.7680  -13.6440   21.0640 C   0  0  0  0  0  0  0  0  0  0  0  0
  -22.0190  -12.9700   21.9300 N   0  0  0  0  0  0  0  0  0  0  0  0
  -22.3500  -14.6650   20.5210 O   0  0  0  0  0  0  0  0  0  0  0  0
  -22.3690  -12.1430   22.3920 H   0  0  0  0  0  0  0  0  0  0  0  0
  -21.0830  -13.2860   22.1360 H   0  0  0  0  0  0  0  0  0  0  0  0
  -25.4280  -15.2690   20.2630 N   0  0  0  0  0  0  0  0  0  0  0  0
  -24.6600  -15.9260   20.3380 H   0  0  0  0  0  0  0  0  0  0  0  0
  -26.2850  -15.6990   19.9420 H   0  0  0  0  0  0  0  0  0  0  0  0
  1  5  1  0
  3  1  2  0
  3  6  1  0
  4  2  1  0
  5  7  1  0
  5  2  2  0
  6  4  2  0
  7  8  2  0
  9 10  1  0
  9  7  1  0
 11 22  2  0
 12 10  1  0
 12 17  1  0
 13 21  1  0
 13 23  1  0
 14 20  1  0
 14 16  1  0
 15 21  1  0
 16 15  1  0
 17 16  2  0
 18 19  1  0
 18 12  2  0
 19 14  2  0
 20 13  1  0
 21 11  1  0
 23 25  2  0
 24 23  1  0
 26 24  1  0
 27 36  2  0
 27 32  1  0
 28 24  1  0
 28 32  1  0
 29 28  1  0
 30 31  1  0
 30 29  1  0
 31 27  1  0
 32 33  2  0
 33 34  1  0
 35 34  2  0
 36 35  1  0
 37 11  1  0
 37 38  1  0
 37 47  1  0
 38 41  1  0
 39 43  1  0
 39 38  1  0
 40 39  2  0
 43 42  1  0
 45 43  1  0
 45 46  1  0
 45 44  1  0
 47 50  1  1
 47 48  1  0
 49 47  1  0
 51  6  1  0
 52 51  1  0
 52 57  1  0
 53 55  1  0
 53 52  1  0
 54 53  1  0
 56 53  1  0
 58 66  1  0
 59 64  1  0
 60 61  1  0
 60 59  1  0
 62 61  1  0
 62 71  1  0
 62 63  1  0
 64 58  1  0
 64 63  1  0
 65 58  2  0
 66 57  1  0
 66 67  1  0
 68 69  2  0
 69 88  1  0
 70 69  1  0
 70 73  1  0
 71 68  1  0
 71 72  1  0
 72 70  2  0
 73 74  1  0
 74 75  2  0
 76 79  1  0
 76 75  1  0
 77 76  2  0
 78 77  1  0
 78 73  2  0
 79 80  1  0
 80 81  1  0
 81 82  2  0
 83 82  1  0
 83 87  1  0
 84 83  2  0
 85 80  2  0
 85 84  1  0
 86 85  1  0
 88 89  1  0
 89 92  1  0
 89 91  1  0
 90 88  2  0
 93 94  1  0
 93 68  1  0
 95 93  1  0
M  ISO  4   9 101  10 101  58 100  66 100
M  END
>  <TORSDO>  (37) 
F 22

>  <SCORE>  (37) 
-13.387

>  <name>  (37) 
37

>  <ligand_id>  (37) 
37

>  <original_smiles>  (37) 
[H]c1c([H])c([H])c2c(c1[H])C([H])([H])C([H])([H])C([H])([H])C2([H])N([H])C(=O)C1([H])N(C(=O)C([H])(N([H])C(=O)C([H])(N([H])C([H])([H])[H])C([H])([H])[H])C(C([H])([H])[H])(C([H])([H])[H])C([H])([H])[H])C([H])([H])c2c([H])c(OC([H])([H])C(=O)c3c([H])c([H])c(C([H])([H])C([H])(C([H])([H])N([H])C(=O)N4C([H])([H])C([H])([H])C([H])([H])C([H])(n5nc(-c6c([H])c([H])c(Oc7c([H])c([H])c(F)c([H])c7F)c([H])c6[H])c(C(=O)N([H])[H])c5N([H])[H])C4([H])[H])[N+]([H])([H])[H])c([H])c3[H])c([H])c([H])c2C1([H])[H]

>  <smiles>  (37) 
[H]c1c([H])c([H])c2c(c1[H])C([H])([H])C([H])([H])C([H])([H])C2([H])N([H])C(=O)C1([H])N(C(=O)C([H])(N([H])C(=O)C([H])(N([H])C([H])([H])[H])C([H])([H])[H])C(C([H])([H])[H])(C([H])([H])[H])C([H])([H])[H])C([H])([H])c2c([H])c(OC([H])([H])C(=O)c3c([H])c([H])c(C([H])([H])C([H])(C([H])([H])N([H])C(=O)N4C([H])([H])C([H])([H])C([H])([H])C([H])(n5nc(-c6c([H])c([H])c(Oc7c([H])c([H])c(F)c([H])c7F)c([H])c6[H])c(C(=O)N([H])[H])c5N([H])[H])C4([H])[H])[N+]([H])([H])[H])c([H])c3[H])c([H])c([H])c2C1([H])[H]

$$$$
38:0:0
     RDKit          3D

 90 98  0  0  1  0  0  0  0  0999 V2000
  -29.1620  -22.1380   18.4120 C   0  0  0  0  0  1  0  0  0  0  0  0
  -28.8760  -22.1680   19.8660 N   0  0  1  0  0  4  0  0  0  0  0  0
  -27.8820  -21.9910   19.9350 H   0  0  0  0  0  0  0  0  0  0  0  0
  -29.5220  -20.9590   20.6040 C   0  0  0  0  0  2  0  0  0  0  0  0
  -30.8270  -18.5100   20.4770 C   0  0  0  0  0  0  0  0  0  0  0  0
  -28.8400  -18.2160   19.9490 C   0  0  0  0  0  2  0  0  0  0  0  0
  -29.7480  -19.5160   19.8650 C   0  0  0  0  0  3  0  0  0  0  0  0
  -30.1040  -17.2600   19.8200 C   0  0  0  0  0  3  0  0  0  0  0  0
  -31.7800  -18.6360   21.2510 O   0  0  0  0  0  0  0  0  0  0  0  0
  -30.7720  -14.7340   20.0640 C   0  0  0  0  0  0  0  0  0  0  0  0
  -30.4630  -12.5150   18.9290 C   0  0  0  0  0  2  0  0  0  0  0  0
  -29.4480  -12.6520   17.7700 C   0  0  0  0  0  2  0  0  0  0  0  0
  -28.0020  -12.4850   18.2780 C   0  0  0  0  0  2  0  0  0  0  0  0
  -27.7270  -13.3140   19.5610 C   0  0  0  0  0  3  0  0  0  0  0  0
  -28.8470  -13.1160   20.6020 C   0  0  0  0  0  2  0  0  0  0  0  0
  -30.1120  -13.5190   19.9660 N   0  0  0  0  0  0  0  0  0  0  0  0
  -31.8770  -14.8540   19.5240 O   0  0  0  0  0  0  0  0  0  0  0  0
  -29.6660  -15.9540   21.9120 C   0  0  0  0  0  1  0  0  0  0  0  0
  -30.0860  -15.8740   20.5050 N   0  0  0  0  0  0  0  0  0  0  0  0
  -25.3930  -13.9210   20.4350 C   0  0  0  0  0  0  0  0  0  0  0  0
  -24.3390  -13.1530   20.8490 C   0  0  0  0  0  0  0  0  0  0  0  0
  -24.7790  -11.7970   20.7620 C   0  0  0  0  0  0  0  0  0  0  0  0
  -26.4080  -13.0330   20.1180 N   0  0  0  0  0  0  0  0  0  0  0  0
  -26.0490  -11.7480   20.3750 N   0  0  0  0  0  0  0  0  0  0  0  0
  -24.0470  -10.5400   20.9660 C   0  0  0  0  0  0  0  0  0  0  0  0
  -24.5020   -9.5590   21.8750 C   0  0  0  0  0  3  0  0  0  0  0  0
  -23.7690   -8.3680   22.0690 C   0  0  0  0  0  3  0  0  0  0  0  0
  -22.5670   -8.1500   21.3550 C   0  0  0  0  0  0  0  0  0  0  0  0
  -22.1310   -9.1200   20.4350 C   0  0  0  0  0  3  0  0  0  0  0  0
  -22.8640  -10.3020   20.2390 C   0  0  0  0  0  3  0  0  0  0  0  0
  -21.8030   -7.0130   21.4600 O   0  0  0  0  0  0  0  0  0  0  0  0
  -21.7600   -6.2790   22.6180 C   0  0  0  0  0  0  0  0  0  0  0  0
  -21.3580   -6.8480   23.8470 C   0  0  0  0  0  3  0  0  0  0  0  0
  -21.2610   -6.0410   24.9980 C   0  0  0  0  0  3  0  0  0  0  0  0
  -21.5540   -4.6660   24.9220 C   0  0  0  0  0  0  0  0  0  0  0  0
  -21.9490   -4.0970   23.6990 C   0  0  0  0  0  3  0  0  0  0  0  0
  -22.0480   -4.9010   22.5490 C   0  0  0  0  0  0  0  0  0  0  0  0
  -22.4070   -4.3440   21.3680 F   0  0  0  0  0  0  0  0  0  0  0  0
  -21.4540   -3.8880   26.0250 F   0  0  0  0  0  0  0  0  0  0  0  0
  -22.9680  -13.6430   21.2130 C   0  0  0  0  0  0  0  0  0  0  0  0
  -22.2840  -12.9430   22.1100 N   0  0  0  0  0  0  0  0  0  0  0  0
  -22.5130  -14.6830   20.7360 O   0  0  0  0  0  0  0  0  0  0  0  0
  -22.6640  -12.1010   22.5160 H   0  0  0  0  0  0  0  0  0  0  0  0
  -21.3650  -13.2520   22.3940 H   0  0  0  0  0  0  0  0  0  0  0  0
  -25.5700  -15.2920   20.2800 N   0  0  0  0  0  0  0  0  0  0  0  0
  -24.8260  -15.9590   20.4580 H   0  0  0  0  0  0  0  0  0  0  0  0
  -26.4170  -15.7240   19.9340 H   0  0  0  0  0  0  0  0  0  0  0  0
  -29.0770  -23.6040   20.4430 C   0  0  0  0  0  3  0  0  0  0  0  0
  -28.0850  -24.8180   19.9750 C   0  0  0  0  0  3  0  0  0  0  0  0
  -28.3070  -26.2850   20.2870 O   0  0  0  0  0  0  0  0  0  0  0  0
  -24.6350  -31.8360   23.2280 C   0  0  0  0  0  0  0  0  0  0  0  0
  -27.2210  -27.1990   20.1990 C   0  0  0  0  0  0  0  0  0  0  0  0
  -23.4310  -30.4380   21.5920 C   0  0  0  0  0  3  0  0  0  0  0  0
  -24.8770  -28.8750   20.1700 C   0  0  0  0  0  0  0  0  0  0  0  0
  -25.9780  -30.7280   21.4180 C   0  0  0  0  0  2  0  0  0  0  0  0
  -26.0510  -29.3430   20.7730 C   0  0  0  0  0  0  0  0  0  0  0  0
  -27.2250  -28.5180   20.7770 C   0  0  0  0  0  3  0  0  0  0  0  0
  -26.0250  -26.8150   19.5490 C   0  0  0  0  0  3  0  0  0  0  0  0
  -24.8710  -27.6200   19.5450 C   0  0  0  0  0  3  0  0  0  0  0  0
  -23.6470  -29.7600   20.2130 C   0  0  0  0  0  2  0  0  0  0  0  0
  -24.7010  -31.0190   22.1340 N   0  0  0  0  0  0  0  0  0  0  0  0
  -23.5510  -32.1220   23.7570 O   0  0  0  0  0  0  0  0  0  0  0  0
  -22.7590  -29.4280   22.5540 C   0  0  0  0  0  0  0  0  0  0  0  0
  -21.4290  -29.2660   22.4350 N   0  0  0  0  0  0  0  0  0  0  0  0
  -23.4330  -28.7950   23.3700 O   0  0  0  0  0  0  0  0  0  0  0  0
  -20.9450  -29.8270   21.7490 H   0  0  0  0  0  0  0  0  0  0  0  0
  -18.0410  -28.1030   22.9550 C   0  0  0  0  0  0  0  0  0  0  0  0
  -20.6050  -28.3380   23.2090 C   0  0  0  0  0  3  0  0  0  0  0  0
  -20.6870  -26.9040   22.6340 C   0  0  0  0  0  2  0  0  0  0  0  0
  -19.5770  -26.5940   21.6260 C   0  0  0  0  0  2  0  0  0  0  0  0
  -18.2000  -26.7520   22.2770 C   0  0  0  0  0  2  0  0  0  0  0  0
  -19.1700  -28.8550   23.3780 C   0  0  0  0  0  0  0  0  0  0  0  0
  -18.9670  -30.1190   23.9730 C   0  0  0  0  0  3  0  0  0  0  0  0
  -17.6680  -30.6320   24.1470 C   0  0  0  0  0  3  0  0  0  0  0  0
  -16.5540  -29.8790   23.7380 C   0  0  0  0  0  3  0  0  0  0  0  0
  -16.7410  -28.6160   23.1480 C   0  0  0  0  0  3  0  0  0  0  0  0
  -25.9180  -32.4690   23.8500 C   0  0  0  0  0  3  0  0  0  0  0  0
  -26.4360  -31.6920   25.1230 C   0  0  1  0  0  0  0  0  0  0  0  0
  -25.3450  -31.4490   26.1910 C   0  0  0  0  0  1  0  0  0  0  0  0
  -27.0190  -30.3160   24.7250 C   0  0  0  0  0  1  0  0  0  0  0  0
  -27.5880  -32.4840   25.7850 C   0  0  0  0  0  1  0  0  0  0  0  0
  -25.6040  -33.8640   24.1910 N   0  0  0  0  0  0  0  0  0  0  0  0
  -25.9210  -34.9240   23.4340 C   0  0  0  0  0  0  0  0  0  0  0  0
  -26.5750  -34.8290   22.3920 O   0  0  0  0  0  0  0  0  0  0  0  0
  -25.0230  -34.0120   25.0020 H   0  0  0  0  0  0  0  0  0  0  0  0
  -24.1730  -36.7060   23.1270 C   0  0  0  0  0  1  0  0  0  0  0  0
  -25.4360  -36.3090   23.9080 C   0  0  0  0  0  3  0  0  0  0  0  0
  -27.5840  -37.2070   24.6890 C   0  0  0  0  0  1  0  0  0  0  0  0
  -26.4580  -37.3690   23.7720 N   0  0  0  0  0  0  0  0  0  0  0  0
  -26.0500  -38.2860   23.9310 H   0  0  0  0  0  0  0  0  0  0  0  0
  1  2  1  0
  2  3  1  6
  2 48  1  0
  2  4  1  0
  5  9  2  0
  7  6  1  0
  7  5  1  0
  7  4  1  0
  8  6  1  0
  8  5  1  0
  8 19  1  0
 10 19  1  0
 11 16  1  0
 12 13  1  0
 12 11  1  0
 14 13  1  0
 14 23  1  0
 14 15  1  0
 16 10  1  0
 16 15  1  0
 17 10  2  0
 19 18  1  0
 20 21  2  0
 21 40  1  0
 22 21  1  0
 22 25  1  0
 23 24  1  0
 23 20  1  0
 24 22  2  0
 25 26  1  0
 26 27  2  0
 28 31  1  0
 28 27  1  0
 29 28  2  0
 30 29  1  0
 30 25  2  0
 31 32  1  0
 32 33  1  0
 33 34  2  0
 35 34  1  0
 35 39  1  0
 36 35  2  0
 37 32  2  0
 37 36  1  0
 38 37  1  0
 40 41  1  0
 41 44  1  0
 41 43  1  0
 42 40  2  0
 45 20  1  0
 45 46  1  0
 47 45  1  0
 49 50  1  0
 49 48  2  0
 51 62  2  0
 52 50  1  0
 52 57  1  0
 53 61  1  0
 53 63  1  0
 54 60  1  0
 54 56  1  0
 55 61  1  0
 56 57  2  0
 56 55  1  0
 58 52  2  0
 59 58  1  0
 59 54  2  0
 60 53  1  0
 61 51  1  0
 63 65  2  0
 64 63  1  0
 66 64  1  0
 67 76  2  0
 67 72  1  0
 68 64  1  0
 68 72  1  0
 69 68  1  0
 70 71  1  0
 70 69  1  0
 71 67  1  0
 72 73  2  0
 73 74  1  0
 75 74  2  0
 76 75  1  0
 77 51  1  0
 77 82  1  0
 77 78  1  0
 78 81  1  1
 78 79  1  0
 80 78  1  0
 82 85  1  0
 83 87  1  0
 83 82  1  0
 84 83  2  0
 87 86  1  0
 89 87  1  0
 89 90  1  0
 89 88  1  0
M  ISO  4  10 100  19 100  49 101  50 101
M  END
>  <TORSDO>  (38) 
F 20

>  <SCORE>  (38) 
-13.312

>  <name>  (38) 
38

>  <ligand_id>  (38) 
38

>  <original_smiles>  (38) 
[H]c1c([H])c([H])c2c(c1[H])C([H])([H])C([H])([H])C([H])([H])C2([H])N([H])C(=O)C1([H])N(C(=O)C([H])(N([H])C(=O)C([H])(N([H])C([H])([H])[H])C([H])([H])[H])C(C([H])([H])[H])(C([H])([H])[H])C([H])([H])[H])C([H])([H])c2c([H])c(OC([H])([H])C([H])([H])[N+]([H])(C([H])([H])[H])C([H])([H])C3([H])C(=O)C([H])(N(C(=O)N4C([H])([H])C([H])([H])C([H])([H])C([H])(n5nc(-c6c([H])c([H])c(Oc7c([H])c([H])c(F)c([H])c7F)c([H])c6[H])c(C(=O)N([H])[H])c5N([H])[H])C4([H])[H])C([H])([H])[H])C3([H])[H])c([H])c([H])c2C1([H])[H]

>  <smiles>  (38) 
[H]c1c([H])c([H])c2c(c1[H])C([H])([H])C([H])([H])C([H])([H])C2([H])N([H])C(=O)C1([H])N(C(=O)C([H])(N([H])C(=O)C([H])(N([H])C([H])([H])[H])C([H])([H])[H])C(C([H])([H])[H])(C([H])([H])[H])C([H])([H])[H])C([H])([H])c2c([H])c(OC([H])([H])C([H])([H])[N+]([H])(C([H])([H])[H])C([H])([H])C3([H])C(=O)C([H])(N(C(=O)N4C([H])([H])C([H])([H])C([H])([H])C([H])(n5nc(-c6c([H])c([H])c(Oc7c([H])c([H])c(F)c([H])c7F)c([H])c6[H])c(C(=O)N([H])[H])c5N([H])[H])C4([H])[H])C([H])([H])[H])C3([H])[H])c([H])c([H])c2C1([H])[H]

$$$$
39:0:0
     RDKit          3D

 95104  0  0  1  0  0  0  0  0999 V2000
  -31.6780  -19.1460   22.1420 C   0  0  0  0  0  3  0  0  0  0  0  0
  -31.0360  -17.9750   21.6990 C   0  0  0  0  0  3  0  0  0  0  0  0
  -31.1250  -20.4160   21.8800 C   0  0  0  0  0  3  0  0  0  0  0  0
  -29.2750  -19.3590   20.7340 C   0  0  0  0  0  3  0  0  0  0  0  0
  -29.8230  -18.0620   20.9870 C   0  0  0  0  0  0  0  0  0  0  0  0
  -29.9150  -20.5620   21.1600 C   0  0  0  0  0  0  0  0  0  0  0  0
  -30.6990  -14.6320   20.4320 C   0  0  0  0  0  0  0  0  0  0  0  0
  -30.4820  -12.3730   19.4650 C   0  0  0  0  0  2  0  0  0  0  0  0
  -29.5710  -12.4750   18.2220 C   0  0  0  0  0  2  0  0  0  0  0  0
  -28.0880  -12.3500   18.6210 C   0  0  0  0  0  2  0  0  0  0  0  0
  -27.6990  -13.2480   19.8250 C   0  0  0  0  0  3  0  0  0  0  0  0
  -28.7340  -13.1540   20.9700 C   0  0  0  0  0  2  0  0  0  0  0  0
  -30.0620  -13.4280   20.4030 N   0  0  0  0  0  0  0  0  0  0  0  0
  -31.9120  -14.7300   20.2340 O   0  0  0  0  0  0  0  0  0  0  0  0
  -28.7400  -16.9160   19.0470 C   0  0  0  0  0  3  0  0  0  0  0  0
  -30.0140  -16.2570   18.6250 C   0  0  0  0  0  2  0  0  0  0  0  0
  -29.1090  -16.7760   20.4960 C   0  0  0  0  0  3  0  0  0  0  0  0
  -27.6270  -17.0560   18.4860 N   0  0  0  0  0  2  0  0  0  0  0  0
  -29.9160  -15.6290   19.9550 N   0  0  0  0  0  0  0  0  0  0  0  0
  -27.2590  -17.9940   18.6000 H   0  0  0  0  0  0  0  0  0  0  0  0
  -25.2920  -13.8540   20.4940 C   0  0  0  0  0  0  0  0  0  0  0  0
  -24.2170  -13.0770   20.8310 C   0  0  0  0  0  0  0  0  0  0  0  0
  -24.6850  -11.7270   20.8270 C   0  0  0  0  0  0  0  0  0  0  0  0
  -26.3430  -12.9730   20.2870 N   0  0  0  0  0  0  0  0  0  0  0  0
  -25.9830  -11.6920   20.5540 N   0  0  0  0  0  0  0  0  0  0  0  0
  -23.9640  -10.4590   21.0090 C   0  0  0  0  0  0  0  0  0  0  0  0
  -24.3770   -9.5040   21.9650 C   0  0  0  0  0  3  0  0  0  0  0  0
  -23.6580   -8.3020   22.1340 C   0  0  0  0  0  3  0  0  0  0  0  0
  -22.5110   -8.0450   21.3460 C   0  0  0  0  0  0  0  0  0  0  0  0
  -22.1170   -8.9880   20.3790 C   0  0  0  0  0  3  0  0  0  0  0  0
  -22.8370  -10.1820   20.2100 C   0  0  0  0  0  3  0  0  0  0  0  0
  -21.7670   -6.8920   21.4240 O   0  0  0  0  0  0  0  0  0  0  0  0
  -21.6790   -6.1650   22.5840 C   0  0  0  0  0  0  0  0  0  0  0  0
  -21.1700   -6.7260   23.7760 C   0  0  0  0  0  3  0  0  0  0  0  0
  -21.0320   -5.9260   24.9280 C   0  0  0  0  0  3  0  0  0  0  0  0
  -21.3930   -4.5660   24.8900 C   0  0  0  0  0  0  0  0  0  0  0  0
  -21.8930   -4.0050   23.7020 C   0  0  0  0  0  3  0  0  0  0  0  0
  -22.0340   -4.8010   22.5530 C   0  0  0  0  0  0  0  0  0  0  0  0
  -22.4970   -4.2490   21.4050 F   0  0  0  0  0  0  0  0  0  0  0  0
  -21.2540   -3.7960   25.9940 F   0  0  0  0  0  0  0  0  0  0  0  0
  -22.8080  -13.5460   21.0580 C   0  0  0  0  0  0  0  0  0  0  0  0
  -22.0610  -12.8500   21.9060 N   0  0  0  0  0  0  0  0  0  0  0  0
  -22.3770  -14.5640   20.5150 O   0  0  0  0  0  0  0  0  0  0  0  0
  -22.4250  -12.0270   22.3640 H   0  0  0  0  0  0  0  0  0  0  0  0
  -21.1140  -13.1450   22.1000 H   0  0  0  0  0  0  0  0  0  0  0  0
  -25.4600  -15.2250   20.3160 N   0  0  0  0  0  0  0  0  0  0  0  0
  -24.6950  -15.8840   20.3990 H   0  0  0  0  0  0  0  0  0  0  0  0
  -26.3010  -15.6500   19.9440 H   0  0  0  0  0  0  0  0  0  0  0  0
  -29.2460  -21.9600   20.9220 C   0  0  0  0  0  2  0  0  0  0  0  0
  -31.0350  -22.6770   19.2600 C   0  0  0  0  0  1  0  0  0  0  0  0
  -30.9320  -23.8540   21.4780 C   0  0  0  0  0  1  0  0  0  0  0  0
  -30.0820  -23.1910   20.3670 C   0  0  2  0  0  0  0  0  0  0  0  0
  -29.2170  -24.3460   19.6980 C   0  0  0  0  0  2  0  0  0  0  0  0
  -28.2950  -25.2910   20.5470 C   0  0  0  0  0  2  0  0  0  0  0  0
  -28.3270  -26.6720   20.0780 O   0  0  0  0  0  0  0  0  0  0  0  0
  -24.5610  -31.8900   23.2330 C   0  0  0  0  0  0  0  0  0  0  0  0
  -27.1580  -27.4190   20.1180 C   0  0  0  0  0  0  0  0  0  0  0  0
  -23.3350  -30.5040   21.5900 C   0  0  0  0  0  3  0  0  0  0  0  0
  -24.7710  -28.9580   20.1490 C   0  0  0  0  0  0  0  0  0  0  0  0
  -25.8630  -30.8440   21.3740 C   0  0  0  0  0  2  0  0  0  0  0  0
  -25.9380  -29.4720   20.7280 C   0  0  0  0  0  0  0  0  0  0  0  0
  -27.1350  -28.7110   20.7040 C   0  0  0  0  0  3  0  0  0  0  0  0
  -25.9720  -26.9300   19.5280 C   0  0  0  0  0  3  0  0  0  0  0  0
  -24.7830  -27.6890   19.5470 C   0  0  0  0  0  3  0  0  0  0  0  0
  -23.5320  -29.8290   20.2070 C   0  0  0  0  0  2  0  0  0  0  0  0
  -24.6060  -31.0960   22.1250 N   0  0  0  0  0  0  0  0  0  0  0  0
  -23.4860  -32.1620   23.7850 O   0  0  0  0  0  0  0  0  0  0  0  0
  -22.6850  -29.4820   22.5520 C   0  0  0  0  0  0  0  0  0  0  0  0
  -21.3590  -29.3010   22.4310 N   0  0  0  0  0  0  0  0  0  0  0  0
  -23.3720  -28.8550   23.3620 O   0  0  0  0  0  0  0  0  0  0  0  0
  -20.8650  -29.8620   21.7520 H   0  0  0  0  0  0  0  0  0  0  0  0
  -17.9910  -28.0950   22.9360 C   0  0  0  0  0  0  0  0  0  0  0  0
  -20.5490  -28.3580   23.2020 C   0  0  0  0  0  3  0  0  0  0  0  0
  -20.6520  -26.9300   22.6200 C   0  0  0  0  0  2  0  0  0  0  0  0
  -19.5480  -26.6090   21.6070 C   0  0  0  0  0  2  0  0  0  0  0  0
  -18.1680  -26.7490   22.2560 C   0  0  0  0  0  2  0  0  0  0  0  0
  -19.1080  -28.8580   23.3660 C   0  0  0  0  0  0  0  0  0  0  0  0
  -18.8900  -30.1190   23.9620 C   0  0  0  0  0  3  0  0  0  0  0  0
  -17.5840  -30.6180   24.1320 C   0  0  0  0  0  3  0  0  0  0  0  0
  -16.4800  -29.8520   23.7190 C   0  0  0  0  0  3  0  0  0  0  0  0
  -16.6850  -28.5930   23.1260 C   0  0  0  0  0  3  0  0  0  0  0  0
  -25.8560  -32.5120   23.8450 C   0  0  0  0  0  3  0  0  0  0  0  0
  -26.3730  -31.7400   25.1210 C   0  0  1  0  0  0  0  0  0  0  0  0
  -25.2850  -31.5160   26.1960 C   0  0  0  0  0  1  0  0  0  0  0  0
  -26.9410  -30.3560   24.7290 C   0  0  0  0  0  1  0  0  0  0  0  0
  -27.5340  -32.5270   25.7760 C   0  0  0  0  0  1  0  0  0  0  0  0
  -25.5620  -33.9140   24.1710 N   0  0  0  0  0  0  0  0  0  0  0  0
  -25.9060  -34.9610   23.4090 C   0  0  0  0  0  0  0  0  0  0  0  0
  -26.5740  -34.8470   22.3780 O   0  0  0  0  0  0  0  0  0  0  0  0
  -24.9680  -34.0780   24.9720 H   0  0  0  0  0  0  0  0  0  0  0  0
  -24.2070  -36.7770   23.0390 C   0  0  0  0  0  1  0  0  0  0  0  0
  -25.4340  -36.3540   23.8630 C   0  0  0  0  0  3  0  0  0  0  0  0
  -27.5670  -37.2130   24.7240 C   0  0  0  0  0  1  0  0  0  0  0  0
  -26.4810  -37.3940   23.7630 N   0  0  0  0  0  0  0  0  0  0  0  0
  -26.0850  -38.3190   23.9040 H   0  0  0  0  0  0  0  0  0  0  0  0
  2  1  2  0
  3  1  1  0
  4  5  2  0
  4  6  1  0
  5  2  1  0
  6  3  2  0
  8 13  1  0
  9 10  1  0
  9  8  1  0
 11 10  1  0
 11 24  1  0
 11 12  1  0
 13  7  1  0
 13 12  1  0
 14  7  2  0
 15 18  1  0
 15 17  1  0
 16 15  1  0
 16 19  1  0
 17  5  1  0
 18 20  1  0
 19  7  1  0
 19 17  1  0
 21 22  2  0
 22 41  1  0
 23 22  1  0
 23 26  1  0
 24 21  1  0
 24 25  1  0
 25 23  2  0
 26 27  1  0
 27 28  2  0
 29 32  1  0
 29 28  1  0
 30 29  2  0
 31 30  1  0
 31 26  2  0
 32 33  1  0
 33 34  1  0
 34 35  2  0
 36 35  1  0
 36 40  1  0
 37 36  2  0
 38 33  2  0
 38 37  1  0
 39 38  1  0
 41 42  1  0
 42 45  1  0
 42 44  1  0
 43 41  2  0
 46 47  1  0
 46 21  1  0
 48 46  1  0
 49  6  1  0
 52 50  1  6
 52 49  1  0
 52 51  1  0
 53 52  1  0
 53 54  1  0
 55 57  1  0
 55 54  1  0
 56 67  2  0
 57 62  1  0
 58 66  1  0
 58 68  1  0
 59 65  1  0
 59 61  1  0
 60 66  1  0
 61 60  1  0
 62 61  2  0
 63 64  1  0
 63 57  2  0
 64 59  2  0
 65 58  1  0
 66 56  1  0
 68 70  2  0
 69 68  1  0
 71 69  1  0
 72 81  2  0
 72 77  1  0
 73 69  1  0
 73 77  1  0
 74 73  1  0
 75 76  1  0
 75 74  1  0
 76 72  1  0
 77 78  2  0
 78 79  1  0
 80 79  2  0
 81 80  1  0
 82 56  1  0
 82 87  1  0
 82 83  1  0
 83 86  1  1
 83 84  1  0
 85 83  1  0
 87 90  1  0
 88 92  1  0
 88 87  1  0
 89 88  2  0
 92 91  1  0
 94 92  1  0
 94 95  1  0
 94 93  1  0
M  ISO  4   7 100  19 100  54 101  55 101
M  END
>  <TORSDO>  (39) 
F 20

>  <SCORE>  (39) 
-13.865

>  <name>  (39) 
39

>  <ligand_id>  (39) 
39

>  <original_smiles>  (39) 
[H]N=C1C([H])([H])N(C(=O)N2C([H])([H])C([H])([H])C([H])([H])C([H])(n3nc(-c4c([H])c([H])c(Oc5c([H])c([H])c(F)c([H])c5F)c([H])c4[H])c(C(=O)N([H])[H])c3N([H])[H])C2([H])[H])C1([H])c1c([H])c([H])c([H])c(C([H])([H])C(C([H])([H])[H])(C([H])([H])[H])C([H])([H])C([H])([H])Oc2c([H])c([H])c3c(c2[H])C([H])([H])N(C(=O)C([H])(N([H])C(=O)C([H])(N([H])C([H])([H])[H])C([H])([H])[H])C(C([H])([H])[H])(C([H])([H])[H])C([H])([H])[H])C([H])(C(=O)N([H])C2([H])c4c([H])c([H])c([H])c([H])c4C([H])([H])C([H])([H])C2([H])[H])C3([H])[H])c1[H]

>  <smiles>  (39) 
[H]N=C1C([H])([H])N(C(=O)N2C([H])([H])C([H])([H])C([H])([H])C([H])(n3nc(-c4c([H])c([H])c(Oc5c([H])c([H])c(F)c([H])c5F)c([H])c4[H])c(C(=O)N([H])[H])c3N([H])[H])C2([H])[H])C1([H])c1c([H])c([H])c([H])c(C([H])([H])C(C([H])([H])[H])(C([H])([H])[H])C([H])([H])C([H])([H])Oc2c([H])c([H])c3c(c2[H])C([H])([H])N(C(=O)C([H])(N([H])C(=O)C([H])(N([H])C([H])([H])[H])C([H])([H])[H])C(C([H])([H])[H])(C([H])([H])[H])C([H])([H])[H])C([H])(C(=O)N([H])C2([H])c4c([H])c([H])c([H])c([H])c4C([H])([H])C([H])([H])C2([H])[H])C3([H])[H])c1[H]

$$$$
40:0:0
     RDKit          3D

102111  0  0  1  0  0  0  0  0999 V2000
  -30.8520  -20.5420   22.1040 C   0  0  0  0  0  3  0  0  0  0  0  0
  -28.9440  -22.1320   20.8170 C   0  0  0  0  0  3  0  0  0  0  0  0
  -30.4870  -20.2380   20.7750 C   0  0  0  0  0  0  0  0  0  0  0  0
  -30.3010  -21.6490   22.7840 C   0  0  0  0  0  0  0  0  0  0  0  0
  -29.5190  -21.0450   20.1280 C   0  0  0  0  0  0  0  0  0  0  0  0
  -29.3310  -22.4520   22.1350 C   0  0  0  0  0  0  0  0  0  0  0  0
  -30.7700  -21.9470   24.2000 C   0  0  0  0  0  1  0  0  0  0  0  0
  -29.1000  -20.7840   18.6910 C   0  0  0  0  0  1  0  0  0  0  0  0
  -32.3710  -19.2690   19.5110 C   0  0  0  0  0  0  0  0  0  0  0  0
  -31.1500  -19.1100   20.0900 C   0  0  0  0  0  0  0  0  0  0  0  0
  -33.1140  -20.5990   19.4400 C   0  0  0  0  0  1  0  0  0  0  0  0
  -34.5060  -16.0160   17.6840 C   0  0  0  0  0  3  0  0  0  0  0  0
  -33.3230  -16.4960   17.0890 C   0  0  0  0  0  3  0  0  0  0  0  0
  -35.0040  -16.6260   18.8510 C   0  0  0  0  0  3  0  0  0  0  0  0
  -32.6270  -17.5750   17.6720 C   0  0  0  0  0  3  0  0  0  0  0  0
  -34.3020  -17.6990   19.4350 C   0  0  0  0  0  3  0  0  0  0  0  0
  -33.0960  -18.1620   18.8670 C   0  0  0  0  0  0  0  0  0  0  0  0
  -30.3850  -17.7800   20.1050 C   0  0  0  0  0  2  0  0  0  0  0  0
  -30.6750  -16.8790   21.3270 C   0  0  0  0  0  2  0  0  0  0  0  0
  -30.7620  -14.5280   20.4770 C   0  0  0  0  0  0  0  0  0  0  0  0
  -30.4780  -12.3230   19.4100 C   0  0  0  0  0  2  0  0  0  0  0  0
  -29.5560  -12.4430   18.1820 C   0  0  0  0  0  2  0  0  0  0  0  0
  -28.0790  -12.3020   18.5960 C   0  0  0  0  0  2  0  0  0  0  0  0
  -27.7080  -13.2150   19.7950 C   0  0  0  0  0  3  0  0  0  0  0  0
  -28.7430  -13.0820   20.9350 C   0  0  0  0  0  2  0  0  0  0  0  0
  -30.0780  -13.3580   20.3770 N   0  0  0  0  0  0  0  0  0  0  0  0
  -31.8500  -14.7110   19.9310 O   0  0  0  0  0  0  0  0  0  0  0  0
  -30.1530  -15.5150   21.1540 N   0  0  0  0  0  0  0  0  0  0  0  0
  -29.2580  -15.3010   21.5670 H   0  0  0  0  0  0  0  0  0  0  0  0
  -25.3070  -13.8350   20.4910 C   0  0  0  0  0  0  0  0  0  0  0  0
  -24.2340  -13.0660   20.8550 C   0  0  0  0  0  0  0  0  0  0  0  0
  -24.6880  -11.7130   20.8230 C   0  0  0  0  0  0  0  0  0  0  0  0
  -26.3490  -12.9490   20.2640 N   0  0  0  0  0  0  0  0  0  0  0  0
  -25.9780  -11.6680   20.5190 N   0  0  0  0  0  0  0  0  0  0  0  0
  -23.9540  -10.4540   21.0070 C   0  0  0  0  0  0  0  0  0  0  0  0
  -24.3600   -9.4960   21.9630 C   0  0  0  0  0  3  0  0  0  0  0  0
  -23.6270   -8.3020   22.1340 C   0  0  0  0  0  3  0  0  0  0  0  0
  -22.4760   -8.0560   21.3480 C   0  0  0  0  0  0  0  0  0  0  0  0
  -22.0910   -9.0020   20.3810 C   0  0  0  0  0  3  0  0  0  0  0  0
  -22.8240  -10.1880   20.2080 C   0  0  0  0  0  3  0  0  0  0  0  0
  -21.7180   -6.9130   21.4260 O   0  0  0  0  0  0  0  0  0  0  0  0
  -21.6080   -6.2010   22.5950 C   0  0  0  0  0  0  0  0  0  0  0  0
  -21.1100   -6.7850   23.7800 C   0  0  0  0  0  3  0  0  0  0  0  0
  -20.9490   -5.9990   24.9380 C   0  0  0  0  0  3  0  0  0  0  0  0
  -21.2760   -4.6300   24.9120 C   0  0  0  0  0  0  0  0  0  0  0  0
  -21.7670   -4.0460   23.7320 C   0  0  0  0  0  3  0  0  0  0  0  0
  -21.9300   -4.8280   22.5750 C   0  0  0  0  0  0  0  0  0  0  0  0
  -22.3840   -4.2560   21.4340 F   0  0  0  0  0  0  0  0  0  0  0  0
  -21.1140   -3.8720   26.0220 F   0  0  0  0  0  0  0  0  0  0  0  0
  -22.8380  -13.5500   21.1230 C   0  0  0  0  0  0  0  0  0  0  0  0
  -22.1020  -12.8530   21.9820 N   0  0  0  0  0  0  0  0  0  0  0  0
  -22.4070  -14.5820   20.6090 O   0  0  0  0  0  0  0  0  0  0  0  0
  -22.4600  -12.0170   22.4200 H   0  0  0  0  0  0  0  0  0  0  0  0
  -21.1640  -13.1590   22.2040 H   0  0  0  0  0  0  0  0  0  0  0  0
  -25.4790  -15.2040   20.3190 N   0  0  0  0  0  0  0  0  0  0  0  0
  -24.7170  -15.8650   20.4290 H   0  0  0  0  0  0  0  0  0  0  0  0
  -26.3370  -15.6410   20.0030 H   0  0  0  0  0  0  0  0  0  0  0  0
  -28.6570  -23.6340   22.8270 C   0  0  0  0  0  2  0  0  0  0  0  0
  -28.8150  -26.0870   23.3920 C   0  0  0  0  0  1  0  0  0  0  0  0
  -29.1010  -25.0290   22.3100 C   0  0  0  0  0  3  0  0  0  0  0  0
  -28.4230  -25.3730   20.9610 C   0  0  0  0  0  2  0  0  0  0  0  0
  -28.5440  -26.7590   20.6100 O   0  0  0  0  0  0  0  0  0  0  0  0
  -24.5730  -31.9640   23.3480 C   0  0  0  0  0  0  0  0  0  0  0  0
  -27.3670  -27.4690   20.5180 C   0  0  0  0  0  0  0  0  0  0  0  0
  -23.4360  -30.4960   21.7110 C   0  0  0  0  0  3  0  0  0  0  0  0
  -24.9570  -28.9370   20.3840 C   0  0  0  0  0  0  0  0  0  0  0  0
  -25.9610  -30.8880   21.5820 C   0  0  0  0  0  2  0  0  0  0  0  0
  -26.0860  -29.4980   20.9960 C   0  0  0  0  0  0  0  0  0  0  0  0
  -27.2950  -28.7720   21.0570 C   0  0  0  0  0  3  0  0  0  0  0  0
  -26.2270  -26.9290   19.8790 C   0  0  0  0  0  3  0  0  0  0  0  0
  -25.0210  -27.6500   19.8190 C   0  0  0  0  0  3  0  0  0  0  0  0
  -23.7010  -29.7770   20.3600 C   0  0  0  0  0  2  0  0  0  0  0  0
  -24.6730  -31.1320   22.2740 N   0  0  0  0  0  0  0  0  0  0  0  0
  -23.4720  -32.2410   23.8420 O   0  0  0  0  0  0  0  0  0  0  0  0
  -22.7650  -29.4990   22.6810 C   0  0  0  0  0  0  0  0  0  0  0  0
  -21.4570  -29.2650   22.4830 N   0  0  0  0  0  0  0  0  0  0  0  0
  -23.4170  -28.9380   23.5660 O   0  0  0  0  0  0  0  0  0  0  0  0
  -20.9970  -29.7750   21.7430 H   0  0  0  0  0  0  0  0  0  0  0  0
  -18.1060  -27.9450   22.7950 C   0  0  0  0  0  0  0  0  0  0  0  0
  -20.6210  -28.3370   23.2430 C   0  0  0  0  0  3  0  0  0  0  0  0
  -20.8290  -26.8810   22.7630 C   0  0  0  0  0  2  0  0  0  0  0  0
  -19.8230  -26.4500   21.6910 C   0  0  0  0  0  2  0  0  0  0  0  0
  -18.3910  -26.5670   22.2200 C   0  0  0  0  0  2  0  0  0  0  0  0
  -19.1550  -28.7820   23.2600 C   0  0  0  0  0  0  0  0  0  0  0  0
  -18.8410  -30.0660   23.7530 C   0  0  0  0  0  3  0  0  0  0  0  0
  -17.5090  -30.5200   23.7860 C   0  0  0  0  0  3  0  0  0  0  0  0
  -16.4720  -29.6810   23.3390 C   0  0  0  0  0  3  0  0  0  0  0  0
  -16.7700  -28.3960   22.8500 C   0  0  0  0  0  3  0  0  0  0  0  0
  -25.8310  -32.6260   23.9920 C   0  0  0  0  0  3  0  0  0  0  0  0
  -25.4990  -34.0310   24.2660 N   0  0  0  0  0  0  0  0  0  0  0  0
  -25.8440  -35.0590   23.4780 C   0  0  0  0  0  0  0  0  0  0  0  0
  -26.5480  -34.9290   22.4730 O   0  0  0  0  0  0  0  0  0  0  0  0
  -24.8800  -34.2070   25.0420 H   0  0  0  0  0  0  0  0  0  0  0  0
  -24.1030  -36.8130   23.0140 C   0  0  0  0  0  1  0  0  0  0  0  0
  -25.3280  -36.4570   23.8710 C   0  0  0  0  0  3  0  0  0  0  0  0
  -27.4290  -37.3970   24.7220 C   0  0  0  0  0  1  0  0  0  0  0  0
  -26.3510  -37.5170   23.7450 N   0  0  0  0  0  0  0  0  0  0  0  0
  -25.9300  -38.4360   23.8510 H   0  0  0  0  0  0  0  0  0  0  0  0
  -26.3120  -31.8970   25.3060 C   0  0  1  0  0  0  0  0  0  0  0  0
  -25.1790  -31.6420   26.3280 C   0  0  0  0  0  1  0  0  0  0  0  0
  -26.9550  -30.5330   24.9630 C   0  0  0  0  0  1  0  0  0  0  0  0
  -27.4060  -32.7400   26.0040 C   0  0  0  0  0  1  0  0  0  0  0  0
  1  4  1  0
  2  6  1  0
  3  1  2  0
  4  7  1  0
  5  3  1  0
  5  2  2  0
  6  4  2  0
  6 58  1  0
  8  5  1  0
  9 10  2  0
 10 18  1  0
 10  3  1  0
 11  9  1  0
 12 14  1  0
 13 15  1  0
 13 12  2  0
 14 16  2  0
 15 17  2  0
 17 16  1  0
 17  9  1  0
 18 19  1  0
 20 28  1  0
 21 26  1  0
 22 23  1  0
 22 21  1  0
 24 23  1  0
 24 33  1  0
 24 25  1  0
 26 20  1  0
 26 25  1  0
 27 20  2  0
 28 19  1  0
 28 29  1  0
 30 31  2  0
 31 50  1  0
 32 31  1  0
 32 35  1  0
 33 30  1  0
 33 34  1  0
 34 32  2  0
 35 36  1  0
 36 37  2  0
 38 41  1  0
 38 37  1  0
 39 38  2  0
 40 39  1  0
 40 35  2  0
 41 42  1  0
 42 43  1  0
 43 44  2  0
 45 44  1  0
 45 49  1  0
 46 45  2  0
 47 42  2  0
 47 46  1  0
 48 47  1  0
 50 51  1  0
 51 54  1  0
 51 53  1  0
 52 50  2  0
 55 56  1  0
 55 30  1  0
 57 55  1  0
 60 58  1  0
 60 59  1  0
 61 60  1  0
 62 61  1  0
 63 74  2  0
 64 62  1  0
 64 69  1  0
 65 73  1  0
 65 75  1  0
 66 68  1  0
 67 73  1  0
 68 69  2  0
 68 67  1  0
 70 64  2  0
 71 70  1  0
 71 66  2  0
 72 66  1  0
 72 65  1  0
 73 63  1  0
 75 77  2  0
 76 75  1  0
 78 76  1  0
 79 88  2  0
 79 84  1  0
 80 76  1  0
 80 84  1  0
 81 80  1  0
 82 83  1  0
 82 81  1  0
 83 79  1  0
 84 85  2  0
 85 86  1  0
 87 86  2  0
 88 87  1  0
 89 63  1  0
 89 90  1  0
 89 99  1  0
 90 93  1  0
 91 95  1  0
 91 90  1  0
 92 91  2  0
 95 94  1  0
 97 98  1  0
 97 95  1  0
 97 96  1  0
 99102  1  1
 99100  1  0
101 99  1  0
M  ISO  4  20 100  28 100  61 101  62 101
M  END
>  <TORSDO>  (40) 
F 23

>  <SCORE>  (40) 
-13.263

>  <name>  (40) 
40

>  <ligand_id>  (40) 
40

>  <original_smiles>  (40) 
[H]c1c([H])c([H])c(C(=C(c2c([H])c(C([H])([H])[H])c(C([H])([H])C([H])(C([H])([H])[H])C([H])([H])Oc3c([H])c([H])c4c(c3[H])C([H])([H])N(C(=O)C([H])(N([H])C(=O)C([H])(N([H])C([H])([H])[H])C([H])([H])[H])C(C([H])([H])[H])(C([H])([H])[H])C([H])([H])[H])C([H])(C(=O)N([H])C3([H])c5c([H])c([H])c([H])c([H])c5C([H])([H])C([H])([H])C3([H])[H])C4([H])[H])c([H])c2C([H])([H])[H])C([H])([H])C([H])([H])N([H])C(=O)N2C([H])([H])C([H])([H])C([H])([H])C([H])(n3nc(-c4c([H])c([H])c(Oc5c([H])c([H])c(F)c([H])c5F)c([H])c4[H])c(C(=O)N([H])[H])c3N([H])[H])C2([H])[H])C([H])([H])[H])c([H])c1[H]

>  <smiles>  (40) 
[H]c1c([H])c([H])c(C(=C(c2c([H])c(C([H])([H])[H])c(C([H])([H])C([H])(C([H])([H])[H])C([H])([H])Oc3c([H])c([H])c4c(c3[H])C([H])([H])N(C(=O)C([H])(N([H])C(=O)C([H])(N([H])C([H])([H])[H])C([H])([H])[H])C(C([H])([H])[H])(C([H])([H])[H])C([H])([H])[H])C([H])(C(=O)N([H])C3([H])c5c([H])c([H])c([H])c([H])c5C([H])([H])C([H])([H])C3([H])[H])C4([H])[H])c([H])c2C([H])([H])[H])C([H])([H])C([H])([H])N([H])C(=O)N2C([H])([H])C([H])([H])C([H])([H])C([H])(n3nc(-c4c([H])c([H])c(Oc5c([H])c([H])c(F)c([H])c5F)c([H])c4[H])c(C(=O)N([H])[H])c3N([H])[H])C2([H])[H])C([H])([H])[H])c([H])c1[H]

$$$$
41:0:0
     RDKit          3D

 96105  0  0  1  0  0  0  0  0999 V2000
  -29.6100  -21.4410   20.9470 C   0  0  0  0  0  2  0  0  0  0  0  0
  -28.9000  -21.7690   18.7410 C   0  0  0  0  0  2  0  0  0  0  0  0
  -29.1100  -20.0460   20.4710 C   0  0  0  0  0  3  0  0  0  0  0  0
  -28.5840  -20.2710   19.0070 C   0  0  2  0  0  0  0  0  0  0  0  0
  -29.1650  -19.4340   17.8460 C   0  0  0  0  0  1  0  0  0  0  0  0
  -27.0570  -20.0040   18.9750 C   0  0  0  0  0  1  0  0  0  0  0  0
  -29.0210  -22.4700   20.0390 N   0  0  1  0  0  4  0  0  0  0  0  0
  -29.7000  -23.2080   19.9170 H   0  0  0  0  0  0  0  0  0  0  0  0
  -30.9160  -17.4930   22.7630 C   0  0  0  0  0  3  0  0  0  0  0  0
  -30.2500  -18.6370   22.2760 C   0  0  0  0  0  3  0  0  0  0  0  0
  -31.2620  -16.4370   21.8980 C   0  0  0  0  0  3  0  0  0  0  0  0
  -30.3430  -17.7270   20.0420 C   0  0  0  0  0  3  0  0  0  0  0  0
  -29.9350  -18.7840   20.9020 C   0  0  0  0  0  0  0  0  0  0  0  0
  -30.9590  -16.5400   20.5260 C   0  0  0  0  0  0  0  0  0  0  0  0
  -31.8480  -14.3130   19.7490 C   0  0  0  0  0  0  0  0  0  0  0  0
  -31.2800  -12.1270   18.7650 C   0  0  0  0  0  2  0  0  0  0  0  0
  -30.2790  -12.3600   17.6140 C   0  0  0  0  0  2  0  0  0  0  0  0
  -28.8320  -12.3800   18.1470 C   0  0  0  0  0  2  0  0  0  0  0  0
  -28.6610  -13.3160   19.3760 C   0  0  0  0  0  3  0  0  0  0  0  0
  -29.7680  -13.0720   20.4270 C   0  0  0  0  0  2  0  0  0  0  0  0
  -31.0630  -13.2030   19.7470 N   0  0  0  0  0  0  0  0  0  0  0  0
  -33.0140  -14.3040   19.3500 O   0  0  0  0  0  0  0  0  0  0  0  0
  -31.1540  -15.4620   19.6090 N   0  0  0  0  0  0  0  0  0  0  0  0
  -31.2210  -15.7880   18.6570 H   0  0  0  0  0  0  0  0  0  0  0  0
  -26.4440  -14.2080   20.3210 C   0  0  0  0  0  0  0  0  0  0  0  0
  -25.3040  -13.5740   20.7300 C   0  0  0  0  0  0  0  0  0  0  0  0
  -25.5570  -12.1750   20.5900 C   0  0  0  0  0  0  0  0  0  0  0  0
  -27.3260  -13.2040   19.9560 N   0  0  0  0  0  0  0  0  0  0  0  0
  -26.8000  -11.9720   20.1750 N   0  0  0  0  0  0  0  0  0  0  0  0
  -24.6730  -11.0180   20.7700 C   0  0  0  0  0  0  0  0  0  0  0  0
  -24.9980   -9.9700   21.6600 C   0  0  0  0  0  3  0  0  0  0  0  0
  -24.1210   -8.8770   21.8290 C   0  0  0  0  0  3  0  0  0  0  0  0
  -22.9030   -8.8240   21.1080 C   0  0  0  0  0  0  0  0  0  0  0  0
  -22.5960   -9.8580   20.2060 C   0  0  0  0  0  3  0  0  0  0  0  0
  -23.4740  -10.9420   20.0350 C   0  0  0  0  0  3  0  0  0  0  0  0
  -22.0030   -7.7910   21.1920 O   0  0  0  0  0  0  0  0  0  0  0  0
  -21.8270   -7.0830   22.3540 C   0  0  0  0  0  0  0  0  0  0  0  0
  -21.4600   -7.7110   23.5640 C   0  0  0  0  0  3  0  0  0  0  0  0
  -21.2190   -6.9340   24.7160 C   0  0  0  0  0  3  0  0  0  0  0  0
  -21.3370   -5.5330   24.6580 C   0  0  0  0  0  0  0  0  0  0  0  0
  -21.6980   -4.9050   23.4520 C   0  0  0  0  0  3  0  0  0  0  0  0
  -21.9400   -5.6790   22.3030 C   0  0  0  0  0  0  0  0  0  0  0  0
  -22.2640   -5.0660   21.1390 F   0  0  0  0  0  0  0  0  0  0  0  0
  -21.1020   -4.7850   25.7620 F   0  0  0  0  0  0  0  0  0  0  0  0
  -24.0140  -14.2230   21.1430 C   0  0  0  0  0  0  0  0  0  0  0  0
  -23.2860  -13.6040   22.0640 N   0  0  0  0  0  0  0  0  0  0  0  0
  -23.6690  -15.3130   20.6850 O   0  0  0  0  0  0  0  0  0  0  0  0
  -23.5820  -12.7200   22.4530 H   0  0  0  0  0  0  0  0  0  0  0  0
  -22.4170  -14.0120   22.3790 H   0  0  0  0  0  0  0  0  0  0  0  0
  -26.8040  -15.5490   20.2090 N   0  0  0  0  0  0  0  0  0  0  0  0
  -26.1850  -16.3110   20.4660 H   0  0  0  0  0  0  0  0  0  0  0  0
  -27.7310  -15.8610   19.9420 H   0  0  0  0  0  0  0  0  0  0  0  0
  -27.7400  -23.1420   20.4460 C   0  0  0  0  0  2  0  0  0  0  0  0
  -27.8010  -24.2820   21.5110 C   0  0  0  0  0  2  0  0  0  0  0  0
  -28.4860  -25.6440   21.1720 C   0  0  0  0  0  2  0  0  0  0  0  0
  -28.0100  -26.3570   20.0250 O   0  0  0  0  0  0  0  0  0  0  0  0
  -24.5920  -31.7940   23.2590 C   0  0  0  0  0  0  0  0  0  0  0  0
  -26.9210  -27.1910   20.1600 C   0  0  0  0  0  0  0  0  0  0  0  0
  -23.2810  -30.4530   21.6490 C   0  0  0  0  0  3  0  0  0  0  0  0
  -24.6220  -28.8370   20.2030 C   0  0  0  0  0  0  0  0  0  0  0  0
  -25.8170  -30.6760   21.3950 C   0  0  0  0  0  2  0  0  0  0  0  0
  -25.8170  -29.2920   20.7730 C   0  0  0  0  0  0  0  0  0  0  0  0
  -26.9760  -28.4750   20.7570 C   0  0  0  0  0  3  0  0  0  0  0  0
  -25.7150  -26.7600   19.5750 C   0  0  0  0  0  3  0  0  0  0  0  0
  -24.5640  -27.5690   19.6010 C   0  0  0  0  0  3  0  0  0  0  0  0
  -23.4280  -29.7660   20.2670 C   0  0  0  0  0  2  0  0  0  0  0  0
  -24.5830  -30.9900   22.1580 N   0  0  0  0  0  0  0  0  0  0  0  0
  -23.5370  -32.1190   23.8200 O   0  0  0  0  0  0  0  0  0  0  0  0
  -22.5970  -29.4690   22.6240 C   0  0  0  0  0  0  0  0  0  0  0  0
  -21.2690  -29.3200   22.4920 N   0  0  0  0  0  0  0  0  0  0  0  0
  -23.2590  -28.8390   23.4540 O   0  0  0  0  0  0  0  0  0  0  0  0
  -20.7970  -29.8770   21.7930 H   0  0  0  0  0  0  0  0  0  0  0  0
  -17.8690  -28.2040   22.9830 C   0  0  0  0  0  0  0  0  0  0  0  0
  -20.4260  -28.4190   23.2780 C   0  0  0  0  0  3  0  0  0  0  0  0
  -20.5100  -26.9720   22.7420 C   0  0  0  0  0  2  0  0  0  0  0  0
  -19.4110  -26.6400   21.7280 C   0  0  0  0  0  2  0  0  0  0  0  0
  -18.0270  -26.8300   22.3540 C   0  0  0  0  0  2  0  0  0  0  0  0
  -18.9970  -28.9560   23.4020 C   0  0  0  0  0  0  0  0  0  0  0  0
  -18.8000  -30.2420   23.9480 C   0  0  0  0  0  3  0  0  0  0  0  0
  -17.5050  -30.7790   24.0800 C   0  0  0  0  0  3  0  0  0  0  0  0
  -16.3890  -30.0250   23.6740 C   0  0  0  0  0  3  0  0  0  0  0  0
  -16.5720  -28.7380   23.1330 C   0  0  0  0  0  3  0  0  0  0  0  0
  -25.9200  -32.3620   23.8480 C   0  0  0  0  0  3  0  0  0  0  0  0
  -26.4530  -31.5340   25.0810 C   0  0  1  0  0  0  0  0  0  0  0  0
  -25.3810  -31.2710   26.1650 C   0  0  0  0  0  1  0  0  0  0  0  0
  -27.0050  -30.1650   24.6170 C   0  0  0  0  0  1  0  0  0  0  0  0
  -27.6310  -32.2810   25.7490 C   0  0  0  0  0  1  0  0  0  0  0  0
  -25.6740  -33.7590   24.2290 N   0  0  0  0  0  0  0  0  0  0  0  0
  -26.0230  -34.8210   23.4890 C   0  0  0  0  0  0  0  0  0  0  0  0
  -26.6580  -34.7200   22.4350 O   0  0  0  0  0  0  0  0  0  0  0  0
  -25.1060  -33.9110   25.0490 H   0  0  0  0  0  0  0  0  0  0  0  0
  -24.3560  -36.6870   23.2330 C   0  0  0  0  0  1  0  0  0  0  0  0
  -25.6010  -36.2120   23.9990 C   0  0  0  0  0  3  0  0  0  0  0  0
  -27.7900  -36.9870   24.7950 C   0  0  0  0  0  1  0  0  0  0  0  0
  -26.6710  -37.2280   23.8890 N   0  0  0  0  0  0  0  0  0  0  0  0
  -26.3050  -38.1580   24.0720 H   0  0  0  0  0  0  0  0  0  0  0  0
  2  4  1  0
  2  7  1  0
  3 13  1  0
  3  1  1  0
  4  3  1  0
  4  5  1  6
  6  4  1  0
  7 53  1  0
  7  1  1  0
  7  8  1  6
 10  9  1  0
 11  9  2  0
 12 14  2  0
 12 13  1  0
 13 10  2  0
 14 11  1  0
 16 21  1  0
 17 18  1  0
 17 16  1  0
 19 18  1  0
 19 28  1  0
 19 20  1  0
 21 15  1  0
 21 20  1  0
 22 15  2  0
 23 15  1  0
 23 14  1  0
 24 23  1  0
 25 26  2  0
 26 45  1  0
 27 26  1  0
 27 30  1  0
 28 29  1  0
 28 25  1  0
 29 27  2  0
 30 31  1  0
 31 32  2  0
 33 36  1  0
 33 32  1  0
 34 33  2  0
 35 34  1  0
 35 30  2  0
 36 37  1  0
 37 38  1  0
 38 39  2  0
 40 39  1  0
 40 44  1  0
 41 40  2  0
 42 37  2  0
 42 41  1  0
 43 42  1  0
 45 46  1  0
 46 49  1  0
 46 48  1  0
 47 45  2  0
 50 25  1  0
 50 51  1  0
 52 50  1  0
 53 54  1  0
 55 54  1  0
 56 58  1  0
 56 55  1  0
 57 68  2  0
 58 63  1  0
 59 67  1  0
 59 69  1  0
 60 66  1  0
 60 62  1  0
 61 67  1  0
 62 61  1  0
 63 62  2  0
 64 65  1  0
 64 58  2  0
 65 60  2  0
 66 59  1  0
 67 57  1  0
 69 71  2  0
 70 69  1  0
 72 70  1  0
 73 82  2  0
 73 78  1  0
 74 70  1  0
 74 78  1  0
 75 74  1  0
 76 77  1  0
 76 75  1  0
 77 73  1  0
 78 79  2  0
 79 80  1  0
 81 80  2  0
 82 81  1  0
 83 57  1  0
 83 88  1  0
 83 84  1  0
 84 87  1  1
 84 85  1  0
 86 84  1  0
 88 91  1  0
 89 93  1  0
 89 88  1  0
 90 89  2  0
 93 92  1  0
 95 93  1  0
 95 96  1  0
 95 94  1  0
M  ISO  4  15 100  23 100  55 101  56 101
M  END
>  <TORSDO>  (41) 
F 20

>  <SCORE>  (41) 
-12.102

>  <name>  (41) 
41

>  <ligand_id>  (41) 
41

>  <original_smiles>  (41) 
[H]c1c([H])c([H])c2c(c1[H])C([H])([H])C([H])([H])C([H])([H])C2([H])N([H])C(=O)C1([H])N(C(=O)C([H])(N([H])C(=O)C([H])(N([H])C([H])([H])[H])C([H])([H])[H])C(C([H])([H])[H])(C([H])([H])[H])C([H])([H])[H])C([H])([H])c2c([H])c(OC([H])([H])C([H])([H])C([H])([H])[N+]3([H])C([H])([H])C([H])(c4c([H])c([H])c([H])c(N([H])C(=O)N5C([H])([H])C([H])([H])C([H])([H])C([H])(n6nc(-c7c([H])c([H])c(Oc8c([H])c([H])c(F)c([H])c8F)c([H])c7[H])c(C(=O)N([H])[H])c6N([H])[H])C5([H])[H])c4[H])C(C([H])([H])[H])(C([H])([H])[H])C3([H])[H])c([H])c([H])c2C1([H])[H]

>  <smiles>  (41) 
[H]c1c([H])c([H])c2c(c1[H])C([H])([H])C([H])([H])C([H])([H])C2([H])N([H])C(=O)C1([H])N(C(=O)C([H])(N([H])C(=O)C([H])(N([H])C([H])([H])[H])C([H])([H])[H])C(C([H])([H])[H])(C([H])([H])[H])C([H])([H])[H])C([H])([H])c2c([H])c(OC([H])([H])C([H])([H])C([H])([H])[N+]3([H])C([H])([H])C([H])(c4c([H])c([H])c([H])c(N([H])C(=O)N5C([H])([H])C([H])([H])C([H])([H])C([H])(n6nc(-c7c([H])c([H])c(Oc8c([H])c([H])c(F)c([H])c8F)c([H])c7[H])c(C(=O)N([H])[H])c6N([H])[H])C5([H])[H])c4[H])C(C([H])([H])[H])(C([H])([H])[H])C3([H])[H])c([H])c([H])c2C1([H])[H]

$$$$
42:0:0
     RDKit          3D

 96104  0  0  1  0  0  0  0  0999 V2000
  -29.3930  -18.3710   18.0780 C   0  0  0  0  0  0  0  0  0  0  0  0
  -30.4220  -18.5520   19.2270 C   0  0  0  0  0  3  0  0  0  0  0  0
  -29.5000  -19.8530   17.6370 C   0  0  0  0  0  3  0  0  0  0  0  0
  -30.6990  -20.0380   18.6160 C   0  0  0  0  0  3  0  0  0  0  0  0
  -28.8610  -17.3860   17.5550 O   0  0  0  0  0  0  0  0  0  0  0  0
  -30.5330  -21.3080   19.4740 N   0  0  0  0  0  4  0  0  0  0  0  0
  -31.3040  -21.3490   20.1210 H   0  0  0  0  0  0  0  0  0  0  0  0
  -29.7030  -21.2300   20.0400 H   0  0  0  0  0  0  0  0  0  0  0  0
  -30.4870  -22.6680   18.7650 C   0  0  0  0  0  2  0  0  0  0  0  0
  -30.0550  -23.9720   19.6240 C   0  0  0  0  0  3  0  0  0  0  0  0
  -29.7580  -25.3750   18.8840 C   0  0  0  0  0  3  0  0  0  0  0  0
  -29.4370  -26.6300   19.6270 O   0  0  0  0  0  0  0  0  0  0  0  0
  -24.9030  -31.1530   23.0130 C   0  0  0  0  0  0  0  0  0  0  0  0
  -28.1920  -27.2870   19.6120 C   0  0  0  0  0  0  0  0  0  0  0  0
  -23.9420  -29.7700   21.2060 C   0  0  0  0  0  3  0  0  0  0  0  0
  -25.6220  -28.5700   19.6870 C   0  0  0  0  0  0  0  0  0  0  0  0
  -26.4210  -30.4300   21.1510 C   0  0  0  0  0  2  0  0  0  0  0  0
  -26.6960  -29.1430   20.3740 C   0  0  0  0  0  0  0  0  0  0  0  0
  -27.9750  -28.5090   20.3300 C   0  0  0  0  0  3  0  0  0  0  0  0
  -27.0740  -26.7520   18.9320 C   0  0  0  0  0  3  0  0  0  0  0  0
  -25.8130  -27.3810   18.9660 C   0  0  0  0  0  3  0  0  0  0  0  0
  -24.2800  -29.2660   19.7750 C   0  0  0  0  0  2  0  0  0  0  0  0
  -25.1010  -30.4750   21.8440 N   0  0  0  0  0  0  0  0  0  0  0  0
  -23.7820  -31.2320   23.5310 O   0  0  0  0  0  0  0  0  0  0  0  0
  -23.4030  -28.5880   22.0470 C   0  0  0  0  0  0  0  0  0  0  0  0
  -22.1290  -28.2200   21.8260 N   0  0  0  0  0  0  0  0  0  0  0  0
  -24.1320  -28.0070   22.8590 O   0  0  0  0  0  0  0  0  0  0  0  0
  -21.6050  -28.7430   21.1420 H   0  0  0  0  0  0  0  0  0  0  0  0
  -18.9710  -26.4520   21.9770 C   0  0  0  0  0  0  0  0  0  0  0  0
  -21.4240  -27.1080   22.4680 C   0  0  0  0  0  3  0  0  0  0  0  0
  -21.8100  -25.7640   21.8130 C   0  0  0  0  0  2  0  0  0  0  0  0
  -20.8480  -25.3400   20.6980 C   0  0  0  0  0  2  0  0  0  0  0  0
  -19.4190  -25.2070   21.2330 C   0  0  0  0  0  2  0  0  0  0  0  0
  -19.9110  -27.3560   22.5400 C   0  0  0  0  0  0  0  0  0  0  0  0
  -19.4430  -28.5150   23.1910 C   0  0  0  0  0  3  0  0  0  0  0  0
  -18.0620  -28.7770   23.2900 C   0  0  0  0  0  3  0  0  0  0  0  0
  -17.1350  -27.8730   22.7410 C   0  0  0  0  0  3  0  0  0  0  0  0
  -17.5890  -26.7120   22.0930 C   0  0  0  0  0  3  0  0  0  0  0  0
  -26.0740  -31.8820   23.7410 C   0  0  0  0  0  3  0  0  0  0  0  0
  -25.5930  -33.2150   24.1360 N   0  0  0  0  0  0  0  0  0  0  0  0
  -25.8090  -34.3390   23.4410 C   0  0  0  0  0  0  0  0  0  0  0  0
  -26.5040  -34.3740   22.4220 O   0  0  0  0  0  0  0  0  0  0  0  0
  -24.9850  -33.2580   24.9390 H   0  0  0  0  0  0  0  0  0  0  0  0
  -23.8710  -35.9100   23.1470 C   0  0  0  0  0  1  0  0  0  0  0  0
  -25.1450  -35.6320   23.9600 C   0  0  0  0  0  3  0  0  0  0  0  0
  -27.1330  -36.7390   24.8680 C   0  0  0  0  0  1  0  0  0  0  0  0
  -26.0330  -36.8120   23.9120 N   0  0  0  0  0  0  0  0  0  0  0  0
  -25.5070  -37.6640   24.0920 H   0  0  0  0  0  0  0  0  0  0  0  0
  -26.6110  -31.0990   25.0040 C   0  0  1  0  0  0  0  0  0  0  0  0
  -25.5030  -30.6910   26.0030 C   0  0  0  0  0  1  0  0  0  0  0  0
  -27.3600  -29.8150   24.5720 C   0  0  0  0  0  1  0  0  0  0  0  0
  -27.6340  -31.9790   25.7640 C   0  0  0  0  0  1  0  0  0  0  0  0
  -29.6140  -20.0430   16.1790 N   0  0  0  0  0  0  0  0  0  0  0  0
  -30.3020  -19.3940   15.8060 H   0  0  0  0  0  0  0  0  0  0  0  0
  -28.7500  -19.7550   15.7240 H   0  0  0  0  0  0  0  0  0  0  0  0
  -31.4370  -17.3160   19.1240 C   0  0  0  0  0  2  0  0  0  0  0  0
  -31.6790  -14.7400   19.3090 C   0  0  0  0  0  0  0  0  0  0  0  0
  -31.3350  -12.4110   18.4800 C   0  0  0  0  0  2  0  0  0  0  0  0
  -30.2480  -12.4200   17.3770 C   0  0  0  0  0  2  0  0  0  0  0  0
  -28.8260  -12.2930   17.9770 C   0  0  0  0  0  2  0  0  0  0  0  0
  -28.6180  -13.2870   19.1470 C   0  0  0  0  0  3  0  0  0  0  0  0
  -29.7860  -13.1340   20.1260 C   0  0  0  0  0  2  0  0  0  0  0  0
  -31.0260  -13.5200   19.4140 N   0  0  0  0  0  0  0  0  0  0  0  0
  -32.7630  -14.7800   18.7140 O   0  0  0  0  0  0  0  0  0  0  0  0
  -31.0290  -15.9410   19.6460 N   0  0  0  0  0  0  0  0  0  0  0  0
  -26.4600  -14.0390   20.3260 C   0  0  0  0  0  0  0  0  0  0  0  0
  -25.3910  -13.3450   20.8090 C   0  0  0  0  0  0  0  0  0  0  0  0
  -25.6890  -11.9630   20.5860 C   0  0  0  0  0  0  0  0  0  0  0  0
  -27.3400  -13.0950   19.8230 N   0  0  0  0  0  0  0  0  0  0  0  0
  -26.8910  -11.8340   20.0440 N   0  0  0  0  0  0  0  0  0  0  0  0
  -24.8750  -10.7650   20.8000 C   0  0  0  0  0  0  0  0  0  0  0  0
  -25.2340   -9.7850   21.7510 C   0  0  0  0  0  3  0  0  0  0  0  0
  -24.4220   -8.6440   21.9420 C   0  0  0  0  0  3  0  0  0  0  0  0
  -23.2400   -8.4790   21.1850 C   0  0  0  0  0  0  0  0  0  0  0  0
  -22.9000   -9.4490   20.2280 C   0  0  0  0  0  3  0  0  0  0  0  0
  -23.7070  -10.5800   20.0320 C   0  0  0  0  0  3  0  0  0  0  0  0
  -22.4000   -7.3950   21.2880 O   0  0  0  0  0  0  0  0  0  0  0  0
  -22.1160   -6.8190   22.5000 C   0  0  0  0  0  0  0  0  0  0  0  0
  -21.5480   -7.5550   23.5620 C   0  0  0  0  0  3  0  0  0  0  0  0
  -21.2030   -6.9020   24.7620 C   0  0  0  0  0  3  0  0  0  0  0  0
  -21.4140   -5.5180   24.9000 C   0  0  0  0  0  0  0  0  0  0  0  0
  -21.9720   -4.7830   23.8380 C   0  0  0  0  0  3  0  0  0  0  0  0
  -22.3220   -5.4330   22.6410 C   0  0  0  0  0  0  0  0  0  0  0  0
  -22.8410   -4.7140   21.6160 F   0  0  0  0  0  0  0  0  0  0  0  0
  -21.0760   -4.8900   26.0510 F   0  0  0  0  0  0  0  0  0  0  0  0
  -24.1190  -13.9250   21.3550 C   0  0  0  0  0  0  0  0  0  0  0  0
  -23.4650  -13.2360   22.2820 N   0  0  0  0  0  0  0  0  0  0  0  0
  -23.7180  -15.0310   20.9900 O   0  0  0  0  0  0  0  0  0  0  0  0
  -23.7980  -12.3400   22.6070 H   0  0  0  0  0  0  0  0  0  0  0  0
  -22.6090  -13.6130   22.6680 H   0  0  0  0  0  0  0  0  0  0  0  0
  -26.7460  -15.4020   20.2550 N   0  0  0  0  0  0  0  0  0  0  0  0
  -26.1200  -16.0820   20.6650 H   0  0  0  0  0  0  0  0  0  0  0  0
  -27.5680  -15.8130   19.8410 H   0  0  0  0  0  0  0  0  0  0  0  0
  -30.2610  -16.0120   20.9070 C   0  0  0  0  0  2  0  0  0  0  0  0
  -30.1570  -16.8910   23.2650 C   0  0  0  0  0  1  0  0  0  0  0  0
  -30.3940  -17.2620   21.7920 C   0  0  0  0  0  2  0  0  0  0  0  0
  1  2  1  0
  2 56  1  0
  3 53  1  0
  3  1  1  0
  3  4  1  0
  4  2  1  0
  4  6  1  0
  5  1  2  0
  6  8  1  0
  6  7  1  0
  9  6  1  0
  9 10  1  0
 11 10  2  0
 11 12  1  0
 13 24  2  0
 14 12  1  0
 14 19  1  0
 15 23  1  0
 15 25  1  0
 16 22  1  0
 16 18  1  0
 17 23  1  0
 18 17  1  0
 19 18  2  0
 20 21  1  0
 20 14  2  0
 21 16  2  0
 22 15  1  0
 23 13  1  0
 25 27  2  0
 26 25  1  0
 28 26  1  0
 29 38  2  0
 29 34  1  0
 30 26  1  0
 30 34  1  0
 31 30  1  0
 32 33  1  0
 32 31  1  0
 33 29  1  0
 34 35  2  0
 35 36  1  0
 37 36  2  0
 38 37  1  0
 39 13  1  0
 39 40  1  0
 39 49  1  0
 40 43  1  0
 41 45  1  0
 41 40  1  0
 42 41  2  0
 45 44  1  0
 47 45  1  0
 47 48  1  0
 47 46  1  0
 49 52  1  1
 49 50  1  0
 51 49  1  0
 54 53  1  0
 55 53  1  0
 56 65  1  0
 57 63  1  0
 57 65  1  0
 58 63  1  0
 59 60  1  0
 59 58  1  0
 61 60  1  0
 61 69  1  0
 61 62  1  0
 63 62  1  0
 64 57  2  0
 65 94  1  0
 66 67  2  0
 67 86  1  0
 68 71  1  0
 68 67  1  0
 69 70  1  0
 69 66  1  0
 70 68  2  0
 71 72  1  0
 72 73  2  0
 74 77  1  0
 74 73  1  0
 75 74  2  0
 76 75  1  0
 76 71  2  0
 77 78  1  0
 78 83  2  0
 78 79  1  0
 79 80  2  0
 80 81  1  0
 81 85  1  0
 82 81  2  0
 83 82  1  0
 84 83  1  0
 86 87  1  0
 87 89  1  0
 87 90  1  0
 88 86  2  0
 91 66  1  0
 91 92  1  0
 93 91  1  0
 94 96  1  0
 96 95  1  0
M  ISO  4  11 101  12 101  57 100  65 100
M  END
>  <TORSDO>  (42) 
F 24

>  <SCORE>  (42) 
-7.653

>  <name>  (42) 
42

>  <ligand_id>  (42) 
42

>  <original_smiles>  (42) 
[H]c1c([H])c([H])c2c(c1[H])C([H])([H])C([H])([H])C([H])([H])C2([H])N([H])C(=O)C1([H])N(C(=O)C([H])(N([H])C(=O)C([H])(N([H])C([H])([H])[H])C([H])([H])[H])C(C([H])([H])[H])(C([H])([H])[H])C([H])([H])[H])C([H])([H])c2c([H])c(OC([H])([H])C([H])([H])C([H])([H])[N+]([H])([H])C3([H])C([H])(N([H])[H])C(=O)C3([H])C([H])([H])N(C(=O)N3C([H])([H])C([H])([H])C([H])([H])C([H])(n4nc(-c5c([H])c([H])c(Oc6c([H])c([H])c(F)c([H])c6F)c([H])c5[H])c(C(=O)N([H])[H])c4N([H])[H])C3([H])[H])C([H])([H])C([H])([H])C([H])([H])[H])c([H])c([H])c2C1([H])[H]

>  <smiles>  (42) 
[H]c1c([H])c([H])c2c(c1[H])C([H])([H])C([H])([H])C([H])([H])C2([H])N([H])C(=O)C1([H])N(C(=O)C([H])(N([H])C(=O)C([H])(N([H])C([H])([H])[H])C([H])([H])[H])C(C([H])([H])[H])(C([H])([H])[H])C([H])([H])[H])C([H])([H])c2c([H])c(OC([H])([H])C([H])([H])C([H])([H])[N+]([H])([H])C3([H])C([H])(N([H])[H])C(=O)C3([H])C([H])([H])N(C(=O)N3C([H])([H])C([H])([H])C([H])([H])C([H])(n4nc(-c5c([H])c([H])c(Oc6c([H])c([H])c(F)c([H])c6F)c([H])c5[H])c(C(=O)N([H])[H])c4N([H])[H])C3([H])[H])C([H])([H])C([H])([H])C([H])([H])[H])c([H])c([H])c2C1([H])[H]

$$$$
43:0:0
     RDKit          3D

 95104  0  0  1  0  0  0  0  0999 V2000
  -29.6640  -23.1360   18.5320 C   0  0  0  0  0  3  0  0  0  0  0  0
  -29.0330  -23.0950   19.7110 C   0  0  0  0  0  0  0  0  0  0  0  0
  -30.5390  -21.9810   18.4080 C   0  0  0  0  0  0  0  0  0  0  0  0
  -30.3840  -21.1440   19.6090 C   0  0  0  0  0  0  0  0  0  0  0  0
  -30.9470  -19.9120   19.6950 C   0  0  0  0  0  3  0  0  0  0  0  0
  -29.4350  -21.8850   20.5530 C   0  0  0  0  0  2  0  0  0  0  0  0
  -31.2770  -21.7510   17.4440 O   0  0  0  0  0  0  0  0  0  0  0  0
  -31.0410  -18.3380   23.1720 C   0  0  0  0  0  3  0  0  0  0  0  0
  -31.0290  -19.3110   22.1540 C   0  0  0  0  0  3  0  0  0  0  0  0
  -30.9270  -16.9710   22.8510 C   0  0  0  0  0  3  0  0  0  0  0  0
  -30.8500  -17.5450   20.4850 C   0  0  0  0  0  3  0  0  0  0  0  0
  -30.9470  -18.9250   20.7980 C   0  0  0  0  0  0  0  0  0  0  0  0
  -30.8250  -16.5610   21.5080 C   0  0  0  0  0  0  0  0  0  0  0  0
  -31.0000  -14.3990   20.2390 C   0  0  0  0  0  0  0  0  0  0  0  0
  -30.5700  -12.3300   18.9510 C   0  0  0  0  0  2  0  0  0  0  0  0
  -29.5990  -12.6110   17.7860 C   0  0  0  0  0  2  0  0  0  0  0  0
  -28.1370  -12.4840   18.2520 C   0  0  0  0  0  2  0  0  0  0  0  0
  -27.8610  -13.2910   19.5470 C   0  0  0  0  0  3  0  0  0  0  0  0
  -28.9370  -12.9890   20.6180 C   0  0  0  0  0  2  0  0  0  0  0  0
  -30.2700  -13.2650   20.0470 N   0  0  0  0  0  0  0  0  0  0  0  0
  -32.0090  -14.6730   19.5780 O   0  0  0  0  0  0  0  0  0  0  0  0
  -30.5850  -15.1750   21.2560 N   0  0  0  0  0  0  0  0  0  0  0  0
  -29.9200  -14.7310   21.8720 H   0  0  0  0  0  0  0  0  0  0  0  0
  -25.4890  -13.9530   20.3070 C   0  0  0  0  0  0  0  0  0  0  0  0
  -24.4140  -13.2050   20.7040 C   0  0  0  0  0  0  0  0  0  0  0  0
  -24.8460  -11.8440   20.6680 C   0  0  0  0  0  0  0  0  0  0  0  0
  -26.5110  -13.0490   20.0550 N   0  0  0  0  0  0  0  0  0  0  0  0
  -26.1270  -11.7760   20.3300 N   0  0  0  0  0  0  0  0  0  0  0  0
  -24.1000  -10.5970   20.8830 C   0  0  0  0  0  0  0  0  0  0  0  0
  -24.5230   -9.6380   21.8290 C   0  0  0  0  0  3  0  0  0  0  0  0
  -23.7800   -8.4550   22.0300 C   0  0  0  0  0  3  0  0  0  0  0  0
  -22.5990   -8.2230   21.2870 C   0  0  0  0  0  0  0  0  0  0  0  0
  -22.1940   -9.1720   20.3300 C   0  0  0  0  0  3  0  0  0  0  0  0
  -22.9370  -10.3460   20.1270 C   0  0  0  0  0  3  0  0  0  0  0  0
  -21.8270   -7.0930   21.3960 O   0  0  0  0  0  0  0  0  0  0  0  0
  -21.7460   -6.3860   22.5690 C   0  0  0  0  0  0  0  0  0  0  0  0
  -21.3230   -6.9900   23.7730 C   0  0  0  0  0  3  0  0  0  0  0  0
  -21.1850   -6.2110   24.9400 C   0  0  0  0  0  3  0  0  0  0  0  0
  -21.4620   -4.8310   24.9030 C   0  0  0  0  0  0  0  0  0  0  0  0
  -21.8810   -4.2280   23.7040 C   0  0  0  0  0  3  0  0  0  0  0  0
  -22.0190   -5.0030   22.5390 C   0  0  0  0  0  0  0  0  0  0  0  0
  -22.4020   -4.4130   21.3810 F   0  0  0  0  0  0  0  0  0  0  0  0
  -21.3230   -4.0830   26.0210 F   0  0  0  0  0  0  0  0  0  0  0  0
  -23.0340  -13.7110   21.0090 C   0  0  0  0  0  0  0  0  0  0  0  0
  -22.3180  -13.0400   21.9030 N   0  0  0  0  0  0  0  0  0  0  0  0
  -22.6000  -14.7370   20.4860 O   0  0  0  0  0  0  0  0  0  0  0  0
  -22.6860  -12.2140   22.3510 H   0  0  0  0  0  0  0  0  0  0  0  0
  -21.3910  -13.3600   22.1450 H   0  0  0  0  0  0  0  0  0  0  0  0
  -25.6780  -15.3190   20.1200 N   0  0  0  0  0  0  0  0  0  0  0  0
  -24.9320  -15.9940   20.2440 H   0  0  0  0  0  0  0  0  0  0  0  0
  -26.5410  -15.7390   19.7930 H   0  0  0  0  0  0  0  0  0  0  0  0
  -26.7540  -23.3810   20.8150 C   0  0  0  0  0  1  0  0  0  0  0  0
  -27.9370  -24.0870   20.1240 C   0  0  0  0  0  3  0  0  0  0  0  0
  -28.4570  -25.3260   20.9180 C   0  0  0  0  0  2  0  0  0  0  0  0
  -28.4760  -26.5680   20.1860 O   0  0  0  0  0  0  0  0  0  0  0  0
  -24.5910  -31.7520   23.1690 C   0  0  0  0  0  0  0  0  0  0  0  0
  -27.3060  -27.2990   20.1740 C   0  0  0  0  0  0  0  0  0  0  0  0
  -23.4230  -30.3390   21.5110 C   0  0  0  0  0  3  0  0  0  0  0  0
  -24.9080  -28.8020   20.1200 C   0  0  0  0  0  0  0  0  0  0  0  0
  -25.9490  -30.7080   21.3570 C   0  0  0  0  0  2  0  0  0  0  0  0
  -26.0510  -29.3320   20.7290 C   0  0  0  0  0  0  0  0  0  0  0  0
  -27.2550  -28.5880   20.7540 C   0  0  0  0  0  3  0  0  0  0  0  0
  -26.1460  -26.7900   19.5450 C   0  0  0  0  0  3  0  0  0  0  0  0
  -24.9510  -27.5330   19.5190 C   0  0  0  0  0  3  0  0  0  0  0  0
  -23.6590  -29.6550   20.1360 C   0  0  0  0  0  2  0  0  0  0  0  0
  -24.6720  -30.9520   22.0690 N   0  0  0  0  0  0  0  0  0  0  0  0
  -23.4990  -32.0140   23.6920 O   0  0  0  0  0  0  0  0  0  0  0  0
  -22.7600  -29.3160   22.4620 C   0  0  0  0  0  0  0  0  0  0  0  0
  -21.4370  -29.1290   22.3130 N   0  0  0  0  0  0  0  0  0  0  0  0
  -23.4330  -28.6950   23.2880 O   0  0  0  0  0  0  0  0  0  0  0  0
  -20.9560  -29.6800   21.6160 H   0  0  0  0  0  0  0  0  0  0  0  0
  -18.0590  -27.9210   22.7470 C   0  0  0  0  0  0  0  0  0  0  0  0
  -20.6100  -28.1900   23.0710 C   0  0  0  0  0  3  0  0  0  0  0  0
  -20.7310  -26.7570   22.5020 C   0  0  0  0  0  2  0  0  0  0  0  0
  -19.6510  -26.4270   21.4670 C   0  0  0  0  0  2  0  0  0  0  0  0
  -18.2550  -26.5680   22.0800 C   0  0  0  0  0  2  0  0  0  0  0  0
  -19.1650  -28.6880   23.1960 C   0  0  0  0  0  0  0  0  0  0  0  0
  -18.9300  -29.9540   23.7730 C   0  0  0  0  0  3  0  0  0  0  0  0
  -17.6200  -30.4500   23.9090 C   0  0  0  0  0  3  0  0  0  0  0  0
  -16.5270  -29.6800   23.4760 C   0  0  0  0  0  3  0  0  0  0  0  0
  -16.7480  -28.4170   22.9000 C   0  0  0  0  0  3  0  0  0  0  0  0
  -25.8630  -32.3910   23.8120 C   0  0  0  0  0  3  0  0  0  0  0  0
  -26.3720  -31.6130   25.0870 C   0  0  1  0  0  0  0  0  0  0  0  0
  -25.2690  -31.3530   26.1370 C   0  0  0  0  0  1  0  0  0  0  0  0
  -26.9690  -30.2450   24.6840 C   0  0  0  0  0  1  0  0  0  0  0  0
  -27.5060  -32.4090   25.7690 C   0  0  0  0  0  1  0  0  0  0  0  0
  -25.5360  -33.7830   24.1510 N   0  0  0  0  0  0  0  0  0  0  0  0
  -25.8580  -34.8460   23.4010 C   0  0  0  0  0  0  0  0  0  0  0  0
  -26.5370  -34.7590   22.3750 O   0  0  0  0  0  0  0  0  0  0  0  0
  -24.9450  -33.9240   24.9570 H   0  0  0  0  0  0  0  0  0  0  0  0
  -24.1050  -36.6120   23.0370 C   0  0  0  0  0  1  0  0  0  0  0  0
  -25.3450  -36.2260   23.8600 C   0  0  0  0  0  3  0  0  0  0  0  0
  -27.4590  -37.1320   24.7180 C   0  0  0  0  0  1  0  0  0  0  0  0
  -26.3640  -37.2960   23.7640 N   0  0  0  0  0  0  0  0  0  0  0  0
  -25.9420  -38.2070   23.9180 H   0  0  0  0  0  0  0  0  0  0  0  0
  1  2  2  0
  2 53  1  0
  2  6  1  0
  3  1  1  0
  3  4  1  0
  4  5  2  0
  4  6  1  0
  5 12  1  0
  7  3  2  0
  9  8  2  0
 10  8  1  0
 11 12  2  0
 11 13  1  0
 12  9  1  0
 13 10  2  0
 14 22  1  0
 15 20  1  0
 16 17  1  0
 16 15  1  0
 18 17  1  0
 18 27  1  0
 18 19  1  0
 20 14  1  0
 20 19  1  0
 21 14  2  0
 22 13  1  0
 22 23  1  0
 24 25  2  0
 25 44  1  0
 26 25  1  0
 26 29  1  0
 27 24  1  0
 27 28  1  0
 28 26  2  0
 29 30  1  0
 30 31  2  0
 32 35  1  0
 32 31  1  0
 33 32  2  0
 34 33  1  0
 34 29  2  0
 35 36  1  0
 36 37  1  0
 37 38  2  0
 39 38  1  0
 39 43  1  0
 40 39  2  0
 41 36  2  0
 41 40  1  0
 42 41  1  0
 44 45  1  0
 45 48  1  0
 45 47  1  0
 46 44  2  0
 49 50  1  0
 49 24  1  0
 51 49  1  0
 53 52  1  0
 53 54  1  0
 55 54  1  0
 56 67  2  0
 57 55  1  0
 57 62  1  0
 58 66  1  0
 58 68  1  0
 59 65  1  0
 59 61  1  0
 60 66  1  0
 61 62  2  0
 61 60  1  0
 63 57  2  0
 64 63  1  0
 64 59  2  0
 65 58  1  0
 66 56  1  0
 68 70  2  0
 69 68  1  0
 71 69  1  0
 72 81  2  0
 72 77  1  0
 73 69  1  0
 73 77  1  0
 74 73  1  0
 75 76  1  0
 75 74  1  0
 76 72  1  0
 77 78  2  0
 78 79  1  0
 80 79  2  0
 81 80  1  0
 82 56  1  0
 82 87  1  0
 82 83  1  0
 83 86  1  1
 83 84  1  0
 85 83  1  0
 87 90  1  0
 88 92  1  0
 88 87  1  0
 89 88  2  0
 92 91  1  0
 94 92  1  0
 94 95  1  0
 94 93  1  0
M  ISO  4  14 100  22 100  54 101  55 101
M  END
>  <TORSDO>  (43) 
F 19

>  <SCORE>  (43) 
-13.807

>  <name>  (43) 
43

>  <ligand_id>  (43) 
43

>  <original_smiles>  (43) 
[H]C1=C(C([H])(C([H])([H])[H])C([H])([H])Oc2c([H])c([H])c3c(c2[H])C([H])([H])N(C(=O)C([H])(N([H])C(=O)C([H])(N([H])C([H])([H])[H])C([H])([H])[H])C(C([H])([H])[H])(C([H])([H])[H])C([H])([H])[H])C([H])(C(=O)N([H])C2([H])c4c([H])c([H])c([H])c([H])c4C([H])([H])C([H])([H])C2([H])[H])C3([H])[H])C([H])([H])C(=C([H])c2c([H])c([H])c([H])c(N([H])C(=O)N3C([H])([H])C([H])([H])C([H])([H])C([H])(n4nc(-c5c([H])c([H])c(Oc6c([H])c([H])c(F)c([H])c6F)c([H])c5[H])c(C(=O)N([H])[H])c4N([H])[H])C3([H])[H])c2[H])C1=O

>  <smiles>  (43) 
[H]C1=C(C([H])(C([H])([H])[H])C([H])([H])Oc2c([H])c([H])c3c(c2[H])C([H])([H])N(C(=O)C([H])(N([H])C(=O)C([H])(N([H])C([H])([H])[H])C([H])([H])[H])C(C([H])([H])[H])(C([H])([H])[H])C([H])([H])[H])C([H])(C(=O)N([H])C2([H])c4c([H])c([H])c([H])c([H])c4C([H])([H])C([H])([H])C2([H])[H])C3([H])[H])C([H])([H])C(=C([H])c2c([H])c([H])c([H])c(N([H])C(=O)N3C([H])([H])C([H])([H])C([H])([H])C([H])(n4nc(-c5c([H])c([H])c(Oc6c([H])c([H])c(F)c([H])c6F)c([H])c5[H])c(C(=O)N([H])[H])c4N([H])[H])C3([H])[H])c2[H])C1=O

$$$$
44:0:0
     RDKit          3D

 98106  0  0  1  0  0  0  0  0999 V2000
  -25.7540  -23.1800   20.7680 C   0  0  0  0  0  0  0  0  0  0  0  0
  -25.3800  -21.9570   19.9490 C   0  0  0  0  0  2  0  0  0  0  0  0
  -27.3780  -23.0490   19.1090 C   0  0  0  0  0  2  0  0  0  0  0  0
  -26.6100  -21.7180   19.0600 C   0  0  0  0  0  3  0  0  0  0  0  0
  -26.8870  -23.7260   20.3060 N   0  0  0  0  0  0  0  0  0  0  0  0
  -25.0940  -23.5620   21.7380 O   0  0  0  0  0  0  0  0  0  0  0  0
  -28.1360  -19.7710   18.7640 C   0  0  0  0  0  0  0  0  0  0  0  0
  -27.4760  -20.6380   19.5440 N   0  0  0  0  0  0  0  0  0  0  0  0
  -28.0320  -19.7680   17.5360 O   0  0  0  0  0  0  0  0  0  0  0  0
  -27.6860  -20.6370   20.5310 H   0  0  0  0  0  0  0  0  0  0  0  0
  -29.0600  -18.7670   19.4620 C   0  0  0  0  0  2  0  0  0  0  0  0
  -28.3660  -17.4270   19.8200 C   0  0  0  0  0  3  0  0  0  0  0  0
  -27.0590  -17.6220   20.4920 N   0  0  0  0  0  4  0  0  0  0  0  0
  -27.1490  -17.8540   21.4640 H   0  0  0  0  0  0  0  0  0  0  0  0
  -26.5220  -16.7680   20.4000 H   0  0  0  0  0  0  0  0  0  0  0  0
  -26.5130  -18.3350   20.0430 H   0  0  0  0  0  0  0  0  0  0  0  0
  -29.2800  -16.5090   20.6700 C   0  0  0  0  0  2  0  0  0  0  0  0
  -31.0180  -14.7350   20.0450 C   0  0  0  0  0  0  0  0  0  0  0  0
  -30.8470  -12.3770   19.3800 C   0  0  0  0  0  2  0  0  0  0  0  0
  -29.9360  -12.2520   18.1410 C   0  0  0  0  0  2  0  0  0  0  0  0
  -28.4490  -12.1580   18.5460 C   0  0  0  0  0  2  0  0  0  0  0  0
  -28.0360  -13.2300   19.5920 C   0  0  0  0  0  3  0  0  0  0  0  0
  -29.0640  -13.2490   20.7420 C   0  0  0  0  0  2  0  0  0  0  0  0
  -30.3750  -13.5390   20.1490 N   0  0  0  0  0  0  0  0  0  0  0  0
  -32.1880  -14.8270   19.6760 O   0  0  0  0  0  0  0  0  0  0  0  0
  -30.2690  -15.8280   19.8340 N   0  0  0  0  0  0  0  0  0  0  0  0
  -30.8140  -16.4910   19.3020 H   0  0  0  0  0  0  0  0  0  0  0  0
  -25.6590  -13.9330   20.2850 C   0  0  0  0  0  0  0  0  0  0  0  0
  -24.5640  -13.2040   20.6700 C   0  0  0  0  0  0  0  0  0  0  0  0
  -24.9820  -11.8400   20.6680 C   0  0  0  0  0  0  0  0  0  0  0  0
  -26.6740  -13.0110   20.0730 N   0  0  0  0  0  0  0  0  0  0  0  0
  -26.2680  -11.7500   20.3600 N   0  0  0  0  0  0  0  0  0  0  0  0
  -24.2160  -10.6040   20.8840 C   0  0  0  0  0  0  0  0  0  0  0  0
  -24.5900   -9.6690   21.8740 C   0  0  0  0  0  3  0  0  0  0  0  0
  -23.8310   -8.4960   22.0730 C   0  0  0  0  0  3  0  0  0  0  0  0
  -22.6830   -8.2520   21.2830 C   0  0  0  0  0  0  0  0  0  0  0  0
  -22.3290   -9.1740   20.2820 C   0  0  0  0  0  3  0  0  0  0  0  0
  -23.0880  -10.3380   20.0810 C   0  0  0  0  0  3  0  0  0  0  0  0
  -21.8980   -7.1290   21.3950 O   0  0  0  0  0  0  0  0  0  0  0  0
  -21.7650   -6.4590   22.5860 C   0  0  0  0  0  0  0  0  0  0  0  0
  -21.2770   -7.0950   23.7480 C   0  0  0  0  0  3  0  0  0  0  0  0
  -21.0900   -6.3530   24.9320 C   0  0  0  0  0  3  0  0  0  0  0  0
  -21.3800   -4.9760   24.9530 C   0  0  0  0  0  0  0  0  0  0  0  0
  -21.8590   -4.3390   23.7950 C   0  0  0  0  0  3  0  0  0  0  0  0
  -22.0500   -5.0790   22.6140 C   0  0  0  0  0  0  0  0  0  0  0  0
  -22.4930   -4.4560   21.4960 F   0  0  0  0  0  0  0  0  0  0  0  0
  -21.1920   -4.2610   26.0870 F   0  0  0  0  0  0  0  0  0  0  0  0
  -23.1820  -13.7360   20.9180 C   0  0  0  0  0  0  0  0  0  0  0  0
  -22.4310  -13.0920   21.8050 N   0  0  0  0  0  0  0  0  0  0  0  0
  -22.7810  -14.7560   20.3620 O   0  0  0  0  0  0  0  0  0  0  0  0
  -22.7720  -12.2680   22.2740 H   0  0  0  0  0  0  0  0  0  0  0  0
  -21.5010  -13.4270   22.0110 H   0  0  0  0  0  0  0  0  0  0  0  0
  -25.8680  -15.2900   20.0670 N   0  0  0  0  0  0  0  0  0  0  0  0
  -24.9810  -15.7630   19.9150 H   0  0  0  0  0  0  0  0  0  0  0  0
  -26.4590  -15.4000   19.2510 H   0  0  0  0  0  0  0  0  0  0  0  0
  -27.6680  -24.7620   20.9900 C   0  0  0  0  0  2  0  0  0  0  0  0
  -28.5780  -25.6040   20.0540 C   0  0  0  0  0  2  0  0  0  0  0  0
  -28.6230  -26.9800   20.4440 O   0  0  0  0  0  0  0  0  0  0  0  0
  -24.7400  -32.0300   23.5720 C   0  0  0  0  0  0  0  0  0  0  0  0
  -27.4460  -27.7020   20.4080 C   0  0  0  0  0  0  0  0  0  0  0  0
  -23.5640  -30.6890   21.8590 C   0  0  0  0  0  3  0  0  0  0  0  0
  -25.0540  -29.2070   20.4150 C   0  0  0  0  0  0  0  0  0  0  0  0
  -26.0940  -31.0550   21.7270 C   0  0  0  0  0  2  0  0  0  0  0  0
  -26.1990  -29.7070   21.0460 C   0  0  0  0  0  0  0  0  0  0  0  0
  -27.4020  -28.9660   21.0370 C   0  0  0  0  0  3  0  0  0  0  0  0
  -26.2790  -27.2140   19.7780 C   0  0  0  0  0  3  0  0  0  0  0  0
  -25.0890  -27.9560   19.7790 C   0  0  0  0  0  3  0  0  0  0  0  0
  -23.8080  -30.0620   20.4630 C   0  0  0  0  0  2  0  0  0  0  0  0
  -24.8150  -31.2700   22.4440 N   0  0  0  0  0  0  0  0  0  0  0  0
  -23.6460  -32.2870   24.0920 O   0  0  0  0  0  0  0  0  0  0  0  0
  -22.8920  -29.6340   22.7670 C   0  0  0  0  0  0  0  0  0  0  0  0
  -21.5740  -29.4360   22.5970 N   0  0  0  0  0  0  0  0  0  0  0  0
  -23.5580  -28.9960   23.5870 O   0  0  0  0  0  0  0  0  0  0  0  0
  -21.0820  -30.0240   21.9400 H   0  0  0  0  0  0  0  0  0  0  0  0
  -18.2170  -28.1430   22.8940 C   0  0  0  0  0  0  0  0  0  0  0  0
  -20.7480  -28.4620   23.3090 C   0  0  0  0  0  3  0  0  0  0  0  0
  -20.9150  -27.0430   22.7220 C   0  0  0  0  0  2  0  0  0  0  0  0
  -19.8870  -26.7280   21.6290 C   0  0  0  0  0  2  0  0  0  0  0  0
  -18.4610  -26.8140   22.1940 C   0  0  0  0  0  2  0  0  0  0  0  0
  -19.2890  -28.9250   23.3980 C   0  0  0  0  0  0  0  0  0  0  0  0
  -19.0080  -30.1690   24.0030 C   0  0  0  0  0  3  0  0  0  0  0  0
  -17.6830  -30.6340   24.1070 C   0  0  0  0  0  3  0  0  0  0  0  0
  -16.6230  -29.8560   23.6120 C   0  0  0  0  0  3  0  0  0  0  0  0
  -16.8900  -28.6110   23.0150 C   0  0  0  0  0  3  0  0  0  0  0  0
  -26.0140  -32.6390   24.2400 C   0  0  0  0  0  3  0  0  0  0  0  0
  -26.4710  -31.8590   25.5320 C   0  0  1  0  0  0  0  0  0  0  0  0
  -25.3320  -31.6310   26.5510 C   0  0  0  0  0  1  0  0  0  0  0  0
  -27.0610  -30.4780   25.1570 C   0  0  0  0  0  1  0  0  0  0  0  0
  -27.5990  -32.6440   26.2450 C   0  0  0  0  0  1  0  0  0  0  0  0
  -25.7190  -34.0440   24.5510 N   0  0  0  0  0  0  0  0  0  0  0  0
  -26.0950  -35.0840   23.7950 C   0  0  0  0  0  0  0  0  0  0  0  0
  -26.8000  -34.9590   22.7880 O   0  0  0  0  0  0  0  0  0  0  0  0
  -25.1030  -34.2150   25.3310 H   0  0  0  0  0  0  0  0  0  0  0  0
  -24.4100  -36.8990   23.3690 C   0  0  0  0  0  1  0  0  0  0  0  0
  -25.6130  -36.4810   24.2260 C   0  0  0  0  0  3  0  0  0  0  0  0
  -27.7330  -37.3350   25.1310 C   0  0  0  0  0  1  0  0  0  0  0  0
  -26.6670  -37.5150   24.1490 N   0  0  0  0  0  0  0  0  0  0  0  0
  -26.2680  -38.4410   24.2780 H   0  0  0  0  0  0  0  0  0  0  0  0
  1  6  2  0
  2  1  1  0
  3  5  1  0
  4  3  1  0
  4  8  1  0
  4  2  1  0
  5  1  1  0
  5 56  1  0
  7 11  1  0
  7  8  1  0
  8 10  1  0
  9  7  2  0
 12 11  1  0
 12 13  1  0
 12 17  1  0
 13 14  1  0
 15 13  1  0
 16 13  1  0
 18 24  1  0
 19 24  1  0
 20 21  1  0
 20 19  1  0
 22 21  1  0
 22 31  1  0
 22 23  1  0
 24 23  1  0
 25 18  2  0
 26 18  1  0
 26 17  1  0
 27 26  1  0
 28 29  2  0
 29 48  1  0
 30 29  1  0
 30 33  1  0
 31 28  1  0
 31 32  1  0
 32 30  2  0
 33 34  1  0
 34 35  2  0
 36 39  1  0
 36 35  1  0
 37 36  2  0
 38 37  1  0
 38 33  2  0
 39 40  1  0
 40 45  2  0
 40 41  1  0
 41 42  2  0
 42 43  1  0
 43 47  1  0
 44 43  2  0
 45 44  1  0
 46 45  1  0
 48 49  1  0
 49 52  1  0
 49 51  1  0
 50 48  2  0
 53 28  1  0
 54 53  1  0
 55 53  1  0
 57 58  1  0
 57 56  1  0
 59 70  2  0
 60 58  1  0
 60 65  1  0
 61 69  1  0
 61 71  1  0
 62 68  1  0
 62 64  1  0
 63 69  1  0
 64 63  1  0
 65 64  2  0
 66 67  1  0
 66 60  2  0
 67 62  2  0
 68 61  1  0
 69 59  1  0
 71 73  2  0
 72 71  1  0
 74 72  1  0
 75 84  2  0
 75 80  1  0
 76 72  1  0
 76 80  1  0
 77 76  1  0
 78 79  1  0
 78 77  1  0
 79 75  1  0
 80 81  2  0
 81 82  1  0
 83 82  2  0
 84 83  1  0
 85 59  1  0
 85 90  1  0
 85 86  1  0
 86 89  1  1
 86 87  1  0
 88 86  1  0
 90 93  1  0
 91 95  1  0
 91 90  1  0
 92 91  2  0
 95 94  1  0
 97 95  1  0
 97 98  1  0
 97 96  1  0
M  ISO  4  18 100  26 100  57 101  58 101
M  END
>  <TORSDO>  (44) 
F 23

>  <SCORE>  (44) 
-11.903

>  <name>  (44) 
44

>  <ligand_id>  (44) 
44

>  <original_smiles>  (44) 
[H]c1c([H])c([H])c2c(c1[H])C([H])([H])C([H])([H])C([H])([H])C2([H])N([H])C(=O)C1([H])N(C(=O)C([H])(N([H])C(=O)C([H])(N([H])C([H])([H])[H])C([H])([H])[H])C(C([H])([H])[H])(C([H])([H])[H])C([H])([H])[H])C([H])([H])c2c([H])c(OC([H])([H])C([H])([H])N3C(=O)C([H])([H])C([H])(N([H])C(=O)C([H])([H])C([H])(C([H])([H])N([H])C(=O)N4C([H])([H])C([H])([H])C([H])([H])C([H])(n5nc(-c6c([H])c([H])c(Oc7c([H])c([H])c(F)c([H])c7F)c([H])c6[H])c(C(=O)N([H])[H])c5N([H])[H])C4([H])[H])[N+]([H])([H])[H])C3([H])[H])c([H])c([H])c2C1([H])[H]

>  <smiles>  (44) 
[H]c1c([H])c([H])c2c(c1[H])C([H])([H])C([H])([H])C([H])([H])C2([H])N([H])C(=O)C1([H])N(C(=O)C([H])(N([H])C(=O)C([H])(N([H])C([H])([H])[H])C([H])([H])[H])C(C([H])([H])[H])(C([H])([H])[H])C([H])([H])[H])C([H])([H])c2c([H])c(OC([H])([H])C([H])([H])N3C(=O)C([H])([H])C([H])(N([H])C(=O)C([H])([H])C([H])(C([H])([H])N([H])C(=O)N4C([H])([H])C([H])([H])C([H])([H])C([H])(n5nc(-c6c([H])c([H])c(Oc7c([H])c([H])c(F)c([H])c7F)c([H])c6[H])c(C(=O)N([H])[H])c5N([H])[H])C4([H])[H])[N+]([H])([H])[H])C3([H])[H])c([H])c([H])c2C1([H])[H]

$$$$
45:0:0
     RDKit          3D

100108  0  0  1  0  0  0  0  0999 V2000
  -29.1450  -20.9720   19.1140 C   0  0  0  0  0  0  0  0  0  0  0  0
  -28.5940  -22.3380   19.4710 C   0  0  0  0  0  2  0  0  0  0  0  0
  -30.8990  -22.5110   19.4330 C   0  0  0  0  0  2  0  0  0  0  0  0
  -30.6470  -21.0740   18.8860 C   0  0  2  0  0  0  0  0  0  0  0  0
  -29.6720  -23.2810   19.1530 N   0  0  0  0  0  0  0  0  0  0  0  0
  -28.4800  -19.9430   18.9840 O   0  0  0  0  0  0  0  0  0  0  0  0
  -30.8370  -21.0720   17.4180 N   0  0  0  0  0  4  0  0  0  0  0  0
  -30.6410  -20.1720   17.0210 H   0  0  0  0  0  0  0  0  0  0  0  0
  -31.7670  -21.3520   17.1660 H   0  0  0  0  0  0  0  0  0  0  0  0
  -30.1940  -21.7310   17.0130 H   0  0  0  0  0  0  0  0  0  0  0  0
  -31.4870  -19.9370   19.5690 C   0  0  0  0  0  2  0  0  0  0  0  0
  -31.0040  -19.4290   20.9450 C   0  0  0  0  0  0  0  0  0  0  0  0
  -31.0600  -20.1900   21.9160 O   0  0  0  0  0  0  0  0  0  0  0  0
  -30.4170  -17.9930   21.0530 C   0  0  0  0  0  3  0  0  0  0  0  0
  -29.8420  -17.8860   22.4080 N   0  0  0  0  0  4  0  0  0  0  0  0
  -29.5510  -18.8170   22.6680 H   0  0  0  0  0  0  0  0  0  0  0  0
  -30.5420  -17.5980   23.0660 H   0  0  0  0  0  0  0  0  0  0  0  0
  -29.0500  -17.2720   22.4500 H   0  0  0  0  0  0  0  0  0  0  0  0
  -31.4560  -16.8650   20.7740 C   0  0  0  0  0  2  0  0  0  0  0  0
  -31.4070  -14.4830   20.0380 C   0  0  0  0  0  0  0  0  0  0  0  0
  -30.9560  -12.3120   18.9650 C   0  0  0  0  0  2  0  0  0  0  0  0
  -30.0010  -12.5220   17.7700 C   0  0  0  0  0  2  0  0  0  0  0  0
  -28.5320  -12.4720   18.2320 C   0  0  0  0  0  2  0  0  0  0  0  0
  -28.2600  -13.3710   19.4660 C   0  0  0  0  0  3  0  0  0  0  0  0
  -29.3270  -13.1470   20.5630 C   0  0  0  0  0  2  0  0  0  0  0  0
  -30.6560  -13.3530   19.9600 N   0  0  0  0  0  0  0  0  0  0  0  0
  -32.4940  -14.6070   19.4690 O   0  0  0  0  0  0  0  0  0  0  0  0
  -30.8600  -15.5160   20.7010 N   0  0  0  0  0  0  0  0  0  0  0  0
  -29.9810  -15.3280   21.1570 H   0  0  0  0  0  0  0  0  0  0  0  0
  -25.9150  -14.1180   20.2260 C   0  0  0  0  0  0  0  0  0  0  0  0
  -24.8120  -13.4070   20.6260 C   0  0  0  0  0  0  0  0  0  0  0  0
  -25.1960  -12.0330   20.5930 C   0  0  0  0  0  0  0  0  0  0  0  0
  -26.9030  -13.1760   19.9770 N   0  0  0  0  0  0  0  0  0  0  0  0
  -26.4720  -11.9170   20.2470 N   0  0  0  0  0  0  0  0  0  0  0  0
  -24.4050  -10.8140   20.8070 C   0  0  0  0  0  0  0  0  0  0  0  0
  -24.7760   -9.8530   21.7730 C   0  0  0  0  0  3  0  0  0  0  0  0
  -23.9890   -8.6980   21.9710 C   0  0  0  0  0  3  0  0  0  0  0  0
  -22.8180   -8.4980   21.2010 C   0  0  0  0  0  0  0  0  0  0  0  0
  -22.4670   -9.4470   20.2250 C   0  0  0  0  0  3  0  0  0  0  0  0
  -23.2550  -10.5920   20.0260 C   0  0  0  0  0  3  0  0  0  0  0  0
  -22.0040   -7.3940   21.3090 O   0  0  0  0  0  0  0  0  0  0  0  0
  -21.8470   -6.7300   22.4990 C   0  0  0  0  0  0  0  0  0  0  0  0
  -21.3750   -7.3800   23.6610 C   0  0  0  0  0  3  0  0  0  0  0  0
  -21.1610   -6.6410   24.8430 C   0  0  0  0  0  3  0  0  0  0  0  0
  -21.4090   -5.2560   24.8640 C   0  0  0  0  0  0  0  0  0  0  0  0
  -21.8780   -4.6070   23.7070 C   0  0  0  0  0  3  0  0  0  0  0  0
  -22.0930   -5.3410   22.5290 C   0  0  0  0  0  0  0  0  0  0  0  0
  -22.5210   -4.7070   21.4110 F   0  0  0  0  0  0  0  0  0  0  0  0
  -21.1990   -4.5460   25.9970 F   0  0  0  0  0  0  0  0  0  0  0  0
  -23.4530  -13.9670   20.9330 C   0  0  0  0  0  0  0  0  0  0  0  0
  -22.7150  -13.3250   21.8330 N   0  0  0  0  0  0  0  0  0  0  0  0
  -23.0560  -15.0080   20.4120 O   0  0  0  0  0  0  0  0  0  0  0  0
  -23.0490  -12.4850   22.2790 H   0  0  0  0  0  0  0  0  0  0  0  0
  -21.8050  -13.6850   22.0810 H   0  0  0  0  0  0  0  0  0  0  0  0
  -26.1500  -15.4740   20.0330 N   0  0  0  0  0  0  0  0  0  0  0  0
  -25.4000  -16.1550   20.1160 H   0  0  0  0  0  0  0  0  0  0  0  0
  -26.9690  -15.8410   19.5640 H   0  0  0  0  0  0  0  0  0  0  0  0
  -29.5990  -24.5770   19.8580 C   0  0  0  0  0  2  0  0  0  0  0  0
  -28.3530  -25.4020   19.4590 C   0  0  0  0  0  2  0  0  0  0  0  0
  -28.3490  -26.6950   20.0780 O   0  0  0  0  0  0  0  0  0  0  0  0
  -24.6830  -31.8760   23.3160 C   0  0  0  0  0  0  0  0  0  0  0  0
  -27.1700  -27.4220   20.1000 C   0  0  0  0  0  0  0  0  0  0  0  0
  -23.4050  -30.5200   21.6870 C   0  0  0  0  0  3  0  0  0  0  0  0
  -24.7930  -28.9660   20.2180 C   0  0  0  0  0  0  0  0  0  0  0  0
  -25.9340  -30.8260   21.4350 C   0  0  0  0  0  2  0  0  0  0  0  0
  -25.9770  -29.4580   20.7810 C   0  0  0  0  0  0  0  0  0  0  0  0
  -27.1630  -28.6900   20.7280 C   0  0  0  0  0  3  0  0  0  0  0  0
  -25.9610  -26.9520   19.5260 C   0  0  0  0  0  3  0  0  0  0  0  0
  -24.7780  -27.7050   19.6000 C   0  0  0  0  0  3  0  0  0  0  0  0
  -23.5700  -29.8510   20.2950 C   0  0  0  0  0  2  0  0  0  0  0  0
  -24.6950  -31.0890   22.2040 N   0  0  0  0  0  0  0  0  0  0  0  0
  -23.6220  -32.1670   23.8840 O   0  0  0  0  0  0  0  0  0  0  0  0
  -22.7580  -29.5010   22.6490 C   0  0  0  0  0  0  0  0  0  0  0  0
  -21.4360  -29.3050   22.5110 N   0  0  0  0  0  0  0  0  0  0  0  0
  -23.4430  -28.8890   23.4730 O   0  0  0  0  0  0  0  0  0  0  0  0
  -20.9460  -29.8620   21.8240 H   0  0  0  0  0  0  0  0  0  0  0  0
  -18.0870  -28.0180   22.9250 C   0  0  0  0  0  0  0  0  0  0  0  0
  -20.6250  -28.3650   23.2810 C   0  0  0  0  0  3  0  0  0  0  0  0
  -20.7890  -26.9180   22.7590 C   0  0  0  0  0  2  0  0  0  0  0  0
  -19.7380  -26.5300   21.7130 C   0  0  0  0  0  2  0  0  0  0  0  0
  -18.3300  -26.6520   22.3030 C   0  0  0  0  0  2  0  0  0  0  0  0
  -19.1660  -28.8260   23.3710 C   0  0  0  0  0  0  0  0  0  0  0  0
  -18.8920  -30.1020   23.9110 C   0  0  0  0  0  3  0  0  0  0  0  0
  -17.5670  -30.5690   24.0130 C   0  0  0  0  0  3  0  0  0  0  0  0
  -16.5020  -29.7590   23.5860 C   0  0  0  0  0  3  0  0  0  0  0  0
  -16.7610  -28.4850   23.0470 C   0  0  0  0  0  3  0  0  0  0  0  0
  -25.9990  -32.4710   23.9110 C   0  0  0  0  0  3  0  0  0  0  0  0
  -26.5350  -31.6700   25.1620 C   0  0  1  0  0  0  0  0  0  0  0  0
  -25.4670  -31.4390   26.2570 C   0  0  0  0  0  1  0  0  0  0  0  0
  -27.0770  -30.2860   24.7340 C   0  0  0  0  0  1  0  0  0  0  0  0
  -27.7150  -32.4330   25.8090 C   0  0  0  0  0  1  0  0  0  0  0  0
  -25.7290  -33.8700   24.2660 N   0  0  0  0  0  0  0  0  0  0  0  0
  -26.0490  -34.9240   23.5040 C   0  0  0  0  0  0  0  0  0  0  0  0
  -26.6770  -34.8190   22.4470 O   0  0  0  0  0  0  0  0  0  0  0  0
  -25.1670  -34.0280   25.0900 H   0  0  0  0  0  0  0  0  0  0  0  0
  -24.3300  -36.7420   23.2370 C   0  0  0  0  0  1  0  0  0  0  0  0
  -25.6010  -36.3170   23.9890 C   0  0  0  0  0  3  0  0  0  0  0  0
  -27.7840  -37.1690   24.7220 C   0  0  0  0  0  1  0  0  0  0  0  0
  -26.6410  -37.3580   23.8330 N   0  0  0  0  0  0  0  0  0  0  0  0
  -26.2550  -38.2820   24.0080 H   0  0  0  0  0  0  0  0  0  0  0  0
  1  2  1  0
  4  1  1  0
  4  3  1  0
  4 11  1  1
  5  3  1  0
  5  2  1  0
  5 58  1  0
  6  1  2  0
  7  4  1  0
  8  7  1  0
  9  7  1  0
 10  7  1  0
 11 12  1  0
 12 14  1  0
 12 13  2  0
 14 19  1  0
 14 15  1  0
 15 18  1  0
 15 16  1  0
 15 17  1  0
 20 28  1  0
 21 26  1  0
 22 23  1  0
 22 21  1  0
 24 23  1  0
 24 33  1  0
 24 25  1  0
 26 20  1  0
 26 25  1  0
 27 20  2  0
 28 19  1  0
 28 29  1  0
 30 31  2  0
 31 50  1  0
 32 31  1  0
 32 35  1  0
 33 30  1  0
 33 34  1  0
 34 32  2  0
 35 36  1  0
 36 37  2  0
 38 41  1  0
 38 37  1  0
 39 38  2  0
 40 39  1  0
 40 35  2  0
 41 42  1  0
 42 47  2  0
 42 43  1  0
 43 44  2  0
 44 45  1  0
 45 49  1  0
 46 45  2  0
 47 46  1  0
 48 47  1  0
 50 51  1  0
 51 54  1  0
 51 53  1  0
 52 50  2  0
 55 56  1  0
 55 30  1  0
 57 55  1  0
 59 58  1  0
 59 60  1  0
 60 62  1  0
 61 72  2  0
 62 67  1  0
 63 71  1  0
 63 73  1  0
 64 70  1  0
 64 66  1  0
 65 71  1  0
 66 65  1  0
 67 66  2  0
 68 69  1  0
 68 62  2  0
 69 64  2  0
 70 63  1  0
 71 61  1  0
 73 75  2  0
 74 73  1  0
 76 74  1  0
 77 86  2  0
 77 82  1  0
 78 74  1  0
 78 82  1  0
 79 78  1  0
 80 81  1  0
 80 79  1  0
 81 77  1  0
 82 83  2  0
 83 84  1  0
 85 84  2  0
 86 85  1  0
 87 61  1  0
 87 92  1  0
 87 88  1  0
 88 91  1  1
 88 89  1  0
 90 88  1  0
 92 95  1  0
 93 97  1  0
 93 92  1  0
 94 93  2  0
 97 96  1  0
 99 97  1  0
 99100  1  0
 99 98  1  0
M  ISO  4  20 100  28 100  59 101  60 101
M  END
>  <TORSDO>  (45) 
F 24

>  <SCORE>  (45) 
-12.110

>  <name>  (45) 
45

>  <ligand_id>  (45) 
45

>  <original_smiles>  (45) 
[H]c1c([H])c([H])c2c(c1[H])C([H])([H])C([H])([H])C([H])([H])C2([H])N([H])C(=O)C1([H])N(C(=O)C([H])(N([H])C(=O)C([H])(N([H])C([H])([H])[H])C([H])([H])[H])C(C([H])([H])[H])(C([H])([H])[H])C([H])([H])[H])C([H])([H])c2c([H])c(OC([H])([H])C([H])([H])N3C([H])([H])C(=O)C(C([H])([H])C(=O)C([H])(C([H])([H])N([H])C(=O)N4C([H])([H])C([H])([H])C([H])([H])C([H])(n5nc(-c6c([H])c([H])c(Oc7c([H])c([H])c(F)c([H])c7F)c([H])c6[H])c(C(=O)N([H])[H])c5N([H])[H])C4([H])[H])[N+]([H])([H])[H])([N+]([H])([H])[H])C3([H])[H])c([H])c([H])c2C1([H])[H]

>  <smiles>  (45) 
[H]c1c([H])c([H])c2c(c1[H])C([H])([H])C([H])([H])C([H])([H])C2([H])N([H])C(=O)C1([H])N(C(=O)C([H])(N([H])C(=O)C([H])(N([H])C([H])([H])[H])C([H])([H])[H])C(C([H])([H])[H])(C([H])([H])[H])C([H])([H])[H])C([H])([H])c2c([H])c(OC([H])([H])C([H])([H])N3C([H])([H])C(=O)C(C([H])([H])C(=O)C([H])(C([H])([H])N([H])C(=O)N4C([H])([H])C([H])([H])C([H])([H])C([H])(n5nc(-c6c([H])c([H])c(Oc7c([H])c([H])c(F)c([H])c7F)c([H])c6[H])c(C(=O)N([H])[H])c5N([H])[H])C4([H])[H])[N+]([H])([H])[H])([N+]([H])([H])[H])C3([H])[H])c([H])c([H])c2C1([H])[H]

$$$$
47:0:0
     RDKit          3D

 93101  0  0  1  0  0  0  0  0999 V2000
  -28.6360  -22.0150   21.2430 C   0  0  0  0  0  0  0  0  0  0  0  0
  -27.8940  -22.1030   22.3660 N   0  0  0  0  0  4  0  0  0  0  0  0
  -28.9990  -20.6460   21.0520 N   0  0  0  0  0  0  0  0  0  0  0  0
  -27.5810  -22.9980   22.7140 H   0  0  0  0  0  0  0  0  0  0  0  0
  -27.6940  -21.3190   22.9740 H   0  0  0  0  0  0  0  0  0  0  0  0
  -28.3500  -20.0790   21.5730 H   0  0  0  0  0  0  0  0  0  0  0  0
  -29.2510  -18.2720   19.8020 C   0  0  0  0  0  0  0  0  0  0  0  0
  -29.9710  -17.3720   20.5210 C   0  0  0  0  0  0  0  0  0  0  0  0
  -28.2740  -18.1230   18.8960 C   0  0  0  0  0  1  0  0  0  0  0  0
  -30.6440  -18.5330   21.3130 C   0  0  0  0  0  2  0  0  0  0  0  0
  -29.9200  -19.6010   20.3430 C   0  0  0  0  0  3  0  0  0  0  0  0
  -29.8670  -16.0820   20.6880 N   0  0  0  0  0  2  0  0  0  0  0  0
  -30.7120  -14.9680   20.2800 C   0  0  0  0  0  0  0  0  0  0  0  0
  -30.6000  -12.6460   19.2850 C   0  0  0  0  0  2  0  0  0  0  0  0
  -29.6690  -12.6830   18.0470 C   0  0  0  0  0  2  0  0  0  0  0  0
  -28.2050  -12.4570   18.4760 C   0  0  0  0  0  2  0  0  0  0  0  0
  -27.8000  -13.3460   19.6820 C   0  0  0  0  0  3  0  0  0  0  0  0
  -28.8520  -13.2960   20.8100 C   0  0  0  0  0  2  0  0  0  0  0  0
  -30.1450  -13.6990   20.2350 N   0  0  0  0  0  0  0  0  0  0  0  0
  -31.8740  -15.0850   19.8840 O   0  0  0  0  0  0  0  0  0  0  0  0
  -25.4060  -13.9030   20.4090 C   0  0  0  0  0  0  0  0  0  0  0  0
  -24.3480  -13.1210   20.7810 C   0  0  0  0  0  0  0  0  0  0  0  0
  -24.8260  -11.7740   20.7550 C   0  0  0  0  0  0  0  0  0  0  0  0
  -26.4590  -13.0360   20.1710 N   0  0  0  0  0  0  0  0  0  0  0  0
  -26.1170  -11.7500   20.4410 N   0  0  0  0  0  0  0  0  0  0  0  0
  -24.1150  -10.5050   20.9520 C   0  0  0  0  0  0  0  0  0  0  0  0
  -24.5410   -9.5610   21.9120 C   0  0  0  0  0  3  0  0  0  0  0  0
  -23.8290   -8.3560   22.0960 C   0  0  0  0  0  3  0  0  0  0  0  0
  -22.6760   -8.0870   21.3200 C   0  0  0  0  0  0  0  0  0  0  0  0
  -22.2700   -9.0220   20.3510 C   0  0  0  0  0  3  0  0  0  0  0  0
  -22.9840  -10.2170   20.1660 C   0  0  0  0  0  3  0  0  0  0  0  0
  -21.9380   -6.9330   21.4110 O   0  0  0  0  0  0  0  0  0  0  0  0
  -21.8590   -6.2160   22.5790 C   0  0  0  0  0  0  0  0  0  0  0  0
  -21.3540   -6.7830   23.7690 C   0  0  0  0  0  3  0  0  0  0  0  0
  -21.2280   -5.9920   24.9270 C   0  0  0  0  0  3  0  0  0  0  0  0
  -21.5960   -4.6330   24.8970 C   0  0  0  0  0  0  0  0  0  0  0  0
  -22.0960   -4.0670   23.7120 C   0  0  0  0  0  3  0  0  0  0  0  0
  -22.2250   -4.8540   22.5560 C   0  0  0  0  0  0  0  0  0  0  0  0
  -22.6870   -4.2980   21.4090 F   0  0  0  0  0  0  0  0  0  0  0  0
  -21.4670   -3.8710   26.0070 F   0  0  0  0  0  0  0  0  0  0  0  0
  -22.9460  -13.5890   21.0510 C   0  0  0  0  0  0  0  0  0  0  0  0
  -22.2210  -12.8840   21.9130 N   0  0  0  0  0  0  0  0  0  0  0  0
  -22.5060  -14.6150   20.5370 O   0  0  0  0  0  0  0  0  0  0  0  0
  -22.5920  -12.0580   22.3560 H   0  0  0  0  0  0  0  0  0  0  0  0
  -21.2800  -13.1800   22.1290 H   0  0  0  0  0  0  0  0  0  0  0  0
  -25.5580  -15.2740   20.2360 N   0  0  0  0  0  0  0  0  0  0  0  0
  -24.7950  -15.9250   20.3780 H   0  0  0  0  0  0  0  0  0  0  0  0
  -26.4290  -15.7190   19.9760 H   0  0  0  0  0  0  0  0  0  0  0  0
  -28.9510  -23.4450   20.4980 C   0  0  0  0  0  2  0  0  0  0  0  0
  -28.1860  -25.2740   22.2720 C   0  0  0  0  0  1  0  0  0  0  0  0
  -26.5450  -24.3330   20.5740 C   0  0  0  0  0  1  0  0  0  0  0  0
  -28.0060  -24.8270   20.7960 C   0  0  2  0  0  0  0  0  0  0  0  0
  -28.2360  -26.2220   20.1200 O   0  0  0  0  0  0  0  0  0  0  0  0
  -24.6460  -31.8660   23.1630 C   0  0  0  0  0  0  0  0  0  0  0  0
  -27.2150  -27.2400   20.0580 C   0  0  0  0  0  0  0  0  0  0  0  0
  -23.4410  -30.4900   21.5080 C   0  0  0  0  0  3  0  0  0  0  0  0
  -24.8930  -28.9740   20.0310 C   0  0  0  0  0  0  0  0  0  0  0  0
  -25.9900  -30.7780   21.3410 C   0  0  0  0  0  2  0  0  0  0  0  0
  -26.0640  -29.4020   20.6720 C   0  0  0  0  0  0  0  0  0  0  0  0
  -27.2240  -28.5430   20.6880 C   0  0  0  0  0  3  0  0  0  0  0  0
  -26.0660  -26.9710   19.2850 C   0  0  0  0  0  3  0  0  0  0  0  0
  -24.9080  -27.7720   19.3160 C   0  0  0  0  0  3  0  0  0  0  0  0
  -23.6520  -29.8490   20.1130 C   0  0  0  0  0  2  0  0  0  0  0  0
  -24.7110  -31.0660   22.0570 N   0  0  0  0  0  0  0  0  0  0  0  0
  -23.5630  -32.1350   23.7050 O   0  0  0  0  0  0  0  0  0  0  0  0
  -22.7840  -29.4530   22.4530 C   0  0  0  0  0  0  0  0  0  0  0  0
  -21.4560  -29.2760   22.3340 N   0  0  0  0  0  0  0  0  0  0  0  0
  -23.4710  -28.8170   23.2560 O   0  0  0  0  0  0  0  0  0  0  0  0
  -20.9610  -29.8340   21.6530 H   0  0  0  0  0  0  0  0  0  0  0  0
  -18.0840  -28.0690   22.8540 C   0  0  0  0  0  0  0  0  0  0  0  0
  -20.6460  -28.3250   23.0980 C   0  0  0  0  0  3  0  0  0  0  0  0
  -20.7430  -26.9080   22.4880 C   0  0  0  0  0  2  0  0  0  0  0  0
  -19.6260  -26.6070   21.4830 C   0  0  0  0  0  2  0  0  0  0  0  0
  -18.2520  -26.7350   22.1470 C   0  0  0  0  0  2  0  0  0  0  0  0
  -19.2070  -28.8230   23.2860 C   0  0  0  0  0  0  0  0  0  0  0  0
  -18.9950  -30.0720   23.9080 C   0  0  0  0  0  3  0  0  0  0  0  0
  -17.6920  -30.5660   24.1060 C   0  0  0  0  0  3  0  0  0  0  0  0
  -16.5830  -29.8070   23.6920 C   0  0  0  0  0  3  0  0  0  0  0  0
  -16.7800  -28.5620   23.0690 C   0  0  0  0  0  3  0  0  0  0  0  0
  -25.9290  -32.4940   23.7860 C   0  0  0  0  0  3  0  0  0  0  0  0
  -26.4440  -31.7140   25.0570 C   0  0  1  0  0  0  0  0  0  0  0  0
  -25.3510  -31.4780   26.1260 C   0  0  0  0  0  1  0  0  0  0  0  0
  -27.0190  -30.3320   24.6680 C   0  0  0  0  0  1  0  0  0  0  0  0
  -27.6020  -32.4980   25.7170 C   0  0  0  0  0  1  0  0  0  0  0  0
  -25.6230  -33.8910   24.1290 N   0  0  0  0  0  0  0  0  0  0  0  0
  -25.9530  -34.9520   23.3790 C   0  0  0  0  0  0  0  0  0  0  0  0
  -26.6180  -34.8580   22.3450 O   0  0  0  0  0  0  0  0  0  0  0  0
  -25.0280  -34.0380   24.9300 H   0  0  0  0  0  0  0  0  0  0  0  0
  -24.2300  -36.7530   23.0400 C   0  0  0  0  0  1  0  0  0  0  0  0
  -25.4660  -36.3360   23.8530 C   0  0  0  0  0  3  0  0  0  0  0  0
  -27.5940  -37.2080   24.7140 C   0  0  0  0  0  1  0  0  0  0  0  0
  -26.5040  -37.3860   23.7580 N   0  0  0  0  0  0  0  0  0  0  0  0
  -26.1010  -38.3090   23.9060 H   0  0  0  0  0  0  0  0  0  0  0  0
  1  2  2  0
  2  4  1  0
  2  5  1  0
  3  1  1  0
  3  6  1  0
  7 11  1  0
  7  8  2  0
  8 12  1  0
  8 10  1  0
  9  7  1  0
 11  3  1  0
 11 10  1  0
 13 12  1  0
 14 19  1  0
 15 16  1  0
 15 14  1  0
 17 16  1  0
 17 24  1  0
 17 18  1  0
 19 13  1  0
 19 18  1  0
 20 13  2  0
 21 22  2  0
 22 41  1  0
 23 22  1  0
 23 26  1  0
 24 21  1  0
 24 25  1  0
 25 23  2  0
 26 27  1  0
 27 28  2  0
 29 32  1  0
 29 28  1  0
 30 29  2  0
 31 30  1  0
 31 26  2  0
 32 33  1  0
 33 34  1  0
 34 35  2  0
 36 35  1  0
 36 40  1  0
 37 36  2  0
 38 33  2  0
 38 37  1  0
 39 38  1  0
 41 42  1  0
 42 45  1  0
 42 44  1  0
 43 41  2  0
 46 47  1  0
 46 21  1  0
 48 46  1  0
 49 52  1  0
 49  1  1  0
 52 51  1  1
 52 50  1  0
 53 52  1  0
 54 65  2  0
 55 53  1  0
 55 60  1  0
 56 64  1  0
 56 66  1  0
 57 63  1  0
 57 59  1  0
 58 64  1  0
 59 60  2  0
 59 58  1  0
 61 62  1  0
 61 55  2  0
 62 57  2  0
 63 56  1  0
 64 54  1  0
 66 68  2  0
 67 66  1  0
 69 67  1  0
 70 79  2  0
 70 75  1  0
 71 67  1  0
 71 75  1  0
 72 71  1  0
 73 74  1  0
 73 72  1  0
 74 70  1  0
 75 76  2  0
 76 77  1  0
 78 77  2  0
 79 78  1  0
 80 54  1  0
 80 85  1  0
 80 81  1  0
 81 84  1  1
 81 82  1  0
 83 81  1  0
 85 88  1  0
 86 90  1  0
 86 85  1  0
 87 86  2  0
 90 89  1  0
 92 90  1  0
 92 93  1  0
 92 91  1  0
M  ISO  4  12 100  13 100  52 101  53 101
M  END
>  <TORSDO>  (46) 
F 19

>  <SCORE>  (46) 
-15.016

>  <name>  (46) 
47

>  <ligand_id>  (46) 
47

>  <original_smiles>  (46) 
[H]C([H])=C1C(=NC(=O)N2C([H])([H])C([H])([H])C([H])([H])C([H])(n3nc(-c4c([H])c([H])c(Oc5c([H])c([H])c(F)c([H])c5F)c([H])c4[H])c(C(=O)N([H])[H])c3N([H])[H])C2([H])[H])C([H])([H])C1([H])[N+]([H])=C(N([H])[H])C([H])([H])C(Oc1c([H])c([H])c2c(c1[H])C([H])([H])N(C(=O)C([H])(N([H])C(=O)C([H])(N([H])C([H])([H])[H])C([H])([H])[H])C(C([H])([H])[H])(C([H])([H])[H])C([H])([H])[H])C([H])(C(=O)N([H])C1([H])c3c([H])c([H])c([H])c([H])c3C([H])([H])C([H])([H])C1([H])[H])C2([H])[H])(C([H])([H])[H])C([H])([H])[H]

>  <smiles>  (46) 
[H]C([H])=C1C(=NC(=O)N2C([H])([H])C([H])([H])C([H])([H])C([H])(n3nc(-c4c([H])c([H])c(Oc5c([H])c([H])c(F)c([H])c5F)c([H])c4[H])c(C(=O)N([H])[H])c3N([H])[H])C2([H])[H])C([H])([H])C1([H])[N+]([H])=C(N([H])[H])C([H])([H])C(Oc1c([H])c([H])c2c(c1[H])C([H])([H])N(C(=O)C([H])(N([H])C(=O)C([H])(N([H])C([H])([H])[H])C([H])([H])[H])C(C([H])([H])[H])(C([H])([H])[H])C([H])([H])[H])C([H])(C(=O)N([H])C1([H])c3c([H])c([H])c([H])c([H])c3C([H])([H])C([H])([H])C1([H])[H])C2([H])[H])(C([H])([H])[H])C([H])([H])[H]

$$$$
48:0:0
     RDKit          3D

 93101  0  0  1  0  0  0  0  0999 V2000
  -28.2750  -20.7740   21.8240 C   0  0  0  0  0  2  0  0  0  0  0  0
  -27.8140  -21.5440   20.5790 C   0  0  0  0  0  3  0  0  0  0  0  0
  -29.2780  -22.0090   20.4470 C   0  0  0  0  0  3  0  0  0  0  0  0
  -29.6410  -20.8450   21.2960 N   0  0  0  0  0  0  0  0  0  0  0  0
  -27.3120  -20.6830   19.4910 N   0  0  0  0  0  4  0  0  0  0  0  0
  -27.9640  -19.9500   19.2800 H   0  0  0  0  0  0  0  0  0  0  0  0
  -27.1560  -21.2180   18.6580 H   0  0  0  0  0  0  0  0  0  0  0  0
  -26.4410  -20.2570   19.7570 H   0  0  0  0  0  0  0  0  0  0  0  0
  -29.6700  -23.3440   21.1300 C   0  0  0  0  0  2  0  0  0  0  0  0
  -29.2300  -24.6390   20.3980 C   0  0  0  0  0  2  0  0  0  0  0  0
  -29.3430  -25.8910   21.3010 C   0  0  0  0  0  2  0  0  0  0  0  0
  -29.3130  -27.1440   20.6050 O   0  0  0  0  0  0  0  0  0  0  0  0
  -24.8460  -31.9470   23.4110 C   0  0  0  0  0  0  0  0  0  0  0  0
  -28.0910  -27.7730   20.5530 C   0  0  0  0  0  0  0  0  0  0  0  0
  -23.9060  -30.4890   21.6460 C   0  0  0  0  0  3  0  0  0  0  0  0
  -25.5990  -29.0850   20.3560 C   0  0  0  0  0  0  0  0  0  0  0  0
  -26.4010  -31.0400   21.6940 C   0  0  0  0  0  2  0  0  0  0  0  0
  -26.6500  -29.6890   21.0550 C   0  0  0  0  0  0  0  0  0  0  0  0
  -27.9040  -29.0390   21.1510 C   0  0  0  0  0  3  0  0  0  0  0  0
  -27.0230  -27.1770   19.8510 C   0  0  0  0  0  3  0  0  0  0  0  0
  -25.7790  -27.8270   19.7490 C   0  0  0  0  0  3  0  0  0  0  0  0
  -24.2950  -29.8480   20.2870 C   0  0  0  0  0  2  0  0  0  0  0  0
  -25.0600  -31.1740   22.3120 N   0  0  0  0  0  0  0  0  0  0  0  0
  -23.7000  -32.1310   23.8500 O   0  0  0  0  0  0  0  0  0  0  0  0
  -23.2480  -29.4060   22.5310 C   0  0  0  0  0  0  0  0  0  0  0  0
  -21.9430  -29.1710   22.3120 N   0  0  0  0  0  0  0  0  0  0  0  0
  -23.9070  -28.7840   23.3660 O   0  0  0  0  0  0  0  0  0  0  0  0
  -21.4760  -29.7330   21.6130 H   0  0  0  0  0  0  0  0  0  0  0  0
  -18.5840  -27.8790   22.6060 C   0  0  0  0  0  0  0  0  0  0  0  0
  -21.1190  -28.1730   22.9930 C   0  0  0  0  0  3  0  0  0  0  0  0
  -21.2810  -26.7800   22.3400 C   0  0  0  0  0  2  0  0  0  0  0  0
  -20.2270  -26.4910   21.2650 C   0  0  0  0  0  2  0  0  0  0  0  0
  -18.8150  -26.5750   21.8580 C   0  0  0  0  0  2  0  0  0  0  0  0
  -19.6650  -28.6350   23.1240 C   0  0  0  0  0  0  0  0  0  0  0  0
  -19.3950  -29.8560   23.7800 C   0  0  0  0  0  3  0  0  0  0  0  0
  -18.0750  -30.3180   23.9230 C   0  0  0  0  0  3  0  0  0  0  0  0
  -17.0040  -29.5540   23.4230 C   0  0  0  0  0  3  0  0  0  0  0  0
  -17.2600  -28.3370   22.7700 C   0  0  0  0  0  3  0  0  0  0  0  0
  -26.0160  -32.6580   24.1600 C   0  0  0  0  0  3  0  0  0  0  0  0
  -26.4090  -31.9500   25.5140 C   0  0  1  0  0  0  0  0  0  0  0  0
  -25.2040  -31.6710   26.4410 C   0  0  0  0  0  1  0  0  0  0  0  0
  -27.1180  -30.6030   25.2390 C   0  0  0  0  0  1  0  0  0  0  0  0
  -27.4180  -32.8290   26.2940 C   0  0  0  0  0  1  0  0  0  0  0  0
  -25.6100  -34.0480   24.4010 N   0  0  0  0  0  0  0  0  0  0  0  0
  -25.9730  -35.0890   23.6370 C   0  0  0  0  0  0  0  0  0  0  0  0
  -26.7520  -34.9820   22.6870 O   0  0  0  0  0  0  0  0  0  0  0  0
  -24.9300  -34.2020   25.1310 H   0  0  0  0  0  0  0  0  0  0  0  0
  -24.1970  -36.7660   23.0360 C   0  0  0  0  0  1  0  0  0  0  0  0
  -25.3710  -36.4650   23.9830 C   0  0  0  0  0  3  0  0  0  0  0  0
  -27.3650  -37.4960   24.9760 C   0  0  0  0  0  1  0  0  0  0  0  0
  -26.3550  -37.5660   23.9240 N   0  0  0  0  0  0  0  0  0  0  0  0
  -25.8910  -38.4690   23.9900 H   0  0  0  0  0  0  0  0  0  0  0  0
  -30.1200  -19.6430   20.5680 C   0  0  0  0  0  2  0  0  0  0  0  0
  -30.4120  -18.3860   21.4600 C   0  0  0  0  0  2  0  0  0  0  0  0
  -31.0110  -17.1970   20.6410 C   0  0  0  0  0  2  0  0  0  0  0  0
  -31.6720  -14.8120   20.7690 C   0  0  0  0  0  0  0  0  0  0  0  0
  -31.3380  -12.6370   19.6430 C   0  0  0  0  0  2  0  0  0  0  0  0
  -30.4930  -12.8750   18.3720 C   0  0  0  0  0  2  0  0  0  0  0  0
  -28.9870  -12.8260   18.7030 C   0  0  0  0  0  2  0  0  0  0  0  0
  -28.6150  -13.7010   19.9260 C   0  0  0  0  0  3  0  0  0  0  0  0
  -29.5780  -13.4350   21.1080 C   0  0  0  0  0  2  0  0  0  0  0  0
  -30.9620  -13.6550   20.6430 N   0  0  0  0  0  0  0  0  0  0  0  0
  -32.8040  -14.9400   20.2940 O   0  0  0  0  0  0  0  0  0  0  0  0
  -31.0020  -15.8620   21.2880 N   0  0  0  0  0  0  0  0  0  0  0  0
  -30.1650  -15.6550   21.8060 H   0  0  0  0  0  0  0  0  0  0  0  0
  -26.2130  -14.4590   20.4710 C   0  0  0  0  0  0  0  0  0  0  0  0
  -25.0710  -13.7540   20.7480 C   0  0  0  0  0  0  0  0  0  0  0  0
  -25.4470  -12.3760   20.7410 C   0  0  0  0  0  0  0  0  0  0  0  0
  -27.2140  -13.5120   20.3040 N   0  0  0  0  0  0  0  0  0  0  0  0
  -26.7520  -12.2540   20.5230 N   0  0  0  0  0  0  0  0  0  0  0  0
  -24.6320  -11.1620   20.8730 C   0  0  0  0  0  0  0  0  0  0  0  0
  -24.9400  -10.1690   21.8250 C   0  0  0  0  0  3  0  0  0  0  0  0
  -24.1320   -9.0170   21.9480 C   0  0  0  0  0  3  0  0  0  0  0  0
  -23.0010   -8.8530   21.1160 C   0  0  0  0  0  0  0  0  0  0  0  0
  -22.7080   -9.8380   20.1550 C   0  0  0  0  0  3  0  0  0  0  0  0
  -23.5160  -10.9800   20.0310 C   0  0  0  0  0  3  0  0  0  0  0  0
  -22.1700   -7.7590   21.1480 O   0  0  0  0  0  0  0  0  0  0  0  0
  -21.9700   -7.0400   22.3010 C   0  0  0  0  0  0  0  0  0  0  0  0
  -21.4780   -7.6390   23.4810 C   0  0  0  0  0  3  0  0  0  0  0  0
  -21.2250   -6.8470   24.6190 C   0  0  0  0  0  3  0  0  0  0  0  0
  -21.4530   -5.4600   24.5760 C   0  0  0  0  0  0  0  0  0  0  0  0
  -21.9430   -4.8600   23.4020 C   0  0  0  0  0  3  0  0  0  0  0  0
  -22.2010   -5.6480   22.2680 C   0  0  0  0  0  0  0  0  0  0  0  0
  -22.6490   -5.0640   21.1310 F   0  0  0  0  0  0  0  0  0  0  0  0
  -21.2050   -4.6980   25.6670 F   0  0  0  0  0  0  0  0  0  0  0  0
  -23.6920  -14.3200   20.9270 C   0  0  0  0  0  0  0  0  0  0  0  0
  -22.8650  -13.6750   21.7410 N   0  0  0  0  0  0  0  0  0  0  0  0
  -23.3540  -15.3720   20.3820 O   0  0  0  0  0  0  0  0  0  0  0  0
  -23.1460  -12.8210   22.2040 H   0  0  0  0  0  0  0  0  0  0  0  0
  -21.9350  -14.0390   21.9070 H   0  0  0  0  0  0  0  0  0  0  0  0
  -26.4890  -15.8160   20.3320 N   0  0  0  0  0  0  0  0  0  0  0  0
  -25.7850  -16.5340   20.4760 H   0  0  0  0  0  0  0  0  0  0  0  0
  -27.4120  -16.1850   20.1440 H   0  0  0  0  0  0  0  0  0  0  0  0
  2  5  1  0
  2  1  1  0
  3  2  1  0
  3  9  1  0
  3  4  1  0
  4  1  1  0
  5  8  1  0
  6  5  1  0
  7  5  1  0
 10  9  1  0
 10 11  1  0
 12 11  1  0
 13 24  2  0
 14 12  1  0
 14 19  1  0
 15 23  1  0
 15 25  1  0
 16 18  1  0
 17 23  1  0
 18 19  2  0
 18 17  1  0
 20 14  2  0
 21 20  1  0
 21 16  2  0
 22 16  1  0
 22 15  1  0
 23 13  1  0
 25 27  2  0
 26 25  1  0
 28 26  1  0
 29 38  2  0
 29 34  1  0
 30 26  1  0
 30 34  1  0
 31 30  1  0
 32 33  1  0
 32 31  1  0
 33 29  1  0
 34 35  2  0
 35 36  1  0
 37 36  2  0
 38 37  1  0
 39 13  1  0
 39 44  1  0
 39 40  1  0
 40 43  1  1
 40 41  1  0
 42 40  1  0
 44 47  1  0
 45 49  1  0
 45 44  1  0
 46 45  2  0
 49 48  1  0
 51 49  1  0
 51 52  1  0
 51 50  1  0
 53  4  1  0
 53 54  1  0
 55 64  1  0
 55 54  1  0
 56 64  1  0
 57 62  1  0
 58 59  1  0
 58 57  1  0
 60 59  1  0
 60 69  1  0
 60 61  1  0
 62 56  1  0
 62 61  1  0
 63 56  2  0
 64 65  1  0
 66 67  2  0
 67 86  1  0
 68 67  1  0
 68 71  1  0
 69 66  1  0
 69 70  1  0
 70 68  2  0
 71 72  1  0
 72 73  2  0
 74 77  1  0
 74 73  1  0
 75 74  2  0
 76 75  1  0
 76 71  2  0
 77 78  1  0
 78 79  1  0
 79 80  2  0
 81 80  1  0
 81 85  1  0
 82 81  2  0
 83 78  2  0
 83 82  1  0
 84 83  1  0
 86 87  1  0
 87 90  1  0
 87 89  1  0
 88 86  2  0
 91 66  1  0
 91 92  1  0
 93 91  1  0
M  ISO  4  11 101  12 101  56 100  64 100
M  END
>  <TORSDO>  (47) 
F 23

>  <SCORE>  (47) 
-10.639

>  <name>  (47) 
48

>  <ligand_id>  (47) 
48

>  <original_smiles>  (47) 
[H]c1c([H])c([H])c2c(c1[H])C([H])([H])C([H])([H])C([H])([H])C2([H])N([H])C(=O)C1([H])N(C(=O)C([H])(N([H])C(=O)C([H])(N([H])C([H])([H])[H])C([H])([H])[H])C(C([H])([H])[H])(C([H])([H])[H])C([H])([H])[H])C([H])([H])c2c([H])c(OC([H])([H])C([H])([H])C([H])([H])C3([H])N(C([H])([H])C([H])([H])C([H])([H])N([H])C(=O)N4C([H])([H])C([H])([H])C([H])([H])C([H])(n5nc(-c6c([H])c([H])c(Oc7c([H])c([H])c(F)c([H])c7F)c([H])c6[H])c(C(=O)N([H])[H])c5N([H])[H])C4([H])[H])C([H])([H])C3([H])[N+]([H])([H])[H])c([H])c([H])c2C1([H])[H]

>  <smiles>  (47) 
[H]c1c([H])c([H])c2c(c1[H])C([H])([H])C([H])([H])C([H])([H])C2([H])N([H])C(=O)C1([H])N(C(=O)C([H])(N([H])C(=O)C([H])(N([H])C([H])([H])[H])C([H])([H])[H])C(C([H])([H])[H])(C([H])([H])[H])C([H])([H])[H])C([H])([H])c2c([H])c(OC([H])([H])C([H])([H])C([H])([H])C3([H])N(C([H])([H])C([H])([H])C([H])([H])N([H])C(=O)N4C([H])([H])C([H])([H])C([H])([H])C([H])(n5nc(-c6c([H])c([H])c(Oc7c([H])c([H])c(F)c([H])c7F)c([H])c6[H])c(C(=O)N([H])[H])c5N([H])[H])C4([H])[H])C([H])([H])C3([H])[N+]([H])([H])[H])c([H])c([H])c2C1([H])[H]

$$$$
49:0:0
     RDKit          3D

102110  0  0  1  0  0  0  0  0999 V2000
  -30.3640  -19.9890   22.4770 C   0  0  0  0  0  3  0  0  0  0  0  0
  -32.3860  -19.8960   20.9600 C   0  0  0  0  0  2  0  0  0  0  0  0
  -31.4020  -19.2480   21.6120 C   0  0  0  0  0  0  0  0  0  0  0  0
  -31.2890  -17.7110   21.5320 C   0  0  0  0  0  2  0  0  0  0  0  0
  -31.0950  -14.7530   20.3810 C   0  0  0  0  0  0  0  0  0  0  0  0
  -30.8540  -12.4830   19.4910 C   0  0  0  0  0  2  0  0  0  0  0  0
  -29.9030  -12.5680   18.2770 C   0  0  0  0  0  2  0  0  0  0  0  0
  -28.4290  -12.4630   18.7210 C   0  0  0  0  0  2  0  0  0  0  0  0
  -28.0790  -13.3590   19.9430 C   0  0  0  0  0  3  0  0  0  0  0  0
  -29.1580  -13.2760   21.0440 C   0  0  0  0  0  2  0  0  0  0  0  0
  -30.4600  -13.5500   20.4180 N   0  0  0  0  0  0  0  0  0  0  0  0
  -32.3140  -14.8540   20.2280 O   0  0  0  0  0  0  0  0  0  0  0  0
  -30.9540  -17.4500   18.9390 C   0  0  0  0  0  2  0  0  0  0  0  0
  -30.2150  -16.1780   18.5960 C   0  0  0  0  0  3  0  0  0  0  0  0
  -30.4200  -17.2680   20.3450 C   0  0  0  0  0  3  0  0  0  0  0  0
  -28.7920  -16.2880   18.0370 C   0  0  0  0  0  1  0  0  0  0  0  0
  -30.2860  -15.8020   20.0430 N   0  0  0  0  0  0  0  0  0  0  0  0
  -25.7300  -13.9790   20.7760 C   0  0  0  0  0  0  0  0  0  0  0  0
  -24.6450  -13.2110   21.0990 C   0  0  0  0  0  0  0  0  0  0  0  0
  -25.0610  -11.8540   20.9400 C   0  0  0  0  0  0  0  0  0  0  0  0
  -26.7390  -13.0870   20.4450 N   0  0  0  0  0  0  0  0  0  0  0  0
  -26.3420  -11.8000   20.6040 N   0  0  0  0  0  0  0  0  0  0  0  0
  -24.3000  -10.6030   21.0350 C   0  0  0  0  0  0  0  0  0  0  0  0
  -24.6810   -9.5730   21.9230 C   0  0  0  0  0  3  0  0  0  0  0  0
  -23.9220   -8.3870   22.0110 C   0  0  0  0  0  3  0  0  0  0  0  0
  -22.7690   -8.2220   21.2080 C   0  0  0  0  0  0  0  0  0  0  0  0
  -22.4070   -9.2400   20.3080 C   0  0  0  0  0  3  0  0  0  0  0  0
  -23.1670  -10.4180   20.2180 C   0  0  0  0  0  3  0  0  0  0  0  0
  -21.9860   -7.0930   21.2080 O   0  0  0  0  0  0  0  0  0  0  0  0
  -21.8100   -6.3400   22.3410 C   0  0  0  0  0  0  0  0  0  0  0  0
  -21.2400   -6.8800   23.5140 C   0  0  0  0  0  3  0  0  0  0  0  0
  -21.0120   -6.0530   24.6320 C   0  0  0  0  0  3  0  0  0  0  0  0
  -21.3470   -4.6860   24.5770 C   0  0  0  0  0  0  0  0  0  0  0  0
  -21.9120   -4.1460   23.4080 C   0  0  0  0  0  3  0  0  0  0  0  0
  -22.1400   -4.9700   22.2920 C   0  0  0  0  0  0  0  0  0  0  0  0
  -22.6640   -4.4400   21.1620 F   0  0  0  0  0  0  0  0  0  0  0  0
  -21.1220   -3.8900   25.6470 F   0  0  0  0  0  0  0  0  0  0  0  0
  -23.2710  -13.7050   21.4470 C   0  0  0  0  0  0  0  0  0  0  0  0
  -22.5460  -12.9610   22.2750 N   0  0  0  0  0  0  0  0  0  0  0  0
  -22.8520  -14.7810   21.0230 O   0  0  0  0  0  0  0  0  0  0  0  0
  -22.8990  -12.0890   22.6380 H   0  0  0  0  0  0  0  0  0  0  0  0
  -21.6230  -13.2700   22.5490 H   0  0  0  0  0  0  0  0  0  0  0  0
  -25.9380  -15.3540   20.7200 N   0  0  0  0  0  0  0  0  0  0  0  0
  -25.2030  -16.0250   20.9150 H   0  0  0  0  0  0  0  0  0  0  0  0
  -26.8170  -15.7880   20.4680 H   0  0  0  0  0  0  0  0  0  0  0  0
  -30.1240  -21.5050   22.1280 C   0  0  0  0  0  2  0  0  0  0  0  0
  -29.4360  -21.8320   20.7740 C   0  0  0  0  0  2  0  0  0  0  0  0
  -28.5780  -23.0480   20.8550 N   0  0  0  0  0  4  0  0  0  0  0  0
  -28.4060  -23.2450   21.8290 H   0  0  0  0  0  0  0  0  0  0  0  0
  -27.6870  -22.7930   20.4560 H   0  0  0  0  0  0  0  0  0  0  0  0
  -29.0280  -24.2960   20.1660 C   0  0  0  0  0  2  0  0  0  0  0  0
  -28.1020  -25.4930   20.5270 C   0  0  0  0  0  2  0  0  0  0  0  0
  -28.2070  -26.6530   19.6710 O   0  0  0  0  0  0  0  0  0  0  0  0
  -24.4190  -31.6270   23.0910 C   0  0  0  0  0  0  0  0  0  0  0  0
  -27.0660  -27.4300   19.6910 C   0  0  0  0  0  0  0  0  0  0  0  0
  -23.2050  -30.3250   21.3730 C   0  0  0  0  0  3  0  0  0  0  0  0
  -24.6570  -28.9080   19.8250 C   0  0  0  0  0  0  0  0  0  0  0  0
  -25.7230  -30.7290   21.1650 C   0  0  0  0  0  2  0  0  0  0  0  0
  -25.8190  -29.4050   20.4320 C   0  0  0  0  0  0  0  0  0  0  0  0
  -27.0300  -28.6760   20.3610 C   0  0  0  0  0  3  0  0  0  0  0  0
  -25.8940  -26.9590   19.0610 C   0  0  0  0  0  3  0  0  0  0  0  0
  -24.6900  -27.6840   19.1340 C   0  0  0  0  0  3  0  0  0  0  0  0
  -23.4030  -29.7430   19.9480 C   0  0  0  0  0  2  0  0  0  0  0  0
  -24.4680  -30.9030   21.9350 N   0  0  0  0  0  0  0  0  0  0  0  0
  -23.3420  -31.8480   23.6620 O   0  0  0  0  0  0  0  0  0  0  0  0
  -22.5800  -29.2320   22.2700 C   0  0  0  0  0  0  0  0  0  0  0  0
  -21.2540  -29.0490   22.1540 N   0  0  0  0  0  0  0  0  0  0  0  0
  -23.2830  -28.5560   23.0260 O   0  0  0  0  0  0  0  0  0  0  0  0
  -20.7470  -29.6480   21.5190 H   0  0  0  0  0  0  0  0  0  0  0  0
  -17.8910  -27.8300   22.6690 C   0  0  0  0  0  0  0  0  0  0  0  0
  -20.4580  -28.0530   22.8720 C   0  0  0  0  0  3  0  0  0  0  0  0
  -20.5300  -26.6750   22.1740 C   0  0  0  0  0  2  0  0  0  0  0  0
  -19.3910  -26.4430   21.1760 C   0  0  0  0  0  2  0  0  0  0  0  0
  -18.0330  -26.5410   21.8780 C   0  0  0  0  0  2  0  0  0  0  0  0
  -19.0290  -28.5480   23.1230 C   0  0  0  0  0  0  0  0  0  0  0  0
  -18.8400  -29.7590   23.8240 C   0  0  0  0  0  3  0  0  0  0  0  0
  -17.5470  -30.2520   24.0750 C   0  0  0  0  0  3  0  0  0  0  0  0
  -16.4230  -29.5290   23.6370 C   0  0  0  0  0  3  0  0  0  0  0  0
  -16.5960  -28.3190   22.9410 C   0  0  0  0  0  3  0  0  0  0  0  0
  -25.7060  -32.2300   23.7330 C   0  0  0  0  0  3  0  0  0  0  0  0
  -25.3900  -33.6000   24.1540 N   0  0  0  0  0  0  0  0  0  0  0  0
  -25.7360  -34.7030   23.4760 C   0  0  0  0  0  0  0  0  0  0  0  0
  -26.4270  -34.6720   22.4540 O   0  0  0  0  0  0  0  0  0  0  0  0
  -24.7790  -33.7000   24.9520 H   0  0  0  0  0  0  0  0  0  0  0  0
  -24.0410  -36.5360   23.1800 C   0  0  0  0  0  1  0  0  0  0  0  0
  -25.2360  -36.0560   24.0180 C   0  0  0  0  0  3  0  0  0  0  0  0
  -27.3330  -36.8450   25.0210 C   0  0  0  0  0  1  0  0  0  0  0  0
  -26.2800  -37.1030   24.0410 N   0  0  0  0  0  0  0  0  0  0  0  0
  -25.8740  -38.0120   24.2450 H   0  0  0  0  0  0  0  0  0  0  0  0
  -26.2500  -31.3830   24.9490 C   0  0  1  0  0  0  0  0  0  0  0  0
  -25.1640  -31.0160   25.9880 C   0  0  0  0  0  1  0  0  0  0  0  0
  -26.8910  -30.0670   24.4530 C   0  0  0  0  0  1  0  0  0  0  0  0
  -27.3640  -32.1700   25.6780 C   0  0  0  0  0  1  0  0  0  0  0  0
  -30.7040  -19.7820   23.9890 C   0  0  0  0  0  3  0  0  0  0  0  0
  -31.7240  -20.7460   24.4540 N   0  0  0  0  0  4  0  0  0  0  0  0
  -31.3700  -21.6860   24.4660 H   0  0  0  0  0  0  0  0  0  0  0  0
  -32.5300  -20.7190   23.8550 H   0  0  0  0  0  0  0  0  0  0  0  0
  -32.0330  -20.5160   25.3830 H   0  0  0  0  0  0  0  0  0  0  0  0
  -29.4720  -19.7660   24.9250 C   0  0  0  0  0  2  0  0  0  0  0  0
  -29.5510  -18.6920   26.0250 C   0  0  0  0  0  2  0  0  0  0  0  0
  -28.3020  -17.4240   27.8500 C   0  0  0  0  0  1  0  0  0  0  0  0
  -28.2230  -18.5150   26.7750 C   0  0  0  0  0  2  0  0  0  0  0  0
  1 46  1  0
  1 94  1  0
  2  3  2  0
  3  1  1  0
  4  3  1  0
  5 11  1  0
  6 11  1  0
  7  8  1  0
  7  6  1  0
  9  8  1  0
  9 21  1  0
  9 10  1  0
 11 10  1  0
 12  5  2  0
 13 15  1  0
 14 16  1  0
 14 13  1  0
 14 17  1  0
 15  4  1  0
 17 15  1  0
 17  5  1  0
 18 19  2  0
 19 38  1  0
 20 23  1  0
 20 19  1  0
 21 22  1  0
 21 18  1  0
 22 20  2  0
 23 24  1  0
 24 25  2  0
 26 29  1  0
 26 25  1  0
 27 26  2  0
 28 27  1  0
 28 23  2  0
 29 30  1  0
 30 31  1  0
 31 32  2  0
 33 32  1  0
 33 37  1  0
 34 33  2  0
 35 30  2  0
 35 34  1  0
 36 35  1  0
 38 39  1  0
 39 42  1  0
 39 41  1  0
 40 38  2  0
 43 18  1  0
 43 44  1  0
 45 43  1  0
 47 48  1  0
 47 46  1  0
 48 49  1  0
 50 48  1  0
 51 52  1  0
 51 48  1  0
 53 55  1  0
 53 52  1  0
 54 65  2  0
 55 60  1  0
 56 64  1  0
 56 66  1  0
 57 63  1  0
 57 59  1  0
 58 64  1  0
 59 58  1  0
 60 59  2  0
 61 62  1  0
 61 55  2  0
 62 57  2  0
 63 56  1  0
 64 54  1  0
 66 68  2  0
 67 66  1  0
 69 67  1  0
 70 79  2  0
 70 75  1  0
 71 67  1  0
 71 75  1  0
 72 71  1  0
 73 74  1  0
 73 72  1  0
 74 70  1  0
 75 76  2  0
 76 77  1  0
 78 77  2  0
 79 78  1  0
 80 54  1  0
 80 81  1  0
 80 90  1  0
 81 84  1  0
 82 86  1  0
 82 81  1  0
 83 82  2  0
 86 85  1  0
 86 88  1  0
 88 89  1  0
 88 87  1  0
 90 93  1  1
 90 91  1  0
 92 90  1  0
 94 95  1  0
 94 99  1  0
 95 96  1  0
 95 98  1  0
 97 95  1  0
 99100  1  0
100102  1  0
102101  1  0
M  ISO  4   5 100  17 100  52 101  53 101
M  END
>  <TORSDO>  (48) 
F 28

>  <SCORE>  (48) 
-2.770

>  <name>  (48) 
49

>  <ligand_id>  (48) 
49

>  <original_smiles>  (48) 
[H]C([H])=C(C([H])([H])C1([H])N(C(=O)N2C([H])([H])C([H])([H])C([H])([H])C([H])(n3nc(-c4c([H])c([H])c(Oc5c([H])c([H])c(F)c([H])c5F)c([H])c4[H])c(C(=O)N([H])[H])c3N([H])[H])C2([H])[H])C([H])(C([H])([H])[H])C1([H])[H])C([H])(C([H])([H])C([H])([H])[N+]([H])([H])C([H])([H])C([H])([H])Oc1c([H])c([H])c2c(c1[H])C([H])([H])N(C(=O)C([H])(N([H])C(=O)C([H])(N([H])C([H])([H])[H])C([H])([H])[H])C(C([H])([H])[H])(C([H])([H])[H])C([H])([H])[H])C([H])(C(=O)N([H])C1([H])c3c([H])c([H])c([H])c([H])c3C([H])([H])C([H])([H])C1([H])[H])C2([H])[H])C([H])(C([H])([H])C([H])([H])C([H])([H])C([H])([H])[H])[N+]([H])([H])[H]

>  <smiles>  (48) 
[H]C([H])=C(C([H])([H])C1([H])N(C(=O)N2C([H])([H])C([H])([H])C([H])([H])C([H])(n3nc(-c4c([H])c([H])c(Oc5c([H])c([H])c(F)c([H])c5F)c([H])c4[H])c(C(=O)N([H])[H])c3N([H])[H])C2([H])[H])C([H])(C([H])([H])[H])C1([H])[H])C([H])(C([H])([H])C([H])([H])[N+]([H])([H])C([H])([H])C([H])([H])Oc1c([H])c([H])c2c(c1[H])C([H])([H])N(C(=O)C([H])(N([H])C(=O)C([H])(N([H])C([H])([H])[H])C([H])([H])[H])C(C([H])([H])[H])(C([H])([H])[H])C([H])([H])[H])C([H])(C(=O)N([H])C1([H])c3c([H])c([H])c([H])c([H])c3C([H])([H])C([H])([H])C1([H])[H])C2([H])[H])C([H])(C([H])([H])C([H])([H])C([H])([H])C([H])([H])[H])[N+]([H])([H])[H]

$$$$
50:0:0
     RDKit          3D

 90 98  0  0  1  0  0  0  0  0999 V2000
  -29.3190  -20.6730   20.2670 C   0  0  0  0  0  0  0  0  0  0  0  0
  -30.1970  -21.7380   19.8340 C   0  0  0  0  0  0  0  0  0  0  0  0
  -29.2950  -19.3030   20.1720 C   0  0  0  0  0  0  0  0  0  0  0  0
  -28.4000  -21.7060   20.8790 C   0  0  0  0  0  2  0  0  0  0  0  0
  -28.1080  -18.5440   20.7470 C   0  0  0  0  0  1  0  0  0  0  0  0
  -29.3760  -22.7260   20.3960 N   0  0  0  0  0  0  0  0  0  0  0  0
  -31.2570  -21.7100   19.2440 O   0  0  0  0  0  0  0  0  0  0  0  0
  -30.3020  -18.3660   19.4400 C   0  0  0  0  0  2  0  0  0  0  0  0
  -31.0840  -17.2970   20.3070 C   0  0  0  0  0  2  0  0  0  0  0  0
  -31.3100  -14.7650   19.8920 C   0  0  0  0  0  0  0  0  0  0  0  0
  -30.9630  -12.4900   18.9720 C   0  0  0  0  0  2  0  0  0  0  0  0
  -29.9690  -12.5750   17.7940 C   0  0  0  0  0  2  0  0  0  0  0  0
  -28.5150  -12.4860   18.2990 C   0  0  0  0  0  2  0  0  0  0  0  0
  -28.2360  -13.4390   19.4920 C   0  0  0  0  0  3  0  0  0  0  0  0
  -29.3400  -13.3300   20.5680 C   0  0  0  0  0  2  0  0  0  0  0  0
  -30.6290  -13.5800   19.9060 N   0  0  0  0  0  0  0  0  0  0  0  0
  -32.4530  -14.8530   19.4380 O   0  0  0  0  0  0  0  0  0  0  0  0
  -30.6060  -15.8790   20.2400 N   0  0  0  0  0  0  0  0  0  0  0  0
  -29.6600  -15.7110   20.5500 H   0  0  0  0  0  0  0  0  0  0  0  0
  -25.9410  -14.1580   20.3990 C   0  0  0  0  0  0  0  0  0  0  0  0
  -24.8500  -13.4380   20.8030 C   0  0  0  0  0  0  0  0  0  0  0  0
  -25.2140  -12.0620   20.6780 C   0  0  0  0  0  0  0  0  0  0  0  0
  -26.9050  -13.2240   20.0540 N   0  0  0  0  0  0  0  0  0  0  0  0
  -26.4770  -11.9550   20.2810 N   0  0  0  0  0  0  0  0  0  0  0  0
  -24.4170  -10.8420   20.8580 C   0  0  0  0  0  0  0  0  0  0  0  0
  -24.7780   -9.8560   21.8030 C   0  0  0  0  0  3  0  0  0  0  0  0
  -23.9850   -8.7000   21.9690 C   0  0  0  0  0  3  0  0  0  0  0  0
  -22.8160   -8.5230   21.1910 C   0  0  0  0  0  0  0  0  0  0  0  0
  -22.4740   -9.4970   20.2370 C   0  0  0  0  0  3  0  0  0  0  0  0
  -23.2680  -10.6440   20.0680 C   0  0  0  0  0  3  0  0  0  0  0  0
  -22.0000   -7.4210   21.2670 O   0  0  0  0  0  0  0  0  0  0  0  0
  -21.8110   -6.7440   22.4460 C   0  0  0  0  0  0  0  0  0  0  0  0
  -21.2450   -7.3660   23.5800 C   0  0  0  0  0  3  0  0  0  0  0  0
  -21.0050   -6.6150   24.7490 C   0  0  0  0  0  3  0  0  0  0  0  0
  -21.3210   -5.2440   24.7820 C   0  0  0  0  0  0  0  0  0  0  0  0
  -21.8810   -4.6220   23.6520 C   0  0  0  0  0  3  0  0  0  0  0  0
  -22.1220   -5.3690   22.4860 C   0  0  0  0  0  0  0  0  0  0  0  0
  -22.6410   -4.7610   21.3930 F   0  0  0  0  0  0  0  0  0  0  0  0
  -21.0850   -4.5200   25.9010 F   0  0  0  0  0  0  0  0  0  0  0  0
  -23.5080  -13.9910   21.1920 C   0  0  0  0  0  0  0  0  0  0  0  0
  -22.8030  -13.3140   22.0900 N   0  0  0  0  0  0  0  0  0  0  0  0
  -23.1000  -15.0560   20.7320 O   0  0  0  0  0  0  0  0  0  0  0  0
  -23.1470  -12.4500   22.4820 H   0  0  0  0  0  0  0  0  0  0  0  0
  -21.9050  -13.6650   22.3910 H   0  0  0  0  0  0  0  0  0  0  0  0
  -26.1870  -15.5220   20.2730 N   0  0  0  0  0  0  0  0  0  0  0  0
  -25.4720  -16.2170   20.4620 H   0  0  0  0  0  0  0  0  0  0  0  0
  -27.0330  -15.9200   19.8880 H   0  0  0  0  0  0  0  0  0  0  0  0
  -29.5300  -24.1940   20.6380 C   0  0  0  0  0  3  0  0  0  0  0  0
  -28.3710  -25.1210   20.1240 C   0  0  0  0  0  3  0  0  0  0  0  0
  -28.5200  -26.5620   20.3680 O   0  0  0  0  0  0  0  0  0  0  0  0
  -24.5810  -31.8310   23.2630 C   0  0  0  0  0  0  0  0  0  0  0  0
  -27.3700  -27.3510   20.2880 C   0  0  0  0  0  0  0  0  0  0  0  0
  -23.4510  -30.4120   21.5880 C   0  0  0  0  0  3  0  0  0  0  0  0
  -24.9700  -28.8910   20.2100 C   0  0  0  0  0  0  0  0  0  0  0  0
  -25.9860  -30.7850   21.4770 C   0  0  0  0  0  2  0  0  0  0  0  0
  -26.1090  -29.4110   20.8360 C   0  0  0  0  0  0  0  0  0  0  0  0
  -27.3140  -28.6530   20.8650 C   0  0  0  0  0  3  0  0  0  0  0  0
  -26.2050  -26.8740   19.6430 C   0  0  0  0  0  3  0  0  0  0  0  0
  -25.0180  -27.6250   19.6070 C   0  0  0  0  0  3  0  0  0  0  0  0
  -23.7170  -29.7390   20.2160 C   0  0  0  0  0  2  0  0  0  0  0  0
  -24.6890  -31.0260   22.1670 N   0  0  0  0  0  0  0  0  0  0  0  0
  -23.4780  -32.0910   23.7640 O   0  0  0  0  0  0  0  0  0  0  0  0
  -22.7780  -29.3840   22.5270 C   0  0  0  0  0  0  0  0  0  0  0  0
  -21.4660  -29.1640   22.3410 N   0  0  0  0  0  0  0  0  0  0  0  0
  -23.4390  -28.7860   23.3820 O   0  0  0  0  0  0  0  0  0  0  0  0
  -20.9940  -29.7000   21.6260 H   0  0  0  0  0  0  0  0  0  0  0  0
  -18.0980  -27.9060   22.7230 C   0  0  0  0  0  0  0  0  0  0  0  0
  -20.6390  -28.2130   23.0840 C   0  0  0  0  0  3  0  0  0  0  0  0
  -20.7880  -26.7830   22.5130 C   0  0  0  0  0  2  0  0  0  0  0  0
  -19.7290  -26.4390   21.4610 C   0  0  0  0  0  2  0  0  0  0  0  0
  -18.3230  -26.5600   22.0570 C   0  0  0  0  0  2  0  0  0  0  0  0
  -19.1860  -28.6890   23.1910 C   0  0  0  0  0  0  0  0  0  0  0  0
  -18.9240  -29.9480   23.7730 C   0  0  0  0  0  3  0  0  0  0  0  0
  -17.6050  -30.4260   23.8900 C   0  0  0  0  0  3  0  0  0  0  0  0
  -16.5300  -29.6410   23.4390 C   0  0  0  0  0  3  0  0  0  0  0  0
  -16.7770  -28.3820   22.8610 C   0  0  0  0  0  3  0  0  0  0  0  0
  -25.8360  -32.4840   23.9220 C   0  0  0  0  0  3  0  0  0  0  0  0
  -26.3070  -31.7370   25.2310 C   0  0  1  0  0  0  0  0  0  0  0  0
  -25.1660  -31.4660   26.2380 C   0  0  0  0  0  1  0  0  0  0  0  0
  -26.9590  -30.3800   24.8800 C   0  0  0  0  0  1  0  0  0  0  0  0
  -27.3910  -32.5740   25.9500 C   0  0  0  0  0  1  0  0  0  0  0  0
  -25.5030  -33.8850   24.2170 N   0  0  0  0  0  0  0  0  0  0  0  0
  -25.8630  -34.9280   23.4590 C   0  0  0  0  0  0  0  0  0  0  0  0
  -26.5790  -34.8140   22.4610 O   0  0  0  0  0  0  0  0  0  0  0  0
  -24.8720  -34.0470   24.9890 H   0  0  0  0  0  0  0  0  0  0  0  0
  -24.1480  -36.7070   22.9920 C   0  0  0  0  0  1  0  0  0  0  0  0
  -25.3460  -36.3200   23.8720 C   0  0  0  0  0  3  0  0  0  0  0  0
  -27.4200  -37.2350   24.8150 C   0  0  0  0  0  1  0  0  0  0  0  0
  -26.3780  -37.3750   23.8000 N   0  0  0  0  0  0  0  0  0  0  0  0
  -25.9600  -38.2960   23.9020 H   0  0  0  0  0  0  0  0  0  0  0  0
  1  4  1  0
  2  1  1  0
  2  6  1  0
  3  1  2  0
  3  5  1  0
  6 48  1  0
  6  4  1  0
  7  2  2  0
  8  3  1  0
  8  9  1  0
 10 16  1  0
 10 18  1  0
 11 16  1  0
 12 13  1  0
 12 11  1  0
 14 13  1  0
 14 23  1  0
 14 15  1  0
 16 15  1  0
 17 10  2  0
 18  9  1  0
 18 19  1  0
 20 21  2  0
 21 40  1  0
 22 21  1  0
 22 25  1  0
 23 24  1  0
 23 20  1  0
 24 22  2  0
 25 26  1  0
 26 27  2  0
 28 31  1  0
 28 27  1  0
 29 28  2  0
 30 29  1  0
 30 25  2  0
 31 32  1  0
 32 37  2  0
 32 33  1  0
 33 34  2  0
 34 35  1  0
 35 39  1  0
 36 35  2  0
 37 36  1  0
 38 37  1  0
 40 41  1  0
 41 44  1  0
 41 43  1  0
 42 40  2  0
 45 20  1  0
 45 46  1  0
 47 45  1  0
 49 50  1  0
 49 48  2  0
 51 62  2  0
 52 50  1  0
 52 57  1  0
 53 61  1  0
 53 63  1  0
 54 60  1  0
 54 56  1  0
 55 61  1  0
 56 57  2  0
 56 55  1  0
 58 52  2  0
 59 58  1  0
 59 54  2  0
 60 53  1  0
 61 51  1  0
 63 65  2  0
 64 63  1  0
 66 64  1  0
 67 76  2  0
 67 72  1  0
 68 64  1  0
 68 72  1  0
 69 68  1  0
 70 71  1  0
 70 69  1  0
 71 67  1  0
 72 73  2  0
 73 74  1  0
 75 74  2  0
 76 75  1  0
 77 51  1  0
 77 82  1  0
 77 78  1  0
 78 81  1  1
 78 79  1  0
 80 78  1  0
 82 85  1  0
 83 87  1  0
 83 82  1  0
 84 83  2  0
 87 86  1  0
 89 87  1  0
 89 90  1  0
 89 88  1  0
M  ISO  4  10 100  18 100  49 101  50 101
M  END
>  <TORSDO>  (49) 
F 20

>  <SCORE>  (49) 
-12.978

>  <name>  (49) 
50

>  <ligand_id>  (49) 
50

>  <original_smiles>  (49) 
[H]c1c([H])c([H])c2c(c1[H])C([H])([H])C([H])([H])C([H])([H])C2([H])N([H])C(=O)C1([H])N(C(=O)C([H])(N([H])C(=O)C([H])(N([H])C([H])([H])[H])C([H])([H])[H])C(C([H])([H])[H])(C([H])([H])[H])C([H])([H])[H])C([H])([H])c2c([H])c(OC([H])([H])C([H])([H])N3C(=O)C(=C(C([H])([H])[H])C([H])([H])C([H])([H])N([H])C(=O)N4C([H])([H])C([H])([H])C([H])([H])C([H])(n5nc(-c6c([H])c([H])c(Oc7c([H])c([H])c(F)c([H])c7F)c([H])c6[H])c(C(=O)N([H])[H])c5N([H])[H])C4([H])[H])C3([H])[H])c([H])c([H])c2C1([H])[H]

>  <smiles>  (49) 
[H]c1c([H])c([H])c2c(c1[H])C([H])([H])C([H])([H])C([H])([H])C2([H])N([H])C(=O)C1([H])N(C(=O)C([H])(N([H])C(=O)C([H])(N([H])C([H])([H])[H])C([H])([H])[H])C(C([H])([H])[H])(C([H])([H])[H])C([H])([H])[H])C([H])([H])c2c([H])c(OC([H])([H])C([H])([H])N3C(=O)C(=C(C([H])([H])[H])C([H])([H])C([H])([H])N([H])C(=O)N4C([H])([H])C([H])([H])C([H])([H])C([H])(n5nc(-c6c([H])c([H])c(Oc7c([H])c([H])c(F)c([H])c7F)c([H])c6[H])c(C(=O)N([H])[H])c5N([H])[H])C4([H])[H])C3([H])[H])c([H])c([H])c2C1([H])[H]

$$$$
51:0:0
     RDKit          3D

 98106  0  0  1  0  0  0  0  0999 V2000
  -30.4620  -21.6160   23.1290 C   0  0  0  0  0  2  0  0  0  0  0  0
  -30.1390  -21.0370   21.7680 C   0  0  0  0  0  3  0  0  0  0  0  0
  -30.7630  -22.4310   21.8960 C   0  0  0  0  0  3  0  0  0  0  0  0
  -30.2650  -24.5770   22.9100 C   0  0  0  0  0  1  0  0  0  0  0  0
  -29.8920  -23.6410   21.8190 N   0  0  1  0  0  4  0  0  0  0  0  0
  -28.9490  -23.3490   22.0260 H   0  0  0  0  0  0  0  0  0  0  0  0
  -29.8410  -24.2430   20.4470 C   0  0  0  0  0  2  0  0  0  0  0  0
  -30.0760  -25.7800   20.3050 C   0  0  0  0  0  2  0  0  0  0  0  0
  -28.9560  -26.7420   20.7700 C   0  0  0  0  0  2  0  0  0  0  0  0
  -27.8260  -26.5960   19.9200 O   0  0  0  0  0  0  0  0  0  0  0  0
  -24.4070  -31.9530   23.2820 C   0  0  0  0  0  0  0  0  0  0  0  0
  -26.7440  -27.4390   20.0670 C   0  0  0  0  0  0  0  0  0  0  0  0
  -23.0740  -30.6150   21.6840 C   0  0  0  0  0  3  0  0  0  0  0  0
  -24.4020  -29.0280   20.1930 C   0  0  0  0  0  0  0  0  0  0  0  0
  -25.5980  -30.8710   21.3820 C   0  0  0  0  0  2  0  0  0  0  0  0
  -25.6030  -29.5000   20.7420 C   0  0  0  0  0  0  0  0  0  0  0  0
  -26.7740  -28.7120   20.6910 C   0  0  0  0  0  3  0  0  0  0  0  0
  -25.5290  -26.9830   19.5170 C   0  0  0  0  0  3  0  0  0  0  0  0
  -24.3570  -27.7630   19.5840 C   0  0  0  0  0  3  0  0  0  0  0  0
  -23.1970  -29.9350   20.2930 C   0  0  0  0  0  2  0  0  0  0  0  0
  -24.3800  -31.1610   22.1740 N   0  0  0  0  0  0  0  0  0  0  0  0
  -23.3630  -32.2660   23.8700 O   0  0  0  0  0  0  0  0  0  0  0  0
  -22.4220  -29.6160   22.6640 C   0  0  0  0  0  0  0  0  0  0  0  0
  -21.0980  -29.4280   22.5340 N   0  0  0  0  0  0  0  0  0  0  0  0
  -23.1030  -29.0110   23.4960 O   0  0  0  0  0  0  0  0  0  0  0  0
  -20.6090  -29.9680   21.8330 H   0  0  0  0  0  0  0  0  0  0  0  0
  -17.7390  -28.1760   22.9800 C   0  0  0  0  0  0  0  0  0  0  0  0
  -20.2800  -28.5070   23.3220 C   0  0  0  0  0  3  0  0  0  0  0  0
  -20.4340  -27.0540   22.8160 C   0  0  0  0  0  2  0  0  0  0  0  0
  -19.3740  -26.6580   21.7840 C   0  0  0  0  0  2  0  0  0  0  0  0
  -17.9680  -26.8010   22.3740 C   0  0  0  0  0  2  0  0  0  0  0  0
  -18.8260  -28.9820   23.4110 C   0  0  0  0  0  0  0  0  0  0  0  0
  -18.5590  -30.2680   23.9320 C   0  0  0  0  0  3  0  0  0  0  0  0
  -17.2390  -30.7450   24.0310 C   0  0  0  0  0  3  0  0  0  0  0  0
  -16.1660  -29.9350   23.6200 C   0  0  0  0  0  3  0  0  0  0  0  0
  -16.4170  -28.6530   23.1000 C   0  0  0  0  0  3  0  0  0  0  0  0
  -25.7450  -32.5210   23.8500 C   0  0  0  0  0  3  0  0  0  0  0  0
  -26.2730  -31.7300   25.1100 C   0  0  1  0  0  0  0  0  0  0  0  0
  -25.2100  -31.5430   26.2170 C   0  0  0  0  0  1  0  0  0  0  0  0
  -26.7820  -30.3290   24.7000 C   0  0  0  0  0  1  0  0  0  0  0  0
  -27.4790  -32.4750   25.7280 C   0  0  0  0  0  1  0  0  0  0  0  0
  -25.5210  -33.9350   24.1790 N   0  0  0  0  0  0  0  0  0  0  0  0
  -25.9140  -34.9650   23.4160 C   0  0  0  0  0  0  0  0  0  0  0  0
  -26.5750  -34.8190   22.3840 O   0  0  0  0  0  0  0  0  0  0  0  0
  -24.9400  -34.1270   24.9810 H   0  0  0  0  0  0  0  0  0  0  0  0
  -24.3220  -36.8700   23.0230 C   0  0  0  0  0  1  0  0  0  0  0  0
  -25.5090  -36.3790   23.8680 C   0  0  0  0  0  3  0  0  0  0  0  0
  -27.6690  -37.1170   24.7730 C   0  0  0  0  0  1  0  0  0  0  0  0
  -26.6130  -37.3600   23.7930 N   0  0  0  0  0  0  0  0  0  0  0  0
  -26.2660  -38.3060   23.9290 H   0  0  0  0  0  0  0  0  0  0  0  0
  -30.9720  -19.8220   21.3600 C   0  0  0  0  0  2  0  0  0  0  0  0
  -30.4190  -19.0450   20.1740 C   0  0  0  0  0  3  0  0  0  0  0  0
  -30.2200  -17.7080   20.0840 C   0  0  0  0  0  0  0  0  0  0  0  0
  -29.6570  -17.0950   18.7920 C   0  0  0  0  0  2  0  0  0  0  0  0
  -28.3050  -17.6700   18.2990 C   0  0  0  0  0  2  0  0  0  0  0  0
  -28.4110  -18.9460   17.5660 N   0  0  0  0  0  4  0  0  0  0  0  0
  -28.7180  -19.6880   18.1640 H   0  0  0  0  0  0  0  0  0  0  0  0
  -27.5100  -19.1970   17.2010 H   0  0  0  0  0  0  0  0  0  0  0  0
  -29.0410  -18.8660   16.7870 H   0  0  0  0  0  0  0  0  0  0  0  0
  -30.5860  -16.7630   21.2500 C   0  0  0  0  0  2  0  0  0  0  0  0
  -30.8780  -14.3650   20.5260 C   0  0  0  0  0  0  0  0  0  0  0  0
  -30.5740  -12.2070   19.3670 C   0  0  0  0  0  2  0  0  0  0  0  0
  -29.6470  -12.4100   18.1510 C   0  0  0  0  0  2  0  0  0  0  0  0
  -28.1640  -12.3060   18.5620 C   0  0  0  0  0  2  0  0  0  0  0  0
  -27.8250  -13.1490   19.8190 C   0  0  0  0  0  3  0  0  0  0  0  0
  -28.8620  -12.9050   20.9380 C   0  0  0  0  0  2  0  0  0  0  0  0
  -30.1980  -13.1940   20.3890 N   0  0  0  0  0  0  0  0  0  0  0  0
  -31.9910  -14.5640   20.0330 O   0  0  0  0  0  0  0  0  0  0  0  0
  -30.1900  -15.3510   21.1300 N   0  0  0  0  0  0  0  0  0  0  0  0
  -29.2920  -15.0980   21.5140 H   0  0  0  0  0  0  0  0  0  0  0  0
  -25.4320  -13.8070   20.5040 C   0  0  0  0  0  0  0  0  0  0  0  0
  -24.3420  -13.0560   20.8490 C   0  0  0  0  0  0  0  0  0  0  0  0
  -24.7720  -11.6940   20.8030 C   0  0  0  0  0  0  0  0  0  0  0  0
  -26.4600  -12.9040   20.2770 N   0  0  0  0  0  0  0  0  0  0  0  0
  -26.0630  -11.6270   20.5090 N   0  0  0  0  0  0  0  0  0  0  0  0
  -24.0130  -10.4480   20.9660 C   0  0  0  0  0  0  0  0  0  0  0  0
  -24.3970   -9.4690   21.9090 C   0  0  0  0  0  3  0  0  0  0  0  0
  -23.6420   -8.2860   22.0600 C   0  0  0  0  0  3  0  0  0  0  0  0
  -22.4880   -8.0740   21.2670 C   0  0  0  0  0  0  0  0  0  0  0  0
  -22.1250   -9.0410   20.3150 C   0  0  0  0  0  3  0  0  0  0  0  0
  -22.8790  -10.2160   20.1620 C   0  0  0  0  0  3  0  0  0  0  0  0
  -21.7100   -6.9430   21.3280 O   0  0  0  0  0  0  0  0  0  0  0  0
  -21.5850   -6.2160   22.4840 C   0  0  0  0  0  0  0  0  0  0  0  0
  -21.0630   -6.7800   23.6680 C   0  0  0  0  0  3  0  0  0  0  0  0
  -20.8910   -5.9760   24.8130 C   0  0  0  0  0  3  0  0  0  0  0  0
  -21.2270   -4.6100   24.7730 C   0  0  0  0  0  0  0  0  0  0  0  0
  -21.7410   -4.0460   23.5930 C   0  0  0  0  0  3  0  0  0  0  0  0
  -21.9170   -4.8470   22.4510 C   0  0  0  0  0  0  0  0  0  0  0  0
  -22.3900   -4.2930   21.3090 F   0  0  0  0  0  0  0  0  0  0  0  0
  -21.0540   -3.8370   25.8690 F   0  0  0  0  0  0  0  0  0  0  0  0
  -22.9520  -13.5620   21.1150 C   0  0  0  0  0  0  0  0  0  0  0  0
  -22.2030  -12.8750   21.9710 N   0  0  0  0  0  0  0  0  0  0  0  0
  -22.5400  -14.6010   20.6000 O   0  0  0  0  0  0  0  0  0  0  0  0
  -22.5470  -12.0350   22.4130 H   0  0  0  0  0  0  0  0  0  0  0  0
  -21.2710  -13.1950   22.1870 H   0  0  0  0  0  0  0  0  0  0  0  0
  -25.6340  -15.1760   20.3500 N   0  0  0  0  0  0  0  0  0  0  0  0
  -24.8940  -15.8530   20.4910 H   0  0  0  0  0  0  0  0  0  0  0  0
  -26.5150  -15.5910   20.0840 H   0  0  0  0  0  0  0  0  0  0  0  0
  2 51  1  0
  2  3  1  0
  2  1  1  0
  3  5  1  0
  3  1  1  0
  5  6  1  1
  5  4  1  0
  7  5  1  0
  8  7  1  0
  8  9  1  0
 10 12  1  0
 10  9  1  0
 11 22  2  0
 12 17  1  0
 13 21  1  0
 13 23  1  0
 14 20  1  0
 14 16  1  0
 15 21  1  0
 16 15  1  0
 17 16  2  0
 18 19  1  0
 18 12  2  0
 19 14  2  0
 20 13  1  0
 21 11  1  0
 23 25  2  0
 24 23  1  0
 26 24  1  0
 27 36  2  0
 27 32  1  0
 28 24  1  0
 28 32  1  0
 29 28  1  0
 30 31  1  0
 30 29  1  0
 31 27  1  0
 32 33  2  0
 33 34  1  0
 35 34  2  0
 36 35  1  0
 37 11  1  0
 37 42  1  0
 37 38  1  0
 38 41  1  1
 38 39  1  0
 40 38  1  0
 42 45  1  0
 43 47  1  0
 43 42  1  0
 44 43  2  0
 47 46  1  0
 49 47  1  0
 49 50  1  0
 49 48  1  0
 52 51  1  0
 53 52  2  0
 53 60  1  0
 54 53  1  0
 55 54  1  0
 56 57  1  0
 56 55  1  0
 58 56  1  0
 59 56  1  0
 61 69  1  0
 62 67  1  0
 63 64  1  0
 63 62  1  0
 65 64  1  0
 65 74  1  0
 65 66  1  0
 67 61  1  0
 67 66  1  0
 68 61  2  0
 69 60  1  0
 69 70  1  0
 71 72  2  0
 72 91  1  0
 73 72  1  0
 73 76  1  0
 74 71  1  0
 74 75  1  0
 75 73  2  0
 76 77  1  0
 77 78  2  0
 79 82  1  0
 79 78  1  0
 80 79  2  0
 81 80  1  0
 81 76  2  0
 82 83  1  0
 83 84  1  0
 84 85  2  0
 86 85  1  0
 86 90  1  0
 87 86  2  0
 88 83  2  0
 88 87  1  0
 89 88  1  0
 91 92  1  0
 92 95  1  0
 92 94  1  0
 93 91  2  0
 96 97  1  0
 96 71  1  0
 98 96  1  0
M  ISO  4   9 101  10 101  61 100  69 100
M  END
>  <TORSDO>  (50) 
F 26

>  <SCORE>  (50) 
-11.666

>  <name>  (50) 
51

>  <ligand_id>  (50) 
51

>  <original_smiles>  (50) 
[H]C(=C(C([H])([H])N([H])C(=O)N1C([H])([H])C([H])([H])C([H])([H])C([H])(n2nc(-c3c([H])c([H])c(Oc4c([H])c([H])c(F)c([H])c4F)c([H])c3[H])c(C(=O)N([H])[H])c2N([H])[H])C1([H])[H])C([H])([H])C([H])([H])[N+]([H])([H])[H])C([H])([H])C1([H])C([H])([H])C1([H])[N+]([H])(C([H])([H])[H])C([H])([H])C([H])([H])C([H])([H])Oc1c([H])c([H])c2c(c1[H])C([H])([H])N(C(=O)C([H])(N([H])C(=O)C([H])(N([H])C([H])([H])[H])C([H])([H])[H])C(C([H])([H])[H])(C([H])([H])[H])C([H])([H])[H])C([H])(C(=O)N([H])C1([H])c3c([H])c([H])c([H])c([H])c3C([H])([H])C([H])([H])C1([H])[H])C2([H])[H]

>  <smiles>  (50) 
[H]C(=C(C([H])([H])N([H])C(=O)N1C([H])([H])C([H])([H])C([H])([H])C([H])(n2nc(-c3c([H])c([H])c(Oc4c([H])c([H])c(F)c([H])c4F)c([H])c3[H])c(C(=O)N([H])[H])c2N([H])[H])C1([H])[H])C([H])([H])C([H])([H])[N+]([H])([H])[H])C([H])([H])C1([H])C([H])([H])C1([H])[N+]([H])(C([H])([H])[H])C([H])([H])C([H])([H])C([H])([H])Oc1c([H])c([H])c2c(c1[H])C([H])([H])N(C(=O)C([H])(N([H])C(=O)C([H])(N([H])C([H])([H])[H])C([H])([H])[H])C(C([H])([H])[H])(C([H])([H])[H])C([H])([H])[H])C([H])(C(=O)N([H])C1([H])c3c([H])c([H])c([H])c([H])c3C([H])([H])C([H])([H])C1([H])[H])C2([H])[H]

$$$$
52:0:0
     RDKit          3D

 92100  0  0  1  0  0  0  0  0999 V2000
  -29.2390  -20.6420   20.7640 C   0  0  0  0  0  0  0  0  0  0  0  0
  -29.7400  -22.3770   22.3480 C   0  0  0  0  0  0  0  0  0  0  0  0
  -29.5440  -20.8730   22.2240 C   0  0  0  0  0  2  0  0  0  0  0  0
  -28.9440  -22.0080   20.1070 C   0  0  0  0  0  2  0  0  0  0  0  0
  -29.4520  -23.1520   21.0460 C   0  0  0  0  0  3  0  0  0  0  0  0
  -29.2250  -19.4970   20.1600 N   0  0  0  0  0  0  0  0  0  0  0  0
  -30.1880  -22.8800   23.3820 O   0  0  0  0  0  0  0  0  0  0  0  0
  -29.2580  -25.4450   22.2480 C   0  0  0  0  0  1  0  0  0  0  0  0
  -27.1670  -24.2670   21.5580 C   0  0  0  0  0  1  0  0  0  0  0  0
  -28.6370  -24.5350   21.1540 C   0  0  2  0  0  0  0  0  0  0  0  0
  -28.6810  -25.3700   19.8120 C   0  0  0  0  0  2  0  0  0  0  0  0
  -28.6090  -26.8250   19.9200 O   0  0  0  0  0  0  0  0  0  0  0  0
  -24.6740  -31.7640   23.2480 C   0  0  0  0  0  0  0  0  0  0  0  0
  -27.4060  -27.5180   19.9330 C   0  0  0  0  0  0  0  0  0  0  0  0
  -23.4920  -30.4190   21.5390 C   0  0  0  0  0  3  0  0  0  0  0  0
  -24.9750  -28.9890   20.0290 C   0  0  0  0  0  0  0  0  0  0  0  0
  -26.0100  -30.8430   21.3510 C   0  0  0  0  0  2  0  0  0  0  0  0
  -26.1250  -29.5060   20.6360 C   0  0  0  0  0  0  0  0  0  0  0  0
  -27.3400  -28.7800   20.5810 C   0  0  0  0  0  3  0  0  0  0  0  0
  -26.2340  -27.0260   19.3170 C   0  0  0  0  0  3  0  0  0  0  0  0
  -25.0270  -27.7510   19.3650 C   0  0  0  0  0  3  0  0  0  0  0  0
  -23.7110  -29.8170   20.1250 C   0  0  0  0  0  2  0  0  0  0  0  0
  -24.7420  -31.0230   22.1050 N   0  0  0  0  0  0  0  0  0  0  0  0
  -23.5910  -31.9810   23.8080 O   0  0  0  0  0  0  0  0  0  0  0  0
  -22.8680  -29.3350   22.4510 C   0  0  0  0  0  0  0  0  0  0  0  0
  -21.5540  -29.1050   22.3000 N   0  0  0  0  0  0  0  0  0  0  0  0
  -23.5660  -28.7080   23.2520 O   0  0  0  0  0  0  0  0  0  0  0  0
  -21.0460  -29.6720   21.6350 H   0  0  0  0  0  0  0  0  0  0  0  0
  -18.2360  -27.7170   22.6700 C   0  0  0  0  0  0  0  0  0  0  0  0
  -20.7690  -28.1010   23.0210 C   0  0  0  0  0  3  0  0  0  0  0  0
  -20.9610  -26.6950   22.4080 C   0  0  0  0  0  2  0  0  0  0  0  0
  -19.9070  -26.3470   21.3530 C   0  0  0  0  0  2  0  0  0  0  0  0
  -18.5030  -26.3990   21.9610 C   0  0  0  0  0  2  0  0  0  0  0  0
  -19.3010  -28.5240   23.1530 C   0  0  0  0  0  0  0  0  0  0  0  0
  -18.9990  -29.7560   23.7720 C   0  0  0  0  0  3  0  0  0  0  0  0
  -17.6650  -30.1860   23.9080 C   0  0  0  0  0  3  0  0  0  0  0  0
  -16.6160  -29.3770   23.4410 C   0  0  0  0  0  3  0  0  0  0  0  0
  -16.9010  -28.1440   22.8300 C   0  0  0  0  0  3  0  0  0  0  0  0
  -25.9470  -32.3940   23.8950 C   0  0  0  0  0  3  0  0  0  0  0  0
  -26.4810  -31.5820   25.1380 C   0  0  1  0  0  0  0  0  0  0  0  0
  -25.3990  -31.2820   26.1990 C   0  0  0  0  0  1  0  0  0  0  0  0
  -27.0880  -30.2320   24.6890 C   0  0  0  0  0  1  0  0  0  0  0  0
  -27.6180  -32.3700   25.8300 C   0  0  0  0  0  1  0  0  0  0  0  0
  -25.6110  -33.7730   24.2810 N   0  0  0  0  0  0  0  0  0  0  0  0
  -25.9200  -34.8600   23.5640 C   0  0  0  0  0  0  0  0  0  0  0  0
  -26.5920  -34.8130   22.5290 O   0  0  0  0  0  0  0  0  0  0  0  0
  -25.0140  -33.8820   25.0870 H   0  0  0  0  0  0  0  0  0  0  0  0
  -24.1570  -36.6330   23.2790 C   0  0  0  0  0  1  0  0  0  0  0  0
  -25.4060  -36.2200   24.0760 C   0  0  0  0  0  3  0  0  0  0  0  0
  -27.5210  -37.1190   24.9430 C   0  0  0  0  0  1  0  0  0  0  0  0
  -26.4170  -37.2970   24.0030 N   0  0  0  0  0  0  0  0  0  0  0  0
  -25.9920  -38.2030   24.1810 H   0  0  0  0  0  0  0  0  0  0  0  0
  -29.4040  -18.2200   20.8930 C   0  0  0  0  0  2  0  0  0  0  0  0
  -30.1760  -17.1420   20.0580 C   0  0  0  0  0  2  0  0  0  0  0  0
  -30.7160  -14.6740   20.0980 C   0  0  0  0  0  0  0  0  0  0  0  0
  -30.4250  -12.4730   19.0260 C   0  0  0  0  0  2  0  0  0  0  0  0
  -29.4290  -12.6450   17.8590 C   0  0  0  0  0  2  0  0  0  0  0  0
  -27.9750  -12.4930   18.3510 C   0  0  0  0  0  2  0  0  0  0  0  0
  -27.6810  -13.3410   19.6170 C   0  0  0  0  0  3  0  0  0  0  0  0
  -28.7860  -13.1540   20.6820 C   0  0  0  0  0  2  0  0  0  0  0  0
  -30.0780  -13.4690   20.0550 N   0  0  0  0  0  0  0  0  0  0  0  0
  -31.8400  -14.8430   19.6170 O   0  0  0  0  0  0  0  0  0  0  0  0
  -29.9540  -15.7310   20.4760 N   0  0  0  0  0  0  0  0  0  0  0  0
  -29.0510  -15.5050   20.8620 H   0  0  0  0  0  0  0  0  0  0  0  0
  -25.3260  -13.9460   20.4590 C   0  0  0  0  0  0  0  0  0  0  0  0
  -24.2730  -13.1720   20.8680 C   0  0  0  0  0  0  0  0  0  0  0  0
  -24.7240  -11.8190   20.7880 C   0  0  0  0  0  0  0  0  0  0  0  0
  -26.3520  -13.0640   20.1580 N   0  0  0  0  0  0  0  0  0  0  0  0
  -25.9970  -11.7790   20.4130 N   0  0  0  0  0  0  0  0  0  0  0  0
  -23.9980  -10.5570   20.9900 C   0  0  0  0  0  0  0  0  0  0  0  0
  -24.4510   -9.5870   21.9100 C   0  0  0  0  0  3  0  0  0  0  0  0
  -23.7290   -8.3890   22.0990 C   0  0  0  0  0  3  0  0  0  0  0  0
  -22.5400   -8.1540   21.3680 C   0  0  0  0  0  0  0  0  0  0  0  0
  -22.1060   -9.1140   20.4370 C   0  0  0  0  0  3  0  0  0  0  0  0
  -22.8290  -10.3040   20.2460 C   0  0  0  0  0  3  0  0  0  0  0  0
  -21.7870   -7.0080   21.4670 O   0  0  0  0  0  0  0  0  0  0  0  0
  -21.7450   -6.2720   22.6250 C   0  0  0  0  0  0  0  0  0  0  0  0
  -21.3050   -6.8290   23.8450 C   0  0  0  0  0  3  0  0  0  0  0  0
  -21.2120   -6.0190   24.9940 C   0  0  0  0  0  3  0  0  0  0  0  0
  -21.5490   -4.6530   24.9240 C   0  0  0  0  0  0  0  0  0  0  0  0
  -21.9810   -4.0970   23.7080 C   0  0  0  0  0  3  0  0  0  0  0  0
  -22.0770   -4.9040   22.5610 C   0  0  0  0  0  0  0  0  0  0  0  0
  -22.4750   -4.3580   21.3870 F   0  0  0  0  0  0  0  0  0  0  0  0
  -21.4510   -3.8730   26.0260 F   0  0  0  0  0  0  0  0  0  0  0  0
  -22.8950  -13.6520   21.2210 C   0  0  0  0  0  0  0  0  0  0  0  0
  -22.2060  -12.9450   22.1090 N   0  0  0  0  0  0  0  0  0  0  0  0
  -22.4370  -14.6910   20.7430 O   0  0  0  0  0  0  0  0  0  0  0  0
  -22.5870  -12.1050   22.5190 H   0  0  0  0  0  0  0  0  0  0  0  0
  -21.2840  -13.2490   22.3860 H   0  0  0  0  0  0  0  0  0  0  0  0
  -25.4870  -15.3190   20.3010 N   0  0  0  0  0  0  0  0  0  0  0  0
  -24.7230  -15.9680   20.4500 H   0  0  0  0  0  0  0  0  0  0  0  0
  -26.3090  -15.7630   19.9100 H   0  0  0  0  0  0  0  0  0  0  0  0
  1  3  1  0
  2  7  2  0
  3  2  1  0
  4  1  1  0
  4  5  1  0
  5 10  1  0
  5  2  1  0
  6  1  2  0
  6 53  1  0
 10  9  1  1
 10  8  1  0
 11 12  1  0
 11 10  1  0
 12 14  1  0
 13 24  2  0
 14 19  1  0
 15 23  1  0
 15 25  1  0
 16 22  1  0
 16 18  1  0
 17 23  1  0
 18 17  1  0
 19 18  2  0
 20 21  1  0
 20 14  2  0
 21 16  2  0
 22 15  1  0
 23 13  1  0
 25 27  2  0
 26 25  1  0
 28 26  1  0
 29 38  2  0
 29 34  1  0
 30 26  1  0
 30 34  1  0
 31 30  1  0
 32 33  1  0
 32 31  1  0
 33 29  1  0
 34 35  2  0
 35 36  1  0
 37 36  2  0
 38 37  1  0
 39 13  1  0
 39 44  1  0
 39 40  1  0
 40 43  1  1
 40 41  1  0
 42 40  1  0
 44 47  1  0
 45 49  1  0
 45 44  1  0
 46 45  2  0
 49 48  1  0
 51 49  1  0
 51 52  1  0
 51 50  1  0
 54 63  1  0
 54 53  1  0
 55 63  1  0
 56 61  1  0
 57 58  1  0
 57 56  1  0
 59 58  1  0
 59 68  1  0
 59 60  1  0
 61 55  1  0
 61 60  1  0
 62 55  2  0
 63 64  1  0
 65 66  2  0
 66 85  1  0
 67 66  1  0
 67 70  1  0
 68 69  1  0
 68 65  1  0
 69 67  2  0
 70 71  1  0
 71 72  2  0
 73 76  1  0
 73 72  1  0
 74 73  2  0
 75 74  1  0
 75 70  2  0
 76 77  1  0
 77 78  1  0
 78 79  2  0
 80 79  1  0
 80 84  1  0
 81 80  2  0
 82 77  2  0
 82 81  1  0
 83 82  1  0
 85 86  1  0
 86 89  1  0
 86 88  1  0
 87 85  2  0
 90 91  1  0
 90 65  1  0
 92 90  1  0
M  ISO  4  11 101  12 101  55 100  63 100
M  END
>  <TORSDO>  (51) 
F 20

>  <SCORE>  (51) 
-13.529

>  <name>  (51) 
52

>  <ligand_id>  (51) 
52

>  <original_smiles>  (51) 
[H]c1c([H])c([H])c2c(c1[H])C([H])([H])C([H])([H])C([H])([H])C2([H])N([H])C(=O)C1([H])N(C(=O)C([H])(N([H])C(=O)C([H])(N([H])C([H])([H])[H])C([H])([H])[H])C(C([H])([H])[H])(C([H])([H])[H])C([H])([H])[H])C([H])([H])c2c([H])c(OC([H])([H])C(C([H])([H])[H])(C([H])([H])[H])C3([H])C(=O)C([H])([H])C(=NC([H])([H])C([H])([H])N([H])C(=O)N4C([H])([H])C([H])([H])C([H])([H])C([H])(n5nc(-c6c([H])c([H])c(Oc7c([H])c([H])c(F)c([H])c7F)c([H])c6[H])c(C(=O)N([H])[H])c5N([H])[H])C4([H])[H])C3([H])[H])c([H])c([H])c2C1([H])[H]

>  <smiles>  (51) 
[H]c1c([H])c([H])c2c(c1[H])C([H])([H])C([H])([H])C([H])([H])C2([H])N([H])C(=O)C1([H])N(C(=O)C([H])(N([H])C(=O)C([H])(N([H])C([H])([H])[H])C([H])([H])[H])C(C([H])([H])[H])(C([H])([H])[H])C([H])([H])[H])C([H])([H])c2c([H])c(OC([H])([H])C(C([H])([H])[H])(C([H])([H])[H])C3([H])C(=O)C([H])([H])C(=NC([H])([H])C([H])([H])N([H])C(=O)N4C([H])([H])C([H])([H])C([H])([H])C([H])(n5nc(-c6c([H])c([H])c(Oc7c([H])c([H])c(F)c([H])c7F)c([H])c6[H])c(C(=O)N([H])[H])c5N([H])[H])C4([H])[H])C3([H])[H])c([H])c([H])c2C1([H])[H]

$$$$
53:0:0
     RDKit          3D

 90 98  0  0  1  0  0  0  0  0999 V2000
  -29.5990  -20.6510   20.2680 C   0  0  0  0  0  2  0  0  0  0  0  0
  -29.1810  -19.0520   20.4570 C   0  0  0  0  0  0  0  0  0  0  0  0
  -28.0230  -18.7610   20.8730 N   0  0  0  0  0  0  0  0  0  0  0  0
  -27.8990  -17.7590   20.9600 H   0  0  0  0  0  0  0  0  0  0  0  0
  -30.5590  -15.0610   20.2440 C   0  0  0  0  0  0  0  0  0  0  0  0
  -30.4270  -12.7050   19.3580 C   0  0  0  0  0  2  0  0  0  0  0  0
  -29.4970  -12.6320   18.1260 C   0  0  0  0  0  2  0  0  0  0  0  0
  -28.0280  -12.4550   18.5570 C   0  0  0  0  0  2  0  0  0  0  0  0
  -27.6190  -13.4000   19.7180 C   0  0  0  0  0  3  0  0  0  0  0  0
  -28.6730  -13.4400   20.8430 C   0  0  0  0  0  2  0  0  0  0  0  0
  -29.9470  -13.8150   20.2220 N   0  0  0  0  0  0  0  0  0  0  0  0
  -31.7800  -15.1110   20.0720 O   0  0  0  0  0  0  0  0  0  0  0  0
  -30.2550  -17.6620   18.6260 C   0  0  0  0  0  0  0  0  0  0  0  0
  -29.2990  -16.4700   18.7280 C   0  0  0  0  0  2  0  0  0  0  0  0
  -30.1940  -17.7850   20.1450 C   0  0  0  0  0  3  0  0  0  0  0  0
  -29.7780  -16.2460   20.1190 N   0  0  0  0  0  0  0  0  0  0  0  0
  -30.8290  -18.2550   17.7080 O   0  0  0  0  0  0  0  0  0  0  0  0
  -25.2390  -13.9840   20.4610 C   0  0  0  0  0  0  0  0  0  0  0  0
  -24.1740  -13.2090   20.8270 C   0  0  0  0  0  0  0  0  0  0  0  0
  -24.6380  -11.8580   20.8000 C   0  0  0  0  0  0  0  0  0  0  0  0
  -26.2820  -13.1050   20.2220 N   0  0  0  0  0  0  0  0  0  0  0  0
  -25.9300  -11.8230   20.4940 N   0  0  0  0  0  0  0  0  0  0  0  0
  -23.9120  -10.5970   20.9880 C   0  0  0  0  0  0  0  0  0  0  0  0
  -24.3310   -9.6370   21.9360 C   0  0  0  0  0  3  0  0  0  0  0  0
  -23.6030   -8.4400   22.1120 C   0  0  0  0  0  3  0  0  0  0  0  0
  -22.4440   -8.1930   21.3400 C   0  0  0  0  0  0  0  0  0  0  0  0
  -22.0430   -9.1420   20.3810 C   0  0  0  0  0  3  0  0  0  0  0  0
  -22.7710  -10.3300   20.2040 C   0  0  0  0  0  3  0  0  0  0  0  0
  -21.6890   -7.0480   21.4260 O   0  0  0  0  0  0  0  0  0  0  0  0
  -21.6080   -6.3250   22.5890 C   0  0  0  0  0  0  0  0  0  0  0  0
  -21.1020   -6.8860   23.7830 C   0  0  0  0  0  3  0  0  0  0  0  0
  -20.9710   -6.0870   24.9350 C   0  0  0  0  0  3  0  0  0  0  0  0
  -21.3350   -4.7270   24.8960 C   0  0  0  0  0  0  0  0  0  0  0  0
  -21.8350   -4.1670   23.7080 C   0  0  0  0  0  3  0  0  0  0  0  0
  -21.9680   -4.9630   22.5570 C   0  0  0  0  0  0  0  0  0  0  0  0
  -22.4290   -4.4110   21.4090 F   0  0  0  0  0  0  0  0  0  0  0  0
  -21.2020   -3.9580   26.0010 F   0  0  0  0  0  0  0  0  0  0  0  0
  -22.7750  -13.6870   21.0910 C   0  0  0  0  0  0  0  0  0  0  0  0
  -22.0480  -13.0000   21.9650 N   0  0  0  0  0  0  0  0  0  0  0  0
  -22.3360  -14.7050   20.5590 O   0  0  0  0  0  0  0  0  0  0  0  0
  -22.4150  -12.1760   22.4180 H   0  0  0  0  0  0  0  0  0  0  0  0
  -21.1100  -13.3030   22.1840 H   0  0  0  0  0  0  0  0  0  0  0  0
  -25.4050  -15.3550   20.2840 N   0  0  0  0  0  0  0  0  0  0  0  0
  -24.6420  -16.0120   20.4060 H   0  0  0  0  0  0  0  0  0  0  0  0
  -26.2640  -15.7960   19.9870 H   0  0  0  0  0  0  0  0  0  0  0  0
  -28.0200  -22.0010   21.8830 C   0  0  0  0  0  1  0  0  0  0  0  0
  -28.5740  -21.9740   20.4450 C   0  0  0  0  0  3  0  0  0  0  0  0
  -29.0100  -23.5580   20.0930 C   0  0  0  0  0  3  0  0  0  0  0  0
  -27.9380  -24.8380   19.9930 C   0  0  0  0  0  3  0  0  0  0  0  0
  -28.2440  -26.3540   19.9920 O   0  0  0  0  0  0  0  0  0  0  0  0
  -24.6890  -31.9070   23.2420 C   0  0  0  0  0  0  0  0  0  0  0  0
  -27.1760  -27.3160   19.9960 C   0  0  0  0  0  0  0  0  0  0  0  0
  -23.4380  -30.5590   21.6010 C   0  0  0  0  0  3  0  0  0  0  0  0
  -24.8420  -29.0360   20.0880 C   0  0  0  0  0  0  0  0  0  0  0  0
  -25.9840  -30.8420   21.3620 C   0  0  0  0  0  2  0  0  0  0  0  0
  -26.0380  -29.4730   20.6700 C   0  0  0  0  0  0  0  0  0  0  0  0
  -27.2080  -28.6290   20.6070 C   0  0  0  0  0  3  0  0  0  0  0  0
  -25.9500  -26.9770   19.3800 C   0  0  0  0  0  3  0  0  0  0  0  0
  -24.8080  -27.8010   19.4280 C   0  0  0  0  0  3  0  0  0  0  0  0
  -23.6150  -29.9270   20.1970 C   0  0  0  0  0  2  0  0  0  0  0  0
  -24.7250  -31.1220   22.1230 N   0  0  0  0  0  0  0  0  0  0  0  0
  -23.6190  -32.1730   23.8120 O   0  0  0  0  0  0  0  0  0  0  0  0
  -22.7930  -29.5210   22.5510 C   0  0  0  0  0  0  0  0  0  0  0  0
  -21.4670  -29.3280   22.4390 N   0  0  0  0  0  0  0  0  0  0  0  0
  -23.4870  -28.8900   23.3530 O   0  0  0  0  0  0  0  0  0  0  0  0
  -20.9630  -29.8900   21.7670 H   0  0  0  0  0  0  0  0  0  0  0  0
  -18.1140  -28.0570   22.9510 C   0  0  0  0  0  0  0  0  0  0  0  0
  -20.6700  -28.3640   23.2010 C   0  0  0  0  0  3  0  0  0  0  0  0
  -20.7950  -26.9430   22.6040 C   0  0  0  0  0  2  0  0  0  0  0  0
  -19.6890  -26.6090   21.5980 C   0  0  0  0  0  2  0  0  0  0  0  0
  -18.3110  -26.7190   22.2560 C   0  0  0  0  0  2  0  0  0  0  0  0
  -19.2210  -28.8340   23.3810 C   0  0  0  0  0  0  0  0  0  0  0  0
  -18.9830  -30.0820   23.9970 C   0  0  0  0  0  3  0  0  0  0  0  0
  -17.6690  -30.5540   24.1810 C   0  0  0  0  0  3  0  0  0  0  0  0
  -16.5760  -29.7740   23.7640 C   0  0  0  0  0  3  0  0  0  0  0  0
  -16.8000  -28.5280   23.1540 C   0  0  0  0  0  3  0  0  0  0  0  0
  -25.9860  -32.5250   23.8470 C   0  0  0  0  0  3  0  0  0  0  0  0
  -26.5170  -31.7370   25.1080 C   0  0  1  0  0  0  0  0  0  0  0  0
  -25.4410  -31.4990   26.1930 C   0  0  0  0  0  1  0  0  0  0  0  0
  -27.0800  -30.3570   24.6970 C   0  0  0  0  0  1  0  0  0  0  0  0
  -27.6870  -32.5150   25.7560 C   0  0  0  0  0  1  0  0  0  0  0  0
  -25.6920  -33.9220   24.2010 N   0  0  0  0  0  0  0  0  0  0  0  0
  -25.9850  -34.9810   23.4340 C   0  0  0  0  0  0  0  0  0  0  0  0
  -26.5980  -34.8850   22.3690 O   0  0  0  0  0  0  0  0  0  0  0  0
  -25.1420  -34.0700   25.0350 H   0  0  0  0  0  0  0  0  0  0  0  0
  -24.2320  -36.7720   23.2040 C   0  0  0  0  0  1  0  0  0  0  0  0
  -25.5260  -36.3670   23.9290 C   0  0  0  0  0  3  0  0  0  0  0  0
  -27.7040  -37.2640   24.6260 C   0  0  0  0  0  1  0  0  0  0  0  0
  -26.5470  -37.4240   23.7500 N   0  0  0  0  0  0  0  0  0  0  0  0
  -26.1470  -38.3430   23.9180 H   0  0  0  0  0  0  0  0  0  0  0  0
  1 47  1  0
  1  2  1  0
  2  3  2  0
  3  4  1  0
  6 11  1  0
  7  8  1  0
  7  6  1  0
  9  8  1  0
  9 21  1  0
  9 10  1  0
 11  5  1  0
 11 10  1  0
 12  5  2  0
 13 14  1  0
 13 15  1  0
 14 16  1  0
 15  2  1  0
 16 15  1  0
 16  5  1  0
 17 13  2  0
 18 19  2  0
 19 38  1  0
 20 19  1  0
 20 23  1  0
 21 18  1  0
 21 22  1  0
 22 20  2  0
 23 24  1  0
 24 25  2  0
 26 29  1  0
 26 25  1  0
 27 26  2  0
 28 27  1  0
 28 23  2  0
 29 30  1  0
 30 31  1  0
 31 32  2  0
 33 32  1  0
 33 37  1  0
 34 33  2  0
 35 30  2  0
 35 34  1  0
 36 35  1  0
 38 39  1  0
 39 42  1  0
 39 41  1  0
 40 38  2  0
 43 44  1  0
 43 18  1  0
 45 43  1  0
 47 46  1  0
 48 47  1  0
 49 48  2  0
 50 49  1  0
 50 52  1  0
 51 62  2  0
 52 57  1  0
 53 61  1  0
 53 63  1  0
 54 60  1  0
 54 56  1  0
 55 61  1  0
 56 55  1  0
 57 56  2  0
 58 59  1  0
 58 52  2  0
 59 54  2  0
 60 53  1  0
 61 51  1  0
 63 65  2  0
 64 63  1  0
 66 64  1  0
 67 76  2  0
 67 72  1  0
 68 64  1  0
 68 72  1  0
 69 68  1  0
 70 71  1  0
 70 69  1  0
 71 67  1  0
 72 73  2  0
 73 74  1  0
 75 74  2  0
 76 75  1  0
 77 51  1  0
 77 82  1  0
 77 78  1  0
 78 81  1  1
 78 79  1  0
 80 78  1  0
 82 85  1  0
 83 87  1  0
 83 82  1  0
 84 83  2  0
 87 86  1  0
 89 90  1  0
 89 87  1  0
 89 88  1  0
M  ISO  4   5 100  16 100  49 101  50 101
M  END
>  <TORSDO>  (52) 
F 20

>  <SCORE>  (52) 
-13.646

>  <name>  (52) 
53

>  <ligand_id>  (52) 
53

>  <original_smiles>  (52) 
[H]N=C(C1([H])C(=O)C([H])([H])N1C(=O)N1C([H])([H])C([H])([H])C([H])([H])C([H])(n2nc(-c3c([H])c([H])c(Oc4c([H])c([H])c(F)c([H])c4F)c([H])c3[H])c(C(=O)N([H])[H])c2N([H])[H])C1([H])[H])C([H])([H])C([H])(C([H])([H])[H])C([H])([H])C([H])([H])Oc1c([H])c([H])c2c(c1[H])C([H])([H])N(C(=O)C([H])(N([H])C(=O)C([H])(N([H])C([H])([H])[H])C([H])([H])[H])C(C([H])([H])[H])(C([H])([H])[H])C([H])([H])[H])C([H])(C(=O)N([H])C1([H])c3c([H])c([H])c([H])c([H])c3C([H])([H])C([H])([H])C1([H])[H])C2([H])[H]

>  <smiles>  (52) 
[H]N=C(C1([H])C(=O)C([H])([H])N1C(=O)N1C([H])([H])C([H])([H])C([H])([H])C([H])(n2nc(-c3c([H])c([H])c(Oc4c([H])c([H])c(F)c([H])c4F)c([H])c3[H])c(C(=O)N([H])[H])c2N([H])[H])C1([H])[H])C([H])([H])C([H])(C([H])([H])[H])C([H])([H])C([H])([H])Oc1c([H])c([H])c2c(c1[H])C([H])([H])N(C(=O)C([H])(N([H])C(=O)C([H])(N([H])C([H])([H])[H])C([H])([H])[H])C(C([H])([H])[H])(C([H])([H])[H])C([H])([H])[H])C([H])(C(=O)N([H])C1([H])c3c([H])c([H])c([H])c([H])c3C([H])([H])C([H])([H])C1([H])[H])C2([H])[H]

$$$$
54:0:0
     RDKit          3D

 93101  0  0  1  0  0  0  0  0999 V2000
  -27.1010  -22.8730   17.6210 C   0  0  0  0  0  3  0  0  0  0  0  0
  -27.9030  -21.9480   18.3130 C   0  0  0  0  0  3  0  0  0  0  0  0
  -27.4030  -24.2460   17.6690 C   0  0  0  0  0  3  0  0  0  0  0  0
  -29.3300  -23.7680   19.0860 C   0  0  0  0  0  3  0  0  0  0  0  0
  -29.0270  -22.3810   19.0490 C   0  0  0  0  0  0  0  0  0  0  0  0
  -28.5040  -24.7060   18.4210 C   0  0  0  0  0  0  0  0  0  0  0  0
  -29.9160  -21.3850   19.7220 C   0  0  0  0  0  0  0  0  0  0  0  0
  -31.1490  -21.4420   19.6640 O   0  0  0  0  0  0  0  0  0  0  0  0
  -29.7370  -20.4330   22.0610 C   0  0  0  0  0  1  0  0  0  0  0  0
  -29.2390  -20.3150   20.6070 C   0  0  0  0  0  3  0  0  0  0  0  0
  -29.5160  -17.7890   20.8090 C   0  0  0  0  0  3  0  0  0  0  0  0
  -29.3760  -18.8990   20.0360 C   0  0  0  0  0  3  0  0  0  0  0  0
  -29.7630  -16.2810   20.9940 C   0  0  0  0  0  2  0  0  0  0  0  0
  -31.3950  -14.5150   20.0780 C   0  0  0  0  0  0  0  0  0  0  0  0
  -30.9240  -12.3780   18.9660 C   0  0  0  0  0  2  0  0  0  0  0  0
  -29.9730  -12.6290   17.7770 C   0  0  0  0  0  2  0  0  0  0  0  0
  -28.5020  -12.5770   18.2310 C   0  0  0  0  0  2  0  0  0  0  0  0
  -28.2390  -13.4450   19.4900 C   0  0  0  0  0  3  0  0  0  0  0  0
  -29.3020  -13.1650   20.5810 C   0  0  0  0  0  2  0  0  0  0  0  0
  -30.6200  -13.4000   19.9780 N   0  0  0  0  0  0  0  0  0  0  0  0
  -32.5660  -14.5400   19.6990 O   0  0  0  0  0  0  0  0  0  0  0  0
  -30.7800  -15.7100   20.0970 N   0  0  0  0  0  0  0  0  0  0  0  0
  -31.3930  -16.4130   19.7120 H   0  0  0  0  0  0  0  0  0  0  0  0
  -25.9040  -14.2190   20.2510 C   0  0  0  0  0  0  0  0  0  0  0  0
  -24.7920  -13.5180   20.6360 C   0  0  0  0  0  0  0  0  0  0  0  0
  -25.1600  -12.1390   20.5910 C   0  0  0  0  0  0  0  0  0  0  0  0
  -26.8820  -13.2690   19.9970 N   0  0  0  0  0  0  0  0  0  0  0  0
  -26.4400  -12.0140   20.2620 N   0  0  0  0  0  0  0  0  0  0  0  0
  -24.3550  -10.9270   20.7880 C   0  0  0  0  0  0  0  0  0  0  0  0
  -24.7290   -9.9390   21.7240 C   0  0  0  0  0  3  0  0  0  0  0  0
  -23.9310   -8.7880   21.9050 C   0  0  0  0  0  3  0  0  0  0  0  0
  -22.7460   -8.6210   21.1500 C   0  0  0  0  0  0  0  0  0  0  0  0
  -22.3920   -9.5960   20.2020 C   0  0  0  0  0  3  0  0  0  0  0  0
  -23.1900  -10.7380   20.0180 C   0  0  0  0  0  3  0  0  0  0  0  0
  -21.9220   -7.5270   21.2440 O   0  0  0  0  0  0  0  0  0  0  0  0
  -21.7970   -6.8160   22.4110 C   0  0  0  0  0  0  0  0  0  0  0  0
  -21.4000   -7.4300   23.6180 C   0  0  0  0  0  3  0  0  0  0  0  0
  -21.2130   -6.6500   24.7770 C   0  0  0  0  0  3  0  0  0  0  0  0
  -21.4190   -5.2580   24.7310 C   0  0  0  0  0  0  0  0  0  0  0  0
  -21.8100   -4.6430   23.5290 C   0  0  0  0  0  3  0  0  0  0  0  0
  -21.9970   -5.4200   22.3720 C   0  0  0  0  0  0  0  0  0  0  0  0
  -22.3540   -4.8200   21.2100 F   0  0  0  0  0  0  0  0  0  0  0  0
  -21.2330   -4.5080   25.8420 F   0  0  0  0  0  0  0  0  0  0  0  0
  -23.4340  -14.0870   20.9320 C   0  0  0  0  0  0  0  0  0  0  0  0
  -22.6860  -13.4520   21.8280 N   0  0  0  0  0  0  0  0  0  0  0  0
  -23.0460  -15.1270   20.4020 O   0  0  0  0  0  0  0  0  0  0  0  0
  -23.0100  -12.6080   22.2780 H   0  0  0  0  0  0  0  0  0  0  0  0
  -21.7750  -13.8150   22.0680 H   0  0  0  0  0  0  0  0  0  0  0  0
  -26.1550  -15.5770   20.0740 N   0  0  0  0  0  0  0  0  0  0  0  0
  -25.4420  -16.2850   20.2120 H   0  0  0  0  0  0  0  0  0  0  0  0
  -27.0180  -15.9560   19.7080 H   0  0  0  0  0  0  0  0  0  0  0  0
  -28.8300  -26.1990   18.4450 C   0  0  0  0  0  2  0  0  0  0  0  0
  -28.5110  -26.8750   19.6680 O   0  0  0  0  0  0  0  0  0  0  0  0
  -24.7050  -31.7870   23.1540 C   0  0  0  0  0  0  0  0  0  0  0  0
  -27.3150  -27.5570   19.7460 C   0  0  0  0  0  0  0  0  0  0  0  0
  -23.4700  -30.4690   21.4640 C   0  0  0  0  0  3  0  0  0  0  0  0
  -24.8980  -29.0210   19.9250 C   0  0  0  0  0  0  0  0  0  0  0  0
  -25.9880  -30.8520   21.2330 C   0  0  0  0  0  2  0  0  0  0  0  0
  -26.0630  -29.5190   20.5190 C   0  0  0  0  0  0  0  0  0  0  0  0
  -27.2690  -28.7880   20.4410 C   0  0  0  0  0  3  0  0  0  0  0  0
  -26.1220  -27.0610   19.1730 C   0  0  0  0  0  3  0  0  0  0  0  0
  -24.9180  -27.7840   19.2600 C   0  0  0  0  0  3  0  0  0  0  0  0
  -23.6490  -29.8640   20.0470 C   0  0  0  0  0  2  0  0  0  0  0  0
  -24.7400  -31.0490   22.0080 N   0  0  0  0  0  0  0  0  0  0  0  0
  -23.6350  -32.0240   23.7320 O   0  0  0  0  0  0  0  0  0  0  0  0
  -22.8480  -29.3940   22.3830 C   0  0  0  0  0  0  0  0  0  0  0  0
  -21.5260  -29.1950   22.2570 N   0  0  0  0  0  0  0  0  0  0  0  0
  -23.5520  -28.7430   23.1590 O   0  0  0  0  0  0  0  0  0  0  0  0
  -21.0190  -29.7720   21.6010 H   0  0  0  0  0  0  0  0  0  0  0  0
  -18.1910  -27.8750   22.6770 C   0  0  0  0  0  0  0  0  0  0  0  0
  -20.7340  -28.2060   22.9830 C   0  0  0  0  0  3  0  0  0  0  0  0
  -20.8890  -26.8020   22.3580 C   0  0  0  0  0  2  0  0  0  0  0  0
  -19.8100  -26.4790   21.3220 C   0  0  0  0  0  2  0  0  0  0  0  0
  -18.4200  -26.5560   21.9600 C   0  0  0  0  0  2  0  0  0  0  0  0
  -19.2790  -28.6580   23.1420 C   0  0  0  0  0  0  0  0  0  0  0  0
  -19.0120  -29.8950   23.7700 C   0  0  0  0  0  3  0  0  0  0  0  0
  -17.6910  -30.3510   23.9330 C   0  0  0  0  0  3  0  0  0  0  0  0
  -16.6180  -29.5630   23.4840 C   0  0  0  0  0  3  0  0  0  0  0  0
  -16.8680  -28.3260   22.8630 C   0  0  0  0  0  3  0  0  0  0  0  0
  -26.0020  -32.3890   23.7800 C   0  0  0  0  0  3  0  0  0  0  0  0
  -25.6960  -33.7650   24.1900 N   0  0  0  0  0  0  0  0  0  0  0  0
  -26.0070  -34.8580   23.4800 C   0  0  0  0  0  0  0  0  0  0  0  0
  -26.6560  -34.8150   22.4310 O   0  0  0  0  0  0  0  0  0  0  0  0
  -25.1210  -33.8750   25.0130 H   0  0  0  0  0  0  0  0  0  0  0  0
  -24.2600  -36.6520   23.2620 C   0  0  0  0  0  1  0  0  0  0  0  0
  -25.5240  -36.2170   24.0210 C   0  0  0  0  0  3  0  0  0  0  0  0
  -27.6750  -37.0740   24.8410 C   0  0  0  0  0  1  0  0  0  0  0  0
  -26.5480  -37.2820   23.9360 N   0  0  0  0  0  0  0  0  0  0  0  0
  -26.1390  -38.1900   24.1390 H   0  0  0  0  0  0  0  0  0  0  0  0
  -26.5570  -31.5520   24.9970 C   0  0  1  0  0  0  0  0  0  0  0  0
  -25.4960  -31.2530   26.0800 C   0  0  0  0  0  1  0  0  0  0  0  0
  -27.1310  -30.1980   24.5160 C   0  0  0  0  0  1  0  0  0  0  0  0
  -27.7260  -32.3120   25.6700 C   0  0  0  0  0  1  0  0  0  0  0  0
  1  3  2  0
  1  2  1  0
  2  5  2  0
  3  6  1  0
  5  4  1  0
  5  7  1  0
  6 52  1  0
  6  4  2  0
  7 10  1  0
  8  7  2  0
 10  9  1  0
 11 13  1  0
 12 10  1  0
 12 11  2  0
 14 22  1  0
 15 20  1  0
 16 17  1  0
 16 15  1  0
 18 17  1  0
 18 27  1  0
 18 19  1  0
 20 14  1  0
 20 19  1  0
 21 14  2  0
 22 13  1  0
 23 22  1  0
 24 25  2  0
 25 44  1  0
 26 25  1  0
 26 29  1  0
 27 24  1  0
 27 28  1  0
 28 26  2  0
 29 30  1  0
 30 31  2  0
 32 35  1  0
 32 31  1  0
 33 32  2  0
 34 33  1  0
 34 29  2  0
 35 36  1  0
 36 37  1  0
 37 38  2  0
 39 38  1  0
 39 43  1  0
 40 39  2  0
 41 36  2  0
 41 40  1  0
 42 41  1  0
 44 45  1  0
 45 48  1  0
 45 47  1  0
 46 44  2  0
 49 50  1  0
 49 24  1  0
 51 49  1  0
 52 53  1  0
 53 55  1  0
 54 65  2  0
 55 60  1  0
 56 64  1  0
 56 66  1  0
 57 63  1  0
 57 59  1  0
 58 64  1  0
 59 58  1  0
 60 59  2  0
 61 62  1  0
 61 55  2  0
 62 57  2  0
 63 56  1  0
 64 54  1  0
 66 68  2  0
 67 66  1  0
 69 67  1  0
 70 79  2  0
 70 75  1  0
 71 67  1  0
 71 75  1  0
 72 71  1  0
 73 74  1  0
 73 72  1  0
 74 70  1  0
 75 76  2  0
 76 77  1  0
 78 77  2  0
 79 78  1  0
 80 54  1  0
 80 81  1  0
 80 90  1  0
 81 84  1  0
 82 86  1  0
 82 81  1  0
 83 82  2  0
 86 85  1  0
 88 86  1  0
 88 89  1  0
 88 87  1  0
 90 93  1  1
 90 91  1  0
 92 90  1  0
M  ISO  4  14 100  22 100  52 101  53 101
M  END
>  <TORSDO>  (53) 
F 21

>  <SCORE>  (53) 
-12.343

>  <name>  (53) 
54

>  <ligand_id>  (53) 
54

>  <original_smiles>  (53) 
[H]C(=C([H])C([H])(C(=O)c1c([H])c([H])c([H])c(C([H])([H])Oc2c([H])c([H])c3c(c2[H])C([H])([H])N(C(=O)C([H])(N([H])C(=O)C([H])(N([H])C([H])([H])[H])C([H])([H])[H])C(C([H])([H])[H])(C([H])([H])[H])C([H])([H])[H])C([H])(C(=O)N([H])C2([H])c4c([H])c([H])c([H])c([H])c4C([H])([H])C([H])([H])C2([H])[H])C3([H])[H])c1[H])C([H])([H])[H])C([H])([H])N([H])C(=O)N1C([H])([H])C([H])([H])C([H])([H])C([H])(n2nc(-c3c([H])c([H])c(Oc4c([H])c([H])c(F)c([H])c4F)c([H])c3[H])c(C(=O)N([H])[H])c2N([H])[H])C1([H])[H]

>  <smiles>  (53) 
[H]C(=C([H])C([H])(C(=O)c1c([H])c([H])c([H])c(C([H])([H])Oc2c([H])c([H])c3c(c2[H])C([H])([H])N(C(=O)C([H])(N([H])C(=O)C([H])(N([H])C([H])([H])[H])C([H])([H])[H])C(C([H])([H])[H])(C([H])([H])[H])C([H])([H])[H])C([H])(C(=O)N([H])C2([H])c4c([H])c([H])c([H])c([H])c4C([H])([H])C([H])([H])C2([H])[H])C3([H])[H])c1[H])C([H])([H])[H])C([H])([H])N([H])C(=O)N1C([H])([H])C([H])([H])C([H])([H])C([H])(n2nc(-c3c([H])c([H])c(Oc4c([H])c([H])c(F)c([H])c4F)c([H])c3[H])c(C(=O)N([H])[H])c2N([H])[H])C1([H])[H]

$$$$
55:0:0
     RDKit          3D

 99108  0  0  1  0  0  0  0  0999 V2000
  -29.8520  -22.6080   18.9860 C   0  0  0  0  0  2  0  0  0  0  0  0
  -30.1960  -21.1040   18.9650 C   0  0  0  0  0  2  0  0  0  0  0  0
  -28.7870  -21.5480   20.8510 C   0  0  0  0  0  2  0  0  0  0  0  0
  -28.6380  -22.7650   19.9080 C   0  0  0  0  0  3  0  0  0  0  0  0
  -29.2300  -20.3650   19.9290 C   0  0  2  0  0  0  0  0  0  0  0  0
  -31.9880  -18.4650   21.8900 C   0  0  0  0  0  3  0  0  0  0  0  0
  -31.2000  -19.4940   21.3350 C   0  0  0  0  0  3  0  0  0  0  0  0
  -31.6010  -17.1200   21.7580 C   0  0  0  0  0  3  0  0  0  0  0  0
  -29.6050  -17.8380   20.5550 C   0  0  0  0  0  3  0  0  0  0  0  0
  -29.9960  -19.2090   20.6460 C   0  0  0  0  0  0  0  0  0  0  0  0
  -30.4090  -16.7930   21.0790 C   0  0  0  0  0  0  0  0  0  0  0  0
  -30.7070  -14.4010   20.4540 C   0  0  0  0  0  0  0  0  0  0  0  0
  -30.4120  -12.2180   19.3380 C   0  0  0  0  0  2  0  0  0  0  0  0
  -29.4760  -12.3960   18.1260 C   0  0  0  0  0  2  0  0  0  0  0  0
  -28.0000  -12.2640   18.5500 C   0  0  0  0  0  2  0  0  0  0  0  0
  -27.6550  -13.1260   19.7930 C   0  0  0  0  0  3  0  0  0  0  0  0
  -28.7040  -12.9360   20.9110 C   0  0  0  0  0  2  0  0  0  0  0  0
  -30.0310  -13.2260   20.3400 N   0  0  0  0  0  0  0  0  0  0  0  0
  -31.8400  -14.5610   19.9880 O   0  0  0  0  0  0  0  0  0  0  0  0
  -29.9900  -15.4320   20.9520 N   0  0  0  0  0  0  0  0  0  0  0  0
  -29.0210  -15.2310   21.1430 H   0  0  0  0  0  0  0  0  0  0  0  0
  -25.2650  -13.7650   20.5010 C   0  0  0  0  0  0  0  0  0  0  0  0
  -24.1860  -13.0090   20.8690 C   0  0  0  0  0  0  0  0  0  0  0  0
  -24.6280  -11.6510   20.8370 C   0  0  0  0  0  0  0  0  0  0  0  0
  -26.2990  -12.8690   20.2700 N   0  0  0  0  0  0  0  0  0  0  0  0
  -25.9170  -11.5930   20.5290 N   0  0  0  0  0  0  0  0  0  0  0  0
  -23.8850  -10.4000   21.0270 C   0  0  0  0  0  0  0  0  0  0  0  0
  -24.2990   -9.4320   21.9670 C   0  0  0  0  0  3  0  0  0  0  0  0
  -23.5600   -8.2430   22.1450 C   0  0  0  0  0  3  0  0  0  0  0  0
  -22.3920   -8.0120   21.3800 C   0  0  0  0  0  0  0  0  0  0  0  0
  -21.9970   -8.9690   20.4280 C   0  0  0  0  0  3  0  0  0  0  0  0
  -22.7360  -10.1490   20.2490 C   0  0  0  0  0  3  0  0  0  0  0  0
  -21.6260   -6.8750   21.4650 O   0  0  0  0  0  0  0  0  0  0  0  0
  -21.5500   -6.1420   22.6230 C   0  0  0  0  0  0  0  0  0  0  0  0
  -21.1120   -6.7130   23.8380 C   0  0  0  0  0  3  0  0  0  0  0  0
  -20.9810   -5.9080   24.9860 C   0  0  0  0  0  3  0  0  0  0  0  0
  -21.2800   -4.5340   24.9220 C   0  0  0  0  0  0  0  0  0  0  0  0
  -21.7110   -3.9630   23.7110 C   0  0  0  0  0  3  0  0  0  0  0  0
  -21.8430   -4.7650   22.5640 C   0  0  0  0  0  0  0  0  0  0  0  0
  -22.2390   -4.2050   21.3950 F   0  0  0  0  0  0  0  0  0  0  0  0
  -21.1480   -3.7590   26.0240 F   0  0  0  0  0  0  0  0  0  0  0  0
  -22.7970  -13.5060   21.1430 C   0  0  0  0  0  0  0  0  0  0  0  0
  -22.0600  -12.8180   22.0080 N   0  0  0  0  0  0  0  0  0  0  0  0
  -22.3750  -14.5390   20.6250 O   0  0  0  0  0  0  0  0  0  0  0  0
  -22.4180  -11.9840   22.4500 H   0  0  0  0  0  0  0  0  0  0  0  0
  -21.1250  -13.1310   22.2320 H   0  0  0  0  0  0  0  0  0  0  0  0
  -25.4490  -15.1320   20.3240 N   0  0  0  0  0  0  0  0  0  0  0  0
  -24.6580  -15.7610   20.3530 H   0  0  0  0  0  0  0  0  0  0  0  0
  -26.2900  -15.5480   19.9460 H   0  0  0  0  0  0  0  0  0  0  0  0
  -28.4900  -24.1710   20.5510 C   0  0  0  0  0  2  0  0  0  0  0  0
  -28.4130  -25.3110   19.4980 C   0  0  0  0  0  2  0  0  0  0  0  0
  -28.2760  -26.6190   20.0780 O   0  0  0  0  0  0  0  0  0  0  0  0
  -24.5510  -31.8130   23.1840 C   0  0  0  0  0  0  0  0  0  0  0  0
  -27.0750  -27.3110   20.0710 C   0  0  0  0  0  0  0  0  0  0  0  0
  -23.2940  -30.4310   21.5620 C   0  0  0  0  0  3  0  0  0  0  0  0
  -24.6970  -28.8650   20.1190 C   0  0  0  0  0  0  0  0  0  0  0  0
  -25.8210  -30.7470   21.3210 C   0  0  0  0  0  2  0  0  0  0  0  0
  -25.8720  -29.3710   20.6830 C   0  0  0  0  0  0  0  0  0  0  0  0
  -27.0580  -28.6030   20.6550 C   0  0  0  0  0  3  0  0  0  0  0  0
  -25.8690  -26.8140   19.5200 C   0  0  0  0  0  3  0  0  0  0  0  0
  -24.6900  -27.5850   19.5390 C   0  0  0  0  0  3  0  0  0  0  0  0
  -23.4690  -29.7450   20.1820 C   0  0  0  0  0  2  0  0  0  0  0  0
  -24.5750  -31.0110   22.0810 N   0  0  0  0  0  0  0  0  0  0  0  0
  -23.4850  -32.1010   23.7450 O   0  0  0  0  0  0  0  0  0  0  0  0
  -22.6400  -29.4240   22.5350 C   0  0  0  0  0  0  0  0  0  0  0  0
  -21.3120  -29.2620   22.4300 N   0  0  0  0  0  0  0  0  0  0  0  0
  -23.3270  -28.7880   23.3400 O   0  0  0  0  0  0  0  0  0  0  0  0
  -20.8200  -29.8250   21.7500 H   0  0  0  0  0  0  0  0  0  0  0  0
  -17.9300  -28.1110   22.9710 C   0  0  0  0  0  0  0  0  0  0  0  0
  -20.4930  -28.3390   23.2140 C   0  0  0  0  0  3  0  0  0  0  0  0
  -20.5720  -26.9030   22.6470 C   0  0  0  0  0  2  0  0  0  0  0  0
  -19.4550  -26.5870   21.6460 C   0  0  0  0  0  2  0  0  0  0  0  0
  -18.0820  -26.7550   22.3030 C   0  0  0  0  0  2  0  0  0  0  0  0
  -19.0620  -28.8610   23.3860 C   0  0  0  0  0  0  0  0  0  0  0  0
  -18.8650  -30.1310   23.9700 C   0  0  0  0  0  3  0  0  0  0  0  0
  -17.5690  -30.6520   24.1430 C   0  0  0  0  0  3  0  0  0  0  0  0
  -16.4510  -29.8990   23.7450 C   0  0  0  0  0  3  0  0  0  0  0  0
  -16.6320  -28.6290   23.1660 C   0  0  0  0  0  3  0  0  0  0  0  0
  -25.8590  -32.4240   23.7780 C   0  0  0  0  0  3  0  0  0  0  0  0
  -26.4050  -31.6250   25.0240 C   0  0  1  0  0  0  0  0  0  0  0  0
  -25.3440  -31.3760   26.1200 C   0  0  0  0  0  1  0  0  0  0  0  0
  -26.9670  -30.2510   24.5880 C   0  0  0  0  0  1  0  0  0  0  0  0
  -27.5810  -32.3970   25.6670 C   0  0  0  0  0  1  0  0  0  0  0  0
  -25.5700  -33.8170   24.1460 N   0  0  0  0  0  0  0  0  0  0  0  0
  -25.8960  -34.8810   23.4000 C   0  0  0  0  0  0  0  0  0  0  0  0
  -26.5410  -34.7920   22.3530 O   0  0  0  0  0  0  0  0  0  0  0  0
  -24.9970  -33.9590   24.9640 H   0  0  0  0  0  0  0  0  0  0  0  0
  -24.1780  -36.6960   23.1120 C   0  0  0  0  0  1  0  0  0  0  0  0
  -25.4280  -36.2650   23.8950 C   0  0  0  0  0  3  0  0  0  0  0  0
  -27.5870  -37.1090   24.7030 C   0  0  0  0  0  1  0  0  0  0  0  0
  -26.4700  -37.3090   23.7860 N   0  0  0  0  0  0  0  0  0  0  0  0
  -26.0770  -38.2300   23.9630 H   0  0  0  0  0  0  0  0  0  0  0  0
  -28.0210  -19.8530   19.0760 C   0  0  0  0  0  2  0  0  0  0  0  0
  -26.8260  -19.2480   19.8480 C   0  0  0  0  0  2  0  0  0  0  0  0
  -25.7320  -18.7110   18.9060 C   0  0  0  0  0  2  0  0  0  0  0  0
  -24.5620  -18.2050   19.6450 N   0  0  0  0  0  4  0  0  0  0  0  0
  -24.8070  -17.4250   20.2280 H   0  0  0  0  0  0  0  0  0  0  0  0
  -23.8510  -17.9100   18.9970 H   0  0  0  0  0  0  0  0  0  0  0  0
  -24.1690  -18.9270   20.2230 H   0  0  0  0  0  0  0  0  0  0  0  0
  1  4  1  0
  2  1  1  0
  2  5  1  0
  4 50  1  0
  4  3  1  0
  5 93  1  6
  5 10  1  0
  5  3  1  0
  7  6  2  0
  8  6  1  0
  9 10  2  0
  9 11  1  0
 10  7  1  0
 11  8  2  0
 12 20  1  0
 13 18  1  0
 14 15  1  0
 14 13  1  0
 16 15  1  0
 16 25  1  0
 16 17  1  0
 18 12  1  0
 18 17  1  0
 19 12  2  0
 20 11  1  0
 20 21  1  0
 22 23  2  0
 23 42  1  0
 24 23  1  0
 24 27  1  0
 25 22  1  0
 25 26  1  0
 26 24  2  0
 27 28  1  0
 28 29  2  0
 30 33  1  0
 30 29  1  0
 31 30  2  0
 32 31  1  0
 32 27  2  0
 33 34  1  0
 34 35  1  0
 35 36  2  0
 37 36  1  0
 37 41  1  0
 38 37  2  0
 39 34  2  0
 39 38  1  0
 40 39  1  0
 42 43  1  0
 43 46  1  0
 43 45  1  0
 44 42  2  0
 47 48  1  0
 47 22  1  0
 49 47  1  0
 51 52  1  0
 51 50  1  0
 53 64  2  0
 54 52  1  0
 54 59  1  0
 55 63  1  0
 55 65  1  0
 56 62  1  0
 56 58  1  0
 57 63  1  0
 58 57  1  0
 59 58  2  0
 60 61  1  0
 60 54  2  0
 61 56  2  0
 62 55  1  0
 63 53  1  0
 65 67  2  0
 66 65  1  0
 68 66  1  0
 69 78  2  0
 69 74  1  0
 70 66  1  0
 70 74  1  0
 71 70  1  0
 72 73  1  0
 72 71  1  0
 73 69  1  0
 74 75  2  0
 75 76  1  0
 77 76  2  0
 78 77  1  0
 79 53  1  0
 79 84  1  0
 79 80  1  0
 80 83  1  1
 80 81  1  0
 82 80  1  0
 84 87  1  0
 85 89  1  0
 85 84  1  0
 86 85  2  0
 89 88  1  0
 91 89  1  0
 91 92  1  0
 91 90  1  0
 93 94  1  0
 95 96  1  0
 95 94  1  0
 96 99  1  0
 96 97  1  0
 98 96  1  0
M  ISO  4  12 100  20 100  51 101  52 101
M  END
>  <TORSDO>  (54) 
F 23

>  <SCORE>  (54) 
-11.829

>  <name>  (54) 
55

>  <ligand_id>  (54) 
55

>  <original_smiles>  (54) 
[H]c1c([H])c([H])c2c(c1[H])C([H])([H])C([H])([H])C([H])([H])C2([H])N([H])C(=O)C1([H])N(C(=O)C([H])(N([H])C(=O)C([H])(N([H])C([H])([H])[H])C([H])([H])[H])C(C([H])([H])[H])(C([H])([H])[H])C([H])([H])[H])C([H])([H])c2c([H])c(OC([H])([H])C([H])([H])C3([H])C([H])([H])C([H])([H])C(c4c([H])c([H])c([H])c(N([H])C(=O)N5C([H])([H])C([H])([H])C([H])([H])C([H])(n6nc(-c7c([H])c([H])c(Oc8c([H])c([H])c(F)c([H])c8F)c([H])c7[H])c(C(=O)N([H])[H])c6N([H])[H])C5([H])[H])c4[H])(C([H])([H])C([H])([H])C([H])([H])[N+]([H])([H])[H])C3([H])[H])c([H])c([H])c2C1([H])[H]

>  <smiles>  (54) 
[H]c1c([H])c([H])c2c(c1[H])C([H])([H])C([H])([H])C([H])([H])C2([H])N([H])C(=O)C1([H])N(C(=O)C([H])(N([H])C(=O)C([H])(N([H])C([H])([H])[H])C([H])([H])[H])C(C([H])([H])[H])(C([H])([H])[H])C([H])([H])[H])C([H])([H])c2c([H])c(OC([H])([H])C([H])([H])C3([H])C([H])([H])C([H])([H])C(c4c([H])c([H])c([H])c(N([H])C(=O)N5C([H])([H])C([H])([H])C([H])([H])C([H])(n6nc(-c7c([H])c([H])c(Oc8c([H])c([H])c(F)c([H])c8F)c([H])c7[H])c(C(=O)N([H])[H])c6N([H])[H])C5([H])[H])c4[H])(C([H])([H])C([H])([H])C([H])([H])[N+]([H])([H])[H])C3([H])[H])c([H])c([H])c2C1([H])[H]

$$$$
56:0:0
     RDKit          3D

 94103  0  0  1  0  0  0  0  0999 V2000
  -28.7400  -21.5850   21.5820 C   0  0  0  0  0  0  0  0  0  0  0  0
  -27.8690  -22.4820   20.6990 C   0  0  0  0  0  2  0  0  0  0  0  0
  -29.8720  -21.6700   20.5550 C   0  0  0  0  0  3  0  0  0  0  0  0
  -29.0660  -22.7900   19.8820 N   0  0  2  0  0  4  0  0  0  0  0  0
  -28.5860  -21.0330   22.6780 O   0  0  0  0  0  0  0  0  0  0  0  0
  -28.9190  -22.5270   18.9170 H   0  0  0  0  0  0  0  0  0  0  0  0
  -29.9850  -20.3290   19.7250 C   0  0  0  0  0  0  0  0  0  0  0  0
  -30.2480  -20.3770   18.5190 O   0  0  0  0  0  0  0  0  0  0  0  0
  -28.7620  -17.5220   19.1420 C   0  0  0  0  0  0  0  0  0  0  0  0
  -28.2850  -18.4460   20.2830 C   0  0  0  0  0  2  0  0  0  0  0  0
  -30.1980  -17.5190   19.7040 C   0  0  0  0  0  3  0  0  0  0  0  0
  -29.7570  -18.9130   20.4250 C   0  0  0  0  0  3  0  0  0  0  0  0
  -28.2060  -16.9810   18.1870 O   0  0  0  0  0  0  0  0  0  0  0  0
  -31.0310  -15.1060   20.1520 C   0  0  0  0  0  0  0  0  0  0  0  0
  -30.8310  -12.8100   19.2170 C   0  0  0  0  0  2  0  0  0  0  0  0
  -29.8890  -12.8690   17.9930 C   0  0  0  0  0  2  0  0  0  0  0  0
  -28.4220  -12.7030   18.4300 C   0  0  0  0  0  2  0  0  0  0  0  0
  -28.0530  -13.6180   19.6250 C   0  0  0  0  0  3  0  0  0  0  0  0
  -29.1130  -13.5490   20.7500 C   0  0  0  0  0  2  0  0  0  0  0  0
  -30.4200  -13.8760   20.1580 N   0  0  0  0  0  0  0  0  0  0  0  0
  -32.1670  -15.2480   19.6930 O   0  0  0  0  0  0  0  0  0  0  0  0
  -30.2600  -16.2000   20.4610 N   0  0  0  0  0  0  0  0  0  0  0  0
  -29.3920  -15.9520   20.9140 H   0  0  0  0  0  0  0  0  0  0  0  0
  -25.6800  -14.2410   20.3880 C   0  0  0  0  0  0  0  0  0  0  0  0
  -24.6080  -13.4770   20.7590 C   0  0  0  0  0  0  0  0  0  0  0  0
  -25.0460  -12.1190   20.6860 C   0  0  0  0  0  0  0  0  0  0  0  0
  -26.7070  -13.3490   20.1200 N   0  0  0  0  0  0  0  0  0  0  0  0
  -26.3310  -12.0670   20.3600 N   0  0  0  0  0  0  0  0  0  0  0  0
  -24.3020  -10.8650   20.8520 C   0  0  0  0  0  0  0  0  0  0  0  0
  -24.6660   -9.9160   21.8310 C   0  0  0  0  0  3  0  0  0  0  0  0
  -23.9240   -8.7250   21.9860 C   0  0  0  0  0  3  0  0  0  0  0  0
  -22.8020   -8.4770   21.1600 C   0  0  0  0  0  0  0  0  0  0  0  0
  -22.4570   -9.4150   20.1720 C   0  0  0  0  0  3  0  0  0  0  0  0
  -23.1990  -10.5970   20.0170 C   0  0  0  0  0  3  0  0  0  0  0  0
  -22.0360   -7.3370   21.2220 O   0  0  0  0  0  0  0  0  0  0  0  0
  -21.8300   -6.6730   22.4050 C   0  0  0  0  0  0  0  0  0  0  0  0
  -21.1840   -7.2850   23.5010 C   0  0  0  0  0  3  0  0  0  0  0  0
  -20.9290   -6.5430   24.6710 C   0  0  0  0  0  3  0  0  0  0  0  0
  -21.3110   -5.1900   24.7470 C   0  0  0  0  0  0  0  0  0  0  0  0
  -21.9510   -4.5770   23.6540 C   0  0  0  0  0  3  0  0  0  0  0  0
  -22.2060   -5.3170   22.4850 C   0  0  0  0  0  0  0  0  0  0  0  0
  -22.8020   -4.7150   21.4270 F   0  0  0  0  0  0  0  0  0  0  0  0
  -21.0600   -4.4750   25.8680 F   0  0  0  0  0  0  0  0  0  0  0  0
  -23.2230  -13.9700   21.0590 C   0  0  0  0  0  0  0  0  0  0  0  0
  -22.5050  -13.2770   21.9360 N   0  0  0  0  0  0  0  0  0  0  0  0
  -22.7880  -15.0030   20.5520 O   0  0  0  0  0  0  0  0  0  0  0  0
  -22.8720  -12.4410   22.3650 H   0  0  0  0  0  0  0  0  0  0  0  0
  -21.5750  -13.5870   22.1810 H   0  0  0  0  0  0  0  0  0  0  0  0
  -25.8640  -15.6110   20.2280 N   0  0  0  0  0  0  0  0  0  0  0  0
  -25.0650  -16.2340   20.2750 H   0  0  0  0  0  0  0  0  0  0  0  0
  -26.6140  -15.9830   19.6590 H   0  0  0  0  0  0  0  0  0  0  0  0
  -29.4930  -24.2700   19.9700 C   0  0  0  0  0  3  0  0  0  0  0  0
  -28.4260  -25.3620   19.4620 C   0  0  0  0  0  3  0  0  0  0  0  0
  -28.5840  -26.8230   19.7360 O   0  0  0  0  0  0  0  0  0  0  0  0
  -24.7410  -31.8200   23.2820 C   0  0  0  0  0  0  0  0  0  0  0  0
  -27.4290  -27.6350   19.7700 C   0  0  0  0  0  0  0  0  0  0  0  0
  -23.5550  -30.4930   21.5980 C   0  0  0  0  0  3  0  0  0  0  0  0
  -24.9940  -29.1330   19.9820 C   0  0  0  0  0  0  0  0  0  0  0  0
  -26.0540  -30.9490   21.3280 C   0  0  0  0  0  2  0  0  0  0  0  0
  -26.1650  -29.6280   20.5710 C   0  0  0  0  0  0  0  0  0  0  0  0
  -27.3820  -28.8880   20.4610 C   0  0  0  0  0  3  0  0  0  0  0  0
  -26.2340  -27.2130   19.1390 C   0  0  0  0  0  3  0  0  0  0  0  0
  -25.0320  -27.9340   19.2560 C   0  0  0  0  0  3  0  0  0  0  0  0
  -23.7240  -29.9350   20.1590 C   0  0  0  0  0  2  0  0  0  0  0  0
  -24.8070  -31.1000   22.1270 N   0  0  0  0  0  0  0  0  0  0  0  0
  -23.6670  -31.9990   23.8750 O   0  0  0  0  0  0  0  0  0  0  0  0
  -22.9830  -29.3840   22.5070 C   0  0  0  0  0  0  0  0  0  0  0  0
  -21.6780  -29.1950   22.3450 N   0  0  0  0  0  0  0  0  0  0  0  0
  -23.6910  -28.7230   23.2700 O   0  0  0  0  0  0  0  0  0  0  0  0
  -21.2260  -29.8850   21.7580 H   0  0  0  0  0  0  0  0  0  0  0  0
  -18.4060  -27.4030   22.5950 C   0  0  0  0  0  0  0  0  0  0  0  0
  -20.8210  -28.0820   22.6660 C   0  0  0  0  0  3  0  0  0  0  0  0
  -21.2540  -26.6260   22.4520 C   0  0  0  0  0  2  0  0  0  0  0  0
  -20.2610  -25.9710   21.4680 C   0  0  0  0  0  2  0  0  0  0  0  0
  -18.8000  -26.0670   21.9580 C   0  0  0  0  0  2  0  0  0  0  0  0
  -19.3820  -28.3270   23.0420 C   0  0  0  0  0  0  0  0  0  0  0  0
  -18.9910  -29.5420   23.6410 C   0  0  0  0  0  3  0  0  0  0  0  0
  -17.6250  -29.8610   23.7560 C   0  0  0  0  0  3  0  0  0  0  0  0
  -16.6530  -28.9610   23.2810 C   0  0  0  0  0  3  0  0  0  0  0  0
  -17.0410  -27.7320   22.7170 C   0  0  0  0  0  3  0  0  0  0  0  0
  -26.0130  -32.4680   23.9020 C   0  0  0  0  0  3  0  0  0  0  0  0
  -26.5560  -31.6760   25.1530 C   0  0  1  0  0  0  0  0  0  0  0  0
  -25.4740  -31.3780   26.2180 C   0  0  0  0  0  1  0  0  0  0  0  0
  -27.1800  -30.3280   24.7210 C   0  0  0  0  0  1  0  0  0  0  0  0
  -27.6860  -32.4860   25.8310 C   0  0  0  0  0  1  0  0  0  0  0  0
  -25.6740  -33.8500   24.2680 N   0  0  0  0  0  0  0  0  0  0  0  0
  -25.9710  -34.9260   23.5290 C   0  0  0  0  0  0  0  0  0  0  0  0
  -26.6330  -34.8610   22.4880 O   0  0  0  0  0  0  0  0  0  0  0  0
  -25.0880  -33.9740   25.0810 H   0  0  0  0  0  0  0  0  0  0  0  0
  -24.2090  -36.6950   23.2230 C   0  0  0  0  0  1  0  0  0  0  0  0
  -25.4590  -36.2920   24.0220 C   0  0  0  0  0  3  0  0  0  0  0  0
  -27.5700  -37.2030   24.8820 C   0  0  0  0  0  1  0  0  0  0  0  0
  -26.4720  -37.3670   23.9340 N   0  0  0  0  0  0  0  0  0  0  0  0
  -26.0460  -38.2750   24.0980 H   0  0  0  0  0  0  0  0  0  0  0  0
  1  5  2  0
  2  1  1  0
  3  7  1  0
  3  1  1  0
  4 52  1  0
  4  3  1  0
  4  2  1  0
  4  6  1  6
  8  7  2  0
  9 11  1  0
  9 10  1  0
 10 12  1  0
 11 12  1  0
 11 22  1  0
 12  7  1  0
 13  9  2  0
 14 20  1  0
 14 22  1  0
 15 20  1  0
 16 17  1  0
 16 15  1  0
 18 17  1  0
 18 27  1  0
 18 19  1  0
 20 19  1  0
 21 14  2  0
 22 23  1  0
 24 25  2  0
 25 44  1  0
 26 25  1  0
 26 29  1  0
 27 28  1  0
 27 24  1  0
 28 26  2  0
 29 30  1  0
 30 31  2  0
 32 35  1  0
 32 31  1  0
 33 32  2  0
 34 33  1  0
 34 29  2  0
 35 36  1  0
 36 41  2  0
 36 37  1  0
 37 38  2  0
 38 39  1  0
 39 43  1  0
 40 39  2  0
 41 40  1  0
 42 41  1  0
 44 45  1  0
 45 48  1  0
 45 47  1  0
 46 44  2  0
 49 50  1  0
 49 24  1  0
 51 49  1  0
 53 54  1  0
 53 52  2  0
 54 56  1  0
 55 66  2  0
 56 61  1  0
 57 65  1  0
 57 67  1  0
 58 64  1  0
 58 60  1  0
 59 65  1  0
 60 59  1  0
 61 60  2  0
 62 63  1  0
 62 56  2  0
 63 58  2  0
 64 57  1  0
 65 55  1  0
 67 69  2  0
 68 67  1  0
 70 68  1  0
 71 80  2  0
 71 76  1  0
 72 68  1  0
 72 76  1  0
 73 72  1  0
 74 75  1  0
 74 73  1  0
 75 71  1  0
 76 77  2  0
 77 78  1  0
 79 78  2  0
 80 79  1  0
 81 55  1  0
 81 86  1  0
 81 82  1  0
 82 85  1  1
 82 83  1  0
 84 82  1  0
 86 89  1  0
 87 91  1  0
 87 86  1  0
 88 87  2  0
 91 90  1  0
 93 91  1  0
 93 94  1  0
 93 92  1  0
M  ISO  4  14 100  22 100  53 101  54 101
M  END
>  <TORSDO>  (55) 
F 20

>  <SCORE>  (55) 
-12.261

>  <name>  (55) 
56

>  <ligand_id>  (55) 
56

>  <original_smiles>  (55) 
[H]c1c([H])c([H])c2c(c1[H])C([H])([H])C([H])([H])C([H])([H])C2([H])N([H])C(=O)C1([H])N(C(=O)C([H])(N([H])C(=O)C([H])(N([H])C([H])([H])[H])C([H])([H])[H])C(C([H])([H])[H])(C([H])([H])[H])C([H])([H])[H])C([H])([H])c2c([H])c(OC([H])([H])C([H])([H])[N+]3([H])C([H])([H])C(=O)C3([H])C(=O)C3([H])C([H])([H])C(=O)C3([H])N([H])C(=O)N3C([H])([H])C([H])([H])C([H])([H])C([H])(n4nc(-c5c([H])c([H])c(Oc6c([H])c([H])c(F)c([H])c6F)c([H])c5[H])c(C(=O)N([H])[H])c4N([H])[H])C3([H])[H])c([H])c([H])c2C1([H])[H]

>  <smiles>  (55) 
[H]c1c([H])c([H])c2c(c1[H])C([H])([H])C([H])([H])C([H])([H])C2([H])N([H])C(=O)C1([H])N(C(=O)C([H])(N([H])C(=O)C([H])(N([H])C([H])([H])[H])C([H])([H])[H])C(C([H])([H])[H])(C([H])([H])[H])C([H])([H])[H])C([H])([H])c2c([H])c(OC([H])([H])C([H])([H])[N+]3([H])C([H])([H])C(=O)C3([H])C(=O)C3([H])C([H])([H])C(=O)C3([H])N([H])C(=O)N3C([H])([H])C([H])([H])C([H])([H])C([H])(n4nc(-c5c([H])c([H])c(Oc6c([H])c([H])c(F)c([H])c6F)c([H])c5[H])c(C(=O)N([H])[H])c4N([H])[H])C3([H])[H])c([H])c([H])c2C1([H])[H]

$$$$
57:0:0
     RDKit          3D

 96105  0  0  1  0  0  0  0  0999 V2000
  -28.8910  -18.3410   20.4700 C   0  0  0  0  0  2  0  0  0  0  0  0
  -27.5510  -20.5580   19.9160 C   0  0  0  0  0  2  0  0  0  0  0  0
  -29.6740  -21.5680   20.4130 C   0  0  0  0  0  2  0  0  0  0  0  0
  -30.1970  -19.0970   20.2390 C   0  0  0  0  0  3  0  0  0  0  0  0
  -28.5490  -21.5980   19.3570 C   0  0  0  0  0  3  0  0  0  0  0  0
  -28.2930  -19.6720   20.9090 C   0  0  0  0  0  3  0  0  0  0  0  0
  -29.6440  -20.2140   21.0210 N   0  0  2  0  0  4  0  0  0  0  0  0
  -30.0280  -20.1790   21.9570 H   0  0  0  0  0  0  0  0  0  0  0  0
  -31.4060  -18.5300   20.9320 C   0  0  0  0  0  0  0  0  0  0  0  0
  -31.9080  -18.9660   21.9740 O   0  0  0  0  0  0  0  0  0  0  0  0
  -33.5330  -17.6270   19.9430 C   0  0  0  0  0  1  0  0  0  0  0  0
  -32.0500  -17.3150   20.2370 C   0  0  0  0  0  3  0  0  0  0  0  0
  -31.9130  -15.9870   21.0460 C   0  0  0  0  0  2  0  0  0  0  0  0
  -30.9200  -14.2560   19.5640 C   0  0  0  0  0  0  0  0  0  0  0  0
  -30.3960  -12.0390   18.6250 C   0  0  0  0  0  2  0  0  0  0  0  0
  -29.3480  -12.1050   17.5010 C   0  0  0  0  0  2  0  0  0  0  0  0
  -27.9330  -11.9960   18.0890 C   0  0  0  0  0  2  0  0  0  0  0  0
  -27.7030  -12.9840   19.2650 C   0  0  0  0  0  3  0  0  0  0  0  0
  -28.8680  -12.9450   20.2880 C   0  0  0  0  0  2  0  0  0  0  0  0
  -30.1450  -13.1340   19.5760 N   0  0  0  0  0  0  0  0  0  0  0  0
  -31.7780  -14.4630   18.7050 O   0  0  0  0  0  0  0  0  0  0  0  0
  -30.8340  -15.0650   20.6330 N   0  0  0  0  0  0  0  0  0  0  0  0
  -30.1360  -14.8290   21.3210 H   0  0  0  0  0  0  0  0  0  0  0  0
  -25.4360  -13.6660   20.2760 C   0  0  0  0  0  0  0  0  0  0  0  0
  -24.3880  -12.9290   20.7620 C   0  0  0  0  0  0  0  0  0  0  0  0
  -24.7800  -11.5590   20.6450 C   0  0  0  0  0  0  0  0  0  0  0  0
  -26.4070  -12.7500   19.9020 N   0  0  0  0  0  0  0  0  0  0  0  0
  -26.0190  -11.4740   20.1750 N   0  0  0  0  0  0  0  0  0  0  0  0
  -24.0230  -10.3250   20.9000 C   0  0  0  0  0  0  0  0  0  0  0  0
  -24.4820   -9.3560   21.8190 C   0  0  0  0  0  3  0  0  0  0  0  0
  -23.7290   -8.1860   22.0650 C   0  0  0  0  0  3  0  0  0  0  0  0
  -22.5040   -7.9760   21.3870 C   0  0  0  0  0  0  0  0  0  0  0  0
  -22.0620   -8.9360   20.4580 C   0  0  0  0  0  3  0  0  0  0  0  0
  -22.8150  -10.0960   20.2120 C   0  0  0  0  0  3  0  0  0  0  0  0
  -21.7190   -6.8600   21.5410 O   0  0  0  0  0  0  0  0  0  0  0  0
  -21.6630   -6.1760   22.7300 C   0  0  0  0  0  0  0  0  0  0  0  0
  -21.2520   -6.7990   23.9270 C   0  0  0  0  0  3  0  0  0  0  0  0
  -21.1440   -6.0440   25.1120 C   0  0  0  0  0  3  0  0  0  0  0  0
  -21.4320   -4.6660   25.0990 C   0  0  0  0  0  0  0  0  0  0  0  0
  -21.8380   -4.0440   23.9050 C   0  0  0  0  0  3  0  0  0  0  0  0
  -21.9490   -4.7970   22.7230 C   0  0  0  0  0  0  0  0  0  0  0  0
  -22.3190   -4.1860   21.5710 F   0  0  0  0  0  0  0  0  0  0  0  0
  -21.3200   -3.9400   26.2340 F   0  0  0  0  0  0  0  0  0  0  0  0
  -23.0600  -13.4590   21.2220 C   0  0  0  0  0  0  0  0  0  0  0  0
  -22.4210  -12.7750   22.1660 N   0  0  0  0  0  0  0  0  0  0  0  0
  -22.6000  -14.5100   20.7780 O   0  0  0  0  0  0  0  0  0  0  0  0
  -22.8060  -11.9230   22.5460 H   0  0  0  0  0  0  0  0  0  0  0  0
  -21.5330  -13.1080   22.5130 H   0  0  0  0  0  0  0  0  0  0  0  0
  -25.6360  -15.0310   20.1020 N   0  0  0  0  0  0  0  0  0  0  0  0
  -24.9110  -15.7150   20.2930 H   0  0  0  0  0  0  0  0  0  0  0  0
  -26.4460  -15.4310   19.6490 H   0  0  0  0  0  0  0  0  0  0  0  0
  -27.0190  -22.6990   17.9040 C   0  0  0  0  0  1  0  0  0  0  0  0
  -27.8140  -22.8600   19.1390 N   0  0  0  0  0  0  0  0  0  0  0  0
  -28.5900  -24.1270   19.1420 C   0  0  0  0  0  2  0  0  0  0  0  0
  -27.5910  -25.3070   19.0250 C   0  0  0  0  0  2  0  0  0  0  0  0
  -27.9090  -26.6580   19.4260 O   0  0  0  0  0  0  0  0  0  0  0  0
  -24.5240  -31.7490   23.1410 C   0  0  0  0  0  0  0  0  0  0  0  0
  -26.7950  -27.4940   19.5200 C   0  0  0  0  0  0  0  0  0  0  0  0
  -23.1650  -30.5100   21.5000 C   0  0  0  0  0  3  0  0  0  0  0  0
  -24.4640  -29.0890   19.8400 C   0  0  0  0  0  0  0  0  0  0  0  0
  -25.6840  -30.8260   21.1370 C   0  0  0  0  0  2  0  0  0  0  0  0
  -25.6850  -29.5130   20.3820 C   0  0  0  0  0  0  0  0  0  0  0  0
  -26.8530  -28.7220   20.2240 C   0  0  0  0  0  3  0  0  0  0  0  0
  -25.5490  -27.1330   18.9370 C   0  0  0  0  0  3  0  0  0  0  0  0
  -24.3940  -27.8990   19.1170 C   0  0  0  0  0  3  0  0  0  0  0  0
  -23.2490  -29.9590   20.0570 C   0  0  0  0  0  2  0  0  0  0  0  0
  -24.4820  -31.0350   21.9840 N   0  0  0  0  0  0  0  0  0  0  0  0
  -23.4900  -31.9990   23.7780 O   0  0  0  0  0  0  0  0  0  0  0  0
  -22.5630  -29.4160   22.4170 C   0  0  0  0  0  0  0  0  0  0  0  0
  -21.2410  -29.2020   22.3020 N   0  0  0  0  0  0  0  0  0  0  0  0
  -23.2800  -28.7720   23.1860 O   0  0  0  0  0  0  0  0  0  0  0  0
  -20.7300  -29.7770   21.6480 H   0  0  0  0  0  0  0  0  0  0  0  0
  -17.9250  -27.8220   22.7060 C   0  0  0  0  0  0  0  0  0  0  0  0
  -20.4610  -28.2080   23.0350 C   0  0  0  0  0  3  0  0  0  0  0  0
  -20.6530  -26.7950   22.4350 C   0  0  0  0  0  2  0  0  0  0  0  0
  -19.5870  -26.4320   21.3960 C   0  0  0  0  0  2  0  0  0  0  0  0
  -18.1860  -26.4940   22.0130 C   0  0  0  0  0  2  0  0  0  0  0  0
  -18.9960  -28.6340   23.1680 C   0  0  0  0  0  0  0  0  0  0  0  0
  -18.7030  -29.8760   23.7720 C   0  0  0  0  0  3  0  0  0  0  0  0
  -17.3720  -30.3060   23.9260 C   0  0  0  0  0  3  0  0  0  0  0  0
  -16.3170  -29.4890   23.4870 C   0  0  0  0  0  3  0  0  0  0  0  0
  -16.5920  -28.2520   22.8760 C   0  0  0  0  0  3  0  0  0  0  0  0
  -25.8640  -32.3090   23.7060 C   0  0  0  0  0  3  0  0  0  0  0  0
  -25.6180  -33.6880   24.1420 N   0  0  0  0  0  0  0  0  0  0  0  0
  -25.9320  -34.7790   23.4290 C   0  0  0  0  0  0  0  0  0  0  0  0
  -26.5380  -34.7270   22.3560 O   0  0  0  0  0  0  0  0  0  0  0  0
  -25.0880  -33.8040   24.9930 H   0  0  0  0  0  0  0  0  0  0  0  0
  -24.2400  -36.6350   23.2970 C   0  0  0  0  0  1  0  0  0  0  0  0
  -25.5130  -36.1450   24.0060 C   0  0  0  0  0  3  0  0  0  0  0  0
  -27.7130  -36.9180   24.7680 C   0  0  0  0  0  1  0  0  0  0  0  0
  -26.5670  -37.1770   23.9010 N   0  0  0  0  0  0  0  0  0  0  0  0
  -26.1940  -38.0930   24.1340 H   0  0  0  0  0  0  0  0  0  0  0  0
  -26.4450  -31.4400   24.8900 C   0  0  1  0  0  0  0  0  0  0  0  0
  -25.4170  -31.1590   26.0130 C   0  0  0  0  0  1  0  0  0  0  0  0
  -26.9660  -30.0790   24.3660 C   0  0  0  0  0  1  0  0  0  0  0  0
  -27.6590  -32.1640   25.5200 C   0  0  0  0  0  1  0  0  0  0  0  0
  1  6  1  0
  3  7  1  0
  4  1  1  0
  4  9  1  0
  4  7  1  0
  5 53  1  0
  5  2  1  0
  5  3  1  0
  6  2  1  0
  6  7  1  0
  7  8  1  1
  9 10  2  0
 12 11  1  0
 12  9  1  0
 12 13  1  0
 14 20  1  0
 14 22  1  0
 15 20  1  0
 16 17  1  0
 16 15  1  0
 18 17  1  0
 18 27  1  0
 18 19  1  0
 20 19  1  0
 21 14  2  0
 22 13  1  0
 22 23  1  0
 24 25  2  0
 25 44  1  0
 26 25  1  0
 26 29  1  0
 27 28  1  0
 27 24  1  0
 28 26  2  0
 29 30  1  0
 30 31  2  0
 32 35  1  0
 32 31  1  0
 33 32  2  0
 34 33  1  0
 34 29  2  0
 35 36  1  0
 36 37  1  0
 37 38  2  0
 39 38  1  0
 39 43  1  0
 40 39  2  0
 41 36  2  0
 41 40  1  0
 42 41  1  0
 44 45  1  0
 45 48  1  0
 45 47  1  0
 46 44  2  0
 49 24  1  0
 49 50  1  0
 51 49  1  0
 52 53  1  0
 53 54  1  0
 55 54  1  0
 55 56  1  0
 56 58  1  0
 57 68  2  0
 58 63  1  0
 59 67  1  0
 59 69  1  0
 60 66  1  0
 60 62  1  0
 61 67  1  0
 62 61  1  0
 63 62  2  0
 64 65  1  0
 64 58  2  0
 65 60  2  0
 66 59  1  0
 67 57  1  0
 69 71  2  0
 70 69  1  0
 72 70  1  0
 73 82  2  0
 73 78  1  0
 74 70  1  0
 74 78  1  0
 75 74  1  0
 76 77  1  0
 76 75  1  0
 77 73  1  0
 78 79  2  0
 79 80  1  0
 81 80  2  0
 82 81  1  0
 83 57  1  0
 83 84  1  0
 83 93  1  0
 84 87  1  0
 85 89  1  0
 85 84  1  0
 86 85  2  0
 89 88  1  0
 91 89  1  0
 91 92  1  0
 91 90  1  0
 93 96  1  1
 93 94  1  0
 95 93  1  0
M  ISO  4  14 100  22 100  55 101  56 101
M  END
>  <TORSDO>  (56) 
F 22

>  <SCORE>  (56) 
-11.755

>  <name>  (56) 
57

>  <ligand_id>  (56) 
57

>  <original_smiles>  (56) 
[H]c1c([H])c([H])c2c(c1[H])C([H])([H])C([H])([H])C([H])([H])C2([H])N([H])C(=O)C1([H])N(C(=O)C([H])(N([H])C(=O)C([H])(N([H])C([H])([H])[H])C([H])([H])[H])C(C([H])([H])[H])(C([H])([H])[H])C([H])([H])[H])C([H])([H])c2c([H])c(OC([H])([H])C([H])([H])N(C([H])([H])[H])C3([H])C([H])([H])C4([H])C([H])([H])C([H])(C(=O)C([H])(C([H])([H])[H])C([H])([H])N([H])C(=O)N5C([H])([H])C([H])([H])C([H])([H])C([H])(n6nc(-c7c([H])c([H])c(Oc8c([H])c([H])c(F)c([H])c8F)c([H])c7[H])c(C(=O)N([H])[H])c6N([H])[H])C5([H])[H])[N+]4([H])C3([H])[H])c([H])c([H])c2C1([H])[H]

>  <smiles>  (56) 
[H]c1c([H])c([H])c2c(c1[H])C([H])([H])C([H])([H])C([H])([H])C2([H])N([H])C(=O)C1([H])N(C(=O)C([H])(N([H])C(=O)C([H])(N([H])C([H])([H])[H])C([H])([H])[H])C(C([H])([H])[H])(C([H])([H])[H])C([H])([H])[H])C([H])([H])c2c([H])c(OC([H])([H])C([H])([H])N(C([H])([H])[H])C3([H])C([H])([H])C4([H])C([H])([H])C([H])(C(=O)C([H])(C([H])([H])[H])C([H])([H])N([H])C(=O)N5C([H])([H])C([H])([H])C([H])([H])C([H])(n6nc(-c7c([H])c([H])c(Oc8c([H])c([H])c(F)c([H])c8F)c([H])c7[H])c(C(=O)N([H])[H])c6N([H])[H])C5([H])[H])[N+]4([H])C3([H])[H])c([H])c([H])c2C1([H])[H]

$$$$
58:0:0
     RDKit          3D

 94102  0  0  1  0  0  0  0  0999 V2000
  -30.5630  -21.4920   18.0540 C   0  0  0  0  0  3  0  0  0  0  0  0
  -30.2370  -20.3240   18.7670 C   0  0  0  0  0  3  0  0  0  0  0  0
  -29.9060  -22.7050   18.3300 C   0  0  0  0  0  3  0  0  0  0  0  0
  -28.6160  -21.5980   20.0590 C   0  0  0  0  0  3  0  0  0  0  0  0
  -29.2390  -20.3460   19.7630 C   0  0  0  0  0  0  0  0  0  0  0  0
  -28.9440  -22.8000   19.3620 C   0  0  0  0  0  0  0  0  0  0  0  0
  -28.8000  -19.0550   20.3990 C   0  0  0  0  0  0  0  0  0  0  0  0
  -27.5760  -18.8290   20.6240 N   0  0  0  0  0  0  0  0  0  0  0  0
  -26.9980  -19.5990   20.3050 H   0  0  0  0  0  0  0  0  0  0  0  0
  -29.8380  -17.9870   20.8300 C   0  0  0  0  0  2  0  0  0  0  0  0
  -29.9790  -16.7590   19.8710 C   0  0  0  0  0  2  0  0  0  0  0  0
  -30.7180  -14.3590   20.1370 C   0  0  0  0  0  0  0  0  0  0  0  0
  -30.3920  -12.1570   19.0830 C   0  0  0  0  0  2  0  0  0  0  0  0
  -29.4060  -12.3520   17.9100 C   0  0  0  0  0  2  0  0  0  0  0  0
  -27.9470  -12.2430   18.3970 C   0  0  0  0  0  2  0  0  0  0  0  0
  -27.6700  -13.1040   19.6580 C   0  0  0  0  0  3  0  0  0  0  0  0
  -28.7640  -12.8850   20.7300 C   0  0  0  0  0  2  0  0  0  0  0  0
  -30.0680  -13.1620   20.1090 N   0  0  0  0  0  0  0  0  0  0  0  0
  -31.8380  -14.5210   19.6430 O   0  0  0  0  0  0  0  0  0  0  0  0
  -29.9530  -15.4130   20.5020 N   0  0  0  0  0  0  0  0  0  0  0  0
  -29.0840  -15.1590   20.9490 H   0  0  0  0  0  0  0  0  0  0  0  0
  -25.3260  -13.7700   20.4850 C   0  0  0  0  0  0  0  0  0  0  0  0
  -24.2510  -13.0220   20.8880 C   0  0  0  0  0  0  0  0  0  0  0  0
  -24.6700  -11.6590   20.8120 C   0  0  0  0  0  0  0  0  0  0  0  0
  -26.3310  -12.8620   20.1910 N   0  0  0  0  0  0  0  0  0  0  0  0
  -25.9420  -11.5860   20.4440 N   0  0  0  0  0  0  0  0  0  0  0  0
  -23.9140  -10.4160   21.0120 C   0  0  0  0  0  0  0  0  0  0  0  0
  -24.3430   -9.4300   21.9290 C   0  0  0  0  0  3  0  0  0  0  0  0
  -23.5910   -8.2500   22.1160 C   0  0  0  0  0  3  0  0  0  0  0  0
  -22.3940   -8.0500   21.3870 C   0  0  0  0  0  0  0  0  0  0  0  0
  -21.9840   -9.0230   20.4590 C   0  0  0  0  0  3  0  0  0  0  0  0
  -22.7370  -10.1940   20.2690 C   0  0  0  0  0  3  0  0  0  0  0  0
  -21.6110   -6.9250   21.4860 O   0  0  0  0  0  0  0  0  0  0  0  0
  -21.5650   -6.1790   22.6370 C   0  0  0  0  0  0  0  0  0  0  0  0
  -21.1420   -6.7310   23.8670 C   0  0  0  0  0  3  0  0  0  0  0  0
  -21.0420   -5.9120   25.0090 C   0  0  0  0  0  3  0  0  0  0  0  0
  -21.3550   -4.5430   24.9230 C   0  0  0  0  0  0  0  0  0  0  0  0
  -21.7720   -3.9900   23.6990 C   0  0  0  0  0  3  0  0  0  0  0  0
  -21.8730   -4.8060   22.5590 C   0  0  0  0  0  0  0  0  0  0  0  0
  -22.2550   -4.2640   21.3770 F   0  0  0  0  0  0  0  0  0  0  0  0
  -21.2530   -3.7530   26.0180 F   0  0  0  0  0  0  0  0  0  0  0  0
  -22.8830  -13.5360   21.2330 C   0  0  0  0  0  0  0  0  0  0  0  0
  -22.1730  -12.8430   22.1170 N   0  0  0  0  0  0  0  0  0  0  0  0
  -22.4530  -14.5850   20.7550 O   0  0  0  0  0  0  0  0  0  0  0  0
  -22.5350  -11.9940   22.5250 H   0  0  0  0  0  0  0  0  0  0  0  0
  -21.2560  -13.1670   22.3920 H   0  0  0  0  0  0  0  0  0  0  0  0
  -25.5240  -15.1390   20.3290 N   0  0  0  0  0  0  0  0  0  0  0  0
  -24.7860  -15.8120   20.5040 H   0  0  0  0  0  0  0  0  0  0  0  0
  -26.3760  -15.5700   19.9940 H   0  0  0  0  0  0  0  0  0  0  0  0
  -28.1900  -24.1270   19.6710 C   0  0  0  0  0  2  0  0  0  0  0  0
  -28.8280  -26.0410   17.9930 C   0  0  0  0  0  1  0  0  0  0  0  0
  -30.3690  -25.4930   19.9070 C   0  0  0  0  0  1  0  0  0  0  0  0
  -28.8930  -25.5300   19.4520 C   0  0  2  0  0  0  0  0  0  0  0  0
  -28.4200  -26.5870   20.3280 O   0  0  0  0  0  0  0  0  0  0  0  0
  -24.5700  -31.8270   23.1990 C   0  0  0  0  0  0  0  0  0  0  0  0
  -27.2220  -27.2800   20.2310 C   0  0  0  0  0  0  0  0  0  0  0  0
  -23.3740  -30.4020   21.5690 C   0  0  0  0  0  3  0  0  0  0  0  0
  -24.8300  -28.8170   20.1910 C   0  0  0  0  0  0  0  0  0  0  0  0
  -25.9050  -30.7270   21.3990 C   0  0  0  0  0  2  0  0  0  0  0  0
  -25.9830  -29.3410   20.7860 C   0  0  0  0  0  0  0  0  0  0  0  0
  -27.1730  -28.5770   20.8070 C   0  0  0  0  0  3  0  0  0  0  0  0
  -26.0430  -26.7730   19.6400 C   0  0  0  0  0  3  0  0  0  0  0  0
  -24.8550  -27.5330   19.6180 C   0  0  0  0  0  3  0  0  0  0  0  0
  -23.5930  -29.6910   20.2060 C   0  0  0  0  0  2  0  0  0  0  0  0
  -24.6340  -31.0030   22.1140 N   0  0  0  0  0  0  0  0  0  0  0  0
  -23.4850  -32.1200   23.7190 O   0  0  0  0  0  0  0  0  0  0  0  0
  -22.6990  -29.4090   22.5420 C   0  0  0  0  0  0  0  0  0  0  0  0
  -21.3710  -29.2550   22.4170 N   0  0  0  0  0  0  0  0  0  0  0  0
  -23.3680  -28.7790   23.3660 O   0  0  0  0  0  0  0  0  0  0  0  0
  -20.8940  -29.8120   21.7220 H   0  0  0  0  0  0  0  0  0  0  0  0
  -17.9680  -28.1560   22.9430 C   0  0  0  0  0  0  0  0  0  0  0  0
  -20.5340  -28.3430   23.1960 C   0  0  0  0  0  3  0  0  0  0  0  0
  -20.5920  -26.9080   22.6250 C   0  0  0  0  0  2  0  0  0  0  0  0
  -19.4750  -26.6130   21.6190 C   0  0  0  0  0  2  0  0  0  0  0  0
  -18.1020  -26.8000   22.2720 C   0  0  0  0  0  2  0  0  0  0  0  0
  -19.1110  -28.8890   23.3630 C   0  0  0  0  0  0  0  0  0  0  0  0
  -18.9330  -30.1600   23.9490 C   0  0  0  0  0  3  0  0  0  0  0  0
  -17.6440  -30.6990   24.1200 C   0  0  0  0  0  3  0  0  0  0  0  0
  -16.5160  -29.9650   23.7170 C   0  0  0  0  0  3  0  0  0  0  0  0
  -16.6790  -28.6950   23.1350 C   0  0  0  0  0  3  0  0  0  0  0  0
  -25.8530  -32.4600   23.8230 C   0  0  0  0  0  3  0  0  0  0  0  0
  -25.5470  -33.8600   24.1430 N   0  0  0  0  0  0  0  0  0  0  0  0
  -25.8870  -34.9070   23.3800 C   0  0  0  0  0  0  0  0  0  0  0  0
  -26.5620  -34.7970   22.3540 O   0  0  0  0  0  0  0  0  0  0  0  0
  -24.9480  -34.0200   24.9410 H   0  0  0  0  0  0  0  0  0  0  0  0
  -24.1660  -36.7030   23.0020 C   0  0  0  0  0  1  0  0  0  0  0  0
  -25.3990  -36.3000   23.8270 C   0  0  0  0  0  3  0  0  0  0  0  0
  -27.5260  -37.1840   24.6770 C   0  0  0  0  0  1  0  0  0  0  0  0
  -26.4370  -37.3480   23.7190 N   0  0  0  0  0  0  0  0  0  0  0  0
  -26.0320  -38.2720   23.8540 H   0  0  0  0  0  0  0  0  0  0  0  0
  -26.3650  -31.6930   25.1040 C   0  0  1  0  0  0  0  0  0  0  0  0
  -25.2660  -31.4580   26.1680 C   0  0  0  0  0  1  0  0  0  0  0  0
  -26.9510  -30.3150   24.7180 C   0  0  0  0  0  1  0  0  0  0  0  0
  -27.5120  -32.4900   25.7690 C   0  0  0  0  0  1  0  0  0  0  0  0
  1  3  2  0
  1  2  1  0
  2  5  2  0
  3  6  1  0
  5  4  1  0
  5  7  1  0
  6 50  1  0
  6  4  2  0
  7  8  2  0
  7 10  1  0
  9  8  1  0
 11 20  1  0
 11 10  1  0
 12 20  1  0
 13 18  1  0
 14 15  1  0
 14 13  1  0
 16 15  1  0
 16 25  1  0
 16 17  1  0
 18 12  1  0
 18 17  1  0
 19 12  2  0
 20 21  1  0
 22 23  2  0
 23 42  1  0
 24 23  1  0
 24 27  1  0
 25 26  1  0
 25 22  1  0
 26 24  2  0
 27 28  1  0
 28 29  2  0
 30 33  1  0
 30 29  1  0
 31 30  2  0
 32 31  1  0
 32 27  2  0
 33 34  1  0
 34 35  1  0
 35 36  2  0
 37 36  1  0
 37 41  1  0
 38 37  2  0
 39 34  2  0
 39 38  1  0
 40 39  1  0
 42 43  1  0
 43 46  1  0
 43 45  1  0
 44 42  2  0
 47 22  1  0
 47 48  1  0
 49 47  1  0
 53 51  1  6
 53 50  1  0
 53 52  1  0
 53 54  1  0
 55 66  2  0
 56 54  1  0
 56 61  1  0
 57 65  1  0
 57 67  1  0
 58 64  1  0
 58 60  1  0
 59 65  1  0
 60 61  2  0
 60 59  1  0
 62 56  2  0
 63 62  1  0
 63 58  2  0
 64 57  1  0
 65 55  1  0
 67 69  2  0
 68 67  1  0
 70 68  1  0
 71 80  2  0
 71 76  1  0
 72 68  1  0
 72 76  1  0
 73 72  1  0
 74 75  1  0
 74 73  1  0
 75 71  1  0
 76 77  2  0
 77 78  1  0
 79 78  2  0
 80 79  1  0
 81 55  1  0
 81 82  1  0
 81 91  1  0
 82 85  1  0
 83 87  1  0
 83 82  1  0
 84 83  2  0
 87 86  1  0
 89 87  1  0
 89 90  1  0
 89 88  1  0
 91 94  1  1
 91 92  1  0
 93 91  1  0
M  ISO  4  12 100  20 100  53 101  54 101
M  END
>  <TORSDO>  (57) 
F 21

>  <SCORE>  (57) 
-13.645

>  <name>  (57) 
58

>  <ligand_id>  (57) 
58

>  <original_smiles>  (57) 
[H]N=C(c1c([H])c([H])c([H])c(C([H])([H])C(Oc2c([H])c([H])c3c(c2[H])C([H])([H])N(C(=O)C([H])(N([H])C(=O)C([H])(N([H])C([H])([H])[H])C([H])([H])[H])C(C([H])([H])[H])(C([H])([H])[H])C([H])([H])[H])C([H])(C(=O)N([H])C2([H])c4c([H])c([H])c([H])c([H])c4C([H])([H])C([H])([H])C2([H])[H])C3([H])[H])(C([H])([H])[H])C([H])([H])[H])c1[H])C([H])([H])C([H])([H])N([H])C(=O)N1C([H])([H])C([H])([H])C([H])([H])C([H])(n2nc(-c3c([H])c([H])c(Oc4c([H])c([H])c(F)c([H])c4F)c([H])c3[H])c(C(=O)N([H])[H])c2N([H])[H])C1([H])[H]

>  <smiles>  (57) 
[H]N=C(c1c([H])c([H])c([H])c(C([H])([H])C(Oc2c([H])c([H])c3c(c2[H])C([H])([H])N(C(=O)C([H])(N([H])C(=O)C([H])(N([H])C([H])([H])[H])C([H])([H])[H])C(C([H])([H])[H])(C([H])([H])[H])C([H])([H])[H])C([H])(C(=O)N([H])C2([H])c4c([H])c([H])c([H])c([H])c4C([H])([H])C([H])([H])C2([H])[H])C3([H])[H])(C([H])([H])[H])C([H])([H])[H])c1[H])C([H])([H])C([H])([H])N([H])C(=O)N1C([H])([H])C([H])([H])C([H])([H])C([H])(n2nc(-c3c([H])c([H])c(Oc4c([H])c([H])c(F)c([H])c4F)c([H])c3[H])c(C(=O)N([H])[H])c2N([H])[H])C1([H])[H]

$$$$
59:0:0
     RDKit          3D

 96104  0  0  1  0  0  0  0  0999 V2000
  -27.4220  -21.7990   19.2780 C   0  0  0  0  0  3  0  0  0  0  0  0
  -26.7810  -24.0480   19.9840 C   0  0  0  0  0  3  0  0  0  0  0  0
  -29.0860  -23.3190   20.1950 C   0  0  0  0  0  3  0  0  0  0  0  0
  -26.4340  -22.7970   19.4210 C   0  0  0  0  0  0  0  0  0  0  0  0
  -28.7490  -22.0240   19.7040 C   0  0  0  0  0  0  0  0  0  0  0  0
  -28.1180  -24.3550   20.3270 C   0  0  0  0  0  0  0  0  0  0  0  0
  -25.0150  -22.5010   19.0220 C   0  0  0  0  0  0  0  0  0  0  0  0
  -24.2780  -23.5430   18.6680 N   0  0  0  0  0  0  0  0  0  0  0  0
  -24.5790  -21.3520   18.9630 O   0  0  0  0  0  0  0  0  0  0  0  0
  -24.6800  -24.4680   18.6660 H   0  0  0  0  0  0  0  0  0  0  0  0
  -23.3260  -23.4090   18.3640 H   0  0  0  0  0  0  0  0  0  0  0  0
  -29.8220  -20.9140   19.5970 C   0  0  0  0  0  2  0  0  0  0  0  0
  -28.0780  -19.1590   20.3890 C   0  0  0  0  0  1  0  0  0  0  0  0
  -29.3780  -19.4020   19.5920 C   0  0  0  0  0  3  0  0  0  0  0  0
  -30.4770  -18.4270   20.1410 C   0  0  0  0  0  2  0  0  0  0  0  0
  -30.8990  -17.2150   19.2640 C   0  0  0  0  0  2  0  0  0  0  0  0
  -31.3030  -14.7650   19.6380 C   0  0  0  0  0  0  0  0  0  0  0  0
  -31.0040  -12.4180   18.9670 C   0  0  0  0  0  2  0  0  0  0  0  0
  -30.0170  -12.3870   17.7810 C   0  0  0  0  0  2  0  0  0  0  0  0
  -28.5660  -12.3090   18.2900 C   0  0  0  0  0  2  0  0  0  0  0  0
  -28.2550  -13.3560   19.3930 C   0  0  0  0  0  3  0  0  0  0  0  0
  -29.3600  -13.3830   20.4730 C   0  0  0  0  0  2  0  0  0  0  0  0
  -30.6530  -13.5800   19.7990 N   0  0  0  0  0  0  0  0  0  0  0  0
  -32.4260  -14.8380   19.1320 O   0  0  0  0  0  0  0  0  0  0  0  0
  -30.5720  -15.8850   19.8340 N   0  0  0  0  0  0  0  0  0  0  0  0
  -29.6520  -15.7620   20.2310 H   0  0  0  0  0  0  0  0  0  0  0  0
  -25.9780  -14.0790   20.3350 C   0  0  0  0  0  0  0  0  0  0  0  0
  -24.8910  -13.3630   20.7530 C   0  0  0  0  0  0  0  0  0  0  0  0
  -25.2460  -11.9860   20.6090 C   0  0  0  0  0  0  0  0  0  0  0  0
  -26.9320  -13.1430   19.9700 N   0  0  0  0  0  0  0  0  0  0  0  0
  -26.5000  -11.8760   20.1900 N   0  0  0  0  0  0  0  0  0  0  0  0
  -24.4450  -10.7680   20.7890 C   0  0  0  0  0  0  0  0  0  0  0  0
  -24.7880   -9.7930   21.7490 C   0  0  0  0  0  3  0  0  0  0  0  0
  -23.9910   -8.6400   21.9160 C   0  0  0  0  0  3  0  0  0  0  0  0
  -22.8360   -8.4550   21.1180 C   0  0  0  0  0  0  0  0  0  0  0  0
  -22.5110   -9.4190   20.1470 C   0  0  0  0  0  3  0  0  0  0  0  0
  -23.3110  -10.5620   19.9800 C   0  0  0  0  0  3  0  0  0  0  0  0
  -22.0160   -7.3550   21.1930 O   0  0  0  0  0  0  0  0  0  0  0  0
  -21.7620   -6.7240   22.3850 C   0  0  0  0  0  0  0  0  0  0  0  0
  -21.1570   -7.3970   23.4690 C   0  0  0  0  0  3  0  0  0  0  0  0
  -20.8480   -6.6940   24.6510 C   0  0  0  0  0  3  0  0  0  0  0  0
  -21.1360   -5.3200   24.7480 C   0  0  0  0  0  0  0  0  0  0  0  0
  -21.7360   -4.6470   23.6710 C   0  0  0  0  0  3  0  0  0  0  0  0
  -22.0450   -5.3470   22.4910 C   0  0  0  0  0  0  0  0  0  0  0  0
  -22.6010   -4.6880   21.4460 F   0  0  0  0  0  0  0  0  0  0  0  0
  -20.8330   -4.6430   25.8820 F   0  0  0  0  0  0  0  0  0  0  0  0
  -23.5620  -13.9190   21.1740 C   0  0  0  0  0  0  0  0  0  0  0  0
  -22.8660  -13.2280   22.0690 N   0  0  0  0  0  0  0  0  0  0  0  0
  -23.1560  -15.0010   20.7490 O   0  0  0  0  0  0  0  0  0  0  0  0
  -23.2130  -12.3520   22.4310 H   0  0  0  0  0  0  0  0  0  0  0  0
  -21.9760  -13.5750   22.3930 H   0  0  0  0  0  0  0  0  0  0  0  0
  -26.2310  -15.4430   20.2170 N   0  0  0  0  0  0  0  0  0  0  0  0
  -25.5210  -16.1410   20.4060 H   0  0  0  0  0  0  0  0  0  0  0  0
  -27.0910  -15.8430   19.8610 H   0  0  0  0  0  0  0  0  0  0  0  0
  -28.4810  -25.7160   20.9800 C   0  0  0  0  0  2  0  0  0  0  0  0
  -28.6060  -26.8930   20.1320 O   0  0  0  0  0  0  0  0  0  0  0  0
  -24.6600  -31.8800   23.4180 C   0  0  0  0  0  0  0  0  0  0  0  0
  -27.4940  -27.7080   20.1110 C   0  0  0  0  0  0  0  0  0  0  0  0
  -23.5580  -30.6020   21.6160 C   0  0  0  0  0  3  0  0  0  0  0  0
  -25.0980  -29.2130   20.1250 C   0  0  0  0  0  0  0  0  0  0  0  0
  -26.0860  -30.9970   21.5690 C   0  0  0  0  0  2  0  0  0  0  0  0
  -26.2200  -29.6810   20.8220 C   0  0  0  0  0  0  0  0  0  0  0  0
  -27.4230  -28.9320   20.8240 C   0  0  0  0  0  3  0  0  0  0  0  0
  -26.3790  -27.2970   19.3590 C   0  0  0  0  0  3  0  0  0  0  0  0
  -25.1750  -28.0220   19.3860 C   0  0  0  0  0  3  0  0  0  0  0  0
  -23.8390  -30.0500   20.1930 C   0  0  0  0  0  2  0  0  0  0  0  0
  -24.7830  -31.1720   22.2610 N   0  0  0  0  0  0  0  0  0  0  0  0
  -23.5500  -32.0900   23.9260 O   0  0  0  0  0  0  0  0  0  0  0  0
  -22.8870  -29.4900   22.4550 C   0  0  0  0  0  0  0  0  0  0  0  0
  -21.5680  -29.3170   22.2750 N   0  0  0  0  0  0  0  0  0  0  0  0
  -23.5520  -28.7930   23.2260 O   0  0  0  0  0  0  0  0  0  0  0  0
  -21.0900  -29.9600   21.6590 H   0  0  0  0  0  0  0  0  0  0  0  0
  -18.1850  -28.0840   22.5780 C   0  0  0  0  0  0  0  0  0  0  0  0
  -20.7350  -28.3020   22.9220 C   0  0  0  0  0  3  0  0  0  0  0  0
  -20.8480  -26.9390   22.2000 C   0  0  0  0  0  2  0  0  0  0  0  0
  -19.7650  -26.7250   21.1360 C   0  0  0  0  0  2  0  0  0  0  0  0
  -18.3690  -26.8150   21.7610 C   0  0  0  0  0  2  0  0  0  0  0  0
  -19.2970  -28.7920   23.1040 C   0  0  0  0  0  0  0  0  0  0  0  0
  -19.0710  -29.9920   23.8130 C   0  0  0  0  0  3  0  0  0  0  0  0
  -17.7650  -30.4740   24.0160 C   0  0  0  0  0  3  0  0  0  0  0  0
  -16.6650  -29.7550   23.5160 C   0  0  0  0  0  3  0  0  0  0  0  0
  -16.8760  -28.5640   22.7990 C   0  0  0  0  0  3  0  0  0  0  0  0
  -25.9030  -32.4810   24.1440 C   0  0  0  0  0  3  0  0  0  0  0  0
  -25.5960  -33.8820   24.4600 N   0  0  0  0  0  0  0  0  0  0  0  0
  -25.9930  -34.9310   23.7250 C   0  0  0  0  0  0  0  0  0  0  0  0
  -26.7240  -34.8190   22.7380 O   0  0  0  0  0  0  0  0  0  0  0  0
  -24.9540  -34.0430   25.2220 H   0  0  0  0  0  0  0  0  0  0  0  0
  -24.3090  -36.7430   23.2780 C   0  0  0  0  0  1  0  0  0  0  0  0
  -25.4990  -36.3240   24.1560 C   0  0  0  0  0  3  0  0  0  0  0  0
  -27.5930  -37.1910   25.1060 C   0  0  0  0  0  1  0  0  0  0  0  0
  -26.5500  -37.3640   24.0960 N   0  0  0  0  0  0  0  0  0  0  0  0
  -26.1490  -38.2910   24.2070 H   0  0  0  0  0  0  0  0  0  0  0  0
  -26.3000  -31.6910   25.4520 C   0  0  1  0  0  0  0  0  0  0  0  0
  -25.1180  -31.4600   26.4240 C   0  0  0  0  0  1  0  0  0  0  0  0
  -26.8940  -30.3100   25.0920 C   0  0  0  0  0  1  0  0  0  0  0  0
  -27.4030  -32.4600   26.2170 C   0  0  0  0  0  1  0  0  0  0  0  0
  1  4  2  0
  1  5  1  0
  2  6  2  0
  3  6  1  0
  4  2  1  0
  5  3  2  0
  6 55  1  0
  7  4  1  0
  8  7  1  0
  9  7  2  0
 10  8  1  0
 11  8  1  0
 12  5  1  0
 14 12  1  0
 14 15  1  0
 14 13  1  0
 16 25  1  0
 16 15  1  0
 17 23  1  0
 17 25  1  0
 18 23  1  0
 19 20  1  0
 19 18  1  0
 21 20  1  0
 21 30  1  0
 21 22  1  0
 23 22  1  0
 24 17  2  0
 25 26  1  0
 27 28  2  0
 28 47  1  0
 29 28  1  0
 29 32  1  0
 30 31  1  0
 30 27  1  0
 31 29  2  0
 32 33  1  0
 33 34  2  0
 35 38  1  0
 35 34  1  0
 36 35  2  0
 37 36  1  0
 37 32  2  0
 38 39  1  0
 39 44  2  0
 39 40  1  0
 40 41  2  0
 41 42  1  0
 42 46  1  0
 43 42  2  0
 44 43  1  0
 45 44  1  0
 47 48  1  0
 48 51  1  0
 48 50  1  0
 49 47  2  0
 52 27  1  0
 52 53  1  0
 54 52  1  0
 56 55  1  0
 57 68  2  0
 58 56  1  0
 58 63  1  0
 59 67  1  0
 59 69  1  0
 60 66  1  0
 60 62  1  0
 61 67  1  0
 62 63  2  0
 62 61  1  0
 64 65  1  0
 64 58  2  0
 65 60  2  0
 66 59  1  0
 67 57  1  0
 69 71  2  0
 70 69  1  0
 72 70  1  0
 73 82  2  0
 73 78  1  0
 74 70  1  0
 74 78  1  0
 75 74  1  0
 76 77  1  0
 76 75  1  0
 77 73  1  0
 78 79  2  0
 79 80  1  0
 81 80  2  0
 82 81  1  0
 83 57  1  0
 83 84  1  0
 83 93  1  0
 84 87  1  0
 85 89  1  0
 85 84  1  0
 86 85  2  0
 89 88  1  0
 91 89  1  0
 91 92  1  0
 91 90  1  0
 93 96  1  1
 93 94  1  0
 95 93  1  0
M  ISO  4  17 100  25 100  55 101  56 101
M  END
>  <TORSDO>  (58) 
F 22

>  <SCORE>  (58) 
-12.295

>  <name>  (58) 
59

>  <ligand_id>  (58) 
59

>  <original_smiles>  (58) 
[H]c1c([H])c([H])c2c(c1[H])C([H])([H])C([H])([H])C([H])([H])C2([H])N([H])C(=O)C1([H])N(C(=O)C([H])(N([H])C(=O)C([H])(N([H])C([H])([H])[H])C([H])([H])[H])C(C([H])([H])[H])(C([H])([H])[H])C([H])([H])[H])C([H])([H])c2c([H])c(OC([H])([H])c3c([H])c(C(=O)N([H])[H])c([H])c(C([H])([H])C([H])(C([H])([H])[H])C([H])([H])C([H])([H])N([H])C(=O)N4C([H])([H])C([H])([H])C([H])([H])C([H])(n5nc(-c6c([H])c([H])c(Oc7c([H])c([H])c(F)c([H])c7F)c([H])c6[H])c(C(=O)N([H])[H])c5N([H])[H])C4([H])[H])c3[H])c([H])c([H])c2C1([H])[H]

>  <smiles>  (58) 
[H]c1c([H])c([H])c2c(c1[H])C([H])([H])C([H])([H])C([H])([H])C2([H])N([H])C(=O)C1([H])N(C(=O)C([H])(N([H])C(=O)C([H])(N([H])C([H])([H])[H])C([H])([H])[H])C(C([H])([H])[H])(C([H])([H])[H])C([H])([H])[H])C([H])([H])c2c([H])c(OC([H])([H])c3c([H])c(C(=O)N([H])[H])c([H])c(C([H])([H])C([H])(C([H])([H])[H])C([H])([H])C([H])([H])N([H])C(=O)N4C([H])([H])C([H])([H])C([H])([H])C([H])(n5nc(-c6c([H])c([H])c(Oc7c([H])c([H])c(F)c([H])c7F)c([H])c6[H])c(C(=O)N([H])[H])c5N([H])[H])C4([H])[H])c3[H])c([H])c([H])c2C1([H])[H]

$$$$
60:0:0
     RDKit          3D

 90 98  0  0  1  0  0  0  0  0999 V2000
  -29.5390  -22.6910   20.0840 C   0  0  0  0  0  3  0  0  0  0  0  0
  -28.3360  -20.2880   20.6940 C   0  0  0  0  0  3  0  0  0  0  0  0
  -30.2230  -20.1130   19.6700 C   0  0  0  0  0  3  0  0  0  0  0  0
  -29.3580  -21.1080   20.1170 C   0  0  0  0  0  0  0  0  0  0  0  0
  -28.5670  -18.9630   20.6160 N   0  0  0  0  0  0  0  0  0  0  0  0
  -29.7630  -18.8210   19.9960 N   0  0  0  0  0  0  0  0  0  0  0  0
  -30.3870  -17.4720   19.6810 C   0  0  0  0  0  3  0  0  0  0  0  0
  -29.9560  -16.1150   20.4300 C   0  0  0  0  0  3  0  0  0  0  0  0
  -30.6970  -14.7700   19.9870 C   0  0  0  0  0  0  0  0  0  0  0  0
  -30.4410  -12.5220   18.9330 C   0  0  0  0  0  2  0  0  0  0  0  0
  -29.4480  -12.6470   17.7570 C   0  0  0  0  0  2  0  0  0  0  0  0
  -27.9950  -12.4820   18.2440 C   0  0  0  0  0  2  0  0  0  0  0  0
  -27.6850  -13.3320   19.5040 C   0  0  0  0  0  3  0  0  0  0  0  0
  -28.7940  -13.2050   20.5720 C   0  0  0  0  0  2  0  0  0  0  0  0
  -30.0730  -13.5450   19.9370 N   0  0  0  0  0  0  0  0  0  0  0  0
  -31.8480  -14.8750   19.5520 O   0  0  0  0  0  0  0  0  0  0  0  0
  -25.3270  -13.9030   20.3420 C   0  0  0  0  0  0  0  0  0  0  0  0
  -24.2820  -13.1190   20.7490 C   0  0  0  0  0  0  0  0  0  0  0  0
  -24.7510  -11.7720   20.6860 C   0  0  0  0  0  0  0  0  0  0  0  0
  -26.3640  -13.0310   20.0510 N   0  0  0  0  0  0  0  0  0  0  0  0
  -26.0270  -11.7440   20.3200 N   0  0  0  0  0  0  0  0  0  0  0  0
  -24.0400  -10.5030   20.8960 C   0  0  0  0  0  0  0  0  0  0  0  0
  -24.4830   -9.5550   21.8430 C   0  0  0  0  0  3  0  0  0  0  0  0
  -23.7710   -8.3510   22.0400 C   0  0  0  0  0  3  0  0  0  0  0  0
  -22.6000   -8.0880   21.2880 C   0  0  0  0  0  0  0  0  0  0  0  0
  -22.1760   -9.0260   20.3300 C   0  0  0  0  0  3  0  0  0  0  0  0
  -22.8900  -10.2200   20.1320 C   0  0  0  0  0  3  0  0  0  0  0  0
  -21.8600   -6.9360   21.3940 O   0  0  0  0  0  0  0  0  0  0  0  0
  -21.7840   -6.2350   22.5710 C   0  0  0  0  0  0  0  0  0  0  0  0
  -21.2790   -6.8160   23.7550 C   0  0  0  0  0  3  0  0  0  0  0  0
  -21.1500   -6.0380   24.9230 C   0  0  0  0  0  3  0  0  0  0  0  0
  -21.5220   -4.6810   24.9090 C   0  0  0  0  0  0  0  0  0  0  0  0
  -22.0220   -4.0990   23.7320 C   0  0  0  0  0  3  0  0  0  0  0  0
  -22.1490   -4.8730   22.5650 C   0  0  0  0  0  0  0  0  0  0  0  0
  -22.6110   -4.3020   21.4270 F   0  0  0  0  0  0  0  0  0  0  0  0
  -21.3940   -3.9310   26.0290 F   0  0  0  0  0  0  0  0  0  0  0  0
  -22.8950  -13.5870   21.0840 C   0  0  0  0  0  0  0  0  0  0  0  0
  -22.2080  -12.8750   21.9720 N   0  0  0  0  0  0  0  0  0  0  0  0
  -22.4310  -14.6160   20.5960 O   0  0  0  0  0  0  0  0  0  0  0  0
  -22.5980  -12.0430   22.3900 H   0  0  0  0  0  0  0  0  0  0  0  0
  -21.2770  -13.1670   22.2320 H   0  0  0  0  0  0  0  0  0  0  0  0
  -25.4780  -15.2750   20.1740 N   0  0  0  0  0  0  0  0  0  0  0  0
  -24.7200  -15.9300   20.3340 H   0  0  0  0  0  0  0  0  0  0  0  0
  -26.3160  -15.7210   19.8240 H   0  0  0  0  0  0  0  0  0  0  0  0
  -30.5530  -23.0890   21.1630 C   0  0  0  0  0  0  0  0  0  0  0  0
  -31.6690  -24.0350   20.7440 C   0  0  0  0  0  1  0  0  0  0  0  0
  -30.4760  -22.6660   22.3190 O   0  0  0  0  0  0  0  0  0  0  0  0
  -28.2730  -23.7020   20.0570 C   0  0  0  0  0  2  0  0  0  0  0  0
  -28.2190  -25.1540   20.7920 C   0  0  0  0  0  2  0  0  0  0  0  0
  -28.3530  -26.4870   20.1380 O   0  0  0  0  0  0  0  0  0  0  0  0
  -24.5830  -31.8830   23.2100 C   0  0  0  0  0  0  0  0  0  0  0  0
  -27.2410  -27.3450   20.1450 C   0  0  0  0  0  0  0  0  0  0  0  0
  -23.3990  -30.4880   21.5540 C   0  0  0  0  0  3  0  0  0  0  0  0
  -24.8680  -28.9490   20.1290 C   0  0  0  0  0  0  0  0  0  0  0  0
  -25.9400  -30.8190   21.3900 C   0  0  0  0  0  2  0  0  0  0  0  0
  -26.0330  -29.4430   20.7320 C   0  0  0  0  0  0  0  0  0  0  0  0
  -27.2270  -28.6560   20.7220 C   0  0  0  0  0  3  0  0  0  0  0  0
  -26.0530  -26.9000   19.5300 C   0  0  0  0  0  3  0  0  0  0  0  0
  -24.8820  -27.6840   19.5180 C   0  0  0  0  0  3  0  0  0  0  0  0
  -23.6260  -29.8180   20.1740 C   0  0  0  0  0  2  0  0  0  0  0  0
  -24.6600  -31.0810   22.1090 N   0  0  0  0  0  0  0  0  0  0  0  0
  -23.4940  -32.1520   23.7380 O   0  0  0  0  0  0  0  0  0  0  0  0
  -22.7340  -29.4640   22.5040 C   0  0  0  0  0  0  0  0  0  0  0  0
  -21.4050  -29.2970   22.3760 N   0  0  0  0  0  0  0  0  0  0  0  0
  -23.4090  -28.8230   23.3120 O   0  0  0  0  0  0  0  0  0  0  0  0
  -20.9190  -29.8650   21.6980 H   0  0  0  0  0  0  0  0  0  0  0  0
  -18.0180  -28.1340   22.8860 C   0  0  0  0  0  0  0  0  0  0  0  0
  -20.5820  -28.3520   23.1350 C   0  0  0  0  0  3  0  0  0  0  0  0
  -20.6580  -26.9340   22.5250 C   0  0  0  0  0  2  0  0  0  0  0  0
  -19.5410  -26.6490   21.5160 C   0  0  0  0  0  2  0  0  0  0  0  0
  -18.1680  -26.7980   22.1780 C   0  0  0  0  0  2  0  0  0  0  0  0
  -19.1510  -28.8720   23.3190 C   0  0  0  0  0  0  0  0  0  0  0  0
  -18.9530  -30.1240   23.9410 C   0  0  0  0  0  3  0  0  0  0  0  0
  -17.6570  -30.6380   24.1320 C   0  0  0  0  0  3  0  0  0  0  0  0
  -16.5400  -29.8970   23.7140 C   0  0  0  0  0  3  0  0  0  0  0  0
  -16.7200  -28.6460   23.0970 C   0  0  0  0  0  3  0  0  0  0  0  0
  -25.8560  -32.5170   23.8510 C   0  0  0  0  0  3  0  0  0  0  0  0
  -25.5460  -33.9190   24.1640 N   0  0  0  0  0  0  0  0  0  0  0  0
  -25.8890  -34.9650   23.4010 C   0  0  0  0  0  0  0  0  0  0  0  0
  -26.5680  -34.8510   22.3770 O   0  0  0  0  0  0  0  0  0  0  0  0
  -24.9420  -34.0820   24.9560 H   0  0  0  0  0  0  0  0  0  0  0  0
  -24.1740  -36.7640   23.0090 C   0  0  0  0  0  1  0  0  0  0  0  0
  -25.4020  -36.3600   23.8410 C   0  0  0  0  0  3  0  0  0  0  0  0
  -27.5250  -37.2440   24.7010 C   0  0  0  0  0  1  0  0  0  0  0  0
  -26.4420  -37.4070   23.7350 N   0  0  0  0  0  0  0  0  0  0  0  0
  -26.0380  -38.3310   23.8630 H   0  0  0  0  0  0  0  0  0  0  0  0
  -26.3460  -31.7550   25.1420 C   0  0  1  0  0  0  0  0  0  0  0  0
  -25.2330  -31.5270   26.1910 C   0  0  0  0  0  1  0  0  0  0  0  0
  -26.9320  -30.3730   24.7720 C   0  0  0  0  0  1  0  0  0  0  0  0
  -27.4880  -32.5510   25.8200 C   0  0  0  0  0  1  0  0  0  0  0  0
  1 48  1  0
  1  4  1  0
  1 45  1  0
  3  6  1  0
  3  4  2  0
  4  2  1  0
  5  2  2  0
  6  5  1  0
  7  6  1  0
  7  8  2  0
  9  8  1  0
 10 15  1  0
 11 12  1  0
 11 10  1  0
 13 12  1  0
 13 20  1  0
 13 14  1  0
 15  9  1  0
 15 14  1  0
 16  9  2  0
 17 18  2  0
 18 37  1  0
 19 18  1  0
 19 22  1  0
 20 21  1  0
 20 17  1  0
 21 19  2  0
 22 23  1  0
 23 24  2  0
 25 28  1  0
 25 24  1  0
 26 25  2  0
 27 26  1  0
 27 22  2  0
 28 29  1  0
 29 30  1  0
 30 31  2  0
 32 31  1  0
 32 36  1  0
 33 32  2  0
 34 29  2  0
 34 33  1  0
 35 34  1  0
 37 38  1  0
 38 41  1  0
 38 40  1  0
 39 37  2  0
 42 43  1  0
 42 17  1  0
 44 42  1  0
 45 47  2  0
 46 45  1  0
 48 49  1  0
 50 52  1  0
 50 49  1  0
 51 62  2  0
 52 57  1  0
 53 61  1  0
 53 63  1  0
 54 60  1  0
 54 56  1  0
 55 61  1  0
 56 55  1  0
 57 56  2  0
 58 52  2  0
 59 58  1  0
 59 54  2  0
 60 53  1  0
 61 51  1  0
 63 65  2  0
 64 63  1  0
 66 64  1  0
 67 76  2  0
 67 72  1  0
 68 64  1  0
 68 72  1  0
 69 68  1  0
 70 71  1  0
 70 69  1  0
 71 67  1  0
 72 73  2  0
 73 74  1  0
 75 74  2  0
 76 75  1  0
 77 51  1  0
 77 78  1  0
 77 87  1  0
 78 81  1  0
 79 83  1  0
 79 78  1  0
 80 79  2  0
 83 82  1  0
 85 83  1  0
 85 86  1  0
 85 84  1  0
 87 90  1  1
 87 88  1  0
 89 87  1  0
M  ISO  4   8 100   9 100  49 101  50 101
M  END
>  <TORSDO>  (59) 
F 22

>  <SCORE>  (59) 
-12.965

>  <name>  (59) 
60

>  <ligand_id>  (59) 
60

>  <original_smiles>  (59) 
[H]c1nn(C([H])([H])C([H])([H])C(=O)N2C([H])([H])C([H])([H])C([H])([H])C([H])(n3nc(-c4c([H])c([H])c(Oc5c([H])c([H])c(F)c([H])c5F)c([H])c4[H])c(C(=O)N([H])[H])c3N([H])[H])C2([H])[H])c([H])c1C([H])(C(=O)C([H])([H])[H])C([H])([H])C([H])([H])Oc1c([H])c([H])c2c(c1[H])C([H])([H])N(C(=O)C([H])(N([H])C(=O)C([H])(N([H])C([H])([H])[H])C([H])([H])[H])C(C([H])([H])[H])(C([H])([H])[H])C([H])([H])[H])C([H])(C(=O)N([H])C1([H])c3c([H])c([H])c([H])c([H])c3C([H])([H])C([H])([H])C1([H])[H])C2([H])[H]

>  <smiles>  (59) 
[H]c1nn(C([H])([H])C([H])([H])C(=O)N2C([H])([H])C([H])([H])C([H])([H])C([H])(n3nc(-c4c([H])c([H])c(Oc5c([H])c([H])c(F)c([H])c5F)c([H])c4[H])c(C(=O)N([H])[H])c3N([H])[H])C2([H])[H])c([H])c1C([H])(C(=O)C([H])([H])[H])C([H])([H])C([H])([H])Oc1c([H])c([H])c2c(c1[H])C([H])([H])N(C(=O)C([H])(N([H])C(=O)C([H])(N([H])C([H])([H])[H])C([H])([H])[H])C(C([H])([H])[H])(C([H])([H])[H])C([H])([H])[H])C([H])(C(=O)N([H])C1([H])c3c([H])c([H])c([H])c([H])c3C([H])([H])C([H])([H])C1([H])[H])C2([H])[H]

$$$$
61:0:0
     RDKit          3D

 95103  0  0  1  0  0  0  0  0999 V2000
  -28.5980  -20.9400   20.1090 C   0  0  0  0  0  3  0  0  0  0  0  0
  -31.7910  -19.0320   21.3120 C   0  0  0  0  0  3  0  0  0  0  0  0
  -30.8780  -20.0610   20.9960 C   0  0  0  0  0  3  0  0  0  0  0  0
  -31.4740  -17.6740   21.1030 C   0  0  0  0  0  3  0  0  0  0  0  0
  -29.3100  -18.3610   20.2420 C   0  0  0  0  0  3  0  0  0  0  0  0
  -29.6090  -19.7650   20.4530 C   0  0  0  0  0  0  0  0  0  0  0  0
  -30.2270  -17.2880   20.5610 C   0  0  0  0  0  0  0  0  0  0  0  0
  -30.6770  -14.7630   20.1270 C   0  0  0  0  0  0  0  0  0  0  0  0
  -30.4170  -12.5510   19.0110 C   0  0  0  0  0  2  0  0  0  0  0  0
  -29.4230  -12.6980   17.8380 C   0  0  0  0  0  2  0  0  0  0  0  0
  -27.9710  -12.5200   18.3260 C   0  0  0  0  0  2  0  0  0  0  0  0
  -27.6620  -13.3490   19.6010 C   0  0  0  0  0  3  0  0  0  0  0  0
  -28.7690  -13.1860   20.6660 C   0  0  0  0  0  2  0  0  0  0  0  0
  -30.0420  -13.5520   20.0300 N   0  0  0  0  0  0  0  0  0  0  0  0
  -31.8460  -14.8860   19.7470 O   0  0  0  0  0  0  0  0  0  0  0  0
  -29.8890  -15.8610   20.4170 N   0  0  0  0  0  0  0  0  0  0  0  0
  -28.9130  -15.6370   20.5310 H   0  0  0  0  0  0  0  0  0  0  0  0
  -25.3010  -13.9160   20.4360 C   0  0  0  0  0  0  0  0  0  0  0  0
  -24.2560  -13.1300   20.8360 C   0  0  0  0  0  0  0  0  0  0  0  0
  -24.7240  -11.7820   20.7620 C   0  0  0  0  0  0  0  0  0  0  0  0
  -26.3390  -13.0480   20.1400 N   0  0  0  0  0  0  0  0  0  0  0  0
  -26.0000  -11.7570   20.3990 N   0  0  0  0  0  0  0  0  0  0  0  0
  -24.0130  -10.5120   20.9570 C   0  0  0  0  0  0  0  0  0  0  0  0
  -24.4590   -9.5520   21.8920 C   0  0  0  0  0  3  0  0  0  0  0  0
  -23.7480   -8.3460   22.0760 C   0  0  0  0  0  3  0  0  0  0  0  0
  -22.5760   -8.0930   21.3240 C   0  0  0  0  0  0  0  0  0  0  0  0
  -22.1480   -9.0410   20.3790 C   0  0  0  0  0  3  0  0  0  0  0  0
  -22.8610  -10.2390   20.1930 C   0  0  0  0  0  3  0  0  0  0  0  0
  -21.8360   -6.9390   21.4170 O   0  0  0  0  0  0  0  0  0  0  0  0
  -21.7710   -6.2170   22.5820 C   0  0  0  0  0  0  0  0  0  0  0  0
  -21.2620   -6.7730   23.7770 C   0  0  0  0  0  3  0  0  0  0  0  0
  -21.1490   -5.9750   24.9320 C   0  0  0  0  0  3  0  0  0  0  0  0
  -21.5340   -4.6210   24.8940 C   0  0  0  0  0  0  0  0  0  0  0  0
  -22.0370   -4.0650   23.7050 C   0  0  0  0  0  3  0  0  0  0  0  0
  -22.1510   -4.8600   22.5520 C   0  0  0  0  0  0  0  0  0  0  0  0
  -22.6170   -4.3140   21.4020 F   0  0  0  0  0  0  0  0  0  0  0  0
  -21.4180   -3.8510   26.0010 F   0  0  0  0  0  0  0  0  0  0  0  0
  -22.8670  -13.5940   21.1700 C   0  0  0  0  0  0  0  0  0  0  0  0
  -22.1730  -12.8730   22.0430 N   0  0  0  0  0  0  0  0  0  0  0  0
  -22.4080  -14.6300   20.6920 O   0  0  0  0  0  0  0  0  0  0  0  0
  -22.5580  -12.0350   22.4520 H   0  0  0  0  0  0  0  0  0  0  0  0
  -21.2420  -13.1640   22.3050 H   0  0  0  0  0  0  0  0  0  0  0  0
  -25.4440  -15.2900   20.2740 N   0  0  0  0  0  0  0  0  0  0  0  0
  -24.6600  -15.9190   20.4050 H   0  0  0  0  0  0  0  0  0  0  0  0
  -26.2450  -15.7390   19.8500 H   0  0  0  0  0  0  0  0  0  0  0  0
  -27.3320  -20.6830   20.8300 N   0  0  0  0  0  4  0  0  0  0  0  0
  -27.4500  -20.7990   21.8210 H   0  0  0  0  0  0  0  0  0  0  0  0
  -27.0370  -19.7380   20.6650 H   0  0  0  0  0  0  0  0  0  0  0  0
  -26.5980  -21.2870   20.5070 H   0  0  0  0  0  0  0  0  0  0  0  0
  -29.0820  -22.5100   20.1960 C   0  0  0  0  0  2  0  0  0  0  0  0
  -27.1580  -23.8940   21.3950 C   0  0  0  0  0  1  0  0  0  0  0  0
  -29.5610  -24.3780   21.9390 C   0  0  0  0  0  1  0  0  0  0  0  0
  -28.5870  -23.9600   20.8050 C   0  0  1  0  0  0  0  0  0  0  0  0
  -28.6010  -25.1990   19.7760 C   0  0  0  0  0  2  0  0  0  0  0  0
  -28.4830  -26.5950   20.2870 O   0  0  0  0  0  0  0  0  0  0  0  0
  -24.5960  -31.9030   23.2410 C   0  0  0  0  0  0  0  0  0  0  0  0
  -27.3210  -27.3810   20.2160 C   0  0  0  0  0  0  0  0  0  0  0  0
  -23.4390  -30.4990   21.5700 C   0  0  0  0  0  3  0  0  0  0  0  0
  -24.9320  -28.9630   20.1710 C   0  0  0  0  0  0  0  0  0  0  0  0
  -25.9770  -30.8430   21.4380 C   0  0  0  0  0  2  0  0  0  0  0  0
  -26.0820  -29.4660   20.7900 C   0  0  0  0  0  0  0  0  0  0  0  0
  -27.2740  -28.6840   20.8030 C   0  0  0  0  0  3  0  0  0  0  0  0
  -26.1410  -26.9240   19.5860 C   0  0  0  0  0  3  0  0  0  0  0  0
  -24.9630  -27.6980   19.5640 C   0  0  0  0  0  3  0  0  0  0  0  0
  -23.6860  -29.8270   20.1930 C   0  0  0  0  0  2  0  0  0  0  0  0
  -24.6880  -31.1010   22.1400 N   0  0  0  0  0  0  0  0  0  0  0  0
  -23.4990  -32.1670   23.7550 O   0  0  0  0  0  0  0  0  0  0  0  0
  -22.7680  -29.4750   22.5150 C   0  0  0  0  0  0  0  0  0  0  0  0
  -21.4410  -29.3060   22.3790 N   0  0  0  0  0  0  0  0  0  0  0  0
  -23.4400  -28.8340   23.3280 O   0  0  0  0  0  0  0  0  0  0  0  0
  -20.9580  -29.8740   21.6980 H   0  0  0  0  0  0  0  0  0  0  0  0
  -18.0490  -28.1590   22.8860 C   0  0  0  0  0  0  0  0  0  0  0  0
  -20.6140  -28.3610   23.1310 C   0  0  0  0  0  3  0  0  0  0  0  0
  -20.6820  -26.9460   22.5130 C   0  0  0  0  0  2  0  0  0  0  0  0
  -19.5620  -26.6740   21.5020 C   0  0  0  0  0  2  0  0  0  0  0  0
  -18.1910  -26.8280   22.1670 C   0  0  0  0  0  2  0  0  0  0  0  0
  -19.1870  -28.8870   23.3230 C   0  0  0  0  0  0  0  0  0  0  0  0
  -19.0010  -30.1350   23.9560 C   0  0  0  0  0  3  0  0  0  0  0  0
  -17.7080  -30.6570   24.1530 C   0  0  0  0  0  3  0  0  0  0  0  0
  -16.5840  -29.9260   23.7300 C   0  0  0  0  0  3  0  0  0  0  0  0
  -16.7550  -28.6790   23.1030 C   0  0  0  0  0  3  0  0  0  0  0  0
  -25.8600  -32.5470   23.8920 C   0  0  0  0  0  3  0  0  0  0  0  0
  -25.5350  -33.9460   24.2030 N   0  0  0  0  0  0  0  0  0  0  0  0
  -25.8810  -34.9970   23.4460 C   0  0  0  0  0  0  0  0  0  0  0  0
  -26.5740  -34.8880   22.4310 O   0  0  0  0  0  0  0  0  0  0  0  0
  -24.9280  -34.1030   24.9940 H   0  0  0  0  0  0  0  0  0  0  0  0
  -24.1640  -36.7860   23.0280 C   0  0  0  0  0  1  0  0  0  0  0  0
  -25.3770  -36.3850   23.8830 C   0  0  0  0  0  3  0  0  0  0  0  0
  -27.4730  -37.2810   24.7930 C   0  0  0  0  0  1  0  0  0  0  0  0
  -26.4110  -37.4400   23.8030 N   0  0  0  0  0  0  0  0  0  0  0  0
  -25.9980  -38.3610   23.9250 H   0  0  0  0  0  0  0  0  0  0  0  0
  -26.3440  -31.7880   25.1890 C   0  0  1  0  0  0  0  0  0  0  0  0
  -25.2230  -31.5530   26.2270 C   0  0  0  0  0  1  0  0  0  0  0  0
  -26.9490  -30.4130   24.8260 C   0  0  0  0  0  1  0  0  0  0  0  0
  -27.4690  -32.5960   25.8800 C   0  0  0  0  0  1  0  0  0  0  0  0
  1 50  1  0
  1  6  1  0
  1 46  1  0
  3  2  2  0
  4  2  1  0
  5  6  2  0
  5  7  1  0
  6  3  1  0
  7  4  2  0
  8 16  1  0
  9 14  1  0
 10 11  1  0
 10  9  1  0
 12 11  1  0
 12 21  1  0
 12 13  1  0
 14  8  1  0
 14 13  1  0
 15  8  2  0
 16 17  1  0
 16  7  1  0
 18 19  2  0
 19 38  1  0
 20 19  1  0
 20 23  1  0
 21 22  1  0
 21 18  1  0
 22 20  2  0
 23 24  1  0
 24 25  2  0
 26 29  1  0
 26 25  1  0
 27 26  2  0
 28 27  1  0
 28 23  2  0
 29 30  1  0
 30 31  1  0
 31 32  2  0
 33 32  1  0
 33 37  1  0
 34 33  2  0
 35 30  2  0
 35 34  1  0
 36 35  1  0
 38 39  1  0
 39 42  1  0
 39 41  1  0
 40 38  2  0
 43 44  1  0
 43 18  1  0
 45 43  1  0
 46 47  1  0
 48 46  1  0
 49 46  1  0
 50 53  1  0
 53 51  1  1
 53 52  1  0
 54 55  1  0
 54 53  1  0
 56 67  2  0
 57 55  1  0
 57 62  1  0
 58 66  1  0
 58 68  1  0
 59 65  1  0
 59 61  1  0
 60 66  1  0
 61 62  2  0
 61 60  1  0
 63 57  2  0
 64 63  1  0
 64 59  2  0
 65 58  1  0
 66 56  1  0
 68 70  2  0
 69 68  1  0
 71 69  1  0
 72 81  2  0
 72 77  1  0
 73 69  1  0
 73 77  1  0
 74 73  1  0
 75 76  1  0
 75 74  1  0
 76 72  1  0
 77 78  2  0
 78 79  1  0
 80 79  2  0
 81 80  1  0
 82 56  1  0
 82 83  1  0
 82 92  1  0
 83 86  1  0
 84 88  1  0
 84 83  1  0
 85 84  2  0
 88 87  1  0
 90 88  1  0
 90 91  1  0
 90 89  1  0
 92 95  1  1
 92 93  1  0
 94 92  1  0
M  ISO  4   8 100  16 100  54 101  55 101
M  END
>  <TORSDO>  (60) 
F 21

>  <SCORE>  (60) 
-13.686

>  <name>  (60) 
61

>  <ligand_id>  (60) 
61

>  <original_smiles>  (60) 
[H]c1c([H])c([H])c2c(c1[H])C([H])([H])C([H])([H])C([H])([H])C2([H])N([H])C(=O)C1([H])N(C(=O)C([H])(N([H])C(=O)C([H])(N([H])C([H])([H])[H])C([H])([H])[H])C(C([H])([H])[H])(C([H])([H])[H])C([H])([H])[H])C([H])([H])c2c([H])c(OC([H])([H])C(C([H])([H])[H])(C([H])([H])[H])C([H])([H])C([H])(c3c([H])c([H])c([H])c(N([H])C(=O)N4C([H])([H])C([H])([H])C([H])([H])C([H])(n5nc(-c6c([H])c([H])c(Oc7c([H])c([H])c(F)c([H])c7F)c([H])c6[H])c(C(=O)N([H])[H])c5N([H])[H])C4([H])[H])c3[H])[N+]([H])([H])[H])c([H])c([H])c2C1([H])[H]

>  <smiles>  (60) 
[H]c1c([H])c([H])c2c(c1[H])C([H])([H])C([H])([H])C([H])([H])C2([H])N([H])C(=O)C1([H])N(C(=O)C([H])(N([H])C(=O)C([H])(N([H])C([H])([H])[H])C([H])([H])[H])C(C([H])([H])[H])(C([H])([H])[H])C([H])([H])[H])C([H])([H])c2c([H])c(OC([H])([H])C(C([H])([H])[H])(C([H])([H])[H])C([H])([H])C([H])(c3c([H])c([H])c([H])c(N([H])C(=O)N4C([H])([H])C([H])([H])C([H])([H])C([H])(n5nc(-c6c([H])c([H])c(Oc7c([H])c([H])c(F)c([H])c7F)c([H])c6[H])c(C(=O)N([H])[H])c5N([H])[H])C4([H])[H])c3[H])[N+]([H])([H])[H])c([H])c([H])c2C1([H])[H]

$$$$
62:0:0
     RDKit          3D

 95103  0  0  1  0  0  0  0  0999 V2000
  -28.3010  -23.6670   19.9490 C   0  0  0  0  0  3  0  0  0  0  0  0
  -29.1740  -22.6000   20.2090 C   0  0  0  0  0  0  0  0  0  0  0  0
  -30.9190  -23.4020   21.8550 C   0  0  0  0  0  1  0  0  0  0  0  0
  -30.6790  -22.9070   20.4120 C   0  0  0  0  0  3  0  0  0  0  0  0
  -31.7680  -21.8700   20.0110 C   0  0  0  0  0  2  0  0  0  0  0  0
  -32.8120  -20.2200   18.3880 C   0  0  0  0  0  1  0  0  0  0  0  0
  -31.7260  -21.2880   18.5850 C   0  0  0  0  0  2  0  0  0  0  0  0
  -28.6410  -21.0780   20.2580 C   0  0  0  0  0  2  0  0  0  0  0  0
  -30.1050  -19.8280   21.9720 C   0  0  0  0  0  3  0  0  0  0  0  0
  -30.7660  -18.7080   22.5060 C   0  0  0  0  0  3  0  0  0  0  0  0
  -29.2960  -18.4200   20.1710 C   0  0  0  0  0  3  0  0  0  0  0  0
  -29.3960  -19.7540   20.7600 C   0  0  0  0  0  0  0  0  0  0  0  0
  -30.6970  -17.4320   21.9040 C   0  0  0  0  0  0  0  0  0  0  0  0
  -29.9590  -17.2320   20.7050 C   0  0  0  0  0  0  0  0  0  0  0  0
  -31.3340  -16.2830   22.6710 C   0  0  0  0  0  1  0  0  0  0  0  0
  -30.5610  -14.7480   19.9970 C   0  0  0  0  0  0  0  0  0  0  0  0
  -30.3440  -12.4730   18.9530 C   0  0  0  0  0  2  0  0  0  0  0  0
  -29.3410  -12.5440   17.7780 C   0  0  0  0  0  2  0  0  0  0  0  0
  -27.8880  -12.3950   18.2780 C   0  0  0  0  0  2  0  0  0  0  0  0
  -27.5890  -13.2840   19.5140 C   0  0  0  0  0  3  0  0  0  0  0  0
  -28.6960  -13.1320   20.5760 C   0  0  0  0  0  2  0  0  0  0  0  0
  -29.9560  -13.5150   19.9270 N   0  0  0  0  0  0  0  0  0  0  0  0
  -31.7430  -14.8740   19.6450 O   0  0  0  0  0  0  0  0  0  0  0  0
  -29.7260  -15.8420   20.2240 N   0  0  0  0  0  0  0  0  0  0  0  0
  -28.7530  -15.5710   20.2520 H   0  0  0  0  0  0  0  0  0  0  0  0
  -25.2560  -13.9340   20.3530 C   0  0  0  0  0  0  0  0  0  0  0  0
  -24.1890  -13.1810   20.7650 C   0  0  0  0  0  0  0  0  0  0  0  0
  -24.6190  -11.8210   20.7040 C   0  0  0  0  0  0  0  0  0  0  0  0
  -26.2640  -13.0290   20.0620 N   0  0  0  0  0  0  0  0  0  0  0  0
  -25.8910  -11.7540   20.3340 N   0  0  0  0  0  0  0  0  0  0  0  0
  -23.8750  -10.5740   20.9180 C   0  0  0  0  0  0  0  0  0  0  0  0
  -24.3130   -9.6050   21.8470 C   0  0  0  0  0  3  0  0  0  0  0  0
  -23.5690   -8.4220   22.0500 C   0  0  0  0  0  3  0  0  0  0  0  0
  -22.3750   -8.2030   21.3250 C   0  0  0  0  0  0  0  0  0  0  0  0
  -21.9560   -9.1610   20.3840 C   0  0  0  0  0  3  0  0  0  0  0  0
  -22.6990  -10.3340   20.1790 C   0  0  0  0  0  3  0  0  0  0  0  0
  -21.6010   -7.0730   21.4370 O   0  0  0  0  0  0  0  0  0  0  0  0
  -21.5490   -6.3520   22.6010 C   0  0  0  0  0  0  0  0  0  0  0  0
  -21.1570   -6.9380   23.8250 C   0  0  0  0  0  3  0  0  0  0  0  0
  -21.0500   -6.1440   24.9840 C   0  0  0  0  0  3  0  0  0  0  0  0
  -21.3230   -4.7640   24.9200 C   0  0  0  0  0  0  0  0  0  0  0  0
  -21.7090   -4.1780   23.7020 C   0  0  0  0  0  3  0  0  0  0  0  0
  -21.8180   -4.9700   22.5450 C   0  0  0  0  0  0  0  0  0  0  0  0
  -22.1690   -4.3970   21.3690 F   0  0  0  0  0  0  0  0  0  0  0  0
  -21.2140   -3.9980   26.0310 F   0  0  0  0  0  0  0  0  0  0  0  0
  -22.8190  -13.6910   21.1070 C   0  0  0  0  0  0  0  0  0  0  0  0
  -22.1210  -13.0110   22.0090 N   0  0  0  0  0  0  0  0  0  0  0  0
  -22.3800  -14.7270   20.6080 O   0  0  0  0  0  0  0  0  0  0  0  0
  -22.4880  -12.1660   22.4240 H   0  0  0  0  0  0  0  0  0  0  0  0
  -21.2090  -13.3400   22.2920 H   0  0  0  0  0  0  0  0  0  0  0  0
  -25.4460  -15.3020   20.1820 N   0  0  0  0  0  0  0  0  0  0  0  0
  -24.7030  -15.9690   20.3580 H   0  0  0  0  0  0  0  0  0  0  0  0
  -26.2760  -15.7310   19.8000 H   0  0  0  0  0  0  0  0  0  0  0  0
  -28.5610  -25.1920   19.5070 C   0  0  0  0  0  2  0  0  0  0  0  0
  -28.2590  -26.4180   20.3040 O   0  0  0  0  0  0  0  0  0  0  0  0
  -24.5680  -31.8750   23.1810 C   0  0  0  0  0  0  0  0  0  0  0  0
  -27.1600  -27.2850   20.1230 C   0  0  0  0  0  0  0  0  0  0  0  0
  -23.3530  -30.4740   21.5470 C   0  0  0  0  0  3  0  0  0  0  0  0
  -24.7970  -28.9270   20.0920 C   0  0  0  0  0  0  0  0  0  0  0  0
  -25.8870  -30.7940   21.3470 C   0  0  0  0  0  2  0  0  0  0  0  0
  -25.9640  -29.4130   20.6910 C   0  0  0  0  0  0  0  0  0  0  0  0
  -27.1390  -28.6020   20.6990 C   0  0  0  0  0  3  0  0  0  0  0  0
  -25.9790  -26.8670   19.4690 C   0  0  0  0  0  3  0  0  0  0  0  0
  -24.8120  -27.6660   19.4630 C   0  0  0  0  0  3  0  0  0  0  0  0
  -23.5570  -29.8010   20.1620 C   0  0  0  0  0  2  0  0  0  0  0  0
  -24.6200  -31.0660   22.0820 N   0  0  0  0  0  0  0  0  0  0  0  0
  -23.4910  -32.1540   23.7250 O   0  0  0  0  0  0  0  0  0  0  0  0
  -22.6990  -29.4580   22.5140 C   0  0  0  0  0  0  0  0  0  0  0  0
  -21.3680  -29.2950   22.4140 N   0  0  0  0  0  0  0  0  0  0  0  0
  -23.3870  -28.8210   23.3140 O   0  0  0  0  0  0  0  0  0  0  0  0
  -20.8690  -29.8730   21.7520 H   0  0  0  0  0  0  0  0  0  0  0  0
  -17.9940  -28.1180   22.9530 C   0  0  0  0  0  0  0  0  0  0  0  0
  -20.5560  -28.3590   23.1930 C   0  0  0  0  0  3  0  0  0  0  0  0
  -20.6390  -26.9280   22.6120 C   0  0  0  0  0  2  0  0  0  0  0  0
  -19.5230  -26.6160   21.6090 C   0  0  0  0  0  2  0  0  0  0  0  0
  -18.1530  -26.7680   22.2710 C   0  0  0  0  0  2  0  0  0  0  0  0
  -19.1230  -28.8720   23.3690 C   0  0  0  0  0  0  0  0  0  0  0  0
  -18.9180  -30.1350   23.9660 C   0  0  0  0  0  3  0  0  0  0  0  0
  -17.6200  -30.6450   24.1470 C   0  0  0  0  0  3  0  0  0  0  0  0
  -16.5060  -29.8860   23.7430 C   0  0  0  0  0  3  0  0  0  0  0  0
  -16.6940  -28.6230   23.1530 C   0  0  0  0  0  3  0  0  0  0  0  0
  -25.8560  -32.5040   23.7940 C   0  0  0  0  0  3  0  0  0  0  0  0
  -25.5560  -33.9030   24.1340 N   0  0  0  0  0  0  0  0  0  0  0  0
  -25.8900  -34.9570   23.3770 C   0  0  0  0  0  0  0  0  0  0  0  0
  -26.5500  -34.8580   22.3400 O   0  0  0  0  0  0  0  0  0  0  0  0
  -24.9670  -34.0580   24.9380 H   0  0  0  0  0  0  0  0  0  0  0  0
  -24.1630  -36.7560   23.0550 C   0  0  0  0  0  1  0  0  0  0  0  0
  -25.4130  -36.3440   23.8500 C   0  0  0  0  0  3  0  0  0  0  0  0
  -27.5580  -37.2170   24.6630 C   0  0  0  0  0  1  0  0  0  0  0  0
  -26.4460  -37.3940   23.7320 N   0  0  0  0  0  0  0  0  0  0  0  0
  -26.0430  -38.3140   23.8910 H   0  0  0  0  0  0  0  0  0  0  0  0
  -26.3910  -31.7290   25.0610 C   0  0  1  0  0  0  0  0  0  0  0  0
  -25.3080  -31.4920   26.1400 C   0  0  0  0  0  1  0  0  0  0  0  0
  -26.9650  -30.3530   24.6530 C   0  0  0  0  0  1  0  0  0  0  0  0
  -27.5510  -32.5210   25.7100 C   0  0  0  0  0  1  0  0  0  0  0  0
  1  2  2  0
  2  8  1  0
  2  4  1  0
  4  3  1  0
  5  4  1  0
  6  7  1  0
  7  5  1  0
  8 12  1  0
  9 10  1  0
 11 14  2  0
 11 12  1  0
 12  9  2  0
 13 10  2  0
 13 15  1  0
 14 13  1  0
 16 24  1  0
 17 22  1  0
 18 19  1  0
 18 17  1  0
 20 19  1  0
 20 29  1  0
 20 21  1  0
 22 16  1  0
 22 21  1  0
 23 16  2  0
 24 25  1  0
 24 14  1  0
 26 27  2  0
 27 46  1  0
 28 27  1  0
 28 31  1  0
 29 30  1  0
 29 26  1  0
 30 28  2  0
 31 32  1  0
 32 33  2  0
 34 37  1  0
 34 33  1  0
 35 34  2  0
 36 35  1  0
 36 31  2  0
 37 38  1  0
 38 39  1  0
 39 40  2  0
 41 40  1  0
 41 45  1  0
 42 41  2  0
 43 38  2  0
 43 42  1  0
 44 43  1  0
 46 47  1  0
 47 50  1  0
 47 49  1  0
 48 46  2  0
 51 26  1  0
 51 52  1  0
 53 51  1  0
 54  1  1  0
 54 55  1  0
 56 67  2  0
 57 55  1  0
 57 62  1  0
 58 66  1  0
 58 68  1  0
 59 65  1  0
 59 61  1  0
 60 66  1  0
 61 62  2  0
 61 60  1  0
 63 57  2  0
 64 63  1  0
 64 59  2  0
 65 58  1  0
 66 56  1  0
 68 70  2  0
 69 68  1  0
 71 69  1  0
 72 81  2  0
 72 77  1  0
 73 69  1  0
 73 77  1  0
 74 73  1  0
 75 76  1  0
 75 74  1  0
 76 72  1  0
 77 78  2  0
 78 79  1  0
 80 79  2  0
 81 80  1  0
 82 56  1  0
 82 83  1  0
 82 92  1  0
 83 86  1  0
 84 88  1  0
 84 83  1  0
 85 84  2  0
 88 87  1  0
 90 88  1  0
 90 91  1  0
 90 89  1  0
 92 95  1  1
 92 93  1  0
 94 92  1  0
M  ISO  4  16 100  24 100  54 101  55 101
M  END
>  <TORSDO>  (61) 
F 22

>  <SCORE>  (61) 
-12.017

>  <name>  (61) 
62

>  <ligand_id>  (61) 
62

>  <original_smiles>  (61) 
[H]C(=C(C([H])([H])c1c([H])c([H])c(C([H])([H])[H])c(N([H])C(=O)N2C([H])([H])C([H])([H])C([H])([H])C([H])(n3nc(-c4c([H])c([H])c(Oc5c([H])c([H])c(F)c([H])c5F)c([H])c4[H])c(C(=O)N([H])[H])c3N([H])[H])C2([H])[H])c1[H])C([H])(C([H])([H])[H])C([H])([H])C([H])([H])C([H])([H])[H])C([H])([H])Oc1c([H])c([H])c2c(c1[H])C([H])([H])N(C(=O)C([H])(N([H])C(=O)C([H])(N([H])C([H])([H])[H])C([H])([H])[H])C(C([H])([H])[H])(C([H])([H])[H])C([H])([H])[H])C([H])(C(=O)N([H])C1([H])c3c([H])c([H])c([H])c([H])c3C([H])([H])C([H])([H])C1([H])[H])C2([H])[H]

>  <smiles>  (61) 
[H]C(=C(C([H])([H])c1c([H])c([H])c(C([H])([H])[H])c(N([H])C(=O)N2C([H])([H])C([H])([H])C([H])([H])C([H])(n3nc(-c4c([H])c([H])c(Oc5c([H])c([H])c(F)c([H])c5F)c([H])c4[H])c(C(=O)N([H])[H])c3N([H])[H])C2([H])[H])c1[H])C([H])(C([H])([H])[H])C([H])([H])C([H])([H])C([H])([H])[H])C([H])([H])Oc1c([H])c([H])c2c(c1[H])C([H])([H])N(C(=O)C([H])(N([H])C(=O)C([H])(N([H])C([H])([H])[H])C([H])([H])[H])C(C([H])([H])[H])(C([H])([H])[H])C([H])([H])[H])C([H])(C(=O)N([H])C1([H])c3c([H])c([H])c([H])c([H])c3C([H])([H])C([H])([H])C1([H])[H])C2([H])[H]

$$$$
63:0:0
     RDKit          3D

 92100  0  0  1  0  0  0  0  0999 V2000
  -30.5030  -18.2170   19.9510 C   0  0  0  0  0  3  0  0  0  0  0  0
  -30.4800  -19.6270   19.9110 C   0  0  0  0  0  0  0  0  0  0  0  0
  -33.3400  -21.7020   18.5450 C   0  0  0  0  0  3  0  0  0  0  0  0
  -32.4670  -21.0890   19.4600 C   0  0  0  0  0  3  0  0  0  0  0  0
  -33.1700  -21.4440   17.1760 C   0  0  0  0  0  3  0  0  0  0  0  0
  -31.3720  -20.0410   17.5850 C   0  0  0  0  0  3  0  0  0  0  0  0
  -31.4480  -20.2410   18.9790 C   0  0  0  0  0  0  0  0  0  0  0  0
  -32.2110  -20.6250   16.6970 N   0  0  0  0  0  0  0  0  0  0  0  0
  -29.7730  -17.1060   20.7330 C   0  0  0  0  0  0  0  0  0  0  0  0
  -28.7570  -17.6720   21.7070 C   0  0  0  0  0  1  0  0  0  0  0  0
  -29.8160  -15.7750   20.7340 N   0  0  0  0  0  0  0  0  0  0  0  0
  -30.6060  -14.7940   20.0420 C   0  0  0  0  0  0  0  0  0  0  0  0
  -30.3800  -12.5550   18.8930 C   0  0  0  0  0  2  0  0  0  0  0  0
  -29.3480  -12.6740   17.7470 C   0  0  0  0  0  2  0  0  0  0  0  0
  -27.9080  -12.4840   18.2670 C   0  0  0  0  0  2  0  0  0  0  0  0
  -27.6290  -13.3120   19.5480 C   0  0  0  0  0  3  0  0  0  0  0  0
  -28.7600  -13.1270   20.5820 C   0  0  0  0  0  2  0  0  0  0  0  0
  -30.0200  -13.5440   19.9380 N   0  0  0  0  0  0  0  0  0  0  0  0
  -31.6930  -14.9910   19.4980 O   0  0  0  0  0  0  0  0  0  0  0  0
  -25.2940  -13.9050   20.4410 C   0  0  0  0  0  0  0  0  0  0  0  0
  -24.2430  -13.1300   20.8520 C   0  0  0  0  0  0  0  0  0  0  0  0
  -24.6860  -11.7760   20.7470 C   0  0  0  0  0  0  0  0  0  0  0  0
  -26.3110  -13.0220   20.1090 N   0  0  0  0  0  0  0  0  0  0  0  0
  -25.9520  -11.7340   20.3500 N   0  0  0  0  0  0  0  0  0  0  0  0
  -23.9580  -10.5150   20.9440 C   0  0  0  0  0  0  0  0  0  0  0  0
  -24.4170   -9.5310   21.8470 C   0  0  0  0  0  3  0  0  0  0  0  0
  -23.6900   -8.3370   22.0340 C   0  0  0  0  0  3  0  0  0  0  0  0
  -22.4890   -8.1150   21.3190 C   0  0  0  0  0  0  0  0  0  0  0  0
  -22.0480   -9.0880   20.4050 C   0  0  0  0  0  3  0  0  0  0  0  0
  -22.7760  -10.2750   20.2160 C   0  0  0  0  0  3  0  0  0  0  0  0
  -21.7330   -6.9720   21.4150 O   0  0  0  0  0  0  0  0  0  0  0  0
  -21.6950   -6.2290   22.5680 C   0  0  0  0  0  0  0  0  0  0  0  0
  -21.2460   -6.7730   23.7900 C   0  0  0  0  0  3  0  0  0  0  0  0
  -21.1580   -5.9550   24.9350 C   0  0  0  0  0  3  0  0  0  0  0  0
  -21.5100   -4.5950   24.8570 C   0  0  0  0  0  0  0  0  0  0  0  0
  -21.9530   -4.0490   23.6390 C   0  0  0  0  0  3  0  0  0  0  0  0
  -22.0420   -4.8640   22.4980 C   0  0  0  0  0  0  0  0  0  0  0  0
  -22.4500   -4.3300   21.3210 F   0  0  0  0  0  0  0  0  0  0  0  0
  -21.4180   -3.8060   25.9540 F   0  0  0  0  0  0  0  0  0  0  0  0
  -22.8730  -13.6120   21.2310 C   0  0  0  0  0  0  0  0  0  0  0  0
  -22.1910  -12.8920   22.1160 N   0  0  0  0  0  0  0  0  0  0  0  0
  -22.4150  -14.6600   20.7780 O   0  0  0  0  0  0  0  0  0  0  0  0
  -22.5750  -12.0440   22.5060 H   0  0  0  0  0  0  0  0  0  0  0  0
  -21.2760  -13.1990   22.4110 H   0  0  0  0  0  0  0  0  0  0  0  0
  -25.4630  -15.2780   20.3010 N   0  0  0  0  0  0  0  0  0  0  0  0
  -24.7210  -15.9430   20.4930 H   0  0  0  0  0  0  0  0  0  0  0  0
  -26.3170  -15.7160   19.9760 H   0  0  0  0  0  0  0  0  0  0  0  0
  -29.6550  -20.7770   20.6740 C   0  0  0  0  0  2  0  0  0  0  0  0
  -29.1690  -22.1520   19.9080 C   0  0  0  0  0  2  0  0  0  0  0  0
  -29.1490  -23.6390   20.6020 C   0  0  0  0  0  3  0  0  0  0  0  0
  -28.2690  -24.8680   19.9740 C   0  0  0  0  0  3  0  0  0  0  0  0
  -28.4120  -26.3290   20.3650 O   0  0  0  0  0  0  0  0  0  0  0  0
  -24.6560  -31.8470   23.2730 C   0  0  0  0  0  0  0  0  0  0  0  0
  -27.3230  -27.2380   20.2560 C   0  0  0  0  0  0  0  0  0  0  0  0
  -23.4920  -30.4620   21.5980 C   0  0  0  0  0  3  0  0  0  0  0  0
  -24.9720  -28.9120   20.1910 C   0  0  0  0  0  0  0  0  0  0  0  0
  -26.0410  -30.7560   21.4840 C   0  0  0  0  0  2  0  0  0  0  0  0
  -26.1310  -29.3750   20.8280 C   0  0  0  0  0  0  0  0  0  0  0  0
  -27.3050  -28.5490   20.8520 C   0  0  0  0  0  3  0  0  0  0  0  0
  -26.1450  -26.8620   19.5690 C   0  0  0  0  0  3  0  0  0  0  0  0
  -24.9880  -27.6660   19.5510 C   0  0  0  0  0  3  0  0  0  0  0  0
  -23.7400  -29.7980   20.2170 C   0  0  0  0  0  2  0  0  0  0  0  0
  -24.7470  -31.0400   22.1740 N   0  0  0  0  0  0  0  0  0  0  0  0
  -23.5610  -32.1250   23.7820 O   0  0  0  0  0  0  0  0  0  0  0  0
  -22.8000  -29.4420   22.5360 C   0  0  0  0  0  0  0  0  0  0  0  0
  -21.4730  -29.2860   22.3930 N   0  0  0  0  0  0  0  0  0  0  0  0
  -23.4580  -28.7970   23.3560 O   0  0  0  0  0  0  0  0  0  0  0  0
  -21.0000  -29.8550   21.7050 H   0  0  0  0  0  0  0  0  0  0  0  0
  -18.0680  -28.1610   22.8820 C   0  0  0  0  0  0  0  0  0  0  0  0
  -20.6330  -28.3500   23.1440 C   0  0  0  0  0  3  0  0  0  0  0  0
  -20.6970  -26.9330   22.5290 C   0  0  0  0  0  2  0  0  0  0  0  0
  -19.5810  -26.6650   21.5130 C   0  0  0  0  0  2  0  0  0  0  0  0
  -18.2070  -26.8270   22.1670 C   0  0  0  0  0  2  0  0  0  0  0  0
  -19.2070  -28.8820   23.3280 C   0  0  0  0  0  0  0  0  0  0  0  0
  -19.0230  -30.1310   23.9600 C   0  0  0  0  0  3  0  0  0  0  0  0
  -17.7320  -30.6590   24.1470 C   0  0  0  0  0  3  0  0  0  0  0  0
  -16.6060  -29.9350   23.7150 C   0  0  0  0  0  3  0  0  0  0  0  0
  -16.7750  -28.6860   23.0910 C   0  0  0  0  0  3  0  0  0  0  0  0
  -25.9240  -32.4760   23.9300 C   0  0  0  0  0  3  0  0  0  0  0  0
  -25.6140  -33.8800   24.2410 N   0  0  0  0  0  0  0  0  0  0  0  0
  -25.9610  -34.9230   23.4780 C   0  0  0  0  0  0  0  0  0  0  0  0
  -26.6430  -34.8080   22.4560 O   0  0  0  0  0  0  0  0  0  0  0  0
  -25.0100  -34.0440   25.0340 H   0  0  0  0  0  0  0  0  0  0  0  0
  -24.2480  -36.7230   23.0800 C   0  0  0  0  0  1  0  0  0  0  0  0
  -25.4740  -36.3190   23.9140 C   0  0  0  0  0  3  0  0  0  0  0  0
  -27.5930  -37.2060   24.7820 C   0  0  0  0  0  1  0  0  0  0  0  0
  -26.5150  -37.3660   23.8100 N   0  0  0  0  0  0  0  0  0  0  0  0
  -26.1110  -38.2900   23.9330 H   0  0  0  0  0  0  0  0  0  0  0  0
  -26.3910  -31.7130   25.2300 C   0  0  1  0  0  0  0  0  0  0  0  0
  -25.2600  -31.4930   26.2630 C   0  0  0  0  0  1  0  0  0  0  0  0
  -26.9760  -30.3270   24.8710 C   0  0  0  0  0  1  0  0  0  0  0  0
  -27.5240  -32.5060   25.9240 C   0  0  0  0  0  1  0  0  0  0  0  0
  1  9  1  0
  2  1  2  0
  2 48  1  0
  3  4  1  0
  5  3  2  0
  6  7  1  0
  7  4  2  0
  7  2  1  0
  8  5  1  0
  8  6  2  0
  9 11  2  0
  9 10  1  0
 12 11  1  0
 13 18  1  0
 14 15  1  0
 14 13  1  0
 16 15  1  0
 16 23  1  0
 16 17  1  0
 18 12  1  0
 18 17  1  0
 19 12  2  0
 20 21  2  0
 21 40  1  0
 22 21  1  0
 22 25  1  0
 23 24  1  0
 23 20  1  0
 24 22  2  0
 25 26  1  0
 26 27  2  0
 28 31  1  0
 28 27  1  0
 29 28  2  0
 30 29  1  0
 30 25  2  0
 31 32  1  0
 32 33  1  0
 33 34  2  0
 35 34  1  0
 35 39  1  0
 36 35  2  0
 37 32  2  0
 37 36  1  0
 38 37  1  0
 40 41  1  0
 41 44  1  0
 41 43  1  0
 42 40  2  0
 45 20  1  0
 45 46  1  0
 47 45  1  0
 49 50  1  0
 49 48  1  0
 51 52  1  0
 51 50  2  0
 53 64  2  0
 54 52  1  0
 54 59  1  0
 55 63  1  0
 55 65  1  0
 56 62  1  0
 56 58  1  0
 57 63  1  0
 58 59  2  0
 58 57  1  0
 60 54  2  0
 61 60  1  0
 61 56  2  0
 62 55  1  0
 63 53  1  0
 65 67  2  0
 66 65  1  0
 68 66  1  0
 69 78  2  0
 69 74  1  0
 70 66  1  0
 70 74  1  0
 71 70  1  0
 72 73  1  0
 72 71  1  0
 73 69  1  0
 74 75  2  0
 75 76  1  0
 77 76  2  0
 78 77  1  0
 79 53  1  0
 79 80  1  0
 79 89  1  0
 80 83  1  0
 81 85  1  0
 81 80  1  0
 82 81  2  0
 85 84  1  0
 87 85  1  0
 87 88  1  0
 87 86  1  0
 89 92  1  1
 89 90  1  0
 91 89  1  0
M  ISO  4  11 100  12 100  51 101  52 101
M  END
>  <TORSDO>  (62) 
F 22

>  <SCORE>  (62) 
-11.862

>  <name>  (62) 
63

>  <ligand_id>  (62) 
63

>  <original_smiles>  (62) 
[H]C(C(=NC(=O)N1C([H])([H])C([H])([H])C([H])([H])C([H])(n2nc(-c3c([H])c([H])c(Oc4c([H])c([H])c(F)c([H])c4F)c([H])c3[H])c(C(=O)N([H])[H])c2N([H])[H])C1([H])[H])C([H])([H])[H])=C(c1c([H])nc([H])c([H])c1[H])C([H])([H])C([H])([H])C([H])([H])C([H])([H])Oc1c([H])c([H])c2c(c1[H])C([H])([H])N(C(=O)C([H])(N([H])C(=O)C([H])(N([H])C([H])([H])[H])C([H])([H])[H])C(C([H])([H])[H])(C([H])([H])[H])C([H])([H])[H])C([H])(C(=O)N([H])C1([H])c3c([H])c([H])c([H])c([H])c3C([H])([H])C([H])([H])C1([H])[H])C2([H])[H]

>  <smiles>  (62) 
[H]C(C(=NC(=O)N1C([H])([H])C([H])([H])C([H])([H])C([H])(n2nc(-c3c([H])c([H])c(Oc4c([H])c([H])c(F)c([H])c4F)c([H])c3[H])c(C(=O)N([H])[H])c2N([H])[H])C1([H])[H])C([H])([H])[H])=C(c1c([H])nc([H])c([H])c1[H])C([H])([H])C([H])([H])C([H])([H])C([H])([H])Oc1c([H])c([H])c2c(c1[H])C([H])([H])N(C(=O)C([H])(N([H])C(=O)C([H])(N([H])C([H])([H])[H])C([H])([H])[H])C(C([H])([H])[H])(C([H])([H])[H])C([H])([H])[H])C([H])(C(=O)N([H])C1([H])c3c([H])c([H])c([H])c([H])c3C([H])([H])C([H])([H])C1([H])[H])C2([H])[H]

$$$$
64:0:0
     RDKit          3D

 93101  0  0  1  0  0  0  0  0999 V2000
  -29.6440  -21.4490   19.9230 C   0  0  0  0  0  0  0  0  0  0  0  0
  -29.2530  -22.7030   20.4260 N   0  0  0  0  0  0  0  0  0  0  0  0
  -30.4970  -21.4140   18.8770 N   0  0  0  0  0  4  0  0  0  0  0  0
  -30.8320  -20.5380   18.5020 H   0  0  0  0  0  0  0  0  0  0  0  0
  -30.7970  -22.2500   18.3980 H   0  0  0  0  0  0  0  0  0  0  0  0
  -29.5370  -23.6620   23.3310 C   0  0  0  0  0  2  0  0  0  0  0  0
  -28.3960  -24.1350   22.4360 C   0  0  0  0  0  2  0  0  0  0  0  0
  -29.1730  -22.2290   22.9360 C   0  0  0  0  0  2  0  0  0  0  0  0
  -28.4470  -22.7740   21.6830 C   0  0  0  0  0  3  0  0  0  0  0  0
  -29.1120  -20.0320   20.3900 C   0  0  0  0  0  2  0  0  0  0  0  0
  -30.1140  -18.8060   20.7390 C   0  0  0  0  0  2  0  0  0  0  0  0
  -29.8020  -17.3580   20.0920 C   0  0  0  0  0  2  0  0  0  0  0  0
  -30.8340  -14.9740   20.5320 C   0  0  0  0  0  0  0  0  0  0  0  0
  -30.7430  -12.6780   19.5700 C   0  0  0  0  0  2  0  0  0  0  0  0
  -29.8490  -12.7110   18.3090 C   0  0  0  0  0  2  0  0  0  0  0  0
  -28.3620  -12.5320   18.6770 C   0  0  0  0  0  2  0  0  0  0  0  0
  -27.9320  -13.4410   19.8600 C   0  0  0  0  0  3  0  0  0  0  0  0
  -28.9380  -13.3630   21.0280 C   0  0  0  0  0  2  0  0  0  0  0  0
  -30.2630  -13.7230   20.5040 N   0  0  0  0  0  0  0  0  0  0  0  0
  -31.9830  -15.1440   20.1120 O   0  0  0  0  0  0  0  0  0  0  0  0
  -30.0110  -16.0410   20.8340 N   0  0  0  0  0  0  0  0  0  0  0  0
  -29.1890  -15.7530   21.3440 H   0  0  0  0  0  0  0  0  0  0  0  0
  -25.5280  -14.0460   20.5260 C   0  0  0  0  0  0  0  0  0  0  0  0
  -24.4470  -13.2730   20.8500 C   0  0  0  0  0  0  0  0  0  0  0  0
  -24.8960  -11.9180   20.7960 C   0  0  0  0  0  0  0  0  0  0  0  0
  -26.5700  -13.1600   20.3000 N   0  0  0  0  0  0  0  0  0  0  0  0
  -26.1940  -11.8750   20.5220 N   0  0  0  0  0  0  0  0  0  0  0  0
  -24.1560  -10.6600   20.9410 C   0  0  0  0  0  0  0  0  0  0  0  0
  -24.5600   -9.6680   21.8600 C   0  0  0  0  0  3  0  0  0  0  0  0
  -23.8230   -8.4730   21.9930 C   0  0  0  0  0  3  0  0  0  0  0  0
  -22.6660   -8.2610   21.2060 C   0  0  0  0  0  0  0  0  0  0  0  0
  -22.2810   -9.2420   20.2750 C   0  0  0  0  0  3  0  0  0  0  0  0
  -23.0180  -10.4300   20.1400 C   0  0  0  0  0  3  0  0  0  0  0  0
  -21.9010   -7.1210   21.2460 O   0  0  0  0  0  0  0  0  0  0  0  0
  -21.8080   -6.3570   22.3820 C   0  0  0  0  0  0  0  0  0  0  0  0
  -21.3420   -6.8890   23.6020 C   0  0  0  0  0  3  0  0  0  0  0  0
  -21.1990   -6.0520   24.7270 C   0  0  0  0  0  3  0  0  0  0  0  0
  -21.5120   -4.6820   24.6270 C   0  0  0  0  0  0  0  0  0  0  0  0
  -21.9710   -4.1480   23.4110 C   0  0  0  0  0  3  0  0  0  0  0  0
  -22.1170   -4.9850   22.2890 C   0  0  0  0  0  0  0  0  0  0  0  0
  -22.5390   -4.4630   21.1130 F   0  0  0  0  0  0  0  0  0  0  0  0
  -21.3670   -3.8740   25.7030 F   0  0  0  0  0  0  0  0  0  0  0  0
  -23.0470  -13.7570   21.1000 C   0  0  0  0  0  0  0  0  0  0  0  0
  -22.2940  -13.0510   21.9350 N   0  0  0  0  0  0  0  0  0  0  0  0
  -22.6310  -14.7950   20.5900 O   0  0  0  0  0  0  0  0  0  0  0  0
  -22.6410  -12.2090   22.3690 H   0  0  0  0  0  0  0  0  0  0  0  0
  -21.3550  -13.3580   22.1420 H   0  0  0  0  0  0  0  0  0  0  0  0
  -25.7040  -15.4190   20.3900 N   0  0  0  0  0  0  0  0  0  0  0  0
  -24.9330  -16.0690   20.5060 H   0  0  0  0  0  0  0  0  0  0  0  0
  -26.5600  -15.8710   20.0980 H   0  0  0  0  0  0  0  0  0  0  0  0
  -29.6120  -24.0610   19.7840 C   0  0  0  0  0  2  0  0  0  0  0  0
  -28.4270  -25.0840   19.3950 C   0  0  0  0  0  2  0  0  0  0  0  0
  -28.5880  -26.5630   19.5570 O   0  0  0  0  0  0  0  0  0  0  0  0
  -24.7560  -31.5850   23.0830 C   0  0  0  0  0  0  0  0  0  0  0  0
  -27.4360  -27.3780   19.5920 C   0  0  0  0  0  0  0  0  0  0  0  0
  -23.5470  -30.2650   21.3830 C   0  0  0  0  0  3  0  0  0  0  0  0
  -25.0060  -28.8910   19.7840 C   0  0  0  0  0  0  0  0  0  0  0  0
  -26.0590  -30.7060   21.1280 C   0  0  0  0  0  2  0  0  0  0  0  0
  -26.1730  -29.3780   20.3860 C   0  0  0  0  0  0  0  0  0  0  0  0
  -27.3880  -28.6310   20.2850 C   0  0  0  0  0  3  0  0  0  0  0  0
  -26.2460  -26.9660   18.9480 C   0  0  0  0  0  3  0  0  0  0  0  0
  -25.0460  -27.6960   19.0510 C   0  0  0  0  0  3  0  0  0  0  0  0
  -23.7350  -29.7020   19.9470 C   0  0  0  0  0  2  0  0  0  0  0  0
  -24.8090  -30.8650   21.9240 N   0  0  0  0  0  0  0  0  0  0  0  0
  -23.6830  -31.7750   23.6780 O   0  0  0  0  0  0  0  0  0  0  0  0
  -22.9590  -29.1530   22.2870 C   0  0  0  0  0  0  0  0  0  0  0  0
  -21.6420  -28.9120   22.1730 N   0  0  0  0  0  0  0  0  0  0  0  0
  -23.6900  -28.5120   23.0470 O   0  0  0  0  0  0  0  0  0  0  0  0
  -21.1080  -29.4900   21.5390 H   0  0  0  0  0  0  0  0  0  0  0  0
  -18.3560  -27.4690   22.6250 C   0  0  0  0  0  0  0  0  0  0  0  0
  -20.8940  -27.8810   22.8950 C   0  0  0  0  0  3  0  0  0  0  0  0
  -21.0840  -26.4940   22.2380 C   0  0  0  0  0  2  0  0  0  0  0  0
  -19.9970  -26.1580   21.2130 C   0  0  0  0  0  2  0  0  0  0  0  0
  -18.6140  -26.1750   21.8720 C   0  0  0  0  0  2  0  0  0  0  0  0
  -19.4260  -28.2780   23.0920 C   0  0  0  0  0  0  0  0  0  0  0  0
  -19.1310  -29.4870   23.7590 C   0  0  0  0  0  3  0  0  0  0  0  0
  -17.7980  -29.8910   23.9600 C   0  0  0  0  0  3  0  0  0  0  0  0
  -16.7420  -29.0810   23.5060 C   0  0  0  0  0  3  0  0  0  0  0  0
  -17.0210  -27.8710   22.8460 C   0  0  0  0  0  3  0  0  0  0  0  0
  -26.0330  -32.2240   23.7090 C   0  0  0  0  0  3  0  0  0  0  0  0
  -25.6860  -33.5830   24.1490 N   0  0  0  0  0  0  0  0  0  0  0  0
  -25.9380  -34.6980   23.4500 C   0  0  0  0  0  0  0  0  0  0  0  0
  -26.5570  -34.6910   22.3820 O   0  0  0  0  0  0  0  0  0  0  0  0
  -25.1300  -33.6590   24.9880 H   0  0  0  0  0  0  0  0  0  0  0  0
  -24.1180  -36.4310   23.3120 C   0  0  0  0  0  1  0  0  0  0  0  0
  -25.4220  -36.0330   24.0220 C   0  0  0  0  0  3  0  0  0  0  0  0
  -27.5640  -36.9660   24.7800 C   0  0  0  0  0  1  0  0  0  0  0  0
  -26.4010  -37.1360   23.9140 N   0  0  0  0  0  0  0  0  0  0  0  0
  -25.9670  -38.0290   24.1370 H   0  0  0  0  0  0  0  0  0  0  0  0
  -26.6200  -31.3850   24.9090 C   0  0  1  0  0  0  0  0  0  0  0  0
  -25.5760  -31.0370   25.9950 C   0  0  0  0  0  1  0  0  0  0  0  0
  -27.2280  -30.0580   24.3960 C   0  0  0  0  0  1  0  0  0  0  0  0
  -27.7740  -32.1650   25.5830 C   0  0  0  0  0  1  0  0  0  0  0  0
  1 10  1  0
  1  2  1  0
  2  9  1  0
  3  1  2  0
  4  3  1  0
  5  3  1  0
  7  6  1  0
  8  6  1  0
  9  7  1  0
  9  8  1  0
 10 11  1  0
 12 11  1  0
 12 21  1  0
 13 21  1  0
 14 19  1  0
 15 16  1  0
 15 14  1  0
 17 16  1  0
 17 26  1  0
 17 18  1  0
 19 13  1  0
 19 18  1  0
 20 13  2  0
 21 22  1  0
 23 24  2  0
 24 43  1  0
 25 24  1  0
 25 28  1  0
 26 27  1  0
 26 23  1  0
 27 25  2  0
 28 29  1  0
 29 30  2  0
 31 34  1  0
 31 30  1  0
 32 31  2  0
 33 32  1  0
 33 28  2  0
 34 35  1  0
 35 36  1  0
 36 37  2  0
 38 37  1  0
 38 42  1  0
 39 38  2  0
 40 35  2  0
 40 39  1  0
 41 40  1  0
 43 44  1  0
 44 47  1  0
 44 46  1  0
 45 43  2  0
 48 49  1  0
 48 23  1  0
 50 48  1  0
 51  2  1  0
 52 53  1  0
 52 51  1  0
 53 55  1  0
 54 65  2  0
 55 60  1  0
 56 64  1  0
 56 66  1  0
 57 63  1  0
 57 59  1  0
 58 64  1  0
 59 58  1  0
 60 59  2  0
 61 62  1  0
 61 55  2  0
 62 57  2  0
 63 56  1  0
 64 54  1  0
 66 68  2  0
 67 66  1  0
 69 67  1  0
 70 79  2  0
 70 75  1  0
 71 67  1  0
 71 75  1  0
 72 71  1  0
 73 74  1  0
 73 72  1  0
 74 70  1  0
 75 76  2  0
 76 77  1  0
 78 77  2  0
 79 78  1  0
 80 54  1  0
 80 81  1  0
 80 90  1  0
 81 84  1  0
 82 86  1  0
 82 81  1  0
 83 82  2  0
 86 85  1  0
 88 86  1  0
 88 89  1  0
 88 87  1  0
 90 93  1  1
 90 91  1  0
 92 90  1  0
M  ISO  4  13 100  21 100  52 101  53 101
M  END
>  <TORSDO>  (63) 
F 22

>  <SCORE>  (63) 
-11.837

>  <name>  (63) 
64

>  <ligand_id>  (63) 
64

>  <original_smiles>  (63) 
[H]c1c([H])c([H])c2c(c1[H])C([H])([H])C([H])([H])C([H])([H])C2([H])N([H])C(=O)C1([H])N(C(=O)C([H])(N([H])C(=O)C([H])(N([H])C([H])([H])[H])C([H])([H])[H])C(C([H])([H])[H])(C([H])([H])[H])C([H])([H])[H])C([H])([H])c2c([H])c(OC([H])([H])C([H])([H])N(C(=[N+]([H])[H])C([H])([H])C([H])([H])C([H])([H])N([H])C(=O)N3C([H])([H])C([H])([H])C([H])([H])C([H])(n4nc(-c5c([H])c([H])c(Oc6c([H])c([H])c(F)c([H])c6F)c([H])c5[H])c(C(=O)N([H])[H])c4N([H])[H])C3([H])[H])C3([H])C([H])([H])C([H])([H])C3([H])[H])c([H])c([H])c2C1([H])[H]

>  <smiles>  (63) 
[H]c1c([H])c([H])c2c(c1[H])C([H])([H])C([H])([H])C([H])([H])C2([H])N([H])C(=O)C1([H])N(C(=O)C([H])(N([H])C(=O)C([H])(N([H])C([H])([H])[H])C([H])([H])[H])C(C([H])([H])[H])(C([H])([H])[H])C([H])([H])[H])C([H])([H])c2c([H])c(OC([H])([H])C([H])([H])N(C(=[N+]([H])[H])C([H])([H])C([H])([H])C([H])([H])N([H])C(=O)N3C([H])([H])C([H])([H])C([H])([H])C([H])(n4nc(-c5c([H])c([H])c(Oc6c([H])c([H])c(F)c([H])c6F)c([H])c5[H])c(C(=O)N([H])[H])c4N([H])[H])C3([H])[H])C3([H])C([H])([H])C([H])([H])C3([H])[H])c([H])c([H])c2C1([H])[H]

$$$$
65:0:0
     RDKit          3D

 97105  0  0  1  0  0  0  0  0999 V2000
  -28.3070  -22.9050   21.8720 C   0  0  0  0  0  2  0  0  0  0  0  0
  -29.3650  -21.8150   21.6770 C   0  0  0  0  0  3  0  0  0  0  0  0
  -28.4380  -21.3240   20.5690 C   0  0  0  0  0  3  0  0  0  0  0  0
  -29.7300  -20.9170   22.8480 C   0  0  0  0  0  1  0  0  0  0  0  0
  -27.9390  -22.7830   20.4450 N   0  0  2  0  0  4  0  0  0  0  0  0
  -26.9350  -22.7640   20.3450 H   0  0  0  0  0  0  0  0  0  0  0  0
  -30.2830  -20.7080   18.8590 C   0  0  0  0  0  1  0  0  0  0  0  0
  -28.9140  -20.3090   19.4290 C   0  0  0  0  0  3  0  0  0  0  0  0
  -28.8360  -18.7440   19.8990 C   0  0  0  0  0  2  0  0  0  0  0  0
  -30.0380  -17.6580   19.7870 C   0  0  0  0  0  3  0  0  0  0  0  0
  -30.5040  -15.0850   19.8280 C   0  0  0  0  0  0  0  0  0  0  0  0
  -30.4520  -12.6820   19.1830 C   0  0  0  0  0  2  0  0  0  0  0  0
  -29.4950  -12.4990   17.9860 C   0  0  0  0  0  2  0  0  0  0  0  0
  -28.0450  -12.2980   18.4690 C   0  0  0  0  0  2  0  0  0  0  0  0
  -27.6220  -13.3350   19.5430 C   0  0  0  0  0  3  0  0  0  0  0  0
  -28.6980  -13.4950   20.6410 C   0  0  0  0  0  2  0  0  0  0  0  0
  -29.9610  -13.8340   19.9720 N   0  0  0  0  0  0  0  0  0  0  0  0
  -31.6520  -15.2210   19.3960 O   0  0  0  0  0  0  0  0  0  0  0  0
  -29.6970  -16.1900   20.0260 N   0  0  0  0  0  0  0  0  0  0  0  0
  -28.7540  -15.9850   20.3190 H   0  0  0  0  0  0  0  0  0  0  0  0
  -25.3010  -13.8980   20.4840 C   0  0  0  0  0  0  0  0  0  0  0  0
  -24.2540  -13.1090   20.8770 C   0  0  0  0  0  0  0  0  0  0  0  0
  -24.6920  -11.7590   20.7120 C   0  0  0  0  0  0  0  0  0  0  0  0
  -26.3110  -13.0280   20.1070 N   0  0  0  0  0  0  0  0  0  0  0  0
  -25.9550  -11.7320   20.3050 N   0  0  0  0  0  0  0  0  0  0  0  0
  -23.9590  -10.4940   20.8630 C   0  0  0  0  0  0  0  0  0  0  0  0
  -24.3440   -9.5270   21.8190 C   0  0  0  0  0  3  0  0  0  0  0  0
  -23.6120   -8.3280   21.9580 C   0  0  0  0  0  3  0  0  0  0  0  0
  -22.4820   -8.0860   21.1410 C   0  0  0  0  0  0  0  0  0  0  0  0
  -22.1180   -9.0410   20.1740 C   0  0  0  0  0  3  0  0  0  0  0  0
  -22.8520  -10.2310   20.0340 C   0  0  0  0  0  3  0  0  0  0  0  0
  -21.7270   -6.9410   21.1890 O   0  0  0  0  0  0  0  0  0  0  0  0
  -21.5020   -6.2730   22.3670 C   0  0  0  0  0  0  0  0  0  0  0  0
  -20.8480   -6.8890   23.4570 C   0  0  0  0  0  3  0  0  0  0  0  0
  -20.5760   -6.1470   24.6230 C   0  0  0  0  0  3  0  0  0  0  0  0
  -20.9460   -4.7920   24.6990 C   0  0  0  0  0  0  0  0  0  0  0  0
  -21.5910   -4.1760   23.6120 C   0  0  0  0  0  3  0  0  0  0  0  0
  -21.8660   -4.9140   22.4490 C   0  0  0  0  0  0  0  0  0  0  0  0
  -22.4690   -4.3110   21.3950 F   0  0  0  0  0  0  0  0  0  0  0  0
  -20.6780   -4.0750   25.8160 F   0  0  0  0  0  0  0  0  0  0  0  0
  -22.8880  -13.5800   21.2860 C   0  0  0  0  0  0  0  0  0  0  0  0
  -22.2200  -12.8350   22.1620 N   0  0  0  0  0  0  0  0  0  0  0  0
  -22.4250  -14.6400   20.8690 O   0  0  0  0  0  0  0  0  0  0  0  0
  -22.6080  -11.9760   22.5230 H   0  0  0  0  0  0  0  0  0  0  0  0
  -21.3040  -13.1280   22.4750 H   0  0  0  0  0  0  0  0  0  0  0  0
  -25.4720  -15.2750   20.3930 N   0  0  0  0  0  0  0  0  0  0  0  0
  -24.7210  -15.9260   20.5940 H   0  0  0  0  0  0  0  0  0  0  0  0
  -26.2870  -15.7270   19.9960 H   0  0  0  0  0  0  0  0  0  0  0  0
  -31.2350  -18.0270   20.7100 C   0  0  0  0  0  2  0  0  0  0  0  0
  -30.9020  -18.1540   22.2190 C   0  0  0  0  0  2  0  0  0  0  0  0
  -31.4280  -17.0450   23.0380 N   0  0  0  0  0  4  0  0  0  0  0  0
  -31.0360  -16.1630   22.7610 H   0  0  0  0  0  0  0  0  0  0  0  0
  -31.1920  -17.1940   24.0040 H   0  0  0  0  0  0  0  0  0  0  0  0
  -32.4290  -16.9930   22.9750 H   0  0  0  0  0  0  0  0  0  0  0  0
  -28.4680  -23.9870   19.6460 C   0  0  0  0  0  2  0  0  0  0  0  0
  -27.6710  -25.3540   20.0070 C   0  0  0  0  0  2  0  0  0  0  0  0
  -28.0130  -26.7590   19.6020 O   0  0  0  0  0  0  0  0  0  0  0  0
  -24.7470  -31.9320   23.5080 C   0  0  0  0  0  0  0  0  0  0  0  0
  -26.9670  -27.6990   19.7360 C   0  0  0  0  0  0  0  0  0  0  0  0
  -23.3810  -30.7720   21.8110 C   0  0  0  0  0  3  0  0  0  0  0  0
  -24.6720  -29.3790   20.1020 C   0  0  0  0  0  0  0  0  0  0  0  0
  -25.9120  -31.0450   21.4750 C   0  0  0  0  0  2  0  0  0  0  0  0
  -25.9000  -29.7540   20.6620 C   0  0  0  0  0  0  0  0  0  0  0  0
  -27.0530  -28.9270   20.4740 C   0  0  0  0  0  3  0  0  0  0  0  0
  -25.7240  -27.4170   19.1260 C   0  0  0  0  0  3  0  0  0  0  0  0
  -24.5870  -28.2180   19.3220 C   0  0  0  0  0  3  0  0  0  0  0  0
  -23.4690  -30.2660   20.3490 C   0  0  0  0  0  2  0  0  0  0  0  0
  -24.7030  -31.2600   22.3200 N   0  0  0  0  0  0  0  0  0  0  0  0
  -23.7160  -32.1680   24.1530 O   0  0  0  0  0  0  0  0  0  0  0  0
  -22.7580  -29.6600   22.6920 C   0  0  0  0  0  0  0  0  0  0  0  0
  -21.4380  -29.4460   22.5560 N   0  0  0  0  0  0  0  0  0  0  0  0
  -23.4630  -28.9990   23.4580 O   0  0  0  0  0  0  0  0  0  0  0  0
  -20.9260  -30.0360   21.9150 H   0  0  0  0  0  0  0  0  0  0  0  0
  -18.1510  -27.9620   22.8280 C   0  0  0  0  0  0  0  0  0  0  0  0
  -20.6600  -28.4230   23.2570 C   0  0  0  0  0  3  0  0  0  0  0  0
  -20.9120  -27.0200   22.6580 C   0  0  0  0  0  2  0  0  0  0  0  0
  -19.9020  -26.6350   21.5730 C   0  0  0  0  0  2  0  0  0  0  0  0
  -18.4780  -26.6490   22.1360 C   0  0  0  0  0  2  0  0  0  0  0  0
  -19.1750  -28.8020   23.3410 C   0  0  0  0  0  0  0  0  0  0  0  0
  -18.8190  -30.0250   23.9460 C   0  0  0  0  0  3  0  0  0  0  0  0
  -17.4690  -30.4150   24.0430 C   0  0  0  0  0  3  0  0  0  0  0  0
  -16.4590  -29.5730   23.5460 C   0  0  0  0  0  3  0  0  0  0  0  0
  -16.8000  -28.3480   22.9460 C   0  0  0  0  0  3  0  0  0  0  0  0
  -26.0920  -32.4570   24.0970 C   0  0  0  0  0  3  0  0  0  0  0  0
  -26.6270  -31.5830   25.2960 C   0  0  1  0  0  0  0  0  0  0  0  0
  -25.5730  -31.3240   26.3970 C   0  0  0  0  0  1  0  0  0  0  0  0
  -27.1290  -30.2080   24.7940 C   0  0  0  0  0  1  0  0  0  0  0  0
  -27.8390  -32.2810   25.9550 C   0  0  0  0  0  1  0  0  0  0  0  0
  -25.8770  -33.8460   24.5260 N   0  0  0  0  0  0  0  0  0  0  0  0
  -26.2800  -34.9270   23.8440 C   0  0  0  0  0  0  0  0  0  0  0  0
  -26.9430  -34.8520   22.8060 O   0  0  0  0  0  0  0  0  0  0  0  0
  -25.2940  -33.9810   25.3390 H   0  0  0  0  0  0  0  0  0  0  0  0
  -24.6900  -36.8610   23.6130 C   0  0  0  0  0  1  0  0  0  0  0  0
  -25.8860  -36.3070   24.4020 C   0  0  0  0  0  3  0  0  0  0  0  0
  -28.0670  -36.9680   25.3160 C   0  0  0  0  0  1  0  0  0  0  0  0
  -26.9930  -37.2880   24.3800 N   0  0  0  0  0  0  0  0  0  0  0  0
  -26.6510  -38.2200   24.5970 H   0  0  0  0  0  0  0  0  0  0  0  0
  2  1  1  0
  2  4  1  0
  3  8  1  0
  3  2  1  0
  5  3  1  0
  5  1  1  0
  5  6  1  1
  8  7  1  0
  8  9  1  0
 10  9  1  0
 10 19  1  0
 10 49  1  0
 11 17  1  0
 11 19  1  0
 12 17  1  0
 13 14  1  0
 13 12  1  0
 15 14  1  0
 15 24  1  0
 15 16  1  0
 17 16  1  0
 18 11  2  0
 19 20  1  0
 21 22  2  0
 22 41  1  0
 23 26  1  0
 23 22  1  0
 24 25  1  0
 24 21  1  0
 25 23  2  0
 26 27  1  0
 27 28  2  0
 29 32  1  0
 29 28  1  0
 30 29  2  0
 31 30  1  0
 31 26  2  0
 32 33  1  0
 33 38  2  0
 33 34  1  0
 34 35  2  0
 35 36  1  0
 36 40  1  0
 37 36  2  0
 38 37  1  0
 39 38  1  0
 41 42  1  0
 42 45  1  0
 42 44  1  0
 43 41  2  0
 46 21  1  0
 46 47  1  0
 48 46  1  0
 49 50  1  0
 50 51  1  0
 51 53  1  0
 52 51  1  0
 54 51  1  0
 55 56  1  0
 55  5  1  0
 57 59  1  0
 57 56  1  0
 58 69  2  0
 59 64  1  0
 60 68  1  0
 60 70  1  0
 61 67  1  0
 61 63  1  0
 62 68  1  0
 63 62  1  0
 64 63  2  0
 65 66  1  0
 65 59  2  0
 66 61  2  0
 67 60  1  0
 68 58  1  0
 70 72  2  0
 71 70  1  0
 73 71  1  0
 74 83  2  0
 74 79  1  0
 75 71  1  0
 75 79  1  0
 76 75  1  0
 77 78  1  0
 77 76  1  0
 78 74  1  0
 79 80  2  0
 80 81  1  0
 82 81  2  0
 83 82  1  0
 84 58  1  0
 84 89  1  0
 84 85  1  0
 85 88  1  1
 85 86  1  0
 87 85  1  0
 89 92  1  0
 90 94  1  0
 90 89  1  0
 91 90  2  0
 94 93  1  0
 96 94  1  0
 96 97  1  0
 96 95  1  0
M  ISO  4  11 100  19 100  56 101  57 101
M  END
>  <TORSDO>  (64) 
F 24

>  <SCORE>  (64) 
-11.247

>  <name>  (64) 
65

>  <ligand_id>  (64) 
65

>  <original_smiles>  (64) 
[H]c1c([H])c([H])c2c(c1[H])C([H])([H])C([H])([H])C([H])([H])C2([H])N([H])C(=O)C1([H])N(C(=O)C([H])(N([H])C(=O)C([H])(N([H])C([H])([H])[H])C([H])([H])[H])C(C([H])([H])[H])(C([H])([H])[H])C([H])([H])[H])C([H])([H])c2c([H])c(OC([H])([H])C([H])([H])[N+]3([H])C([H])([H])C([H])(C([H])([H])[H])C3([H])C([H])(C([H])([H])[H])C([H])([H])C([H])(N([H])C(=O)N3C([H])([H])C([H])([H])C([H])([H])C([H])(n4nc(-c5c([H])c([H])c(Oc6c([H])c([H])c(F)c([H])c6F)c([H])c5[H])c(C(=O)N([H])[H])c4N([H])[H])C3([H])[H])C([H])([H])C([H])([H])[N+]([H])([H])[H])c([H])c([H])c2C1([H])[H]

>  <smiles>  (64) 
[H]c1c([H])c([H])c2c(c1[H])C([H])([H])C([H])([H])C([H])([H])C2([H])N([H])C(=O)C1([H])N(C(=O)C([H])(N([H])C(=O)C([H])(N([H])C([H])([H])[H])C([H])([H])[H])C(C([H])([H])[H])(C([H])([H])[H])C([H])([H])[H])C([H])([H])c2c([H])c(OC([H])([H])C([H])([H])[N+]3([H])C([H])([H])C([H])(C([H])([H])[H])C3([H])C([H])(C([H])([H])[H])C([H])([H])C([H])(N([H])C(=O)N3C([H])([H])C([H])([H])C([H])([H])C([H])(n4nc(-c5c([H])c([H])c(Oc6c([H])c([H])c(F)c([H])c6F)c([H])c5[H])c(C(=O)N([H])[H])c4N([H])[H])C3([H])[H])C([H])([H])C([H])([H])[N+]([H])([H])[H])c([H])c([H])c2C1([H])[H]

$$$$
66:0:0
     RDKit          3D

 93101  0  0  1  0  0  0  0  0999 V2000
  -29.1470  -22.8160   18.9650 C   0  0  0  0  0  3  0  0  0  0  0  0
  -28.6900  -24.1400   18.9830 C   0  0  0  0  0  3  0  0  0  0  0  0
  -31.4120  -23.6080   18.5650 C   0  0  0  0  0  3  0  0  0  0  0  0
  -30.5120  -22.5380   18.7470 C   0  0  0  0  0  0  0  0  0  0  0  0
  -29.5830  -25.2110   18.7970 C   0  0  0  0  0  0  0  0  0  0  0  0
  -30.9600  -24.9460   18.5860 C   0  0  0  0  0  0  0  0  0  0  0  0
  -31.9670  -26.0660   18.3900 C   0  0  0  0  0  1  0  0  0  0  0  0
  -31.0030  -21.1550   18.7100 C   0  0  0  0  0  3  0  0  0  0  0  0
  -30.3400  -20.1030   19.2230 C   0  0  0  0  0  3  0  0  0  0  0  0
  -29.8160  -17.7880   19.4180 C   0  0  0  0  0  3  0  0  0  0  0  0
  -30.7330  -18.7150   19.0760 C   0  0  0  0  0  0  0  0  0  0  0  0
  -32.1010  -18.3290   18.5260 C   0  0  0  0  0  1  0  0  0  0  0  0
  -29.9260  -16.3020   19.1710 C   0  0  0  0  0  2  0  0  0  0  0  0
  -30.6800  -14.4270   20.4680 C   0  0  0  0  0  0  0  0  0  0  0  0
  -30.3740  -12.2600   19.4100 C   0  0  0  0  0  2  0  0  0  0  0  0
  -29.4660  -12.5040   18.1840 C   0  0  0  0  0  2  0  0  0  0  0  0
  -27.9800  -12.3930   18.5820 C   0  0  0  0  0  2  0  0  0  0  0  0
  -27.6270  -13.2340   19.8370 C   0  0  0  0  0  3  0  0  0  0  0  0
  -28.6610  -13.0180   20.9710 C   0  0  0  0  0  2  0  0  0  0  0  0
  -30.0080  -13.2520   20.4260 N   0  0  0  0  0  0  0  0  0  0  0  0
  -31.8700  -14.5560   20.1730 O   0  0  0  0  0  0  0  0  0  0  0  0
  -29.8620  -15.4790   20.3790 N   0  0  0  0  0  0  0  0  0  0  0  0
  -28.9320  -15.3090   20.7320 H   0  0  0  0  0  0  0  0  0  0  0  0
  -25.2180  -13.8670   20.4890 C   0  0  0  0  0  0  0  0  0  0  0  0
  -24.1380  -13.1030   20.8430 C   0  0  0  0  0  0  0  0  0  0  0  0
  -24.5940  -11.7490   20.8370 C   0  0  0  0  0  0  0  0  0  0  0  0
  -26.2620  -12.9760   20.2900 N   0  0  0  0  0  0  0  0  0  0  0  0
  -25.8890  -11.6990   20.5570 N   0  0  0  0  0  0  0  0  0  0  0  0
  -23.8580  -10.4920   21.0230 C   0  0  0  0  0  0  0  0  0  0  0  0
  -24.2700   -9.5310   21.9730 C   0  0  0  0  0  3  0  0  0  0  0  0
  -23.5380   -8.3370   22.1460 C   0  0  0  0  0  3  0  0  0  0  0  0
  -22.3800   -8.0960   21.3680 C   0  0  0  0  0  0  0  0  0  0  0  0
  -21.9880   -9.0460   20.4080 C   0  0  0  0  0  3  0  0  0  0  0  0
  -22.7210  -10.2320   20.2330 C   0  0  0  0  0  3  0  0  0  0  0  0
  -21.6200   -6.9550   21.4500 O   0  0  0  0  0  0  0  0  0  0  0  0
  -21.5500   -6.2190   22.6060 C   0  0  0  0  0  0  0  0  0  0  0  0
  -21.1060   -6.7830   23.8220 C   0  0  0  0  0  3  0  0  0  0  0  0
  -20.9830   -5.9730   24.9690 C   0  0  0  0  0  3  0  0  0  0  0  0
  -21.2930   -4.6010   24.9010 C   0  0  0  0  0  0  0  0  0  0  0  0
  -21.7290   -4.0380   23.6890 C   0  0  0  0  0  3  0  0  0  0  0  0
  -21.8550   -4.8440   22.5440 C   0  0  0  0  0  0  0  0  0  0  0  0
  -22.2560   -4.2920   21.3740 F   0  0  0  0  0  0  0  0  0  0  0  0
  -21.1660   -3.8220   26.0000 F   0  0  0  0  0  0  0  0  0  0  0  0
  -22.7380  -13.5890   21.0820 C   0  0  0  0  0  0  0  0  0  0  0  0
  -21.9880  -12.9020   21.9370 N   0  0  0  0  0  0  0  0  0  0  0  0
  -22.3150  -14.6130   20.5450 O   0  0  0  0  0  0  0  0  0  0  0  0
  -22.3410  -12.0730   22.3930 H   0  0  0  0  0  0  0  0  0  0  0  0
  -21.0460  -13.2090   22.1400 H   0  0  0  0  0  0  0  0  0  0  0  0
  -25.3920  -15.2350   20.3000 N   0  0  0  0  0  0  0  0  0  0  0  0
  -24.6210  -15.8890   20.3830 H   0  0  0  0  0  0  0  0  0  0  0  0
  -26.2430  -15.6700   19.9700 H   0  0  0  0  0  0  0  0  0  0  0  0
  -28.9970  -26.6060   18.8550 C   0  0  0  0  0  2  0  0  0  0  0  0
  -28.4170  -26.8220   20.1340 O   0  0  0  0  0  0  0  0  0  0  0  0
  -24.5620  -31.8730   23.2490 C   0  0  0  0  0  0  0  0  0  0  0  0
  -27.2320  -27.5060   20.1360 C   0  0  0  0  0  0  0  0  0  0  0  0
  -23.3560  -30.4740   21.5980 C   0  0  0  0  0  3  0  0  0  0  0  0
  -24.8160  -28.9490   20.1690 C   0  0  0  0  0  0  0  0  0  0  0  0
  -25.8740  -30.8540   21.3980 C   0  0  0  0  0  2  0  0  0  0  0  0
  -25.9660  -29.4880   20.7620 C   0  0  0  0  0  0  0  0  0  0  0  0
  -27.1730  -28.7640   20.7600 C   0  0  0  0  0  3  0  0  0  0  0  0
  -26.0700  -26.9590   19.5510 C   0  0  0  0  0  3  0  0  0  0  0  0
  -24.8590  -27.6780   19.5670 C   0  0  0  0  0  3  0  0  0  0  0  0
  -23.5670  -29.7960   20.2170 C   0  0  0  0  0  2  0  0  0  0  0  0
  -24.6160  -31.0810   22.1420 N   0  0  0  0  0  0  0  0  0  0  0  0
  -23.4820  -32.1390   23.7920 O   0  0  0  0  0  0  0  0  0  0  0  0
  -22.7120  -29.4470   22.5550 C   0  0  0  0  0  0  0  0  0  0  0  0
  -21.3880  -29.2670   22.4300 N   0  0  0  0  0  0  0  0  0  0  0  0
  -23.3980  -28.8150   23.3630 O   0  0  0  0  0  0  0  0  0  0  0  0
  -20.8960  -29.8280   21.7490 H   0  0  0  0  0  0  0  0  0  0  0  0
  -18.0130  -28.0830   22.9320 C   0  0  0  0  0  0  0  0  0  0  0  0
  -20.5720  -28.3250   23.1970 C   0  0  0  0  0  3  0  0  0  0  0  0
  -20.6660  -26.8990   22.6060 C   0  0  0  0  0  2  0  0  0  0  0  0
  -19.5580  -26.5910   21.5940 C   0  0  0  0  0  2  0  0  0  0  0  0
  -18.1800  -26.7380   22.2450 C   0  0  0  0  0  2  0  0  0  0  0  0
  -19.1370  -28.8360   23.3650 C   0  0  0  0  0  0  0  0  0  0  0  0
  -18.9280  -30.0970   23.9640 C   0  0  0  0  0  3  0  0  0  0  0  0
  -17.6260  -30.6040   24.1380 C   0  0  0  0  0  3  0  0  0  0  0  0
  -16.5170  -29.8480   23.7240 C   0  0  0  0  0  3  0  0  0  0  0  0
  -16.7100  -28.5890   23.1260 C   0  0  0  0  0  3  0  0  0  0  0  0
  -25.8490  -32.5010   23.8700 C   0  0  0  0  0  3  0  0  0  0  0  0
  -26.3660  -31.7300   25.1450 C   0  0  1  0  0  0  0  0  0  0  0  0
  -25.2750  -31.4920   26.2130 C   0  0  0  0  0  1  0  0  0  0  0  0
  -26.9480  -30.3520   24.7490 C   0  0  0  0  0  1  0  0  0  0  0  0
  -27.5190  -32.5230   25.8060 C   0  0  0  0  0  1  0  0  0  0  0  0
  -25.5450  -33.9000   24.1950 N   0  0  0  0  0  0  0  0  0  0  0  0
  -25.8910  -34.9490   23.4360 C   0  0  0  0  0  0  0  0  0  0  0  0
  -26.5740  -34.8410   22.4130 O   0  0  0  0  0  0  0  0  0  0  0  0
  -24.9410  -34.0600   24.9880 H   0  0  0  0  0  0  0  0  0  0  0  0
  -24.1830  -36.7520   23.0440 C   0  0  0  0  0  1  0  0  0  0  0  0
  -25.4030  -36.3400   23.8830 C   0  0  0  0  0  3  0  0  0  0  0  0
  -27.5260  -37.2070   24.7600 C   0  0  0  0  0  1  0  0  0  0  0  0
  -26.4450  -37.3870   23.7940 N   0  0  0  0  0  0  0  0  0  0  0  0
  -26.0420  -38.3090   23.9360 H   0  0  0  0  0  0  0  0  0  0  0  0
  1  2  1  0
  3  6  2  0
  3  4  1  0
  4  1  2  0
  5 52  1  0
  5  2  2  0
  6  5  1  0
  7  6  1  0
  8  4  1  0
  8  9  2  0
 11  9  1  0
 11 10  2  0
 12 11  1  0
 13 10  1  0
 13 22  1  0
 15 20  1  0
 16 17  1  0
 16 15  1  0
 18 17  1  0
 18 27  1  0
 18 19  1  0
 20 14  1  0
 20 19  1  0
 21 14  2  0
 22 14  1  0
 22 23  1  0
 24 25  2  0
 25 44  1  0
 26 25  1  0
 26 29  1  0
 27 24  1  0
 27 28  1  0
 28 26  2  0
 29 30  1  0
 30 31  2  0
 32 35  1  0
 32 31  1  0
 33 32  2  0
 34 33  1  0
 34 29  2  0
 35 36  1  0
 36 37  1  0
 37 38  2  0
 39 38  1  0
 39 43  1  0
 40 39  2  0
 41 36  2  0
 41 40  1  0
 42 41  1  0
 44 45  1  0
 45 48  1  0
 45 47  1  0
 46 44  2  0
 49 50  1  0
 49 24  1  0
 51 49  1  0
 52 53  1  0
 53 55  1  0
 54 65  2  0
 55 60  1  0
 56 64  1  0
 56 66  1  0
 57 63  1  0
 57 59  1  0
 58 64  1  0
 59 58  1  0
 60 59  2  0
 61 62  1  0
 61 55  2  0
 62 57  2  0
 63 56  1  0
 64 54  1  0
 66 68  2  0
 67 66  1  0
 69 67  1  0
 70 79  2  0
 70 75  1  0
 71 67  1  0
 71 75  1  0
 72 71  1  0
 73 74  1  0
 73 72  1  0
 74 70  1  0
 75 76  2  0
 76 77  1  0
 78 77  2  0
 79 78  1  0
 80 54  1  0
 80 85  1  0
 80 81  1  0
 81 84  1  1
 81 82  1  0
 83 81  1  0
 85 88  1  0
 86 90  1  0
 86 85  1  0
 87 86  2  0
 90 89  1  0
 92 90  1  0
 92 93  1  0
 92 91  1  0
M  ISO  4  14 100  22 100  52 101  53 101
M  END
>  <TORSDO>  (65) 
F 20

>  <SCORE>  (65) 
-13.565

>  <name>  (65) 
66

>  <ligand_id>  (65) 
66

>  <original_smiles>  (65) 
[H]C(=C([H])c1c([H])c([H])c(C([H])([H])Oc2c([H])c([H])c3c(c2[H])C([H])([H])N(C(=O)C([H])(N([H])C(=O)C([H])(N([H])C([H])([H])[H])C([H])([H])[H])C(C([H])([H])[H])(C([H])([H])[H])C([H])([H])[H])C([H])(C(=O)N([H])C2([H])c4c([H])c([H])c([H])c([H])c4C([H])([H])C([H])([H])C2([H])[H])C3([H])[H])c(C([H])([H])[H])c1[H])C(=C([H])C([H])([H])N([H])C(=O)N1C([H])([H])C([H])([H])C([H])([H])C([H])(n2nc(-c3c([H])c([H])c(Oc4c([H])c([H])c(F)c([H])c4F)c([H])c3[H])c(C(=O)N([H])[H])c2N([H])[H])C1([H])[H])C([H])([H])[H]

>  <smiles>  (65) 
[H]C(=C([H])c1c([H])c([H])c(C([H])([H])Oc2c([H])c([H])c3c(c2[H])C([H])([H])N(C(=O)C([H])(N([H])C(=O)C([H])(N([H])C([H])([H])[H])C([H])([H])[H])C(C([H])([H])[H])(C([H])([H])[H])C([H])([H])[H])C([H])(C(=O)N([H])C2([H])c4c([H])c([H])c([H])c([H])c4C([H])([H])C([H])([H])C2([H])[H])C3([H])[H])c(C([H])([H])[H])c1[H])C(=C([H])C([H])([H])N([H])C(=O)N1C([H])([H])C([H])([H])C([H])([H])C([H])(n2nc(-c3c([H])c([H])c(Oc4c([H])c([H])c(F)c([H])c4F)c([H])c3[H])c(C(=O)N([H])[H])c2N([H])[H])C1([H])[H])C([H])([H])[H]

$$$$
67:0:0
     RDKit          3D

 94102  0  0  1  0  0  0  0  0999 V2000
  -30.7370  -14.8130   20.0180 C   0  0  0  0  0  0  0  0  0  0  0  0
  -30.5830  -12.4220   19.4040 C   0  0  0  0  0  2  0  0  0  0  0  0
  -29.6530  -12.2460   18.1890 C   0  0  0  0  0  2  0  0  0  0  0  0
  -28.1900  -12.0880   18.6490 C   0  0  0  0  0  2  0  0  0  0  0  0
  -27.7680  -13.1720   19.6750 C   0  0  0  0  0  3  0  0  0  0  0  0
  -28.8190  -13.3500   20.7910 C   0  0  0  0  0  2  0  0  0  0  0  0
  -30.1190  -13.6050   20.1540 N   0  0  0  0  0  0  0  0  0  0  0  0
  -31.8610  -14.9060   19.5160 O   0  0  0  0  0  0  0  0  0  0  0  0
  -29.1830  -18.0090   19.6110 C   0  0  0  0  0  0  0  0  0  0  0  0
  -28.6720  -18.8650   18.6760 C   0  0  0  0  0  0  0  0  0  0  0  0
  -30.1890  -18.3490   20.6840 C   0  0  0  0  0  2  0  0  0  0  0  0
  -28.9350  -16.5050   19.7180 C   0  0  0  0  0  2  0  0  0  0  0  0
  -30.8530  -17.0100   21.1030 C   0  0  0  0  0  3  0  0  0  0  0  0
  -30.0860  -15.9340   20.4400 N   0  0  0  0  0  0  0  0  0  0  0  0
  -25.4530  -13.8120   20.5870 C   0  0  0  0  0  0  0  0  0  0  0  0
  -24.3760  -13.0580   20.9610 C   0  0  0  0  0  0  0  0  0  0  0  0
  -24.7740  -11.6950   20.8000 C   0  0  0  0  0  0  0  0  0  0  0  0
  -26.4400  -12.9110   20.2190 N   0  0  0  0  0  0  0  0  0  0  0  0
  -26.0400  -11.6290   20.4060 N   0  0  0  0  0  0  0  0  0  0  0  0
  -24.0060  -10.4530   20.9410 C   0  0  0  0  0  0  0  0  0  0  0  0
  -24.4390   -9.4070   21.7850 C   0  0  0  0  0  3  0  0  0  0  0  0
  -23.6720   -8.2300   21.9180 C   0  0  0  0  0  3  0  0  0  0  0  0
  -22.4560   -8.0920   21.2050 C   0  0  0  0  0  0  0  0  0  0  0  0
  -22.0410   -9.1260   20.3480 C   0  0  0  0  0  3  0  0  0  0  0  0
  -22.8090  -10.2950   20.2130 C   0  0  0  0  0  3  0  0  0  0  0  0
  -21.6570   -6.9750   21.2510 O   0  0  0  0  0  0  0  0  0  0  0  0
  -21.6070   -6.1720   22.3620 C   0  0  0  0  0  0  0  0  0  0  0  0
  -21.2160   -6.6680   23.6240 C   0  0  0  0  0  3  0  0  0  0  0  0
  -21.1130   -5.7920   24.7240 C   0  0  0  0  0  3  0  0  0  0  0  0
  -21.3920   -4.4220   24.5620 C   0  0  0  0  0  0  0  0  0  0  0  0
  -21.7770   -3.9260   23.3030 C   0  0  0  0  0  3  0  0  0  0  0  0
  -21.8820   -4.7980   22.2060 C   0  0  0  0  0  0  0  0  0  0  0  0
  -22.2330   -4.3100   20.9920 F   0  0  0  0  0  0  0  0  0  0  0  0
  -21.2860   -3.5780   25.6150 F   0  0  0  0  0  0  0  0  0  0  0  0
  -23.0220  -13.5700   21.3560 C   0  0  0  0  0  0  0  0  0  0  0  0
  -22.3210  -12.8470   22.2240 N   0  0  0  0  0  0  0  0  0  0  0  0
  -22.5950  -14.6450   20.9330 O   0  0  0  0  0  0  0  0  0  0  0  0
  -22.6770  -11.9720   22.5810 H   0  0  0  0  0  0  0  0  0  0  0  0
  -21.4150  -13.1690   22.5290 H   0  0  0  0  0  0  0  0  0  0  0  0
  -25.6670  -15.1830   20.5070 N   0  0  0  0  0  0  0  0  0  0  0  0
  -24.9410  -15.8570   20.7290 H   0  0  0  0  0  0  0  0  0  0  0  0
  -26.5220  -15.6100   20.1800 H   0  0  0  0  0  0  0  0  0  0  0  0
  -30.7760  -16.8490   22.6340 C   0  0  0  0  0  0  0  0  0  0  0  0
  -31.3200  -17.9870   23.4840 C   0  0  0  0  0  1  0  0  0  0  0  0
  -30.2920  -15.8590   23.1890 O   0  0  0  0  0  0  0  0  0  0  0  0
  -27.6830  -18.3600   17.6980 C   0  0  0  0  0  0  0  0  0  0  0  0
  -26.2660  -18.0800   18.1800 C   0  0  0  0  0  1  0  0  0  0  0  0
  -27.9540  -18.1710   16.5100 O   0  0  0  0  0  0  0  0  0  0  0  0
  -29.1310  -20.3180   18.4130 C   0  0  0  0  0  2  0  0  0  0  0  0
  -28.2430  -21.4900   18.9480 C   0  0  0  0  0  2  0  0  0  0  0  0
  -28.5730  -22.8540   18.2630 C   0  0  0  0  0  2  0  0  0  0  0  0
  -28.0520  -24.1620   18.9390 C   0  0  0  0  0  2  0  0  0  0  0  0
  -28.3150  -25.4310   18.0680 C   0  0  0  0  0  2  0  0  0  0  0  0
  -28.2990  -26.7020   18.7490 O   0  0  0  0  0  0  0  0  0  0  0  0
  -24.9700  -31.3080   23.0070 C   0  0  0  0  0  0  0  0  0  0  0  0
  -27.1420  -27.4420   18.9250 C   0  0  0  0  0  0  0  0  0  0  0  0
  -23.5730  -30.3080   21.2220 C   0  0  0  0  0  3  0  0  0  0  0  0
  -24.8350  -29.0270   19.4080 C   0  0  0  0  0  0  0  0  0  0  0  0
  -26.0920  -30.5970   20.8950 C   0  0  0  0  0  2  0  0  0  0  0  0
  -26.0560  -29.3760   19.9970 C   0  0  0  0  0  0  0  0  0  0  0  0
  -27.2060  -28.5900   19.7560 C   0  0  0  0  0  3  0  0  0  0  0  0
  -25.9010  -27.1130   18.3330 C   0  0  0  0  0  3  0  0  0  0  0  0
  -24.7550  -27.8980   18.5720 C   0  0  0  0  0  3  0  0  0  0  0  0
  -23.6450  -29.9070   19.7230 C   0  0  0  0  0  2  0  0  0  0  0  0
  -24.9020  -30.7420   21.7670 N   0  0  0  0  0  0  0  0  0  0  0  0
  -23.9470  -31.5090   23.6740 O   0  0  0  0  0  0  0  0  0  0  0  0
  -22.9380  -29.1450   22.0180 C   0  0  0  0  0  0  0  0  0  0  0  0
  -21.6010  -29.0400   21.9570 N   0  0  0  0  0  0  0  0  0  0  0  0
  -23.6430  -28.3490   22.6450 O   0  0  0  0  0  0  0  0  0  0  0  0
  -21.0950  -29.7350   21.4260 H   0  0  0  0  0  0  0  0  0  0  0  0
  -18.2140  -27.8830   22.4440 C   0  0  0  0  0  0  0  0  0  0  0  0
  -20.7920  -27.9990   22.5900 C   0  0  0  0  0  3  0  0  0  0  0  0
  -20.7990  -26.7040   21.7470 C   0  0  0  0  0  2  0  0  0  0  0  0
  -19.6260  -26.6180   20.7660 C   0  0  0  0  0  2  0  0  0  0  0  0
  -18.2910  -26.6840   21.5140 C   0  0  0  0  0  2  0  0  0  0  0  0
  -19.3890  -28.5110   22.9360 C   0  0  0  0  0  0  0  0  0  0  0  0
  -19.2630  -29.6460   23.7650 C   0  0  0  0  0  3  0  0  0  0  0  0
  -17.9940  -30.1480   24.1120 C   0  0  0  0  0  3  0  0  0  0  0  0
  -16.8340  -29.5130   23.6340 C   0  0  0  0  0  3  0  0  0  0  0  0
  -16.9450  -28.3820   22.8050 C   0  0  0  0  0  3  0  0  0  0  0  0
  -26.3310  -31.7500   23.6310 C   0  0  0  0  0  3  0  0  0  0  0  0
  -26.1200  -33.0470   24.2870 N   0  0  0  0  0  0  0  0  0  0  0  0
  -26.4650  -34.2300   23.7600 C   0  0  0  0  0  0  0  0  0  0  0  0
  -27.0660  -34.3370   22.6870 O   0  0  0  0  0  0  0  0  0  0  0  0
  -25.5940  -33.0400   25.1480 H   0  0  0  0  0  0  0  0  0  0  0  0
  -24.8240  -36.1270   23.9210 C   0  0  0  0  0  1  0  0  0  0  0  0
  -26.0800  -35.4960   24.5460 C   0  0  0  0  0  3  0  0  0  0  0  0
  -28.2960  -36.0740   25.4310 C   0  0  0  0  0  1  0  0  0  0  0  0
  -27.1640  -36.5010   24.6150 N   0  0  0  0  0  0  0  0  0  0  0  0
  -26.8160  -37.3790   24.9920 H   0  0  0  0  0  0  0  0  0  0  0  0
  -26.9160  -30.6990   24.6530 C   0  0  1  0  0  0  0  0  0  0  0  0
  -25.9070  -30.2660   25.7420 C   0  0  0  0  0  1  0  0  0  0  0  0
  -27.3890  -29.4260   23.9120 C   0  0  0  0  0  1  0  0  0  0  0  0
  -28.1580  -31.2900   25.3610 C   0  0  0  0  0  1  0  0  0  0  0  0
  1  7  1  0
  1 14  1  0
  2  7  1  0
  3  4  1  0
  3  2  1  0
  5  4  1  0
  5 18  1  0
  5  6  1  0
  7  6  1  0
  8  1  2  0
  9 12  1  0
  9 11  1  0
 10  9  2  0
 11 13  1  0
 12 14  1  0
 13 43  1  0
 14 13  1  0
 15 16  2  0
 16 35  1  0
 17 20  1  0
 17 16  1  0
 18 19  1  0
 18 15  1  0
 19 17  2  0
 20 21  1  0
 21 22  2  0
 23 26  1  0
 23 22  1  0
 24 23  2  0
 25 24  1  0
 25 20  2  0
 26 27  1  0
 27 28  1  0
 28 29  2  0
 30 29  1  0
 30 34  1  0
 31 30  2  0
 32 27  2  0
 32 31  1  0
 33 32  1  0
 35 36  1  0
 36 39  1  0
 36 38  1  0
 37 35  2  0
 40 15  1  0
 40 41  1  0
 42 40  1  0
 43 45  2  0
 43 44  1  0
 46 47  1  0
 46 10  1  0
 48 46  2  0
 49 10  1  0
 49 50  1  0
 51 52  1  0
 51 50  1  0
 53 54  1  0
 53 52  1  0
 54 56  1  0
 55 66  2  0
 56 61  1  0
 57 65  1  0
 57 67  1  0
 58 64  1  0
 58 60  1  0
 59 65  1  0
 60 59  1  0
 61 60  2  0
 62 63  1  0
 62 56  2  0
 63 58  2  0
 64 57  1  0
 65 55  1  0
 67 69  2  0
 68 67  1  0
 70 68  1  0
 71 80  2  0
 71 76  1  0
 72 68  1  0
 72 76  1  0
 73 72  1  0
 74 75  1  0
 74 73  1  0
 75 71  1  0
 76 77  2  0
 77 78  1  0
 79 78  2  0
 80 79  1  0
 81 55  1  0
 81 82  1  0
 81 91  1  0
 82 85  1  0
 83 82  1  0
 83 87  1  0
 84 83  2  0
 87 86  1  0
 87 89  1  0
 89 90  1  0
 89 88  1  0
 91 94  1  1
 91 92  1  0
 93 91  1  0
M  ISO  4   1 100  14 100  53 101  54 101
M  END
>  <TORSDO>  (66) 
F 22

>  <SCORE>  (66) 
-7.973

>  <name>  (66) 
67

>  <ligand_id>  (66) 
67

>  <original_smiles>  (66) 
[H]c1c([H])c([H])c2c(c1[H])C([H])([H])C([H])([H])C([H])([H])C2([H])N([H])C(=O)C1([H])N(C(=O)C([H])(N([H])C(=O)C([H])(N([H])C([H])([H])[H])C([H])([H])[H])C(C([H])([H])[H])(C([H])([H])[H])C([H])([H])[H])C([H])([H])c2c([H])c(OC([H])([H])C([H])([H])C([H])([H])C([H])([H])C([H])([H])C(C(=O)C([H])([H])[H])=C3C([H])([H])N(C(=O)N4C([H])([H])C([H])([H])C([H])([H])C([H])(n5nc(-c6c([H])c([H])c(Oc7c([H])c([H])c(F)c([H])c7F)c([H])c6[H])c(C(=O)N([H])[H])c5N([H])[H])C4([H])[H])C([H])(C(=O)C([H])([H])[H])C3([H])[H])c([H])c([H])c2C1([H])[H]

>  <smiles>  (66) 
[H]c1c([H])c([H])c2c(c1[H])C([H])([H])C([H])([H])C([H])([H])C2([H])N([H])C(=O)C1([H])N(C(=O)C([H])(N([H])C(=O)C([H])(N([H])C([H])([H])[H])C([H])([H])[H])C(C([H])([H])[H])(C([H])([H])[H])C([H])([H])[H])C([H])([H])c2c([H])c(OC([H])([H])C([H])([H])C([H])([H])C([H])([H])C([H])([H])C(C(=O)C([H])([H])[H])=C3C([H])([H])N(C(=O)N4C([H])([H])C([H])([H])C([H])([H])C([H])(n5nc(-c6c([H])c([H])c(Oc7c([H])c([H])c(F)c([H])c7F)c([H])c6[H])c(C(=O)N([H])[H])c5N([H])[H])C4([H])[H])C([H])(C(=O)C([H])([H])[H])C3([H])[H])c([H])c([H])c2C1([H])[H]

$$$$
68:0:0
     RDKit          3D

 95103  0  0  1  0  0  0  0  0999 V2000
  -30.7810  -21.9420   22.3680 C   0  0  0  0  0  3  0  0  0  0  0  0
  -30.4830  -20.6560   21.8750 C   0  0  0  0  0  3  0  0  0  0  0  0
  -30.2840  -23.0880   21.7210 C   0  0  0  0  0  3  0  0  0  0  0  0
  -29.1310  -21.6690   20.1140 C   0  0  0  0  0  3  0  0  0  0  0  0
  -29.6690  -20.4980   20.7300 C   0  0  0  0  0  0  0  0  0  0  0  0
  -29.4500  -22.9750   20.5890 C   0  0  0  0  0  0  0  0  0  0  0  0
  -29.3460  -19.1180   20.2120 C   0  0  0  0  0  0  0  0  0  0  0  0
  -28.2530  -18.8800   19.6860 O   0  0  0  0  0  0  0  0  0  0  0  0
  -30.4510  -18.0070   20.2430 C   0  0  0  0  0  3  0  0  0  0  0  0
  -30.4710  -17.4300   18.8870 N   0  0  0  0  0  4  0  0  0  0  0  0
  -29.5510  -17.0930   18.6720 H   0  0  0  0  0  0  0  0  0  0  0  0
  -31.1460  -16.6890   18.8200 H   0  0  0  0  0  0  0  0  0  0  0  0
  -30.6970  -18.1490   18.2220 H   0  0  0  0  0  0  0  0  0  0  0  0
  -30.2930  -16.9120   21.3650 C   0  0  0  0  0  2  0  0  0  0  0  0
  -30.6100  -14.5250   20.5010 C   0  0  0  0  0  0  0  0  0  0  0  0
  -30.3420  -12.3680   19.3250 C   0  0  0  0  0  2  0  0  0  0  0  0
  -29.3890  -12.5700   18.1270 C   0  0  0  0  0  2  0  0  0  0  0  0
  -27.9140  -12.4360   18.5570 C   0  0  0  0  0  2  0  0  0  0  0  0
  -27.5840  -13.2570   19.8330 C   0  0  0  0  0  3  0  0  0  0  0  0
  -28.6430  -13.0150   20.9330 C   0  0  0  0  0  2  0  0  0  0  0  0
  -29.9590  -13.3390   20.3600 N   0  0  0  0  0  0  0  0  0  0  0  0
  -31.7390  -14.7400   20.0510 O   0  0  0  0  0  0  0  0  0  0  0  0
  -29.8610  -15.5380   20.9870 N   0  0  0  0  0  0  0  0  0  0  0  0
  -28.9280  -15.2740   21.2720 H   0  0  0  0  0  0  0  0  0  0  0  0
  -25.1910  -13.8780   20.5440 C   0  0  0  0  0  0  0  0  0  0  0  0
  -24.1200  -13.1100   20.9170 C   0  0  0  0  0  0  0  0  0  0  0  0
  -24.5750  -11.7570   20.8870 C   0  0  0  0  0  0  0  0  0  0  0  0
  -26.2310  -12.9900   20.3130 N   0  0  0  0  0  0  0  0  0  0  0  0
  -25.8650  -11.7100   20.5770 N   0  0  0  0  0  0  0  0  0  0  0  0
  -23.8440  -10.4980   21.0790 C   0  0  0  0  0  0  0  0  0  0  0  0
  -24.2910   -9.5180   21.9910 C   0  0  0  0  0  3  0  0  0  0  0  0
  -23.5630   -8.3220   22.1720 C   0  0  0  0  0  3  0  0  0  0  0  0
  -22.3730   -8.0990   21.4390 C   0  0  0  0  0  0  0  0  0  0  0  0
  -21.9450   -9.0680   20.5150 C   0  0  0  0  0  3  0  0  0  0  0  0
  -22.6740  -10.2550   20.3330 C   0  0  0  0  0  3  0  0  0  0  0  0
  -21.6130   -6.9580   21.5310 O   0  0  0  0  0  0  0  0  0  0  0  0
  -21.6010   -6.1900   22.6670 C   0  0  0  0  0  0  0  0  0  0  0  0
  -21.2470   -6.7260   23.9260 C   0  0  0  0  0  3  0  0  0  0  0  0
  -21.1810   -5.8850   25.0550 C   0  0  0  0  0  3  0  0  0  0  0  0
  -21.4580   -4.5110   24.9280 C   0  0  0  0  0  0  0  0  0  0  0  0
  -21.8040   -3.9750   23.6750 C   0  0  0  0  0  3  0  0  0  0  0  0
  -21.8740   -4.8130   22.5480 C   0  0  0  0  0  0  0  0  0  0  0  0
  -22.1870   -4.2870   21.3400 F   0  0  0  0  0  0  0  0  0  0  0  0
  -21.3870   -3.7020   26.0120 F   0  0  0  0  0  0  0  0  0  0  0  0
  -22.7250  -13.5930   21.1910 C   0  0  0  0  0  0  0  0  0  0  0  0
  -21.9960  -12.9010   22.0610 N   0  0  0  0  0  0  0  0  0  0  0  0
  -22.2880  -14.6170   20.6670 O   0  0  0  0  0  0  0  0  0  0  0  0
  -22.3580  -12.0720   22.5080 H   0  0  0  0  0  0  0  0  0  0  0  0
  -21.0590  -13.2070   22.2840 H   0  0  0  0  0  0  0  0  0  0  0  0
  -25.3600  -15.2480   20.3600 N   0  0  0  0  0  0  0  0  0  0  0  0
  -24.5920  -15.9020   20.4650 H   0  0  0  0  0  0  0  0  0  0  0  0
  -26.2020  -15.6840   20.0090 H   0  0  0  0  0  0  0  0  0  0  0  0
  -29.0060  -24.2570   19.8500 C   0  0  0  0  0  2  0  0  0  0  0  0
  -28.2990  -25.3510   20.7090 C   0  0  0  0  0  2  0  0  0  0  0  0
  -28.3660  -26.6780   20.1340 O   0  0  0  0  0  0  0  0  0  0  0  0
  -24.5870  -31.8940   23.2410 C   0  0  0  0  0  0  0  0  0  0  0  0
  -27.2040  -27.4270   20.1600 C   0  0  0  0  0  0  0  0  0  0  0  0
  -23.3680  -30.4890   21.6120 C   0  0  0  0  0  3  0  0  0  0  0  0
  -24.8110  -28.9450   20.1800 C   0  0  0  0  0  0  0  0  0  0  0  0
  -25.8940  -30.8440   21.3950 C   0  0  0  0  0  2  0  0  0  0  0  0
  -25.9750  -29.4700   20.7560 C   0  0  0  0  0  0  0  0  0  0  0  0
  -27.1780  -28.7220   20.7350 C   0  0  0  0  0  3  0  0  0  0  0  0
  -26.0250  -26.9220   19.5740 C   0  0  0  0  0  3  0  0  0  0  0  0
  -24.8320  -27.6710   19.5850 C   0  0  0  0  0  3  0  0  0  0  0  0
  -23.5670  -29.8050   20.2330 C   0  0  0  0  0  2  0  0  0  0  0  0
  -24.6350  -31.0920   22.1390 N   0  0  0  0  0  0  0  0  0  0  0  0
  -23.5100  -32.1660   23.7890 O   0  0  0  0  0  0  0  0  0  0  0  0
  -22.7260  -29.4700   22.5810 C   0  0  0  0  0  0  0  0  0  0  0  0
  -21.4010  -29.2810   22.4600 N   0  0  0  0  0  0  0  0  0  0  0  0
  -23.4150  -28.8510   23.3950 O   0  0  0  0  0  0  0  0  0  0  0  0
  -20.9050  -29.8330   21.7750 H   0  0  0  0  0  0  0  0  0  0  0  0
  -18.0380  -28.0630   22.9690 C   0  0  0  0  0  0  0  0  0  0  0  0
  -20.5930  -28.3430   23.2390 C   0  0  0  0  0  3  0  0  0  0  0  0
  -20.7060  -26.9070   22.6760 C   0  0  0  0  0  2  0  0  0  0  0  0
  -19.6070  -26.5680   21.6620 C   0  0  0  0  0  2  0  0  0  0  0  0
  -18.2240  -26.7080   22.3050 C   0  0  0  0  0  2  0  0  0  0  0  0
  -19.1500  -28.8370   23.3930 C   0  0  0  0  0  0  0  0  0  0  0  0
  -18.9230  -30.1030   23.9730 C   0  0  0  0  0  3  0  0  0  0  0  0
  -17.6150  -30.5970   24.1340 C   0  0  0  0  0  3  0  0  0  0  0  0
  -16.5160  -29.8200   23.7260 C   0  0  0  0  0  3  0  0  0  0  0  0
  -16.7280  -28.5550   23.1510 C   0  0  0  0  0  3  0  0  0  0  0  0
  -25.8760  -32.5280   23.8470 C   0  0  0  0  0  3  0  0  0  0  0  0
  -25.5650  -33.9230   24.1860 N   0  0  0  0  0  0  0  0  0  0  0  0
  -25.8830  -34.9810   23.4290 C   0  0  0  0  0  0  0  0  0  0  0  0
  -26.5440  -34.8850   22.3900 O   0  0  0  0  0  0  0  0  0  0  0  0
  -24.9740  -34.0690   24.9920 H   0  0  0  0  0  0  0  0  0  0  0  0
  -24.1390  -36.7660   23.1020 C   0  0  0  0  0  1  0  0  0  0  0  0
  -25.3930  -36.3650   23.8950 C   0  0  0  0  0  3  0  0  0  0  0  0
  -27.5340  -37.2580   24.6990 C   0  0  0  0  0  1  0  0  0  0  0  0
  -26.4170  -37.4250   23.7740 N   0  0  0  0  0  0  0  0  0  0  0  0
  -26.0060  -38.3410   23.9330 H   0  0  0  0  0  0  0  0  0  0  0  0
  -26.4140  -31.7540   25.1140 C   0  0  1  0  0  0  0  0  0  0  0  0
  -25.3360  -31.5100   26.1950 C   0  0  0  0  0  1  0  0  0  0  0  0
  -26.9970  -30.3790   24.7100 C   0  0  0  0  0  1  0  0  0  0  0  0
  -27.5690  -32.5510   25.7650 C   0  0  0  0  0  1  0  0  0  0  0  0
  2  1  1  0
  3  1  2  0
  4  6  2  0
  4  5  1  0
  5  2  2  0
  6  3  1  0
  7  9  1  0
  7  5  1  0
  8  7  2  0
  9 14  1  0
 10  9  1  0
 11 10  1  0
 12 10  1  0
 13 10  1  0
 15 23  1  0
 16 21  1  0
 17 18  1  0
 17 16  1  0
 19 18  1  0
 19 28  1  0
 19 20  1  0
 21 15  1  0
 21 20  1  0
 22 15  2  0
 23 24  1  0
 23 14  1  0
 25 26  2  0
 26 45  1  0
 27 26  1  0
 27 30  1  0
 28 25  1  0
 28 29  1  0
 29 27  2  0
 30 31  1  0
 31 32  2  0
 33 36  1  0
 33 32  1  0
 34 33  2  0
 35 34  1  0
 35 30  2  0
 36 37  1  0
 37 38  1  0
 38 39  2  0
 40 39  1  0
 40 44  1  0
 41 40  2  0
 42 37  2  0
 42 41  1  0
 43 42  1  0
 45 46  1  0
 46 49  1  0
 46 48  1  0
 47 45  2  0
 50 51  1  0
 50 25  1  0
 52 50  1  0
 53  6  1  0
 53 54  1  0
 55 57  1  0
 55 54  1  0
 56 67  2  0
 57 62  1  0
 58 66  1  0
 58 68  1  0
 59 65  1  0
 59 61  1  0
 60 66  1  0
 61 60  1  0
 62 61  2  0
 63 64  1  0
 63 57  2  0
 64 59  2  0
 65 58  1  0
 66 56  1  0
 68 70  2  0
 69 68  1  0
 71 69  1  0
 72 81  2  0
 72 77  1  0
 73 69  1  0
 73 77  1  0
 74 73  1  0
 75 76  1  0
 75 74  1  0
 76 72  1  0
 77 78  2  0
 78 79  1  0
 80 79  2  0
 81 80  1  0
 82 56  1  0
 82 83  1  0
 82 92  1  0
 83 86  1  0
 84 88  1  0
 84 83  1  0
 85 84  2  0
 88 87  1  0
 90 88  1  0
 90 91  1  0
 90 89  1  0
 92 95  1  1
 92 93  1  0
 94 92  1  0
M  ISO  4  15 100  23 100  54 101  55 101
M  END
>  <TORSDO>  (67) 
F 22

>  <SCORE>  (67) 
-13.674

>  <name>  (67) 
68

>  <ligand_id>  (67) 
68

>  <original_smiles>  (67) 
[H]c1c([H])c(C(=O)C([H])(C([H])([H])N([H])C(=O)N2C([H])([H])C([H])([H])C([H])([H])C([H])(n3nc(-c4c([H])c([H])c(Oc5c([H])c([H])c(F)c([H])c5F)c([H])c4[H])c(C(=O)N([H])[H])c3N([H])[H])C2([H])[H])[N+]([H])([H])[H])c([H])c(C([H])([H])C([H])([H])Oc2c([H])c([H])c3c(c2[H])C([H])([H])N(C(=O)C([H])(N([H])C(=O)C([H])(N([H])C([H])([H])[H])C([H])([H])[H])C(C([H])([H])[H])(C([H])([H])[H])C([H])([H])[H])C([H])(C(=O)N([H])C2([H])c4c([H])c([H])c([H])c([H])c4C([H])([H])C([H])([H])C2([H])[H])C3([H])[H])c1[H]

>  <smiles>  (67) 
[H]c1c([H])c(C(=O)C([H])(C([H])([H])N([H])C(=O)N2C([H])([H])C([H])([H])C([H])([H])C([H])(n3nc(-c4c([H])c([H])c(Oc5c([H])c([H])c(F)c([H])c5F)c([H])c4[H])c(C(=O)N([H])[H])c3N([H])[H])C2([H])[H])[N+]([H])([H])[H])c([H])c(C([H])([H])C([H])([H])Oc2c([H])c([H])c3c(c2[H])C([H])([H])N(C(=O)C([H])(N([H])C(=O)C([H])(N([H])C([H])([H])[H])C([H])([H])[H])C(C([H])([H])[H])(C([H])([H])[H])C([H])([H])[H])C([H])(C(=O)N([H])C2([H])c4c([H])c([H])c([H])c([H])c4C([H])([H])C([H])([H])C2([H])[H])C3([H])[H])c1[H]

$$$$
69:0:0
     RDKit          3D

 92100  0  0  1  0  0  0  0  0999 V2000
  -29.9110  -20.0240   21.1210 C   0  0  0  0  0  3  0  0  0  0  0  0
  -28.7170  -19.8980   19.0170 C   0  0  0  0  0  3  0  0  0  0  0  0
  -29.6360  -21.4150   21.1870 C   0  0  0  0  0  3  0  0  0  0  0  0
  -28.4420  -21.2820   19.0820 C   0  0  0  0  0  3  0  0  0  0  0  0
  -29.4370  -19.2340   20.0420 C   0  0  0  0  0  0  0  0  0  0  0  0
  -28.8840  -22.0570   20.1760 C   0  0  0  0  0  0  0  0  0  0  0  0
  -29.6520  -17.7390   19.9340 C   0  0  0  0  0  0  0  0  0  0  0  0
  -29.3130  -17.1070   18.9270 O   0  0  0  0  0  0  0  0  0  0  0  0
  -30.2750  -16.9540   21.1140 C   0  0  0  0  0  2  0  0  0  0  0  0
  -30.6570  -14.5250   20.4890 C   0  0  0  0  0  0  0  0  0  0  0  0
  -30.3790  -12.3710   19.3090 C   0  0  0  0  0  2  0  0  0  0  0  0
  -29.4330  -12.5770   18.1070 C   0  0  0  0  0  2  0  0  0  0  0  0
  -27.9590  -12.4310   18.5350 C   0  0  0  0  0  2  0  0  0  0  0  0
  -27.6210  -13.2560   19.8060 C   0  0  0  0  0  3  0  0  0  0  0  0
  -28.6750  -13.0210   20.9110 C   0  0  0  0  0  2  0  0  0  0  0  0
  -29.9980  -13.3410   20.3480 N   0  0  0  0  0  0  0  0  0  0  0  0
  -31.7740  -14.7350   20.0110 O   0  0  0  0  0  0  0  0  0  0  0  0
  -29.9460  -15.5080   21.0690 N   0  0  0  0  0  0  0  0  0  0  0  0
  -29.0240  -15.2560   21.3860 H   0  0  0  0  0  0  0  0  0  0  0  0
  -25.2170  -13.8590   20.5050 C   0  0  0  0  0  0  0  0  0  0  0  0
  -24.1500  -13.0860   20.8750 C   0  0  0  0  0  0  0  0  0  0  0  0
  -24.6150  -11.7350   20.8500 C   0  0  0  0  0  0  0  0  0  0  0  0
  -26.2650  -12.9800   20.2810 N   0  0  0  0  0  0  0  0  0  0  0  0
  -25.9050  -11.6980   20.5440 N   0  0  0  0  0  0  0  0  0  0  0  0
  -23.8920  -10.4700   21.0400 C   0  0  0  0  0  0  0  0  0  0  0  0
  -24.3310   -9.5020   21.9710 C   0  0  0  0  0  3  0  0  0  0  0  0
  -23.6090   -8.3030   22.1500 C   0  0  0  0  0  3  0  0  0  0  0  0
  -22.4330   -8.0630   21.4000 C   0  0  0  0  0  0  0  0  0  0  0  0
  -22.0140   -9.0200   20.4600 C   0  0  0  0  0  3  0  0  0  0  0  0
  -22.7350  -10.2110   20.2780 C   0  0  0  0  0  3  0  0  0  0  0  0
  -21.6820   -6.9160   21.4900 O   0  0  0  0  0  0  0  0  0  0  0  0
  -21.6470   -6.1660   22.6380 C   0  0  0  0  0  0  0  0  0  0  0  0
  -21.2430   -6.7150   23.8750 C   0  0  0  0  0  3  0  0  0  0  0  0
  -21.1560   -5.8920   25.0160 C   0  0  0  0  0  3  0  0  0  0  0  0
  -21.4610   -4.5200   24.9190 C   0  0  0  0  0  0  0  0  0  0  0  0
  -21.8590   -3.9720   23.6880 C   0  0  0  0  0  3  0  0  0  0  0  0
  -21.9490   -4.7930   22.5500 C   0  0  0  0  0  0  0  0  0  0  0  0
  -22.3120   -4.2540   21.3610 F   0  0  0  0  0  0  0  0  0  0  0  0
  -21.3690   -3.7280   26.0120 F   0  0  0  0  0  0  0  0  0  0  0  0
  -22.7510  -13.5610   21.1430 C   0  0  0  0  0  0  0  0  0  0  0  0
  -22.0210  -12.8640   22.0070 N   0  0  0  0  0  0  0  0  0  0  0  0
  -22.3130  -14.5840   20.6190 O   0  0  0  0  0  0  0  0  0  0  0  0
  -22.3870  -12.0350   22.4530 H   0  0  0  0  0  0  0  0  0  0  0  0
  -21.0820  -13.1650   22.2260 H   0  0  0  0  0  0  0  0  0  0  0  0
  -25.3790  -15.2290   20.3190 N   0  0  0  0  0  0  0  0  0  0  0  0
  -24.6060  -15.8790   20.4050 H   0  0  0  0  0  0  0  0  0  0  0  0
  -26.2140  -15.6590   19.9400 H   0  0  0  0  0  0  0  0  0  0  0  0
  -28.4830  -23.5380   20.2750 C   0  0  0  0  0  2  0  0  0  0  0  0
  -29.4330  -24.5250   19.5530 C   0  0  0  0  0  2  0  0  0  0  0  0
  -29.7800  -26.6780   18.2370 C   0  0  0  0  0  1  0  0  0  0  0  0
  -28.7960  -25.8720   19.0970 C   0  0  0  0  0  3  0  0  0  0  0  0
  -28.4400  -26.7330   20.1970 O   0  0  0  0  0  0  0  0  0  0  0  0
  -24.5900  -31.9080   23.2500 C   0  0  0  0  0  0  0  0  0  0  0  0
  -27.2580  -27.4560   20.1620 C   0  0  0  0  0  0  0  0  0  0  0  0
  -23.3890  -30.4990   21.6120 C   0  0  0  0  0  3  0  0  0  0  0  0
  -24.8480  -28.9600   20.1910 C   0  0  0  0  0  0  0  0  0  0  0  0
  -25.9170  -30.8570   21.4170 C   0  0  0  0  0  2  0  0  0  0  0  0
  -26.0060  -29.4840   20.7780 C   0  0  0  0  0  0  0  0  0  0  0  0
  -27.2080  -28.7360   20.7680 C   0  0  0  0  0  3  0  0  0  0  0  0
  -26.0680  -26.9400   19.5970 C   0  0  0  0  0  3  0  0  0  0  0  0
  -24.8740  -27.6850   19.6040 C   0  0  0  0  0  3  0  0  0  0  0  0
  -23.6020  -29.8150   20.2350 C   0  0  0  0  0  2  0  0  0  0  0  0
  -24.6510  -31.1030   22.1510 N   0  0  0  0  0  0  0  0  0  0  0  0
  -23.5070  -32.1800   23.7880 O   0  0  0  0  0  0  0  0  0  0  0  0
  -22.7380  -29.4790   22.5750 C   0  0  0  0  0  0  0  0  0  0  0  0
  -21.4140  -29.2940   22.4460 N   0  0  0  0  0  0  0  0  0  0  0  0
  -23.4220  -28.8560   23.3920 O   0  0  0  0  0  0  0  0  0  0  0  0
  -20.9240  -29.8490   21.7580 H   0  0  0  0  0  0  0  0  0  0  0  0
  -18.0400  -28.1010   22.9460 C   0  0  0  0  0  0  0  0  0  0  0  0
  -20.5970  -28.3580   23.2190 C   0  0  0  0  0  3  0  0  0  0  0  0
  -20.7000  -26.9260   22.6430 C   0  0  0  0  0  2  0  0  0  0  0  0
  -19.5980  -26.6030   21.6290 C   0  0  0  0  0  2  0  0  0  0  0  0
  -18.2160  -26.7500   22.2710 C   0  0  0  0  0  2  0  0  0  0  0  0
  -19.1580  -28.8630   23.3760 C   0  0  0  0  0  0  0  0  0  0  0  0
  -18.9400  -30.1270   23.9650 C   0  0  0  0  0  3  0  0  0  0  0  0
  -17.6360  -30.6290   24.1290 C   0  0  0  0  0  3  0  0  0  0  0  0
  -16.5310  -29.8640   23.7170 C   0  0  0  0  0  3  0  0  0  0  0  0
  -16.7340  -28.6020   23.1300 C   0  0  0  0  0  3  0  0  0  0  0  0
  -25.8730  -32.5440   23.8700 C   0  0  0  0  0  3  0  0  0  0  0  0
  -25.5620  -33.9440   24.1920 N   0  0  0  0  0  0  0  0  0  0  0  0
  -25.9000  -34.9920   23.4300 C   0  0  0  0  0  0  0  0  0  0  0  0
  -26.5770  -34.8830   22.4040 O   0  0  0  0  0  0  0  0  0  0  0  0
  -24.9610  -34.1020   24.9870 H   0  0  0  0  0  0  0  0  0  0  0  0
  -24.1770  -36.7840   23.0490 C   0  0  0  0  0  1  0  0  0  0  0  0
  -25.4090  -36.3820   23.8760 C   0  0  0  0  0  3  0  0  0  0  0  0
  -27.5370  -37.2680   24.7240 C   0  0  0  0  0  1  0  0  0  0  0  0
  -26.4440  -37.4340   23.7700 N   0  0  0  0  0  0  0  0  0  0  0  0
  -26.0370  -38.3550   23.9100 H   0  0  0  0  0  0  0  0  0  0  0  0
  -26.3910  -31.7790   25.1500 C   0  0  1  0  0  0  0  0  0  0  0  0
  -25.2970  -31.5450   26.2190 C   0  0  0  0  0  1  0  0  0  0  0  0
  -26.9740  -30.4000   24.7630 C   0  0  0  0  0  1  0  0  0  0  0  0
  -27.5390  -32.5780   25.8090 C   0  0  0  0  0  1  0  0  0  0  0  0
  1  3  1  0
  2  4  2  0
  2  5  1  0
  4  6  1  0
  5  1  2  0
  6 48  1  0
  6  3  2  0
  7  5  1  0
  7  9  1  0
  8  7  2  0
 10 18  1  0
 11 16  1  0
 12 13  1  0
 12 11  1  0
 14 13  1  0
 14 23  1  0
 14 15  1  0
 16 10  1  0
 16 15  1  0
 17 10  2  0
 18  9  1  0
 18 19  1  0
 20 21  2  0
 21 40  1  0
 22 21  1  0
 22 25  1  0
 23 20  1  0
 23 24  1  0
 24 22  2  0
 25 26  1  0
 26 27  2  0
 28 31  1  0
 28 27  1  0
 29 28  2  0
 30 29  1  0
 30 25  2  0
 31 32  1  0
 32 33  1  0
 33 34  2  0
 35 34  1  0
 35 39  1  0
 36 35  2  0
 37 32  2  0
 37 36  1  0
 38 37  1  0
 40 41  1  0
 41 44  1  0
 41 43  1  0
 42 40  2  0
 45 46  1  0
 45 20  1  0
 47 45  1  0
 49 48  1  0
 51 50  1  0
 51 49  1  0
 51 52  1  0
 53 64  2  0
 54 52  1  0
 54 59  1  0
 55 63  1  0
 55 65  1  0
 56 62  1  0
 56 58  1  0
 57 63  1  0
 58 57  1  0
 59 58  2  0
 60 61  1  0
 60 54  2  0
 61 56  2  0
 62 55  1  0
 63 53  1  0
 65 67  2  0
 66 65  1  0
 68 66  1  0
 69 78  2  0
 69 74  1  0
 70 66  1  0
 70 74  1  0
 71 70  1  0
 72 73  1  0
 72 71  1  0
 73 69  1  0
 74 75  2  0
 75 76  1  0
 77 76  2  0
 78 77  1  0
 79 53  1  0
 79 80  1  0
 79 89  1  0
 80 83  1  0
 81 85  1  0
 81 80  1  0
 82 81  2  0
 85 84  1  0
 87 85  1  0
 87 88  1  0
 87 86  1  0
 89 92  1  1
 89 90  1  0
 91 89  1  0
M  ISO  4  10 100  18 100  51 101  52 101
M  END
>  <TORSDO>  (68) 
F 21

>  <SCORE>  (68) 
-13.703

>  <name>  (68) 
69

>  <ligand_id>  (68) 
69

>  <original_smiles>  (68) 
[H]c1c([H])c([H])c2c(c1[H])C([H])([H])C([H])([H])C([H])([H])C2([H])N([H])C(=O)C1([H])N(C(=O)C([H])(N([H])C(=O)C([H])(N([H])C([H])([H])[H])C([H])([H])[H])C(C([H])([H])[H])(C([H])([H])[H])C([H])([H])[H])C([H])([H])c2c([H])c(OC([H])(C([H])([H])[H])C([H])([H])C([H])([H])c3c([H])c([H])c(C(=O)C([H])([H])N([H])C(=O)N4C([H])([H])C([H])([H])C([H])([H])C([H])(n5nc(-c6c([H])c([H])c(Oc7c([H])c([H])c(F)c([H])c7F)c([H])c6[H])c(C(=O)N([H])[H])c5N([H])[H])C4([H])[H])c([H])c3[H])c([H])c([H])c2C1([H])[H]

>  <smiles>  (68) 
[H]c1c([H])c([H])c2c(c1[H])C([H])([H])C([H])([H])C([H])([H])C2([H])N([H])C(=O)C1([H])N(C(=O)C([H])(N([H])C(=O)C([H])(N([H])C([H])([H])[H])C([H])([H])[H])C(C([H])([H])[H])(C([H])([H])[H])C([H])([H])[H])C([H])([H])c2c([H])c(OC([H])(C([H])([H])[H])C([H])([H])C([H])([H])c3c([H])c([H])c(C(=O)C([H])([H])N([H])C(=O)N4C([H])([H])C([H])([H])C([H])([H])C([H])(n5nc(-c6c([H])c([H])c(Oc7c([H])c([H])c(F)c([H])c7F)c([H])c6[H])c(C(=O)N([H])[H])c5N([H])[H])C4([H])[H])c([H])c3[H])c([H])c([H])c2C1([H])[H]

$$$$
70:0:0
     RDKit          3D

102110  0  0  1  0  0  0  0  0999 V2000
  -30.0870  -22.2550   22.3770 C   0  0  0  0  0  3  0  0  0  0  0  0
  -30.0670  -20.9970   21.7300 C   0  0  0  0  0  3  0  0  0  0  0  0
  -28.7530  -22.0500   19.9970 C   0  0  0  0  0  3  0  0  0  0  0  0
  -29.4550  -23.4250   21.8700 C   0  0  0  0  0  0  0  0  0  0  0  0
  -29.3860  -20.7920   20.5170 C   0  0  0  0  0  0  0  0  0  0  0  0
  -28.7810  -23.4180   20.6130 C   0  0  0  0  0  0  0  0  0  0  0  0
  -29.4750  -24.5940   22.7600 C   0  0  0  0  0  0  0  0  0  0  0  0
  -28.9290  -24.5000   23.9710 N   0  0  0  0  0  0  0  0  0  0  0  0
  -30.0650  -25.7340   22.4180 N   0  0  0  0  0  4  0  0  0  0  0  0
  -28.4540  -23.6430   24.2200 H   0  0  0  0  0  0  0  0  0  0  0  0
  -28.9370  -25.2480   24.6450 H   0  0  0  0  0  0  0  0  0  0  0  0
  -30.4050  -25.8470   21.4760 H   0  0  0  0  0  0  0  0  0  0  0  0
  -30.0850  -26.5340   23.0310 H   0  0  0  0  0  0  0  0  0  0  0  0
  -27.9590  -18.9340   19.4210 C   0  0  0  0  0  1  0  0  0  0  0  0
  -29.3940  -19.2420   19.8800 C   0  0  1  0  0  0  0  0  0  0  0  0
  -30.3380  -19.2100   18.6390 C   0  0  0  0  0  2  0  0  0  0  0  0
  -30.2330  -20.3580   17.6090 C   0  0  0  0  0  2  0  0  0  0  0  0
  -31.0640  -20.1180   16.4160 N   0  0  0  0  0  4  0  0  0  0  0  0
  -32.0240  -19.9560   16.6650 H   0  0  0  0  0  0  0  0  0  0  0  0
  -31.0330  -20.9210   15.8110 H   0  0  0  0  0  0  0  0  0  0  0  0
  -30.7230  -19.3290   15.8930 H   0  0  0  0  0  0  0  0  0  0  0  0
  -29.9030  -17.8740   20.7660 C   0  0  0  0  0  2  0  0  0  0  0  0
  -30.4940  -15.1590   20.3130 C   0  0  0  0  0  0  0  0  0  0  0  0
  -30.4170  -12.8020   19.3550 C   0  0  0  0  0  2  0  0  0  0  0  0
  -29.4640  -12.7170   18.1400 C   0  0  0  0  0  2  0  0  0  0  0  0
  -28.0100  -12.4740   18.5910 C   0  0  0  0  0  2  0  0  0  0  0  0
  -27.5990  -13.3900   19.7730 C   0  0  0  0  0  3  0  0  0  0  0  0
  -28.6720  -13.4340   20.8790 C   0  0  0  0  0  2  0  0  0  0  0  0
  -29.9180  -13.8870   20.2440 N   0  0  0  0  0  0  0  0  0  0  0  0
  -31.7080  -15.2390   20.0990 O   0  0  0  0  0  0  0  0  0  0  0  0
  -29.6850  -16.3310   20.4130 N   0  0  0  0  0  0  0  0  0  0  0  0
  -28.7060  -16.0900   20.4150 H   0  0  0  0  0  0  0  0  0  0  0  0
  -25.2210  -13.9080   20.5610 C   0  0  0  0  0  0  0  0  0  0  0  0
  -24.1760  -13.1080   20.9330 C   0  0  0  0  0  0  0  0  0  0  0  0
  -24.6650  -11.7660   20.8740 C   0  0  0  0  0  0  0  0  0  0  0  0
  -26.2760  -13.0540   20.2900 N   0  0  0  0  0  0  0  0  0  0  0  0
  -25.9530  -11.7600   20.5480 N   0  0  0  0  0  0  0  0  0  0  0  0
  -23.9630  -10.4880   21.0570 C   0  0  0  0  0  0  0  0  0  0  0  0
  -24.3980   -9.5320   22.0030 C   0  0  0  0  0  3  0  0  0  0  0  0
  -23.6950   -8.3190   22.1720 C   0  0  0  0  0  3  0  0  0  0  0  0
  -22.5430   -8.0540   21.3950 C   0  0  0  0  0  0  0  0  0  0  0  0
  -22.1290   -8.9960   20.4380 C   0  0  0  0  0  3  0  0  0  0  0  0
  -22.8310  -10.2000   20.2670 C   0  0  0  0  0  3  0  0  0  0  0  0
  -21.8110   -6.8920   21.4700 O   0  0  0  0  0  0  0  0  0  0  0  0
  -21.7350   -6.1630   22.6290 C   0  0  0  0  0  0  0  0  0  0  0  0
  -21.1990   -6.7070   23.8170 C   0  0  0  0  0  3  0  0  0  0  0  0
  -21.0790   -5.9040   24.9690 C   0  0  0  0  0  3  0  0  0  0  0  0
  -21.4830   -4.5560   24.9320 C   0  0  0  0  0  0  0  0  0  0  0  0
  -22.0110   -4.0090   23.7490 C   0  0  0  0  0  3  0  0  0  0  0  0
  -22.1350   -4.8110   22.6010 C   0  0  0  0  0  0  0  0  0  0  0  0
  -22.6270   -4.2740   21.4570 F   0  0  0  0  0  0  0  0  0  0  0  0
  -21.3580   -3.7810   26.0350 F   0  0  0  0  0  0  0  0  0  0  0  0
  -22.7750  -13.5540   21.2260 C   0  0  0  0  0  0  0  0  0  0  0  0
  -22.0680  -12.8280   22.0860 N   0  0  0  0  0  0  0  0  0  0  0  0
  -22.3130  -14.5810   20.7290 O   0  0  0  0  0  0  0  0  0  0  0  0
  -22.4590  -12.0000   22.5090 H   0  0  0  0  0  0  0  0  0  0  0  0
  -21.1290  -13.1080   22.3300 H   0  0  0  0  0  0  0  0  0  0  0  0
  -25.3550  -15.2850   20.4030 N   0  0  0  0  0  0  0  0  0  0  0  0
  -24.5770  -15.9230   20.5290 H   0  0  0  0  0  0  0  0  0  0  0  0
  -26.1800  -15.7370   20.0330 H   0  0  0  0  0  0  0  0  0  0  0  0
  -27.9400  -24.7600   20.0860 C   0  0  0  0  0  2  0  0  0  0  0  0
  -28.2320  -26.2800   20.3430 O   0  0  0  0  0  0  0  0  0  0  0  0
  -24.6480  -31.9840   23.3640 C   0  0  0  0  0  0  0  0  0  0  0  0
  -27.1940  -27.2880   20.2640 C   0  0  0  0  0  0  0  0  0  0  0  0
  -23.4350  -30.6100   21.7180 C   0  0  0  0  0  3  0  0  0  0  0  0
  -24.8720  -29.0530   20.2610 C   0  0  0  0  0  0  0  0  0  0  0  0
  -25.9890  -30.8720   21.5390 C   0  0  0  0  0  2  0  0  0  0  0  0
  -26.0550  -29.4860   20.8690 C   0  0  0  0  0  0  0  0  0  0  0  0
  -27.2160  -28.6200   20.8550 C   0  0  0  0  0  3  0  0  0  0  0  0
  -25.9860  -26.9700   19.6030 C   0  0  0  0  0  3  0  0  0  0  0  0
  -24.8510  -27.8090   19.6100 C   0  0  0  0  0  3  0  0  0  0  0  0
  -23.6470  -29.9520   20.3280 C   0  0  0  0  0  2  0  0  0  0  0  0
  -24.7110  -31.1750   22.2620 N   0  0  0  0  0  0  0  0  0  0  0  0
  -23.5670  -32.2630   23.9020 O   0  0  0  0  0  0  0  0  0  0  0  0
  -22.7610  -29.5920   22.6730 C   0  0  0  0  0  0  0  0  0  0  0  0
  -21.4390  -29.3930   22.5230 N   0  0  0  0  0  0  0  0  0  0  0  0
  -23.4290  -28.9850   23.5150 O   0  0  0  0  0  0  0  0  0  0  0  0
  -20.9550  -29.9350   21.8210 H   0  0  0  0  0  0  0  0  0  0  0  0
  -18.0790  -28.1020   22.9520 C   0  0  0  0  0  0  0  0  0  0  0  0
  -20.6220  -28.4410   23.2840 C   0  0  0  0  0  3  0  0  0  0  0  0
  -20.7790  -27.0060   22.7300 C   0  0  0  0  0  2  0  0  0  0  0  0
  -19.7140  -26.6390   21.6910 C   0  0  0  0  0  2  0  0  0  0  0  0
  -18.3120  -26.7500   22.2980 C   0  0  0  0  0  2  0  0  0  0  0  0
  -19.1640  -28.9020   23.3990 C   0  0  0  0  0  0  0  0  0  0  0  0
  -18.8920  -30.1620   23.9740 C   0  0  0  0  0  3  0  0  0  0  0  0
  -17.5690  -30.6270   24.1020 C   0  0  0  0  0  3  0  0  0  0  0  0
  -16.4980  -29.8250   23.6700 C   0  0  0  0  0  3  0  0  0  0  0  0
  -16.7540  -28.5640   23.1000 C   0  0  0  0  0  3  0  0  0  0  0  0
  -25.9300  -32.6120   23.9910 C   0  0  0  0  0  3  0  0  0  0  0  0
  -26.4180  -31.8560   25.2870 C   0  0  1  0  0  0  0  0  0  0  0  0
  -25.3060  -31.6410   26.3410 C   0  0  0  0  0  1  0  0  0  0  0  0
  -26.9940  -30.4690   24.9270 C   0  0  0  0  0  1  0  0  0  0  0  0
  -27.5670  -32.6470   25.9540 C   0  0  0  0  0  1  0  0  0  0  0  0
  -25.6350  -34.0200   24.3010 N   0  0  0  0  0  0  0  0  0  0  0  0
  -25.9520  -35.0590   23.5160 C   0  0  0  0  0  0  0  0  0  0  0  0
  -26.5890  -34.9340   22.4680 O   0  0  0  0  0  0  0  0  0  0  0  0
  -25.0670  -34.1900   25.1190 H   0  0  0  0  0  0  0  0  0  0  0  0
  -24.2140  -36.8530   23.2010 C   0  0  0  0  0  1  0  0  0  0  0  0
  -25.4900  -36.4600   23.9650 C   0  0  0  0  0  3  0  0  0  0  0  0
  -27.6530  -37.3670   24.6940 C   0  0  0  0  0  1  0  0  0  0  0  0
  -26.5200  -37.5070   23.7830 N   0  0  0  0  0  0  0  0  0  0  0  0
  -26.1200  -38.4320   23.9150 H   0  0  0  0  0  0  0  0  0  0  0  0
  2  1  2  0
  3  5  2  0
  3  6  1  0
  4  1  1  0
  4  7  1  0
  5  2  1  0
  6  4  2  0
  7  8  1  0
  8 10  1  0
  8 11  1  0
  9  7  2  0
  9 13  1  0
 12  9  1  0
 15 14  1  6
 15  5  1  0
 15 22  1  0
 16 15  1  0
 17 16  1  0
 18 19  1  0
 18 17  1  0
 20 18  1  0
 21 18  1  0
 23 31  1  0
 24 29  1  0
 25 26  1  0
 25 24  1  0
 27 26  1  0
 27 36  1  0
 27 28  1  0
 29 23  1  0
 29 28  1  0
 30 23  2  0
 31 32  1  0
 31 22  1  0
 33 34  2  0
 34 53  1  0
 35 34  1  0
 35 38  1  0
 36 37  1  0
 36 33  1  0
 37 35  2  0
 38 39  1  0
 39 40  2  0
 41 44  1  0
 41 40  1  0
 42 41  2  0
 43 42  1  0
 43 38  2  0
 44 45  1  0
 45 46  1  0
 46 47  2  0
 48 47  1  0
 48 52  1  0
 49 48  2  0
 50 45  2  0
 50 49  1  0
 51 50  1  0
 53 54  1  0
 54 57  1  0
 54 56  1  0
 55 53  2  0
 58 59  1  0
 58 33  1  0
 60 58  1  0
 61 62  1  0
 61  6  1  0
 63 74  2  0
 64 62  1  0
 64 69  1  0
 65 73  1  0
 65 75  1  0
 66 72  1  0
 66 68  1  0
 67 73  1  0
 68 67  1  0
 69 68  2  0
 70 71  1  0
 70 64  2  0
 71 66  2  0
 72 65  1  0
 73 63  1  0
 75 77  2  0
 76 75  1  0
 78 76  1  0
 79 88  2  0
 79 84  1  0
 80 76  1  0
 80 84  1  0
 81 80  1  0
 82 83  1  0
 82 81  1  0
 83 79  1  0
 84 85  2  0
 85 86  1  0
 87 86  2  0
 88 87  1  0
 89 63  1  0
 89 94  1  0
 89 90  1  0
 90 93  1  1
 90 91  1  0
 92 90  1  0
 94 97  1  0
 95 99  1  0
 95 94  1  0
 96 95  2  0
 99 98  1  0
101102  1  0
101 99  1  0
101100  1  0
M  ISO  4  23 100  31 100  61 101  62 101
M  END
>  <TORSDO>  (69) 
F 23

>  <SCORE>  (69) 
-13.991

>  <name>  (69) 
70

>  <ligand_id>  (69) 
70

>  <original_smiles>  (69) 
[H]c1c([H])c([H])c2c(c1[H])C([H])([H])C([H])([H])C([H])([H])C2([H])N([H])C(=O)C1([H])N(C(=O)C([H])(N([H])C(=O)C([H])(N([H])C([H])([H])[H])C([H])([H])[H])C(C([H])([H])[H])(C([H])([H])[H])C([H])([H])[H])C([H])([H])c2c([H])c(OC([H])([H])c3c([H])c(C(C([H])([H])[H])(C([H])([H])N([H])C(=O)N4C([H])([H])C([H])([H])C([H])([H])C([H])(n5nc(-c6c([H])c([H])c(Oc7c([H])c([H])c(F)c([H])c7F)c([H])c6[H])c(C(=O)N([H])[H])c5N([H])[H])C4([H])[H])C([H])([H])C([H])([H])[N+]([H])([H])[H])c([H])c([H])c3C(N([H])[H])=[N+]([H])[H])c([H])c([H])c2C1([H])[H]

>  <smiles>  (69) 
[H]c1c([H])c([H])c2c(c1[H])C([H])([H])C([H])([H])C([H])([H])C2([H])N([H])C(=O)C1([H])N(C(=O)C([H])(N([H])C(=O)C([H])(N([H])C([H])([H])[H])C([H])([H])[H])C(C([H])([H])[H])(C([H])([H])[H])C([H])([H])[H])C([H])([H])c2c([H])c(OC([H])([H])c3c([H])c(C(C([H])([H])[H])(C([H])([H])N([H])C(=O)N4C([H])([H])C([H])([H])C([H])([H])C([H])(n5nc(-c6c([H])c([H])c(Oc7c([H])c([H])c(F)c([H])c7F)c([H])c6[H])c(C(=O)N([H])[H])c5N([H])[H])C4([H])[H])C([H])([H])C([H])([H])[N+]([H])([H])[H])c([H])c([H])c3C(N([H])[H])=[N+]([H])[H])c([H])c([H])c2C1([H])[H]

$$$$
71:0:0
     RDKit          3D

101110  0  0  1  0  0  0  0  0999 V2000
  -29.8050  -19.2320   21.2950 C   0  0  0  0  0  3  0  0  0  0  0  0
  -29.0630  -19.1740   22.5790 N   0  0  0  0  0  4  0  0  0  0  0  0
  -29.6570  -18.7880   23.2990 H   0  0  0  0  0  0  0  0  0  0  0  0
  -28.2570  -18.5770   22.5030 H   0  0  0  0  0  0  0  0  0  0  0  0
  -28.7460  -20.0820   22.8650 H   0  0  0  0  0  0  0  0  0  0  0  0
  -30.8780  -20.3620   21.3100 C   0  0  0  0  0  2  0  0  0  0  0  0
  -31.3830  -22.8860   21.1700 C   0  0  0  0  0  2  0  0  0  0  0  0
  -30.3790  -21.8050   21.5070 C   0  0  0  0  0  3  0  0  0  0  0  0
  -30.0860  -22.8300   20.3980 C   0  0  0  0  0  3  0  0  0  0  0  0
  -29.2240  -23.9960   20.7550 N   0  0  0  0  0  4  0  0  0  0  0  0
  -29.8010  -24.8200   20.8230 H   0  0  0  0  0  0  0  0  0  0  0  0
  -28.8310  -23.8530   21.6710 H   0  0  0  0  0  0  0  0  0  0  0  0
  -28.1110  -24.3140   19.8210 C   0  0  0  0  0  2  0  0  0  0  0  0
  -28.3410  -25.6230   19.0250 C   0  0  0  0  0  2  0  0  0  0  0  0
  -28.1860  -26.8140   19.8130 O   0  0  0  0  0  0  0  0  0  0  0  0
  -24.5070  -31.8710   23.1870 C   0  0  0  0  0  0  0  0  0  0  0  0
  -26.9830  -27.5010   19.8590 C   0  0  0  0  0  0  0  0  0  0  0  0
  -23.2160  -30.5330   21.5530 C   0  0  0  0  0  3  0  0  0  0  0  0
  -24.5930  -29.0220   20.0240 C   0  0  0  0  0  0  0  0  0  0  0  0
  -25.7340  -30.8740   21.2580 C   0  0  0  0  0  2  0  0  0  0  0  0
  -25.7780  -29.5210   20.5760 C   0  0  0  0  0  0  0  0  0  0  0  0
  -26.9680  -28.7650   20.4950 C   0  0  0  0  0  3  0  0  0  0  0  0
  -25.7720  -27.0090   19.3150 C   0  0  0  0  0  3  0  0  0  0  0  0
  -24.5840  -27.7640   19.3940 C   0  0  0  0  0  3  0  0  0  0  0  0
  -23.3600  -29.8900   20.1460 C   0  0  0  0  0  2  0  0  0  0  0  0
  -24.5060  -31.1060   22.0580 N   0  0  0  0  0  0  0  0  0  0  0  0
  -23.4530  -32.1360   23.7810 O   0  0  0  0  0  0  0  0  0  0  0  0
  -22.5940  -29.4890   22.5090 C   0  0  0  0  0  0  0  0  0  0  0  0
  -21.2690  -29.2980   22.4090 N   0  0  0  0  0  0  0  0  0  0  0  0
  -23.3010  -28.8560   23.2980 O   0  0  0  0  0  0  0  0  0  0  0  0
  -20.7600  -29.8650   21.7450 H   0  0  0  0  0  0  0  0  0  0  0  0
  -17.9240  -28.0300   22.9130 C   0  0  0  0  0  0  0  0  0  0  0  0
  -20.4760  -28.3390   23.1780 C   0  0  0  0  0  3  0  0  0  0  0  0
  -20.6070  -26.9140   22.5920 C   0  0  0  0  0  2  0  0  0  0  0  0
  -19.5080  -26.5730   21.5810 C   0  0  0  0  0  2  0  0  0  0  0  0
  -18.1260  -26.6870   22.2310 C   0  0  0  0  0  2  0  0  0  0  0  0
  -19.0280  -28.8120   23.3430 C   0  0  0  0  0  0  0  0  0  0  0  0
  -18.7850  -30.0680   23.9390 C   0  0  0  0  0  3  0  0  0  0  0  0
  -17.4700  -30.5420   24.1100 C   0  0  0  0  0  3  0  0  0  0  0  0
  -16.3810  -29.7550   23.6980 C   0  0  0  0  0  3  0  0  0  0  0  0
  -16.6090  -28.5010   23.1040 C   0  0  0  0  0  3  0  0  0  0  0  0
  -25.8250  -32.4690   23.7710 C   0  0  0  0  0  3  0  0  0  0  0  0
  -25.5550  -33.8660   24.1350 N   0  0  0  0  0  0  0  0  0  0  0  0
  -25.8800  -34.9240   23.3830 C   0  0  0  0  0  0  0  0  0  0  0  0
  -26.5140  -34.8270   22.3280 O   0  0  0  0  0  0  0  0  0  0  0  0
  -24.9910  -34.0170   24.9600 H   0  0  0  0  0  0  0  0  0  0  0  0
  -24.1740  -36.7510   23.1170 C   0  0  0  0  0  1  0  0  0  0  0  0
  -25.4340  -36.3130   23.8790 C   0  0  0  0  0  3  0  0  0  0  0  0
  -27.6100  -37.1470   24.6530 C   0  0  0  0  0  1  0  0  0  0  0  0
  -26.4800  -37.3490   23.7490 N   0  0  0  0  0  0  0  0  0  0  0  0
  -26.0960  -38.2740   23.9250 H   0  0  0  0  0  0  0  0  0  0  0  0
  -26.3770  -31.6650   25.0110 C   0  0  1  0  0  0  0  0  0  0  0  0
  -25.3220  -31.4230   26.1160 C   0  0  0  0  0  1  0  0  0  0  0  0
  -26.9220  -30.2860   24.5690 C   0  0  0  0  0  1  0  0  0  0  0  0
  -27.5640  -32.4280   25.6460 C   0  0  0  0  0  1  0  0  0  0  0  0
  -30.3900  -17.8180   20.8680 C   0  0  0  0  0  3  0  0  0  0  0  0
  -30.5900  -14.6570   19.6680 C   0  0  0  0  0  0  0  0  0  0  0  0
  -30.2570  -12.4560   18.6280 C   0  0  0  0  0  2  0  0  0  0  0  0
  -29.2190  -12.6530   17.5000 C   0  0  0  0  0  2  0  0  0  0  0  0
  -27.7820  -12.5270   18.0450 C   0  0  0  0  0  2  0  0  0  0  0  0
  -27.5410  -13.3580   19.3340 C   0  0  0  0  0  3  0  0  0  0  0  0
  -28.6910  -13.1640   20.3530 C   0  0  0  0  0  2  0  0  0  0  0  0
  -29.9590  -13.4500   19.6680 N   0  0  0  0  0  0  0  0  0  0  0  0
  -31.7500  -14.8130   19.2800 O   0  0  0  0  0  0  0  0  0  0  0  0
  -28.5110  -17.2580   19.0670 C   0  0  0  0  0  2  0  0  0  0  0  0
  -29.5350  -16.4470   18.2910 C   0  0  0  0  0  2  0  0  0  0  0  0
  -29.2800  -16.8570   20.3330 C   0  0  0  0  0  3  0  0  0  0  0  0
  -29.7050  -15.6760   19.5260 N   0  0  0  0  0  0  0  0  0  0  0  0
  -25.2050  -13.9690   20.2230 C   0  0  0  0  0  0  0  0  0  0  0  0
  -24.1750  -13.2000   20.6920 C   0  0  0  0  0  0  0  0  0  0  0  0
  -24.6440  -11.8520   20.6540 C   0  0  0  0  0  0  0  0  0  0  0  0
  -26.2340  -13.0890   19.9270 N   0  0  0  0  0  0  0  0  0  0  0  0
  -25.9050  -11.8110   20.2440 N   0  0  0  0  0  0  0  0  0  0  0  0
  -23.9450  -10.5920   20.9280 C   0  0  0  0  0  0  0  0  0  0  0  0
  -24.4020   -9.6960   21.9190 C   0  0  0  0  0  3  0  0  0  0  0  0
  -23.7060   -8.4950   22.1730 C   0  0  0  0  0  3  0  0  0  0  0  0
  -22.5360   -8.1840   21.4380 C   0  0  0  0  0  0  0  0  0  0  0  0
  -22.0980   -9.0710   20.4390 C   0  0  0  0  0  3  0  0  0  0  0  0
  -22.7960  -10.2630   20.1830 C   0  0  0  0  0  3  0  0  0  0  0  0
  -21.8060   -7.0340   21.6030 O   0  0  0  0  0  0  0  0  0  0  0  0
  -21.7120   -6.4070   22.8200 C   0  0  0  0  0  0  0  0  0  0  0  0
  -21.1850   -7.0610   23.9550 C   0  0  0  0  0  3  0  0  0  0  0  0
  -21.0430   -6.3570   25.1690 C   0  0  0  0  0  3  0  0  0  0  0  0
  -21.4150   -5.0010   25.2460 C   0  0  0  0  0  0  0  0  0  0  0  0
  -21.9360   -4.3480   24.1140 C   0  0  0  0  0  3  0  0  0  0  0  0
  -22.0800   -5.0480   22.9040 C   0  0  0  0  0  0  0  0  0  0  0  0
  -22.5600   -4.4080   21.8100 F   0  0  0  0  0  0  0  0  0  0  0  0
  -21.2730   -4.3240   26.4080 F   0  0  0  0  0  0  0  0  0  0  0  0
  -22.8010  -13.6770   21.0630 C   0  0  0  0  0  0  0  0  0  0  0  0
  -22.1530  -13.0070   22.0090 N   0  0  0  0  0  0  0  0  0  0  0  0
  -22.3110  -14.6830   20.5510 O   0  0  0  0  0  0  0  0  0  0  0  0
  -22.5570  -12.1940   22.4460 H   0  0  0  0  0  0  0  0  0  0  0  0
  -21.2320  -13.3140   22.2950 H   0  0  0  0  0  0  0  0  0  0  0  0
  -25.3440  -15.3360   20.0070 N   0  0  0  0  0  0  0  0  0  0  0  0
  -24.5790  -15.9860   20.1600 H   0  0  0  0  0  0  0  0  0  0  0  0
  -26.1680  -15.7720   19.6160 H   0  0  0  0  0  0  0  0  0  0  0  0
  -31.2200  -17.1470   21.9900 C   0  0  0  0  0  0  0  0  0  0  0  0
  -32.3850  -16.5920   21.6780 N   0  0  0  0  0  0  0  0  0  0  0  0
  -30.8110  -17.1310   23.1500 O   0  0  0  0  0  0  0  0  0  0  0  0
  -32.7140  -16.5730   20.7220 H   0  0  0  0  0  0  0  0  0  0  0  0
  -32.9450  -16.1510   22.3950 H   0  0  0  0  0  0  0  0  0  0  0  0
  1  6  1  0
  1  2  1  0
  2  5  1  0
  2  3  1  0
  4  2  1  0
  7  8  1  0
  8  6  1  0
  9 10  1  0
  9  7  1  0
  9  8  1  0
 10 11  1  0
 10 12  1  0
 13 10  1  0
 14 15  1  0
 14 13  1  0
 15 17  1  0
 16 27  2  0
 17 22  1  0
 18 26  1  0
 18 28  1  0
 19 25  1  0
 19 21  1  0
 20 26  1  0
 21 20  1  0
 22 21  2  0
 23 24  1  0
 23 17  2  0
 24 19  2  0
 25 18  1  0
 26 16  1  0
 28 30  2  0
 29 28  1  0
 31 29  1  0
 32 41  2  0
 32 37  1  0
 33 29  1  0
 33 37  1  0
 34 33  1  0
 35 36  1  0
 35 34  1  0
 36 32  1  0
 37 38  2  0
 38 39  1  0
 40 39  2  0
 41 40  1  0
 42 16  1  0
 42 43  1  0
 42 52  1  0
 43 46  1  0
 44 48  1  0
 44 43  1  0
 45 44  2  0
 48 47  1  0
 50 48  1  0
 50 51  1  0
 50 49  1  0
 52 55  1  1
 52 53  1  0
 54 52  1  0
 56  1  1  0
 56 97  1  0
 58 63  1  0
 59 60  1  0
 59 58  1  0
 61 60  1  0
 61 72  1  0
 61 62  1  0
 63 57  1  0
 63 62  1  0
 64 57  2  0
 65 67  1  0
 66 65  1  0
 66 68  1  0
 67 56  1  0
 68 57  1  0
 68 67  1  0
 69 70  2  0
 70 89  1  0
 71 70  1  0
 71 74  1  0
 72 69  1  0
 72 73  1  0
 73 71  2  0
 74 75  1  0
 75 76  2  0
 77 80  1  0
 77 76  1  0
 78 77  2  0
 79 78  1  0
 79 74  2  0
 80 81  1  0
 81 86  2  0
 81 82  1  0
 82 83  2  0
 83 84  1  0
 84 88  1  0
 85 84  2  0
 86 85  1  0
 87 86  1  0
 89 90  1  0
 90 93  1  0
 90 92  1  0
 91 89  2  0
 94 95  1  0
 94 69  1  0
 96 94  1  0
 97 99  2  0
 98 97  1  0
 98101  1  0
100 98  1  0
M  ISO  4  14 101  15 101  57 100  68 100
M  END
>  <TORSDO>  (70) 
F 24

>  <SCORE>  (70) 
-8.315

>  <name>  (70) 
71

>  <ligand_id>  (70) 
71

>  <original_smiles>  (70) 
[H]c1c([H])c([H])c2c(c1[H])C([H])([H])C([H])([H])C([H])([H])C2([H])N([H])C(=O)C1([H])N(C(=O)C([H])(N([H])C(=O)C([H])(N([H])C([H])([H])[H])C([H])([H])[H])C(C([H])([H])[H])(C([H])([H])[H])C([H])([H])[H])C([H])([H])c2c([H])c(OC([H])([H])C([H])([H])[N+]([H])([H])C3([H])C([H])([H])C3([H])C([H])([H])C([H])(C([H])(C(=O)N([H])[H])C3([H])N(C(=O)N4C([H])([H])C([H])([H])C([H])([H])C([H])(n5nc(-c6c([H])c([H])c(Oc7c([H])c([H])c(F)c([H])c7F)c([H])c6[H])c(C(=O)N([H])[H])c5N([H])[H])C4([H])[H])C([H])([H])C3([H])[H])[N+]([H])([H])[H])c([H])c([H])c2C1([H])[H]

>  <smiles>  (70) 
[H]c1c([H])c([H])c2c(c1[H])C([H])([H])C([H])([H])C([H])([H])C2([H])N([H])C(=O)C1([H])N(C(=O)C([H])(N([H])C(=O)C([H])(N([H])C([H])([H])[H])C([H])([H])[H])C(C([H])([H])[H])(C([H])([H])[H])C([H])([H])[H])C([H])([H])c2c([H])c(OC([H])([H])C([H])([H])[N+]([H])([H])C3([H])C([H])([H])C3([H])C([H])([H])C([H])(C([H])(C(=O)N([H])[H])C3([H])N(C(=O)N4C([H])([H])C([H])([H])C([H])([H])C([H])(n5nc(-c6c([H])c([H])c(Oc7c([H])c([H])c(F)c([H])c7F)c([H])c6[H])c(C(=O)N([H])[H])c5N([H])[H])C4([H])[H])C([H])([H])C3([H])[H])[N+]([H])([H])[H])c([H])c([H])c2C1([H])[H]

$$$$
72:0:0
     RDKit          3D

 92102  0  0  1  0  0  0  0  0999 V2000
  -28.5440  -21.4940   20.2560 C   0  0  0  0  0  2  0  0  0  0  0  0
  -30.1150  -23.5230   19.3640 C   0  0  0  0  0  1  0  0  0  0  0  0
  -29.5540  -23.3630   21.7740 C   0  0  0  0  0  1  0  0  0  0  0  0
  -28.9800  -23.1940   20.3540 C   0  0  2  0  0  0  0  0  0  0  0  0
  -27.9120  -24.5430   20.1700 C   0  0  0  0  0  2  0  0  0  0  0  0
  -28.2010  -26.1040   20.2940 O   0  0  0  0  0  0  0  0  0  0  0  0
  -24.6440  -31.9200   23.2600 C   0  0  0  0  0  0  0  0  0  0  0  0
  -27.1700  -27.1340   20.2310 C   0  0  0  0  0  0  0  0  0  0  0  0
  -23.4320  -30.5310   21.6270 C   0  0  0  0  0  3  0  0  0  0  0  0
  -24.8650  -28.9390   20.1970 C   0  0  0  0  0  0  0  0  0  0  0  0
  -25.9910  -30.7630   21.4570 C   0  0  0  0  0  2  0  0  0  0  0  0
  -26.0530  -29.3660   20.8040 C   0  0  0  0  0  0  0  0  0  0  0  0
  -27.2050  -28.4810   20.7990 C   0  0  0  0  0  3  0  0  0  0  0  0
  -25.9540  -26.8260   19.5810 C   0  0  0  0  0  3  0  0  0  0  0  0
  -24.8330  -27.6860   19.5670 C   0  0  0  0  0  3  0  0  0  0  0  0
  -23.6460  -29.8510   20.2480 C   0  0  0  0  0  2  0  0  0  0  0  0
  -24.7110  -31.0950   22.1690 N   0  0  0  0  0  0  0  0  0  0  0  0
  -23.5600  -32.2120   23.7890 O   0  0  0  0  0  0  0  0  0  0  0  0
  -22.7460  -29.5300   22.5930 C   0  0  0  0  0  0  0  0  0  0  0  0
  -21.4170  -29.3640   22.4650 N   0  0  0  0  0  0  0  0  0  0  0  0
  -23.4140  -28.9060   23.4210 O   0  0  0  0  0  0  0  0  0  0  0  0
  -20.9340  -29.9180   21.7720 H   0  0  0  0  0  0  0  0  0  0  0  0
  -18.0330  -28.1660   22.9670 C   0  0  0  0  0  0  0  0  0  0  0  0
  -20.5930  -28.4310   23.2390 C   0  0  0  0  0  3  0  0  0  0  0  0
  -20.6950  -26.9960   22.6730 C   0  0  0  0  0  2  0  0  0  0  0  0
  -19.5970  -26.6670   21.6580 C   0  0  0  0  0  2  0  0  0  0  0  0
  -18.2130  -26.8140   22.2970 C   0  0  0  0  0  2  0  0  0  0  0  0
  -19.1510  -28.9320   23.3960 C   0  0  0  0  0  0  0  0  0  0  0  0
  -18.9270  -30.1960   23.9850 C   0  0  0  0  0  3  0  0  0  0  0  0
  -17.6220  -30.6940   24.1480 C   0  0  0  0  0  3  0  0  0  0  0  0
  -16.5190  -29.9260   23.7350 C   0  0  0  0  0  3  0  0  0  0  0  0
  -16.7260  -28.6640   23.1510 C   0  0  0  0  0  3  0  0  0  0  0  0
  -25.9250  -32.5500   23.8850 C   0  0  0  0  0  3  0  0  0  0  0  0
  -26.4340  -31.7800   25.1650 C   0  0  1  0  0  0  0  0  0  0  0  0
  -25.3370  -31.5520   26.2320 C   0  0  0  0  0  1  0  0  0  0  0  0
  -27.0110  -30.3970   24.7840 C   0  0  0  0  0  1  0  0  0  0  0  0
  -27.5880  -32.5700   25.8270 C   0  0  0  0  0  1  0  0  0  0  0  0
  -25.6190  -33.9510   24.2200 N   0  0  0  0  0  0  0  0  0  0  0  0
  -25.9290  -35.0070   23.4550 C   0  0  0  0  0  0  0  0  0  0  0  0
  -26.5690  -34.9040   22.4060 O   0  0  0  0  0  0  0  0  0  0  0  0
  -25.0480  -34.1040   25.0380 H   0  0  0  0  0  0  0  0  0  0  0  0
  -24.1820  -36.7970   23.1720 C   0  0  0  0  0  1  0  0  0  0  0  0
  -25.4590  -36.3960   23.9300 C   0  0  0  0  0  3  0  0  0  0  0  0
  -27.6200  -37.2980   24.6700 C   0  0  0  0  0  1  0  0  0  0  0  0
  -26.4820  -37.4530   23.7690 N   0  0  0  0  0  0  0  0  0  0  0  0
  -26.0780  -38.3730   23.9240 H   0  0  0  0  0  0  0  0  0  0  0  0
  -29.8920  -20.4000   18.4800 C   0  0  0  0  0  1  0  0  0  0  0  0
  -29.5330  -20.2480   19.9180 N   0  0  2  0  0  4  0  0  0  0  0  0
  -30.3620  -20.4810   20.4410 H   0  0  0  0  0  0  0  0  0  0  0  0
  -30.5130  -15.1180   20.3050 C   0  0  0  0  0  0  0  0  0  0  0  0
  -30.3550  -12.7430   19.3820 C   0  0  0  0  0  2  0  0  0  0  0  0
  -29.4270  -12.6330   18.1520 C   0  0  0  0  0  2  0  0  0  0  0  0
  -27.9740  -12.4010   18.5990 C   0  0  0  0  0  2  0  0  0  0  0  0
  -27.5540  -13.3480   19.7540 C   0  0  0  0  0  3  0  0  0  0  0  0
  -28.6130  -13.4460   20.8720 C   0  0  0  0  0  2  0  0  0  0  0  0
  -29.8600  -13.8770   20.2280 N   0  0  0  0  0  0  0  0  0  0  0  0
  -31.7300  -15.0430   20.1060 O   0  0  0  0  0  0  0  0  0  0  0  0
  -31.6060  -17.8580   19.5220 C   0  0  0  0  0  0  0  0  0  0  0  0
  -31.6730  -17.9550   21.0180 C   0  0  0  0  0  2  0  0  0  0  0  0
  -30.1500  -17.5570   19.3250 C   0  0  1  0  0  0  0  0  0  0  0  0
  -30.1670  -17.7050   21.1560 C   0  0  2  0  0  0  0  0  0  0  0  0
  -29.2940  -18.6350   20.1630 C   0  0  0  0  0  3  0  0  0  0  0  0
  -29.8440  -16.4250   20.3230 N   0  0  0  0  0  0  0  0  0  0  0  0
  -32.5480  -18.0500   18.7500 O   0  0  0  0  0  0  0  0  0  0  0  0
  -25.1850  -13.9020   20.5260 C   0  0  0  0  0  0  0  0  0  0  0  0
  -24.1260  -13.1190   20.8920 C   0  0  0  0  0  0  0  0  0  0  0  0
  -24.5970  -11.7700   20.8510 C   0  0  0  0  0  0  0  0  0  0  0  0
  -26.2280  -13.0310   20.2700 N   0  0  0  0  0  0  0  0  0  0  0  0
  -25.8860  -11.7420   20.5350 N   0  0  0  0  0  0  0  0  0  0  0  0
  -23.8740  -10.5040   21.0330 C   0  0  0  0  0  0  0  0  0  0  0  0
  -24.2960   -9.5410   21.9760 C   0  0  0  0  0  3  0  0  0  0  0  0
  -23.5710   -8.3420   22.1480 C   0  0  0  0  0  3  0  0  0  0  0  0
  -22.4100   -8.0970   21.3770 C   0  0  0  0  0  0  0  0  0  0  0  0
  -22.0070   -9.0490   20.4230 C   0  0  0  0  0  3  0  0  0  0  0  0
  -22.7320  -10.2400   20.2490 C   0  0  0  0  0  3  0  0  0  0  0  0
  -21.6580   -6.9500   21.4580 O   0  0  0  0  0  0  0  0  0  0  0  0
  -21.5750   -6.2240   22.6190 C   0  0  0  0  0  0  0  0  0  0  0  0
  -21.0770   -6.7840   23.8150 C   0  0  0  0  0  3  0  0  0  0  0  0
  -20.9440   -5.9820   24.9660 C   0  0  0  0  0  3  0  0  0  0  0  0
  -21.3010   -4.6210   24.9220 C   0  0  0  0  0  0  0  0  0  0  0  0
  -21.7920   -4.0600   23.7300 C   0  0  0  0  0  3  0  0  0  0  0  0
  -21.9260   -4.8580   22.5810 C   0  0  0  0  0  0  0  0  0  0  0  0
  -22.3800   -4.3080   21.4300 F   0  0  0  0  0  0  0  0  0  0  0  0
  -21.1660   -3.8490   26.0260 F   0  0  0  0  0  0  0  0  0  0  0  0
  -22.7290  -13.5910   21.1680 C   0  0  0  0  0  0  0  0  0  0  0  0
  -22.0050  -12.8890   22.0320 N   0  0  0  0  0  0  0  0  0  0  0  0
  -22.2880  -14.6170   20.6520 O   0  0  0  0  0  0  0  0  0  0  0  0
  -22.3750  -12.0590   22.4710 H   0  0  0  0  0  0  0  0  0  0  0  0
  -21.0660  -13.1850   22.2580 H   0  0  0  0  0  0  0  0  0  0  0  0
  -25.3460  -15.2740   20.3590 N   0  0  0  0  0  0  0  0  0  0  0  0
  -24.5830  -15.9310   20.4880 H   0  0  0  0  0  0  0  0  0  0  0  0
  -26.2030  -15.7180   20.0550 H   0  0  0  0  0  0  0  0  0  0  0  0
  1  4  1  0
  4  2  1  6
  4  3  1  0
  5  6  1  0
  5  4  1  0
  7 18  2  0
  8  6  1  0
  8 13  1  0
  9 17  1  0
  9 19  1  0
 10 16  1  0
 10 12  1  0
 11 17  1  0
 12 11  1  0
 13 12  2  0
 14  8  2  0
 15 14  1  0
 15 10  2  0
 16  9  1  0
 17  7  1  0
 19 21  2  0
 20 19  1  0
 22 20  1  0
 23 32  2  0
 23 28  1  0
 24 20  1  0
 24 28  1  0
 25 24  1  0
 26 27  1  0
 26 25  1  0
 27 23  1  0
 28 29  2  0
 29 30  1  0
 31 30  2  0
 32 31  1  0
 33  7  1  0
 33 38  1  0
 33 34  1  0
 34 37  1  1
 34 35  1  0
 36 34  1  0
 38 41  1  0
 39 43  1  0
 39 38  1  0
 40 39  2  0
 43 42  1  0
 45 46  1  0
 45 43  1  0
 45 44  1  0
 47 48  1  0
 48  1  1  0
 48 49  1  1
 50 63  1  0
 51 56  1  0
 52 53  1  0
 52 51  1  0
 54 53  1  0
 54 68  1  0
 54 55  1  0
 56 50  1  0
 56 55  1  0
 57 50  2  0
 58 59  1  0
 60 58  1  0
 60 62  1  1
 60 63  1  0
 60 61  1  0
 61 59  1  1
 62 48  1  0
 62 61  1  0
 63 61  1  0
 64 58  2  0
 65 66  2  0
 66 85  1  0
 67 66  1  0
 67 70  1  0
 68 65  1  0
 68 69  1  0
 69 67  2  0
 70 71  1  0
 71 72  2  0
 73 76  1  0
 73 72  1  0
 74 73  2  0
 75 74  1  0
 75 70  2  0
 76 77  1  0
 77 78  1  0
 78 79  2  0
 80 79  1  0
 80 84  1  0
 81 80  2  0
 82 77  2  0
 82 81  1  0
 83 82  1  0
 85 86  1  0
 86 89  1  0
 86 88  1  0
 87 85  2  0
 90 91  1  0
 90 65  1  0
 92 90  1  0
M  ISO  4   5 101   6 101  50 100  63 100
M  END
>  <TORSDO>  (71) 
F 19

>  <SCORE>  (71) 
-15.748

>  <name>  (71) 
72

>  <ligand_id>  (71) 
72

>  <original_smiles>  (71) 
[H]c1c([H])c([H])c2c(c1[H])C([H])([H])C([H])([H])C([H])([H])C2([H])N([H])C(=O)C1([H])N(C(=O)C([H])(N([H])C(=O)C([H])(N([H])C([H])([H])[H])C([H])([H])[H])C(C([H])([H])[H])(C([H])([H])[H])C([H])([H])[H])C([H])([H])c2c([H])c(OC([H])([H])C(C([H])([H])[H])(C([H])([H])[H])C([H])([H])[N+]([H])(C([H])([H])[H])C3([H])C4([H])C(=O)C([H])([H])C3([H])N4C(=O)N3C([H])([H])C([H])([H])C([H])([H])C([H])(n4nc(-c5c([H])c([H])c(Oc6c([H])c([H])c(F)c([H])c6F)c([H])c5[H])c(C(=O)N([H])[H])c4N([H])[H])C3([H])[H])c([H])c([H])c2C1([H])[H]

>  <smiles>  (71) 
[H]c1c([H])c([H])c2c(c1[H])C([H])([H])C([H])([H])C([H])([H])C2([H])N([H])C(=O)C1([H])N(C(=O)C([H])(N([H])C(=O)C([H])(N([H])C([H])([H])[H])C([H])([H])[H])C(C([H])([H])[H])(C([H])([H])[H])C([H])([H])[H])C([H])([H])c2c([H])c(OC([H])([H])C(C([H])([H])[H])(C([H])([H])[H])C([H])([H])[N+]([H])(C([H])([H])[H])C3([H])C4([H])C(=O)C([H])([H])C3([H])N4C(=O)N3C([H])([H])C([H])([H])C([H])([H])C([H])(n4nc(-c5c([H])c([H])c(Oc6c([H])c([H])c(F)c([H])c6F)c([H])c5[H])c(C(=O)N([H])[H])c4N([H])[H])C3([H])[H])c([H])c([H])c2C1([H])[H]

$$$$
73:0:0
     RDKit          3D

 93101  0  0  1  0  0  0  0  0999 V2000
  -27.2020  -20.5670   20.2470 C   0  0  0  0  0  0  0  0  0  0  0  0
  -27.2570  -21.8560   21.0950 C   0  0  0  0  0  2  0  0  0  0  0  0
  -28.7080  -20.6830   19.9070 C   0  0  0  0  0  3  0  0  0  0  0  0
  -28.6300  -22.1560   20.4350 C   0  0  0  0  0  3  0  0  0  0  0  0
  -26.2880  -19.8160   19.8940 O   0  0  0  0  0  0  0  0  0  0  0  0
  -28.5540  -23.1990   19.3630 N   0  0  0  0  0  4  0  0  0  0  0  0
  -27.8560  -22.9590   18.6760 H   0  0  0  0  0  0  0  0  0  0  0  0
  -29.4400  -23.2050   18.8780 H   0  0  0  0  0  0  0  0  0  0  0  0
  -28.2990  -24.5850   19.8520 C   0  0  0  0  0  2  0  0  0  0  0  0
  -28.5320  -25.6590   18.7620 C   0  0  0  0  0  2  0  0  0  0  0  0
  -28.4780  -26.9930   19.2880 O   0  0  0  0  0  0  0  0  0  0  0  0
  -24.7500  -31.5820   23.2260 C   0  0  0  0  0  0  0  0  0  0  0  0
  -27.2740  -27.6560   19.4220 C   0  0  0  0  0  0  0  0  0  0  0  0
  -23.4800  -30.4360   21.4390 C   0  0  0  0  0  3  0  0  0  0  0  0
  -24.8760  -29.1290   19.7520 C   0  0  0  0  0  0  0  0  0  0  0  0
  -25.9960  -30.8290   21.2020 C   0  0  0  0  0  2  0  0  0  0  0  0
  -26.0540  -29.5670   20.3650 C   0  0  0  0  0  0  0  0  0  0  0  0
  -27.2520  -28.8380   20.1980 C   0  0  0  0  0  3  0  0  0  0  0  0
  -26.0690  -27.2240   18.8160 C   0  0  0  0  0  3  0  0  0  0  0  0
  -24.8770  -27.9570   18.9780 C   0  0  0  0  0  3  0  0  0  0  0  0
  -23.6370  -29.9680   19.9670 C   0  0  0  0  0  2  0  0  0  0  0  0
  -24.7640  -30.9540   22.0150 N   0  0  0  0  0  0  0  0  0  0  0  0
  -23.6910  -31.7670   23.8390 O   0  0  0  0  0  0  0  0  0  0  0  0
  -22.8640  -29.2800   22.2600 C   0  0  0  0  0  0  0  0  0  0  0  0
  -21.5400  -29.0960   22.1320 N   0  0  0  0  0  0  0  0  0  0  0  0
  -23.5720  -28.5600   22.9680 O   0  0  0  0  0  0  0  0  0  0  0  0
  -21.0290  -29.7340   21.5390 H   0  0  0  0  0  0  0  0  0  0  0  0
  -18.2010  -27.7580   22.4700 C   0  0  0  0  0  0  0  0  0  0  0  0
  -20.7510  -28.0480   22.7780 C   0  0  0  0  0  3  0  0  0  0  0  0
  -20.8920  -26.7030   22.0290 C   0  0  0  0  0  2  0  0  0  0  0  0
  -19.7980  -26.4790   20.9810 C   0  0  0  0  0  2  0  0  0  0  0  0
  -18.4130  -26.5070   21.6350 C   0  0  0  0  0  2  0  0  0  0  0  0
  -19.3000  -28.4900   22.9950 C   0  0  0  0  0  0  0  0  0  0  0  0
  -19.0490  -29.6650   23.7350 C   0  0  0  0  0  3  0  0  0  0  0  0
  -17.7320  -30.1080   23.9590 C   0  0  0  0  0  3  0  0  0  0  0  0
  -16.6480  -29.3720   23.4510 C   0  0  0  0  0  3  0  0  0  0  0  0
  -16.8830  -28.1970   22.7140 C   0  0  0  0  0  3  0  0  0  0  0  0
  -26.0600  -32.1180   23.8840 C   0  0  0  0  0  3  0  0  0  0  0  0
  -25.7760  -33.4640   24.4010 N   0  0  0  0  0  0  0  0  0  0  0  0
  -26.1420  -34.6020   23.7970 C   0  0  0  0  0  0  0  0  0  0  0  0
  -26.8250  -34.6260   22.7690 O   0  0  0  0  0  0  0  0  0  0  0  0
  -25.1730  -33.5200   25.2090 H   0  0  0  0  0  0  0  0  0  0  0  0
  -24.4770  -36.4810   23.6490 C   0  0  0  0  0  1  0  0  0  0  0  0
  -25.6760  -35.9250   24.4340 C   0  0  0  0  0  3  0  0  0  0  0  0
  -27.7970  -36.6140   25.4600 C   0  0  0  0  0  1  0  0  0  0  0  0
  -26.7400  -36.9490   24.5090 N   0  0  0  0  0  0  0  0  0  0  0  0
  -26.3530  -37.8520   24.7710 H   0  0  0  0  0  0  0  0  0  0  0  0
  -26.6070  -31.1820   25.0310 C   0  0  1  0  0  0  0  0  0  0  0  0
  -25.5480  -30.8250   26.1000 C   0  0  0  0  0  1  0  0  0  0  0  0
  -27.1510  -29.8590   24.4430 C   0  0  0  0  0  1  0  0  0  0  0  0
  -27.7930  -31.8700   25.7480 C   0  0  0  0  0  1  0  0  0  0  0  0
  -29.5090  -19.7020   20.7680 C   0  0  0  0  0  3  0  0  0  0  0  0
  -29.9370  -18.5690   20.3550 N   0  0  0  0  0  0  0  0  0  0  0  0
  -30.6610  -17.7420   21.3170 C   0  0  0  0  0  2  0  0  0  0  0  0
  -30.3120  -16.2500   21.1400 C   0  0  0  0  0  2  0  0  0  0  0  0
  -31.6560  -14.5730   19.8230 C   0  0  0  0  0  0  0  0  0  0  0  0
  -31.2970  -12.2650   19.0430 C   0  0  0  0  0  2  0  0  0  0  0  0
  -30.3080  -12.2870   17.8580 C   0  0  0  0  0  2  0  0  0  0  0  0
  -28.8470  -12.2530   18.3520 C   0  0  0  0  0  2  0  0  0  0  0  0
  -28.5730  -13.2830   19.4820 C   0  0  0  0  0  3  0  0  0  0  0  0
  -29.6650  -13.1860   20.5690 C   0  0  0  0  0  2  0  0  0  0  0  0
  -30.9640  -13.4030   19.9150 N   0  0  0  0  0  0  0  0  0  0  0  0
  -32.7670  -14.6470   19.2960 O   0  0  0  0  0  0  0  0  0  0  0  0
  -30.9490  -15.7070   19.9420 N   0  0  0  0  0  0  0  0  0  0  0  0
  -31.3320  -16.4570   19.3860 H   0  0  0  0  0  0  0  0  0  0  0  0
  -26.3070  -14.0900   20.3980 C   0  0  0  0  0  0  0  0  0  0  0  0
  -25.1890  -13.4090   20.8000 C   0  0  0  0  0  0  0  0  0  0  0  0
  -25.5010  -12.0220   20.6580 C   0  0  0  0  0  0  0  0  0  0  0  0
  -27.2340  -13.1220   20.0410 N   0  0  0  0  0  0  0  0  0  0  0  0
  -26.7540  -11.8700   20.2510 N   0  0  0  0  0  0  0  0  0  0  0  0
  -24.6600  -10.8300   20.8300 C   0  0  0  0  0  0  0  0  0  0  0  0
  -25.0020   -9.8120   21.7480 C   0  0  0  0  0  3  0  0  0  0  0  0
  -24.1690   -8.6850   21.9090 C   0  0  0  0  0  3  0  0  0  0  0  0
  -22.9790   -8.5670   21.1530 C   0  0  0  0  0  0  0  0  0  0  0  0
  -22.6540   -9.5730   20.2260 C   0  0  0  0  0  3  0  0  0  0  0  0
  -23.4860  -10.6920   20.0620 C   0  0  0  0  0  3  0  0  0  0  0  0
  -22.1220   -7.4960   21.2250 O   0  0  0  0  0  0  0  0  0  0  0  0
  -21.9270   -6.8070   22.3950 C   0  0  0  0  0  0  0  0  0  0  0  0
  -21.4520   -7.4410   23.5650 C   0  0  0  0  0  3  0  0  0  0  0  0
  -21.2000   -6.6810   24.7250 C   0  0  0  0  0  3  0  0  0  0  0  0
  -21.4150   -5.2900   24.7170 C   0  0  0  0  0  0  0  0  0  0  0  0
  -21.8820   -4.6560   23.5520 C   0  0  0  0  0  3  0  0  0  0  0  0
  -22.1350   -5.4130   22.3940 C   0  0  0  0  0  0  0  0  0  0  0  0
  -22.5670   -4.7930   21.2690 F   0  0  0  0  0  0  0  0  0  0  0  0
  -21.1650   -4.5590   25.8280 F   0  0  0  0  0  0  0  0  0  0  0  0
  -23.8720  -14.0080   21.2030 C   0  0  0  0  0  0  0  0  0  0  0  0
  -23.1490  -13.3500   22.1020 N   0  0  0  0  0  0  0  0  0  0  0  0
  -23.4990  -15.0920   20.7570 O   0  0  0  0  0  0  0  0  0  0  0  0
  -23.4630  -12.4700   22.4840 H   0  0  0  0  0  0  0  0  0  0  0  0
  -22.2670  -13.7330   22.4140 H   0  0  0  0  0  0  0  0  0  0  0  0
  -26.6060  -15.4450   20.2890 N   0  0  0  0  0  0  0  0  0  0  0  0
  -25.9290  -16.1710   20.4960 H   0  0  0  0  0  0  0  0  0  0  0  0
  -27.4870  -15.8080   19.9450 H   0  0  0  0  0  0  0  0  0  0  0  0
  1  2  1  0
  3  1  1  0
  3  4  1  0
  3 52  1  0
  4  6  1  0
  4  2  1  0
  5  1  2  0
  6  9  1  0
  7  6  1  0
  8  6  1  0
 10 11  1  0
 10  9  1  0
 11 13  1  0
 12 23  2  0
 13 18  1  0
 14 22  1  0
 14 24  1  0
 15 21  1  0
 15 17  1  0
 16 22  1  0
 17 16  1  0
 18 17  2  0
 19 20  1  0
 19 13  2  0
 20 15  2  0
 21 14  1  0
 22 12  1  0
 24 26  2  0
 25 24  1  0
 27 25  1  0
 28 37  2  0
 28 33  1  0
 29 25  1  0
 29 33  1  0
 30 29  1  0
 31 32  1  0
 31 30  1  0
 32 28  1  0
 33 34  2  0
 34 35  1  0
 36 35  2  0
 37 36  1  0
 38 12  1  0
 38 39  1  0
 38 48  1  0
 39 42  1  0
 40 39  1  0
 40 44  1  0
 41 40  2  0
 44 43  1  0
 44 46  1  0
 46 47  1  0
 46 45  1  0
 48 51  1  1
 48 49  1  0
 50 48  1  0
 53 52  2  0
 53 54  1  0
 55 54  1  0
 56 62  1  0
 56 64  1  0
 57 62  1  0
 58 59  1  0
 58 57  1  0
 60 59  1  0
 60 69  1  0
 60 61  1  0
 62 61  1  0
 63 56  2  0
 64 55  1  0
 65 64  1  0
 66 67  2  0
 67 86  1  0
 68 67  1  0
 68 71  1  0
 69 70  1  0
 69 66  1  0
 70 68  2  0
 71 72  1  0
 72 73  2  0
 74 77  1  0
 74 73  1  0
 75 74  2  0
 76 75  1  0
 76 71  2  0
 77 78  1  0
 78 79  1  0
 79 80  2  0
 81 80  1  0
 81 85  1  0
 82 81  2  0
 83 78  2  0
 83 82  1  0
 84 83  1  0
 86 87  1  0
 87 90  1  0
 87 89  1  0
 88 86  2  0
 91 66  1  0
 91 92  1  0
 93 91  1  0
M  ISO  4  10 101  11 101  56 100  64 100
M  END
>  <TORSDO>  (72) 
F 22

>  <SCORE>  (72) 
-9.626

>  <name>  (72) 
73

>  <ligand_id>  (72) 
73

>  <original_smiles>  (72) 
[H]C(=NC([H])([H])C([H])([H])N([H])C(=O)N1C([H])([H])C([H])([H])C([H])([H])C([H])(n2nc(-c3c([H])c([H])c(Oc4c([H])c([H])c(F)c([H])c4F)c([H])c3[H])c(C(=O)N([H])[H])c2N([H])[H])C1([H])[H])C1([H])C(=O)C([H])([H])C1([H])[N+]([H])([H])C([H])([H])C([H])([H])Oc1c([H])c([H])c2c(c1[H])C([H])([H])N(C(=O)C([H])(N([H])C(=O)C([H])(N([H])C([H])([H])[H])C([H])([H])[H])C(C([H])([H])[H])(C([H])([H])[H])C([H])([H])[H])C([H])(C(=O)N([H])C1([H])c3c([H])c([H])c([H])c([H])c3C([H])([H])C([H])([H])C1([H])[H])C2([H])[H]

>  <smiles>  (72) 
[H]C(=NC([H])([H])C([H])([H])N([H])C(=O)N1C([H])([H])C([H])([H])C([H])([H])C([H])(n2nc(-c3c([H])c([H])c(Oc4c([H])c([H])c(F)c([H])c4F)c([H])c3[H])c(C(=O)N([H])[H])c2N([H])[H])C1([H])[H])C1([H])C(=O)C([H])([H])C1([H])[N+]([H])([H])C([H])([H])C([H])([H])Oc1c([H])c([H])c2c(c1[H])C([H])([H])N(C(=O)C([H])(N([H])C(=O)C([H])(N([H])C([H])([H])[H])C([H])([H])[H])C(C([H])([H])[H])(C([H])([H])[H])C([H])([H])[H])C([H])(C(=O)N([H])C1([H])c3c([H])c([H])c([H])c([H])c3C([H])([H])C([H])([H])C1([H])[H])C2([H])[H]

$$$$
74:0:0
     RDKit          3D

 96104  0  0  1  0  0  0  0  0999 V2000
  -28.3480  -19.2440   19.8100 C   0  0  0  0  0  2  0  0  0  0  0  0
  -29.0080  -20.0520   18.6760 C   0  0  0  0  0  3  0  0  0  0  0  0
  -30.1820  -20.3100   19.6470 C   0  0  0  0  0  3  0  0  0  0  0  0
  -29.6540  -19.1840   20.4770 N   0  0  0  0  0  0  0  0  0  0  0  0
  -29.3660  -19.2600   17.4760 N   0  0  0  0  0  4  0  0  0  0  0  0
  -29.9100  -18.4510   17.7090 H   0  0  0  0  0  0  0  0  0  0  0  0
  -29.9020  -19.8160   16.8340 H   0  0  0  0  0  0  0  0  0  0  0  0
  -28.5390  -18.9590   16.9910 H   0  0  0  0  0  0  0  0  0  0  0  0
  -30.9550  -21.5320   21.7520 C   0  0  0  0  0  1  0  0  0  0  0  0
  -31.5550  -22.4080   19.5060 C   0  0  0  0  0  1  0  0  0  0  0  0
  -30.4220  -21.7370   20.3170 C   0  0  1  0  0  0  0  0  0  0  0  0
  -29.2000  -22.7350   20.4080 C   0  0  0  0  0  0  0  0  0  0  0  0
  -28.0510  -22.3110   20.5340 O   0  0  0  0  0  0  0  0  0  0  0  0
  -29.4390  -24.2810   20.4220 C   0  0  0  0  0  3  0  0  0  0  0  0
  -28.1780  -25.1530   20.1270 C   0  0  0  0  0  3  0  0  0  0  0  0
  -28.3570  -26.5950   20.2200 O   0  0  0  0  0  0  0  0  0  0  0  0
  -24.5920  -31.9020   23.2200 C   0  0  0  0  0  0  0  0  0  0  0  0
  -27.2050  -27.3760   20.1810 C   0  0  0  0  0  0  0  0  0  0  0  0
  -23.3820  -30.4920   21.5910 C   0  0  0  0  0  3  0  0  0  0  0  0
  -24.8270  -28.9380   20.1780 C   0  0  0  0  0  0  0  0  0  0  0  0
  -25.9160  -30.8220   21.4000 C   0  0  0  0  0  2  0  0  0  0  0  0
  -25.9940  -29.4480   20.7600 C   0  0  0  0  0  0  0  0  0  0  0  0
  -27.1880  -28.6770   20.7490 C   0  0  0  0  0  3  0  0  0  0  0  0
  -26.0100  -26.8980   19.5910 C   0  0  0  0  0  3  0  0  0  0  0  0
  -24.8320  -27.6650   19.5900 C   0  0  0  0  0  3  0  0  0  0  0  0
  -23.5890  -29.8060   20.2170 C   0  0  0  0  0  2  0  0  0  0  0  0
  -24.6490  -31.0880   22.1270 N   0  0  0  0  0  0  0  0  0  0  0  0
  -23.5120  -32.1850   23.7560 O   0  0  0  0  0  0  0  0  0  0  0  0
  -22.7210  -29.4830   22.5580 C   0  0  0  0  0  0  0  0  0  0  0  0
  -21.3970  -29.3000   22.4250 N   0  0  0  0  0  0  0  0  0  0  0  0
  -23.3980  -28.8640   23.3840 O   0  0  0  0  0  0  0  0  0  0  0  0
  -20.9110  -29.8500   21.7310 H   0  0  0  0  0  0  0  0  0  0  0  0
  -18.0200  -28.1060   22.9090 C   0  0  0  0  0  0  0  0  0  0  0  0
  -20.5750  -28.3710   23.2010 C   0  0  0  0  0  3  0  0  0  0  0  0
  -20.6850  -26.9320   22.6450 C   0  0  0  0  0  2  0  0  0  0  0  0
  -19.5940  -26.5930   21.6250 C   0  0  0  0  0  2  0  0  0  0  0  0
  -18.2050  -26.7460   22.2530 C   0  0  0  0  0  2  0  0  0  0  0  0
  -19.1330  -28.8740   23.3400 C   0  0  0  0  0  0  0  0  0  0  0  0
  -18.9080  -30.1460   23.9100 C   0  0  0  0  0  3  0  0  0  0  0  0
  -17.6020  -30.6480   24.0570 C   0  0  0  0  0  3  0  0  0  0  0  0
  -16.5020  -29.8750   23.6450 C   0  0  0  0  0  3  0  0  0  0  0  0
  -16.7130  -28.6060   23.0770 C   0  0  0  0  0  3  0  0  0  0  0  0
  -25.8800  -32.5310   23.8360 C   0  0  0  0  0  3  0  0  0  0  0  0
  -26.3980  -31.7650   25.1140 C   0  0  1  0  0  0  0  0  0  0  0  0
  -25.3070  -31.5340   26.1860 C   0  0  0  0  0  1  0  0  0  0  0  0
  -26.9770  -30.3840   24.7270 C   0  0  0  0  0  1  0  0  0  0  0  0
  -27.5520  -32.5580   25.7700 C   0  0  0  0  0  1  0  0  0  0  0  0
  -25.5750  -33.9320   24.1610 N   0  0  0  0  0  0  0  0  0  0  0  0
  -25.9130  -34.9800   23.4010 C   0  0  0  0  0  0  0  0  0  0  0  0
  -26.5850  -34.8730   22.3710 O   0  0  0  0  0  0  0  0  0  0  0  0
  -24.9760  -34.0900   24.9580 H   0  0  0  0  0  0  0  0  0  0  0  0
  -24.1940  -36.7790   23.0350 C   0  0  0  0  0  1  0  0  0  0  0  0
  -25.4290  -36.3720   23.8530 C   0  0  0  0  0  3  0  0  0  0  0  0
  -27.5640  -37.2460   24.6920 C   0  0  0  0  0  1  0  0  0  0  0  0
  -26.4670  -37.4200   23.7450 N   0  0  0  0  0  0  0  0  0  0  0  0
  -26.0640  -38.3420   23.8940 H   0  0  0  0  0  0  0  0  0  0  0  0
  -30.2970  -17.8600   20.2420 C   0  0  0  0  0  2  0  0  0  0  0  0
  -30.1760  -16.8810   21.4460 C   0  0  0  0  0  2  0  0  0  0  0  0
  -30.6360  -14.5060   20.5520 C   0  0  0  0  0  0  0  0  0  0  0  0
  -30.3850  -12.3520   19.3480 C   0  0  0  0  0  2  0  0  0  0  0  0
  -29.4440  -12.5660   18.1430 C   0  0  0  0  0  2  0  0  0  0  0  0
  -27.9650  -12.4270   18.5570 C   0  0  0  0  0  2  0  0  0  0  0  0
  -27.6220  -13.2400   19.8340 C   0  0  0  0  0  3  0  0  0  0  0  0
  -28.6680  -12.9790   20.9410 C   0  0  0  0  0  2  0  0  0  0  0  0
  -29.9940  -13.3130   20.3900 N   0  0  0  0  0  0  0  0  0  0  0  0
  -31.7670  -14.7280   20.1110 O   0  0  0  0  0  0  0  0  0  0  0  0
  -29.8780  -15.4720   21.1090 N   0  0  0  0  0  0  0  0  0  0  0  0
  -28.9590  -15.1590   21.3870 H   0  0  0  0  0  0  0  0  0  0  0  0
  -25.2160  -13.8600   20.5090 C   0  0  0  0  0  0  0  0  0  0  0  0
  -24.1410  -13.0930   20.8680 C   0  0  0  0  0  0  0  0  0  0  0  0
  -24.5990  -11.7410   20.8540 C   0  0  0  0  0  0  0  0  0  0  0  0
  -26.2620  -12.9740   20.2970 N   0  0  0  0  0  0  0  0  0  0  0  0
  -25.8930  -11.6940   20.5620 N   0  0  0  0  0  0  0  0  0  0  0  0
  -23.8700  -10.4810   21.0470 C   0  0  0  0  0  0  0  0  0  0  0  0
  -24.2990   -9.5130   21.9820 C   0  0  0  0  0  3  0  0  0  0  0  0
  -23.5680   -8.3190   22.1610 C   0  0  0  0  0  3  0  0  0  0  0  0
  -22.3950   -8.0840   21.4050 C   0  0  0  0  0  0  0  0  0  0  0  0
  -21.9860   -9.0410   20.4590 C   0  0  0  0  0  3  0  0  0  0  0  0
  -22.7160  -10.2260   20.2790 C   0  0  0  0  0  3  0  0  0  0  0  0
  -21.6360   -6.9420   21.4940 O   0  0  0  0  0  0  0  0  0  0  0  0
  -21.5950   -6.1940   22.6440 C   0  0  0  0  0  0  0  0  0  0  0  0
  -21.1910   -6.7470   23.8780 C   0  0  0  0  0  3  0  0  0  0  0  0
  -21.0940   -5.9250   25.0190 C   0  0  0  0  0  3  0  0  0  0  0  0
  -21.3900   -4.5530   24.9280 C   0  0  0  0  0  0  0  0  0  0  0  0
  -21.7870   -3.9990   23.6980 C   0  0  0  0  0  3  0  0  0  0  0  0
  -21.8860   -4.8180   22.5580 C   0  0  0  0  0  0  0  0  0  0  0  0
  -22.2490   -4.2750   21.3710 F   0  0  0  0  0  0  0  0  0  0  0  0
  -21.2910   -3.7620   26.0210 F   0  0  0  0  0  0  0  0  0  0  0  0
  -22.7410  -13.5740   21.1200 C   0  0  0  0  0  0  0  0  0  0  0  0
  -22.0020  -12.8860   21.9830 N   0  0  0  0  0  0  0  0  0  0  0  0
  -22.3120  -14.5980   20.5890 O   0  0  0  0  0  0  0  0  0  0  0  0
  -22.3630  -12.0570   22.4320 H   0  0  0  0  0  0  0  0  0  0  0  0
  -21.0620  -13.1890   22.1960 H   0  0  0  0  0  0  0  0  0  0  0  0
  -25.3860  -15.2290   20.3240 N   0  0  0  0  0  0  0  0  0  0  0  0
  -24.6210  -15.8880   20.4300 H   0  0  0  0  0  0  0  0  0  0  0  0
  -26.2440  -15.6660   20.0130 H   0  0  0  0  0  0  0  0  0  0  0  0
  1  4  1  0
  2  5  1  0
  2  3  1  0
  2  1  1  0
  3 11  1  0
  3  4  1  0
  5  6  1  0
  7  5  1  0
  8  5  1  0
 11 10  1  6
 11 12  1  0
 11  9  1  0
 12 14  1  0
 12 13  2  0
 15 16  1  0
 15 14  2  0
 17 28  2  0
 18 16  1  0
 18 23  1  0
 19 27  1  0
 19 29  1  0
 20 26  1  0
 20 22  1  0
 21 27  1  0
 22 21  1  0
 23 22  2  0
 24 18  2  0
 25 24  1  0
 25 20  2  0
 26 19  1  0
 27 17  1  0
 29 31  2  0
 30 29  1  0
 32 30  1  0
 33 42  2  0
 33 38  1  0
 34 30  1  0
 34 38  1  0
 35 34  1  0
 36 37  1  0
 36 35  1  0
 37 33  1  0
 38 39  2  0
 39 40  1  0
 41 40  2  0
 42 41  1  0
 43 17  1  0
 43 48  1  0
 43 44  1  0
 44 47  1  1
 44 45  1  0
 46 44  1  0
 48 51  1  0
 49 53  1  0
 49 48  1  0
 50 49  2  0
 53 52  1  0
 55 53  1  0
 55 56  1  0
 55 54  1  0
 57  4  1  0
 57 58  1  0
 59 67  1  0
 60 65  1  0
 61 62  1  0
 61 60  1  0
 63 62  1  0
 63 72  1  0
 63 64  1  0
 65 59  1  0
 65 64  1  0
 66 59  2  0
 67 68  1  0
 67 58  1  0
 69 70  2  0
 70 89  1  0
 71 70  1  0
 71 74  1  0
 72 69  1  0
 72 73  1  0
 73 71  2  0
 74 75  1  0
 75 76  2  0
 77 80  1  0
 77 76  1  0
 78 77  2  0
 79 78  1  0
 79 74  2  0
 80 81  1  0
 81 82  1  0
 82 83  2  0
 84 83  1  0
 84 88  1  0
 85 84  2  0
 86 81  2  0
 86 85  1  0
 87 86  1  0
 89 90  1  0
 90 93  1  0
 90 92  1  0
 91 89  2  0
 94 95  1  0
 94 69  1  0
 96 94  1  0
M  ISO  4  15 101  16 101  59 100  67 100
M  END
>  <TORSDO>  (73) 
F 23

>  <SCORE>  (73) 
-13.304

>  <name>  (73) 
74

>  <ligand_id>  (73) 
74

>  <original_smiles>  (73) 
[H]c1c([H])c([H])c2c(c1[H])C([H])([H])C([H])([H])C([H])([H])C2([H])N([H])C(=O)C1([H])N(C(=O)C([H])(N([H])C(=O)C([H])(N([H])C([H])([H])[H])C([H])([H])[H])C(C([H])([H])[H])(C([H])([H])[H])C([H])([H])[H])C([H])([H])c2c([H])c(OC([H])([H])C([H])([H])C(=O)C(C([H])([H])[H])(C([H])([H])[H])C3([H])N(C([H])([H])C([H])([H])N([H])C(=O)N4C([H])([H])C([H])([H])C([H])([H])C([H])(n5nc(-c6c([H])c([H])c(Oc7c([H])c([H])c(F)c([H])c7F)c([H])c6[H])c(C(=O)N([H])[H])c5N([H])[H])C4([H])[H])C([H])([H])C3([H])[N+]([H])([H])[H])c([H])c([H])c2C1([H])[H]

>  <smiles>  (73) 
[H]c1c([H])c([H])c2c(c1[H])C([H])([H])C([H])([H])C([H])([H])C2([H])N([H])C(=O)C1([H])N(C(=O)C([H])(N([H])C(=O)C([H])(N([H])C([H])([H])[H])C([H])([H])[H])C(C([H])([H])[H])(C([H])([H])[H])C([H])([H])[H])C([H])([H])c2c([H])c(OC([H])([H])C([H])([H])C(=O)C(C([H])([H])[H])(C([H])([H])[H])C3([H])N(C([H])([H])C([H])([H])N([H])C(=O)N4C([H])([H])C([H])([H])C([H])([H])C([H])(n5nc(-c6c([H])c([H])c(Oc7c([H])c([H])c(F)c([H])c7F)c([H])c6[H])c(C(=O)N([H])[H])c5N([H])[H])C4([H])[H])C([H])([H])C3([H])[N+]([H])([H])[H])c([H])c([H])c2C1([H])[H]

$$$$
75:0:0
     RDKit          3D

 94102  0  0  1  0  0  0  0  0999 V2000
  -28.1630  -22.6230   21.4250 C   0  0  0  0  0  3  0  0  0  0  0  0
  -28.7770  -22.5580   19.1420 C   0  0  0  0  0  3  0  0  0  0  0  0
  -28.0540  -24.0700   21.3600 C   0  0  0  0  0  3  0  0  0  0  0  0
  -28.6680  -24.0090   19.0810 C   0  0  0  0  0  3  0  0  0  0  0  0
  -28.5200  -21.7750   20.3210 C   0  0  0  0  0  0  0  0  0  0  0  0
  -28.2810  -24.8520   20.1810 C   0  0  0  0  0  0  0  0  0  0  0  0
  -28.3100  -26.3140   20.1580 O   0  0  0  0  0  0  0  0  0  0  0  0
  -24.6200  -31.8920   23.2330 C   0  0  0  0  0  0  0  0  0  0  0  0
  -27.2010  -27.2150   20.1830 C   0  0  0  0  0  0  0  0  0  0  0  0
  -23.4140  -30.4920   21.6020 C   0  0  0  0  0  3  0  0  0  0  0  0
  -24.8550  -28.9120   20.1790 C   0  0  0  0  0  0  0  0  0  0  0  0
  -25.9630  -30.7690   21.4190 C   0  0  0  0  0  2  0  0  0  0  0  0
  -26.0320  -29.3760   20.7760 C   0  0  0  0  0  0  0  0  0  0  0  0
  -27.2050  -28.5400   20.7630 C   0  0  0  0  0  3  0  0  0  0  0  0
  -25.9950  -26.8320   19.5590 C   0  0  0  0  0  3  0  0  0  0  0  0
  -24.8440  -27.6500   19.5620 C   0  0  0  0  0  3  0  0  0  0  0  0
  -23.6280  -29.8110   20.2250 C   0  0  0  0  0  2  0  0  0  0  0  0
  -24.6870  -31.0720   22.1420 N   0  0  0  0  0  0  0  0  0  0  0  0
  -23.5350  -32.1770   23.7630 O   0  0  0  0  0  0  0  0  0  0  0  0
  -22.7410  -29.4840   22.5690 C   0  0  0  0  0  0  0  0  0  0  0  0
  -21.4140  -29.3090   22.4460 N   0  0  0  0  0  0  0  0  0  0  0  0
  -23.4160  -28.8630   23.3940 O   0  0  0  0  0  0  0  0  0  0  0  0
  -20.9290  -29.8650   21.7550 H   0  0  0  0  0  0  0  0  0  0  0  0
  -18.0380  -28.1090   22.9510 C   0  0  0  0  0  0  0  0  0  0  0  0
  -20.5950  -28.3760   23.2210 C   0  0  0  0  0  3  0  0  0  0  0  0
  -20.7040  -26.9420   22.6530 C   0  0  0  0  0  2  0  0  0  0  0  0
  -19.6040  -26.6110   21.6390 C   0  0  0  0  0  2  0  0  0  0  0  0
  -18.2210  -26.7580   22.2770 C   0  0  0  0  0  2  0  0  0  0  0  0
  -19.1550  -28.8750   23.3790 C   0  0  0  0  0  0  0  0  0  0  0  0
  -18.9310  -30.1380   23.9670 C   0  0  0  0  0  3  0  0  0  0  0  0
  -17.6250  -30.6350   24.1310 C   0  0  0  0  0  3  0  0  0  0  0  0
  -16.5230  -29.8660   23.7180 C   0  0  0  0  0  3  0  0  0  0  0  0
  -16.7310  -28.6050   23.1320 C   0  0  0  0  0  3  0  0  0  0  0  0
  -25.9020  -32.5280   23.8550 C   0  0  0  0  0  3  0  0  0  0  0  0
  -26.4220  -31.7550   25.1300 C   0  0  1  0  0  0  0  0  0  0  0  0
  -25.3320  -31.5170   26.1990 C   0  0  0  0  0  1  0  0  0  0  0  0
  -27.0050  -30.3770   24.7350 C   0  0  0  0  0  1  0  0  0  0  0  0
  -27.5740  -32.5510   25.7900 C   0  0  0  0  0  1  0  0  0  0  0  0
  -25.5890  -33.9250   24.1950 N   0  0  0  0  0  0  0  0  0  0  0  0
  -25.9100  -34.9840   23.4410 C   0  0  0  0  0  0  0  0  0  0  0  0
  -26.5710  -34.8900   22.4030 O   0  0  0  0  0  0  0  0  0  0  0  0
  -25.0050  -34.0760   25.0040 H   0  0  0  0  0  0  0  0  0  0  0  0
  -24.1720  -36.7760   23.1220 C   0  0  0  0  0  1  0  0  0  0  0  0
  -25.4250  -36.3700   23.9140 C   0  0  0  0  0  3  0  0  0  0  0  0
  -27.5670  -37.2600   24.7190 C   0  0  0  0  0  1  0  0  0  0  0  0
  -26.4510  -37.4270   23.7940 N   0  0  0  0  0  0  0  0  0  0  0  0
  -26.0430  -38.3460   23.9500 H   0  0  0  0  0  0  0  0  0  0  0  0
  -28.3030  -20.1380   20.3340 C   0  0  0  0  0  3  0  0  0  0  0  0
  -27.2850  -19.7790   19.3370 N   0  0  0  0  0  4  0  0  0  0  0  0
  -27.7110  -19.5480   18.4590 H   0  0  0  0  0  0  0  0  0  0  0  0
  -26.6520  -20.5480   19.2010 H   0  0  0  0  0  0  0  0  0  0  0  0
  -26.7360  -19.0020   19.6600 H   0  0  0  0  0  0  0  0  0  0  0  0
  -29.2830  -18.8320   20.7850 C   0  0  0  0  0  2  0  0  0  0  0  0
  -31.1860  -17.8330   19.3910 C   0  0  0  0  0  1  0  0  0  0  0  0
  -28.8770  -17.2750   18.6780 C   0  0  0  0  0  1  0  0  0  0  0  0
  -29.7760  -17.4740   19.9130 C   0  0  2  0  0  0  0  0  0  0  0  0
  -30.5670  -14.8720   20.3280 C   0  0  0  0  0  0  0  0  0  0  0  0
  -30.3860  -12.5460   19.3920 C   0  0  0  0  0  2  0  0  0  0  0  0
  -29.4750  -12.6170   18.1460 C   0  0  0  0  0  2  0  0  0  0  0  0
  -28.0040  -12.4140   18.5560 C   0  0  0  0  0  2  0  0  0  0  0  0
  -27.6090  -13.3140   19.7600 C   0  0  0  0  0  3  0  0  0  0  0  0
  -28.6530  -13.2690   20.8990 C   0  0  0  0  0  2  0  0  0  0  0  0
  -29.9540  -13.6270   20.3180 N   0  0  0  0  0  0  0  0  0  0  0  0
  -31.7400  -14.9370   19.9400 O   0  0  0  0  0  0  0  0  0  0  0  0
  -29.7970  -16.0340   20.5590 N   0  0  0  0  0  0  0  0  0  0  0  0
  -28.9270  -15.7970   21.0130 H   0  0  0  0  0  0  0  0  0  0  0  0
  -25.2230  -13.9080   20.4750 C   0  0  0  0  0  0  0  0  0  0  0  0
  -24.1540  -13.1380   20.8440 C   0  0  0  0  0  0  0  0  0  0  0  0
  -24.6130  -11.7870   20.8210 C   0  0  0  0  0  0  0  0  0  0  0  0
  -26.2630  -13.0240   20.2440 N   0  0  0  0  0  0  0  0  0  0  0  0
  -25.9030  -11.7410   20.5140 N   0  0  0  0  0  0  0  0  0  0  0  0
  -23.8790  -10.5280   21.0150 C   0  0  0  0  0  0  0  0  0  0  0  0
  -24.3050   -9.5630   21.9540 C   0  0  0  0  0  3  0  0  0  0  0  0
  -23.5720   -8.3710   22.1380 C   0  0  0  0  0  3  0  0  0  0  0  0
  -22.3990   -8.1370   21.3820 C   0  0  0  0  0  0  0  0  0  0  0  0
  -21.9890   -9.0930   20.4360 C   0  0  0  0  0  3  0  0  0  0  0  0
  -22.7240  -10.2770   20.2500 C   0  0  0  0  0  3  0  0  0  0  0  0
  -21.6360   -6.9980   21.4750 O   0  0  0  0  0  0  0  0  0  0  0  0
  -21.5800   -6.2590   22.6300 C   0  0  0  0  0  0  0  0  0  0  0  0
  -21.1620   -6.8200   23.8560 C   0  0  0  0  0  3  0  0  0  0  0  0
  -21.0530   -6.0060   25.0010 C   0  0  0  0  0  3  0  0  0  0  0  0
  -21.3540   -4.6340   24.9230 C   0  0  0  0  0  0  0  0  0  0  0  0
  -21.7630   -4.0710   23.7020 C   0  0  0  0  0  3  0  0  0  0  0  0
  -21.8740   -4.8810   22.5580 C   0  0  0  0  0  0  0  0  0  0  0  0
  -22.2490   -4.3280   21.3780 F   0  0  0  0  0  0  0  0  0  0  0  0
  -21.2400   -3.8510   26.0210 F   0  0  0  0  0  0  0  0  0  0  0  0
  -22.7580  -13.6250   21.1090 C   0  0  0  0  0  0  0  0  0  0  0  0
  -22.0230  -12.9420   21.9770 N   0  0  0  0  0  0  0  0  0  0  0  0
  -22.3290  -14.6480   20.5790 O   0  0  0  0  0  0  0  0  0  0  0  0
  -22.3830  -12.1190   22.4350 H   0  0  0  0  0  0  0  0  0  0  0  0
  -21.0850  -13.2540   22.1880 H   0  0  0  0  0  0  0  0  0  0  0  0
  -25.3900  -15.2800   20.2960 N   0  0  0  0  0  0  0  0  0  0  0  0
  -24.6130  -15.9230   20.4030 H   0  0  0  0  0  0  0  0  0  0  0  0
  -26.2370  -15.7260   19.9730 H   0  0  0  0  0  0  0  0  0  0  0  0
  2  5  1  0
  3  1  1  0
  4  2  2  0
  4  6  1  0
  5 48  1  0
  5  1  2  0
  6  3  2  0
  7  6  1  0
  7  9  1  0
  8 19  2  0
  9 14  1  0
 10 18  1  0
 10 20  1  0
 11 17  1  0
 11 13  1  0
 12 18  1  0
 13 12  1  0
 14 13  2  0
 15 16  1  0
 15  9  2  0
 16 11  2  0
 17 10  1  0
 18  8  1  0
 20 22  2  0
 21 20  1  0
 23 21  1  0
 24 33  2  0
 24 29  1  0
 25 21  1  0
 25 29  1  0
 26 25  1  0
 27 28  1  0
 27 26  1  0
 28 24  1  0
 29 30  2  0
 30 31  1  0
 32 31  2  0
 33 32  1  0
 34  8  1  0
 34 39  1  0
 34 35  1  0
 35 38  1  1
 35 36  1  0
 37 35  1  0
 39 42  1  0
 40 44  1  0
 40 39  1  0
 41 40  2  0
 44 43  1  0
 46 44  1  0
 46 47  1  0
 46 45  1  0
 48 53  1  0
 49 52  1  0
 49 48  1  0
 50 49  1  0
 51 49  1  0
 56 54  1  6
 55 56  1  0
 56 65  1  0
 56 53  1  0
 57 65  1  0
 58 63  1  0
 59 60  1  0
 59 58  1  0
 61 60  1  0
 61 70  1  0
 61 62  1  0
 63 57  1  0
 63 62  1  0
 64 57  2  0
 65 66  1  0
 67 68  2  0
 68 87  1  0
 69 68  1  0
 69 72  1  0
 70 67  1  0
 70 71  1  0
 71 69  2  0
 72 73  1  0
 73 74  2  0
 75 78  1  0
 75 74  1  0
 76 75  2  0
 77 76  1  0
 77 72  2  0
 78 79  1  0
 79 80  1  0
 80 81  2  0
 82 81  1  0
 82 86  1  0
 83 82  2  0
 84 79  2  0
 84 83  1  0
 85 84  1  0
 87 88  1  0
 88 91  1  0
 88 90  1  0
 89 87  2  0
 92 93  1  0
 92 67  1  0
 94 92  1  0
M  ISO  4   6 101   7 101  57 100  65 100
M  END
>  <TORSDO>  (74) 
F 20

>  <SCORE>  (74) 
-14.230

>  <name>  (74) 
75

>  <ligand_id>  (74) 
75

>  <original_smiles>  (74) 
[H]c1c([H])c([H])c2c(c1[H])C([H])([H])C([H])([H])C([H])([H])C2([H])N([H])C(=O)C1([H])N(C(=O)C([H])(N([H])C(=O)C([H])(N([H])C([H])([H])[H])C([H])([H])[H])C(C([H])([H])[H])(C([H])([H])[H])C([H])([H])[H])C([H])([H])c2c([H])c(Oc3c([H])c([H])c(C([H])(C([H])([H])C(N([H])C(=O)N4C([H])([H])C([H])([H])C([H])([H])C([H])(n5nc(-c6c([H])c([H])c(Oc7c([H])c([H])c(F)c([H])c7F)c([H])c6[H])c(C(=O)N([H])[H])c5N([H])[H])C4([H])[H])(C([H])([H])[H])C([H])([H])[H])[N+]([H])([H])[H])c([H])c3[H])c([H])c([H])c2C1([H])[H]

>  <smiles>  (74) 
[H]c1c([H])c([H])c2c(c1[H])C([H])([H])C([H])([H])C([H])([H])C2([H])N([H])C(=O)C1([H])N(C(=O)C([H])(N([H])C(=O)C([H])(N([H])C([H])([H])[H])C([H])([H])[H])C(C([H])([H])[H])(C([H])([H])[H])C([H])([H])[H])C([H])([H])c2c([H])c(Oc3c([H])c([H])c(C([H])(C([H])([H])C(N([H])C(=O)N4C([H])([H])C([H])([H])C([H])([H])C([H])(n5nc(-c6c([H])c([H])c(Oc7c([H])c([H])c(F)c([H])c7F)c([H])c6[H])c(C(=O)N([H])[H])c5N([H])[H])C4([H])[H])(C([H])([H])[H])C([H])([H])[H])[N+]([H])([H])[H])c([H])c3[H])c([H])c([H])c2C1([H])[H]

$$$$
76:0:0
     RDKit          3D

 91 99  0  0  1  0  0  0  0  0999 V2000
  -28.6810  -19.0150   19.0990 C   0  0  0  0  0  3  0  0  0  0  0  0
  -28.8310  -17.5140   18.9860 C   0  0  0  0  0  2  0  0  0  0  0  0
  -30.2590  -18.4930   20.6790 C   0  0  0  0  0  2  0  0  0  0  0  0
  -30.0620  -17.1600   19.8390 C   0  0  0  0  0  3  0  0  0  0  0  0
  -29.4500  -19.5920   20.0500 N   0  0  0  0  0  0  0  0  0  0  0  0
  -27.8360  -19.6760   18.2910 N   0  0  0  0  0  0  0  0  0  0  0  0
  -27.3070  -19.1880   17.5780 H   0  0  0  0  0  0  0  0  0  0  0  0
  -27.7020  -20.6730   18.3630 H   0  0  0  0  0  0  0  0  0  0  0  0
  -30.6660  -14.6500   20.1060 C   0  0  0  0  0  0  0  0  0  0  0  0
  -30.3710  -12.4780   18.9180 C   0  0  0  0  0  2  0  0  0  0  0  0
  -29.3480  -12.6460   17.7670 C   0  0  0  0  0  2  0  0  0  0  0  0
  -27.9000  -12.4710   18.2820 C   0  0  0  0  0  2  0  0  0  0  0  0
  -27.6310  -13.2660   19.5840 C   0  0  0  0  0  3  0  0  0  0  0  0
  -28.7480  -12.9880   20.6030 C   0  0  0  0  0  2  0  0  0  0  0  0
  -30.0110  -13.4390   19.9890 N   0  0  0  0  0  0  0  0  0  0  0  0
  -31.7770  -14.7860   19.5830 O   0  0  0  0  0  0  0  0  0  0  0  0
  -29.2330  -15.8000   21.7860 C   0  0  0  0  0  1  0  0  0  0  0  0
  -29.9560  -15.7820   20.5060 N   0  0  0  0  0  0  0  0  0  0  0  0
  -25.2810  -13.8550   20.4400 C   0  0  0  0  0  0  0  0  0  0  0  0
  -24.2360  -13.0790   20.8480 C   0  0  0  0  0  0  0  0  0  0  0  0
  -24.6930  -11.7270   20.7660 C   0  0  0  0  0  0  0  0  0  0  0  0
  -26.3100  -12.9780   20.1310 N   0  0  0  0  0  0  0  0  0  0  0  0
  -25.9650  -11.6930   20.3900 N   0  0  0  0  0  0  0  0  0  0  0  0
  -23.9800  -10.4620   20.9660 C   0  0  0  0  0  0  0  0  0  0  0  0
  -24.4410   -9.4880   21.8790 C   0  0  0  0  0  3  0  0  0  0  0  0
  -23.7240   -8.2880   22.0620 C   0  0  0  0  0  3  0  0  0  0  0  0
  -22.5330   -8.0540   21.3360 C   0  0  0  0  0  0  0  0  0  0  0  0
  -22.0930   -9.0170   20.4100 C   0  0  0  0  0  3  0  0  0  0  0  0
  -22.8110  -10.2080   20.2220 C   0  0  0  0  0  3  0  0  0  0  0  0
  -21.7870   -6.9050   21.4320 O   0  0  0  0  0  0  0  0  0  0  0  0
  -21.7350   -6.1770   22.5970 C   0  0  0  0  0  0  0  0  0  0  0  0
  -21.3070   -6.7510   23.8140 C   0  0  0  0  0  3  0  0  0  0  0  0
  -21.2020   -5.9500   24.9700 C   0  0  0  0  0  3  0  0  0  0  0  0
  -21.5210   -4.5810   24.9100 C   0  0  0  0  0  0  0  0  0  0  0  0
  -21.9450   -4.0090   23.6990 C   0  0  0  0  0  3  0  0  0  0  0  0
  -22.0510   -4.8060   22.5450 C   0  0  0  0  0  0  0  0  0  0  0  0
  -22.4390   -4.2440   21.3740 F   0  0  0  0  0  0  0  0  0  0  0  0
  -21.4130   -3.8110   26.0180 F   0  0  0  0  0  0  0  0  0  0  0  0
  -22.8540  -13.5520   21.2000 C   0  0  0  0  0  0  0  0  0  0  0  0
  -22.1770  -12.8420   22.0940 N   0  0  0  0  0  0  0  0  0  0  0  0
  -22.3910  -14.5870   20.7190 O   0  0  0  0  0  0  0  0  0  0  0  0
  -22.5740  -12.0070   22.4970 H   0  0  0  0  0  0  0  0  0  0  0  0
  -21.2510  -13.1340   22.3770 H   0  0  0  0  0  0  0  0  0  0  0  0
  -25.4410  -15.2270   20.2840 N   0  0  0  0  0  0  0  0  0  0  0  0
  -24.6980  -15.8860   20.4950 H   0  0  0  0  0  0  0  0  0  0  0  0
  -26.2790  -15.6610   19.9260 H   0  0  0  0  0  0  0  0  0  0  0  0
  -29.6480  -21.0650   20.4410 C   0  0  0  0  0  3  0  0  0  0  0  0
  -28.6120  -22.2330   20.0510 C   0  0  0  0  0  3  0  0  0  0  0  0
  -28.9920  -23.7490   20.4590 C   0  0  0  0  0  3  0  0  0  0  0  0
  -28.0070  -24.9370   20.0350 C   0  0  0  0  0  3  0  0  0  0  0  0
  -28.2830  -26.3720   20.3620 O   0  0  0  0  0  0  0  0  0  0  0  0
  -24.6590  -31.9120   23.3150 C   0  0  0  0  0  0  0  0  0  0  0  0
  -27.2060  -27.2830   20.2810 C   0  0  0  0  0  0  0  0  0  0  0  0
  -23.4480  -30.5310   21.6670 C   0  0  0  0  0  3  0  0  0  0  0  0
  -24.8840  -28.9620   20.2510 C   0  0  0  0  0  0  0  0  0  0  0  0
  -25.9980  -30.8020   21.5050 C   0  0  0  0  0  2  0  0  0  0  0  0
  -26.0590  -29.4200   20.8590 C   0  0  0  0  0  0  0  0  0  0  0  0
  -27.2260  -28.5930   20.8650 C   0  0  0  0  0  3  0  0  0  0  0  0
  -26.0090  -26.8980   19.6300 C   0  0  0  0  0  3  0  0  0  0  0  0
  -24.8640  -27.7110   19.6220 C   0  0  0  0  0  3  0  0  0  0  0  0
  -23.6640  -29.8560   20.2880 C   0  0  0  0  0  2  0  0  0  0  0  0
  -24.7220  -31.0990   22.2190 N   0  0  0  0  0  0  0  0  0  0  0  0
  -23.5740  -32.2050   23.8370 O   0  0  0  0  0  0  0  0  0  0  0  0
  -22.7610  -29.5240   22.6220 C   0  0  0  0  0  0  0  0  0  0  0  0
  -21.4340  -29.3650   22.4840 N   0  0  0  0  0  0  0  0  0  0  0  0
  -23.4240  -28.8910   23.4490 O   0  0  0  0  0  0  0  0  0  0  0  0
  -20.9610  -29.9300   21.7930 H   0  0  0  0  0  0  0  0  0  0  0  0
  -18.0340  -28.2120   22.9650 C   0  0  0  0  0  0  0  0  0  0  0  0
  -20.5950  -28.4420   23.2520 C   0  0  0  0  0  3  0  0  0  0  0  0
  -20.6790  -27.0060   22.6870 C   0  0  0  0  0  2  0  0  0  0  0  0
  -19.5810  -26.6920   21.6640 C   0  0  0  0  0  2  0  0  0  0  0  0
  -18.1970  -26.8580   22.2950 C   0  0  0  0  0  2  0  0  0  0  0  0
  -19.1600  -28.9610   23.4010 C   0  0  0  0  0  0  0  0  0  0  0  0
  -18.9530  -30.2270   23.9920 C   0  0  0  0  0  3  0  0  0  0  0  0
  -17.6540  -30.7530   24.1320 C   0  0  0  0  0  3  0  0  0  0  0  0
  -16.5430  -30.0030   23.7090 C   0  0  0  0  0  3  0  0  0  0  0  0
  -16.7330  -28.7290   23.1420 C   0  0  0  0  0  3  0  0  0  0  0  0
  -25.9460  -32.5280   23.9460 C   0  0  0  0  0  3  0  0  0  0  0  0
  -26.4300  -31.7590   25.2370 C   0  0  1  0  0  0  0  0  0  0  0  0
  -25.3190  -31.5460   26.2920 C   0  0  0  0  0  1  0  0  0  0  0  0
  -26.9900  -30.3670   24.8650 C   0  0  0  0  0  1  0  0  0  0  0  0
  -27.5890  -32.5390   25.9020 C   0  0  0  0  0  1  0  0  0  0  0  0
  -25.6550  -33.9340   24.2580 N   0  0  0  0  0  0  0  0  0  0  0  0
  -26.0000  -34.9730   23.4830 C   0  0  0  0  0  0  0  0  0  0  0  0
  -26.6660  -34.8430   22.4530 O   0  0  0  0  0  0  0  0  0  0  0  0
  -25.0570  -34.1060   25.0520 H   0  0  0  0  0  0  0  0  0  0  0  0
  -24.2870  -36.7790   23.1200 C   0  0  0  0  0  1  0  0  0  0  0  0
  -25.5370  -36.3750   23.9200 C   0  0  0  0  0  3  0  0  0  0  0  0
  -27.7010  -37.2480   24.6940 C   0  0  0  0  0  1  0  0  0  0  0  0
  -26.5820  -37.4140   23.7690 N   0  0  0  0  0  0  0  0  0  0  0  0
  -26.1920  -38.3420   23.9110 H   0  0  0  0  0  0  0  0  0  0  0  0
  1  6  1  0
  1  5  1  0
  2  1  1  0
  2  4  1  0
  4 18  1  0
  4  3  1  0
  5 47  1  0
  5  3  1  0
  6  8  1  0
  7  6  1  0
  9 18  1  0
 10 15  1  0
 11 12  1  0
 11 10  1  0
 13 12  1  0
 13 22  1  0
 13 14  1  0
 15  9  1  0
 15 14  1  0
 16  9  2  0
 18 17  1  0
 19 20  2  0
 20 39  1  0
 21 20  1  0
 21 24  1  0
 22 23  1  0
 22 19  1  0
 23 21  2  0
 24 25  1  0
 25 26  2  0
 27 30  1  0
 27 26  1  0
 28 27  2  0
 29 28  1  0
 29 24  2  0
 30 31  1  0
 31 32  1  0
 32 33  2  0
 34 33  1  0
 34 38  1  0
 35 34  2  0
 36 31  2  0
 36 35  1  0
 37 36  1  0
 39 40  1  0
 40 43  1  0
 40 42  1  0
 41 39  2  0
 44 19  1  0
 44 45  1  0
 46 44  1  0
 48 47  2  0
 48 49  1  0
 50 51  1  0
 50 49  2  0
 52 63  2  0
 53 51  1  0
 53 58  1  0
 54 62  1  0
 54 64  1  0
 55 61  1  0
 55 57  1  0
 56 62  1  0
 57 58  2  0
 57 56  1  0
 59 53  2  0
 60 59  1  0
 60 55  2  0
 61 54  1  0
 62 52  1  0
 64 66  2  0
 65 64  1  0
 67 65  1  0
 68 77  2  0
 68 73  1  0
 69 65  1  0
 69 73  1  0
 70 69  1  0
 71 72  1  0
 71 70  1  0
 72 68  1  0
 73 74  2  0
 74 75  1  0
 76 75  2  0
 77 76  1  0
 78 52  1  0
 78 83  1  0
 78 79  1  0
 79 82  1  1
 79 80  1  0
 81 79  1  0
 83 86  1  0
 84 88  1  0
 84 83  1  0
 85 84  2  0
 88 87  1  0
 90 91  1  0
 90 88  1  0
 90 89  1  0
M  ISO  4   9 100  18 100  50 101  51 101
M  END
>  <TORSDO>  (75) 
F 20

>  <SCORE>  (75) 
-13.182

>  <name>  (75) 
76

>  <ligand_id>  (75) 
76

>  <original_smiles>  (75) 
[H]c1c([H])c([H])c2c(c1[H])C([H])([H])C([H])([H])C([H])([H])C2([H])N([H])C(=O)C1([H])N(C(=O)C([H])(N([H])C(=O)C([H])(N([H])C([H])([H])[H])C([H])([H])[H])C(C([H])([H])[H])(C([H])([H])[H])C([H])([H])[H])C([H])([H])c2c([H])c(OC([H])([H])C([H])([H])C([H])([H])C([H])([H])N3C(=[N+]([H])[H])C([H])([H])C([H])(N(C(=O)N4C([H])([H])C([H])([H])C([H])([H])C([H])(n5nc(-c6c([H])c([H])c(Oc7c([H])c([H])c(F)c([H])c7F)c([H])c6[H])c(C(=O)N([H])[H])c5N([H])[H])C4([H])[H])C([H])([H])[H])C3([H])[H])c([H])c([H])c2C1([H])[H]

>  <smiles>  (75) 
[H]c1c([H])c([H])c2c(c1[H])C([H])([H])C([H])([H])C([H])([H])C2([H])N([H])C(=O)C1([H])N(C(=O)C([H])(N([H])C(=O)C([H])(N([H])C([H])([H])[H])C([H])([H])[H])C(C([H])([H])[H])(C([H])([H])[H])C([H])([H])[H])C([H])([H])c2c([H])c(OC([H])([H])C([H])([H])C([H])([H])C([H])([H])N3C(=[N+]([H])[H])C([H])([H])C([H])(N(C(=O)N4C([H])([H])C([H])([H])C([H])([H])C([H])(n5nc(-c6c([H])c([H])c(Oc7c([H])c([H])c(F)c([H])c7F)c([H])c6[H])c(C(=O)N([H])[H])c5N([H])[H])C4([H])[H])C([H])([H])[H])C3([H])[H])c([H])c([H])c2C1([H])[H]

$$$$
77:0:0
     RDKit          3D

 94102  0  0  1  0  0  0  0  0999 V2000
  -28.3720  -21.8430   19.0860 C   0  0  0  0  0  2  0  0  0  0  0  0
  -28.1110  -21.7700   20.4050 C   0  0  0  0  0  0  0  0  0  0  0  0
  -26.3410  -22.5450   22.0830 C   0  0  0  0  0  1  0  0  0  0  0  0
  -27.4290  -22.9710   21.0790 C   0  0  0  0  0  3  0  0  0  0  0  0
  -28.4230  -24.0090   21.6830 C   0  0  0  0  0  2  0  0  0  0  0  0
  -28.1940  -25.4910   21.2560 C   0  0  0  0  0  2  0  0  0  0  0  0
  -28.8860  -25.9050   19.9270 C   0  0  0  0  0  2  0  0  0  0  0  0
  -28.8690  -27.3180   19.6340 O   0  0  0  0  0  0  0  0  0  0  0  0
  -24.6590  -31.8220   23.1290 C   0  0  0  0  0  0  0  0  0  0  0  0
  -27.6460  -27.9490   19.6340 C   0  0  0  0  0  0  0  0  0  0  0  0
  -23.5640  -30.4270   21.4090 C   0  0  0  0  0  3  0  0  0  0  0  0
  -25.1200  -29.2020   19.7970 C   0  0  0  0  0  0  0  0  0  0  0  0
  -26.0220  -31.0850   21.1680 C   0  0  0  0  0  2  0  0  0  0  0  0
  -26.2300  -29.7890   20.4150 C   0  0  0  0  0  0  0  0  0  0  0  0
  -27.4980  -29.1720   20.3230 C   0  0  0  0  0  3  0  0  0  0  0  0
  -26.5260  -27.3940   18.9800 C   0  0  0  0  0  3  0  0  0  0  0  0
  -25.2680  -28.0150   19.0570 C   0  0  0  0  0  3  0  0  0  0  0  0
  -23.7880  -29.8920   19.9680 C   0  0  0  0  0  2  0  0  0  0  0  0
  -24.7690  -31.1240   21.9610 N   0  0  0  0  0  0  0  0  0  0  0  0
  -23.5730  -31.9200   23.7140 O   0  0  0  0  0  0  0  0  0  0  0  0
  -23.0670  -29.2610   22.2940 C   0  0  0  0  0  0  0  0  0  0  0  0
  -21.7730  -28.9290   22.1630 N   0  0  0  0  0  0  0  0  0  0  0  0
  -23.8360  -28.6550   23.0440 O   0  0  0  0  0  0  0  0  0  0  0  0
  -21.2000  -29.4920   21.5520 H   0  0  0  0  0  0  0  0  0  0  0  0
  -18.5940  -27.2360   22.5040 C   0  0  0  0  0  0  0  0  0  0  0  0
  -21.0890  -27.8300   22.8500 C   0  0  0  0  0  3  0  0  0  0  0  0
  -21.3950  -26.4640   22.1950 C   0  0  0  0  0  2  0  0  0  0  0  0
  -20.3680  -26.0730   21.1260 C   0  0  0  0  0  2  0  0  0  0  0  0
  -18.9620  -25.9780   21.7300 C   0  0  0  0  0  2  0  0  0  0  0  0
  -19.5890  -28.1140   23.0080 C   0  0  0  0  0  0  0  0  0  0  0  0
  -19.1880  -29.2940   23.6730 C   0  0  0  0  0  3  0  0  0  0  0  0
  -17.8280  -29.6020   23.8370 C   0  0  0  0  0  3  0  0  0  0  0  0
  -16.8440  -28.7200   23.3510 C   0  0  0  0  0  3  0  0  0  0  0  0
  -17.2260  -27.5390   22.6920 C   0  0  0  0  0  3  0  0  0  0  0  0
  -25.8840  -32.5390   23.7730 C   0  0  0  0  0  3  0  0  0  0  0  0
  -25.4660  -33.9020   24.1300 N   0  0  0  0  0  0  0  0  0  0  0  0
  -25.7150  -34.9930   23.3940 C   0  0  0  0  0  0  0  0  0  0  0  0
  -26.4000  -34.9620   22.3670 O   0  0  0  0  0  0  0  0  0  0  0  0
  -24.8570  -33.9870   24.9290 H   0  0  0  0  0  0  0  0  0  0  0  0
  -23.8500  -36.6460   23.0570 C   0  0  0  0  0  1  0  0  0  0  0  0
  -25.1150  -36.3320   23.8700 C   0  0  0  0  0  3  0  0  0  0  0  0
  -27.1710  -37.3670   24.7240 C   0  0  0  0  0  1  0  0  0  0  0  0
  -26.0610  -37.4660   23.7800 N   0  0  0  0  0  0  0  0  0  0  0  0
  -25.5850  -38.3500   23.9390 H   0  0  0  0  0  0  0  0  0  0  0  0
  -26.4520  -31.7840   25.0370 C   0  0  1  0  0  0  0  0  0  0  0  0
  -25.3790  -31.4390   26.0970 C   0  0  0  0  0  1  0  0  0  0  0  0
  -27.1360  -30.4680   24.6060 C   0  0  0  0  0  1  0  0  0  0  0  0
  -27.5360  -32.6500   25.7190 C   0  0  0  0  0  1  0  0  0  0  0  0
  -28.4250  -20.5310   21.2800 C   0  0  0  0  0  2  0  0  0  0  0  0
  -29.1400  -17.4420   19.3600 C   0  0  0  0  0  0  0  0  0  0  0  0
  -28.3190  -18.7030   19.5860 C   0  0  0  0  0  2  0  0  0  0  0  0
  -29.7580  -18.3710   21.4260 C   0  0  0  0  0  2  0  0  0  0  0  0
  -30.2230  -17.2820   20.4240 C   0  0  0  0  0  3  0  0  0  0  0  0
  -29.1440  -19.4310   20.5730 N   0  0  2  0  0  4  0  0  0  0  0  0
  -28.9070  -16.6490   18.4470 O   0  0  0  0  0  0  0  0  0  0  0  0
  -29.9190  -19.8560   20.0830 H   0  0  0  0  0  0  0  0  0  0  0  0
  -31.0500  -14.9130   20.5560 C   0  0  0  0  0  0  0  0  0  0  0  0
  -30.8870  -12.6730   19.5390 C   0  0  0  0  0  2  0  0  0  0  0  0
  -29.9990  -12.7960   18.2790 C   0  0  0  0  0  2  0  0  0  0  0  0
  -28.5040  -12.6700   18.6380 C   0  0  0  0  0  2  0  0  0  0  0  0
  -28.1000  -13.5590   19.8430 C   0  0  0  0  0  3  0  0  0  0  0  0
  -29.1000  -13.3950   21.0110 C   0  0  0  0  0  2  0  0  0  0  0  0
  -30.4470  -13.6950   20.4990 N   0  0  0  0  0  0  0  0  0  0  0  0
  -32.1670  -15.1350   20.0790 O   0  0  0  0  0  0  0  0  0  0  0  0
  -30.2410  -15.9090   20.9750 N   0  0  0  0  0  0  0  0  0  0  0  0
  -29.3760  -15.5930   21.3870 H   0  0  0  0  0  0  0  0  0  0  0  0
  -25.7000  -14.2080   20.4960 C   0  0  0  0  0  0  0  0  0  0  0  0
  -24.6050  -13.4590   20.8230 C   0  0  0  0  0  0  0  0  0  0  0  0
  -25.0330  -12.0960   20.7620 C   0  0  0  0  0  0  0  0  0  0  0  0
  -26.7270  -13.3090   20.2640 N   0  0  0  0  0  0  0  0  0  0  0  0
  -26.3290  -12.0310   20.4800 N   0  0  0  0  0  0  0  0  0  0  0  0
  -24.2710  -10.8490   20.8970 C   0  0  0  0  0  0  0  0  0  0  0  0
  -24.6520   -9.8460   21.8130 C   0  0  0  0  0  3  0  0  0  0  0  0
  -23.8920   -8.6630   21.9380 C   0  0  0  0  0  3  0  0  0  0  0  0
  -22.7370   -8.4730   21.1400 C   0  0  0  0  0  0  0  0  0  0  0  0
  -22.3770   -9.4660   20.2110 C   0  0  0  0  0  3  0  0  0  0  0  0
  -23.1380  -10.6390   20.0850 C   0  0  0  0  0  3  0  0  0  0  0  0
  -21.9540   -7.3450   21.1740 O   0  0  0  0  0  0  0  0  0  0  0  0
  -21.8410   -6.5820   22.3080 C   0  0  0  0  0  0  0  0  0  0  0  0
  -21.3640   -7.1200   23.5230 C   0  0  0  0  0  3  0  0  0  0  0  0
  -21.1950   -6.2850   24.6440 C   0  0  0  0  0  3  0  0  0  0  0  0
  -21.4940   -4.9120   24.5530 C   0  0  0  0  0  0  0  0  0  0  0  0
  -21.9620   -4.3730   23.3420 C   0  0  0  0  0  3  0  0  0  0  0  0
  -22.1320   -5.2050   22.2210 C   0  0  0  0  0  0  0  0  0  0  0  0
  -22.5640   -4.6780   21.0510 F   0  0  0  0  0  0  0  0  0  0  0  0
  -21.3250   -4.1060   25.6280 F   0  0  0  0  0  0  0  0  0  0  0  0
  -23.2140  -13.9630   21.0770 C   0  0  0  0  0  0  0  0  0  0  0  0
  -22.4440  -13.2620   21.8990 N   0  0  0  0  0  0  0  0  0  0  0  0
  -22.8180  -15.0150   20.5720 O   0  0  0  0  0  0  0  0  0  0  0  0
  -22.7770  -12.4120   22.3290 H   0  0  0  0  0  0  0  0  0  0  0  0
  -21.5100  -13.5840   22.1080 H   0  0  0  0  0  0  0  0  0  0  0  0
  -25.8990  -15.5780   20.3490 N   0  0  0  0  0  0  0  0  0  0  0  0
  -25.0780  -16.1710   20.3300 H   0  0  0  0  0  0  0  0  0  0  0  0
  -26.6210  -15.9010   19.7220 H   0  0  0  0  0  0  0  0  0  0  0  0
  1  2  2  0
  2  4  1  0
  2 49  1  0
  4  5  1  0
  4  3  1  0
  6  5  1  0
  7  6  1  0
  8 10  1  0
  8  7  1  0
  9 20  2  0
 10 15  1  0
 11 19  1  0
 11 21  1  0
 12 18  1  0
 12 14  1  0
 13 19  1  0
 14 13  1  0
 15 14  2  0
 16 17  1  0
 16 10  2  0
 17 12  2  0
 18 11  1  0
 19  9  1  0
 21 23  2  0
 22 21  1  0
 24 22  1  0
 25 34  2  0
 25 30  1  0
 26 22  1  0
 26 30  1  0
 27 26  1  0
 28 29  1  0
 28 27  1  0
 29 25  1  0
 30 31  2  0
 31 32  1  0
 33 32  2  0
 34 33  1  0
 35  9  1  0
 35 36  1  0
 35 45  1  0
 36 39  1  0
 37 41  1  0
 37 36  1  0
 38 37  2  0
 41 40  1  0
 43 41  1  0
 43 44  1  0
 43 42  1  0
 45 48  1  1
 45 46  1  0
 47 45  1  0
 50 51  1  0
 50 53  1  0
 51 54  1  0
 53 65  1  0
 53 52  1  0
 54 49  1  0
 54 52  1  0
 55 50  2  0
 54 56  1  6
 57 65  1  0
 58 63  1  0
 59 60  1  0
 59 58  1  0
 61 60  1  0
 61 70  1  0
 61 62  1  0
 63 57  1  0
 63 62  1  0
 64 57  2  0
 65 66  1  0
 67 68  2  0
 68 87  1  0
 69 68  1  0
 69 72  1  0
 70 71  1  0
 70 67  1  0
 71 69  2  0
 72 73  1  0
 73 74  2  0
 75 78  1  0
 75 74  1  0
 76 75  2  0
 77 76  1  0
 77 72  2  0
 78 79  1  0
 79 80  1  0
 80 81  2  0
 82 81  1  0
 82 86  1  0
 83 82  2  0
 84 79  2  0
 84 83  1  0
 85 84  1  0
 87 88  1  0
 88 91  1  0
 88 90  1  0
 89 87  2  0
 92 67  1  0
 93 92  1  0
 94 92  1  0
M  ISO  4   7 101   8 101  57 100  65 100
M  END
>  <TORSDO>  (76) 
F 22

>  <SCORE>  (76) 
-10.056

>  <name>  (76) 
77

>  <ligand_id>  (76) 
77

>  <original_smiles>  (76) 
[H]C([H])=C(C([H])(C([H])([H])[H])C([H])([H])C([H])([H])C([H])([H])Oc1c([H])c([H])c2c(c1[H])C([H])([H])N(C(=O)C([H])(N([H])C(=O)C([H])(N([H])C([H])([H])[H])C([H])([H])[H])C(C([H])([H])[H])(C([H])([H])[H])C([H])([H])[H])C([H])(C(=O)N([H])C1([H])c3c([H])c([H])c([H])c([H])c3C([H])([H])C([H])([H])C1([H])[H])C2([H])[H])C([H])([H])[N+]1([H])C([H])([H])C(=O)C([H])(N([H])C(=O)N2C([H])([H])C([H])([H])C([H])([H])C([H])(n3nc(-c4c([H])c([H])c(Oc5c([H])c([H])c(F)c([H])c5F)c([H])c4[H])c(C(=O)N([H])[H])c3N([H])[H])C2([H])[H])C1([H])[H]

>  <smiles>  (76) 
[H]C([H])=C(C([H])(C([H])([H])[H])C([H])([H])C([H])([H])C([H])([H])Oc1c([H])c([H])c2c(c1[H])C([H])([H])N(C(=O)C([H])(N([H])C(=O)C([H])(N([H])C([H])([H])[H])C([H])([H])[H])C(C([H])([H])[H])(C([H])([H])[H])C([H])([H])[H])C([H])(C(=O)N([H])C1([H])c3c([H])c([H])c([H])c([H])c3C([H])([H])C([H])([H])C1([H])[H])C2([H])[H])C([H])([H])[N+]1([H])C([H])([H])C(=O)C([H])(N([H])C(=O)N2C([H])([H])C([H])([H])C([H])([H])C([H])(n3nc(-c4c([H])c([H])c(Oc5c([H])c([H])c(F)c([H])c5F)c([H])c4[H])c(C(=O)N([H])[H])c3N([H])[H])C2([H])[H])C1([H])[H]

$$$$
78:0:0
     RDKit          3D

 91 97  0  0  1  0  0  0  0  0999 V2000
  -27.2380  -20.5890   19.5220 C   0  0  0  0  0  0  0  0  0  0  0  0
  -26.3580  -20.7030   18.4840 C   0  0  0  0  0  3  0  0  0  0  0  0
  -26.2680  -21.9330   17.6000 C   0  0  0  0  0  1  0  0  0  0  0  0
  -25.3380  -19.6560   18.0690 C   0  0  0  0  0  1  0  0  0  0  0  0
  -27.5070  -18.9310   20.0160 C   0  0  0  0  0  0  0  0  0  0  0  0
  -28.0560  -18.7800   21.1140 O   0  0  0  0  0  0  0  0  0  0  0  0
  -27.2130  -17.3400   19.2350 C   0  0  0  0  0  2  0  0  0  0  0  0
  -25.8000  -15.2460   19.2120 C   0  0  0  0  0  2  0  0  0  0  0  0
  -26.0320  -13.8260   19.4790 C   0  0  0  0  0  1  0  0  0  0  0  0
  -27.2900  -15.5250   19.5420 C   0  0  0  0  0  0  0  0  0  0  0  0
  -30.0310  -14.9230   20.6290 C   0  0  0  0  0  0  0  0  0  0  0  0
  -30.9690  -12.6650   19.9710 C   0  0  0  0  0  2  0  0  0  0  0  0
  -30.0540  -12.3090   18.7760 C   0  0  0  0  0  2  0  0  0  0  0  0
  -28.6850  -11.8550   19.3080 C   0  0  0  0  0  2  0  0  0  0  0  0
  -28.3190  -12.7950   20.5020 C   0  0  0  0  0  3  0  0  0  0  0  0
  -29.2630  -12.9250   21.6070 C   0  0  0  0  0  2  0  0  0  0  0  0
  -30.2270  -13.5970   20.8580 N   0  0  0  0  0  0  0  0  0  0  0  0
  -31.1450  -15.4930   20.5570 O   0  0  0  0  0  0  0  0  0  0  0  0
  -28.6320  -15.4870   20.5690 N   0  0  0  0  0  4  0  0  0  0  0  0
  -28.7300  -16.4220   20.9400 H   0  0  0  0  0  0  0  0  0  0  0  0
  -25.6650  -14.1340   21.6390 C   0  0  0  0  0  2  0  0  0  0  0  0
  -24.2490  -13.3680   20.9730 C   0  0  0  0  0  3  0  0  0  0  0  0
  -24.6610  -11.8150   20.2460 C   0  0  0  0  0  3  0  0  0  0  0  0
  -27.1190  -12.8640   21.1240 N   0  0  0  0  0  2  0  0  0  0  0  0
  -26.2890  -11.5760   20.2650 N   0  0  0  0  0  2  0  0  0  0  0  0
  -24.0450  -10.4950   20.8040 C   0  0  0  0  0  0  0  0  0  0  0  0
  -24.5070   -9.6880   21.9230 C   0  0  0  0  0  3  0  0  0  0  0  0
  -23.8790   -8.4500   22.2990 C   0  0  0  0  0  3  0  0  0  0  0  0
  -22.7520   -7.9890   21.5760 C   0  0  0  0  0  0  0  0  0  0  0  0
  -22.2800   -8.8000   20.5330 C   0  0  0  0  0  3  0  0  0  0  0  0
  -22.8960  -10.0140   20.1710 C   0  0  0  0  0  3  0  0  0  0  0  0
  -22.1080   -6.7710   21.7090 O   0  0  0  0  0  0  0  0  0  0  0  0
  -21.9820   -6.0690   22.8850 C   0  0  0  0  0  0  0  0  0  0  0  0
  -21.4270   -6.6440   24.0490 C   0  0  0  0  0  3  0  0  0  0  0  0
  -21.2410   -5.8600   25.2070 C   0  0  0  0  0  3  0  0  0  0  0  0
  -21.5950   -4.4980   25.2050 C   0  0  0  0  0  0  0  0  0  0  0  0
  -22.1250   -3.9130   24.0410 C   0  0  0  0  0  3  0  0  0  0  0  0
  -22.3080   -4.6930   22.8840 C   0  0  0  0  0  0  0  0  0  0  0  0
  -22.7880   -4.1100   21.7590 F   0  0  0  0  0  0  0  0  0  0  0  0
  -21.4220   -3.7460   26.3180 F   0  0  0  0  0  0  0  0  0  0  0  0
  -22.8250  -13.6760   21.1380 C   0  0  0  0  0  0  0  0  0  0  0  0
  -22.1270  -12.8530   21.9180 N   0  0  0  0  0  0  0  0  0  0  0  0
  -22.3210  -14.5770   20.4900 O   0  0  0  0  0  0  0  0  0  0  0  0
  -22.5710  -12.0940   22.4170 H   0  0  0  0  0  0  0  0  0  0  0  0
  -21.1320  -12.9830   22.0110 H   0  0  0  0  0  0  0  0  0  0  0  0
  -25.8300  -15.4640   21.8940 N   0  0  0  0  0  0  0  0  0  0  0  0
  -25.0740  -16.1340   21.9440 H   0  0  0  0  0  0  0  0  0  0  0  0
  -26.7500  -15.8860   21.8660 H   0  0  0  0  0  0  0  0  0  0  0  0
  -27.8920  -22.1510   20.1050 C   0  0  0  0  0  3  0  0  0  0  0  0
  -27.4380  -23.9530   19.8500 C   0  0  0  0  0  2  0  0  0  0  0  0
  -27.9750  -25.5390   20.0710 O   0  0  0  0  0  0  0  0  0  0  0  0
  -24.7260  -31.7660   23.0410 C   0  0  0  0  0  0  0  0  0  0  0  0
  -27.1210  -26.7700   19.9850 C   0  0  0  0  0  0  0  0  0  0  0  0
  -23.5230  -30.3720   21.4280 C   0  0  0  0  0  3  0  0  0  0  0  0
  -24.9360  -28.7770   19.9610 C   0  0  0  0  0  0  0  0  0  0  0  0
  -26.0980  -30.5180   21.2840 C   0  0  0  0  0  2  0  0  0  0  0  0
  -26.1370  -29.1130   20.6060 C   0  0  0  0  0  0  0  0  0  0  0  0
  -27.2280  -28.1220   20.6060 C   0  0  0  0  0  3  0  0  0  0  0  0
  -25.9260  -26.6330   19.2570 C   0  0  0  0  0  3  0  0  0  0  0  0
  -24.8660  -27.5680   19.2630 C   0  0  0  0  0  3  0  0  0  0  0  0
  -23.7390  -29.7270   20.0340 C   0  0  0  0  0  2  0  0  0  0  0  0
  -24.8090  -30.9120   21.9720 N   0  0  0  0  0  0  0  0  0  0  0  0
  -23.6350  -32.0630   23.5540 O   0  0  0  0  0  0  0  0  0  0  0  0
  -22.8430  -29.3590   22.3840 C   0  0  0  0  0  0  0  0  0  0  0  0
  -21.5090  -29.2060   22.2880 N   0  0  0  0  0  0  0  0  0  0  0  0
  -23.5230  -28.7200   23.1930 O   0  0  0  0  0  0  0  0  0  0  0  0
  -21.0120  -29.7780   21.6190 H   0  0  0  0  0  0  0  0  0  0  0  0
  -18.1270  -28.0430   22.8820 C   0  0  0  0  0  0  0  0  0  0  0  0
  -20.6950  -28.2720   23.0760 C   0  0  0  0  0  3  0  0  0  0  0  0
  -20.7620  -26.8440   22.4860 C   0  0  0  0  0  2  0  0  0  0  0  0
  -19.6260  -26.5450   21.5010 C   0  0  0  0  0  2  0  0  0  0  0  0
  -18.2660  -26.7000   22.1860 C   0  0  0  0  0  2  0  0  0  0  0  0
  -19.2670  -28.7870   23.2850 C   0  0  0  0  0  0  0  0  0  0  0  0
  -19.0790  -30.0430   23.9010 C   0  0  0  0  0  3  0  0  0  0  0  0
  -17.7830  -30.5560   24.1150 C   0  0  0  0  0  3  0  0  0  0  0  0
  -16.6590  -29.8070   23.7260 C   0  0  0  0  0  3  0  0  0  0  0  0
  -16.8330  -28.5520   23.1150 C   0  0  0  0  0  3  0  0  0  0  0  0
  -25.9920  -32.4260   23.6630 C   0  0  0  0  0  3  0  0  0  0  0  0
  -25.6500  -33.8150   24.0260 N   0  0  0  0  0  0  0  0  0  0  0  0
  -25.9740  -34.8990   23.3100 C   0  0  0  0  0  0  0  0  0  0  0  0
  -26.6540  -34.8370   22.2840 O   0  0  0  0  0  0  0  0  0  0  0  0
  -25.0520  -33.9370   24.8300 H   0  0  0  0  0  0  0  0  0  0  0  0
  -24.2330  -36.6900   22.9820 C   0  0  0  0  0  1  0  0  0  0  0  0
  -25.4630  -36.2700   23.8040 C   0  0  0  0  0  3  0  0  0  0  0  0
  -27.5780  -37.1400   24.7010 C   0  0  0  0  0  1  0  0  0  0  0  0
  -26.4860  -37.3390   23.7520 N   0  0  0  0  0  0  0  0  0  0  0  0
  -26.0710  -38.2500   23.9350 H   0  0  0  0  0  0  0  0  0  0  0  0
  -26.5280  -31.6550   24.9330 C   0  0  1  0  0  0  0  0  0  0  0  0
  -25.4490  -31.3880   26.0110 C   0  0  0  0  0  1  0  0  0  0  0  0
  -27.1320  -30.2890   24.5370 C   0  0  0  0  0  1  0  0  0  0  0  0
  -27.6730  -32.4610   25.5900 C   0  0  0  0  0  1  0  0  0  0  0  0
  1  5  1  0
  1 49  2  0
  2  1  1  0
  3  2  1  0
  4  2  1  0
  5  6  2  0
  7 10  1  0
  7  5  1  0
  8  9  1  0
  8 10  1  0
 10 19  2  3
 11 17  1  0
 12 17  1  0
 13 14  1  0
 13 12  1  0
 14 15  1  0
 15 24  1  0
 15 16  1  0
 17 16  1  0
 18 11  2  0
 19 11  1  0
 19 20  1  0
 21 46  1  0
 22 41  1  0
 22 21  1  0
 23 25  1  0
 23 26  1  0
 23 22  1  0
 25 24  1  0
 26 27  1  0
 27 28  2  0
 29 32  1  0
 29 28  1  0
 30 29  2  0
 31 30  1  0
 31 26  2  0
 32 33  1  0
 33 34  1  0
 34 35  2  0
 36 35  1  0
 36 40  1  0
 37 36  2  0
 38 33  2  0
 38 37  1  0
 39 38  1  0
 41 42  1  0
 42 45  1  0
 42 44  1  0
 43 41  2  0
 46 47  1  0
 48 46  1  0
 50 51  1  0
 50 49  1  0
 52 63  2  0
 53 51  1  0
 53 58  1  0
 54 62  1  0
 54 64  1  0
 55 61  1  0
 55 57  1  0
 56 62  1  0
 57 58  2  0
 57 56  1  0
 59 60  1  0
 59 53  2  0
 60 55  2  0
 61 54  1  0
 62 52  1  0
 64 66  2  0
 65 64  1  0
 67 65  1  0
 68 77  2  0
 68 73  1  0
 69 65  1  0
 69 73  1  0
 70 69  1  0
 71 72  1  0
 71 70  1  0
 72 68  1  0
 73 74  2  0
 74 75  1  0
 76 75  2  0
 77 76  1  0
 78 52  1  0
 78 79  1  0
 78 88  1  0
 79 82  1  0
 80 84  1  0
 80 79  1  0
 81 80  2  0
 84 83  1  0
 86 84  1  0
 86 87  1  0
 86 85  1  0
 88 91  1  1
 88 89  1  0
 90 88  1  0
M  ISO  4  11 100  19 100  50 101  51 101
M  END
>  <TORSDO>  (77) 
F 21

>  <SCORE>  (77) 
-12.659

>  <name>  (77) 
78

>  <ligand_id>  (77) 
78

>  <original_smiles>  (77) 
[H]c1c([H])c([H])c2c(c1[H])C([H])([H])C([H])([H])C([H])([H])C2([H])N([H])C(=O)C1([H])N(C(=O)C([H])(N([H])C(=O)C([H])(N([H])C([H])([H])[H])C([H])([H])[H])C(C([H])([H])[H])(C([H])([H])[H])C([H])([H])[H])C([H])([H])c2c([H])c(OC([H])([H])C([H])([H])C(C(=O)C([H])([H])C3(N([H])C(=O)N4C([H])([H])C([H])([H])C([H])([H])C([H])(n5nc(-c6c([H])c([H])c(Oc7c([H])c([H])c(F)c([H])c7F)c([H])c6[H])c(C(=O)N([H])[H])c5N([H])[H])C4([H])[H])C([H])([H])C3([H])[H])=C(C([H])([H])[H])C([H])([H])[H])c([H])c([H])c2C1([H])[H]

>  <smiles>  (77) 
[H]c1c([H])c([H])c2c(c1[H])C([H])([H])C([H])([H])C([H])([H])C2([H])N([H])C(=O)C1([H])N(C(=O)C([H])(N([H])C(=O)C([H])(N([H])C([H])([H])[H])C([H])([H])[H])C(C([H])([H])[H])(C([H])([H])[H])C([H])([H])[H])C([H])([H])c2c([H])c(OC([H])([H])C([H])([H])C(C(=O)C([H])([H])C3(N([H])C(=O)N4C([H])([H])C([H])([H])C([H])([H])C([H])(n5nc(-c6c([H])c([H])c(Oc7c([H])c([H])c(F)c([H])c7F)c([H])c6[H])c(C(=O)N([H])[H])c5N([H])[H])C4([H])[H])C([H])([H])C3([H])[H])=C(C([H])([H])[H])C([H])([H])[H])c([H])c([H])c2C1([H])[H]

$$$$
79:0:0
     RDKit          3D

 90 99  0  0  1  0  0  0  0  0999 V2000
  -29.0580  -22.5190   20.3970 C   0  0  0  0  0  0  0  0  0  0  0  0
  -28.5920  -23.8150   20.5930 C   0  0  0  0  0  3  0  0  0  0  0  0
  -29.1360  -21.2780   21.2900 C   0  0  0  0  0  2  0  0  0  0  0  0
  -29.6760  -21.6580   19.2890 C   0  0  0  0  0  2  0  0  0  0  0  0
  -29.3240  -20.4220   20.0780 N   0  0  1  0  0  4  0  0  0  0  0  0
  -28.4160  -20.0930   19.7860 H   0  0  0  0  0  0  0  0  0  0  0  0
  -30.2720  -17.0630   20.2650 C   0  0  0  0  0  3  0  0  0  0  0  0
  -30.0090  -18.1420   21.2240 C   0  0  0  0  0  0  0  0  0  0  0  0
  -30.2450  -18.0620   19.0700 C   0  0  0  0  0  2  0  0  0  0  0  0
  -30.3240  -19.2480   20.1470 C   0  0  0  0  0  3  0  0  0  0  0  0
  -30.0760  -15.8060   20.4490 N   0  0  0  0  0  2  0  0  0  0  0  0
  -29.6420  -18.1100   22.4030 O   0  0  0  0  0  0  0  0  0  0  0  0
  -30.8630  -14.7260   19.9480 C   0  0  0  0  0  0  0  0  0  0  0  0
  -30.5500  -12.5180   18.8180 C   0  0  0  0  0  2  0  0  0  0  0  0
  -29.5200  -12.6990   17.6790 C   0  0  0  0  0  2  0  0  0  0  0  0
  -28.0790  -12.5410   18.2050 C   0  0  0  0  0  2  0  0  0  0  0  0
  -27.8280  -13.3600   19.4980 C   0  0  0  0  0  3  0  0  0  0  0  0
  -28.9600  -13.1430   20.5240 C   0  0  0  0  0  2  0  0  0  0  0  0
  -30.2330  -13.5010   19.8760 N   0  0  0  0  0  0  0  0  0  0  0  0
  -31.9940  -14.8510   19.4750 O   0  0  0  0  0  0  0  0  0  0  0  0
  -25.5160  -13.9800   20.4290 C   0  0  0  0  0  0  0  0  0  0  0  0
  -24.4620  -13.2150   20.8510 C   0  0  0  0  0  0  0  0  0  0  0  0
  -24.8830  -11.8560   20.7240 C   0  0  0  0  0  0  0  0  0  0  0  0
  -26.5140  -13.0850   20.0730 N   0  0  0  0  0  0  0  0  0  0  0  0
  -26.1440  -11.7990   20.3130 N   0  0  0  0  0  0  0  0  0  0  0  0
  -24.1390  -10.6040   20.9160 C   0  0  0  0  0  0  0  0  0  0  0  0
  -24.5550   -9.6370   21.8570 C   0  0  0  0  0  3  0  0  0  0  0  0
  -23.8130   -8.4500   22.0380 C   0  0  0  0  0  3  0  0  0  0  0  0
  -22.6440   -8.2210   21.2740 C   0  0  0  0  0  0  0  0  0  0  0  0
  -22.2470   -9.1780   20.3230 C   0  0  0  0  0  3  0  0  0  0  0  0
  -22.9880  -10.3570   20.1420 C   0  0  0  0  0  3  0  0  0  0  0  0
  -21.8760   -7.0850   21.3620 O   0  0  0  0  0  0  0  0  0  0  0  0
  -21.7120   -6.4160   22.5480 C   0  0  0  0  0  0  0  0  0  0  0  0
  -21.1560   -7.0400   23.6860 C   0  0  0  0  0  3  0  0  0  0  0  0
  -20.9420   -6.2950   24.8630 C   0  0  0  0  0  3  0  0  0  0  0  0
  -21.2730   -4.9280   24.9040 C   0  0  0  0  0  0  0  0  0  0  0  0
  -21.8230   -4.3040   23.7690 C   0  0  0  0  0  3  0  0  0  0  0  0
  -22.0390   -5.0450   22.5950 C   0  0  0  0  0  0  0  0  0  0  0  0
  -22.5480   -4.4330   21.4990 F   0  0  0  0  0  0  0  0  0  0  0  0
  -21.0600   -4.2110   26.0310 F   0  0  0  0  0  0  0  0  0  0  0  0
  -23.1030  -13.7120   21.2520 C   0  0  0  0  0  0  0  0  0  0  0  0
  -22.4350  -13.0080   22.1580 N   0  0  0  0  0  0  0  0  0  0  0  0
  -22.6470  -14.7610   20.8000 O   0  0  0  0  0  0  0  0  0  0  0  0
  -22.8250  -12.1660   22.5540 H   0  0  0  0  0  0  0  0  0  0  0  0
  -21.5270  -13.3220   22.4690 H   0  0  0  0  0  0  0  0  0  0  0  0
  -25.7050  -15.3520   20.2980 N   0  0  0  0  0  0  0  0  0  0  0  0
  -24.9720  -16.0230   20.4960 H   0  0  0  0  0  0  0  0  0  0  0  0
  -26.5410  -15.7740   19.9130 H   0  0  0  0  0  0  0  0  0  0  0  0
  -28.5210  -25.0830   19.6570 C   0  0  0  0  0  2  0  0  0  0  0  0
  -28.3910  -26.4350   20.2830 O   0  0  0  0  0  0  0  0  0  0  0  0
  -24.6170  -31.8650   23.2110 C   0  0  0  0  0  0  0  0  0  0  0  0
  -27.2420  -27.2490   20.2090 C   0  0  0  0  0  0  0  0  0  0  0  0
  -23.4140  -30.4400   21.5920 C   0  0  0  0  0  3  0  0  0  0  0  0
  -24.8650  -28.8670   20.1850 C   0  0  0  0  0  0  0  0  0  0  0  0
  -25.9550  -30.7510   21.4070 C   0  0  0  0  0  2  0  0  0  0  0  0
  -26.0340  -29.3640   20.7730 C   0  0  0  0  0  0  0  0  0  0  0  0
  -27.2190  -28.5670   20.7740 C   0  0  0  0  0  3  0  0  0  0  0  0
  -26.0430  -26.8040   19.6050 C   0  0  0  0  0  3  0  0  0  0  0  0
  -24.8740  -27.5930   19.5950 C   0  0  0  0  0  3  0  0  0  0  0  0
  -23.6250  -29.7380   20.2240 C   0  0  0  0  0  2  0  0  0  0  0  0
  -24.6810  -31.0400   22.1250 N   0  0  0  0  0  0  0  0  0  0  0  0
  -23.5340  -32.1530   23.7410 O   0  0  0  0  0  0  0  0  0  0  0  0
  -22.7500  -29.4420   22.5700 C   0  0  0  0  0  0  0  0  0  0  0  0
  -21.4320  -29.2270   22.4150 N   0  0  0  0  0  0  0  0  0  0  0  0
  -23.4210  -28.8610   23.4250 O   0  0  0  0  0  0  0  0  0  0  0  0
  -20.9510  -29.7440   21.6920 H   0  0  0  0  0  0  0  0  0  0  0  0
  -18.0820  -27.9230   22.8270 C   0  0  0  0  0  0  0  0  0  0  0  0
  -20.6150  -28.2940   23.1930 C   0  0  0  0  0  3  0  0  0  0  0  0
  -20.7970  -26.8440   22.6900 C   0  0  0  0  0  2  0  0  0  0  0  0
  -19.7540  -26.4330   21.6460 C   0  0  0  0  0  2  0  0  0  0  0  0
  -18.3390  -26.5540   22.2210 C   0  0  0  0  0  2  0  0  0  0  0  0
  -19.1520  -28.7460   23.2680 C   0  0  0  0  0  0  0  0  0  0  0  0
  -18.8600  -30.0250   23.7910 C   0  0  0  0  0  3  0  0  0  0  0  0
  -17.5320  -30.4810   23.8790 C   0  0  0  0  0  3  0  0  0  0  0  0
  -16.4760  -29.6540   23.4560 C   0  0  0  0  0  3  0  0  0  0  0  0
  -16.7530  -28.3780   22.9360 C   0  0  0  0  0  3  0  0  0  0  0  0
  -25.9010  -32.5030   23.8250 C   0  0  0  0  0  3  0  0  0  0  0  0
  -25.5880  -33.9010   24.1530 N   0  0  0  0  0  0  0  0  0  0  0  0
  -25.9020  -34.9540   23.3860 C   0  0  0  0  0  0  0  0  0  0  0  0
  -26.5580  -34.8510   22.3460 O   0  0  0  0  0  0  0  0  0  0  0  0
  -25.0020  -34.0560   24.9600 H   0  0  0  0  0  0  0  0  0  0  0  0
  -24.1600  -36.7380   23.0530 C   0  0  0  0  0  1  0  0  0  0  0  0
  -25.4140  -36.3420   23.8470 C   0  0  0  0  0  3  0  0  0  0  0  0
  -27.5550  -37.2410   24.6440 C   0  0  0  0  0  1  0  0  0  0  0  0
  -26.4400  -37.4000   23.7170 N   0  0  0  0  0  0  0  0  0  0  0  0
  -26.0320  -38.3180   23.8670 H   0  0  0  0  0  0  0  0  0  0  0  0
  -26.4270  -31.7390   25.1040 C   0  0  1  0  0  0  0  0  0  0  0  0
  -25.3360  -31.5040   26.1770 C   0  0  0  0  0  1  0  0  0  0  0  0
  -27.0130  -30.3590   24.7220 C   0  0  0  0  0  1  0  0  0  0  0  0
  -27.5760  -32.5430   25.7560 C   0  0  0  0  0  1  0  0  0  0  0  0
  1  2  2  0
  1  3  1  0
  4  5  1  0
  4  1  1  0
  5  6  1  6
  5 10  1  0
  5  3  1  0
  7 11  1  0
  7  8  1  0
  8 12  2  0
  9  7  1  0
 10  9  1  0
 10  8  1  0
 13 11  1  0
 14 19  1  0
 15 16  1  0
 15 14  1  0
 17 16  1  0
 17 24  1  0
 17 18  1  0
 19 13  1  0
 19 18  1  0
 20 13  2  0
 21 22  2  0
 22 41  1  0
 23 22  1  0
 23 26  1  0
 24 25  1  0
 24 21  1  0
 25 23  2  0
 26 27  1  0
 27 28  2  0
 29 32  1  0
 29 28  1  0
 30 29  2  0
 31 30  1  0
 31 26  2  0
 32 33  1  0
 33 38  2  0
 33 34  1  0
 34 35  2  0
 35 36  1  0
 36 40  1  0
 37 36  2  0
 38 37  1  0
 39 38  1  0
 41 42  1  0
 42 45  1  0
 42 44  1  0
 43 41  2  0
 46 21  1  0
 46 47  1  0
 48 46  1  0
 49 50  1  0
 49  2  1  0
 51 62  2  0
 52 50  1  0
 52 57  1  0
 53 61  1  0
 53 63  1  0
 54 60  1  0
 54 56  1  0
 55 61  1  0
 56 57  2  0
 56 55  1  0
 58 52  2  0
 59 58  1  0
 59 54  2  0
 60 53  1  0
 61 51  1  0
 63 65  2  0
 64 63  1  0
 66 64  1  0
 67 76  2  0
 67 72  1  0
 68 64  1  0
 68 72  1  0
 69 68  1  0
 70 71  1  0
 70 69  1  0
 71 67  1  0
 72 73  2  0
 73 74  1  0
 75 74  2  0
 76 75  1  0
 77 51  1  0
 77 78  1  0
 77 87  1  0
 78 81  1  0
 79 83  1  0
 79 78  1  0
 80 79  2  0
 83 82  1  0
 85 83  1  0
 85 86  1  0
 85 84  1  0
 87 90  1  1
 87 88  1  0
 89 87  1  0
M  ISO  4  11 100  13 100  49 101  50 101
M  END
>  <TORSDO>  (78) 
F 18

>  <SCORE>  (78) 
-13.360

>  <name>  (78) 
79

>  <ligand_id>  (78) 
79

>  <original_smiles>  (78) 
[H]C(=C1C([H])([H])[N+]([H])(C2([H])C(=O)C(=NC(=O)N3C([H])([H])C([H])([H])C([H])([H])C([H])(n4nc(-c5c([H])c([H])c(Oc6c([H])c([H])c(F)c([H])c6F)c([H])c5[H])c(C(=O)N([H])[H])c4N([H])[H])C3([H])[H])C2([H])[H])C1([H])[H])C([H])([H])Oc1c([H])c([H])c2c(c1[H])C([H])([H])N(C(=O)C([H])(N([H])C(=O)C([H])(N([H])C([H])([H])[H])C([H])([H])[H])C(C([H])([H])[H])(C([H])([H])[H])C([H])([H])[H])C([H])(C(=O)N([H])C1([H])c3c([H])c([H])c([H])c([H])c3C([H])([H])C([H])([H])C1([H])[H])C2([H])[H]

>  <smiles>  (78) 
[H]C(=C1C([H])([H])[N+]([H])(C2([H])C(=O)C(=NC(=O)N3C([H])([H])C([H])([H])C([H])([H])C([H])(n4nc(-c5c([H])c([H])c(Oc6c([H])c([H])c(F)c([H])c6F)c([H])c5[H])c(C(=O)N([H])[H])c4N([H])[H])C3([H])[H])C2([H])[H])C1([H])[H])C([H])([H])Oc1c([H])c([H])c2c(c1[H])C([H])([H])N(C(=O)C([H])(N([H])C(=O)C([H])(N([H])C([H])([H])[H])C([H])([H])[H])C(C([H])([H])[H])(C([H])([H])[H])C([H])([H])[H])C([H])(C(=O)N([H])C1([H])c3c([H])c([H])c([H])c([H])c3C([H])([H])C([H])([H])C1([H])[H])C2([H])[H]

$$$$
80:0:0
     RDKit          3D

 89 97  0  0  1  0  0  0  0  0999 V2000
  -29.3800  -20.8160   19.7470 C   0  0  0  0  0  0  0  0  0  0  0  0
  -29.8760  -21.9890   19.0780 C   0  0  0  0  0  0  0  0  0  0  0  0
  -29.7680  -19.5110   19.6110 C   0  0  0  0  0  3  0  0  0  0  0  0
  -28.3420  -21.6650   20.4510 C   0  0  0  0  0  2  0  0  0  0  0  0
  -28.9040  -22.8090   19.6450 N   0  0  0  0  0  0  0  0  0  0  0  0
  -30.7760  -22.1220   18.2770 O   0  0  0  0  0  0  0  0  0  0  0  0
  -29.2280  -18.1990   20.2370 C   0  0  0  0  0  2  0  0  0  0  0  0
  -30.3270  -17.0800   20.4050 C   0  0  0  0  0  2  0  0  0  0  0  0
  -30.6290  -14.5680   20.4060 C   0  0  0  0  0  0  0  0  0  0  0  0
  -30.3510  -12.3630   19.3370 C   0  0  0  0  0  2  0  0  0  0  0  0
  -29.4060  -12.5410   18.1330 C   0  0  0  0  0  2  0  0  0  0  0  0
  -27.9350  -12.3960   18.5680 C   0  0  0  0  0  2  0  0  0  0  0  0
  -27.5970  -13.2430   19.8230 C   0  0  0  0  0  3  0  0  0  0  0  0
  -28.6620  -13.0660   20.9290 C   0  0  0  0  0  2  0  0  0  0  0  0
  -29.9710  -13.3730   20.3360 N   0  0  0  0  0  0  0  0  0  0  0  0
  -31.8040  -14.6850   20.0500 O   0  0  0  0  0  0  0  0  0  0  0  0
  -29.8720  -15.6750   20.6360 N   0  0  0  0  0  0  0  0  0  0  0  0
  -28.9030  -15.5220   20.8710 H   0  0  0  0  0  0  0  0  0  0  0  0
  -25.2090  -13.8510   20.5510 C   0  0  0  0  0  0  0  0  0  0  0  0
  -24.1410  -13.0830   20.9290 C   0  0  0  0  0  0  0  0  0  0  0  0
  -24.5960  -11.7300   20.8940 C   0  0  0  0  0  0  0  0  0  0  0  0
  -26.2480  -12.9670   20.3130 N   0  0  0  0  0  0  0  0  0  0  0  0
  -25.8850  -11.6870   20.5800 N   0  0  0  0  0  0  0  0  0  0  0  0
  -23.8650  -10.4700   21.0840 C   0  0  0  0  0  0  0  0  0  0  0  0
  -24.3120   -9.4900   21.9960 C   0  0  0  0  0  3  0  0  0  0  0  0
  -23.5850   -8.2950   22.1790 C   0  0  0  0  0  3  0  0  0  0  0  0
  -22.3970   -8.0690   21.4420 C   0  0  0  0  0  0  0  0  0  0  0  0
  -21.9680   -9.0380   20.5180 C   0  0  0  0  0  3  0  0  0  0  0  0
  -22.6960  -10.2260   20.3360 C   0  0  0  0  0  3  0  0  0  0  0  0
  -21.6390   -6.9280   21.5320 O   0  0  0  0  0  0  0  0  0  0  0  0
  -21.6220   -6.1640   22.6720 C   0  0  0  0  0  0  0  0  0  0  0  0
  -21.2500   -6.7020   23.9230 C   0  0  0  0  0  3  0  0  0  0  0  0
  -21.1800   -5.8650   25.0550 C   0  0  0  0  0  3  0  0  0  0  0  0
  -21.4700   -4.4920   24.9370 C   0  0  0  0  0  0  0  0  0  0  0  0
  -21.8320   -3.9540   23.6900 C   0  0  0  0  0  3  0  0  0  0  0  0
  -21.9060   -4.7870   22.5600 C   0  0  0  0  0  0  0  0  0  0  0  0
  -22.2360   -4.2600   21.3570 F   0  0  0  0  0  0  0  0  0  0  0  0
  -21.3920   -3.6880   26.0210 F   0  0  0  0  0  0  0  0  0  0  0  0
  -22.7470  -13.5660   21.2050 C   0  0  0  0  0  0  0  0  0  0  0  0
  -22.0190  -12.8740   22.0750 N   0  0  0  0  0  0  0  0  0  0  0  0
  -22.3070  -14.5910   20.6850 O   0  0  0  0  0  0  0  0  0  0  0  0
  -22.3910  -12.0510   22.5250 H   0  0  0  0  0  0  0  0  0  0  0  0
  -21.0800  -13.1780   22.2930 H   0  0  0  0  0  0  0  0  0  0  0  0
  -25.3810  -15.2200   20.3700 N   0  0  0  0  0  0  0  0  0  0  0  0
  -24.6150  -15.8750   20.4840 H   0  0  0  0  0  0  0  0  0  0  0  0
  -26.2180  -15.6520   20.0020 H   0  0  0  0  0  0  0  0  0  0  0  0
  -28.5310  -24.2160   19.3050 C   0  0  0  0  0  3  0  0  0  0  0  0
  -28.4270  -25.2450   20.4820 C   0  0  0  0  0  3  0  0  0  0  0  0
  -28.4260  -26.6540   20.1070 O   0  0  0  0  0  0  0  0  0  0  0  0
  -24.6290  -31.8840   23.2300 C   0  0  0  0  0  0  0  0  0  0  0  0
  -27.2450  -27.3830   20.1480 C   0  0  0  0  0  0  0  0  0  0  0  0
  -23.4090  -30.4740   21.6050 C   0  0  0  0  0  3  0  0  0  0  0  0
  -24.8480  -28.9190   20.1790 C   0  0  0  0  0  0  0  0  0  0  0  0
  -25.9370  -30.8180   21.3850 C   0  0  0  0  0  2  0  0  0  0  0  0
  -26.0160  -29.4400   20.7480 C   0  0  0  0  0  0  0  0  0  0  0  0
  -27.2160  -28.6830   20.7210 C   0  0  0  0  0  3  0  0  0  0  0  0
  -26.0540  -26.8810   19.5830 C   0  0  0  0  0  3  0  0  0  0  0  0
  -24.8640  -27.6380   19.5980 C   0  0  0  0  0  3  0  0  0  0  0  0
  -23.6070  -29.7830   20.2290 C   0  0  0  0  0  2  0  0  0  0  0  0
  -24.6780  -31.0750   22.1320 N   0  0  0  0  0  0  0  0  0  0  0  0
  -23.5510  -32.1610   23.7750 O   0  0  0  0  0  0  0  0  0  0  0  0
  -22.7620  -29.4600   22.5760 C   0  0  0  0  0  0  0  0  0  0  0  0
  -21.4350  -29.2780   22.4580 N   0  0  0  0  0  0  0  0  0  0  0  0
  -23.4470  -28.8400   23.3920 O   0  0  0  0  0  0  0  0  0  0  0  0
  -20.9380  -29.8280   21.7720 H   0  0  0  0  0  0  0  0  0  0  0  0
  -18.0690  -28.0630   22.9700 C   0  0  0  0  0  0  0  0  0  0  0  0
  -20.6240  -28.3430   23.2390 C   0  0  0  0  0  3  0  0  0  0  0  0
  -20.7380  -26.9060   22.6790 C   0  0  0  0  0  2  0  0  0  0  0  0
  -19.6390  -26.5650   21.6680 C   0  0  0  0  0  2  0  0  0  0  0  0
  -18.2560  -26.7070   22.3100 C   0  0  0  0  0  2  0  0  0  0  0  0
  -19.1820  -28.8360   23.3910 C   0  0  0  0  0  0  0  0  0  0  0  0
  -18.9540  -30.1040   23.9710 C   0  0  0  0  0  3  0  0  0  0  0  0
  -17.6470  -30.5990   24.1290 C   0  0  0  0  0  3  0  0  0  0  0  0
  -16.5480  -29.8220   23.7260 C   0  0  0  0  0  3  0  0  0  0  0  0
  -16.7600  -28.5550   23.1520 C   0  0  0  0  0  3  0  0  0  0  0  0
  -25.9200  -32.5210   23.8350 C   0  0  0  0  0  3  0  0  0  0  0  0
  -26.4590  -31.7470   25.1010 C   0  0  1  0  0  0  0  0  0  0  0  0
  -25.3850  -31.5060   26.1870 C   0  0  0  0  0  1  0  0  0  0  0  0
  -27.0370  -30.3720   24.6970 C   0  0  0  0  0  1  0  0  0  0  0  0
  -27.6170  -32.5430   25.7480 C   0  0  0  0  0  1  0  0  0  0  0  0
  -25.6100  -33.9170   24.1720 N   0  0  0  0  0  0  0  0  0  0  0  0
  -25.9290  -34.9720   23.4110 C   0  0  0  0  0  0  0  0  0  0  0  0
  -26.5830  -34.8740   22.3700 O   0  0  0  0  0  0  0  0  0  0  0  0
  -25.0300  -34.0720   24.9840 H   0  0  0  0  0  0  0  0  0  0  0  0
  -24.1860  -36.7580   23.0910 C   0  0  0  0  0  1  0  0  0  0  0  0
  -25.4440  -36.3580   23.8790 C   0  0  0  0  0  3  0  0  0  0  0  0
  -27.5900  -37.2490   24.6730 C   0  0  0  0  0  1  0  0  0  0  0  0
  -26.4710  -37.4150   23.7500 N   0  0  0  0  0  0  0  0  0  0  0  0
  -26.0630  -38.3330   23.9100 H   0  0  0  0  0  0  0  0  0  0  0  0
  1  4  1  0
  2  5  1  0
  2  1  1  0
  3  1  2  0
  3  7  1  0
  5  4  1  0
  6  2  2  0
  7  8  1  0
  8 17  1  0
  9 17  1  0
 10 15  1  0
 11 12  1  0
 11 10  1  0
 13 12  1  0
 13 22  1  0
 13 14  1  0
 15  9  1  0
 15 14  1  0
 16  9  2  0
 17 18  1  0
 19 20  2  0
 20 39  1  0
 21 20  1  0
 21 24  1  0
 22 19  1  0
 22 23  1  0
 23 21  2  0
 24 25  1  0
 25 26  2  0
 27 30  1  0
 27 26  1  0
 28 27  2  0
 29 28  1  0
 29 24  2  0
 30 31  1  0
 31 32  1  0
 32 33  2  0
 34 33  1  0
 34 38  1  0
 35 34  2  0
 36 31  2  0
 36 35  1  0
 37 36  1  0
 39 40  1  0
 40 43  1  0
 40 42  1  0
 41 39  2  0
 44 45  1  0
 44 19  1  0
 46 44  1  0
 47  5  1  0
 47 48  2  0
 49 51  1  0
 49 48  1  0
 50 61  2  0
 51 56  1  0
 52 60  1  0
 52 62  1  0
 53 59  1  0
 53 55  1  0
 54 60  1  0
 55 54  1  0
 56 55  2  0
 57 58  1  0
 57 51  2  0
 58 53  2  0
 59 52  1  0
 60 50  1  0
 62 64  2  0
 63 62  1  0
 65 63  1  0
 66 75  2  0
 66 71  1  0
 67 63  1  0
 67 71  1  0
 68 67  1  0
 69 70  1  0
 69 68  1  0
 70 66  1  0
 71 72  2  0
 72 73  1  0
 74 73  2  0
 75 74  1  0
 76 50  1  0
 76 81  1  0
 76 77  1  0
 77 80  1  1
 77 78  1  0
 79 77  1  0
 81 84  1  0
 82 86  1  0
 82 81  1  0
 83 82  2  0
 86 85  1  0
 88 86  1  0
 88 89  1  0
 88 87  1  0
M  ISO  4   9 100  17 100  48 101  49 101
M  END
>  <TORSDO>  (79) 
F 20

>  <SCORE>  (79) 
-13.649

>  <name>  (79) 
80

>  <ligand_id>  (79) 
80

>  <original_smiles>  (79) 
[H]C(=C1C(=O)N(C([H])([H])C([H])([H])Oc2c([H])c([H])c3c(c2[H])C([H])([H])N(C(=O)C([H])(N([H])C(=O)C([H])(N([H])C([H])([H])[H])C([H])([H])[H])C(C([H])([H])[H])(C([H])([H])[H])C([H])([H])[H])C([H])(C(=O)N([H])C2([H])c4c([H])c([H])c([H])c([H])c4C([H])([H])C([H])([H])C2([H])[H])C3([H])[H])C1([H])[H])C([H])([H])C([H])([H])N([H])C(=O)N1C([H])([H])C([H])([H])C([H])([H])C([H])(n2nc(-c3c([H])c([H])c(Oc4c([H])c([H])c(F)c([H])c4F)c([H])c3[H])c(C(=O)N([H])[H])c2N([H])[H])C1([H])[H]

>  <smiles>  (79) 
[H]C(=C1C(=O)N(C([H])([H])C([H])([H])Oc2c([H])c([H])c3c(c2[H])C([H])([H])N(C(=O)C([H])(N([H])C(=O)C([H])(N([H])C([H])([H])[H])C([H])([H])[H])C(C([H])([H])[H])(C([H])([H])[H])C([H])([H])[H])C([H])(C(=O)N([H])C2([H])c4c([H])c([H])c([H])c([H])c4C([H])([H])C([H])([H])C2([H])[H])C3([H])[H])C1([H])[H])C([H])([H])C([H])([H])N([H])C(=O)N1C([H])([H])C([H])([H])C([H])([H])C([H])(n2nc(-c3c([H])c([H])c(Oc4c([H])c([H])c(F)c([H])c4F)c([H])c3[H])c(C(=O)N([H])[H])c2N([H])[H])C1([H])[H]

$$$$
81:0:0
     RDKit          3D

 92100  0  0  1  0  0  0  0  0999 V2000
  -29.0490  -21.9950   19.7590 N   0  0  1  0  0  4  0  0  0  0  0  0
  -28.0760  -21.7490   19.6680 H   0  0  0  0  0  0  0  0  0  0  0  0
  -31.0620  -21.2750   17.2320 C   0  0  0  0  0  2  0  0  0  0  0  0
  -29.7510  -21.0290   17.4350 C   0  0  0  0  0  3  0  0  0  0  0  0
  -31.0430  -22.3490   18.2200 C   0  0  0  0  0  0  0  0  0  0  0  0
  -29.4900  -22.2440   18.3390 C   0  0  0  0  0  3  0  0  0  0  0  0
  -28.8580  -20.5580   16.5050 O   0  0  0  0  0  1  0  0  0  0  0  0
  -31.9560  -23.0230   18.7090 O   0  0  0  0  0  0  0  0  0  0  0  0
  -29.6900  -20.6920   20.4460 C   0  0  0  0  0  2  0  0  0  0  0  0
  -29.3220  -19.0730   20.0750 C   0  0  0  0  0  3  0  0  0  0  0  0
  -30.2200  -17.7180   20.5570 C   0  0  0  0  0  3  0  0  0  0  0  0
  -30.5170  -14.9810   20.3280 C   0  0  0  0  0  0  0  0  0  0  0  0
  -30.3480  -12.6310   19.3920 C   0  0  0  0  0  2  0  0  0  0  0  0
  -29.4270  -12.6220   18.1550 C   0  0  0  0  0  2  0  0  0  0  0  0
  -27.9620  -12.4000   18.5790 C   0  0  0  0  0  2  0  0  0  0  0  0
  -27.5520  -13.3150   19.7650 C   0  0  0  0  0  3  0  0  0  0  0  0
  -28.6110  -13.3490   20.8890 C   0  0  0  0  0  2  0  0  0  0  0  0
  -29.8850  -13.7400   20.2710 N   0  0  0  0  0  0  0  0  0  0  0  0
  -31.7290  -15.0060   20.0910 O   0  0  0  0  0  0  0  0  0  0  0  0
  -29.7850  -16.1970   20.4370 N   0  0  0  0  0  0  0  0  0  0  0  0
  -28.7880  -16.0520   20.5200 H   0  0  0  0  0  0  0  0  0  0  0  0
  -25.1680  -13.8780   20.5120 C   0  0  0  0  0  0  0  0  0  0  0  0
  -24.1090  -13.0970   20.8830 C   0  0  0  0  0  0  0  0  0  0  0  0
  -24.5810  -11.7480   20.8550 C   0  0  0  0  0  0  0  0  0  0  0  0
  -26.2170  -13.0050   20.2690 N   0  0  0  0  0  0  0  0  0  0  0  0
  -25.8740  -11.7190   20.5400 N   0  0  0  0  0  0  0  0  0  0  0  0
  -23.8580  -10.4840   21.0460 C   0  0  0  0  0  0  0  0  0  0  0  0
  -24.2930   -9.5150   21.9780 C   0  0  0  0  0  3  0  0  0  0  0  0
  -23.5690   -8.3150   22.1540 C   0  0  0  0  0  3  0  0  0  0  0  0
  -22.3950   -8.0770   21.3980 C   0  0  0  0  0  0  0  0  0  0  0  0
  -21.9800   -9.0340   20.4550 C   0  0  0  0  0  3  0  0  0  0  0  0
  -22.7050  -10.2250   20.2760 C   0  0  0  0  0  3  0  0  0  0  0  0
  -21.6400   -6.9330   21.4890 O   0  0  0  0  0  0  0  0  0  0  0  0
  -21.5960   -6.1870   22.6400 C   0  0  0  0  0  0  0  0  0  0  0  0
  -21.1640   -6.7350   23.8690 C   0  0  0  0  0  3  0  0  0  0  0  0
  -21.0670   -5.9150   25.0110 C   0  0  0  0  0  3  0  0  0  0  0  0
  -21.3940   -4.5470   24.9260 C   0  0  0  0  0  0  0  0  0  0  0  0
  -21.8160   -3.9970   23.7030 C   0  0  0  0  0  3  0  0  0  0  0  0
  -21.9160   -4.8160   22.5630 C   0  0  0  0  0  0  0  0  0  0  0  0
  -22.3050   -4.2750   21.3830 F   0  0  0  0  0  0  0  0  0  0  0  0
  -21.2920   -3.7580   26.0200 F   0  0  0  0  0  0  0  0  0  0  0  0
  -22.7090  -13.5690   21.1470 C   0  0  0  0  0  0  0  0  0  0  0  0
  -21.9720  -12.8720   22.0060 N   0  0  0  0  0  0  0  0  0  0  0  0
  -22.2730  -14.5960   20.6270 O   0  0  0  0  0  0  0  0  0  0  0  0
  -22.3300  -12.0440   22.4600 H   0  0  0  0  0  0  0  0  0  0  0  0
  -21.0330  -13.1780   22.2170 H   0  0  0  0  0  0  0  0  0  0  0  0
  -25.3230  -15.2500   20.3320 N   0  0  0  0  0  0  0  0  0  0  0  0
  -24.5510  -15.8970   20.4410 H   0  0  0  0  0  0  0  0  0  0  0  0
  -26.1640  -15.6890   19.9810 H   0  0  0  0  0  0  0  0  0  0  0  0
  -29.0350  -23.4140   20.4950 C   0  0  0  0  0  2  0  0  0  0  0  0
  -28.0630  -24.7110   20.0160 C   0  0  0  0  0  2  0  0  0  0  0  0
  -28.2610  -26.2290   20.3070 O   0  0  0  0  0  0  0  0  0  0  0  0
  -24.6020  -31.8970   23.2300 C   0  0  0  0  0  0  0  0  0  0  0  0
  -27.1890  -27.1920   20.2210 C   0  0  0  0  0  0  0  0  0  0  0  0
  -23.3990  -30.4990   21.5920 C   0  0  0  0  0  3  0  0  0  0  0  0
  -24.8460  -28.9150   20.1780 C   0  0  0  0  0  0  0  0  0  0  0  0
  -25.9500  -30.7700   21.4240 C   0  0  0  0  0  2  0  0  0  0  0  0
  -26.0240  -29.3760   20.7780 C   0  0  0  0  0  0  0  0  0  0  0  0
  -27.1950  -28.5300   20.7820 C   0  0  0  0  0  3  0  0  0  0  0  0
  -25.9800  -26.8270   19.5840 C   0  0  0  0  0  3  0  0  0  0  0  0
  -24.8340  -27.6510   19.5700 C   0  0  0  0  0  3  0  0  0  0  0  0
  -23.6170  -29.8090   20.2190 C   0  0  0  0  0  2  0  0  0  0  0  0
  -24.6700  -31.0800   22.1350 N   0  0  0  0  0  0  0  0  0  0  0  0
  -23.5160  -32.1820   23.7590 O   0  0  0  0  0  0  0  0  0  0  0  0
  -22.7200  -29.4970   22.5590 C   0  0  0  0  0  0  0  0  0  0  0  0
  -21.3930  -29.3220   22.4270 N   0  0  0  0  0  0  0  0  0  0  0  0
  -23.3870  -28.8780   23.3900 O   0  0  0  0  0  0  0  0  0  0  0  0
  -20.9100  -29.8770   21.7330 H   0  0  0  0  0  0  0  0  0  0  0  0
  -18.0110  -28.1150   22.9060 C   0  0  0  0  0  0  0  0  0  0  0  0
  -20.5660  -28.3890   23.1970 C   0  0  0  0  0  3  0  0  0  0  0  0
  -20.6760  -26.9510   22.6390 C   0  0  0  0  0  2  0  0  0  0  0  0
  -19.5850  -26.6140   21.6160 C   0  0  0  0  0  2  0  0  0  0  0  0
  -18.1980  -26.7590   22.2450 C   0  0  0  0  0  2  0  0  0  0  0  0
  -19.1220  -28.8860   23.3380 C   0  0  0  0  0  0  0  0  0  0  0  0
  -18.8900  -30.1530   23.9170 C   0  0  0  0  0  3  0  0  0  0  0  0
  -17.5810  -30.6460   24.0690 C   0  0  0  0  0  3  0  0  0  0  0  0
  -16.4840  -29.8720   23.6510 C   0  0  0  0  0  3  0  0  0  0  0  0
  -16.7010  -28.6090   23.0740 C   0  0  0  0  0  3  0  0  0  0  0  0
  -25.8830  -32.5260   23.8570 C   0  0  0  0  0  3  0  0  0  0  0  0
  -25.5750  -33.9280   24.1830 N   0  0  0  0  0  0  0  0  0  0  0  0
  -25.9100  -34.9810   23.4260 C   0  0  0  0  0  0  0  0  0  0  0  0
  -26.5760  -34.8760   22.3930 O   0  0  0  0  0  0  0  0  0  0  0  0
  -24.9810  -34.0840   24.9860 H   0  0  0  0  0  0  0  0  0  0  0  0
  -24.1850  -36.7820   23.0840 C   0  0  0  0  0  1  0  0  0  0  0  0
  -25.4290  -36.3720   23.8890 C   0  0  0  0  0  3  0  0  0  0  0  0
  -27.5680  -37.2530   24.7070 C   0  0  0  0  0  1  0  0  0  0  0  0
  -26.4610  -37.4220   23.7700 N   0  0  0  0  0  0  0  0  0  0  0  0
  -26.0570  -38.3420   23.9180 H   0  0  0  0  0  0  0  0  0  0  0  0
  -26.3870  -31.7630   25.1430 C   0  0  1  0  0  0  0  0  0  0  0  0
  -25.2880  -31.5440   26.2090 C   0  0  0  0  0  1  0  0  0  0  0  0
  -26.9620  -30.3770   24.7700 C   0  0  0  0  0  1  0  0  0  0  0  0
  -27.5360  -32.5580   25.8080 C   0  0  0  0  0  1  0  0  0  0  0  0
  1  9  1  0
  1 50  1  0
  1  2  1  6
  3  4  1  0
  3  5  1  0
  4  7  1  0
  4  6  1  0
  5  6  1  0
  5  8  2  0
  6  1  1  0
 10  9  1  0
 10 11  2  0
 12 20  1  0
 13 18  1  0
 14 15  1  0
 14 13  1  0
 16 15  1  0
 16 25  1  0
 16 17  1  0
 18 12  1  0
 18 17  1  0
 19 12  2  0
 20 21  1  0
 20 11  1  0
 22 23  2  0
 23 42  1  0
 24 23  1  0
 24 27  1  0
 25 22  1  0
 25 26  1  0
 26 24  2  0
 27 28  1  0
 28 29  2  0
 30 33  1  0
 30 29  1  0
 31 30  2  0
 32 31  1  0
 32 27  2  0
 33 34  1  0
 34 35  1  0
 35 36  2  0
 37 36  1  0
 37 41  1  0
 38 37  2  0
 39 34  2  0
 39 38  1  0
 40 39  1  0
 42 43  1  0
 43 46  1  0
 43 45  1  0
 44 42  2  0
 47 48  1  0
 47 22  1  0
 49 47  1  0
 51 52  1  0
 51 50  1  0
 53 64  2  0
 54 52  1  0
 54 59  1  0
 55 63  1  0
 55 65  1  0
 56 62  1  0
 56 58  1  0
 57 63  1  0
 58 59  2  0
 58 57  1  0
 60 54  2  0
 61 60  1  0
 61 56  2  0
 62 55  1  0
 63 53  1  0
 65 67  2  0
 66 65  1  0
 68 66  1  0
 69 78  2  0
 69 74  1  0
 70 66  1  0
 70 74  1  0
 71 70  1  0
 72 73  1  0
 72 71  1  0
 73 69  1  0
 74 75  2  0
 75 76  1  0
 77 76  2  0
 78 77  1  0
 79 53  1  0
 79 80  1  0
 79 89  1  0
 80 83  1  0
 81 85  1  0
 81 80  1  0
 82 81  2  0
 85 84  1  0
 87 85  1  0
 87 88  1  0
 87 86  1  0
 89 92  1  1
 89 90  1  0
 91 89  1  0
M  ISO  4  12 100  20 100  51 101  52 101
M  END
>  <TORSDO>  (80) 
F 22

>  <SCORE>  (80) 
-14.212

>  <name>  (80) 
81

>  <ligand_id>  (80) 
81

>  <original_smiles>  (80) 
[H]C1=C([O-])C([H])([N+]([H])(C([H])([H])C([H])([H])Oc2c([H])c([H])c3c(c2[H])C([H])([H])N(C(=O)C([H])(N([H])C(=O)C([H])(N([H])C([H])([H])[H])C([H])([H])[H])C(C([H])([H])[H])(C([H])([H])[H])C([H])([H])[H])C([H])(C(=O)N([H])C2([H])c4c([H])c([H])c([H])c([H])c4C([H])([H])C([H])([H])C2([H])[H])C3([H])[H])C([H])([H])C([H])([H])C([H])([H])N([H])C(=O)N2C([H])([H])C([H])([H])C([H])([H])C([H])(n3nc(-c4c([H])c([H])c(Oc5c([H])c([H])c(F)c([H])c5F)c([H])c4[H])c(C(=O)N([H])[H])c3N([H])[H])C2([H])[H])C1=O

>  <smiles>  (80) 
[H]C1=C([O-])C([H])([N+]([H])(C([H])([H])C([H])([H])Oc2c([H])c([H])c3c(c2[H])C([H])([H])N(C(=O)C([H])(N([H])C(=O)C([H])(N([H])C([H])([H])[H])C([H])([H])[H])C(C([H])([H])[H])(C([H])([H])[H])C([H])([H])[H])C([H])(C(=O)N([H])C2([H])c4c([H])c([H])c([H])c([H])c4C([H])([H])C([H])([H])C2([H])[H])C3([H])[H])C([H])([H])C([H])([H])C([H])([H])N([H])C(=O)N2C([H])([H])C([H])([H])C([H])([H])C([H])(n3nc(-c4c([H])c([H])c(Oc5c([H])c([H])c(F)c([H])c5F)c([H])c4[H])c(C(=O)N([H])[H])c3N([H])[H])C2([H])[H])C1=O

$$$$
82:0:0
     RDKit          3D

 90 98  0  0  1  0  0  0  0  0999 V2000
  -30.7080  -14.7990   20.3540 C   0  0  0  0  0  0  0  0  0  0  0  0
  -30.4720  -12.5150   19.4010 C   0  0  0  0  0  2  0  0  0  0  0  0
  -29.5450  -12.5640   18.1660 C   0  0  0  0  0  2  0  0  0  0  0  0
  -28.0640  -12.4560   18.5800 C   0  0  0  0  0  2  0  0  0  0  0  0
  -27.6870  -13.3570   19.7880 C   0  0  0  0  0  3  0  0  0  0  0  0
  -28.7410  -13.2900   20.9130 C   0  0  0  0  0  2  0  0  0  0  0  0
  -30.0440  -13.5960   20.3090 N   0  0  0  0  0  0  0  0  0  0  0  0
  -31.9400  -14.8350   20.2830 O   0  0  0  0  0  0  0  0  0  0  0  0
  -29.8660  -18.4190   19.3530 C   0  0  0  0  0  3  0  0  0  0  0  0
  -29.8690  -17.5110   18.1960 C   0  0  0  0  0  0  0  0  0  0  0  0
  -29.6770  -19.8440   19.2350 C   0  0  0  0  0  0  0  0  0  0  0  0
  -29.7570  -16.0570   18.5700 C   0  0  0  0  0  2  0  0  0  0  0  0
  -30.1150  -17.3820   20.5180 C   0  0  0  0  0  3  0  0  0  0  0  0
  -29.1800  -17.6020   21.7150 C   0  0  0  0  0  1  0  0  0  0  0  0
  -29.9800  -15.9390   20.0160 N   0  0  0  0  0  0  0  0  0  0  0  0
  -29.4960  -20.4330   18.1450 O   0  0  0  0  0  0  0  0  0  0  0  0
  -29.9920  -17.8200   17.0110 O   0  0  0  0  0  0  0  0  0  0  0  0
  -25.2930  -13.9890   20.4510 C   0  0  0  0  0  0  0  0  0  0  0  0
  -24.2100  -13.2310   20.8040 C   0  0  0  0  0  0  0  0  0  0  0  0
  -24.6640  -11.8760   20.8140 C   0  0  0  0  0  0  0  0  0  0  0  0
  -26.3350  -13.0940   20.2640 N   0  0  0  0  0  0  0  0  0  0  0  0
  -25.9620  -11.8210   20.5460 N   0  0  0  0  0  0  0  0  0  0  0  0
  -23.9250  -10.6230   21.0070 C   0  0  0  0  0  0  0  0  0  0  0  0
  -24.3360   -9.6640   21.9590 C   0  0  0  0  0  3  0  0  0  0  0  0
  -23.5980   -8.4740   22.1390 C   0  0  0  0  0  3  0  0  0  0  0  0
  -22.4360   -8.2370   21.3680 C   0  0  0  0  0  0  0  0  0  0  0  0
  -22.0450   -9.1830   20.4050 C   0  0  0  0  0  3  0  0  0  0  0  0
  -22.7840  -10.3650   20.2220 C   0  0  0  0  0  3  0  0  0  0  0  0
  -21.6710   -7.0990   21.4590 O   0  0  0  0  0  0  0  0  0  0  0  0
  -21.6060   -6.3660   22.6170 C   0  0  0  0  0  0  0  0  0  0  0  0
  -21.1830   -6.9360   23.8370 C   0  0  0  0  0  3  0  0  0  0  0  0
  -21.0640   -6.1310   24.9860 C   0  0  0  0  0  3  0  0  0  0  0  0
  -21.3580   -4.7560   24.9170 C   0  0  0  0  0  0  0  0  0  0  0  0
  -21.7720   -4.1850   23.7010 C   0  0  0  0  0  3  0  0  0  0  0  0
  -21.8930   -4.9880   22.5540 C   0  0  0  0  0  0  0  0  0  0  0  0
  -22.2740   -4.4290   21.3800 F   0  0  0  0  0  0  0  0  0  0  0  0
  -21.2350   -3.9800   26.0190 F   0  0  0  0  0  0  0  0  0  0  0  0
  -22.8100  -13.7230   21.0270 C   0  0  0  0  0  0  0  0  0  0  0  0
  -22.0570  -13.0550   21.8930 N   0  0  0  0  0  0  0  0  0  0  0  0
  -22.3920  -14.7350   20.4660 O   0  0  0  0  0  0  0  0  0  0  0  0
  -22.4080  -12.2380   22.3690 H   0  0  0  0  0  0  0  0  0  0  0  0
  -21.1160  -13.3680   22.0850 H   0  0  0  0  0  0  0  0  0  0  0  0
  -25.4730  -15.3550   20.2520 N   0  0  0  0  0  0  0  0  0  0  0  0
  -24.7140  -16.0210   20.3400 H   0  0  0  0  0  0  0  0  0  0  0  0
  -26.3490  -15.7850   19.9800 H   0  0  0  0  0  0  0  0  0  0  0  0
  -29.6900  -21.0280   20.3220 C   0  0  0  0  0  2  0  0  0  0  0  0
  -28.8180  -22.3830   20.0250 C   0  0  0  0  0  2  0  0  0  0  0  0
  -29.1770  -23.8450   20.5880 C   0  0  0  0  0  3  0  0  0  0  0  0
  -28.1820  -25.0240   20.1370 C   0  0  0  0  0  3  0  0  0  0  0  0
  -28.4070  -26.4720   20.4270 O   0  0  0  0  0  0  0  0  0  0  0  0
  -24.6460  -31.9480   23.2990 C   0  0  0  0  0  0  0  0  0  0  0  0
  -27.3050  -27.3500   20.3230 C   0  0  0  0  0  0  0  0  0  0  0  0
  -23.4700  -30.5340   21.6530 C   0  0  0  0  0  3  0  0  0  0  0  0
  -24.9430  -28.9790   20.2580 C   0  0  0  0  0  0  0  0  0  0  0  0
  -26.0140  -30.8490   21.5090 C   0  0  0  0  0  2  0  0  0  0  0  0
  -26.1040  -29.4650   20.8730 C   0  0  0  0  0  0  0  0  0  0  0  0
  -27.2870  -28.6620   20.8980 C   0  0  0  0  0  3  0  0  0  0  0  0
  -26.1230  -26.9350   19.6640 C   0  0  0  0  0  3  0  0  0  0  0  0
  -24.9570  -27.7200   19.6430 C   0  0  0  0  0  3  0  0  0  0  0  0
  -23.7050  -29.8520   20.2810 C   0  0  0  0  0  2  0  0  0  0  0  0
  -24.7280  -31.1280   22.2100 N   0  0  0  0  0  0  0  0  0  0  0  0
  -23.5540  -32.2290   23.8140 O   0  0  0  0  0  0  0  0  0  0  0  0
  -22.7940  -29.5240   22.6110 C   0  0  0  0  0  0  0  0  0  0  0  0
  -21.4670  -29.3520   22.4740 N   0  0  0  0  0  0  0  0  0  0  0  0
  -23.4620  -28.8970   23.4380 O   0  0  0  0  0  0  0  0  0  0  0  0
  -20.9880  -29.9090   21.7810 H   0  0  0  0  0  0  0  0  0  0  0  0
  -18.0770  -28.1880   22.9630 C   0  0  0  0  0  0  0  0  0  0  0  0
  -20.6370  -28.4240   23.2420 C   0  0  0  0  0  3  0  0  0  0  0  0
  -20.7270  -26.9900   22.6690 C   0  0  0  0  0  2  0  0  0  0  0  0
  -19.6260  -26.6760   21.6510 C   0  0  0  0  0  2  0  0  0  0  0  0
  -18.2430  -26.8360   22.2900 C   0  0  0  0  0  2  0  0  0  0  0  0
  -19.2010  -28.9400   23.3970 C   0  0  0  0  0  0  0  0  0  0  0  0
  -18.9910  -30.2050   23.9870 C   0  0  0  0  0  3  0  0  0  0  0  0
  -17.6910  -30.7180   24.1480 C   0  0  0  0  0  3  0  0  0  0  0  0
  -16.5810  -29.9620   23.7320 C   0  0  0  0  0  3  0  0  0  0  0  0
  -16.7750  -28.7000   23.1440 C   0  0  0  0  0  3  0  0  0  0  0  0
  -25.9180  -32.5880   23.9340 C   0  0  0  0  0  3  0  0  0  0  0  0
  -26.4160  -31.8300   25.2250 C   0  0  1  0  0  0  0  0  0  0  0  0
  -25.3070  -31.5970   26.2770 C   0  0  0  0  0  1  0  0  0  0  0  0
  -27.0100  -30.4490   24.8560 C   0  0  0  0  0  1  0  0  0  0  0  0
  -27.5550  -32.6320   25.8980 C   0  0  0  0  0  1  0  0  0  0  0  0
  -25.6010  -33.9890   24.2480 N   0  0  0  0  0  0  0  0  0  0  0  0
  -25.9260  -35.0360   23.4770 C   0  0  0  0  0  0  0  0  0  0  0  0
  -26.5950  -34.9240   22.4470 O   0  0  0  0  0  0  0  0  0  0  0  0
  -25.0060  -34.1480   25.0480 H   0  0  0  0  0  0  0  0  0  0  0  0
  -24.1780  -36.8090   23.1190 C   0  0  0  0  0  1  0  0  0  0  0  0
  -25.4320  -36.4260   23.9210 C   0  0  0  0  0  3  0  0  0  0  0  0
  -27.5680  -37.3420   24.7140 C   0  0  0  0  0  1  0  0  0  0  0  0
  -26.4540  -37.4860   23.7810 N   0  0  0  0  0  0  0  0  0  0  0  0
  -26.0410  -38.4050   23.9190 H   0  0  0  0  0  0  0  0  0  0  0  0
  2  7  1  0
  3  4  1  0
  3  2  1  0
  5  4  1  0
  5 21  1  0
  5  6  1  0
  7  1  1  0
  7  6  1  0
  8  1  2  0
  9 11  1  0
  9 13  1  0
 10 12  1  0
 10  9  1  0
 11 46  1  0
 12 15  1  0
 13 14  1  0
 15  1  1  0
 15 13  1  0
 16 11  2  0
 17 10  2  0
 18 19  2  0
 19 20  1  0
 19 38  1  0
 20 23  1  0
 21 18  1  0
 21 22  1  0
 22 20  2  0
 23 24  1  0
 24 25  2  0
 26 29  1  0
 26 25  1  0
 27 26  2  0
 28 27  1  0
 28 23  2  0
 29 30  1  0
 30 31  1  0
 31 32  2  0
 33 32  1  0
 33 37  1  0
 34 33  2  0
 35 30  2  0
 35 34  1  0
 36 35  1  0
 38 39  1  0
 39 42  1  0
 39 41  1  0
 40 38  2  0
 43 44  1  0
 43 18  1  0
 45 43  1  0
 47 46  1  0
 47 48  1  0
 49 50  1  0
 49 48  2  0
 51 62  2  0
 52 50  1  0
 52 57  1  0
 53 61  1  0
 53 63  1  0
 54 60  1  0
 54 56  1  0
 55 61  1  0
 56 57  2  0
 56 55  1  0
 58 52  2  0
 59 58  1  0
 59 54  2  0
 60 53  1  0
 61 51  1  0
 63 65  2  0
 64 63  1  0
 66 64  1  0
 67 76  2  0
 67 72  1  0
 68 64  1  0
 68 72  1  0
 69 68  1  0
 70 71  1  0
 70 69  1  0
 71 67  1  0
 72 73  2  0
 73 74  1  0
 75 74  2  0
 76 75  1  0
 77 51  1  0
 77 82  1  0
 77 78  1  0
 78 81  1  1
 78 79  1  0
 80 78  1  0
 82 85  1  0
 83 87  1  0
 83 82  1  0
 84 83  2  0
 87 86  1  0
 89 90  1  0
 89 87  1  0
 89 88  1  0
M  ISO  4   1 100  15 100  49 101  50 101
M  END
>  <TORSDO>  (81) 
F 19

>  <SCORE>  (81) 
-12.818

>  <name>  (81) 
82

>  <ligand_id>  (81) 
82

>  <original_smiles>  (81) 
[H]c1c([H])c([H])c2c(c1[H])C([H])([H])C([H])([H])C([H])([H])C2([H])N([H])C(=O)C1([H])N(C(=O)C([H])(N([H])C(=O)C([H])(N([H])C([H])([H])[H])C([H])([H])[H])C(C([H])([H])[H])(C([H])([H])[H])C([H])([H])[H])C([H])([H])c2c([H])c(OC([H])([H])C([H])([H])C([H])([H])C([H])([H])C([O-])=C3C(=O)C([H])([H])N(C(=O)N4C([H])([H])C([H])([H])C([H])([H])C([H])(n5nc(-c6c([H])c([H])c(Oc7c([H])c([H])c(F)c([H])c7F)c([H])c6[H])c(C(=O)N([H])[H])c5N([H])[H])C4([H])[H])C3([H])C([H])([H])[H])c([H])c([H])c2C1([H])[H]

>  <smiles>  (81) 
[H]c1c([H])c([H])c2c(c1[H])C([H])([H])C([H])([H])C([H])([H])C2([H])N([H])C(=O)C1([H])N(C(=O)C([H])(N([H])C(=O)C([H])(N([H])C([H])([H])[H])C([H])([H])[H])C(C([H])([H])[H])(C([H])([H])[H])C([H])([H])[H])C([H])([H])c2c([H])c(OC([H])([H])C([H])([H])C([H])([H])C([H])([H])C([O-])=C3C(=O)C([H])([H])N(C(=O)N4C([H])([H])C([H])([H])C([H])([H])C([H])(n5nc(-c6c([H])c([H])c(Oc7c([H])c([H])c(F)c([H])c7F)c([H])c6[H])c(C(=O)N([H])[H])c5N([H])[H])C4([H])[H])C3([H])C([H])([H])[H])c([H])c([H])c2C1([H])[H]

$$$$
83:0:0
     RDKit          3D

 96104  0  0  1  0  0  0  0  0999 V2000
  -27.5500  -20.6770   20.2000 C   0  0  0  0  0  2  0  0  0  0  0  0
  -29.2130  -22.3920   20.2020 C   0  0  0  0  0  2  0  0  0  0  0  0
  -26.8770  -22.0430   19.9860 C   0  0  0  0  0  3  0  0  0  0  0  0
  -27.9940  -22.9490   19.4480 C   0  0  0  0  0  3  0  0  0  0  0  0
  -25.6120  -21.9760   19.1110 C   0  0  0  0  0  1  0  0  0  0  0  0
  -29.0110  -20.9210   20.2880 N   0  0  1  0  0  4  0  0  0  0  0  0
  -29.4110  -20.5310   19.4490 H   0  0  0  0  0  0  0  0  0  0  0  0
  -27.6500  -24.4620   19.6100 C   0  0  0  0  0  2  0  0  0  0  0  0
  -29.3330  -25.9240   20.9000 C   0  0  0  0  0  1  0  0  0  0  0  0
  -29.9160  -25.0580   18.6090 C   0  0  0  0  0  1  0  0  0  0  0  0
  -28.7730  -25.5450   19.5180 C   0  0  1  0  0  0  0  0  0  0  0  0
  -28.3690  -26.7700   18.8630 O   0  0  0  0  0  0  0  0  0  0  0  0
  -24.7010  -31.2940   23.0350 C   0  0  0  0  0  0  0  0  0  0  0  0
  -27.1780  -27.4090   19.1540 C   0  0  0  0  0  0  0  0  0  0  0  0
  -23.4100  -30.1430   21.2700 C   0  0  0  0  0  3  0  0  0  0  0  0
  -24.7820  -28.8640   19.5510 C   0  0  0  0  0  0  0  0  0  0  0  0
  -25.9190  -30.5590   20.9860 C   0  0  0  0  0  2  0  0  0  0  0  0
  -25.9730  -29.3000   20.1470 C   0  0  0  0  0  0  0  0  0  0  0  0
  -27.1740  -28.5790   19.9500 C   0  0  0  0  0  3  0  0  0  0  0  0
  -25.9700  -27.0060   18.5410 C   0  0  0  0  0  3  0  0  0  0  0  0
  -24.7750  -27.7130   18.7510 C   0  0  0  0  0  3  0  0  0  0  0  0
  -23.5420  -29.6910   19.7930 C   0  0  0  0  0  2  0  0  0  0  0  0
  -24.6980  -30.6730   21.8220 N   0  0  0  0  0  0  0  0  0  0  0  0
  -23.6500  -31.4590   23.6740 O   0  0  0  0  0  0  0  0  0  0  0  0
  -22.8270  -28.9710   22.0960 C   0  0  0  0  0  0  0  0  0  0  0  0
  -21.5090  -28.7440   21.9670 N   0  0  0  0  0  0  0  0  0  0  0  0
  -23.5570  -28.2760   22.8080 O   0  0  0  0  0  0  0  0  0  0  0  0
  -20.9780  -29.3590   21.3660 H   0  0  0  0  0  0  0  0  0  0  0  0
  -18.2260  -27.2740   22.2710 C   0  0  0  0  0  0  0  0  0  0  0  0
  -20.7550  -27.6760   22.6200 C   0  0  0  0  0  3  0  0  0  0  0  0
  -20.9690  -26.3270   21.8950 C   0  0  0  0  0  2  0  0  0  0  0  0
  -19.9040  -26.0380   20.8320 C   0  0  0  0  0  2  0  0  0  0  0  0
  -18.5080  -26.0190   21.4600 C   0  0  0  0  0  2  0  0  0  0  0  0
  -19.2820  -28.0610   22.8000 C   0  0  0  0  0  0  0  0  0  0  0  0
  -18.9670  -29.2380   23.5150 C   0  0  0  0  0  3  0  0  0  0  0  0
  -17.6280  -29.6270   23.7070 C   0  0  0  0  0  3  0  0  0  0  0  0
  -16.5870  -28.8360   23.1950 C   0  0  0  0  0  3  0  0  0  0  0  0
  -16.8850  -27.6610   22.4820 C   0  0  0  0  0  3  0  0  0  0  0  0
  -26.0170  -31.8440   23.6670 C   0  0  0  0  0  3  0  0  0  0  0  0
  -25.7310  -33.1890   24.1840 N   0  0  0  0  0  0  0  0  0  0  0  0
  -26.0970  -34.3290   23.5820 C   0  0  0  0  0  0  0  0  0  0  0  0
  -26.7810  -34.3540   22.5560 O   0  0  0  0  0  0  0  0  0  0  0  0
  -25.1280  -33.2460   24.9930 H   0  0  0  0  0  0  0  0  0  0  0  0
  -24.4430  -36.2150   23.4210 C   0  0  0  0  0  1  0  0  0  0  0  0
  -25.6300  -35.6500   24.2190 C   0  0  0  0  0  3  0  0  0  0  0  0
  -27.7480  -36.3190   25.2670 C   0  0  0  0  0  1  0  0  0  0  0  0
  -26.6980  -36.6690   24.3130 N   0  0  0  0  0  0  0  0  0  0  0  0
  -26.3100  -37.5690   24.5830 H   0  0  0  0  0  0  0  0  0  0  0  0
  -26.5930  -30.9180   24.8070 C   0  0  1  0  0  0  0  0  0  0  0  0
  -25.5540  -30.5500   25.8910 C   0  0  0  0  0  1  0  0  0  0  0  0
  -27.1470  -29.6030   24.2130 C   0  0  0  0  0  1  0  0  0  0  0  0
  -27.7790  -31.6250   25.5040 C   0  0  0  0  0  1  0  0  0  0  0  0
  -29.7010  -20.2830   21.4430 C   0  0  0  0  0  2  0  0  0  0  0  0
  -29.6630  -18.7330   21.4790 C   0  0  0  0  0  2  0  0  0  0  0  0
  -30.8300  -17.9990   20.7760 C   0  0  0  0  0  2  0  0  0  0  0  0
  -30.7050  -16.2400   22.6490 C   0  0  0  0  0  1  0  0  0  0  0  0
  -30.9710  -16.4940   21.1520 C   0  0  0  0  0  3  0  0  0  0  0  0
  -32.3620  -15.9260   20.7700 C   0  0  0  0  0  2  0  0  0  0  0  0
  -32.7450  -14.2290   18.9930 C   0  0  0  0  0  0  0  0  0  0  0  0
  -32.0070  -11.9280   18.5000 C   0  0  0  0  0  2  0  0  0  0  0  0
  -30.9370  -11.9390   17.3910 C   0  0  0  0  0  2  0  0  0  0  0  0
  -29.5310  -12.1380   17.9930 C   0  0  0  0  0  2  0  0  0  0  0  0
  -29.4720  -13.3200   18.9930 C   0  0  0  0  0  3  0  0  0  0  0  0
  -30.6350  -13.2410   20.0030 C   0  0  0  0  0  2  0  0  0  0  0  0
  -31.9030  -13.1910   19.2510 N   0  0  0  0  0  0  0  0  0  0  0  0
  -33.7170  -14.1270   18.2380 O   0  0  0  0  0  0  0  0  0  0  0  0
  -32.3730  -15.4530   19.3880 N   0  0  0  0  0  0  0  0  0  0  0  0
  -32.7660  -16.1480   18.7740 H   0  0  0  0  0  0  0  0  0  0  0  0
  -27.5140  -14.4860   20.1880 C   0  0  0  0  0  0  0  0  0  0  0  0
  -26.3200  -14.0120   20.6640 C   0  0  0  0  0  0  0  0  0  0  0  0
  -26.3190  -12.6090   20.4000 C   0  0  0  0  0  0  0  0  0  0  0  0
  -28.1820  -13.3860   19.6720 N   0  0  0  0  0  0  0  0  0  0  0  0
  -27.4700  -12.2440   19.8530 N   0  0  0  0  0  0  0  0  0  0  0  0
  -25.2660  -11.6030   20.5840 C   0  0  0  0  0  0  0  0  0  0  0  0
  -25.5000  -10.4090   21.3030 C   0  0  0  0  0  3  0  0  0  0  0  0
  -24.4660   -9.4640   21.4800 C   0  0  0  0  0  3  0  0  0  0  0  0
  -23.1810   -9.7090   20.9380 C   0  0  0  0  0  0  0  0  0  0  0  0
  -22.9590  -10.8860   20.2020 C   0  0  0  0  0  3  0  0  0  0  0  0
  -23.9900  -11.8230   20.0220 C   0  0  0  0  0  3  0  0  0  0  0  0
  -22.1240   -8.8370   21.0390 O   0  0  0  0  0  0  0  0  0  0  0  0
  -21.9950   -7.9830   22.1040 C   0  0  0  0  0  0  0  0  0  0  0  0
  -21.9830   -8.4490   23.4370 C   0  0  0  0  0  3  0  0  0  0  0  0
  -21.7760   -7.5440   24.4980 C   0  0  0  0  0  3  0  0  0  0  0  0
  -21.5750   -6.1770   24.2280 C   0  0  0  0  0  0  0  0  0  0  0  0
  -21.5830   -5.7130   22.8990 C   0  0  0  0  0  3  0  0  0  0  0  0
  -21.7890   -6.6130   21.8410 C   0  0  0  0  0  0  0  0  0  0  0  0
  -21.7730   -6.1640   20.5640 F   0  0  0  0  0  0  0  0  0  0  0  0
  -21.3690   -5.3080   25.2440 F   0  0  0  0  0  0  0  0  0  0  0  0
  -25.1980  -14.8290   21.2370 C   0  0  0  0  0  0  0  0  0  0  0  0
  -24.4540  -14.2700   22.1850 N   0  0  0  0  0  0  0  0  0  0  0  0
  -25.0060  -15.9920   20.8820 O   0  0  0  0  0  0  0  0  0  0  0  0
  -24.6250  -13.3260   22.4970 H   0  0  0  0  0  0  0  0  0  0  0  0
  -23.7140  -14.8040   22.6150 H   0  0  0  0  0  0  0  0  0  0  0  0
  -28.0750  -15.7570   20.1350 N   0  0  0  0  0  0  0  0  0  0  0  0
  -27.5940  -16.5790   20.4820 H   0  0  0  0  0  0  0  0  0  0  0  0
  -28.9620  -15.9730   19.6940 H   0  0  0  0  0  0  0  0  0  0  0  0
  1  6  1  0
  2  6  1  0
  3  5  1  0
  3  1  1  0
  4  8  1  0
  4  3  1  0
  4  2  1  0
  6 53  1  0
  6  7  1  6
 11 10  1  6
 11  8  1  0
 11  9  1  0
 12 14  1  0
 12 11  1  0
 13 24  2  0
 14 19  1  0
 15 23  1  0
 15 25  1  0
 16 22  1  0
 16 18  1  0
 17 23  1  0
 18 17  1  0
 19 18  2  0
 20 21  1  0
 20 14  2  0
 21 16  2  0
 22 15  1  0
 23 13  1  0
 25 27  2  0
 26 25  1  0
 28 26  1  0
 29 38  2  0
 29 34  1  0
 30 26  1  0
 30 34  1  0
 31 30  1  0
 32 33  1  0
 32 31  1  0
 33 29  1  0
 34 35  2  0
 35 36  1  0
 37 36  2  0
 38 37  1  0
 39 13  1  0
 39 40  1  0
 39 49  1  0
 40 43  1  0
 41 40  1  0
 41 45  1  0
 42 41  2  0
 45 44  1  0
 45 47  1  0
 47 48  1  0
 47 46  1  0
 49 52  1  1
 49 50  1  0
 51 49  1  0
 53 54  1  0
 55 57  1  0
 55 54  1  0
 57 56  1  0
 58 57  1  0
 59 65  1  0
 59 67  1  0
 60 65  1  0
 61 62  1  0
 61 60  1  0
 63 62  1  0
 63 72  1  0
 63 64  1  0
 65 64  1  0
 66 59  2  0
 67 58  1  0
 68 67  1  0
 69 70  2  0
 70 89  1  0
 71 74  1  0
 71 70  1  0
 72 73  1  0
 72 69  1  0
 73 71  2  0
 74 75  1  0
 75 76  2  0
 77 80  1  0
 77 76  1  0
 78 77  2  0
 79 78  1  0
 79 74  2  0
 80 81  1  0
 81 82  1  0
 82 83  2  0
 84 83  1  0
 84 88  1  0
 85 84  2  0
 86 81  2  0
 86 85  1  0
 87 86  1  0
 89 90  1  0
 90 92  1  0
 90 93  1  0
 91 89  2  0
 94 69  1  0
 94 95  1  0
 96 94  1  0
M  ISO  4  11 101  12 101  59 100  67 100
M  END
>  <TORSDO>  (82) 
F 23

>  <SCORE>  (82) 
-7.732

>  <name>  (82) 
83

>  <ligand_id>  (82) 
83

>  <original_smiles>  (82) 
[H]c1c([H])c([H])c2c(c1[H])C([H])([H])C([H])([H])C([H])([H])C2([H])N([H])C(=O)C1([H])N(C(=O)C([H])(N([H])C(=O)C([H])(N([H])C([H])([H])[H])C([H])([H])[H])C(C([H])([H])[H])(C([H])([H])[H])C([H])([H])[H])C([H])([H])c2c([H])c(OC(C([H])([H])[H])(C([H])([H])[H])C([H])([H])C3([H])C([H])(C([H])([H])[H])C([H])([H])[N+]([H])(C([H])([H])C([H])([H])C([H])([H])C([H])(C([H])([H])[H])C([H])([H])N([H])C(=O)N4C([H])([H])C([H])([H])C([H])([H])C([H])(n5nc(-c6c([H])c([H])c(Oc7c([H])c([H])c(F)c([H])c7F)c([H])c6[H])c(C(=O)N([H])[H])c5N([H])[H])C4([H])[H])C3([H])[H])c([H])c([H])c2C1([H])[H]

>  <smiles>  (82) 
[H]c1c([H])c([H])c2c(c1[H])C([H])([H])C([H])([H])C([H])([H])C2([H])N([H])C(=O)C1([H])N(C(=O)C([H])(N([H])C(=O)C([H])(N([H])C([H])([H])[H])C([H])([H])[H])C(C([H])([H])[H])(C([H])([H])[H])C([H])([H])[H])C([H])([H])c2c([H])c(OC(C([H])([H])[H])(C([H])([H])[H])C([H])([H])C3([H])C([H])(C([H])([H])[H])C([H])([H])[N+]([H])(C([H])([H])C([H])([H])C([H])([H])C([H])(C([H])([H])[H])C([H])([H])N([H])C(=O)N4C([H])([H])C([H])([H])C([H])([H])C([H])(n5nc(-c6c([H])c([H])c(Oc7c([H])c([H])c(F)c([H])c7F)c([H])c6[H])c(C(=O)N([H])[H])c5N([H])[H])C4([H])[H])C3([H])[H])c([H])c([H])c2C1([H])[H]

$$$$
84:0:0
     RDKit          3D

 90 98  0  0  1  0  0  0  0  0999 V2000
  -29.3190  -20.6730   20.2670 C   0  0  0  0  0  0  0  0  0  0  0  0
  -30.1970  -21.7380   19.8340 C   0  0  0  0  0  0  0  0  0  0  0  0
  -29.2950  -19.3030   20.1720 C   0  0  0  0  0  0  0  0  0  0  0  0
  -28.4000  -21.7060   20.8790 C   0  0  0  0  0  2  0  0  0  0  0  0
  -28.1080  -18.5440   20.7470 C   0  0  0  0  0  1  0  0  0  0  0  0
  -29.3760  -22.7260   20.3960 N   0  0  0  0  0  0  0  0  0  0  0  0
  -31.2570  -21.7100   19.2440 O   0  0  0  0  0  0  0  0  0  0  0  0
  -30.3020  -18.3660   19.4400 C   0  0  0  0  0  2  0  0  0  0  0  0
  -31.0840  -17.2970   20.3070 C   0  0  0  0  0  2  0  0  0  0  0  0
  -31.3100  -14.7650   19.8920 C   0  0  0  0  0  0  0  0  0  0  0  0
  -30.9630  -12.4900   18.9720 C   0  0  0  0  0  2  0  0  0  0  0  0
  -29.9690  -12.5750   17.7940 C   0  0  0  0  0  2  0  0  0  0  0  0
  -28.5150  -12.4860   18.2990 C   0  0  0  0  0  2  0  0  0  0  0  0
  -28.2360  -13.4390   19.4920 C   0  0  0  0  0  3  0  0  0  0  0  0
  -29.3400  -13.3300   20.5680 C   0  0  0  0  0  2  0  0  0  0  0  0
  -30.6290  -13.5800   19.9060 N   0  0  0  0  0  0  0  0  0  0  0  0
  -32.4530  -14.8530   19.4380 O   0  0  0  0  0  0  0  0  0  0  0  0
  -30.6060  -15.8790   20.2400 N   0  0  0  0  0  0  0  0  0  0  0  0
  -29.6600  -15.7110   20.5500 H   0  0  0  0  0  0  0  0  0  0  0  0
  -25.9410  -14.1580   20.3990 C   0  0  0  0  0  0  0  0  0  0  0  0
  -24.8500  -13.4380   20.8030 C   0  0  0  0  0  0  0  0  0  0  0  0
  -25.2140  -12.0620   20.6780 C   0  0  0  0  0  0  0  0  0  0  0  0
  -26.9050  -13.2240   20.0540 N   0  0  0  0  0  0  0  0  0  0  0  0
  -26.4770  -11.9550   20.2810 N   0  0  0  0  0  0  0  0  0  0  0  0
  -24.4170  -10.8420   20.8580 C   0  0  0  0  0  0  0  0  0  0  0  0
  -24.7780   -9.8560   21.8030 C   0  0  0  0  0  3  0  0  0  0  0  0
  -23.9850   -8.7000   21.9690 C   0  0  0  0  0  3  0  0  0  0  0  0
  -22.8160   -8.5230   21.1910 C   0  0  0  0  0  0  0  0  0  0  0  0
  -22.4740   -9.4970   20.2370 C   0  0  0  0  0  3  0  0  0  0  0  0
  -23.2680  -10.6440   20.0680 C   0  0  0  0  0  3  0  0  0  0  0  0
  -22.0000   -7.4210   21.2670 O   0  0  0  0  0  0  0  0  0  0  0  0
  -21.8110   -6.7440   22.4460 C   0  0  0  0  0  0  0  0  0  0  0  0
  -21.2450   -7.3660   23.5800 C   0  0  0  0  0  3  0  0  0  0  0  0
  -21.0050   -6.6150   24.7490 C   0  0  0  0  0  3  0  0  0  0  0  0
  -21.3210   -5.2440   24.7820 C   0  0  0  0  0  0  0  0  0  0  0  0
  -21.8810   -4.6220   23.6520 C   0  0  0  0  0  3  0  0  0  0  0  0
  -22.1220   -5.3690   22.4860 C   0  0  0  0  0  0  0  0  0  0  0  0
  -22.6410   -4.7610   21.3930 F   0  0  0  0  0  0  0  0  0  0  0  0
  -21.0850   -4.5200   25.9010 F   0  0  0  0  0  0  0  0  0  0  0  0
  -23.5080  -13.9910   21.1920 C   0  0  0  0  0  0  0  0  0  0  0  0
  -22.8030  -13.3140   22.0900 N   0  0  0  0  0  0  0  0  0  0  0  0
  -23.1000  -15.0560   20.7320 O   0  0  0  0  0  0  0  0  0  0  0  0
  -23.1470  -12.4500   22.4820 H   0  0  0  0  0  0  0  0  0  0  0  0
  -21.9050  -13.6650   22.3910 H   0  0  0  0  0  0  0  0  0  0  0  0
  -26.1870  -15.5220   20.2730 N   0  0  0  0  0  0  0  0  0  0  0  0
  -25.4720  -16.2170   20.4620 H   0  0  0  0  0  0  0  0  0  0  0  0
  -27.0330  -15.9200   19.8880 H   0  0  0  0  0  0  0  0  0  0  0  0
  -29.5300  -24.1940   20.6380 C   0  0  0  0  0  3  0  0  0  0  0  0
  -28.3710  -25.1210   20.1240 C   0  0  0  0  0  3  0  0  0  0  0  0
  -28.5200  -26.5620   20.3680 O   0  0  0  0  0  0  0  0  0  0  0  0
  -24.5810  -31.8310   23.2630 C   0  0  0  0  0  0  0  0  0  0  0  0
  -27.3700  -27.3510   20.2880 C   0  0  0  0  0  0  0  0  0  0  0  0
  -23.4510  -30.4120   21.5880 C   0  0  0  0  0  3  0  0  0  0  0  0
  -24.9700  -28.8910   20.2100 C   0  0  0  0  0  0  0  0  0  0  0  0
  -25.9860  -30.7850   21.4770 C   0  0  0  0  0  2  0  0  0  0  0  0
  -26.1090  -29.4110   20.8360 C   0  0  0  0  0  0  0  0  0  0  0  0
  -27.3140  -28.6530   20.8650 C   0  0  0  0  0  3  0  0  0  0  0  0
  -26.2050  -26.8740   19.6430 C   0  0  0  0  0  3  0  0  0  0  0  0
  -25.0180  -27.6250   19.6070 C   0  0  0  0  0  3  0  0  0  0  0  0
  -23.7170  -29.7390   20.2160 C   0  0  0  0  0  2  0  0  0  0  0  0
  -24.6890  -31.0260   22.1670 N   0  0  0  0  0  0  0  0  0  0  0  0
  -23.4780  -32.0910   23.7640 O   0  0  0  0  0  0  0  0  0  0  0  0
  -22.7780  -29.3840   22.5270 C   0  0  0  0  0  0  0  0  0  0  0  0
  -21.4660  -29.1640   22.3410 N   0  0  0  0  0  0  0  0  0  0  0  0
  -23.4390  -28.7860   23.3820 O   0  0  0  0  0  0  0  0  0  0  0  0
  -20.9940  -29.7000   21.6260 H   0  0  0  0  0  0  0  0  0  0  0  0
  -18.0980  -27.9060   22.7230 C   0  0  0  0  0  0  0  0  0  0  0  0
  -20.6390  -28.2130   23.0840 C   0  0  0  0  0  3  0  0  0  0  0  0
  -20.7880  -26.7830   22.5130 C   0  0  0  0  0  2  0  0  0  0  0  0
  -19.7290  -26.4390   21.4610 C   0  0  0  0  0  2  0  0  0  0  0  0
  -18.3230  -26.5600   22.0570 C   0  0  0  0  0  2  0  0  0  0  0  0
  -19.1860  -28.6890   23.1910 C   0  0  0  0  0  0  0  0  0  0  0  0
  -18.9240  -29.9480   23.7730 C   0  0  0  0  0  3  0  0  0  0  0  0
  -17.6050  -30.4260   23.8900 C   0  0  0  0  0  3  0  0  0  0  0  0
  -16.5300  -29.6410   23.4390 C   0  0  0  0  0  3  0  0  0  0  0  0
  -16.7770  -28.3820   22.8610 C   0  0  0  0  0  3  0  0  0  0  0  0
  -25.8360  -32.4840   23.9220 C   0  0  0  0  0  3  0  0  0  0  0  0
  -26.3070  -31.7370   25.2310 C   0  0  1  0  0  0  0  0  0  0  0  0
  -25.1660  -31.4660   26.2380 C   0  0  0  0  0  1  0  0  0  0  0  0
  -26.9590  -30.3800   24.8800 C   0  0  0  0  0  1  0  0  0  0  0  0
  -27.3910  -32.5740   25.9500 C   0  0  0  0  0  1  0  0  0  0  0  0
  -25.5030  -33.8850   24.2170 N   0  0  0  0  0  0  0  0  0  0  0  0
  -25.8630  -34.9280   23.4590 C   0  0  0  0  0  0  0  0  0  0  0  0
  -26.5790  -34.8140   22.4610 O   0  0  0  0  0  0  0  0  0  0  0  0
  -24.8720  -34.0470   24.9890 H   0  0  0  0  0  0  0  0  0  0  0  0
  -24.1480  -36.7070   22.9920 C   0  0  0  0  0  1  0  0  0  0  0  0
  -25.3460  -36.3200   23.8720 C   0  0  0  0  0  3  0  0  0  0  0  0
  -27.4200  -37.2350   24.8150 C   0  0  0  0  0  1  0  0  0  0  0  0
  -26.3780  -37.3750   23.8000 N   0  0  0  0  0  0  0  0  0  0  0  0
  -25.9600  -38.2960   23.9020 H   0  0  0  0  0  0  0  0  0  0  0  0
  1  4  1  0
  2  1  1  0
  2  6  1  0
  3  1  2  0
  3  5  1  0
  6 48  1  0
  6  4  1  0
  7  2  2  0
  8  3  1  0
  8  9  1  0
 10 16  1  0
 10 18  1  0
 11 16  1  0
 12 13  1  0
 12 11  1  0
 14 13  1  0
 14 23  1  0
 14 15  1  0
 16 15  1  0
 17 10  2  0
 18  9  1  0
 18 19  1  0
 20 21  2  0
 21 40  1  0
 22 21  1  0
 22 25  1  0
 23 24  1  0
 23 20  1  0
 24 22  2  0
 25 26  1  0
 26 27  2  0
 28 31  1  0
 28 27  1  0
 29 28  2  0
 30 29  1  0
 30 25  2  0
 31 32  1  0
 32 37  2  0
 32 33  1  0
 33 34  2  0
 34 35  1  0
 35 39  1  0
 36 35  2  0
 37 36  1  0
 38 37  1  0
 40 41  1  0
 41 44  1  0
 41 43  1  0
 42 40  2  0
 45 20  1  0
 45 46  1  0
 47 45  1  0
 49 50  1  0
 49 48  2  0
 51 62  2  0
 52 50  1  0
 52 57  1  0
 53 61  1  0
 53 63  1  0
 54 60  1  0
 54 56  1  0
 55 61  1  0
 56 57  2  0
 56 55  1  0
 58 52  2  0
 59 58  1  0
 59 54  2  0
 60 53  1  0
 61 51  1  0
 63 65  2  0
 64 63  1  0
 66 64  1  0
 67 76  2  0
 67 72  1  0
 68 64  1  0
 68 72  1  0
 69 68  1  0
 70 71  1  0
 70 69  1  0
 71 67  1  0
 72 73  2  0
 73 74  1  0
 75 74  2  0
 76 75  1  0
 77 51  1  0
 77 82  1  0
 77 78  1  0
 78 81  1  1
 78 79  1  0
 80 78  1  0
 82 85  1  0
 83 87  1  0
 83 82  1  0
 84 83  2  0
 87 86  1  0
 89 87  1  0
 89 90  1  0
 89 88  1  0
M  ISO  4  10 100  18 100  49 101  50 101
M  END
>  <TORSDO>  (83) 
F 20

>  <SCORE>  (83) 
-12.978

>  <name>  (83) 
84

>  <ligand_id>  (83) 
84

>  <original_smiles>  (83) 
[H]c1c([H])c([H])c2c(c1[H])C([H])([H])C([H])([H])C([H])([H])C2([H])N([H])C(=O)C1([H])N(C(=O)C([H])(N([H])C(=O)C([H])(N([H])C([H])([H])[H])C([H])([H])[H])C(C([H])([H])[H])(C([H])([H])[H])C([H])([H])[H])C([H])([H])c2c([H])c(OC([H])([H])C([H])([H])N3C(=O)C(=C(C([H])([H])[H])C([H])([H])C([H])([H])N([H])C(=O)N4C([H])([H])C([H])([H])C([H])([H])C([H])(n5nc(-c6c([H])c([H])c(Oc7c([H])c([H])c(F)c([H])c7F)c([H])c6[H])c(C(=O)N([H])[H])c5N([H])[H])C4([H])[H])C3([H])[H])c([H])c([H])c2C1([H])[H]

>  <smiles>  (83) 
[H]c1c([H])c([H])c2c(c1[H])C([H])([H])C([H])([H])C([H])([H])C2([H])N([H])C(=O)C1([H])N(C(=O)C([H])(N([H])C(=O)C([H])(N([H])C([H])([H])[H])C([H])([H])[H])C(C([H])([H])[H])(C([H])([H])[H])C([H])([H])[H])C([H])([H])c2c([H])c(OC([H])([H])C([H])([H])N3C(=O)C(=C(C([H])([H])[H])C([H])([H])C([H])([H])N([H])C(=O)N4C([H])([H])C([H])([H])C([H])([H])C([H])(n5nc(-c6c([H])c([H])c(Oc7c([H])c([H])c(F)c([H])c7F)c([H])c6[H])c(C(=O)N([H])[H])c5N([H])[H])C4([H])[H])C3([H])[H])c([H])c([H])c2C1([H])[H]

$$$$
85:0:0
     RDKit          3D

 99107  0  0  1  0  0  0  0  0999 V2000
  -29.6930  -20.0510   17.6180 C   0  0  0  0  0  2  0  0  0  0  0  0
  -30.6180  -19.0020   18.2290 C   0  0  0  0  0  2  0  0  0  0  0  0
  -29.0810  -19.6860   19.9340 C   0  0  0  0  0  2  0  0  0  0  0  0
  -29.1000  -20.7770   18.8400 C   0  0  0  0  0  3  0  0  0  0  0  0
  -29.9470  -18.5710   19.4700 N   0  0  2  0  0  4  0  0  0  0  0  0
  -29.3250  -17.8060   19.2410 H   0  0  0  0  0  0  0  0  0  0  0  0
  -29.8940  -22.0240   19.2730 C   0  0  0  0  0  0  0  0  0  0  0  0
  -31.0290  -22.2530   18.8450 O   0  0  0  0  0  0  0  0  0  0  0  0
  -29.2290  -22.9770   20.2680 C   0  0  0  0  0  2  0  0  0  0  0  0
  -29.0930  -24.4120   19.7240 C   0  0  0  0  0  2  0  0  0  0  0  0
  -28.3290  -25.3320   20.6890 C   0  0  0  0  0  2  0  0  0  0  0  0
  -28.3690  -26.6790   20.2150 O   0  0  0  0  0  0  0  0  0  0  0  0
  -24.4770  -31.8650   23.1270 C   0  0  0  0  0  0  0  0  0  0  0  0
  -27.1790  -27.3690   20.2060 C   0  0  0  0  0  0  0  0  0  0  0  0
  -23.2960  -30.4190   21.5020 C   0  0  0  0  0  3  0  0  0  0  0  0
  -24.7740  -28.8480   20.1390 C   0  0  0  0  0  0  0  0  0  0  0  0
  -25.8180  -30.7880   21.3230 C   0  0  0  0  0  2  0  0  0  0  0  0
  -25.9190  -29.3980   20.7300 C   0  0  0  0  0  0  0  0  0  0  0  0
  -27.1260  -28.6660   20.7580 C   0  0  0  0  0  3  0  0  0  0  0  0
  -26.0210  -26.8250   19.6100 C   0  0  0  0  0  3  0  0  0  0  0  0
  -24.8190  -27.5590   19.5760 C   0  0  0  0  0  3  0  0  0  0  0  0
  -23.5240  -29.7010   20.1450 C   0  0  0  0  0  2  0  0  0  0  0  0
  -24.5490  -31.0390   22.0450 N   0  0  0  0  0  0  0  0  0  0  0  0
  -23.3880  -32.1490   23.6450 O   0  0  0  0  0  0  0  0  0  0  0  0
  -22.6330  -29.4220   22.4770 C   0  0  0  0  0  0  0  0  0  0  0  0
  -21.3010  -29.2800   22.3700 N   0  0  0  0  0  0  0  0  0  0  0  0
  -23.3090  -28.7800   23.2850 O   0  0  0  0  0  0  0  0  0  0  0  0
  -20.8180  -29.8550   21.6940 H   0  0  0  0  0  0  0  0  0  0  0  0
  -17.8910  -28.2550   22.9820 C   0  0  0  0  0  0  0  0  0  0  0  0
  -20.4670  -28.3680   23.1520 C   0  0  0  0  0  3  0  0  0  0  0  0
  -20.4660  -26.9490   22.5380 C   0  0  0  0  0  2  0  0  0  0  0  0
  -19.3070  -26.7120   21.5660 C   0  0  0  0  0  2  0  0  0  0  0  0
  -17.9650  -26.9150   22.2720 C   0  0  0  0  0  2  0  0  0  0  0  0
  -19.0660  -28.9460   23.3810 C   0  0  0  0  0  0  0  0  0  0  0  0
  -18.9430  -30.2050   24.0040 C   0  0  0  0  0  3  0  0  0  0  0  0
  -17.6770  -30.7750   24.2320 C   0  0  0  0  0  3  0  0  0  0  0  0
  -16.5150  -30.0810   23.8500 C   0  0  0  0  0  3  0  0  0  0  0  0
  -16.6230  -28.8210   23.2330 C   0  0  0  0  0  3  0  0  0  0  0  0
  -25.7540  -32.5080   23.7560 C   0  0  0  0  0  3  0  0  0  0  0  0
  -26.3080  -31.7090   24.9980 C   0  0  1  0  0  0  0  0  0  0  0  0
  -25.2330  -31.3870   26.0620 C   0  0  0  0  0  1  0  0  0  0  0  0
  -26.9360  -30.3730   24.5420 C   0  0  0  0  0  1  0  0  0  0  0  0
  -27.4370  -32.5160   25.6810 C   0  0  0  0  0  1  0  0  0  0  0  0
  -25.4160  -33.8870   24.1310 N   0  0  0  0  0  0  0  0  0  0  0  0
  -25.7060  -34.9670   23.3930 C   0  0  0  0  0  0  0  0  0  0  0  0
  -26.3580  -34.9090   22.3470 O   0  0  0  0  0  0  0  0  0  0  0  0
  -24.8270  -34.0040   24.9430 H   0  0  0  0  0  0  0  0  0  0  0  0
  -23.9180  -36.7160   23.1230 C   0  0  0  0  0  1  0  0  0  0  0  0
  -25.1890  -36.3300   23.8950 C   0  0  0  0  0  3  0  0  0  0  0  0
  -27.3130  -37.2580   24.7000 C   0  0  0  0  0  1  0  0  0  0  0  0
  -26.1880  -37.4140   23.7830 N   0  0  0  0  0  0  0  0  0  0  0  0
  -25.7590  -38.3190   23.9610 H   0  0  0  0  0  0  0  0  0  0  0  0
  -30.8710  -18.0210   20.4880 C   0  0  0  0  0  2  0  0  0  0  0  0
  -30.1970  -16.8490   21.2130 C   0  0  0  0  0  0  0  0  0  0  0  0
  -29.0360  -16.5160   20.9520 O   0  0  0  0  0  0  0  0  0  0  0  0
  -31.4930  -16.9760   23.3920 C   0  0  0  0  0  1  0  0  0  0  0  0
  -31.0250  -16.0650   22.2420 C   0  0  0  0  0  3  0  0  0  0  0  0
  -32.2160  -15.3110   21.5950 C   0  0  0  0  0  2  0  0  0  0  0  0
  -32.1330  -12.9020   22.3710 C   0  0  0  0  0  1  0  0  0  0  0  0
  -33.0380  -13.4430   20.1190 C   0  0  0  0  0  1  0  0  0  0  0  0
  -31.9670  -13.8430   21.1600 C   0  0  2  0  0  0  0  0  0  0  0  0
  -30.1450  -13.8490   19.3800 C   0  0  0  0  0  0  0  0  0  0  0  0
  -29.1850  -12.2950   17.7470 C   0  0  0  0  0  2  0  0  0  0  0  0
  -27.9710  -12.7780   16.9490 C   0  0  0  0  0  2  0  0  0  0  0  0
  -26.6780  -12.4980   17.7310 C   0  0  0  0  0  2  0  0  0  0  0  0
  -26.7360  -13.0460   19.1800 C   0  0  0  0  0  3  0  0  0  0  0  0
  -28.0330  -12.6100   19.8990 C   0  0  0  0  0  2  0  0  0  0  0  0
  -29.1930  -12.9500   19.0580 N   0  0  0  0  0  0  0  0  0  0  0  0
  -30.7350  -14.5610   18.5620 O   0  0  0  0  0  0  0  0  0  0  0  0
  -30.6200  -13.6160   20.6160 N   0  0  0  0  0  0  0  0  0  0  0  0
  -30.0560  -12.9660   21.1410 H   0  0  0  0  0  0  0  0  0  0  0  0
  -24.5370  -13.4590   20.4600 C   0  0  0  0  0  0  0  0  0  0  0  0
  -23.6200  -12.6010   21.0040 C   0  0  0  0  0  0  0  0  0  0  0  0
  -24.1270  -11.2840   20.7730 C   0  0  0  0  0  0  0  0  0  0  0  0
  -25.5440  -12.6610   19.9370 N   0  0  0  0  0  0  0  0  0  0  0  0
  -25.3110  -11.3460   20.1770 N   0  0  0  0  0  0  0  0  0  0  0  0
  -23.5250   -9.9700   21.0330 C   0  0  0  0  0  0  0  0  0  0  0  0
  -24.1070   -9.0590   21.9430 C   0  0  0  0  0  3  0  0  0  0  0  0
  -23.5010   -7.8090   22.1880 C   0  0  0  0  0  3  0  0  0  0  0  0
  -22.2990   -7.4590   21.5280 C   0  0  0  0  0  0  0  0  0  0  0  0
  -21.7360   -8.3610   20.6090 C   0  0  0  0  0  3  0  0  0  0  0  0
  -22.3430   -9.6030   20.3600 C   0  0  0  0  0  3  0  0  0  0  0  0
  -21.6540   -6.2570   21.6860 O   0  0  0  0  0  0  0  0  0  0  0  0
  -21.6810   -5.5760   22.8770 C   0  0  0  0  0  0  0  0  0  0  0  0
  -21.1700   -6.1370   24.0690 C   0  0  0  0  0  3  0  0  0  0  0  0
  -21.1540   -5.3760   25.2550 C   0  0  0  0  0  3  0  0  0  0  0  0
  -21.6390   -4.0560   25.2510 C   0  0  0  0  0  0  0  0  0  0  0  0
  -22.1420   -3.4920   24.0650 C   0  0  0  0  0  3  0  0  0  0  0  0
  -22.1610   -4.2510   22.8800 C   0  0  0  0  0  0  0  0  0  0  0  0
  -22.6280   -3.6980   21.7360 F   0  0  0  0  0  0  0  0  0  0  0  0
  -21.6160   -3.3210   26.3880 F   0  0  0  0  0  0  0  0  0  0  0  0
  -22.3020  -12.9720   21.6210 C   0  0  0  0  0  0  0  0  0  0  0  0
  -21.8270  -12.1820   22.5760 N   0  0  0  0  0  0  0  0  0  0  0  0
  -21.7110  -13.9990   21.2900 O   0  0  0  0  0  0  0  0  0  0  0  0
  -22.3200  -11.3490   22.8620 H   0  0  0  0  0  0  0  0  0  0  0  0
  -20.9520  -12.4140   23.0270 H   0  0  0  0  0  0  0  0  0  0  0  0
  -24.5870  -14.8450   20.3480 N   0  0  0  0  0  0  0  0  0  0  0  0
  -23.8390  -15.4410   20.6830 H   0  0  0  0  0  0  0  0  0  0  0  0
  -25.3320  -15.3600   19.8940 H   0  0  0  0  0  0  0  0  0  0  0  0
  1  2  1  0
  1  4  1  0
  2  5  1  0
  4  7  1  0
  4  3  1  0
  5  3  1  0
  5 53  1  0
  5  6  1  6
  7  9  1  0
  8  7  2  0
 10  9  1  0
 10 11  1  0
 12 11  1  0
 13 24  2  0
 14 12  1  0
 14 19  1  0
 15 23  1  0
 15 25  1  0
 16 22  1  0
 16 18  1  0
 17 23  1  0
 18 19  2  0
 18 17  1  0
 20 14  2  0
 21 20  1  0
 21 16  2  0
 22 15  1  0
 23 13  1  0
 25 27  2  0
 26 25  1  0
 28 26  1  0
 29 38  2  0
 29 34  1  0
 30 26  1  0
 30 34  1  0
 31 30  1  0
 32 33  1  0
 32 31  1  0
 33 29  1  0
 34 35  2  0
 35 36  1  0
 37 36  2  0
 38 37  1  0
 39 13  1  0
 39 44  1  0
 39 40  1  0
 40 43  1  1
 40 41  1  0
 42 40  1  0
 44 47  1  0
 45 49  1  0
 45 44  1  0
 46 45  2  0
 49 48  1  0
 51 49  1  0
 51 52  1  0
 51 50  1  0
 53 54  1  0
 54 57  1  0
 55 54  2  0
 57 56  1  0
 58 57  1  0
 61 60  1  6
 61 58  1  0
 61 59  1  0
 62 70  1  0
 63 68  1  0
 64 65  1  0
 64 63  1  0
 66 65  1  0
 66 67  1  0
 66 75  1  0
 68 62  1  0
 68 67  1  0
 69 62  2  0
 70 71  1  0
 70 61  1  0
 72 73  2  0
 73 92  1  0
 74 73  1  0
 74 77  1  0
 75 76  1  0
 75 72  1  0
 76 74  2  0
 77 78  1  0
 78 79  2  0
 80 83  1  0
 80 79  1  0
 81 80  2  0
 82 81  1  0
 82 77  2  0
 83 84  1  0
 84 89  2  0
 84 85  1  0
 85 86  2  0
 87 86  1  0
 87 91  1  0
 88 87  2  0
 89 88  1  0
 90 89  1  0
 92 93  1  0
 93 95  1  0
 93 96  1  0
 94 92  2  0
 97 72  1  0
 97 98  1  0
 99 97  1  0
M  ISO  4  11 101  12 101  62 100  70 100
M  END
>  <TORSDO>  (84) 
F 25

>  <SCORE>  (84) 
-7.003

>  <name>  (84) 
85

>  <ligand_id>  (84) 
85

>  <original_smiles>  (84) 
[H]c1c([H])c([H])c2c(c1[H])C([H])([H])C([H])([H])C([H])([H])C2([H])N([H])C(=O)C1([H])N(C(=O)C([H])(N([H])C(=O)C([H])(N([H])C([H])([H])[H])C([H])([H])[H])C(C([H])([H])[H])(C([H])([H])[H])C([H])([H])[H])C([H])([H])c2c([H])c(OC([H])([H])C([H])([H])C([H])([H])C(=O)C3([H])C([H])([H])C([H])([H])[N+]([H])(C([H])([H])C(=O)C([H])(C([H])([H])[H])C([H])([H])C(N([H])C(=O)N4C([H])([H])C([H])([H])C([H])([H])C([H])(n5nc(-c6c([H])c([H])c(Oc7c([H])c([H])c(F)c([H])c7F)c([H])c6[H])c(C(=O)N([H])[H])c5N([H])[H])C4([H])[H])(C([H])([H])[H])C([H])([H])[H])C3([H])[H])c([H])c([H])c2C1([H])[H]

>  <smiles>  (84) 
[H]c1c([H])c([H])c2c(c1[H])C([H])([H])C([H])([H])C([H])([H])C2([H])N([H])C(=O)C1([H])N(C(=O)C([H])(N([H])C(=O)C([H])(N([H])C([H])([H])[H])C([H])([H])[H])C(C([H])([H])[H])(C([H])([H])[H])C([H])([H])[H])C([H])([H])c2c([H])c(OC([H])([H])C([H])([H])C([H])([H])C(=O)C3([H])C([H])([H])C([H])([H])[N+]([H])(C([H])([H])C(=O)C([H])(C([H])([H])[H])C([H])([H])C(N([H])C(=O)N4C([H])([H])C([H])([H])C([H])([H])C([H])(n5nc(-c6c([H])c([H])c(Oc7c([H])c([H])c(F)c([H])c7F)c([H])c6[H])c(C(=O)N([H])[H])c5N([H])[H])C4([H])[H])(C([H])([H])[H])C([H])([H])[H])C3([H])[H])c([H])c([H])c2C1([H])[H]

$$$$
86:0:0
     RDKit          3D

 89 97  0  0  1  0  0  0  0  0999 V2000
  -29.6270  -20.6020   18.9100 C   0  0  0  0  0  0  0  0  0  0  0  0
  -29.0410  -21.5920   19.8270 C   0  0  0  0  0  0  0  0  0  0  0  0
  -29.5340  -19.5250   19.9040 C   0  0  0  0  0  0  0  0  0  0  0  0
  -28.7520  -22.9230   19.6210 C   0  0  0  0  0  3  0  0  0  0  0  0
  -29.9690  -18.2220   19.8300 C   0  0  0  0  0  3  0  0  0  0  0  0
  -28.8840  -20.5010   20.9340 C   0  0  0  0  0  2  0  0  0  0  0  0
  -30.0360  -20.6510   17.7460 O   0  0  0  0  0  0  0  0  0  0  0  0
  -27.9490  -23.9400   20.4880 C   0  0  0  0  0  2  0  0  0  0  0  0
  -28.5560  -25.3590   20.8690 C   0  0  0  0  0  2  0  0  0  0  0  0
  -28.3910  -26.5660   20.0500 O   0  0  0  0  0  0  0  0  0  0  0  0
  -24.6260  -31.8760   23.2320 C   0  0  0  0  0  0  0  0  0  0  0  0
  -27.2380  -27.3430   20.1600 C   0  0  0  0  0  0  0  0  0  0  0  0
  -23.4130  -30.4680   21.6040 C   0  0  0  0  0  3  0  0  0  0  0  0
  -24.8570  -28.9130   20.1800 C   0  0  0  0  0  0  0  0  0  0  0  0
  -25.9470  -30.8010   21.4010 C   0  0  0  0  0  2  0  0  0  0  0  0
  -26.0270  -29.4210   20.7610 C   0  0  0  0  0  0  0  0  0  0  0  0
  -27.2240  -28.6470   20.7380 C   0  0  0  0  0  3  0  0  0  0  0  0
  -26.0480  -26.8710   19.5730 C   0  0  0  0  0  3  0  0  0  0  0  0
  -24.8680  -27.6410   19.5810 C   0  0  0  0  0  3  0  0  0  0  0  0
  -23.6160  -29.7820   20.2270 C   0  0  0  0  0  2  0  0  0  0  0  0
  -24.6810  -31.0660   22.1350 N   0  0  0  0  0  0  0  0  0  0  0  0
  -23.5470  -32.1550   23.7720 O   0  0  0  0  0  0  0  0  0  0  0  0
  -22.7610  -29.4540   22.5740 C   0  0  0  0  0  0  0  0  0  0  0  0
  -21.4350  -29.2720   22.4560 N   0  0  0  0  0  0  0  0  0  0  0  0
  -23.4470  -28.8310   23.3900 O   0  0  0  0  0  0  0  0  0  0  0  0
  -20.9450  -29.8210   21.7630 H   0  0  0  0  0  0  0  0  0  0  0  0
  -18.0620  -28.0720   22.9720 C   0  0  0  0  0  0  0  0  0  0  0  0
  -20.6210  -28.3380   23.2330 C   0  0  0  0  0  3  0  0  0  0  0  0
  -20.7220  -26.9050   22.6610 C   0  0  0  0  0  2  0  0  0  0  0  0
  -19.6170  -26.5770   21.6520 C   0  0  0  0  0  2  0  0  0  0  0  0
  -18.2370  -26.7220   22.3010 C   0  0  0  0  0  2  0  0  0  0  0  0
  -19.1800  -28.8390   23.3950 C   0  0  0  0  0  0  0  0  0  0  0  0
  -18.9600  -30.1060   23.9800 C   0  0  0  0  0  3  0  0  0  0  0  0
  -17.6540  -30.6030   24.1480 C   0  0  0  0  0  3  0  0  0  0  0  0
  -16.5500  -29.8340   23.7410 C   0  0  0  0  0  3  0  0  0  0  0  0
  -16.7550  -28.5700   23.1600 C   0  0  0  0  0  3  0  0  0  0  0  0
  -25.9130  -32.5090   23.8470 C   0  0  0  0  0  3  0  0  0  0  0  0
  -26.4430  -31.7370   25.1170 C   0  0  1  0  0  0  0  0  0  0  0  0
  -25.3590  -31.4960   26.1950 C   0  0  0  0  0  1  0  0  0  0  0  0
  -27.0260  -30.3600   24.7180 C   0  0  0  0  0  1  0  0  0  0  0  0
  -27.5990  -32.5320   25.7680 C   0  0  0  0  0  1  0  0  0  0  0  0
  -25.6030  -33.9060   24.1840 N   0  0  0  0  0  0  0  0  0  0  0  0
  -25.9220  -34.9620   23.4250 C   0  0  0  0  0  0  0  0  0  0  0  0
  -26.5810  -34.8640   22.3850 O   0  0  0  0  0  0  0  0  0  0  0  0
  -25.0180  -34.0560   24.9920 H   0  0  0  0  0  0  0  0  0  0  0  0
  -24.1810  -36.7490   23.0940 C   0  0  0  0  0  1  0  0  0  0  0  0
  -25.4340  -36.3480   23.8900 C   0  0  0  0  0  3  0  0  0  0  0  0
  -27.5770  -37.2390   24.6930 C   0  0  0  0  0  1  0  0  0  0  0  0
  -26.4610  -37.4050   23.7660 N   0  0  0  0  0  0  0  0  0  0  0  0
  -26.0560  -38.3250   23.9150 H   0  0  0  0  0  0  0  0  0  0  0  0
  -30.0760  -17.1400   20.9420 C   0  0  0  0  0  2  0  0  0  0  0  0
  -30.5770  -14.6350   20.4010 C   0  0  0  0  0  0  0  0  0  0  0  0
  -30.3700  -12.3990   19.3430 C   0  0  0  0  0  2  0  0  0  0  0  0
  -29.4290  -12.5340   18.1280 C   0  0  0  0  0  2  0  0  0  0  0  0
  -27.9520  -12.3850   18.5490 C   0  0  0  0  0  2  0  0  0  0  0  0
  -27.5920  -13.2500   19.7890 C   0  0  0  0  0  3  0  0  0  0  0  0
  -28.6460  -13.0920   20.9050 C   0  0  0  0  0  2  0  0  0  0  0  0
  -29.9550  -13.4200   20.3220 N   0  0  0  0  0  0  0  0  0  0  0  0
  -31.7660  -14.7800   20.1100 O   0  0  0  0  0  0  0  0  0  0  0  0
  -29.7560  -15.7090   20.6190 N   0  0  0  0  0  0  0  0  0  0  0  0
  -28.7820  -15.4590   20.7130 H   0  0  0  0  0  0  0  0  0  0  0  0
  -25.2030  -13.8630   20.5030 C   0  0  0  0  0  0  0  0  0  0  0  0
  -24.1320  -13.0980   20.8770 C   0  0  0  0  0  0  0  0  0  0  0  0
  -24.5880  -11.7440   20.8570 C   0  0  0  0  0  0  0  0  0  0  0  0
  -26.2430  -12.9770   20.2760 N   0  0  0  0  0  0  0  0  0  0  0  0
  -25.8810  -11.6980   20.5530 N   0  0  0  0  0  0  0  0  0  0  0  0
  -23.8570  -10.4860   21.0500 C   0  0  0  0  0  0  0  0  0  0  0  0
  -24.2920   -9.5140   21.9790 C   0  0  0  0  0  3  0  0  0  0  0  0
  -23.5600   -8.3210   22.1630 C   0  0  0  0  0  3  0  0  0  0  0  0
  -22.3800   -8.0920   21.4170 C   0  0  0  0  0  0  0  0  0  0  0  0
  -21.9640   -9.0520   20.4780 C   0  0  0  0  0  3  0  0  0  0  0  0
  -22.6960  -10.2360   20.2930 C   0  0  0  0  0  3  0  0  0  0  0  0
  -21.6210   -6.9500   21.5080 O   0  0  0  0  0  0  0  0  0  0  0  0
  -21.5880   -6.1950   22.6530 C   0  0  0  0  0  0  0  0  0  0  0  0
  -21.2030   -6.7430   23.8960 C   0  0  0  0  0  3  0  0  0  0  0  0
  -21.1180   -5.9170   25.0350 C   0  0  0  0  0  3  0  0  0  0  0  0
  -21.4060   -4.5430   24.9290 C   0  0  0  0  0  0  0  0  0  0  0  0
  -21.7840   -3.9930   23.6920 C   0  0  0  0  0  3  0  0  0  0  0  0
  -21.8730   -4.8180   22.5570 C   0  0  0  0  0  0  0  0  0  0  0  0
  -22.2160   -4.2790   21.3610 F   0  0  0  0  0  0  0  0  0  0  0  0
  -21.3140   -3.7480   26.0210 F   0  0  0  0  0  0  0  0  0  0  0  0
  -22.7350  -13.5810   21.1340 C   0  0  0  0  0  0  0  0  0  0  0  0
  -21.9990  -12.8970   22.0020 N   0  0  0  0  0  0  0  0  0  0  0  0
  -22.3030  -14.6030   20.6010 O   0  0  0  0  0  0  0  0  0  0  0  0
  -22.3630  -12.0730   22.4580 H   0  0  0  0  0  0  0  0  0  0  0  0
  -21.0590  -13.2010   22.2110 H   0  0  0  0  0  0  0  0  0  0  0  0
  -25.3710  -15.2330   20.3150 N   0  0  0  0  0  0  0  0  0  0  0  0
  -24.5990  -15.8820   20.4130 H   0  0  0  0  0  0  0  0  0  0  0  0
  -26.2060  -15.6680   19.9420 H   0  0  0  0  0  0  0  0  0  0  0  0
  1  2  1  0
  1  3  1  0
  2  6  1  0
  3  6  1  0
  4  2  2  0
  4  8  1  0
  5  3  2  0
  5 51  1  0
  7  1  2  0
  8  9  1  0
 10 12  1  0
 10  9  1  0
 11 22  2  0
 12 17  1  0
 13 21  1  0
 13 23  1  0
 14 20  1  0
 14 16  1  0
 15 21  1  0
 16 15  1  0
 17 16  2  0
 18 19  1  0
 18 12  2  0
 19 14  2  0
 20 13  1  0
 21 11  1  0
 23 25  2  0
 24 23  1  0
 26 24  1  0
 27 36  2  0
 27 32  1  0
 28 24  1  0
 28 32  1  0
 29 28  1  0
 30 31  1  0
 30 29  1  0
 31 27  1  0
 32 33  2  0
 33 34  1  0
 35 34  2  0
 36 35  1  0
 37 11  1  0
 37 42  1  0
 37 38  1  0
 38 41  1  1
 38 39  1  0
 40 38  1  0
 42 45  1  0
 43 47  1  0
 43 42  1  0
 44 43  2  0
 47 46  1  0
 49 47  1  0
 49 50  1  0
 49 48  1  0
 52 60  1  0
 53 58  1  0
 54 55  1  0
 54 53  1  0
 56 55  1  0
 56 65  1  0
 56 57  1  0
 58 52  1  0
 58 57  1  0
 59 52  2  0
 60 61  1  0
 60 51  1  0
 62 63  2  0
 63 82  1  0
 64 63  1  0
 64 67  1  0
 65 62  1  0
 65 66  1  0
 66 64  2  0
 67 68  1  0
 68 69  2  0
 70 73  1  0
 70 69  1  0
 71 70  2  0
 72 71  1  0
 72 67  2  0
 73 74  1  0
 74 75  1  0
 75 76  2  0
 77 76  1  0
 77 81  1  0
 78 77  2  0
 79 74  2  0
 79 78  1  0
 80 79  1  0
 82 83  1  0
 83 86  1  0
 83 85  1  0
 84 82  2  0
 87 88  1  0
 87 62  1  0
 89 87  1  0
M  ISO  4   9 101  10 101  52 100  60 100
M  END
>  <TORSDO>  (85) 
F 19

>  <SCORE>  (85) 
-14.112

>  <name>  (85) 
86

>  <ligand_id>  (85) 
86

>  <original_smiles>  (85) 
[H]C(=C1C(=O)C(=C([H])C([H])([H])C([H])([H])Oc2c([H])c([H])c3c(c2[H])C([H])([H])N(C(=O)C([H])(N([H])C(=O)C([H])(N([H])C([H])([H])[H])C([H])([H])[H])C(C([H])([H])[H])(C([H])([H])[H])C([H])([H])[H])C([H])(C(=O)N([H])C2([H])c4c([H])c([H])c([H])c([H])c4C([H])([H])C([H])([H])C2([H])[H])C3([H])[H])C1([H])[H])C([H])([H])N([H])C(=O)N1C([H])([H])C([H])([H])C([H])([H])C([H])(n2nc(-c3c([H])c([H])c(Oc4c([H])c([H])c(F)c([H])c4F)c([H])c3[H])c(C(=O)N([H])[H])c2N([H])[H])C1([H])[H]

>  <smiles>  (85) 
[H]C(=C1C(=O)C(=C([H])C([H])([H])C([H])([H])Oc2c([H])c([H])c3c(c2[H])C([H])([H])N(C(=O)C([H])(N([H])C(=O)C([H])(N([H])C([H])([H])[H])C([H])([H])[H])C(C([H])([H])[H])(C([H])([H])[H])C([H])([H])[H])C([H])(C(=O)N([H])C2([H])c4c([H])c([H])c([H])c([H])c4C([H])([H])C([H])([H])C2([H])[H])C3([H])[H])C1([H])[H])C([H])([H])N([H])C(=O)N1C([H])([H])C([H])([H])C([H])([H])C([H])(n2nc(-c3c([H])c([H])c(Oc4c([H])c([H])c(F)c([H])c4F)c([H])c3[H])c(C(=O)N([H])[H])c2N([H])[H])C1([H])[H]

$$$$
87:0:0
     RDKit          3D

 89 97  0  0  1  0  0  0  0  0999 V2000
  -29.8480  -21.4720   20.7300 C   0  0  0  0  0  2  0  0  0  0  0  0
  -30.3130  -18.9580   20.2100 C   0  0  0  0  0  0  0  0  0  0  0  0
  -30.3890  -20.2860   19.8910 C   0  0  0  0  0  0  0  0  0  0  0  0
  -29.6790  -18.1250   21.3250 C   0  0  0  0  0  2  0  0  0  0  0  0
  -30.8840  -17.7140   19.5300 C   0  0  0  0  0  2  0  0  0  0  0  0
  -29.6870  -17.0100   20.2260 C   0  0  0  0  0  3  0  0  0  0  0  0
  -31.1700  -20.7240   18.6630 C   0  0  0  0  0  1  0  0  0  0  0  0
  -30.6250  -14.5700   20.2650 C   0  0  0  0  0  0  0  0  0  0  0  0
  -30.3480  -12.3830   19.1550 C   0  0  0  0  0  2  0  0  0  0  0  0
  -29.3830  -12.6020   17.9710 C   0  0  0  0  0  2  0  0  0  0  0  0
  -27.9160  -12.4580   18.4270 C   0  0  0  0  0  2  0  0  0  0  0  0
  -27.6070  -13.2720   19.7130 C   0  0  0  0  0  3  0  0  0  0  0  0
  -28.6900  -13.0350   20.7930 C   0  0  0  0  0  2  0  0  0  0  0  0
  -29.9980  -13.3600   20.2010 N   0  0  0  0  0  0  0  0  0  0  0  0
  -31.7420  -14.7500   19.7710 O   0  0  0  0  0  0  0  0  0  0  0  0
  -29.8510  -15.5970   20.7110 N   0  0  0  0  0  0  0  0  0  0  0  0
  -29.0280  -15.2610   21.1900 H   0  0  0  0  0  0  0  0  0  0  0  0
  -25.2230  -13.8870   20.4540 C   0  0  0  0  0  0  0  0  0  0  0  0
  -24.1590  -13.1190   20.8440 C   0  0  0  0  0  0  0  0  0  0  0  0
  -24.6100  -11.7650   20.8020 C   0  0  0  0  0  0  0  0  0  0  0  0
  -26.2620  -13.0010   20.2140 N   0  0  0  0  0  0  0  0  0  0  0  0
  -25.8980  -11.7190   20.4770 N   0  0  0  0  0  0  0  0  0  0  0  0
  -23.8800  -10.5090   21.0060 C   0  0  0  0  0  0  0  0  0  0  0  0
  -24.3300   -9.5390   21.9260 C   0  0  0  0  0  3  0  0  0  0  0  0
  -23.6020   -8.3450   22.1220 C   0  0  0  0  0  3  0  0  0  0  0  0
  -22.4080   -8.1140   21.3960 C   0  0  0  0  0  0  0  0  0  0  0  0
  -21.9760   -9.0740   20.4680 C   0  0  0  0  0  3  0  0  0  0  0  0
  -22.7030  -10.2600   20.2710 C   0  0  0  0  0  3  0  0  0  0  0  0
  -21.6490   -6.9730   21.5040 O   0  0  0  0  0  0  0  0  0  0  0  0
  -21.6360   -6.2230   22.6510 C   0  0  0  0  0  0  0  0  0  0  0  0
  -21.2520   -6.7680   23.8940 C   0  0  0  0  0  3  0  0  0  0  0  0
  -21.1870   -5.9420   25.0340 C   0  0  0  0  0  3  0  0  0  0  0  0
  -21.4890   -4.5710   24.9290 C   0  0  0  0  0  0  0  0  0  0  0  0
  -21.8630   -4.0240   23.6910 C   0  0  0  0  0  3  0  0  0  0  0  0
  -21.9330   -4.8480   22.5540 C   0  0  0  0  0  0  0  0  0  0  0  0
  -22.2730   -4.3100   21.3580 F   0  0  0  0  0  0  0  0  0  0  0  0
  -21.4180   -3.7760   26.0230 F   0  0  0  0  0  0  0  0  0  0  0  0
  -22.7690  -13.6030   21.1420 C   0  0  0  0  0  0  0  0  0  0  0  0
  -22.0550  -12.9160   22.0250 N   0  0  0  0  0  0  0  0  0  0  0  0
  -22.3250  -14.6280   20.6260 O   0  0  0  0  0  0  0  0  0  0  0  0
  -22.4250  -12.0880   22.4690 H   0  0  0  0  0  0  0  0  0  0  0  0
  -21.1230  -13.2210   22.2620 H   0  0  0  0  0  0  0  0  0  0  0  0
  -25.3890  -15.2580   20.2660 N   0  0  0  0  0  0  0  0  0  0  0  0
  -24.6280  -15.9150   20.3940 H   0  0  0  0  0  0  0  0  0  0  0  0
  -26.2320  -15.6990   19.9200 H   0  0  0  0  0  0  0  0  0  0  0  0
  -28.9690  -22.5600   20.0010 C   0  0  0  0  0  2  0  0  0  0  0  0
  -29.1730  -24.0560   20.4690 C   0  0  0  0  0  3  0  0  0  0  0  0
  -28.0440  -25.0720   20.0640 C   0  0  0  0  0  3  0  0  0  0  0  0
  -28.2930  -26.5090   20.2470 O   0  0  0  0  0  0  0  0  0  0  0  0
  -24.5730  -31.8860   23.2410 C   0  0  0  0  0  0  0  0  0  0  0  0
  -27.1760  -27.3510   20.1830 C   0  0  0  0  0  0  0  0  0  0  0  0
  -23.3750  -30.5030   21.5890 C   0  0  0  0  0  3  0  0  0  0  0  0
  -24.8240  -28.9610   20.1730 C   0  0  0  0  0  0  0  0  0  0  0  0
  -25.9190  -30.8150   21.4260 C   0  0  0  0  0  2  0  0  0  0  0  0
  -25.9930  -29.4460   20.7710 C   0  0  0  0  0  0  0  0  0  0  0  0
  -27.1780  -28.6520   20.7610 C   0  0  0  0  0  3  0  0  0  0  0  0
  -25.9790  -26.9150   19.5660 C   0  0  0  0  0  3  0  0  0  0  0  0
  -24.8150  -27.6990   19.5660 C   0  0  0  0  0  3  0  0  0  0  0  0
  -23.5940  -29.8390   20.2080 C   0  0  0  0  0  2  0  0  0  0  0  0
  -24.6410  -31.0820   22.1420 N   0  0  0  0  0  0  0  0  0  0  0  0
  -23.4870  -32.1660   23.7700 O   0  0  0  0  0  0  0  0  0  0  0  0
  -22.7010  -29.4790   22.5350 C   0  0  0  0  0  0  0  0  0  0  0  0
  -21.3740  -29.3090   22.3980 N   0  0  0  0  0  0  0  0  0  0  0  0
  -23.3710  -28.8420   23.3530 O   0  0  0  0  0  0  0  0  0  0  0  0
  -20.8900  -29.8830   21.7200 H   0  0  0  0  0  0  0  0  0  0  0  0
  -17.9850  -28.1480   22.8800 C   0  0  0  0  0  0  0  0  0  0  0  0
  -20.5450  -28.3750   23.1620 C   0  0  0  0  0  3  0  0  0  0  0  0
  -20.6310  -26.9460   22.5780 C   0  0  0  0  0  2  0  0  0  0  0  0
  -19.5300  -26.6430   21.5560 C   0  0  0  0  0  2  0  0  0  0  0  0
  -18.1470  -26.8010   22.1960 C   0  0  0  0  0  2  0  0  0  0  0  0
  -19.1100  -28.8940   23.3190 C   0  0  0  0  0  0  0  0  0  0  0  0
  -18.9030  -30.1560   23.9190 C   0  0  0  0  0  3  0  0  0  0  0  0
  -17.6040  -30.6730   24.0760 C   0  0  0  0  0  3  0  0  0  0  0  0
  -16.4930  -29.9240   23.6550 C   0  0  0  0  0  3  0  0  0  0  0  0
  -16.6840  -28.6620   23.0640 C   0  0  0  0  0  3  0  0  0  0  0  0
  -25.8540  -32.5110   23.8730 C   0  0  0  0  0  3  0  0  0  0  0  0
  -26.3530  -31.7410   25.1580 C   0  0  1  0  0  0  0  0  0  0  0  0
  -25.2460  -31.5140   26.2120 C   0  0  0  0  0  1  0  0  0  0  0  0
  -26.9320  -30.3570   24.7790 C   0  0  0  0  0  1  0  0  0  0  0  0
  -27.5030  -32.5290   25.8300 C   0  0  0  0  0  1  0  0  0  0  0  0
  -25.5520  -33.9120   24.1970 N   0  0  0  0  0  0  0  0  0  0  0  0
  -25.8960  -34.9600   23.4350 C   0  0  0  0  0  0  0  0  0  0  0  0
  -26.5720  -34.8470   22.4080 O   0  0  0  0  0  0  0  0  0  0  0  0
  -24.9480  -34.0760   24.9890 H   0  0  0  0  0  0  0  0  0  0  0  0
  -24.1830  -36.7630   23.0630 C   0  0  0  0  0  1  0  0  0  0  0  0
  -25.4160  -36.3530   23.8830 C   0  0  0  0  0  3  0  0  0  0  0  0
  -27.5510  -37.2290   24.7230 C   0  0  0  0  0  1  0  0  0  0  0  0
  -26.4560  -37.4000   23.7710 N   0  0  0  0  0  0  0  0  0  0  0  0
  -26.0540  -38.3210   23.9120 H   0  0  0  0  0  0  0  0  0  0  0  0
  2  4  1  0
  3  2  2  0
  3  1  1  0
  5  2  1  0
  5  6  1  0
  6 16  1  0
  6  4  1  0
  7  3  1  0
  8 16  1  0
  9 14  1  0
 10 11  1  0
 10  9  1  0
 12 11  1  0
 12 21  1  0
 12 13  1  0
 14  8  1  0
 14 13  1  0
 15  8  2  0
 16 17  1  0
 18 19  2  0
 19 38  1  0
 20 19  1  0
 20 23  1  0
 21 18  1  0
 21 22  1  0
 22 20  2  0
 23 24  1  0
 24 25  2  0
 26 29  1  0
 26 25  1  0
 27 26  2  0
 28 27  1  0
 28 23  2  0
 29 30  1  0
 30 31  1  0
 31 32  2  0
 33 32  1  0
 33 37  1  0
 34 33  2  0
 35 30  2  0
 35 34  1  0
 36 35  1  0
 38 39  1  0
 39 42  1  0
 39 41  1  0
 40 38  2  0
 43 44  1  0
 43 18  1  0
 45 43  1  0
 46 47  1  0
 46  1  1  0
 48 49  1  0
 48 47  2  0
 50 61  2  0
 51 49  1  0
 51 56  1  0
 52 60  1  0
 52 62  1  0
 53 59  1  0
 53 55  1  0
 54 60  1  0
 55 54  1  0
 56 55  2  0
 57 51  2  0
 58 57  1  0
 58 53  2  0
 59 52  1  0
 60 50  1  0
 62 64  2  0
 63 62  1  0
 65 63  1  0
 66 75  2  0
 66 71  1  0
 67 63  1  0
 67 71  1  0
 68 67  1  0
 69 70  1  0
 69 68  1  0
 70 66  1  0
 71 72  2  0
 72 73  1  0
 74 73  2  0
 75 74  1  0
 76 50  1  0
 76 81  1  0
 76 77  1  0
 77 80  1  1
 77 78  1  0
 79 77  1  0
 81 84  1  0
 82 86  1  0
 82 81  1  0
 83 82  2  0
 86 85  1  0
 88 86  1  0
 88 89  1  0
 88 87  1  0
M  ISO  4   8 100  16 100  48 101  49 101
M  END
>  <TORSDO>  (86) 
F 20

>  <SCORE>  (86) 
-13.639

>  <name>  (86) 
87

>  <ligand_id>  (86) 
87

>  <original_smiles>  (86) 
[H]c1c([H])c([H])c2c(c1[H])C([H])([H])C([H])([H])C([H])([H])C2([H])N([H])C(=O)C1([H])N(C(=O)C([H])(N([H])C(=O)C([H])(N([H])C([H])([H])[H])C([H])([H])[H])C(C([H])([H])[H])(C([H])([H])[H])C([H])([H])[H])C([H])([H])c2c([H])c(OC([H])([H])C([H])([H])C([H])([H])C([H])([H])C(=C3C([H])([H])C([H])(N([H])C(=O)N4C([H])([H])C([H])([H])C([H])([H])C([H])(n5nc(-c6c([H])c([H])c(Oc7c([H])c([H])c(F)c([H])c7F)c([H])c6[H])c(C(=O)N([H])[H])c5N([H])[H])C4([H])[H])C3([H])[H])C([H])([H])[H])c([H])c([H])c2C1([H])[H]

>  <smiles>  (86) 
[H]c1c([H])c([H])c2c(c1[H])C([H])([H])C([H])([H])C([H])([H])C2([H])N([H])C(=O)C1([H])N(C(=O)C([H])(N([H])C(=O)C([H])(N([H])C([H])([H])[H])C([H])([H])[H])C(C([H])([H])[H])(C([H])([H])[H])C([H])([H])[H])C([H])([H])c2c([H])c(OC([H])([H])C([H])([H])C([H])([H])C([H])([H])C(=C3C([H])([H])C([H])(N([H])C(=O)N4C([H])([H])C([H])([H])C([H])([H])C([H])(n5nc(-c6c([H])c([H])c(Oc7c([H])c([H])c(F)c([H])c7F)c([H])c6[H])c(C(=O)N([H])[H])c5N([H])[H])C4([H])[H])C3([H])[H])C([H])([H])[H])c([H])c([H])c2C1([H])[H]

$$$$
88:0:0
     RDKit          3D

 93101  0  0  1  0  0  0  0  0999 V2000
  -29.6910  -22.6130   22.1390 C   0  0  0  0  0  3  0  0  0  0  0  0
  -30.5690  -23.2050   19.9490 C   0  0  0  0  0  3  0  0  0  0  0  0
  -29.2420  -23.9400   22.3160 C   0  0  0  0  0  3  0  0  0  0  0  0
  -30.1180  -24.5270   20.1250 C   0  0  0  0  0  3  0  0  0  0  0  0
  -30.3450  -22.2250   20.9440 C   0  0  0  0  0  0  0  0  0  0  0  0
  -29.4290  -24.8970   21.2980 C   0  0  0  0  0  0  0  0  0  0  0  0
  -30.7760  -20.8140   20.6760 C   0  0  0  0  0  0  0  0  0  0  0  0
  -31.5160  -20.5690   19.7180 O   0  0  0  0  0  0  0  0  0  0  0  0
  -30.2100  -19.7410   21.5370 C   0  0  0  0  0  3  0  0  0  0  0  0
  -30.5510  -18.4280   21.5330 C   0  0  0  0  0  0  0  0  0  0  0  0
  -29.8040  -17.4640   22.4450 C   0  0  0  0  0  1  0  0  0  0  0  0
  -31.6460  -17.8110   20.6480 C   0  0  0  0  0  2  0  0  0  0  0  0
  -32.2890  -16.4860   21.1250 C   0  0  0  0  0  2  0  0  0  0  0  0
  -31.7850  -14.4640   19.7490 C   0  0  0  0  0  0  0  0  0  0  0  0
  -31.2070  -12.3210   18.6680 C   0  0  0  0  0  2  0  0  0  0  0  0
  -30.2190  -12.5050   17.5030 C   0  0  0  0  0  2  0  0  0  0  0  0
  -28.7650  -12.5120   18.0130 C   0  0  0  0  0  2  0  0  0  0  0  0
  -28.5600  -13.4710   19.2130 C   0  0  0  0  0  3  0  0  0  0  0  0
  -29.6430  -13.2420   20.2890 C   0  0  0  0  0  2  0  0  0  0  0  0
  -30.9700  -13.3820   19.6580 N   0  0  0  0  0  0  0  0  0  0  0  0
  -32.7590  -14.6430   19.0120 O   0  0  0  0  0  0  0  0  0  0  0  0
  -31.5040  -15.3060   20.7540 N   0  0  0  0  0  0  0  0  0  0  0  0
  -30.7180  -15.0650   21.3400 H   0  0  0  0  0  0  0  0  0  0  0  0
  -26.2810  -14.3330   20.0530 C   0  0  0  0  0  0  0  0  0  0  0  0
  -25.1620  -13.6780   20.4920 C   0  0  0  0  0  0  0  0  0  0  0  0
  -25.4760  -12.2850   20.4450 C   0  0  0  0  0  0  0  0  0  0  0  0
  -27.2130  -13.3460   19.7690 N   0  0  0  0  0  0  0  0  0  0  0  0
  -26.7330  -12.1090   20.0580 N   0  0  0  0  0  0  0  0  0  0  0  0
  -24.6340  -11.1070   20.6890 C   0  0  0  0  0  0  0  0  0  0  0  0
  -24.9790  -10.1420   21.6600 C   0  0  0  0  0  3  0  0  0  0  0  0
  -24.1450   -9.0270   21.8890 C   0  0  0  0  0  3  0  0  0  0  0  0
  -22.9500   -8.8690   21.1480 C   0  0  0  0  0  0  0  0  0  0  0  0
  -22.6220   -9.8210   20.1650 C   0  0  0  0  0  3  0  0  0  0  0  0
  -23.4570  -10.9280   19.9350 C   0  0  0  0  0  3  0  0  0  0  0  0
  -22.0920   -7.8050   21.2830 O   0  0  0  0  0  0  0  0  0  0  0  0
  -21.9200   -7.1690   22.4870 C   0  0  0  0  0  0  0  0  0  0  0  0
  -21.5020   -7.8640   23.6430 C   0  0  0  0  0  3  0  0  0  0  0  0
  -21.2690   -7.1600   24.8410 C   0  0  0  0  0  3  0  0  0  0  0  0
  -21.4430   -5.7630   24.8830 C   0  0  0  0  0  0  0  0  0  0  0  0
  -21.8530   -5.0690   23.7310 C   0  0  0  0  0  3  0  0  0  0  0  0
  -22.0870   -5.7710   22.5360 C   0  0  0  0  0  0  0  0  0  0  0  0
  -22.4610   -5.0940   21.4230 F   0  0  0  0  0  0  0  0  0  0  0  0
  -21.2110   -5.0850   26.0330 F   0  0  0  0  0  0  0  0  0  0  0  0
  -23.8420  -14.3000   20.8440 C   0  0  0  0  0  0  0  0  0  0  0  0
  -23.1120  -13.7020   21.7790 N   0  0  0  0  0  0  0  0  0  0  0  0
  -23.4700  -15.3520   20.3250 O   0  0  0  0  0  0  0  0  0  0  0  0
  -23.4260  -12.8490   22.2210 H   0  0  0  0  0  0  0  0  0  0  0  0
  -22.2260  -14.1010   22.0570 H   0  0  0  0  0  0  0  0  0  0  0  0
  -26.5800  -15.6790   19.8540 N   0  0  0  0  0  0  0  0  0  0  0  0
  -25.9020  -16.4160   20.0130 H   0  0  0  0  0  0  0  0  0  0  0  0
  -27.4590  -16.0200   19.4850 H   0  0  0  0  0  0  0  0  0  0  0  0
  -28.8900  -26.3110   21.4450 C   0  0  0  0  0  2  0  0  0  0  0  0
  -28.3570  -26.7690   20.2050 O   0  0  0  0  0  0  0  0  0  0  0  0
  -24.5500  -31.9440   23.3090 C   0  0  0  0  0  0  0  0  0  0  0  0
  -27.2020  -27.5030   20.2720 C   0  0  0  0  0  0  0  0  0  0  0  0
  -23.3420  -30.5270   21.6750 C   0  0  0  0  0  3  0  0  0  0  0  0
  -24.7990  -28.9770   20.2700 C   0  0  0  0  0  0  0  0  0  0  0  0
  -25.8640  -30.8930   21.4740 C   0  0  0  0  0  2  0  0  0  0  0  0
  -25.9520  -29.5140   20.8600 C   0  0  0  0  0  0  0  0  0  0  0  0
  -27.1560  -28.7800   20.8710 C   0  0  0  0  0  3  0  0  0  0  0  0
  -26.0420  -26.9740   19.6740 C   0  0  0  0  0  3  0  0  0  0  0  0
  -24.8370  -27.7010   19.6790 C   0  0  0  0  0  3  0  0  0  0  0  0
  -23.5530  -29.8330   20.3020 C   0  0  0  0  0  2  0  0  0  0  0  0
  -24.6030  -31.1360   22.2110 N   0  0  0  0  0  0  0  0  0  0  0  0
  -23.4690  -32.2190   23.8480 O   0  0  0  0  0  0  0  0  0  0  0  0
  -22.6920  -29.5150   22.6440 C   0  0  0  0  0  0  0  0  0  0  0  0
  -21.3770  -29.2970   22.4860 N   0  0  0  0  0  0  0  0  0  0  0  0
  -23.3690  -28.9260   23.4900 O   0  0  0  0  0  0  0  0  0  0  0  0
  -20.8910  -29.8260   21.7760 H   0  0  0  0  0  0  0  0  0  0  0  0
  -18.0300  -27.9970   22.8840 C   0  0  0  0  0  0  0  0  0  0  0  0
  -20.5610  -28.3610   23.2590 C   0  0  0  0  0  3  0  0  0  0  0  0
  -20.7420  -26.9130   22.7480 C   0  0  0  0  0  2  0  0  0  0  0  0
  -19.7000  -26.5110   21.7000 C   0  0  0  0  0  2  0  0  0  0  0  0
  -18.2860  -26.6310   22.2750 C   0  0  0  0  0  2  0  0  0  0  0  0
  -19.1000  -28.8170   23.3320 C   0  0  0  0  0  0  0  0  0  0  0  0
  -18.8110  -30.0960   23.8580 C   0  0  0  0  0  3  0  0  0  0  0  0
  -17.4830  -30.5540   23.9440 C   0  0  0  0  0  3  0  0  0  0  0  0
  -16.4260  -29.7330   23.5130 C   0  0  0  0  0  3  0  0  0  0  0  0
  -16.7010  -28.4570   22.9890 C   0  0  0  0  0  3  0  0  0  0  0  0
  -25.8380  -32.5760   23.9220 C   0  0  0  0  0  3  0  0  0  0  0  0
  -25.5400  -33.9800   24.2290 N   0  0  0  0  0  0  0  0  0  0  0  0
  -25.8900  -35.0180   23.4560 C   0  0  0  0  0  0  0  0  0  0  0  0
  -26.5710  -34.8930   22.4350 O   0  0  0  0  0  0  0  0  0  0  0  0
  -24.9400  -34.1520   25.0220 H   0  0  0  0  0  0  0  0  0  0  0  0
  -24.1800  -36.8140   23.0480 C   0  0  0  0  0  1  0  0  0  0  0  0
  -25.4060  -36.4160   23.8850 C   0  0  0  0  0  3  0  0  0  0  0  0
  -27.5380  -37.2940   24.7300 C   0  0  0  0  0  1  0  0  0  0  0  0
  -26.4490  -37.4590   23.7710 N   0  0  0  0  0  0  0  0  0  0  0  0
  -26.0480  -38.3850   23.9020 H   0  0  0  0  0  0  0  0  0  0  0  0
  -26.3520  -31.8200   25.2090 C   0  0  1  0  0  0  0  0  0  0  0  0
  -25.2530  -31.5840   26.2700 C   0  0  0  0  0  1  0  0  0  0  0  0
  -26.9480  -30.4440   24.8300 C   0  0  0  0  0  1  0  0  0  0  0  0
  -27.4920  -32.6280   25.8730 C   0  0  0  0  0  1  0  0  0  0  0  0
  1  3  1  0
  2  4  2  0
  2  5  1  0
  4  6  1  0
  5  1  2  0
  6 52  1  0
  6  3  2  0
  7  5  1  0
  7  9  1  0
  8  7  2  0
 10  9  2  0
 10 11  1  0
 12 13  1  0
 12 10  1  0
 14 22  1  0
 15 20  1  0
 16 17  1  0
 16 15  1  0
 18 17  1  0
 18 27  1  0
 18 19  1  0
 20 14  1  0
 20 19  1  0
 21 14  2  0
 22 13  1  0
 22 23  1  0
 24 25  2  0
 25 44  1  0
 26 25  1  0
 26 29  1  0
 27 24  1  0
 27 28  1  0
 28 26  2  0
 29 30  1  0
 30 31  2  0
 32 35  1  0
 32 31  1  0
 33 32  2  0
 34 33  1  0
 34 29  2  0
 35 36  1  0
 36 41  2  0
 36 37  1  0
 37 38  2  0
 38 39  1  0
 39 43  1  0
 40 39  2  0
 41 40  1  0
 42 41  1  0
 44 45  1  0
 45 48  1  0
 45 47  1  0
 46 44  2  0
 49 50  1  0
 49 24  1  0
 51 49  1  0
 53 55  1  0
 53 52  1  0
 54 65  2  0
 55 60  1  0
 56 64  1  0
 56 66  1  0
 57 63  1  0
 57 59  1  0
 58 64  1  0
 59 60  2  0
 59 58  1  0
 61 62  1  0
 61 55  2  0
 62 57  2  0
 63 56  1  0
 64 54  1  0
 66 68  2  0
 67 66  1  0
 69 67  1  0
 70 79  2  0
 70 75  1  0
 71 67  1  0
 71 75  1  0
 72 71  1  0
 73 74  1  0
 73 72  1  0
 74 70  1  0
 75 76  2  0
 76 77  1  0
 78 77  2  0
 79 78  1  0
 80 54  1  0
 80 81  1  0
 80 90  1  0
 81 84  1  0
 82 86  1  0
 82 81  1  0
 83 82  2  0
 86 85  1  0
 88 86  1  0
 88 89  1  0
 88 87  1  0
 90 93  1  1
 90 91  1  0
 92 90  1  0
M  ISO  4  14 100  22 100  52 101  53 101
M  END
>  <TORSDO>  (87) 
F 21

>  <SCORE>  (87) 
-10.953

>  <name>  (87) 
88

>  <ligand_id>  (87) 
88

>  <original_smiles>  (87) 
[H]C(C(=O)c1c([H])c([H])c(C([H])([H])Oc2c([H])c([H])c3c(c2[H])C([H])([H])N(C(=O)C([H])(N([H])C(=O)C([H])(N([H])C([H])([H])[H])C([H])([H])[H])C(C([H])([H])[H])(C([H])([H])[H])C([H])([H])[H])C([H])(C(=O)N([H])C2([H])c4c([H])c([H])c([H])c([H])c4C([H])([H])C([H])([H])C2([H])[H])C3([H])[H])c([H])c1[H])=C(C([H])([H])[H])C([H])([H])C([H])([H])N([H])C(=O)N1C([H])([H])C([H])([H])C([H])([H])C([H])(n2nc(-c3c([H])c([H])c(Oc4c([H])c([H])c(F)c([H])c4F)c([H])c3[H])c(C(=O)N([H])[H])c2N([H])[H])C1([H])[H]

>  <smiles>  (87) 
[H]C(C(=O)c1c([H])c([H])c(C([H])([H])Oc2c([H])c([H])c3c(c2[H])C([H])([H])N(C(=O)C([H])(N([H])C(=O)C([H])(N([H])C([H])([H])[H])C([H])([H])[H])C(C([H])([H])[H])(C([H])([H])[H])C([H])([H])[H])C([H])(C(=O)N([H])C2([H])c4c([H])c([H])c([H])c([H])c4C([H])([H])C([H])([H])C2([H])[H])C3([H])[H])c([H])c1[H])=C(C([H])([H])[H])C([H])([H])C([H])([H])N([H])C(=O)N1C([H])([H])C([H])([H])C([H])([H])C([H])(n2nc(-c3c([H])c([H])c(Oc4c([H])c([H])c(F)c([H])c4F)c([H])c3[H])c(C(=O)N([H])[H])c2N([H])[H])C1([H])[H]

$$$$
89:0:0
     RDKit          3D

 94102  0  0  1  0  0  0  0  0999 V2000
  -31.9100  -20.8620   22.5240 C   0  0  0  0  0  3  0  0  0  0  0  0
  -32.2350  -19.5960   21.9980 C   0  0  0  0  0  3  0  0  0  0  0  0
  -30.9890  -20.9560   23.5880 C   0  0  0  0  0  0  0  0  0  0  0  0
  -31.6290  -18.4490   22.5440 C   0  0  0  0  0  0  0  0  0  0  0  0
  -30.4790  -19.7420   24.1120 C   0  0  0  0  0  0  0  0  0  0  0  0
  -29.5870  -19.7270   25.3430 C   0  0  0  0  0  1  0  0  0  0  0  0
  -30.7750  -18.5270   23.5900 N   0  0  0  0  0  0  0  0  0  0  0  0
  -29.8260  -23.1240   23.4630 C   0  0  0  0  0  3  0  0  0  0  0  0
  -30.6200  -22.2730   24.1540 C   0  0  0  0  0  0  0  0  0  0  0  0
  -31.1700  -22.5810   25.5390 C   0  0  0  0  0  1  0  0  0  0  0  0
  -29.3210  -24.4810   23.9530 C   0  0  0  0  0  2  0  0  0  0  0  0
  -28.5260  -25.3020   22.9030 C   0  0  0  0  0  2  0  0  0  0  0  0
  -29.3690  -26.2520   22.0200 C   0  0  0  0  0  2  0  0  0  0  0  0
  -28.7330  -26.4940   20.7620 O   0  0  0  0  0  0  0  0  0  0  0  0
  -24.6830  -31.7960   23.4090 C   0  0  0  0  0  0  0  0  0  0  0  0
  -27.5880  -27.2620   20.7200 C   0  0  0  0  0  0  0  0  0  0  0  0
  -23.6160  -30.3220   21.7320 C   0  0  0  0  0  3  0  0  0  0  0  0
  -25.1860  -28.7430   20.4880 C   0  0  0  0  0  0  0  0  0  0  0  0
  -26.1520  -30.6780   21.7450 C   0  0  0  0  0  2  0  0  0  0  0  0
  -26.2880  -29.2900   21.1600 C   0  0  0  0  0  0  0  0  0  0  0  0
  -27.4870  -28.5510   21.2900 C   0  0  0  0  0  3  0  0  0  0  0  0
  -26.4800  -26.7340   20.0260 C   0  0  0  0  0  3  0  0  0  0  0  0
  -25.2740  -27.4570   19.9260 C   0  0  0  0  0  3  0  0  0  0  0  0
  -23.9410  -29.6000   20.4010 C   0  0  0  0  0  2  0  0  0  0  0  0
  -24.8270  -30.9540   22.3480 N   0  0  0  0  0  0  0  0  0  0  0  0
  -23.5610  -32.0820   23.8500 O   0  0  0  0  0  0  0  0  0  0  0  0
  -22.8950  -29.3310   22.6750 C   0  0  0  0  0  0  0  0  0  0  0  0
  -21.5770  -29.1670   22.4790 N   0  0  0  0  0  0  0  0  0  0  0  0
  -23.5210  -28.7120   23.5400 O   0  0  0  0  0  0  0  0  0  0  0  0
  -21.1320  -29.7130   21.7550 H   0  0  0  0  0  0  0  0  0  0  0  0
  -18.1470  -28.1160   22.8850 C   0  0  0  0  0  0  0  0  0  0  0  0
  -20.7040  -28.2640   23.2280 C   0  0  0  0  0  3  0  0  0  0  0  0
  -20.7600  -26.8330   22.6450 C   0  0  0  0  0  2  0  0  0  0  0  0
  -19.6730  -26.5610   21.6010 C   0  0  0  0  0  2  0  0  0  0  0  0
  -18.2840  -26.7640   22.2100 C   0  0  0  0  0  2  0  0  0  0  0  0
  -19.2840  -28.8300   23.3490 C   0  0  0  0  0  0  0  0  0  0  0  0
  -19.1040  -30.1020   23.9330 C   0  0  0  0  0  3  0  0  0  0  0  0
  -17.8160  -30.6540   24.0680 C   0  0  0  0  0  3  0  0  0  0  0  0
  -16.6920  -29.9350   23.6240 C   0  0  0  0  0  3  0  0  0  0  0  0
  -16.8600  -28.6710   23.0330 C   0  0  0  0  0  3  0  0  0  0  0  0
  -25.9180  -32.4550   24.1000 C   0  0  0  0  0  3  0  0  0  0  0  0
  -25.5860  -33.8660   24.3380 N   0  0  0  0  0  0  0  0  0  0  0  0
  -25.9700  -34.8790   23.5520 C   0  0  0  0  0  0  0  0  0  0  0  0
  -26.7120  -34.7280   22.5760 O   0  0  0  0  0  0  0  0  0  0  0  0
  -24.9280  -34.0600   25.0800 H   0  0  0  0  0  0  0  0  0  0  0  0
  -24.2590  -36.6380   23.0040 C   0  0  0  0  0  1  0  0  0  0  0  0
  -25.4540  -36.2860   23.9040 C   0  0  0  0  0  3  0  0  0  0  0  0
  -27.5340  -37.2320   24.8060 C   0  0  0  0  0  1  0  0  0  0  0  0
  -26.4890  -37.3360   23.7900 N   0  0  0  0  0  0  0  0  0  0  0  0
  -26.0730  -38.2610   23.8570 H   0  0  0  0  0  0  0  0  0  0  0  0
  -26.3320  -31.7450   25.4470 C   0  0  1  0  0  0  0  0  0  0  0  0
  -25.1520  -31.5280   26.4240 C   0  0  0  0  0  1  0  0  0  0  0  0
  -26.9750  -30.3650   25.1720 C   0  0  0  0  0  1  0  0  0  0  0  0
  -27.4010  -32.5950   26.1760 C   0  0  0  0  0  1  0  0  0  0  0  0
  -31.9030  -17.0470   21.9810 C   0  0  0  0  0  2  0  0  0  0  0  0
  -30.8630  -16.5940   20.9270 C   0  0  0  0  0  2  0  0  0  0  0  0
  -31.0410  -14.2310   20.0620 C   0  0  0  0  0  0  0  0  0  0  0  0
  -30.5750  -12.0940   18.9030 C   0  0  0  0  0  2  0  0  0  0  0  0
  -29.5680  -12.3220   17.7550 C   0  0  0  0  0  2  0  0  0  0  0  0
  -28.1210  -12.2130   18.2730 C   0  0  0  0  0  2  0  0  0  0  0  0
  -27.8800  -13.0860   19.5350 C   0  0  0  0  0  3  0  0  0  0  0  0
  -28.9920  -12.8400   20.5850 C   0  0  0  0  0  2  0  0  0  0  0  0
  -30.3030  -13.0890   19.9540 N   0  0  0  0  0  0  0  0  0  0  0  0
  -32.0440  -14.4550   19.3780 O   0  0  0  0  0  0  0  0  0  0  0  0
  -30.5630  -15.1480   20.9180 N   0  0  0  0  0  0  0  0  0  0  0  0
  -29.7830  -14.8450   21.4820 H   0  0  0  0  0  0  0  0  0  0  0  0
  -25.5570  -13.7830   20.4060 C   0  0  0  0  0  0  0  0  0  0  0  0
  -24.4780  -13.0490   20.8250 C   0  0  0  0  0  0  0  0  0  0  0  0
  -24.8720  -11.6790   20.7250 C   0  0  0  0  0  0  0  0  0  0  0  0
  -26.5440  -12.8620   20.0880 N   0  0  0  0  0  0  0  0  0  0  0  0
  -26.1370  -11.5910   20.3330 N   0  0  0  0  0  0  0  0  0  0  0  0
  -24.1010  -10.4450   20.9260 C   0  0  0  0  0  0  0  0  0  0  0  0
  -24.5060   -9.4640   21.8570 C   0  0  0  0  0  3  0  0  0  0  0  0
  -23.7370   -8.2940   22.0450 C   0  0  0  0  0  3  0  0  0  0  0  0
  -22.5480   -8.0990   21.3030 C   0  0  0  0  0  0  0  0  0  0  0  0
  -22.1640   -9.0670   20.3600 C   0  0  0  0  0  3  0  0  0  0  0  0
  -22.9310  -10.2280   20.1700 C   0  0  0  0  0  3  0  0  0  0  0  0
  -21.7530   -6.9820   21.4010 O   0  0  0  0  0  0  0  0  0  0  0  0
  -21.6360   -6.2850   22.5750 C   0  0  0  0  0  0  0  0  0  0  0  0
  -21.1330   -6.8850   23.7510 C   0  0  0  0  0  3  0  0  0  0  0  0
  -20.9630   -6.1130   24.9180 C   0  0  0  0  0  3  0  0  0  0  0  0
  -21.2830   -4.7430   24.9090 C   0  0  0  0  0  0  0  0  0  0  0  0
  -21.7760   -4.1410   23.7380 C   0  0  0  0  0  3  0  0  0  0  0  0
  -21.9480   -4.9100   22.5740 C   0  0  0  0  0  0  0  0  0  0  0  0
  -22.4050   -4.3220   21.4420 F   0  0  0  0  0  0  0  0  0  0  0  0
  -21.1100   -3.9970   26.0260 F   0  0  0  0  0  0  0  0  0  0  0  0
  -23.1260  -13.5800   21.2040 C   0  0  0  0  0  0  0  0  0  0  0  0
  -22.4230  -12.8880   22.0960 N   0  0  0  0  0  0  0  0  0  0  0  0
  -22.7040  -14.6420   20.7480 O   0  0  0  0  0  0  0  0  0  0  0  0
  -22.7770  -12.0250   22.4840 H   0  0  0  0  0  0  0  0  0  0  0  0
  -21.5200  -13.2260   22.3950 H   0  0  0  0  0  0  0  0  0  0  0  0
  -25.7750  -15.1480   20.2560 N   0  0  0  0  0  0  0  0  0  0  0  0
  -25.0510  -15.8380   20.4330 H   0  0  0  0  0  0  0  0  0  0  0  0
  -26.6260  -15.5540   19.8910 H   0  0  0  0  0  0  0  0  0  0  0  0
  1  3  1  0
  2  1  2  0
  2  4  1  0
  3  5  2  0
  3  9  1  0
  4  7  2  0
  5  6  1  0
  7  5  1  0
  8 11  1  0
  8  9  2  0
  9 10  1  0
 12 11  1  0
 13 12  1  0
 14 13  1  0
 15 26  2  0
 16 14  1  0
 16 21  1  0
 17 25  1  0
 17 27  1  0
 18 20  1  0
 19 25  1  0
 20 21  2  0
 20 19  1  0
 22 16  2  0
 23 22  1  0
 23 18  2  0
 24 18  1  0
 24 17  1  0
 25 15  1  0
 27 29  2  0
 28 27  1  0
 30 28  1  0
 31 40  2  0
 31 36  1  0
 32 28  1  0
 32 36  1  0
 33 32  1  0
 34 35  1  0
 34 33  1  0
 35 31  1  0
 36 37  2  0
 37 38  1  0
 39 38  2  0
 40 39  1  0
 41 15  1  0
 41 42  1  0
 41 51  1  0
 42 45  1  0
 43 47  1  0
 43 42  1  0
 44 43  2  0
 47 46  1  0
 49 50  1  0
 49 47  1  0
 49 48  1  0
 51 54  1  1
 51 52  1  0
 53 51  1  0
 55  4  1  0
 56 55  1  0
 57 65  1  0
 58 63  1  0
 59 60  1  0
 59 58  1  0
 61 60  1  0
 61 70  1  0
 61 62  1  0
 63 57  1  0
 63 62  1  0
 64 57  2  0
 65 56  1  0
 65 66  1  0
 67 68  2  0
 68 87  1  0
 69 68  1  0
 69 72  1  0
 70 71  1  0
 70 67  1  0
 71 69  2  0
 72 73  1  0
 73 74  2  0
 75 78  1  0
 75 74  1  0
 76 75  2  0
 77 76  1  0
 77 72  2  0
 78 79  1  0
 79 80  1  0
 80 81  2  0
 82 81  1  0
 82 86  1  0
 83 82  2  0
 84 79  2  0
 84 83  1  0
 85 84  1  0
 87 88  1  0
 88 91  1  0
 88 90  1  0
 89 87  2  0
 92 67  1  0
 92 93  1  0
 94 92  1  0
M  ISO  4  13 101  14 101  57 100  65 100
M  END
>  <TORSDO>  (88) 
F 22

>  <SCORE>  (88) 
-8.610

>  <name>  (88) 
89

>  <ligand_id>  (88) 
89

>  <original_smiles>  (88) 
[H]C(=C(c1c(C([H])([H])[H])nc(C([H])([H])C([H])([H])N([H])C(=O)N2C([H])([H])C([H])([H])C([H])([H])C([H])(n3nc(-c4c([H])c([H])c(Oc5c([H])c([H])c(F)c([H])c5F)c([H])c4[H])c(C(=O)N([H])[H])c3N([H])[H])C2([H])[H])c([H])c1[H])C([H])([H])[H])C([H])([H])C([H])([H])C([H])([H])Oc1c([H])c([H])c2c(c1[H])C([H])([H])N(C(=O)C([H])(N([H])C(=O)C([H])(N([H])C([H])([H])[H])C([H])([H])[H])C(C([H])([H])[H])(C([H])([H])[H])C([H])([H])[H])C([H])(C(=O)N([H])C1([H])c3c([H])c([H])c([H])c([H])c3C([H])([H])C([H])([H])C1([H])[H])C2([H])[H]

>  <smiles>  (88) 
[H]C(=C(c1c(C([H])([H])[H])nc(C([H])([H])C([H])([H])N([H])C(=O)N2C([H])([H])C([H])([H])C([H])([H])C([H])(n3nc(-c4c([H])c([H])c(Oc5c([H])c([H])c(F)c([H])c5F)c([H])c4[H])c(C(=O)N([H])[H])c3N([H])[H])C2([H])[H])c([H])c1[H])C([H])([H])[H])C([H])([H])C([H])([H])C([H])([H])Oc1c([H])c([H])c2c(c1[H])C([H])([H])N(C(=O)C([H])(N([H])C(=O)C([H])(N([H])C([H])([H])[H])C([H])([H])[H])C(C([H])([H])[H])(C([H])([H])[H])C([H])([H])[H])C([H])(C(=O)N([H])C1([H])c3c([H])c([H])c([H])c([H])c3C([H])([H])C([H])([H])C1([H])[H])C2([H])[H]

$$$$
90:0:0
     RDKit          3D

 93101  0  0  1  0  0  0  0  0999 V2000
  -27.2310  -21.6920   20.0800 C   0  0  0  0  0  2  0  0  0  0  0  0
  -28.3950  -22.0110   18.4060 C   0  0  0  0  0  2  0  0  0  0  0  0
  -28.6890  -22.1870   19.9140 C   0  0  2  0  0  0  0  0  0  0  0  0
  -27.2550  -21.1590   18.7190 N   0  0  0  0  0  4  0  0  0  0  0  0
  -26.4280  -21.3490   18.1780 H   0  0  0  0  0  0  0  0  0  0  0  0
  -27.4910  -20.1820   18.6800 H   0  0  0  0  0  0  0  0  0  0  0  0
  -29.7580  -21.0480   20.3350 C   0  0  0  0  0  0  0  0  0  0  0  0
  -29.4360  -19.6960   20.3780 N   0  0  0  0  0  0  0  0  0  0  0  0
  -30.9140  -21.4060   20.5630 O   0  0  0  0  0  0  0  0  0  0  0  0
  -28.4570  -19.4610   20.3710 H   0  0  0  0  0  0  0  0  0  0  0  0
  -30.3350  -18.4710   20.2530 C   0  0  0  0  0  2  0  0  0  0  0  0
  -30.1050  -17.2220   21.2300 C   0  0  0  0  0  2  0  0  0  0  0  0
  -30.6050  -14.7330   20.4360 C   0  0  0  0  0  0  0  0  0  0  0  0
  -30.3910  -12.4930   19.3480 C   0  0  0  0  0  2  0  0  0  0  0  0
  -29.4420  -12.5990   18.1320 C   0  0  0  0  0  2  0  0  0  0  0  0
  -27.9700  -12.4400   18.5610 C   0  0  0  0  0  2  0  0  0  0  0  0
  -27.6050  -13.3060   19.7940 C   0  0  0  0  0  3  0  0  0  0  0  0
  -28.6650  -13.1690   20.9070 C   0  0  0  0  0  2  0  0  0  0  0  0
  -29.9680  -13.5210   20.3200 N   0  0  0  0  0  0  0  0  0  0  0  0
  -31.7910  -14.8650   20.1340 O   0  0  0  0  0  0  0  0  0  0  0  0
  -29.8130  -15.8190   20.7230 N   0  0  0  0  0  0  0  0  0  0  0  0
  -28.8420  -15.5600   20.7940 H   0  0  0  0  0  0  0  0  0  0  0  0
  -25.2090  -13.9110   20.5030 C   0  0  0  0  0  0  0  0  0  0  0  0
  -24.1370  -13.1440   20.8680 C   0  0  0  0  0  0  0  0  0  0  0  0
  -24.5970  -11.7900   20.8490 C   0  0  0  0  0  0  0  0  0  0  0  0
  -26.2550  -13.0280   20.2780 N   0  0  0  0  0  0  0  0  0  0  0  0
  -25.8910  -11.7480   20.5520 N   0  0  0  0  0  0  0  0  0  0  0  0
  -23.8680  -10.5300   21.0410 C   0  0  0  0  0  0  0  0  0  0  0  0
  -24.2980   -9.5610   21.9740 C   0  0  0  0  0  3  0  0  0  0  0  0
  -23.5670   -8.3680   22.1570 C   0  0  0  0  0  3  0  0  0  0  0  0
  -22.3920   -8.1340   21.4030 C   0  0  0  0  0  0  0  0  0  0  0  0
  -21.9800   -9.0910   20.4590 C   0  0  0  0  0  3  0  0  0  0  0  0
  -22.7140  -10.2750   20.2750 C   0  0  0  0  0  3  0  0  0  0  0  0
  -21.6340   -6.9900   21.4930 O   0  0  0  0  0  0  0  0  0  0  0  0
  -21.5890   -6.2440   22.6430 C   0  0  0  0  0  0  0  0  0  0  0  0
  -21.1820   -6.7990   23.8770 C   0  0  0  0  0  3  0  0  0  0  0  0
  -21.0830   -5.9810   25.0180 C   0  0  0  0  0  3  0  0  0  0  0  0
  -21.3830   -4.6090   24.9300 C   0  0  0  0  0  0  0  0  0  0  0  0
  -21.7820   -4.0530   23.7010 C   0  0  0  0  0  3  0  0  0  0  0  0
  -21.8820   -4.8680   22.5600 C   0  0  0  0  0  0  0  0  0  0  0  0
  -22.2480   -4.3240   21.3750 F   0  0  0  0  0  0  0  0  0  0  0  0
  -21.2790   -3.8170   26.0240 F   0  0  0  0  0  0  0  0  0  0  0  0
  -22.7400  -13.6230   21.1250 C   0  0  0  0  0  0  0  0  0  0  0  0
  -22.0040  -12.9340   21.9880 N   0  0  0  0  0  0  0  0  0  0  0  0
  -22.3080  -14.6450   20.5920 O   0  0  0  0  0  0  0  0  0  0  0  0
  -22.3680  -12.1070   22.4400 H   0  0  0  0  0  0  0  0  0  0  0  0
  -21.0640  -13.2360   22.2020 H   0  0  0  0  0  0  0  0  0  0  0  0
  -25.3720  -15.2820   20.3120 N   0  0  0  0  0  0  0  0  0  0  0  0
  -24.5990  -15.9290   20.4120 H   0  0  0  0  0  0  0  0  0  0  0  0
  -26.2080  -15.7210   19.9510 H   0  0  0  0  0  0  0  0  0  0  0  0
  -29.0370  -23.7170   20.3650 C   0  0  0  0  0  3  0  0  0  0  0  0
  -27.9930  -24.9170   20.0390 C   0  0  0  0  0  3  0  0  0  0  0  0
  -28.2730  -26.3810   20.2460 O   0  0  0  0  0  0  0  0  0  0  0  0
  -24.6050  -31.8910   23.2440 C   0  0  0  0  0  0  0  0  0  0  0  0
  -27.1820  -27.2870   20.1820 C   0  0  0  0  0  0  0  0  0  0  0  0
  -23.3960  -30.4990   21.6090 C   0  0  0  0  0  3  0  0  0  0  0  0
  -24.8350  -28.9490   20.1740 C   0  0  0  0  0  0  0  0  0  0  0  0
  -25.9410  -30.7970   21.4250 C   0  0  0  0  0  2  0  0  0  0  0  0
  -26.0120  -29.4190   20.7690 C   0  0  0  0  0  0  0  0  0  0  0  0
  -27.1900  -28.6030   20.7570 C   0  0  0  0  0  3  0  0  0  0  0  0
  -25.9760  -26.8880   19.5590 C   0  0  0  0  0  3  0  0  0  0  0  0
  -24.8220  -27.6890   19.5610 C   0  0  0  0  0  3  0  0  0  0  0  0
  -23.6030  -29.8280   20.2280 C   0  0  0  0  0  2  0  0  0  0  0  0
  -24.6660  -31.0790   22.1470 N   0  0  0  0  0  0  0  0  0  0  0  0
  -23.5220  -32.1720   23.7790 O   0  0  0  0  0  0  0  0  0  0  0  0
  -22.7310  -29.4820   22.5680 C   0  0  0  0  0  0  0  0  0  0  0  0
  -21.4040  -29.3070   22.4410 N   0  0  0  0  0  0  0  0  0  0  0  0
  -23.4080  -28.8550   23.3860 O   0  0  0  0  0  0  0  0  0  0  0  0
  -20.9160  -29.8640   21.7530 H   0  0  0  0  0  0  0  0  0  0  0  0
  -18.0240  -28.1120   22.9530 C   0  0  0  0  0  0  0  0  0  0  0  0
  -20.5840  -28.3710   23.2160 C   0  0  0  0  0  3  0  0  0  0  0  0
  -20.6850  -26.9390   22.6430 C   0  0  0  0  0  2  0  0  0  0  0  0
  -19.5810  -26.6150   21.6320 C   0  0  0  0  0  2  0  0  0  0  0  0
  -18.1980  -26.7630   22.2760 C   0  0  0  0  0  2  0  0  0  0  0  0
  -19.1440  -28.8750   23.3800 C   0  0  0  0  0  0  0  0  0  0  0  0
  -18.9250  -30.1380   23.9710 C   0  0  0  0  0  3  0  0  0  0  0  0
  -17.6220  -30.6410   24.1350 C   0  0  0  0  0  3  0  0  0  0  0  0
  -16.5170  -29.8760   23.7240 C   0  0  0  0  0  3  0  0  0  0  0  0
  -16.7200  -28.6120   23.1390 C   0  0  0  0  0  3  0  0  0  0  0  0
  -25.8890  -32.5210   23.8650 C   0  0  0  0  0  3  0  0  0  0  0  0
  -25.5840  -33.9220   24.1960 N   0  0  0  0  0  0  0  0  0  0  0  0
  -25.9140  -34.9730   23.4370 C   0  0  0  0  0  0  0  0  0  0  0  0
  -26.5800  -34.8670   22.4020 O   0  0  0  0  0  0  0  0  0  0  0  0
  -24.9910  -34.0800   24.9980 H   0  0  0  0  0  0  0  0  0  0  0  0
  -24.1880  -36.7710   23.0900 C   0  0  0  0  0  1  0  0  0  0  0  0
  -25.4330  -36.3630   23.8970 C   0  0  0  0  0  3  0  0  0  0  0  0
  -27.5750  -37.2410   24.7170 C   0  0  0  0  0  1  0  0  0  0  0  0
  -26.4680  -37.4140   23.7780 N   0  0  0  0  0  0  0  0  0  0  0  0
  -26.0660  -38.3350   23.9260 H   0  0  0  0  0  0  0  0  0  0  0  0
  -26.4010  -31.7520   25.1450 C   0  0  1  0  0  0  0  0  0  0  0  0
  -25.3050  -31.5260   26.2130 C   0  0  0  0  0  1  0  0  0  0  0  0
  -26.9810  -30.3710   24.7640 C   0  0  0  0  0  1  0  0  0  0  0  0
  -27.5530  -32.5460   25.8030 C   0  0  0  0  0  1  0  0  0  0  0  0
  2  4  1  0
  2  3  1  0
  3  1  1  0
  3  7  1  0
  3 51  1  6
  4  1  1  0
  5  4  1  0
  6  4  1  0
  7  8  1  0
  7  9  2  0
 10  8  1  0
 11  8  1  0
 11 12  1  0
 13 21  1  0
 14 19  1  0
 15 16  1  0
 15 14  1  0
 17 16  1  0
 17 26  1  0
 17 18  1  0
 19 13  1  0
 19 18  1  0
 20 13  2  0
 21 22  1  0
 21 12  1  0
 23 24  2  0
 24 43  1  0
 25 24  1  0
 25 28  1  0
 26 23  1  0
 26 27  1  0
 27 25  2  0
 28 29  1  0
 29 30  2  0
 31 34  1  0
 31 30  1  0
 32 31  2  0
 33 32  1  0
 33 28  2  0
 34 35  1  0
 35 36  1  0
 36 37  2  0
 38 37  1  0
 38 42  1  0
 39 38  2  0
 40 35  2  0
 40 39  1  0
 41 40  1  0
 43 44  1  0
 44 47  1  0
 44 46  1  0
 45 43  2  0
 48 49  1  0
 48 23  1  0
 50 48  1  0
 52 53  1  0
 52 51  2  0
 54 65  2  0
 55 53  1  0
 55 60  1  0
 56 64  1  0
 56 66  1  0
 57 63  1  0
 57 59  1  0
 58 64  1  0
 59 58  1  0
 60 59  2  0
 61 62  1  0
 61 55  2  0
 62 57  2  0
 63 56  1  0
 64 54  1  0
 66 68  2  0
 67 66  1  0
 69 67  1  0
 70 79  2  0
 70 75  1  0
 71 67  1  0
 71 75  1  0
 72 71  1  0
 73 74  1  0
 73 72  1  0
 74 70  1  0
 75 76  2  0
 76 77  1  0
 78 77  2  0
 79 78  1  0
 80 54  1  0
 80 81  1  0
 80 90  1  0
 81 84  1  0
 82 86  1  0
 82 81  1  0
 83 82  2  0
 86 85  1  0
 88 86  1  0
 88 89  1  0
 88 87  1  0
 90 93  1  1
 90 91  1  0
 92 90  1  0
M  ISO  4  13 100  21 100  52 101  53 101
M  END
>  <TORSDO>  (89) 
F 21

>  <SCORE>  (89) 
-13.373

>  <name>  (89) 
90

>  <ligand_id>  (89) 
90

>  <original_smiles>  (89) 
[H]c1c([H])c([H])c2c(c1[H])C([H])([H])C([H])([H])C([H])([H])C2([H])N([H])C(=O)C1([H])N(C(=O)C([H])(N([H])C(=O)C([H])(N([H])C([H])([H])[H])C([H])([H])[H])C(C([H])([H])[H])(C([H])([H])[H])C([H])([H])[H])C([H])([H])c2c([H])c(OC([H])([H])C([H])([H])C3(C(=O)N([H])C([H])([H])C([H])([H])N([H])C(=O)N4C([H])([H])C([H])([H])C([H])([H])C([H])(n5nc(-c6c([H])c([H])c(Oc7c([H])c([H])c(F)c([H])c7F)c([H])c6[H])c(C(=O)N([H])[H])c5N([H])[H])C4([H])[H])C([H])([H])[N+]([H])([H])C3([H])[H])c([H])c([H])c2C1([H])[H]

>  <smiles>  (89) 
[H]c1c([H])c([H])c2c(c1[H])C([H])([H])C([H])([H])C([H])([H])C2([H])N([H])C(=O)C1([H])N(C(=O)C([H])(N([H])C(=O)C([H])(N([H])C([H])([H])[H])C([H])([H])[H])C(C([H])([H])[H])(C([H])([H])[H])C([H])([H])[H])C([H])([H])c2c([H])c(OC([H])([H])C([H])([H])C3(C(=O)N([H])C([H])([H])C([H])([H])N([H])C(=O)N4C([H])([H])C([H])([H])C([H])([H])C([H])(n5nc(-c6c([H])c([H])c(Oc7c([H])c([H])c(F)c([H])c7F)c([H])c6[H])c(C(=O)N([H])[H])c5N([H])[H])C4([H])[H])C([H])([H])[N+]([H])([H])C3([H])[H])c([H])c([H])c2C1([H])[H]

$$$$
91:0:0
     RDKit          3D

 92101  0  0  1  0  0  0  0  0999 V2000
  -30.8710  -20.4980   19.9910 C   0  0  0  0  0  0  0  0  0  0  0  0
  -30.6780  -21.4370   21.2060 C   0  0  0  0  0  2  0  0  0  0  0  0
  -29.4790  -19.9060   20.2420 C   0  0  0  0  0  3  0  0  0  0  0  0
  -29.2410  -21.4430   20.9030 N   0  0  2  0  0  4  0  0  0  0  0  0
  -31.7850  -20.2750   19.1900 O   0  0  0  0  0  0  0  0  0  0  0  0
  -28.6840  -21.3530   21.7400 H   0  0  0  0  0  0  0  0  0  0  0  0
  -29.7920  -18.2590   20.9630 C   0  0  0  0  0  2  0  0  0  0  0  0
  -30.6040  -15.4160   20.6520 C   0  0  0  0  0  0  0  0  0  0  0  0
  -30.6480  -12.9600   19.8150 C   0  0  0  0  0  2  0  0  0  0  0  0
  -29.8000  -12.6810   18.5500 C   0  0  0  0  0  2  0  0  0  0  0  0
  -28.3250  -12.4320   18.9190 C   0  0  0  0  0  2  0  0  0  0  0  0
  -27.7960  -13.4160   19.9900 C   0  0  0  0  0  3  0  0  0  0  0  0
  -28.7840  -13.6090   21.1590 C   0  0  0  0  0  2  0  0  0  0  0  0
  -30.0350  -14.1140   20.5620 N   0  0  0  0  0  0  0  0  0  0  0  0
  -31.8430  -15.4010   20.6900 O   0  0  0  0  0  0  0  0  0  0  0  0
  -29.8770  -16.6850   20.3560 N   0  0  0  0  0  0  0  0  0  0  0  0
  -25.3720  -13.9390   20.5930 C   0  0  0  0  0  0  0  0  0  0  0  0
  -24.3070  -13.1460   20.9100 C   0  0  0  0  0  0  0  0  0  0  0  0
  -24.8060  -11.8070   20.9310 C   0  0  0  0  0  0  0  0  0  0  0  0
  -26.4480  -13.0870   20.4280 N   0  0  0  0  0  0  0  0  0  0  0  0
  -26.1160  -11.7990   20.7080 N   0  0  0  0  0  0  0  0  0  0  0  0
  -24.0930  -10.5330   21.0940 C   0  0  0  0  0  0  0  0  0  0  0  0
  -24.4840   -9.5890   22.0670 C   0  0  0  0  0  3  0  0  0  0  0  0
  -23.7670   -8.3840   22.2200 C   0  0  0  0  0  3  0  0  0  0  0  0
  -22.6460   -8.1130   21.3990 C   0  0  0  0  0  0  0  0  0  0  0  0
  -22.2810   -9.0470   20.4140 C   0  0  0  0  0  3  0  0  0  0  0  0
  -22.9970  -10.2440   20.2570 C   0  0  0  0  0  3  0  0  0  0  0  0
  -21.9040   -6.9600   21.4580 O   0  0  0  0  0  0  0  0  0  0  0  0
  -21.7940   -6.2340   22.6160 C   0  0  0  0  0  0  0  0  0  0  0  0
  -21.2790   -6.7990   23.8030 C   0  0  0  0  0  3  0  0  0  0  0  0
  -21.1200   -5.9980   24.9530 C   0  0  0  0  0  3  0  0  0  0  0  0
  -21.4630   -4.6340   24.9150 C   0  0  0  0  0  0  0  0  0  0  0  0
  -21.9710   -4.0680   23.7310 C   0  0  0  0  0  3  0  0  0  0  0  0
  -22.1320   -4.8670   22.5850 C   0  0  0  0  0  0  0  0  0  0  0  0
  -22.6020   -4.3110   21.4410 F   0  0  0  0  0  0  0  0  0  0  0  0
  -21.3030   -3.8630   26.0170 F   0  0  0  0  0  0  0  0  0  0  0  0
  -22.8860  -13.5990   21.0760 C   0  0  0  0  0  0  0  0  0  0  0  0
  -22.1190  -12.8980   21.9030 N   0  0  0  0  0  0  0  0  0  0  0  0
  -22.4650  -14.6090   20.5090 O   0  0  0  0  0  0  0  0  0  0  0  0
  -22.4850  -12.0840   22.3720 H   0  0  0  0  0  0  0  0  0  0  0  0
  -21.1610  -13.1690   22.0670 H   0  0  0  0  0  0  0  0  0  0  0  0
  -25.4870  -15.3100   20.4050 N   0  0  0  0  0  0  0  0  0  0  0  0
  -24.6630  -15.8970   20.4870 H   0  0  0  0  0  0  0  0  0  0  0  0
  -26.2500  -15.8030   19.9480 H   0  0  0  0  0  0  0  0  0  0  0  0
  -28.7940  -18.1360   17.6440 C   0  0  0  0  0  2  0  0  0  0  0  0
  -30.0030  -17.6220   17.9700 C   0  0  0  0  0  2  0  0  0  0  0  0
  -28.1070  -17.3530   18.6520 C   0  0  0  0  0  0  0  0  0  0  0  0
  -29.3990  -16.6020   18.9530 C   0  0  0  0  0  3  0  0  0  0  0  0
  -26.9630  -17.4070   19.0970 O   0  0  0  0  0  0  0  0  0  0  0  0
  -28.8210  -22.8890   20.1590 C   0  0  0  0  0  2  0  0  0  0  0  0
  -28.2880  -24.4650   20.8430 C   0  0  0  0  0  2  0  0  0  0  0  0
  -28.3580  -26.0500   20.4010 O   0  0  0  0  0  0  0  0  0  0  0  0
  -24.6110  -31.9640   23.2690 C   0  0  0  0  0  0  0  0  0  0  0  0
  -27.2910  -27.0860   20.3970 C   0  0  0  0  0  0  0  0  0  0  0  0
  -23.4600  -30.5160   21.6450 C   0  0  0  0  0  3  0  0  0  0  0  0
  -24.9500  -28.9030   20.2810 C   0  0  0  0  0  0  0  0  0  0  0  0
  -26.0250  -30.7710   21.5270 C   0  0  0  0  0  2  0  0  0  0  0  0
  -26.1250  -29.3510   20.9020 C   0  0  0  0  0  0  0  0  0  0  0  0
  -27.2930  -28.4700   20.9240 C   0  0  0  0  0  3  0  0  0  0  0  0
  -26.0790  -26.7730   19.7420 C   0  0  0  0  0  3  0  0  0  0  0  0
  -24.9510  -27.6320   19.6810 C   0  0  0  0  0  3  0  0  0  0  0  0
  -23.7170  -29.8060   20.2870 C   0  0  0  0  0  2  0  0  0  0  0  0
  -24.7190  -31.1130   22.2000 N   0  0  0  0  0  0  0  0  0  0  0  0
  -23.5120  -32.2470   23.7700 O   0  0  0  0  0  0  0  0  0  0  0  0
  -22.7670  -29.5310   22.6200 C   0  0  0  0  0  0  0  0  0  0  0  0
  -21.4420  -29.3420   22.4770 N   0  0  0  0  0  0  0  0  0  0  0  0
  -23.4280  -28.9350   23.4740 O   0  0  0  0  0  0  0  0  0  0  0  0
  -20.9610  -29.8720   21.7650 H   0  0  0  0  0  0  0  0  0  0  0  0
  -18.0710  -28.0860   22.9610 C   0  0  0  0  0  0  0  0  0  0  0  0
  -20.6220  -28.4080   23.2550 C   0  0  0  0  0  3  0  0  0  0  0  0
  -20.7570  -26.9640   22.7150 C   0  0  0  0  0  2  0  0  0  0  0  0
  -19.6770  -26.5980   21.6920 C   0  0  0  0  0  2  0  0  0  0  0  0
  -18.2840  -26.7280   22.3130 C   0  0  0  0  0  2  0  0  0  0  0  0
  -19.1690  -28.8810   23.3890 C   0  0  0  0  0  0  0  0  0  0  0  0
  -18.9140  -30.1490   23.9540 C   0  0  0  0  0  3  0  0  0  0  0  0
  -17.5950  -30.6240   24.0960 C   0  0  0  0  0  3  0  0  0  0  0  0
  -16.5140  -29.8260   23.6820 C   0  0  0  0  0  3  0  0  0  0  0  0
  -16.7530  -28.5590   23.1210 C   0  0  0  0  0  3  0  0  0  0  0  0
  -25.8650  -32.6370   23.9040 C   0  0  0  0  0  3  0  0  0  0  0  0
  -26.3580  -31.9130   25.2190 C   0  0  1  0  0  0  0  0  0  0  0  0
  -25.2410  -31.6920   26.2670 C   0  0  0  0  0  1  0  0  0  0  0  0
  -26.9690  -30.5320   24.8930 C   0  0  0  0  0  1  0  0  0  0  0  0
  -27.4820  -32.7420   25.8820 C   0  0  0  0  0  1  0  0  0  0  0  0
  -25.5250  -34.0400   24.1990 N   0  0  0  0  0  0  0  0  0  0  0  0
  -25.8600  -35.0880   23.4350 C   0  0  0  0  0  0  0  0  0  0  0  0
  -26.5510  -34.9770   22.4190 O   0  0  0  0  0  0  0  0  0  0  0  0
  -24.9090  -34.1970   24.9850 H   0  0  0  0  0  0  0  0  0  0  0  0
  -24.1200  -36.8620   23.0290 C   0  0  0  0  0  1  0  0  0  0  0  0
  -25.3520  -36.4800   23.8640 C   0  0  0  0  0  3  0  0  0  0  0  0
  -27.4630  -37.4020   24.7190 C   0  0  0  0  0  1  0  0  0  0  0  0
  -26.3760  -37.5420   23.7540 N   0  0  0  0  0  0  0  0  0  0  0  0
  -25.9580  -38.4610   23.8800 H   0  0  0  0  0  0  0  0  0  0  0  0
  1  3  1  0
  1  2  1  0
  3  4  1  0
  3  7  1  0
  4  2  1  0
  4  6  1  1
  5  1  2  0
  8 15  2  0
  9 14  1  0
 10 11  1  0
 10  9  1  0
 12 11  1  0
 12 20  1  0
 12 13  1  0
 14  8  1  0
 14 13  1  0
 16  8  1  0
 16  7  1  0
 17 18  2  0
 18 19  1  0
 18 37  1  0
 19 22  1  0
 20 17  1  0
 20 21  1  0
 21 19  2  0
 22 23  1  0
 23 24  2  0
 25 28  1  0
 25 24  1  0
 26 25  2  0
 27 26  1  0
 27 22  2  0
 28 29  1  0
 29 30  1  0
 30 31  2  0
 32 31  1  0
 32 36  1  0
 33 32  2  0
 34 29  2  0
 34 33  1  0
 35 34  1  0
 37 38  1  0
 38 41  1  0
 38 40  1  0
 39 37  2  0
 42 43  1  0
 42 17  1  0
 44 42  1  0
 45 46  1  0
 45 47  1  0
 46 48  1  0
 47 48  1  0
 47 49  2  0
 48 16  1  0
 50 51  1  0
 50  4  1  0
 52 51  1  0
 53 64  2  0
 54 52  1  0
 54 59  1  0
 55 63  1  0
 55 65  1  0
 56 62  1  0
 56 58  1  0
 57 63  1  0
 58 59  2  0
 58 57  1  0
 60 54  2  0
 61 60  1  0
 61 56  2  0
 62 55  1  0
 63 53  1  0
 65 67  2  0
 66 65  1  0
 68 66  1  0
 69 78  2  0
 69 74  1  0
 70 66  1  0
 70 74  1  0
 71 70  1  0
 72 73  1  0
 72 71  1  0
 73 69  1  0
 74 75  2  0
 75 76  1  0
 77 76  2  0
 78 77  1  0
 79 53  1  0
 79 84  1  0
 79 80  1  0
 80 83  1  1
 80 81  1  0
 82 80  1  0
 84 87  1  0
 85 89  1  0
 85 84  1  0
 86 85  2  0
 89 88  1  0
 91 89  1  0
 91 92  1  0
 91 90  1  0
M  ISO  4   8 100  16 100  51 101  52 101
M  END
>  <TORSDO>  (90) 
F 20

>  <SCORE>  (90) 
-15.491

>  <name>  (90) 
91

>  <ligand_id>  (90) 
91

>  <original_smiles>  (90) 
[H]C1=C([H])C([H])(N(C(=O)N2C([H])([H])C([H])([H])C([H])([H])C([H])(n3nc(-c4c([H])c([H])c(Oc5c([H])c([H])c(F)c([H])c5F)c([H])c4[H])c(C(=O)N([H])[H])c3N([H])[H])C2([H])[H])C([H])([H])C2([H])C(=O)C([H])([H])[N+]2([H])C([H])([H])C([H])([H])Oc2c([H])c([H])c3c(c2[H])C([H])([H])N(C(=O)C([H])(N([H])C(=O)C([H])(N([H])C([H])([H])[H])C([H])([H])[H])C(C([H])([H])[H])(C([H])([H])[H])C([H])([H])[H])C([H])(C(=O)N([H])C2([H])c4c([H])c([H])c([H])c([H])c4C([H])([H])C([H])([H])C2([H])[H])C3([H])[H])C1=O

>  <smiles>  (90) 
[H]C1=C([H])C([H])(N(C(=O)N2C([H])([H])C([H])([H])C([H])([H])C([H])(n3nc(-c4c([H])c([H])c(Oc5c([H])c([H])c(F)c([H])c5F)c([H])c4[H])c(C(=O)N([H])[H])c3N([H])[H])C2([H])[H])C([H])([H])C2([H])C(=O)C([H])([H])[N+]2([H])C([H])([H])C([H])([H])Oc2c([H])c([H])c3c(c2[H])C([H])([H])N(C(=O)C([H])(N([H])C(=O)C([H])(N([H])C([H])([H])[H])C([H])([H])[H])C(C([H])([H])[H])(C([H])([H])[H])C([H])([H])[H])C([H])(C(=O)N([H])C2([H])c4c([H])c([H])c([H])c([H])c4C([H])([H])C([H])([H])C2([H])[H])C3([H])[H])C1=O

$$$$
92:0:0
     RDKit          3D

 93101  0  0  1  0  0  0  0  0999 V2000
  -29.8700  -18.9450   19.5630 C   0  0  0  0  0  0  0  0  0  0  0  0
  -30.0100  -20.3290   19.6580 N   0  0  0  0  0  0  0  0  0  0  0  0
  -28.9260  -18.4490   18.9480 O   0  0  0  0  0  0  0  0  0  0  0  0
  -30.8290  -20.6140   20.1770 H   0  0  0  0  0  0  0  0  0  0  0  0
  -31.1540  -15.3870   19.8230 C   0  0  0  0  0  0  0  0  0  0  0  0
  -30.9560  -13.0640   18.8780 C   0  0  0  0  0  2  0  0  0  0  0  0
  -29.9570  -13.0250   17.6990 C   0  0  0  0  0  2  0  0  0  0  0  0
  -28.5180  -12.8120   18.2090 C   0  0  0  0  0  2  0  0  0  0  0  0
  -28.1740  -13.7430   19.4010 C   0  0  0  0  0  3  0  0  0  0  0  0
  -29.2850  -13.7410   20.4690 C   0  0  0  0  0  2  0  0  0  0  0  0
  -30.5450  -14.1410   19.8170 N   0  0  0  0  0  0  0  0  0  0  0  0
  -32.1800  -15.5540   19.1580 O   0  0  0  0  0  0  0  0  0  0  0  0
  -30.9380  -18.5590   21.7480 C   0  0  0  0  0  2  0  0  0  0  0  0
  -30.6380  -16.2110   22.0020 C   0  0  0  0  0  2  0  0  0  0  0  0
  -31.2940  -17.4140   22.6710 C   0  0  0  0  0  3  0  0  0  0  0  0
  -30.9000  -17.9630   20.3170 C   0  0  0  0  0  3  0  0  0  0  0  0
  -30.6070  -16.4540   20.5390 N   0  0  0  0  0  0  0  0  0  0  0  0
  -25.8660  -14.2950   20.3740 C   0  0  0  0  0  0  0  0  0  0  0  0
  -24.8340  -13.5050   20.7970 C   0  0  0  0  0  0  0  0  0  0  0  0
  -25.2800  -12.1570   20.6490 C   0  0  0  0  0  0  0  0  0  0  0  0
  -26.8760  -13.4280   19.9880 N   0  0  0  0  0  0  0  0  0  0  0  0
  -26.5360  -12.1340   20.2160 N   0  0  0  0  0  0  0  0  0  0  0  0
  -24.5610  -10.8890   20.8370 C   0  0  0  0  0  0  0  0  0  0  0  0
  -24.9520   -9.9580   21.8240 C   0  0  0  0  0  3  0  0  0  0  0  0
  -24.2350   -8.7550   21.9990 C   0  0  0  0  0  3  0  0  0  0  0  0
  -23.1150   -8.4700   21.1840 C   0  0  0  0  0  0  0  0  0  0  0  0
  -22.7410   -9.3930   20.1900 C   0  0  0  0  0  3  0  0  0  0  0  0
  -23.4560  -10.5870   20.0140 C   0  0  0  0  0  3  0  0  0  0  0  0
  -22.3770   -7.3140   21.2620 O   0  0  0  0  0  0  0  0  0  0  0  0
  -22.1070   -6.7100   22.4640 C   0  0  0  0  0  0  0  0  0  0  0  0
  -21.4240   -7.3860   23.4990 C   0  0  0  0  0  3  0  0  0  0  0  0
  -21.1020   -6.7070   24.6920 C   0  0  0  0  0  3  0  0  0  0  0  0
  -21.4540   -5.3530   24.8500 C   0  0  0  0  0  0  0  0  0  0  0  0
  -22.1290   -4.6750   23.8200 C   0  0  0  0  0  3  0  0  0  0  0  0
  -22.4520   -5.3520   22.6290 C   0  0  0  0  0  0  0  0  0  0  0  0
  -23.0870   -4.6890   21.6330 F   0  0  0  0  0  0  0  0  0  0  0  0
  -21.1410   -4.6990   25.9930 F   0  0  0  0  0  0  0  0  0  0  0  0
  -23.4710  -13.9740   21.2200 C   0  0  0  0  0  0  0  0  0  0  0  0
  -22.8330  -13.2650   22.1450 N   0  0  0  0  0  0  0  0  0  0  0  0
  -22.9840  -15.0090   20.7680 O   0  0  0  0  0  0  0  0  0  0  0  0
  -23.2480  -12.4310   22.5350 H   0  0  0  0  0  0  0  0  0  0  0  0
  -21.9260  -13.5640   22.4710 H   0  0  0  0  0  0  0  0  0  0  0  0
  -26.0260  -15.6730   20.2640 N   0  0  0  0  0  0  0  0  0  0  0  0
  -25.2850  -16.3240   20.4960 H   0  0  0  0  0  0  0  0  0  0  0  0
  -26.8540  -16.1330   19.9050 H   0  0  0  0  0  0  0  0  0  0  0  0
  -30.9190  -17.5900   24.1450 C   0  0  0  0  0  3  0  0  0  0  0  0
  -30.2280  -18.5480   24.6000 N   0  0  0  0  0  0  0  0  0  0  0  0
  -29.9540  -19.1910   23.8620 H   0  0  0  0  0  0  0  0  0  0  0  0
  -29.0450  -21.4690   19.3160 C   0  0  0  0  0  2  0  0  0  0  0  0
  -29.6370  -22.9760   19.1750 C   0  0  0  0  0  2  0  0  0  0  0  0
  -28.9850  -24.3290   19.8200 C   0  0  0  0  0  2  0  0  0  0  0  0
  -28.2710  -25.4980   18.9650 C   0  0  0  0  0  2  0  0  0  0  0  0
  -28.3020  -26.9310   19.4450 O   0  0  0  0  0  0  0  0  0  0  0  0
  -24.6030  -31.8760   23.2530 C   0  0  0  0  0  0  0  0  0  0  0  0
  -27.1550  -27.7630   19.5280 C   0  0  0  0  0  0  0  0  0  0  0  0
  -23.3430  -30.6420   21.5270 C   0  0  0  0  0  3  0  0  0  0  0  0
  -24.7550  -29.3210   19.8470 C   0  0  0  0  0  0  0  0  0  0  0  0
  -25.8650  -31.0570   21.2460 C   0  0  0  0  0  2  0  0  0  0  0  0
  -25.9430  -29.7630   20.4340 C   0  0  0  0  0  0  0  0  0  0  0  0
  -27.1400  -28.9930   20.2720 C   0  0  0  0  0  3  0  0  0  0  0  0
  -25.9400  -27.4060   18.9020 C   0  0  0  0  0  3  0  0  0  0  0  0
  -24.7590  -28.1500   19.0740 C   0  0  0  0  0  3  0  0  0  0  0  0
  -23.4990  -30.1430   20.0660 C   0  0  0  0  0  2  0  0  0  0  0  0
  -24.6260  -31.2040   22.0640 N   0  0  0  0  0  0  0  0  0  0  0  0
  -23.5440  -32.0550   23.8740 O   0  0  0  0  0  0  0  0  0  0  0  0
  -22.7700  -29.4930   22.3920 C   0  0  0  0  0  0  0  0  0  0  0  0
  -21.4580  -29.2320   22.2550 N   0  0  0  0  0  0  0  0  0  0  0  0
  -23.5020  -28.8480   23.1450 O   0  0  0  0  0  0  0  0  0  0  0  0
  -20.9190  -29.8240   21.6390 H   0  0  0  0  0  0  0  0  0  0  0  0
  -18.2010  -27.6890   22.5810 C   0  0  0  0  0  0  0  0  0  0  0  0
  -20.7180  -28.1670   22.9340 C   0  0  0  0  0  3  0  0  0  0  0  0
  -20.9630  -26.7980   22.2610 C   0  0  0  0  0  2  0  0  0  0  0  0
  -19.9170  -26.4520   21.1990 C   0  0  0  0  0  2  0  0  0  0  0  0
  -18.5150  -26.4160   21.8140 C   0  0  0  0  0  2  0  0  0  0  0  0
  -19.2340  -28.5210   23.0930 C   0  0  0  0  0  0  0  0  0  0  0  0
  -18.8850  -29.7100   23.7690 C   0  0  0  0  0  3  0  0  0  0  0  0
  -17.5340  -30.0740   23.9350 C   0  0  0  0  0  3  0  0  0  0  0  0
  -16.5160  -29.2400   23.4410 C   0  0  0  0  0  3  0  0  0  0  0  0
  -16.8520  -28.0490   22.7730 C   0  0  0  0  0  3  0  0  0  0  0  0
  -25.9000  -32.4780   23.8750 C   0  0  0  0  0  3  0  0  0  0  0  0
  -25.6030  -33.8560   24.2940 N   0  0  0  0  0  0  0  0  0  0  0  0
  -25.9270  -34.9510   23.5940 C   0  0  0  0  0  0  0  0  0  0  0  0
  -26.5820  -34.9050   22.5500 O   0  0  0  0  0  0  0  0  0  0  0  0
  -25.0290  -33.9640   25.1170 H   0  0  0  0  0  0  0  0  0  0  0  0
  -24.2060  -36.7670   23.3570 C   0  0  0  0  0  1  0  0  0  0  0  0
  -25.4500  -36.3110   24.1370 C   0  0  0  0  0  3  0  0  0  0  0  0
  -27.5880  -37.1380   25.0130 C   0  0  0  0  0  1  0  0  0  0  0  0
  -26.4860  -37.3640   24.0820 N   0  0  0  0  0  0  0  0  0  0  0  0
  -26.0850  -38.2750   24.2850 H   0  0  0  0  0  0  0  0  0  0  0  0
  -26.4460  -31.6410   25.0970 C   0  0  1  0  0  0  0  0  0  0  0  0
  -25.3740  -31.3370   26.1720 C   0  0  0  0  0  1  0  0  0  0  0  0
  -27.0280  -30.2930   24.6160 C   0  0  0  0  0  1  0  0  0  0  0  0
  -27.6070  -32.4000   25.7800 C   0  0  0  0  0  1  0  0  0  0  0  0
  1  2  1  0
  2  4  1  0
  3  1  2  0
  5 17  1  0
  6 11  1  0
  7  8  1  0
  7  6  1  0
  9  8  1  0
  9 21  1  0
  9 10  1  0
 11  5  1  0
 11 10  1  0
 12  5  2  0
 13 15  1  0
 14 15  1  0
 15 46  1  0
 16  1  1  0
 16 17  1  0
 16 13  1  0
 17 14  1  0
 18 19  2  0
 19 38  1  0
 20 19  1  0
 20 23  1  0
 21 22  1  0
 21 18  1  0
 22 20  2  0
 23 24  1  0
 24 25  2  0
 26 29  1  0
 26 25  1  0
 27 26  2  0
 28 27  1  0
 28 23  2  0
 29 30  1  0
 30 35  2  0
 30 31  1  0
 31 32  2  0
 32 33  1  0
 33 37  1  0
 34 33  2  0
 35 34  1  0
 36 35  1  0
 38 39  1  0
 39 42  1  0
 39 41  1  0
 40 38  2  0
 43 18  1  0
 43 44  1  0
 45 43  1  0
 46 47  2  0
 48 47  1  0
 49  2  1  0
 50 49  1  0
 50 51  1  0
 52 53  1  0
 52 51  1  0
 53 55  1  0
 54 65  2  0
 55 60  1  0
 56 64  1  0
 56 66  1  0
 57 63  1  0
 57 59  1  0
 58 64  1  0
 59 58  1  0
 60 59  2  0
 61 62  1  0
 61 55  2  0
 62 57  2  0
 63 56  1  0
 64 54  1  0
 66 68  2  0
 67 66  1  0
 69 67  1  0
 70 79  2  0
 70 75  1  0
 71 67  1  0
 71 75  1  0
 72 71  1  0
 73 74  1  0
 73 72  1  0
 74 70  1  0
 75 76  2  0
 76 77  1  0
 78 77  2  0
 79 78  1  0
 80 54  1  0
 80 81  1  0
 80 90  1  0
 81 84  1  0
 82 86  1  0
 82 81  1  0
 83 82  2  0
 86 85  1  0
 88 86  1  0
 88 89  1  0
 88 87  1  0
 90 93  1  1
 90 91  1  0
 92 90  1  0
M  ISO  4   5 100  17 100  52 101  53 101
M  END
>  <TORSDO>  (91) 
F 21

>  <SCORE>  (91) 
-10.339

>  <name>  (91) 
92

>  <ligand_id>  (91) 
92

>  <original_smiles>  (91) 
[H]N=C([H])C1([H])C([H])([H])N(C(=O)N2C([H])([H])C([H])([H])C([H])([H])C([H])(n3nc(-c4c([H])c([H])c(Oc5c([H])c([H])c(F)c([H])c5F)c([H])c4[H])c(C(=O)N([H])[H])c3N([H])[H])C2([H])[H])C([H])(C(=O)N([H])C([H])([H])C([H])([H])C([H])([H])C([H])([H])Oc2c([H])c([H])c3c(c2[H])C([H])([H])N(C(=O)C([H])(N([H])C(=O)C([H])(N([H])C([H])([H])[H])C([H])([H])[H])C(C([H])([H])[H])(C([H])([H])[H])C([H])([H])[H])C([H])(C(=O)N([H])C2([H])c4c([H])c([H])c([H])c([H])c4C([H])([H])C([H])([H])C2([H])[H])C3([H])[H])C1([H])[H]

>  <smiles>  (91) 
[H]N=C([H])C1([H])C([H])([H])N(C(=O)N2C([H])([H])C([H])([H])C([H])([H])C([H])(n3nc(-c4c([H])c([H])c(Oc5c([H])c([H])c(F)c([H])c5F)c([H])c4[H])c(C(=O)N([H])[H])c3N([H])[H])C2([H])[H])C([H])(C(=O)N([H])C([H])([H])C([H])([H])C([H])([H])C([H])([H])Oc2c([H])c([H])c3c(c2[H])C([H])([H])N(C(=O)C([H])(N([H])C(=O)C([H])(N([H])C([H])([H])[H])C([H])([H])[H])C(C([H])([H])[H])(C([H])([H])[H])C([H])([H])[H])C([H])(C(=O)N([H])C2([H])c4c([H])c([H])c([H])c([H])c4C([H])([H])C([H])([H])C2([H])[H])C3([H])[H])C1([H])[H]

$$$$
93:0:0
     RDKit          3D

 96104  0  0  1  0  0  0  0  0999 V2000
  -29.1100  -19.8680   20.5440 C   0  0  0  0  0  0  0  0  0  0  0  0
  -30.8070  -21.5390   21.0110 C   0  0  0  0  0  2  0  0  0  0  0  0
  -29.9360  -22.3750   21.9680 C   0  0  0  0  0  3  0  0  0  0  0  0
  -28.9290  -22.4730   20.8120 C   0  0  0  0  0  3  0  0  0  0  0  0
  -29.5910  -21.2080   20.2630 N   0  0  0  0  0  0  0  0  0  0  0  0
  -28.2250  -19.7350   21.3920 O   0  0  0  0  0  0  0  0  0  0  0  0
  -29.4180  -21.6470   23.1500 N   0  0  0  0  0  4  0  0  0  0  0  0
  -28.9040  -20.8340   22.8410 H   0  0  0  0  0  0  0  0  0  0  0  0
  -28.7910  -22.2280   23.6800 H   0  0  0  0  0  0  0  0  0  0  0  0
  -30.1600  -21.3600   23.7620 H   0  0  0  0  0  0  0  0  0  0  0  0
  -28.5230  -18.0610   18.8390 C   0  0  0  0  0  1  0  0  0  0  0  0
  -29.6400  -18.5690   19.7690 C   0  0  0  0  0  3  0  0  0  0  0  0
  -30.3580  -17.3240   20.5490 C   0  0  0  0  0  3  0  0  0  0  0  0
  -30.6650  -14.7710   19.9530 C   0  0  0  0  0  0  0  0  0  0  0  0
  -30.3820  -12.5170   18.9240 C   0  0  0  0  0  2  0  0  0  0  0  0
  -29.3720  -12.6120   17.7600 C   0  0  0  0  0  2  0  0  0  0  0  0
  -27.9280  -12.4540   18.2760 C   0  0  0  0  0  2  0  0  0  0  0  0
  -27.6370  -13.3390   19.5180 C   0  0  0  0  0  3  0  0  0  0  0  0
  -28.7570  -13.2230   20.5740 C   0  0  0  0  0  2  0  0  0  0  0  0
  -30.0210  -13.5600   19.9050 N   0  0  0  0  0  0  0  0  0  0  0  0
  -31.8300  -14.8770   19.5560 O   0  0  0  0  0  0  0  0  0  0  0  0
  -29.9190  -15.8840   20.2830 N   0  0  0  0  0  0  0  0  0  0  0  0
  -28.9530  -15.6850   20.4950 H   0  0  0  0  0  0  0  0  0  0  0  0
  -25.3120  -13.9550   20.4150 C   0  0  0  0  0  0  0  0  0  0  0  0
  -24.2560  -13.1900   20.8290 C   0  0  0  0  0  0  0  0  0  0  0  0
  -24.6870  -11.8310   20.7250 C   0  0  0  0  0  0  0  0  0  0  0  0
  -26.3200  -13.0640   20.0850 N   0  0  0  0  0  0  0  0  0  0  0  0
  -25.9550  -11.7790   20.3330 N   0  0  0  0  0  0  0  0  0  0  0  0
  -23.9480  -10.5770   20.9200 C   0  0  0  0  0  0  0  0  0  0  0  0
  -24.4090   -9.5790   21.8060 C   0  0  0  0  0  3  0  0  0  0  0  0
  -23.6710   -8.3900   21.9910 C   0  0  0  0  0  3  0  0  0  0  0  0
  -22.4570   -8.1920   21.2900 C   0  0  0  0  0  0  0  0  0  0  0  0
  -22.0160   -9.1780   20.3900 C   0  0  0  0  0  3  0  0  0  0  0  0
  -22.7550  -10.3580   20.2030 C   0  0  0  0  0  3  0  0  0  0  0  0
  -21.6870   -7.0580   21.3860 O   0  0  0  0  0  0  0  0  0  0  0  0
  -21.6650   -6.2980   22.5280 C   0  0  0  0  0  0  0  0  0  0  0  0
  -21.2950   -6.8410   23.7770 C   0  0  0  0  0  3  0  0  0  0  0  0
  -21.2190   -6.0080   24.9110 C   0  0  0  0  0  3  0  0  0  0  0  0
  -21.5020   -4.6350   24.7980 C   0  0  0  0  0  0  0  0  0  0  0  0
  -21.8660   -4.0910   23.5540 C   0  0  0  0  0  3  0  0  0  0  0  0
  -21.9440   -4.9200   22.4210 C   0  0  0  0  0  0  0  0  0  0  0  0
  -22.2740   -4.3880   21.2200 F   0  0  0  0  0  0  0  0  0  0  0  0
  -21.4220   -3.8330   25.8860 F   0  0  0  0  0  0  0  0  0  0  0  0
  -22.8890  -13.6840   21.2030 C   0  0  0  0  0  0  0  0  0  0  0  0
  -22.2060  -12.9760   22.0970 N   0  0  0  0  0  0  0  0  0  0  0  0
  -22.4380  -14.7300   20.7400 O   0  0  0  0  0  0  0  0  0  0  0  0
  -22.5860  -12.1300   22.4930 H   0  0  0  0  0  0  0  0  0  0  0  0
  -21.2910  -13.2870   22.3900 H   0  0  0  0  0  0  0  0  0  0  0  0
  -25.4920  -15.3270   20.2690 N   0  0  0  0  0  0  0  0  0  0  0  0
  -24.7430  -15.9880   20.4440 H   0  0  0  0  0  0  0  0  0  0  0  0
  -26.3140  -15.7590   19.8680 H   0  0  0  0  0  0  0  0  0  0  0  0
  -31.3070  -16.5120   22.8300 C   0  0  0  0  0  1  0  0  0  0  0  0
  -30.4390  -17.5360   22.0810 C   0  0  0  0  0  2  0  0  0  0  0  0
  -28.9670  -23.8660   20.0060 C   0  0  0  0  0  3  0  0  0  0  0  0
  -28.3200  -25.1490   20.7330 C   0  0  0  0  0  3  0  0  0  0  0  0
  -28.5170  -26.5450   20.2430 O   0  0  0  0  0  0  0  0  0  0  0  0
  -24.6780  -31.9240   23.2190 C   0  0  0  0  0  0  0  0  0  0  0  0
  -27.3970  -27.3930   20.2150 C   0  0  0  0  0  0  0  0  0  0  0  0
  -23.5200  -30.5090   21.5600 C   0  0  0  0  0  3  0  0  0  0  0  0
  -25.0130  -28.9730   20.1600 C   0  0  0  0  0  0  0  0  0  0  0  0
  -26.0570  -30.8610   21.4160 C   0  0  0  0  0  2  0  0  0  0  0  0
  -26.1670  -29.4810   20.7740 C   0  0  0  0  0  0  0  0  0  0  0  0
  -27.3640  -28.7030   20.7880 C   0  0  0  0  0  3  0  0  0  0  0  0
  -26.2260  -26.9410   19.5720 C   0  0  0  0  0  3  0  0  0  0  0  0
  -25.0450  -27.7100   19.5480 C   0  0  0  0  0  3  0  0  0  0  0  0
  -23.7650  -29.8320   20.1850 C   0  0  0  0  0  2  0  0  0  0  0  0
  -24.7700  -31.1150   22.1220 N   0  0  0  0  0  0  0  0  0  0  0  0
  -23.5830  -32.1850   23.7360 O   0  0  0  0  0  0  0  0  0  0  0  0
  -22.8550  -29.4850   22.5120 C   0  0  0  0  0  0  0  0  0  0  0  0
  -21.5350  -29.2860   22.3610 N   0  0  0  0  0  0  0  0  0  0  0  0
  -23.5290  -28.8720   23.3440 O   0  0  0  0  0  0  0  0  0  0  0  0
  -21.0510  -29.8330   21.6630 H   0  0  0  0  0  0  0  0  0  0  0  0
  -18.1710  -28.0220   22.7810 C   0  0  0  0  0  0  0  0  0  0  0  0
  -20.7150  -28.3380   23.1180 C   0  0  0  0  0  3  0  0  0  0  0  0
  -20.8640  -26.9040   22.5590 C   0  0  0  0  0  2  0  0  0  0  0  0
  -19.7970  -26.5490   21.5190 C   0  0  0  0  0  2  0  0  0  0  0  0
  -18.3950  -26.6710   22.1240 C   0  0  0  0  0  2  0  0  0  0  0  0
  -19.2610  -28.8120   23.2340 C   0  0  0  0  0  0  0  0  0  0  0  0
  -18.9980  -30.0750   23.8070 C   0  0  0  0  0  3  0  0  0  0  0  0
  -17.6790  -30.5480   23.9340 C   0  0  0  0  0  3  0  0  0  0  0  0
  -16.6030  -29.7560   23.4970 C   0  0  0  0  0  3  0  0  0  0  0  0
  -16.8500  -28.4950   22.9270 C   0  0  0  0  0  3  0  0  0  0  0  0
  -25.9420  -32.5730   23.8620 C   0  0  0  0  0  3  0  0  0  0  0  0
  -25.6080  -33.9680   24.1860 N   0  0  0  0  0  0  0  0  0  0  0  0
  -25.9340  -35.0250   23.4310 C   0  0  0  0  0  0  0  0  0  0  0  0
  -26.6150  -34.9290   22.4060 O   0  0  0  0  0  0  0  0  0  0  0  0
  -25.0040  -34.1150   24.9820 H   0  0  0  0  0  0  0  0  0  0  0  0
  -24.1800  -36.7900   23.0640 C   0  0  0  0  0  1  0  0  0  0  0  0
  -25.4230  -36.4070   23.8820 C   0  0  0  0  0  3  0  0  0  0  0  0
  -27.5410  -37.3270   24.7200 C   0  0  0  0  0  1  0  0  0  0  0  0
  -26.4400  -37.4760   23.7710 N   0  0  0  0  0  0  0  0  0  0  0  0
  -26.0190  -38.3900   23.9130 H   0  0  0  0  0  0  0  0  0  0  0  0
  -26.4460  -31.8100   25.1480 C   0  0  1  0  0  0  0  0  0  0  0  0
  -25.3390  -31.5590   26.1980 C   0  0  0  0  0  1  0  0  0  0  0  0
  -27.0520  -30.4400   24.7680 C   0  0  0  0  0  1  0  0  0  0  0  0
  -27.5750  -32.6180   25.8280 C   0  0  0  0  0  1  0  0  0  0  0  0
  1  6  2  0
  2  3  1  0
  3  7  1  0
  4 54  1  0
  4  3  1  0
  5  1  1  0
  5  4  1  0
  5  2  1  0
  7  9  1  0
  7 10  1  0
  8  7  1  0
 12 11  1  0
 12  1  1  0
 12 13  1  0
 13 53  1  0
 14 22  1  0
 15 20  1  0
 16 17  1  0
 16 15  1  0
 18 17  1  0
 18 27  1  0
 18 19  1  0
 20 14  1  0
 20 19  1  0
 21 14  2  0
 22 23  1  0
 22 13  1  0
 24 25  2  0
 25 44  1  0
 26 25  1  0
 26 29  1  0
 27 28  1  0
 27 24  1  0
 28 26  2  0
 29 30  1  0
 30 31  2  0
 32 35  1  0
 32 31  1  0
 33 32  2  0
 34 33  1  0
 34 29  2  0
 35 36  1  0
 36 37  1  0
 37 38  2  0
 39 38  1  0
 39 43  1  0
 40 39  2  0
 41 36  2  0
 41 40  1  0
 42 41  1  0
 44 45  1  0
 45 48  1  0
 45 47  1  0
 46 44  2  0
 49 24  1  0
 49 50  1  0
 51 49  1  0
 53 52  1  0
 54 55  2  0
 56 55  1  0
 57 68  2  0
 58 56  1  0
 58 63  1  0
 59 67  1  0
 59 69  1  0
 60 66  1  0
 60 62  1  0
 61 67  1  0
 62 63  2  0
 62 61  1  0
 64 58  2  0
 65 64  1  0
 65 60  2  0
 66 59  1  0
 67 57  1  0
 69 71  2  0
 70 69  1  0
 72 70  1  0
 73 82  2  0
 73 78  1  0
 74 70  1  0
 74 78  1  0
 75 74  1  0
 76 77  1  0
 76 75  1  0
 77 73  1  0
 78 79  2  0
 79 80  1  0
 81 80  2  0
 82 81  1  0
 83 57  1  0
 83 84  1  0
 83 93  1  0
 84 87  1  0
 85 89  1  0
 85 84  1  0
 86 85  2  0
 89 88  1  0
 91 89  1  0
 91 92  1  0
 91 90  1  0
 93 96  1  1
 93 94  1  0
 95 93  1  0
M  ISO  4  14 100  22 100  55 101  56 101
M  END
>  <TORSDO>  (92) 
F 22

>  <SCORE>  (92) 
-12.461

>  <name>  (92) 
93

>  <ligand_id>  (92) 
93

>  <original_smiles>  (92) 
[H]c1c([H])c([H])c2c(c1[H])C([H])([H])C([H])([H])C([H])([H])C2([H])N([H])C(=O)C1([H])N(C(=O)C([H])(N([H])C(=O)C([H])(N([H])C([H])([H])[H])C([H])([H])[H])C(C([H])([H])[H])(C([H])([H])[H])C([H])([H])[H])C([H])([H])c2c([H])c(OC([H])([H])C([H])([H])C3([H])N(C(=O)C([H])(C([H])([H])[H])C([H])(N([H])C(=O)N4C([H])([H])C([H])([H])C([H])([H])C([H])(n5nc(-c6c([H])c([H])c(Oc7c([H])c([H])c(F)c([H])c7F)c([H])c6[H])c(C(=O)N([H])[H])c5N([H])[H])C4([H])[H])C([H])([H])C([H])([H])[H])C([H])([H])C3([H])[N+]([H])([H])[H])c([H])c([H])c2C1([H])[H]

>  <smiles>  (92) 
[H]c1c([H])c([H])c2c(c1[H])C([H])([H])C([H])([H])C([H])([H])C2([H])N([H])C(=O)C1([H])N(C(=O)C([H])(N([H])C(=O)C([H])(N([H])C([H])([H])[H])C([H])([H])[H])C(C([H])([H])[H])(C([H])([H])[H])C([H])([H])[H])C([H])([H])c2c([H])c(OC([H])([H])C([H])([H])C3([H])N(C(=O)C([H])(C([H])([H])[H])C([H])(N([H])C(=O)N4C([H])([H])C([H])([H])C([H])([H])C([H])(n5nc(-c6c([H])c([H])c(Oc7c([H])c([H])c(F)c([H])c7F)c([H])c6[H])c(C(=O)N([H])[H])c5N([H])[H])C4([H])[H])C([H])([H])C([H])([H])[H])C([H])([H])C3([H])[N+]([H])([H])[H])c([H])c([H])c2C1([H])[H]

$$$$
94:0:0
     RDKit          3D

 96104  0  0  1  0  0  0  0  0999 V2000
  -27.5480  -22.1050   19.5940 C   0  0  0  0  0  3  0  0  0  0  0  0
  -27.2400  -20.7950   19.1920 C   0  0  0  0  0  3  0  0  0  0  0  0
  -29.7310  -21.3220   20.3010 C   0  0  0  0  0  3  0  0  0  0  0  0
  -28.8020  -22.4370   20.1510 C   0  0  0  0  0  0  0  0  0  0  0  0
  -28.1510  -19.7270   19.3290 C   0  0  0  0  0  0  0  0  0  0  0  0
  -29.4320  -19.9480   19.9120 C   0  0  0  0  0  0  0  0  0  0  0  0
  -27.9460  -18.2300   17.2720 C   0  0  0  0  0  1  0  0  0  0  0  0
  -27.6980  -18.3710   18.7870 C   0  0  0  0  0  2  0  0  0  0  0  0
  -30.4730  -18.7370   19.9490 C   0  0  0  0  0  2  0  0  0  0  0  0
  -30.3260  -17.5350   21.0060 C   0  0  0  0  0  2  0  0  0  0  0  0
  -31.0160  -14.9880   20.4750 C   0  0  0  0  0  0  0  0  0  0  0  0
  -30.8400  -12.7390   19.3990 C   0  0  0  0  0  2  0  0  0  0  0  0
  -29.9080  -12.8280   18.1690 C   0  0  0  0  0  2  0  0  0  0  0  0
  -28.4280  -12.6800   18.5790 C   0  0  0  0  0  2  0  0  0  0  0  0
  -28.0490  -13.5710   19.7910 C   0  0  0  0  0  3  0  0  0  0  0  0
  -29.0850  -13.4250   20.9250 C   0  0  0  0  0  2  0  0  0  0  0  0
  -30.3970  -13.7690   20.3590 N   0  0  0  0  0  0  0  0  0  0  0  0
  -32.2260  -15.1090   20.2790 O   0  0  0  0  0  0  0  0  0  0  0  0
  -30.1740  -16.0760   20.5940 N   0  0  0  0  0  0  0  0  0  0  0  0
  -29.2120  -15.7860   20.5630 H   0  0  0  0  0  0  0  0  0  0  0  0
  -25.6640  -14.2150   20.4870 C   0  0  0  0  0  0  0  0  0  0  0  0
  -24.5690  -13.4620   20.8110 C   0  0  0  0  0  0  0  0  0  0  0  0
  -24.9980  -12.0990   20.7600 C   0  0  0  0  0  0  0  0  0  0  0  0
  -26.6890  -13.3150   20.2490 N   0  0  0  0  0  0  0  0  0  0  0  0
  -26.2940  -12.0360   20.4810 N   0  0  0  0  0  0  0  0  0  0  0  0
  -24.2410  -10.8490   20.8990 C   0  0  0  0  0  0  0  0  0  0  0  0
  -24.6090   -9.8630   21.8410 C   0  0  0  0  0  3  0  0  0  0  0  0
  -23.8520   -8.6790   21.9670 C   0  0  0  0  0  3  0  0  0  0  0  0
  -22.7140   -8.4730   21.1510 C   0  0  0  0  0  0  0  0  0  0  0  0
  -22.3660   -9.4490   20.2000 C   0  0  0  0  0  3  0  0  0  0  0  0
  -23.1230  -10.6250   20.0720 C   0  0  0  0  0  3  0  0  0  0  0  0
  -21.9340   -7.3420   21.1870 O   0  0  0  0  0  0  0  0  0  0  0  0
  -21.7630   -6.6240   22.3440 C   0  0  0  0  0  0  0  0  0  0  0  0
  -21.1960   -7.1970   23.5030 C   0  0  0  0  0  3  0  0  0  0  0  0
  -20.9760   -6.4040   24.6460 C   0  0  0  0  0  3  0  0  0  0  0  0
  -21.3130   -5.0370   24.6300 C   0  0  0  0  0  0  0  0  0  0  0  0
  -21.8730   -4.4620   23.4750 C   0  0  0  0  0  3  0  0  0  0  0  0
  -22.0960   -5.2540   22.3340 C   0  0  0  0  0  0  0  0  0  0  0  0
  -22.6160   -4.6890   21.2170 F   0  0  0  0  0  0  0  0  0  0  0  0
  -21.0940   -4.2710   25.7250 F   0  0  0  0  0  0  0  0  0  0  0  0
  -23.1770  -13.9650   21.0580 C   0  0  0  0  0  0  0  0  0  0  0  0
  -22.4170  -13.2780   21.9020 N   0  0  0  0  0  0  0  0  0  0  0  0
  -22.7730  -15.0050   20.5360 O   0  0  0  0  0  0  0  0  0  0  0  0
  -22.7580  -12.4350   22.3410 H   0  0  0  0  0  0  0  0  0  0  0  0
  -21.4830  -13.5980   22.1120 H   0  0  0  0  0  0  0  0  0  0  0  0
  -25.8670  -15.5850   20.3440 N   0  0  0  0  0  0  0  0  0  0  0  0
  -25.1110  -16.2510   20.4450 H   0  0  0  0  0  0  0  0  0  0  0  0
  -26.7160  -15.9990   19.9890 H   0  0  0  0  0  0  0  0  0  0  0  0
  -29.0580  -23.9500   20.6180 C   0  0  0  0  0  3  0  0  0  0  0  0
  -28.6190  -24.1530   22.0920 C   0  0  0  0  0  2  0  0  0  0  0  0
  -29.2950  -23.2560   23.0460 N   0  0  0  0  0  4  0  0  0  0  0  0
  -29.0760  -22.2950   22.8500 H   0  0  0  0  0  0  0  0  0  0  0  0
  -28.9890  -23.4670   23.9770 H   0  0  0  0  0  0  0  0  0  0  0  0
  -30.2880  -23.3870   23.0020 H   0  0  0  0  0  0  0  0  0  0  0  0
  -28.3740  -25.1400   19.7570 C   0  0  0  0  0  2  0  0  0  0  0  0
  -28.4450  -26.5910   20.1550 O   0  0  0  0  0  0  0  0  0  0  0  0
  -24.6450  -31.9500   23.2590 C   0  0  0  0  0  0  0  0  0  0  0  0
  -27.3160  -27.4480   20.1040 C   0  0  0  0  0  0  0  0  0  0  0  0
  -23.4590  -30.5560   21.6110 C   0  0  0  0  0  3  0  0  0  0  0  0
  -24.9300  -29.0570   20.1500 C   0  0  0  0  0  0  0  0  0  0  0  0
  -25.9980  -30.9050   21.4290 C   0  0  0  0  0  2  0  0  0  0  0  0
  -26.0970  -29.5370   20.7530 C   0  0  0  0  0  0  0  0  0  0  0  0
  -27.2880  -28.7410   20.7300 C   0  0  0  0  0  3  0  0  0  0  0  0
  -26.1170  -27.0490   19.4580 C   0  0  0  0  0  3  0  0  0  0  0  0
  -24.9420  -27.8170   19.4990 C   0  0  0  0  0  3  0  0  0  0  0  0
  -23.6790  -29.9080   20.2200 C   0  0  0  0  0  2  0  0  0  0  0  0
  -24.7200  -31.1530   22.1560 N   0  0  0  0  0  0  0  0  0  0  0  0
  -23.5570  -32.2050   23.7990 O   0  0  0  0  0  0  0  0  0  0  0  0
  -22.8200  -29.5110   22.5550 C   0  0  0  0  0  0  0  0  0  0  0  0
  -21.5040  -29.2840   22.4050 N   0  0  0  0  0  0  0  0  0  0  0  0
  -23.5070  -28.9100   23.3850 O   0  0  0  0  0  0  0  0  0  0  0  0
  -21.0050  -29.8290   21.7150 H   0  0  0  0  0  0  0  0  0  0  0  0
  -18.1670  -27.9390   22.8190 C   0  0  0  0  0  0  0  0  0  0  0  0
  -20.7050  -28.3140   23.1560 C   0  0  0  0  0  3  0  0  0  0  0  0
  -20.8850  -26.8850   22.5890 C   0  0  0  0  0  2  0  0  0  0  0  0
  -19.8220  -26.5100   21.5510 C   0  0  0  0  0  2  0  0  0  0  0  0
  -18.4190  -26.5950   22.1580 C   0  0  0  0  0  2  0  0  0  0  0  0
  -19.2400  -28.7520   23.2730 C   0  0  0  0  0  0  0  0  0  0  0  0
  -18.9530  -30.0090   23.8480 C   0  0  0  0  0  3  0  0  0  0  0  0
  -17.6250  -30.4530   23.9810 C   0  0  0  0  0  3  0  0  0  0  0  0
  -16.5660  -29.6360   23.5450 C   0  0  0  0  0  3  0  0  0  0  0  0
  -16.8390  -28.3850   22.9670 C   0  0  0  0  0  3  0  0  0  0  0  0
  -25.9170  -32.5980   23.8840 C   0  0  0  0  0  3  0  0  0  0  0  0
  -26.4180  -31.8490   25.1800 C   0  0  1  0  0  0  0  0  0  0  0  0
  -25.3030  -31.6010   26.2250 C   0  0  0  0  0  1  0  0  0  0  0  0
  -27.0400  -30.4760   24.8220 C   0  0  0  0  0  1  0  0  0  0  0  0
  -27.5310  -32.6800   25.8630 C   0  0  0  0  0  1  0  0  0  0  0  0
  -25.5950  -33.9970   24.1870 N   0  0  0  0  0  0  0  0  0  0  0  0
  -25.9500  -35.0410   23.4280 C   0  0  0  0  0  0  0  0  0  0  0  0
  -26.6500  -34.9300   22.4180 O   0  0  0  0  0  0  0  0  0  0  0  0
  -24.9600  -34.1560   24.9570 H   0  0  0  0  0  0  0  0  0  0  0  0
  -24.2340  -36.8370   23.0140 C   0  0  0  0  0  1  0  0  0  0  0  0
  -25.4480  -36.4300   23.8610 C   0  0  0  0  0  3  0  0  0  0  0  0
  -27.5550  -37.3260   24.7560 C   0  0  0  0  0  1  0  0  0  0  0  0
  -26.4840  -37.4840   23.7750 N   0  0  0  0  0  0  0  0  0  0  0  0
  -26.0690  -38.4020   23.9100 H   0  0  0  0  0  0  0  0  0  0  0  0
  1  4  1  0
  2  5  1  0
  2  1  2  0
  4  3  2  0
  4 49  1  0
  5  6  2  0
  6  9  1  0
  6  3  1  0
  7  8  1  0
  8  5  1  0
  9 10  1  0
 11 19  1  0
 12 17  1  0
 13 14  1  0
 13 12  1  0
 15 14  1  0
 15 24  1  0
 15 16  1  0
 17 11  1  0
 17 16  1  0
 18 11  2  0
 19 10  1  0
 20 19  1  0
 21 22  2  0
 22 41  1  0
 23 22  1  0
 23 26  1  0
 24 25  1  0
 24 21  1  0
 25 23  2  0
 26 27  1  0
 27 28  2  0
 29 32  1  0
 29 28  1  0
 30 29  2  0
 31 30  1  0
 31 26  2  0
 32 33  1  0
 33 34  1  0
 34 35  2  0
 36 35  1  0
 36 40  1  0
 37 36  2  0
 38 33  2  0
 38 37  1  0
 39 38  1  0
 41 42  1  0
 42 45  1  0
 42 44  1  0
 43 41  2  0
 46 47  1  0
 46 21  1  0
 48 46  1  0
 49 55  1  0
 49 50  1  0
 50 51  1  0
 51 53  1  0
 52 51  1  0
 54 51  1  0
 55 56  1  0
 57 68  2  0
 58 56  1  0
 58 63  1  0
 59 67  1  0
 59 69  1  0
 60 66  1  0
 60 62  1  0
 61 67  1  0
 62 61  1  0
 63 62  2  0
 64 65  1  0
 64 58  2  0
 65 60  2  0
 66 59  1  0
 67 57  1  0
 69 71  2  0
 70 69  1  0
 72 70  1  0
 73 82  2  0
 73 78  1  0
 74 70  1  0
 74 78  1  0
 75 74  1  0
 76 77  1  0
 76 75  1  0
 77 73  1  0
 78 79  2  0
 79 80  1  0
 81 80  2  0
 82 81  1  0
 83 57  1  0
 83 88  1  0
 83 84  1  0
 84 87  1  1
 84 85  1  0
 86 84  1  0
 88 91  1  0
 89 93  1  0
 89 88  1  0
 90 89  2  0
 93 92  1  0
 95 93  1  0
 95 96  1  0
 95 94  1  0
M  ISO  4  11 100  19 100  55 101  56 101
M  END
>  <TORSDO>  (93) 
F 23

>  <SCORE>  (93) 
-12.789

>  <name>  (93) 
94

>  <ligand_id>  (93) 
94

>  <original_smiles>  (93) 
[H]c1c([H])c([H])c2c(c1[H])C([H])([H])C([H])([H])C([H])([H])C2([H])N([H])C(=O)C1([H])N(C(=O)C([H])(N([H])C(=O)C([H])(N([H])C([H])([H])[H])C([H])([H])[H])C(C([H])([H])[H])(C([H])([H])[H])C([H])([H])[H])C([H])([H])c2c([H])c(OC([H])([H])C([H])(c3c([H])c([H])c(C([H])([H])C([H])([H])[H])c(C([H])([H])C([H])([H])N([H])C(=O)N4C([H])([H])C([H])([H])C([H])([H])C([H])(n5nc(-c6c([H])c([H])c(Oc7c([H])c([H])c(F)c([H])c7F)c([H])c6[H])c(C(=O)N([H])[H])c5N([H])[H])C4([H])[H])c3[H])C([H])([H])[N+]([H])([H])[H])c([H])c([H])c2C1([H])[H]

>  <smiles>  (93) 
[H]c1c([H])c([H])c2c(c1[H])C([H])([H])C([H])([H])C([H])([H])C2([H])N([H])C(=O)C1([H])N(C(=O)C([H])(N([H])C(=O)C([H])(N([H])C([H])([H])[H])C([H])([H])[H])C(C([H])([H])[H])(C([H])([H])[H])C([H])([H])[H])C([H])([H])c2c([H])c(OC([H])([H])C([H])(c3c([H])c([H])c(C([H])([H])C([H])([H])[H])c(C([H])([H])C([H])([H])N([H])C(=O)N4C([H])([H])C([H])([H])C([H])([H])C([H])(n5nc(-c6c([H])c([H])c(Oc7c([H])c([H])c(F)c([H])c7F)c([H])c6[H])c(C(=O)N([H])[H])c5N([H])[H])C4([H])[H])c3[H])C([H])([H])[N+]([H])([H])[H])c([H])c([H])c2C1([H])[H]

$$$$
95:0:0
     RDKit          3D

 95103  0  0  1  0  0  0  0  0999 V2000
  -31.1830  -23.0650   19.1220 C   0  0  0  0  0  3  0  0  0  0  0  0
  -31.1100  -21.7620   19.6720 C   0  0  0  0  0  3  0  0  0  0  0  0
  -30.2250  -24.0590   19.4300 C   0  0  0  0  0  3  0  0  0  0  0  0
  -29.1160  -22.4420   20.8630 C   0  0  0  0  0  3  0  0  0  0  0  0
  -30.0500  -21.3940   20.5290 C   0  0  0  0  0  0  0  0  0  0  0  0
  -29.1700  -23.7940   20.3280 C   0  0  0  0  0  0  0  0  0  0  0  0
  -26.8080  -24.1590   19.8950 C   0  0  0  0  0  1  0  0  0  0  0  0
  -27.7400  -24.9880   22.0840 C   0  0  0  0  0  1  0  0  0  0  0  0
  -28.0200  -24.8640   20.5720 C   0  0  1  0  0  0  0  0  0  0  0  0
  -28.2560  -26.3140   20.1400 O   0  0  0  0  0  0  0  0  0  0  0  0
  -24.6430  -31.8730   23.2220 C   0  0  0  0  0  0  0  0  0  0  0  0
  -27.1910  -27.2570   20.1250 C   0  0  0  0  0  0  0  0  0  0  0  0
  -23.4220  -30.4850   21.5910 C   0  0  0  0  0  3  0  0  0  0  0  0
  -24.8520  -28.9350   20.1500 C   0  0  0  0  0  0  0  0  0  0  0  0
  -25.9720  -30.7640   21.4070 C   0  0  0  0  0  2  0  0  0  0  0  0
  -26.0280  -29.3820   20.7620 C   0  0  0  0  0  0  0  0  0  0  0  0
  -27.1960  -28.5460   20.7660 C   0  0  0  0  0  3  0  0  0  0  0  0
  -26.0220  -26.9530   19.4000 C   0  0  0  0  0  3  0  0  0  0  0  0
  -24.8460  -27.7160   19.4650 C   0  0  0  0  0  3  0  0  0  0  0  0
  -23.6260  -29.8250   20.2050 C   0  0  0  0  0  2  0  0  0  0  0  0
  -24.6990  -31.0600   22.1270 N   0  0  0  0  0  0  0  0  0  0  0  0
  -23.5650  -32.1550   23.7620 O   0  0  0  0  0  0  0  0  0  0  0  0
  -22.7660  -29.4600   22.5510 C   0  0  0  0  0  0  0  0  0  0  0  0
  -21.4400  -29.2850   22.4410 N   0  0  0  0  0  0  0  0  0  0  0  0
  -23.4550  -28.8310   23.3620 O   0  0  0  0  0  0  0  0  0  0  0  0
  -20.9390  -29.8510   21.7700 H   0  0  0  0  0  0  0  0  0  0  0  0
  -18.0650  -28.0880   22.9620 C   0  0  0  0  0  0  0  0  0  0  0  0
  -20.6260  -28.3490   23.2220 C   0  0  0  0  0  3  0  0  0  0  0  0
  -20.7250  -26.9130   22.6530 C   0  0  0  0  0  2  0  0  0  0  0  0
  -19.6180  -26.5890   21.6470 C   0  0  0  0  0  2  0  0  0  0  0  0
  -18.2390  -26.7350   22.2960 C   0  0  0  0  0  2  0  0  0  0  0  0
  -19.1860  -28.8500   23.3860 C   0  0  0  0  0  0  0  0  0  0  0  0
  -18.9690  -30.1170   23.9710 C   0  0  0  0  0  3  0  0  0  0  0  0
  -17.6650  -30.6180   24.1440 C   0  0  0  0  0  3  0  0  0  0  0  0
  -16.5580  -29.8500   23.7430 C   0  0  0  0  0  3  0  0  0  0  0  0
  -16.7600  -28.5870   23.1540 C   0  0  0  0  0  3  0  0  0  0  0  0
  -25.9330  -32.4990   23.8340 C   0  0  0  0  0  3  0  0  0  0  0  0
  -25.6270  -33.8950   24.1800 N   0  0  0  0  0  0  0  0  0  0  0  0
  -25.9380  -34.9570   23.4230 C   0  0  0  0  0  0  0  0  0  0  0  0
  -26.5830  -34.8650   22.3780 O   0  0  0  0  0  0  0  0  0  0  0  0
  -25.0670  -34.0430   25.0070 H   0  0  0  0  0  0  0  0  0  0  0  0
  -24.1880  -36.7390   23.1330 C   0  0  0  0  0  1  0  0  0  0  0  0
  -25.4530  -36.3390   23.9070 C   0  0  0  0  0  3  0  0  0  0  0  0
  -27.6060  -37.2270   24.6800 C   0  0  0  0  0  1  0  0  0  0  0  0
  -26.4740  -37.4000   23.7750 N   0  0  0  0  0  0  0  0  0  0  0  0
  -26.0660  -38.3150   23.9520 H   0  0  0  0  0  0  0  0  0  0  0  0
  -26.4670  -31.7160   25.0950 C   0  0  1  0  0  0  0  0  0  0  0  0
  -25.3920  -31.4710   26.1770 C   0  0  0  0  0  1  0  0  0  0  0  0
  -27.0420  -30.3400   24.6830 C   0  0  0  0  0  1  0  0  0  0  0  0
  -27.6270  -32.5000   25.7480 C   0  0  0  0  0  1  0  0  0  0  0  0
  -30.0020  -19.9420   21.1660 C   0  0  0  0  0  2  0  0  0  0  0  0
  -30.0800  -18.5840   20.2920 C   0  0  0  0  0  3  0  0  0  0  0  0
  -28.9860  -18.5530   19.3030 N   0  0  0  0  0  4  0  0  0  0  0  0
  -28.0830  -18.4790   19.7380 H   0  0  0  0  0  0  0  0  0  0  0  0
  -29.1040  -17.7920   18.6530 H   0  0  0  0  0  0  0  0  0  0  0  0
  -29.0040  -19.4070   18.7720 H   0  0  0  0  0  0  0  0  0  0  0  0
  -30.1920  -17.2190   21.1620 C   0  0  0  0  0  2  0  0  0  0  0  0
  -30.6040  -14.7250   20.4120 C   0  0  0  0  0  0  0  0  0  0  0  0
  -30.3970  -12.4790   19.3430 C   0  0  0  0  0  2  0  0  0  0  0  0
  -29.4430  -12.5310   18.1290 C   0  0  0  0  0  2  0  0  0  0  0  0
  -27.9720  -12.3800   18.5650 C   0  0  0  0  0  2  0  0  0  0  0  0
  -27.6030  -13.2580   19.7900 C   0  0  0  0  0  3  0  0  0  0  0  0
  -28.6660  -13.1610   20.9060 C   0  0  0  0  0  2  0  0  0  0  0  0
  -29.9600  -13.5160   20.3010 N   0  0  0  0  0  0  0  0  0  0  0  0
  -31.8000  -14.8420   20.1250 O   0  0  0  0  0  0  0  0  0  0  0  0
  -29.8240  -15.8340   20.6480 N   0  0  0  0  0  0  0  0  0  0  0  0
  -28.8470  -15.5990   20.7500 H   0  0  0  0  0  0  0  0  0  0  0  0
  -25.2080  -13.8620   20.5060 C   0  0  0  0  0  0  0  0  0  0  0  0
  -24.1390  -13.0940   20.8800 C   0  0  0  0  0  0  0  0  0  0  0  0
  -24.5980  -11.7430   20.8580 C   0  0  0  0  0  0  0  0  0  0  0  0
  -26.2530  -12.9780   20.2770 N   0  0  0  0  0  0  0  0  0  0  0  0
  -25.8920  -11.6980   20.5540 N   0  0  0  0  0  0  0  0  0  0  0  0
  -23.8690  -10.4840   21.0550 C   0  0  0  0  0  0  0  0  0  0  0  0
  -24.3100   -9.5100   21.9790 C   0  0  0  0  0  3  0  0  0  0  0  0
  -23.5790   -8.3170   22.1620 C   0  0  0  0  0  3  0  0  0  0  0  0
  -22.3940   -8.0880   21.4230 C   0  0  0  0  0  0  0  0  0  0  0  0
  -21.9730   -9.0510   20.4880 C   0  0  0  0  0  3  0  0  0  0  0  0
  -22.7020  -10.2370   20.3020 C   0  0  0  0  0  3  0  0  0  0  0  0
  -21.6360   -6.9460   21.5170 O   0  0  0  0  0  0  0  0  0  0  0  0
  -21.6190   -6.1840   22.6590 C   0  0  0  0  0  0  0  0  0  0  0  0
  -21.2500   -6.7270   23.9100 C   0  0  0  0  0  3  0  0  0  0  0  0
  -21.1760   -5.8930   25.0440 C   0  0  0  0  0  3  0  0  0  0  0  0
  -21.4640   -4.5200   24.9300 C   0  0  0  0  0  0  0  0  0  0  0  0
  -21.8220   -3.9770   23.6840 C   0  0  0  0  0  3  0  0  0  0  0  0
  -21.8980   -4.8070   22.5530 C   0  0  0  0  0  0  0  0  0  0  0  0
  -22.2250   -4.2740   21.3510 F   0  0  0  0  0  0  0  0  0  0  0  0
  -21.3840   -3.7180   26.0180 F   0  0  0  0  0  0  0  0  0  0  0  0
  -22.7410  -13.5790   21.1420 C   0  0  0  0  0  0  0  0  0  0  0  0
  -22.0030  -12.8920   22.0060 N   0  0  0  0  0  0  0  0  0  0  0  0
  -22.3080  -14.6010   20.6090 O   0  0  0  0  0  0  0  0  0  0  0  0
  -22.3650  -12.0710   22.4640 H   0  0  0  0  0  0  0  0  0  0  0  0
  -21.0630  -13.1980   22.2140 H   0  0  0  0  0  0  0  0  0  0  0  0
  -25.3650  -15.2340   20.3160 N   0  0  0  0  0  0  0  0  0  0  0  0
  -24.5830  -15.8690   20.4210 H   0  0  0  0  0  0  0  0  0  0  0  0
  -26.1720  -15.6660   19.8850 H   0  0  0  0  0  0  0  0  0  0  0  0
  1  3  2  0
  1  2  1  0
  2  5  2  0
  3  6  1  0
  5  4  1  0
  5 51  1  0
  6  9  1  0
  6  4  2  0
  9  7  1  6
  9  8  1  0
 10  9  1  0
 11 22  2  0
 12 10  1  0
 12 17  1  0
 13 21  1  0
 13 23  1  0
 14 20  1  0
 14 16  1  0
 15 21  1  0
 16 17  2  0
 16 15  1  0
 18 19  1  0
 18 12  2  0
 19 14  2  0
 20 13  1  0
 21 11  1  0
 23 25  2  0
 24 23  1  0
 26 24  1  0
 27 36  2  0
 27 32  1  0
 28 24  1  0
 28 32  1  0
 29 28  1  0
 30 31  1  0
 30 29  1  0
 31 27  1  0
 32 33  2  0
 33 34  1  0
 35 34  2  0
 36 35  1  0
 37 11  1  0
 37 38  1  0
 37 47  1  0
 38 41  1  0
 39 43  1  0
 39 38  1  0
 40 39  2  0
 43 42  1  0
 45 43  1  0
 45 46  1  0
 45 44  1  0
 47 50  1  1
 47 48  1  0
 49 47  1  0
 52 57  1  0
 52 51  1  0
 53 54  1  0
 53 52  1  0
 55 53  1  0
 56 53  1  0
 58 66  1  0
 59 64  1  0
 60 61  1  0
 60 59  1  0
 62 61  1  0
 62 71  1  0
 62 63  1  0
 64 58  1  0
 64 63  1  0
 65 58  2  0
 66 67  1  0
 66 57  1  0
 68 69  2  0
 69 88  1  0
 70 69  1  0
 70 73  1  0
 71 68  1  0
 71 72  1  0
 72 70  2  0
 73 74  1  0
 74 75  2  0
 76 79  1  0
 76 75  1  0
 77 76  2  0
 78 77  1  0
 78 73  2  0
 79 80  1  0
 80 81  1  0
 81 82  2  0
 83 82  1  0
 83 87  1  0
 84 83  2  0
 85 80  2  0
 85 84  1  0
 86 85  1  0
 88 89  1  0
 89 92  1  0
 89 91  1  0
 90 88  2  0
 93 94  1  0
 93 68  1  0
 95 93  1  0
M  ISO  4   9 101  10 101  58 100  66 100
M  END
>  <TORSDO>  (94) 
F 21

>  <SCORE>  (94) 
-13.685

>  <name>  (94) 
95

>  <ligand_id>  (94) 
95

>  <original_smiles>  (94) 
[H]c1c([H])c([H])c2c(c1[H])C([H])([H])C([H])([H])C([H])([H])C2([H])N([H])C(=O)C1([H])N(C(=O)C([H])(N([H])C(=O)C([H])(N([H])C([H])([H])[H])C([H])([H])[H])C(C([H])([H])[H])(C([H])([H])[H])C([H])([H])[H])C([H])([H])c2c([H])c(OC(c3c([H])c([H])c([H])c(C([H])([H])C([H])(C([H])([H])N([H])C(=O)N4C([H])([H])C([H])([H])C([H])([H])C([H])(n5nc(-c6c([H])c([H])c(Oc7c([H])c([H])c(F)c([H])c7F)c([H])c6[H])c(C(=O)N([H])[H])c5N([H])[H])C4([H])[H])[N+]([H])([H])[H])c3[H])(C([H])([H])[H])C([H])([H])[H])c([H])c([H])c2C1([H])[H]

>  <smiles>  (94) 
[H]c1c([H])c([H])c2c(c1[H])C([H])([H])C([H])([H])C([H])([H])C2([H])N([H])C(=O)C1([H])N(C(=O)C([H])(N([H])C(=O)C([H])(N([H])C([H])([H])[H])C([H])([H])[H])C(C([H])([H])[H])(C([H])([H])[H])C([H])([H])[H])C([H])([H])c2c([H])c(OC(c3c([H])c([H])c([H])c(C([H])([H])C([H])(C([H])([H])N([H])C(=O)N4C([H])([H])C([H])([H])C([H])([H])C([H])(n5nc(-c6c([H])c([H])c(Oc7c([H])c([H])c(F)c([H])c7F)c([H])c6[H])c(C(=O)N([H])[H])c5N([H])[H])C4([H])[H])[N+]([H])([H])[H])c3[H])(C([H])([H])[H])C([H])([H])[H])c([H])c([H])c2C1([H])[H]

$$$$
96:0:0
     RDKit          3D

 93101  0  0  1  0  0  0  0  0999 V2000
  -28.8120  -20.0400   20.9160 C   0  0  0  0  0  3  0  0  0  0  0  0
  -27.9110  -20.7020   18.8120 C   0  0  0  0  0  3  0  0  0  0  0  0
  -28.2230  -21.0540   20.0710 C   0  0  0  0  0  0  0  0  0  0  0  0
  -28.9800  -18.7710   20.4890 C   0  0  0  0  0  0  0  0  0  0  0  0
  -28.5430  -18.4010   19.1060 C   0  0  0  0  0  0  0  0  0  0  0  0
  -28.5950  -17.2500   18.6650 O   0  0  0  0  0  0  0  0  0  0  0  0
  -28.0690  -19.4280   18.3220 O   0  0  0  0  0  0  0  0  0  0  0  0
  -28.9070  -23.3520   20.3780 C   0  0  0  0  0  3  0  0  0  0  0  0
  -27.9750  -22.3970   20.5570 C   0  0  0  0  0  0  0  0  0  0  0  0
  -26.6530  -22.6880   21.2430 C   0  0  0  0  0  1  0  0  0  0  0  0
  -28.7890  -24.8090   20.8010 C   0  0  0  0  0  2  0  0  0  0  0  0
  -29.2480  -25.7680   19.6900 C   0  0  0  0  0  2  0  0  0  0  0  0
  -29.0710  -27.1300   20.0800 O   0  0  0  0  0  0  0  0  0  0  0  0
  -24.7480  -31.7940   23.2270 C   0  0  0  0  0  0  0  0  0  0  0  0
  -27.8160  -27.7040   20.0610 C   0  0  0  0  0  0  0  0  0  0  0  0
  -23.7060  -30.3990   21.4700 C   0  0  0  0  0  3  0  0  0  0  0  0
  -25.3130  -29.0290   20.0460 C   0  0  0  0  0  0  0  0  0  0  0  0
  -26.2030  -30.9370   21.3940 C   0  0  0  0  0  2  0  0  0  0  0  0
  -26.4060  -29.6060   20.7010 C   0  0  0  0  0  0  0  0  0  0  0  0
  -27.6560  -28.9520   20.7040 C   0  0  0  0  0  3  0  0  0  0  0  0
  -26.6950  -27.1290   19.4150 C   0  0  0  0  0  3  0  0  0  0  0  0
  -25.4510  -27.7890   19.4040 C   0  0  0  0  0  3  0  0  0  0  0  0
  -24.0140  -29.8010   20.0710 C   0  0  0  0  0  2  0  0  0  0  0  0
  -24.9010  -31.0560   22.0910 N   0  0  0  0  0  0  0  0  0  0  0  0
  -23.6320  -31.9670   23.7330 O   0  0  0  0  0  0  0  0  0  0  0  0
  -23.0880  -29.2920   22.3540 C   0  0  0  0  0  0  0  0  0  0  0  0
  -21.7750  -29.0600   22.1920 N   0  0  0  0  0  0  0  0  0  0  0  0
  -23.7870  -28.6470   23.1390 O   0  0  0  0  0  0  0  0  0  0  0  0
  -21.2720  -29.6300   21.5260 H   0  0  0  0  0  0  0  0  0  0  0  0
  -18.4420  -27.7260   22.5970 C   0  0  0  0  0  0  0  0  0  0  0  0
  -20.9920  -28.0390   22.8890 C   0  0  0  0  0  3  0  0  0  0  0  0
  -21.1380  -26.6610   22.2020 C   0  0  0  0  0  2  0  0  0  0  0  0
  -20.0420  -26.3840   21.1660 C   0  0  0  0  0  2  0  0  0  0  0  0
  -18.6580  -26.4380   21.8180 C   0  0  0  0  0  2  0  0  0  0  0  0
  -19.5380  -28.4840   23.0860 C   0  0  0  0  0  0  0  0  0  0  0  0
  -19.2830  -29.6900   23.7730 C   0  0  0  0  0  3  0  0  0  0  0  0
  -17.9640  -30.1400   23.9740 C   0  0  0  0  0  3  0  0  0  0  0  0
  -16.8820  -29.3780   23.4990 C   0  0  0  0  0  3  0  0  0  0  0  0
  -17.1220  -28.1720   22.8160 C   0  0  0  0  0  3  0  0  0  0  0  0
  -25.9640  -32.4750   23.9280 C   0  0  0  0  0  3  0  0  0  0  0  0
  -25.5760  -33.8580   24.2400 N   0  0  0  0  0  0  0  0  0  0  0  0
  -25.9090  -34.9240   23.5010 C   0  0  0  0  0  0  0  0  0  0  0  0
  -26.6430  -34.8510   22.5120 O   0  0  0  0  0  0  0  0  0  0  0  0
  -24.9270  -33.9860   25.0030 H   0  0  0  0  0  0  0  0  0  0  0  0
  -24.1230  -36.6360   23.0400 C   0  0  0  0  0  1  0  0  0  0  0  0
  -25.3310  -36.2890   23.9250 C   0  0  0  0  0  3  0  0  0  0  0  0
  -27.3670  -37.2720   24.8820 C   0  0  0  0  0  1  0  0  0  0  0  0
  -26.3200  -37.3860   23.8710 N   0  0  0  0  0  0  0  0  0  0  0  0
  -25.8630  -38.2870   23.9870 H   0  0  0  0  0  0  0  0  0  0  0  0
  -26.4340  -31.7200   25.2310 C   0  0  1  0  0  0  0  0  0  0  0  0
  -25.2900  -31.4250   26.2290 C   0  0  0  0  0  1  0  0  0  0  0  0
  -27.1000  -30.3730   24.8680 C   0  0  0  0  0  1  0  0  0  0  0  0
  -27.5040  -32.5600   25.9690 C   0  0  0  0  0  1  0  0  0  0  0  0
  -29.5320  -17.6660   21.3920 C   0  0  0  0  0  2  0  0  0  0  0  0
  -30.7410  -16.8820   20.8260 C   0  0  0  0  0  2  0  0  0  0  0  0
  -31.0490  -14.5230   20.0730 C   0  0  0  0  0  0  0  0  0  0  0  0
  -30.6840  -12.3600   18.9470 C   0  0  0  0  0  2  0  0  0  0  0  0
  -29.6800  -12.5520   17.7910 C   0  0  0  0  0  2  0  0  0  0  0  0
  -28.2260  -12.4460   18.2930 C   0  0  0  0  0  2  0  0  0  0  0  0
  -27.9620  -13.3050   19.5580 C   0  0  0  0  0  3  0  0  0  0  0  0
  -29.0630  -13.0660   20.6130 C   0  0  0  0  0  2  0  0  0  0  0  0
  -30.3700  -13.3510   19.9850 N   0  0  0  0  0  0  0  0  0  0  0  0
  -32.0900  -14.7650   19.4540 O   0  0  0  0  0  0  0  0  0  0  0  0
  -30.4430  -15.4520   20.8190 N   0  0  0  0  0  0  0  0  0  0  0  0
  -29.6020  -15.1560   21.2890 H   0  0  0  0  0  0  0  0  0  0  0  0
  -25.6220  -13.9690   20.4080 C   0  0  0  0  0  0  0  0  0  0  0  0
  -24.5540  -13.2170   20.8210 C   0  0  0  0  0  0  0  0  0  0  0  0
  -24.9700  -11.8550   20.7290 C   0  0  0  0  0  0  0  0  0  0  0  0
  -26.6260  -13.0630   20.1000 N   0  0  0  0  0  0  0  0  0  0  0  0
  -26.2380  -11.7850   20.3440 N   0  0  0  0  0  0  0  0  0  0  0  0
  -24.2180  -10.6100   20.9270 C   0  0  0  0  0  0  0  0  0  0  0  0
  -24.6320   -9.6390   21.8660 C   0  0  0  0  0  3  0  0  0  0  0  0
  -23.8830   -8.4570   22.0490 C   0  0  0  0  0  3  0  0  0  0  0  0
  -22.7060   -8.2390   21.2960 C   0  0  0  0  0  0  0  0  0  0  0  0
  -22.3110   -9.1970   20.3460 C   0  0  0  0  0  3  0  0  0  0  0  0
  -23.0600  -10.3710   20.1590 C   0  0  0  0  0  3  0  0  0  0  0  0
  -21.9270   -7.1110   21.3900 O   0  0  0  0  0  0  0  0  0  0  0  0
  -21.8100   -6.4150   22.5660 C   0  0  0  0  0  0  0  0  0  0  0  0
  -21.3000   -7.0130   23.7380 C   0  0  0  0  0  3  0  0  0  0  0  0
  -21.1310   -6.2420   24.9060 C   0  0  0  0  0  3  0  0  0  0  0  0
  -21.4630   -4.8750   24.9030 C   0  0  0  0  0  0  0  0  0  0  0  0
  -21.9660   -4.2770   23.7340 C   0  0  0  0  0  3  0  0  0  0  0  0
  -22.1370   -5.0440   22.5700 C   0  0  0  0  0  0  0  0  0  0  0  0
  -22.6030   -4.4570   21.4410 F   0  0  0  0  0  0  0  0  0  0  0  0
  -21.2940   -4.1320   26.0220 F   0  0  0  0  0  0  0  0  0  0  0  0
  -23.1900  -13.7270   21.1880 C   0  0  0  0  0  0  0  0  0  0  0  0
  -22.4980  -13.0310   22.0840 N   0  0  0  0  0  0  0  0  0  0  0  0
  -22.7470  -14.7730   20.7130 O   0  0  0  0  0  0  0  0  0  0  0  0
  -22.8690  -12.1840   22.4870 H   0  0  0  0  0  0  0  0  0  0  0  0
  -21.5830  -13.3500   22.3740 H   0  0  0  0  0  0  0  0  0  0  0  0
  -25.8170  -15.3380   20.2560 N   0  0  0  0  0  0  0  0  0  0  0  0
  -25.0750  -16.0120   20.4040 H   0  0  0  0  0  0  0  0  0  0  0  0
  -26.6540  -15.7490   19.8490 H   0  0  0  0  0  0  0  0  0  0  0  0
  2  3  2  0
  3  9  1  0
  3  1  1  0
  4  1  2  0
  4 54  1  0
  5  4  1  0
  6  5  2  0
  7  2  1  0
  7  5  1  0
  8  9  2  0
  8 11  1  0
  9 10  1  0
 12 13  1  0
 12 11  1  0
 14 25  2  0
 15 13  1  0
 15 20  1  0
 16 24  1  0
 16 26  1  0
 17 23  1  0
 17 19  1  0
 18 24  1  0
 19 20  2  0
 19 18  1  0
 21 15  2  0
 22 21  1  0
 22 17  2  0
 23 16  1  0
 24 14  1  0
 26 28  2  0
 27 26  1  0
 29 27  1  0
 30 39  2  0
 30 35  1  0
 31 27  1  0
 31 35  1  0
 32 31  1  0
 33 34  1  0
 33 32  1  0
 34 30  1  0
 35 36  2  0
 36 37  1  0
 38 37  2  0
 39 38  1  0
 40 14  1  0
 40 41  1  0
 40 50  1  0
 41 44  1  0
 42 46  1  0
 42 41  1  0
 43 42  2  0
 46 45  1  0
 48 46  1  0
 48 49  1  0
 48 47  1  0
 50 53  1  1
 50 51  1  0
 52 50  1  0
 55 54  1  0
 56 64  1  0
 57 62  1  0
 58 59  1  0
 58 57  1  0
 60 59  1  0
 60 69  1  0
 60 61  1  0
 62 56  1  0
 62 61  1  0
 63 56  2  0
 64 55  1  0
 64 65  1  0
 66 67  2  0
 67 86  1  0
 68 67  1  0
 68 71  1  0
 69 70  1  0
 69 66  1  0
 70 68  2  0
 71 72  1  0
 72 73  2  0
 74 77  1  0
 74 73  1  0
 75 74  2  0
 76 75  1  0
 76 71  2  0
 77 78  1  0
 78 83  2  0
 78 79  1  0
 79 80  2  0
 81 80  1  0
 81 85  1  0
 82 81  2  0
 83 82  1  0
 84 83  1  0
 86 87  1  0
 87 90  1  0
 87 89  1  0
 88 86  2  0
 91 92  1  0
 91 66  1  0
 93 91  1  0
M  ISO  4  12 101  13 101  56 100  64 100
M  END
>  <TORSDO>  (95) 
F 21

>  <SCORE>  (95) 
-12.752

>  <name>  (95) 
96

>  <ligand_id>  (95) 
96

>  <original_smiles>  (95) 
[H]C(=C(c1c([H])oc(=O)c(C([H])([H])C([H])([H])N([H])C(=O)N2C([H])([H])C([H])([H])C([H])([H])C([H])(n3nc(-c4c([H])c([H])c(Oc5c([H])c([H])c(F)c([H])c5F)c([H])c4[H])c(C(=O)N([H])[H])c3N([H])[H])C2([H])[H])c1[H])C([H])([H])[H])C([H])([H])C([H])([H])Oc1c([H])c([H])c2c(c1[H])C([H])([H])N(C(=O)C([H])(N([H])C(=O)C([H])(N([H])C([H])([H])[H])C([H])([H])[H])C(C([H])([H])[H])(C([H])([H])[H])C([H])([H])[H])C([H])(C(=O)N([H])C1([H])c3c([H])c([H])c([H])c([H])c3C([H])([H])C([H])([H])C1([H])[H])C2([H])[H]

>  <smiles>  (95) 
[H]C(=C(c1c([H])oc(=O)c(C([H])([H])C([H])([H])N([H])C(=O)N2C([H])([H])C([H])([H])C([H])([H])C([H])(n3nc(-c4c([H])c([H])c(Oc5c([H])c([H])c(F)c([H])c5F)c([H])c4[H])c(C(=O)N([H])[H])c3N([H])[H])C2([H])[H])c1[H])C([H])([H])[H])C([H])([H])C([H])([H])Oc1c([H])c([H])c2c(c1[H])C([H])([H])N(C(=O)C([H])(N([H])C(=O)C([H])(N([H])C([H])([H])[H])C([H])([H])[H])C(C([H])([H])[H])(C([H])([H])[H])C([H])([H])[H])C([H])(C(=O)N([H])C1([H])c3c([H])c([H])c([H])c([H])c3C([H])([H])C([H])([H])C1([H])[H])C2([H])[H]

$$$$
97:0:0
     RDKit          3D

 91 99  0  0  1  0  0  0  0  0999 V2000
  -30.5960  -24.1630   19.9910 C   0  0  0  0  0  0  0  0  0  0  0  0
  -30.6830  -22.7660   19.3780 C   0  0  0  0  0  2  0  0  0  0  0  0
  -29.1580  -23.9010   20.4460 C   0  0  0  0  0  3  0  0  0  0  0  0
  -29.2850  -22.5220   19.7780 N   0  0  2  0  0  4  0  0  0  0  0  0
  -31.3800  -25.1120   20.0870 O   0  0  0  0  0  0  0  0  0  0  0  0
  -28.7130  -22.4940   18.9470 H   0  0  0  0  0  0  0  0  0  0  0  0
  -28.1730  -24.9860   19.8180 C   0  0  0  0  0  2  0  0  0  0  0  0
  -28.3390  -26.4380   20.1360 O   0  0  0  0  0  0  0  0  0  0  0  0
  -24.6220  -31.8320   23.1700 C   0  0  0  0  0  0  0  0  0  0  0  0
  -27.2260  -27.2990   20.0610 C   0  0  0  0  0  0  0  0  0  0  0  0
  -23.4170  -30.4550   21.5140 C   0  0  0  0  0  3  0  0  0  0  0  0
  -24.8650  -28.9260   20.0640 C   0  0  0  0  0  0  0  0  0  0  0  0
  -25.9570  -30.7710   21.3360 C   0  0  0  0  0  2  0  0  0  0  0  0
  -26.0350  -29.4010   20.6700 C   0  0  0  0  0  0  0  0  0  0  0  0
  -27.2170  -28.5990   20.6620 C   0  0  0  0  0  3  0  0  0  0  0  0
  -26.0370  -26.8910   19.4110 C   0  0  0  0  0  3  0  0  0  0  0  0
  -24.8710  -27.6790   19.4220 C   0  0  0  0  0  3  0  0  0  0  0  0
  -23.6300  -29.7990   20.1250 C   0  0  0  0  0  2  0  0  0  0  0  0
  -24.6840  -31.0350   22.0630 N   0  0  0  0  0  0  0  0  0  0  0  0
  -23.5400  -32.1060   23.7070 O   0  0  0  0  0  0  0  0  0  0  0  0
  -22.7550  -29.4260   22.4620 C   0  0  0  0  0  0  0  0  0  0  0  0
  -21.4250  -29.2660   22.3460 N   0  0  0  0  0  0  0  0  0  0  0  0
  -23.4350  -28.7760   23.2600 O   0  0  0  0  0  0  0  0  0  0  0  0
  -20.9370  -29.8430   21.6750 H   0  0  0  0  0  0  0  0  0  0  0  0
  -18.0380  -28.1120   22.8720 C   0  0  0  0  0  0  0  0  0  0  0  0
  -20.6040  -28.3240   23.1070 C   0  0  0  0  0  3  0  0  0  0  0  0
  -20.6730  -26.9050   22.4970 C   0  0  0  0  0  2  0  0  0  0  0  0
  -19.5510  -26.6230   21.4930 C   0  0  0  0  0  2  0  0  0  0  0  0
  -18.1810  -26.7770   22.1620 C   0  0  0  0  0  2  0  0  0  0  0  0
  -19.1750  -28.8460   23.3010 C   0  0  0  0  0  0  0  0  0  0  0  0
  -18.9870  -30.0980   23.9250 C   0  0  0  0  0  3  0  0  0  0  0  0
  -17.6930  -30.6170   24.1240 C   0  0  0  0  0  3  0  0  0  0  0  0
  -16.5690  -29.8790   23.7100 C   0  0  0  0  0  3  0  0  0  0  0  0
  -16.7430  -28.6290   23.0900 C   0  0  0  0  0  3  0  0  0  0  0  0
  -25.9060  -32.4560   23.8000 C   0  0  0  0  0  3  0  0  0  0  0  0
  -25.5950  -33.8480   24.1550 N   0  0  0  0  0  0  0  0  0  0  0  0
  -25.9170  -34.9150   23.4110 C   0  0  0  0  0  0  0  0  0  0  0  0
  -26.5780  -34.8300   22.3730 O   0  0  0  0  0  0  0  0  0  0  0  0
  -25.0050  -33.9870   24.9620 H   0  0  0  0  0  0  0  0  0  0  0  0
  -24.1760  -36.7040   23.1100 C   0  0  0  0  0  1  0  0  0  0  0  0
  -25.4300  -36.2940   23.8960 C   0  0  0  0  0  3  0  0  0  0  0  0
  -27.5730  -37.1750   24.7090 C   0  0  0  0  0  1  0  0  0  0  0  0
  -26.4570  -37.3530   23.7850 N   0  0  0  0  0  0  0  0  0  0  0  0
  -26.0500  -38.2700   23.9540 H   0  0  0  0  0  0  0  0  0  0  0  0
  -26.4260  -31.6650   25.0620 C   0  0  1  0  0  0  0  0  0  0  0  0
  -25.3350  -31.4080   26.1280 C   0  0  0  0  0  1  0  0  0  0  0  0
  -27.0100  -30.2950   24.6470 C   0  0  0  0  0  1  0  0  0  0  0  0
  -27.5790  -32.4490   25.7320 C   0  0  0  0  0  1  0  0  0  0  0  0
  -29.1110  -21.2160   20.5620 C   0  0  0  0  0  3  0  0  0  0  0  0
  -29.6030  -19.8540   19.8480 C   0  0  0  0  0  3  0  0  0  0  0  0
  -27.8570  -18.0760   20.5700 C   0  0  0  0  0  1  0  0  0  0  0  0
  -29.3570  -18.4100   20.5130 C   0  0  0  0  0  3  0  0  0  0  0  0
  -30.1670  -17.1890   19.8600 C   0  0  0  0  0  2  0  0  0  0  0  0
  -30.6250  -14.6530   20.0050 C   0  0  0  0  0  0  0  0  0  0  0  0
  -30.3300  -12.4230   18.9530 C   0  0  0  0  0  2  0  0  0  0  0  0
  -29.3380  -12.5640   17.7790 C   0  0  0  0  0  2  0  0  0  0  0  0
  -27.8860  -12.4100   18.2720 C   0  0  0  0  0  2  0  0  0  0  0  0
  -27.5880  -13.2630   19.5350 C   0  0  0  0  0  3  0  0  0  0  0  0
  -28.6960  -13.1180   20.6020 C   0  0  0  0  0  2  0  0  0  0  0  0
  -29.9760  -13.4450   19.9610 N   0  0  0  0  0  0  0  0  0  0  0  0
  -31.7750  -14.7690   19.5740 O   0  0  0  0  0  0  0  0  0  0  0  0
  -29.8800  -15.7690   20.3000 N   0  0  0  0  0  0  0  0  0  0  0  0
  -28.9510  -15.5890   20.6460 H   0  0  0  0  0  0  0  0  0  0  0  0
  -25.2290  -13.8520   20.3610 C   0  0  0  0  0  0  0  0  0  0  0  0
  -24.1820  -13.0750   20.7750 C   0  0  0  0  0  0  0  0  0  0  0  0
  -24.6460  -11.7240   20.7220 C   0  0  0  0  0  0  0  0  0  0  0  0
  -26.2640  -12.9750   20.0790 N   0  0  0  0  0  0  0  0  0  0  0  0
  -25.9220  -11.6910   20.3580 N   0  0  0  0  0  0  0  0  0  0  0  0
  -23.9320  -10.4610   20.9410 C   0  0  0  0  0  0  0  0  0  0  0  0
  -24.3850   -9.5080   21.8790 C   0  0  0  0  0  3  0  0  0  0  0  0
  -23.6690   -8.3080   22.0840 C   0  0  0  0  0  3  0  0  0  0  0  0
  -22.4860   -8.0540   21.3510 C   0  0  0  0  0  0  0  0  0  0  0  0
  -22.0530   -8.9950   20.4000 C   0  0  0  0  0  3  0  0  0  0  0  0
  -22.7690  -10.1850   20.1940 C   0  0  0  0  0  3  0  0  0  0  0  0
  -21.7400   -6.9060   21.4660 O   0  0  0  0  0  0  0  0  0  0  0  0
  -21.6870   -6.1950   22.6380 C   0  0  0  0  0  0  0  0  0  0  0  0
  -21.2560   -6.7840   23.8480 C   0  0  0  0  0  3  0  0  0  0  0  0
  -21.1520   -6.0000   25.0140 C   0  0  0  0  0  3  0  0  0  0  0  0
  -21.4670   -4.6280   24.9720 C   0  0  0  0  0  0  0  0  0  0  0  0
  -21.8900   -4.0400   23.7680 C   0  0  0  0  0  3  0  0  0  0  0  0
  -21.9970   -4.8210   22.6030 C   0  0  0  0  0  0  0  0  0  0  0  0
  -22.3860   -4.2430   21.4410 F   0  0  0  0  0  0  0  0  0  0  0  0
  -21.3590   -3.8740   26.0890 F   0  0  0  0  0  0  0  0  0  0  0  0
  -22.7960  -13.5480   21.1070 C   0  0  0  0  0  0  0  0  0  0  0  0
  -22.1100  -12.8480   22.0030 N   0  0  0  0  0  0  0  0  0  0  0  0
  -22.3340  -14.5730   20.6090 O   0  0  0  0  0  0  0  0  0  0  0  0
  -22.5010  -12.0200   22.4260 H   0  0  0  0  0  0  0  0  0  0  0  0
  -21.1820  -13.1430   22.2690 H   0  0  0  0  0  0  0  0  0  0  0  0
  -25.3810  -15.2230   20.1810 N   0  0  0  0  0  0  0  0  0  0  0  0
  -24.6170  -15.8710   20.3360 H   0  0  0  0  0  0  0  0  0  0  0  0
  -26.2070  -15.6680   19.8020 H   0  0  0  0  0  0  0  0  0  0  0  0
  1  5  2  0
  1  3  1  0
  2  4  1  0
  2  1  1  0
  3  7  1  0
  4  3  1  0
  4 49  1  0
  4  6  1  6
  7  8  1  0
  9 20  2  0
 10  8  1  0
 10 15  1  0
 11 19  1  0
 11 21  1  0
 12 18  1  0
 12 14  1  0
 13 19  1  0
 14 13  1  0
 15 14  2  0
 16 17  1  0
 16 10  2  0
 17 12  2  0
 18 11  1  0
 19  9  1  0
 21 23  2  0
 22 21  1  0
 24 22  1  0
 25 34  2  0
 25 30  1  0
 26 22  1  0
 26 30  1  0
 27 26  1  0
 28 29  1  0
 28 27  1  0
 29 25  1  0
 30 31  2  0
 31 32  1  0
 33 32  2  0
 34 33  1  0
 35  9  1  0
 35 36  1  0
 35 45  1  0
 36 39  1  0
 37 41  1  0
 37 36  1  0
 38 37  2  0
 41 40  1  0
 43 41  1  0
 43 44  1  0
 43 42  1  0
 45 48  1  1
 45 46  1  0
 47 45  1  0
 50 52  1  0
 50 49  2  0
 52 51  1  0
 53 62  1  0
 53 52  1  0
 54 62  1  0
 55 60  1  0
 56 57  1  0
 56 55  1  0
 58 57  1  0
 58 67  1  0
 58 59  1  0
 60 54  1  0
 60 59  1  0
 61 54  2  0
 62 63  1  0
 64 65  2  0
 65 84  1  0
 66 65  1  0
 66 69  1  0
 67 68  1  0
 67 64  1  0
 68 66  2  0
 69 70  1  0
 70 71  2  0
 72 75  1  0
 72 71  1  0
 73 72  2  0
 74 73  1  0
 74 69  2  0
 75 76  1  0
 76 77  1  0
 77 78  2  0
 79 78  1  0
 79 83  1  0
 80 79  2  0
 81 76  2  0
 81 80  1  0
 82 81  1  0
 84 85  1  0
 85 88  1  0
 85 87  1  0
 86 84  2  0
 89 90  1  0
 89 64  1  0
 91 89  1  0
M  ISO  4   7 101   8 101  54 100  62 100
M  END
>  <TORSDO>  (96) 
F 21

>  <SCORE>  (96) 
-13.164

>  <name>  (96) 
97

>  <ligand_id>  (96) 
97

>  <original_smiles>  (96) 
[H]c1c([H])c([H])c2c(c1[H])C([H])([H])C([H])([H])C([H])([H])C2([H])N([H])C(=O)C1([H])N(C(=O)C([H])(N([H])C(=O)C([H])(N([H])C([H])([H])[H])C([H])([H])[H])C(C([H])([H])[H])(C([H])([H])[H])C([H])([H])[H])C([H])([H])c2c([H])c(OC([H])([H])C3([H])C(=O)C([H])([H])[N+]3([H])C([H])([H])C([H])([H])C([H])(C([H])([H])[H])C([H])([H])N([H])C(=O)N3C([H])([H])C([H])([H])C([H])([H])C([H])(n4nc(-c5c([H])c([H])c(Oc6c([H])c([H])c(F)c([H])c6F)c([H])c5[H])c(C(=O)N([H])[H])c4N([H])[H])C3([H])[H])c([H])c([H])c2C1([H])[H]

>  <smiles>  (96) 
[H]c1c([H])c([H])c2c(c1[H])C([H])([H])C([H])([H])C([H])([H])C2([H])N([H])C(=O)C1([H])N(C(=O)C([H])(N([H])C(=O)C([H])(N([H])C([H])([H])[H])C([H])([H])[H])C(C([H])([H])[H])(C([H])([H])[H])C([H])([H])[H])C([H])([H])c2c([H])c(OC([H])([H])C3([H])C(=O)C([H])([H])[N+]3([H])C([H])([H])C([H])([H])C([H])(C([H])([H])[H])C([H])([H])N([H])C(=O)N3C([H])([H])C([H])([H])C([H])([H])C([H])(n4nc(-c5c([H])c([H])c(Oc6c([H])c([H])c(F)c([H])c6F)c([H])c5[H])c(C(=O)N([H])[H])c4N([H])[H])C3([H])[H])c([H])c([H])c2C1([H])[H]

$$$$
