0:0:0
                    3D
 Structure written by MMmdl.
 71 77  0  0  1  0            999 V2000
  -30.4450   11.6650  -23.2110 C   0  0  0  0  0  0
  -29.7520   11.5070  -21.9890 C   0  0  0  0  0  0
  -28.5470   10.7690  -21.9160 C   0  0  0  0  0  0
  -28.7100   10.3510  -24.3190 C   0  0  0  0  0  0
  -29.9360   11.0530  -24.3850 C   0  0  0  0  0  0
  -28.0200   10.2170  -23.1000 C   0  0  0  0  0  0
  -28.3620   10.0800  -19.4400 C   0  0  0  0  0  0
  -26.1840   10.3230  -18.8740 C   0  0  0  0  0  0
  -27.8650   10.5480  -20.6410 C   0  0  0  0  0  0
  -27.3920    9.9560  -18.4460 N   0  0  0  0  0  0
  -26.1480   10.8700  -20.5390 S   0  0  0  0  0  0
  -29.7630    9.6650  -19.1150 C   0  0  0  0  0  0
  -30.7290   11.0830  -25.6910 C   0  0  0  0  0  0
  -29.4320   11.9140  -27.6520 C   0  0  0  0  0  0
  -29.7190   13.0990  -27.4700 O   0  0  0  0  0  0
  -29.9120   10.9230  -26.8940 N   0  0  0  0  0  0
  -29.6630    9.9750  -27.1360 H   0  0  0  0  0  0
  -29.4190   12.7980  -30.6560 C   0  0  0  0  0  0
  -28.4270   11.5050  -28.7510 C   0  0  1  0  0  0
  -26.9560   12.7760  -30.1900 C   0  0  0  0  0  0
  -28.3520   12.4310  -29.8970 N   0  0  0  0  0  0
  -30.5470   12.3340  -30.4530 O   0  0  0  0  0  0
  -27.0090   11.4830  -28.1520 C   0  0  0  0  0  0
  -26.0970   11.8980  -29.2900 C   0  0  1  0  0  0
  -25.6840   10.7630  -30.0360 O   0  0  0  0  0  0
  -26.4650   10.3120  -30.3450 H   0  0  0  0  0  0
  -29.2330   13.7910  -31.8390 C   0  0  1  0  0  0
  -30.0150   13.2790  -32.9800 N   0  0  0  0  0  0
  -29.5220   12.7290  -34.0980 C   0  0  0  0  0  0
  -28.3100   12.6500  -34.3100 O   0  0  0  0  0  0
  -31.0190   13.2450  -32.8690 H   0  0  0  0  0  0
  -30.5420   12.2220  -35.0840 C   0  0  2  0  0  0
  -31.8220   12.1160  -34.5600 F   0  0  0  0  0  0
  -30.4310   12.6280  -36.5350 C   0  0  0  0  0  0
  -30.1490   11.1990  -36.1270 C   0  0  0  0  0  0
  -28.9550   15.8120  -30.2420 C   0  0  0  0  0  0
  -31.1880   15.4090  -31.2790 C   0  0  0  0  0  0
  -29.2630   16.1930  -32.6710 C   0  0  0  0  0  0
  -29.6680   15.2670  -31.5030 C   0  0  0  0  0  0
  -31.5960   12.4300  -23.2340 O   0  0  0  0  0  0
  -31.4280   13.7210  -23.8630 C   0  0  0  0  0  0
  -31.5860   14.9820  -22.9690 C   0  0  0  0  0  0
  -32.3980   15.9460  -23.6500 O   0  0  0  0  0  0
  -33.2260   16.7170  -22.7800 C   0  0  0  0  0  0
  -33.8780   17.8690  -23.5530 C   0  0  0  0  0  0
  -32.8370   18.5370  -24.2300 O   0  0  0  0  0  0
  -33.2410   19.3410  -25.3240 C   0  0  0  0  0  0
  -32.4840   18.7680  -26.5410 C   0  0  0  0  0  0
  -33.2310   17.9800  -27.5360 N   0  0  0  0  0  0
  -34.2660   17.0390  -27.0570 C   0  0  0  0  0  0
  -34.6930   16.1110  -28.2160 C   0  0  0  0  0  0
  -35.2720   16.9440  -29.2730 N   0  0  0  0  0  0
  -34.3320   17.9450  -29.7780 C   0  0  0  0  0  0
  -33.8050   18.8040  -28.6030 C   0  0  0  0  0  0
  -36.1810   16.3950  -30.1950 C   0  0  0  0  0  0
  -37.5240   16.8160  -30.1860 C   0  0  0  0  0  0
  -38.4210   16.3020  -31.1550 C   0  0  0  0  0  0
  -37.9730   15.4040  -32.0840 N   0  0  0  0  0  0
  -36.7050   14.9780  -32.0960 N   0  0  0  0  0  0
  -35.8280   15.4430  -31.1850 C   0  0  0  0  0  0
  -34.5490   14.9350  -31.2760 N   0  0  0  0  0  0
  -33.8560   15.4800  -30.7850 H   0  0  0  0  0  0
  -34.2660   14.6360  -32.1970 H   0  0  0  0  0  0
  -39.8680   16.6930  -31.2370 C   0  0  0  0  0  0
  -40.8560   15.9970  -31.9950 C   0  0  0  0  0  0
  -42.1970   16.4260  -32.0210 C   0  0  0  0  0  0
  -42.6040   17.5470  -31.2820 C   0  0  0  0  0  0
  -41.6580   18.2470  -30.5240 C   0  0  0  0  0  0
  -40.3150   17.8300  -30.5060 C   0  0  0  0  0  0
  -40.5740   14.8890  -32.7460 O   0  0  0  0  0  0
  -39.6360   14.7040  -32.7480 H   0  0  0  0  0  0
  1  2  1  0  0  0
  1  5  2  0  0  0
  1 40  1  0  0  0
  2  3  2  0  0  0
  3  9  1  0  0  0
  3  6  1  0  0  0
  4  6  2  0  0  0
  4  5  1  0  0  0
  5 13  1  0  0  0
  7 12  1  0  0  0
  7 10  1  0  0  0
  7  9  2  0  0  0
  8 10  2  0  0  0
  8 11  1  0  0  0
  9 11  1  0  0  0
 13 16  1  0  0  0
 14 15  2  0  0  0
 14 16  1  0  0  0
 14 19  1  0  0  0
 16 17  1  0  0  0
 18 22  2  0  0  0
 18 21  1  0  0  0
 18 27  1  0  0  0
 19 23  1  0  0  0
 19 21  1  0  0  0
 20 21  1  0  0  0
 20 24  1  0  0  0
 23 24  1  0  0  0
 24 25  1  0  0  0
 25 26  1  0  0  0
 27 39  1  0  0  0
 27 28  1  0  0  0
 28 31  1  0  0  0
 28 29  1  0  0  0
 29 30  2  0  0  0
 29 32  1  0  0  0
 32 33  1  0  0  0
 32 34  1  0  0  0
 32 35  1  0  0  0
 34 35  1  0  0  0
 36 39  1  0  0  0
 37 39  1  0  0  0
 38 39  1  0  0  0
 40 41  1  0  0  0
 41 42  1  0  0  0
 42 43  1  0  0  0
 43 44  1  0  0  0
 44 45  1  0  0  0
 45 46  1  0  0  0
 46 47  1  0  0  0
 47 48  1  0  0  0
 48 49  1  0  0  0
 49 50  1  0  0  0
 49 54  1  0  0  0
 50 51  1  0  0  0
 51 52  1  0  0  0
 52 53  1  0  0  0
 52 55  1  0  0  0
 53 54  1  0  0  0
 55 56  1  0  0  0
 55 60  2  0  0  0
 56 57  2  0  0  0
 57 58  1  0  0  0
 57 64  1  0  0  0
 58 59  2  0  0  0
 59 60  1  0  0  0
 60 61  1  0  0  0
 61 62  1  0  0  0
 61 63  1  0  0  0
 64 69  1  0  0  0
 64 65  2  0  0  0
 65 66  1  0  0  0
 65 70  1  0  0  0
 66 67  2  0  0  0
 67 68  1  0  0  0
 68 69  2  0  0  0
 70 71  1  0  0  0
M  END
> <TORSDO>
F 22

> <SCORE>
-12.388

> <name>
0

> <ligand_id>
0

> <original_smiles>
[H]Oc1c([H])c([H])c([H])c([H])c1-c1nnc(N([H])[H])c(N2C([H])([H])C([H])([H])N(C([H])([H])C([H])([H])OC([H])([H])C([H])([H])OC([H])([H])C([H])([H])Oc3c([H])c(-c4sc([H])nc4C([H])([H])[H])c([H])c([H])c3C([H])([H])N([H])C(=O)C3([H])N(C(=O)C([H])(N([H])C(=O)C4(F)C([H])([H])C4([H])[H])C(C([H])([H])[H])(C([H])([H])[H])C([H])([H])[H])C([H])([H])C([H])(O[H])C3([H])[H])C([H])([H])C2([H])[H])c1[H]

> <smiles>
[H]Oc1c([H])c([H])c([H])c([H])c1-c1nnc(N([H])[H])c(N2C([H])([H])C([H])([H])N(C([H])([H])C([H])([H])OC([H])([H])C([H])([H])OC([H])([H])C([H])([H])Oc3c([H])c(-c4sc([H])nc4C([H])([H])[H])c([H])c([H])c3C([H])([H])N([H])C(=O)C3([H])N(C(=O)C([H])(N([H])C(=O)C4(F)C([H])([H])C4([H])[H])C(C([H])([H])[H])(C([H])([H])[H])C([H])([H])[H])C([H])([H])C([H])(O[H])C3([H])[H])C([H])([H])C2([H])[H])c1[H]

> <chiral flag>
1

> <version>
0

$$$$
