0:0:0
                    3D
 Structure written by MMmdl.
 72 79  0  0  1  0            999 V2000
  -22.5540   -7.7400  -22.1950 C   0  0  0  0  0  0
  -21.2410   -7.4930  -21.7230 C   0  0  0  0  0  0
  -20.9740   -6.4670  -20.7920 C   0  0  0  0  0  0
  -23.3560   -5.9210  -20.7730 C   0  0  0  0  0  0
  -23.6160   -6.9310  -21.7280 C   0  0  0  0  0  0
  -22.0490   -5.6990  -20.3060 C   0  0  0  0  0  0
  -18.4590   -6.0240  -21.1320 C   0  0  0  0  0  0
  -17.6070   -5.5910  -19.0780 C   0  0  0  0  0  0
  -19.6030   -6.1710  -20.3730 C   0  0  0  0  0  0
  -17.3300   -5.6930  -20.3790 N   0  0  0  0  0  0
  -19.2810   -5.9160  -18.6730 S   0  0  0  0  0  0
  -18.3020   -6.1480  -22.6170 C   0  0  0  0  0  0
  -25.0260   -7.1380  -22.2840 C   0  0  0  0  0  0
  -26.8100   -7.2280  -20.5610 C   0  0  0  0  0  0
  -26.7440   -8.4510  -20.4140 O   0  0  0  0  0  0
  -26.0810   -6.5590  -21.4580 N   0  0  0  0  0  0
  -26.2170   -5.5600  -21.5290 H   0  0  0  0  0  0
  -29.8010   -7.7340  -19.8260 C   0  0  0  0  0  0
  -27.7040   -6.3730  -19.6490 C   0  0  1  0  0  0
  -28.9370   -6.8730  -17.6320 C   0  0  0  0  0  0
  -28.8640   -7.0890  -19.0820 N   0  0  0  0  0  0
  -29.7550   -7.7420  -21.0620 O   0  0  0  0  0  0
  -26.8790   -5.9030  -18.4390 C   0  0  0  0  0  0
  -27.8740   -5.8290  -17.3000 C   0  0  1  0  0  0
  -28.4960   -4.5550  -17.2650 O   0  0  0  0  0  0
  -28.9220   -4.4050  -18.1040 H   0  0  0  0  0  0
  -30.9970   -8.4440  -19.1350 C   0  0  2  0  0  0
  -29.4980  -10.3930  -18.3280 C   0  0  0  0  0  0
  -31.9660  -10.5550  -18.1160 C   0  0  0  0  0  0
  -30.8910  -10.7210  -20.3710 C   0  0  0  0  0  0
  -30.8330  -10.0030  -19.0070 C   0  0  0  0  0  0
  -32.2110   -8.1150  -19.9020 N   0  0  0  0  0  0
  -33.2520   -7.3820  -19.4820 C   0  0  0  0  0  0
  -33.3120   -6.9250  -18.3380 O   0  0  0  0  0  0
  -32.2220   -8.3950  -20.8740 H   0  0  0  0  0  0
  -34.3420   -7.1540  -20.4940 C   0  0  1  0  0  0
  -34.0040   -7.5410  -21.7820 F   0  0  0  0  0  0
  -35.7840   -7.3390  -20.0820 C   0  0  0  0  0  0
  -35.2530   -5.9510  -20.3640 C   0  0  0  0  0  0
  -22.8660   -8.7290  -23.1090 O   0  0  0  0  0  0
  -21.9360   -9.7870  -23.3550 C   0  0  0  0  0  0
  -21.7900  -10.7590  -22.1630 C   0  0  0  0  0  0
  -24.1560  -10.8440  -21.2240 C   0  0  0  0  0  0
  -23.1630  -12.8990  -22.0780 C   0  0  0  0  0  0
  -25.3350  -11.5450  -20.9090 C   0  0  0  0  0  0
  -24.3370  -13.6060  -21.7450 C   0  0  0  0  0  0
  -23.0660  -11.5140  -21.8200 C   0  0  0  0  0  0
  -25.4300  -12.9290  -21.1650 C   0  0  0  0  0  0
  -26.7080  -13.6680  -20.8060 C   0  0  0  0  0  0
  -27.7290  -13.5760  -21.8480 N   0  0  0  0  0  0
  -29.0470  -13.9330  -21.2990 C   0  0  0  0  0  0
  -30.1310  -14.2300  -22.3760 C   0  0  0  0  0  0
  -29.7440  -13.7690  -23.7090 N   0  0  0  0  0  0
  -28.3920  -14.0910  -24.1690 C   0  0  0  0  0  0
  -27.4340  -14.4340  -23.0000 C   0  0  0  0  0  0
  -30.7710  -13.5990  -24.6630 C   0  0  0  0  0  0
  -31.0040  -14.5150  -25.7110 C   0  0  0  0  0  0
  -32.0600  -14.2640  -26.6260 C   0  0  0  0  0  0
  -32.8320  -13.1490  -26.4770 N   0  0  0  0  0  0
  -32.6100  -12.2580  -25.5090 N   0  0  0  0  0  0
  -31.6130  -12.4650  -24.6250 C   0  0  0  0  0  0
  -31.4110  -11.4690  -23.6870 N   0  0  0  0  0  0
  -30.5040  -11.5550  -23.2420 H   0  0  0  0  0  0
  -31.6420  -10.5330  -23.9850 H   0  0  0  0  0  0
  -32.3890  -15.1650  -27.7810 C   0  0  0  0  0  0
  -33.3040  -14.8290  -28.8330 C   0  0  0  0  0  0
  -33.5500  -15.7200  -29.8980 C   0  0  0  0  0  0
  -32.9040  -16.9630  -29.9560 C   0  0  0  0  0  0
  -32.0100  -17.3220  -28.9380 C   0  0  0  0  0  0
  -31.7640  -16.4360  -27.8730 C   0  0  0  0  0  0
  -33.9850  -13.6460  -28.8800 O   0  0  0  0  0  0
  -33.8050  -13.1240  -28.0970 H   0  0  0  0  0  0
  1  5  2  0  0  0
  1  2  1  0  0  0
  1 40  1  0  0  0
  2  3  2  0  0  0
  3  9  1  0  0  0
  3  6  1  0  0  0
  4  6  2  0  0  0
  4  5  1  0  0  0
  5 13  1  0  0  0
  7 10  1  0  0  0
  7  9  2  0  0  0
  7 12  1  0  0  0
  8 11  1  0  0  0
  8 10  2  0  0  0
  9 11  1  0  0  0
 13 16  1  0  0  0
 14 15  2  0  0  0
 14 16  1  0  0  0
 14 19  1  0  0  0
 16 17  1  0  0  0
 18 21  1  0  0  0
 18 22  2  0  0  0
 18 27  1  0  0  0
 19 21  1  0  0  0
 19 23  1  0  0  0
 20 24  1  0  0  0
 20 21  1  0  0  0
 23 24  1  0  0  0
 24 25  1  0  0  0
 25 26  1  0  0  0
 27 31  1  0  0  0
 27 32  1  0  0  0
 28 31  1  0  0  0
 29 31  1  0  0  0
 30 31  1  0  0  0
 32 33  1  0  0  0
 32 35  1  0  0  0
 33 34  2  0  0  0
 33 36  1  0  0  0
 36 39  1  0  0  0
 36 38  1  0  0  0
 36 37  1  0  0  0
 38 39  1  0  0  0
 40 41  1  0  0  0
 41 42  1  0  0  0
 42 47  1  0  0  0
 43 45  1  0  0  0
 43 47  2  0  0  0
 44 47  1  0  0  0
 44 46  2  0  0  0
 45 48  2  0  0  0
 46 48  1  0  0  0
 48 49  1  0  0  0
 49 50  1  0  0  0
 50 51  1  0  0  0
 50 55  1  0  0  0
 51 52  1  0  0  0
 52 53  1  0  0  0
 53 54  1  0  0  0
 53 56  1  0  0  0
 54 55  1  0  0  0
 56 61  1  0  0  0
 56 57  2  0  0  0
 57 58  1  0  0  0
 58 59  2  0  0  0
 58 65  1  0  0  0
 59 60  1  0  0  0
 60 61  2  0  0  0
 61 62  1  0  0  0
 62 63  1  0  0  0
 62 64  1  0  0  0
 65 66  2  0  0  0
 65 70  1  0  0  0
 66 67  1  0  0  0
 66 71  1  0  0  0
 67 68  2  0  0  0
 68 69  1  0  0  0
 69 70  2  0  0  0
 71 72  1  0  0  0
M  END
> <TORSDO>
F 18

> <SCORE>
-13.931

> <name>
0

> <ligand_id>
0

> <original_smiles>
[H]Oc1c([H])c([H])c([H])c([H])c1-c1nnc(N([H])[H])c(N2C([H])([H])C([H])([H])N(C([H])([H])c3c([H])c([H])c(C([H])([H])C([H])([H])Oc4c([H])c(-c5sc([H])nc5C([H])([H])[H])c([H])c([H])c4C([H])([H])N([H])C(=O)C4([H])N(C(=O)C([H])(N([H])C(=O)C5(F)C([H])([H])C5([H])[H])C(C([H])([H])[H])(C([H])([H])[H])C([H])([H])[H])C([H])([H])C([H])(O[H])C4([H])[H])c([H])c3[H])C([H])([H])C2([H])[H])c1[H]

> <smiles>
[H]Oc1c([H])c([H])c([H])c([H])c1-c1nnc(N([H])[H])c(N2C([H])([H])C([H])([H])N(C([H])([H])c3c([H])c([H])c(C([H])([H])C([H])([H])Oc4c([H])c(-c5sc([H])nc5C([H])([H])[H])c([H])c([H])c4C([H])([H])N([H])C(=O)C4([H])N(C(=O)C([H])(N([H])C(=O)C5(F)C([H])([H])C5([H])[H])C(C([H])([H])[H])(C([H])([H])[H])C([H])([H])[H])C([H])([H])C([H])(O[H])C4([H])[H])c([H])c3[H])C([H])([H])C2([H])[H])c1[H]

> <chiral flag>
1

> <version>
0

$$$$
