0:0:0
     RDKit          3D

 92100  0  0  1  0  0  0  0  0999 V2000
  -28.5560  -19.7120   20.6000 C   0  0  0  0  0  3  0  0  0  0  0  0
  -30.6210  -18.5850   19.1470 C   0  0  0  0  0  3  0  0  0  0  0  0
  -28.8320  -18.2900   20.6630 C   0  0  0  0  0  0  0  0  0  0  0  0
  -30.3510  -20.0300   19.0980 C   0  0  0  0  0  0  0  0  0  0  0  0
  -29.2730  -20.6730   19.8180 C   0  0  0  0  0  0  0  0  0  0  0  0
  -29.8600  -17.6260   19.9080 C   0  0  0  0  0  0  0  0  0  0  0  0
  -27.9630  -17.4560   21.5930 C   0  0  0  0  0  1  0  0  0  0  0  0
  -31.2250  -20.8860   18.2020 C   0  0  0  0  0  1  0  0  0  0  0  0
  -30.7230  -15.0130   19.4570 C   0  0  0  0  0  0  0  0  0  0  0  0
  -30.5030  -12.6890   18.4640 C   0  0  0  0  0  2  0  0  0  0  0  0
  -29.3930  -12.6860   17.3850 C   0  0  0  0  0  2  0  0  0  0  0  0
  -28.0080  -12.4550   18.0190 C   0  0  0  0  0  2  0  0  0  0  0  0
  -27.7810  -13.3400   19.2710 C   0  0  0  0  0  3  0  0  0  0  0  0
  -28.9900  -13.2960   20.2330 C   0  0  0  0  0  2  0  0  0  0  0  0
  -30.1700  -13.7350   19.4710 N   0  0  0  0  0  0  0  0  0  0  0  0
  -31.8300  -15.1610   18.9260 O   0  0  0  0  0  0  0  0  0  0  0  0
  -29.9390  -16.0900   19.9360 N   0  0  0  0  0  0  0  0  0  0  0  0
  -29.1490  -15.7010   20.4260 H   0  0  0  0  0  0  0  0  0  0  0  0
  -25.5630  -13.8960   20.4290 C   0  0  0  0  0  0  0  0  0  0  0  0
  -24.5470  -13.1130   20.8980 C   0  0  0  0  0  0  0  0  0  0  0  0
  -24.9500  -11.7620   20.6670 C   0  0  0  0  0  0  0  0  0  0  0  0
  -26.5260  -13.0260   19.9460 N   0  0  0  0  0  0  0  0  0  0  0  0
  -26.1730  -11.7280   20.1480 N   0  0  0  0  0  0  0  0  0  0  0  0
  -24.2170  -10.5040   20.8520 C   0  0  0  0  0  0  0  0  0  0  0  0
  -24.6490   -9.5250   21.7740 C   0  0  0  0  0  3  0  0  0  0  0  0
  -23.9140   -8.3320   21.9480 C   0  0  0  0  0  3  0  0  0  0  0  0
  -22.7340   -8.1100   21.2000 C   0  0  0  0  0  0  0  0  0  0  0  0
  -22.3210   -9.0770   20.2670 C   0  0  0  0  0  3  0  0  0  0  0  0
  -23.0560  -10.2600   20.0900 C   0  0  0  0  0  3  0  0  0  0  0  0
  -21.9710   -6.9710   21.2850 O   0  0  0  0  0  0  0  0  0  0  0  0
  -21.7520   -6.3380   22.4820 C   0  0  0  0  0  0  0  0  0  0  0  0
  -21.1220   -6.9890   23.5660 C   0  0  0  0  0  3  0  0  0  0  0  0
  -20.8540   -6.2810   24.7540 C   0  0  0  0  0  3  0  0  0  0  0  0
  -21.2060   -4.9230   24.8580 C   0  0  0  0  0  0  0  0  0  0  0  0
  -21.8290   -4.2700   23.7800 C   0  0  0  0  0  3  0  0  0  0  0  0
  -22.0980   -4.9760   22.5940 C   0  0  0  0  0  0  0  0  0  0  0  0
  -22.6780   -4.3380   21.5500 F   0  0  0  0  0  0  0  0  0  0  0  0
  -20.9420   -4.2400   25.9970 F   0  0  0  0  0  0  0  0  0  0  0  0
  -23.2290  -13.5920   21.4360 C   0  0  0  0  0  0  0  0  0  0  0  0
  -22.6320  -12.8400   22.3540 N   0  0  0  0  0  0  0  0  0  0  0  0
  -22.7460  -14.6640   21.0800 O   0  0  0  0  0  0  0  0  0  0  0  0
  -23.0390  -11.9710   22.6640 H   0  0  0  0  0  0  0  0  0  0  0  0
  -21.7550  -13.1410   22.7550 H   0  0  0  0  0  0  0  0  0  0  0  0
  -25.7380  -15.2750   20.3450 N   0  0  0  0  0  0  0  0  0  0  0  0
  -24.9960  -15.9170   20.6050 H   0  0  0  0  0  0  0  0  0  0  0  0
  -26.4930  -15.7260   19.8460 H   0  0  0  0  0  0  0  0  0  0  0  0
  -29.1680  -23.4520   19.7630 C   0  0  0  0  0  0  0  0  0  0  0  0
  -28.7250  -22.1050   19.6950 N   0  0  0  0  0  0  0  0  0  0  0  0
  -30.3490  -23.7040   20.0080 O   0  0  0  0  0  0  0  0  0  0  0  0
  -27.7190  -22.1000   19.5940 H   0  0  0  0  0  0  0  0  0  0  0  0
  -28.1340  -24.7250   19.5020 C   0  0  0  0  0  2  0  0  0  0  0  0
  -28.4420  -26.2210   19.8060 O   0  0  0  0  0  0  0  0  0  0  0  0
  -24.7340  -31.6590   23.1430 C   0  0  0  0  0  0  0  0  0  0  0  0
  -27.3710  -27.1930   19.8060 C   0  0  0  0  0  0  0  0  0  0  0  0
  -23.5420  -30.3400   21.4370 C   0  0  0  0  0  3  0  0  0  0  0  0
  -25.0050  -28.8860   19.9040 C   0  0  0  0  0  0  0  0  0  0  0  0
  -26.0880  -30.6700   21.2590 C   0  0  0  0  0  2  0  0  0  0  0  0
  -26.1830  -29.3200   20.5260 C   0  0  0  0  0  0  0  0  0  0  0  0
  -27.3660  -28.4910   20.4620 C   0  0  0  0  0  3  0  0  0  0  0  0
  -26.1620  -26.8680   19.1480 C   0  0  0  0  0  3  0  0  0  0  0  0
  -25.0060  -27.6740   19.2020 C   0  0  0  0  0  3  0  0  0  0  0  0
  -23.7600  -29.7500   20.0180 C   0  0  0  0  0  2  0  0  0  0  0  0
  -24.8090  -30.9080   22.0030 N   0  0  0  0  0  0  0  0  0  0  0  0
  -23.6490  -31.8890   23.6990 O   0  0  0  0  0  0  0  0  0  0  0  0
  -22.8950  -29.2620   22.3440 C   0  0  0  0  0  0  0  0  0  0  0  0
  -21.5740  -29.0550   22.2040 N   0  0  0  0  0  0  0  0  0  0  0  0
  -23.5860  -28.6180   23.1370 O   0  0  0  0  0  0  0  0  0  0  0  0
  -21.0710  -29.6320   21.5440 H   0  0  0  0  0  0  0  0  0  0  0  0
  -18.2290  -27.7340   22.6470 C   0  0  0  0  0  0  0  0  0  0  0  0
  -20.7810  -28.0540   22.9240 C   0  0  0  0  0  3  0  0  0  0  0  0
  -20.9210  -26.6580   22.2740 C   0  0  0  0  0  2  0  0  0  0  0  0
  -19.8260  -26.3580   21.2450 C   0  0  0  0  0  2  0  0  0  0  0  0
  -18.4420  -26.4290   21.8970 C   0  0  0  0  0  2  0  0  0  0  0  0
  -19.3260  -28.5050   23.1140 C   0  0  0  0  0  0  0  0  0  0  0  0
  -19.0720  -29.7260   23.7750 C   0  0  0  0  0  3  0  0  0  0  0  0
  -17.7520  -30.1770   23.9710 C   0  0  0  0  0  3  0  0  0  0  0  0
  -16.6700  -29.4030   23.5180 C   0  0  0  0  0  3  0  0  0  0  0  0
  -16.9090  -28.1830   22.8610 C   0  0  0  0  0  3  0  0  0  0  0  0
  -26.0070  -32.2820   23.7930 C   0  0  0  0  0  3  0  0  0  0  0  0
  -25.6850  -33.6650   24.1770 N   0  0  0  0  0  0  0  0  0  0  0  0
  -25.9580  -34.7470   23.4350 C   0  0  0  0  0  0  0  0  0  0  0  0
  -26.5770  -34.6880   22.3690 O   0  0  0  0  0  0  0  0  0  0  0  0
  -25.1320  -33.7850   25.0130 H   0  0  0  0  0  0  0  0  0  0  0  0
  -24.1580  -36.4960   23.2560 C   0  0  0  0  0  1  0  0  0  0  0  0
  -25.4700  -36.1130   23.9580 C   0  0  0  0  0  3  0  0  0  0  0  0
  -27.6290  -37.0570   24.6500 C   0  0  0  0  0  1  0  0  0  0  0  0
  -26.4600  -37.1990   23.7860 N   0  0  0  0  0  0  0  0  0  0  0  0
  -26.0370  -38.1040   23.9710 H   0  0  0  0  0  0  0  0  0  0  0  0
  -26.5250  -31.4710   25.0450 C   0  0  1  0  0  0  0  0  0  0  0  0
  -25.4280  -31.1770   26.0930 C   0  0  0  0  0  1  0  0  0  0  0  0
  -27.1330  -30.1170   24.6090 C   0  0  0  0  0  1  0  0  0  0  0  0
  -27.6560  -32.2580   25.7460 C   0  0  0  0  0  1  0  0  0  0  0  0
  1  3  1  0
  2  6  1  0
  3  7  1  0
  4  2  2  0
  4  5  1  0
  5  1  2  0
  6 17  1  0
  6  3  2  0
  8  4  1  0
  9 15  1  0
  9 17  1  0
 10 15  1  0
 11 12  1  0
 11 10  1  0
 13 12  1  0
 13 22  1  0
 13 14  1  0
 15 14  1  0
 16  9  2  0
 17 18  1  0
 19 20  2  0
 20 39  1  0
 21 24  1  0
 21 20  1  0
 22 23  1  0
 22 19  1  0
 23 21  2  0
 24 25  1  0
 25 26  2  0
 27 30  1  0
 27 26  1  0
 28 27  2  0
 29 28  1  0
 29 24  2  0
 30 31  1  0
 31 36  2  0
 31 32  1  0
 32 33  2  0
 33 34  1  0
 34 38  1  0
 35 34  2  0
 36 35  1  0
 37 36  1  0
 39 40  1  0
 40 42  1  0
 40 43  1  0
 41 39  2  0
 44 19  1  0
 44 45  1  0
 46 44  1  0
 47 49  2  0
 48 47  1  0
 48  5  1  0
 50 48  1  0
 51 47  1  0
 51 52  1  0
 52 54  1  0
 53 64  2  0
 54 59  1  0
 55 63  1  0
 55 65  1  0
 56 62  1  0
 56 58  1  0
 57 63  1  0
 58 57  1  0
 59 58  2  0
 60 61  1  0
 60 54  2  0
 61 56  2  0
 62 55  1  0
 63 53  1  0
 65 67  2  0
 66 65  1  0
 68 66  1  0
 69 78  2  0
 69 74  1  0
 70 66  1  0
 70 74  1  0
 71 70  1  0
 72 73  1  0
 72 71  1  0
 73 69  1  0
 74 75  2  0
 75 76  1  0
 77 76  2  0
 78 77  1  0
 79 53  1  0
 79 80  1  0
 79 89  1  0
 80 83  1  0
 81 85  1  0
 81 80  1  0
 82 81  2  0
 85 84  1  0
 87 85  1  0
 87 88  1  0
 87 86  1  0
 89 92  1  1
 89 90  1  0
 91 89  1  0
M  ISO  4   9 100  17 100  51 101  52 101
M  END
>  <TORSDO>  (1) 
F 18

>  <SCORE>  (1) 
-10.836

>  <name>  (1) 
0

>  <ligand_id>  (1) 
0

>  <original_smiles>  (1) 
[H]c1c([H])c([H])c2c(c1[H])C([H])([H])C([H])([H])C([H])([H])C2([H])N([H])C(=O)C1([H])N(C(=O)C([H])(N([H])C(=O)C([H])(N([H])C([H])([H])[H])C([H])([H])[H])C(C([H])([H])[H])(C([H])([H])[H])C([H])([H])[H])C([H])([H])c2c([H])c(OC([H])([H])C(=O)N([H])c3c([H])c(C([H])([H])[H])c(N([H])C(=O)N4C([H])([H])C([H])([H])C([H])([H])C([H])(n5nc(-c6c([H])c([H])c(Oc7c([H])c([H])c(F)c([H])c7F)c([H])c6[H])c(C(=O)N([H])[H])c5N([H])[H])C4([H])[H])c([H])c3C([H])([H])[H])c([H])c([H])c2C1([H])[H]

>  <smiles>  (1) 
[H]c1c([H])c([H])c2c(c1[H])C([H])([H])C([H])([H])C([H])([H])C2([H])N([H])C(=O)C1([H])N(C(=O)C([H])(N([H])C(=O)C([H])(N([H])C([H])([H])[H])C([H])([H])[H])C(C([H])([H])[H])(C([H])([H])[H])C([H])([H])[H])C([H])([H])c2c([H])c(OC([H])([H])C(=O)N([H])c3c([H])c(C([H])([H])[H])c(N([H])C(=O)N4C([H])([H])C([H])([H])C([H])([H])C([H])(n5nc(-c6c([H])c([H])c(Oc7c([H])c([H])c(F)c([H])c7F)c([H])c6[H])c(C(=O)N([H])[H])c5N([H])[H])C4([H])[H])c([H])c3C([H])([H])[H])c([H])c([H])c2C1([H])[H]

$$$$
1:0:0
     RDKit          3D

 93101  0  0  1  0  0  0  0  0999 V2000
  -31.4200  -20.0140   19.1780 C   0  0  0  0  0  3  0  0  0  0  0  0
  -31.0490  -18.6680   19.4250 C   0  0  0  0  0  3  0  0  0  0  0  0
  -29.3310  -21.1060   20.0530 C   0  0  0  0  0  0  0  0  0  0  0  0
  -30.6500  -21.1750   19.4930 C   0  0  0  0  0  0  0  0  0  0  0  0
  -29.8400  -18.2980   20.0450 C   0  0  0  0  0  0  0  0  0  0  0  0
  -29.0090  -19.5960   20.3360 C   0  0  0  0  0  0  0  0  0  0  0  0
  -27.8190  -19.3650   20.9380 F   0  0  0  0  0  0  0  0  0  0  0  0
  -30.3560  -15.3820   20.0940 C   0  0  0  0  0  0  0  0  0  0  0  0
  -30.3140  -12.9120   19.2360 C   0  0  0  0  0  2  0  0  0  0  0  0
  -29.3740  -12.6750   18.0270 C   0  0  0  0  0  2  0  0  0  0  0  0
  -27.9430  -12.3800   18.5080 C   0  0  0  0  0  2  0  0  0  0  0  0
  -27.5050  -13.3570   19.6270 C   0  0  0  0  0  3  0  0  0  0  0  0
  -28.5710  -13.5500   20.7260 C   0  0  0  0  0  2  0  0  0  0  0  0
  -29.7830  -14.0670   20.0650 N   0  0  0  0  0  0  0  0  0  0  0  0
  -31.5690  -15.3450   19.8310 O   0  0  0  0  0  0  0  0  0  0  0  0
  -29.6150  -16.6820   20.2560 N   0  0  0  0  0  0  0  0  0  0  0  0
  -28.6680  -16.4900   20.5450 H   0  0  0  0  0  0  0  0  0  0  0  0
  -25.1490  -13.9030   20.4300 C   0  0  0  0  0  0  0  0  0  0  0  0
  -24.0980  -13.1240   20.8210 C   0  0  0  0  0  0  0  0  0  0  0  0
  -24.5680  -11.7760   20.7820 C   0  0  0  0  0  0  0  0  0  0  0  0
  -26.1900  -13.0320   20.1670 N   0  0  0  0  0  0  0  0  0  0  0  0
  -25.8540  -11.7450   20.4470 N   0  0  0  0  0  0  0  0  0  0  0  0
  -23.8460  -10.5110   20.9820 C   0  0  0  0  0  0  0  0  0  0  0  0
  -24.2840   -9.5480   21.9180 C   0  0  0  0  0  3  0  0  0  0  0  0
  -23.5560   -8.3530   22.1100 C   0  0  0  0  0  3  0  0  0  0  0  0
  -22.3770   -8.1110   21.3640 C   0  0  0  0  0  0  0  0  0  0  0  0
  -21.9570   -9.0650   20.4190 C   0  0  0  0  0  3  0  0  0  0  0  0
  -22.6860  -10.2500   20.2260 C   0  0  0  0  0  3  0  0  0  0  0  0
  -21.6230   -6.9670   21.4630 O   0  0  0  0  0  0  0  0  0  0  0  0
  -21.5800   -6.2320   22.6220 C   0  0  0  0  0  0  0  0  0  0  0  0
  -21.1500   -6.7930   23.8440 C   0  0  0  0  0  3  0  0  0  0  0  0
  -21.0540   -5.9840   24.9940 C   0  0  0  0  0  3  0  0  0  0  0  0
  -21.3770   -4.6150   24.9230 C   0  0  0  0  0  0  0  0  0  0  0  0
  -21.8020   -4.0550   23.7050 C   0  0  0  0  0  3  0  0  0  0  0  0
  -21.8970   -4.8600   22.5570 C   0  0  0  0  0  0  0  0  0  0  0  0
  -22.2850   -4.3080   21.3820 F   0  0  0  0  0  0  0  0  0  0  0  0
  -21.2780   -3.8370   26.0260 F   0  0  0  0  0  0  0  0  0  0  0  0
  -22.7040  -13.5980   21.1110 C   0  0  0  0  0  0  0  0  0  0  0  0
  -21.9910  -12.8990   21.9850 N   0  0  0  0  0  0  0  0  0  0  0  0
  -22.2590  -14.6220   20.5950 O   0  0  0  0  0  0  0  0  0  0  0  0
  -22.3660  -12.0690   22.4150 H   0  0  0  0  0  0  0  0  0  0  0  0
  -21.0570  -13.1980   22.2260 H   0  0  0  0  0  0  0  0  0  0  0  0
  -25.3070  -15.2750   20.2430 N   0  0  0  0  0  0  0  0  0  0  0  0
  -24.5380  -15.9280   20.3650 H   0  0  0  0  0  0  0  0  0  0  0  0
  -26.1380  -15.7060   19.8530 H   0  0  0  0  0  0  0  0  0  0  0  0
  -31.5560  -22.9510   18.1260 C   0  0  0  0  0  3  0  0  0  0  0  0
  -32.0620  -22.9350   20.5100 C   0  0  0  0  0  1  0  0  0  0  0  0
  -31.3330  -22.4180   19.3450 N   0  0  0  0  0  0  0  0  0  0  0  0
  -32.2590  -23.9470   17.9200 O   0  0  0  0  0  0  0  0  0  0  0  0
  -28.5540  -22.6290   20.4650 C   0  0  0  0  0  0  0  0  0  0  0  0
  -28.0130  -22.6190   21.5750 O   0  0  0  0  0  0  0  0  0  0  0  0
  -28.3140  -24.2020   19.6480 C   0  0  0  0  0  2  0  0  0  0  0  0
  -28.2210  -25.7820   20.2130 O   0  0  0  0  0  0  0  0  0  0  0  0
  -24.5920  -31.8010   23.0720 C   0  0  0  0  0  0  0  0  0  0  0  0
  -27.2080  -26.8950   20.0680 C   0  0  0  0  0  0  0  0  0  0  0  0
  -23.4220  -30.4030   21.4170 C   0  0  0  0  0  3  0  0  0  0  0  0
  -24.8920  -28.7950   20.0020 C   0  0  0  0  0  0  0  0  0  0  0  0
  -25.9930  -30.6100   21.2990 C   0  0  0  0  0  2  0  0  0  0  0  0
  -26.0690  -29.1940   20.6410 C   0  0  0  0  0  0  0  0  0  0  0  0
  -27.2130  -28.2630   20.6570 C   0  0  0  0  0  3  0  0  0  0  0  0
  -26.0010  -26.6670   19.3600 C   0  0  0  0  0  3  0  0  0  0  0  0
  -24.8830  -27.5500   19.3440 C   0  0  0  0  0  3  0  0  0  0  0  0
  -23.6690  -29.7200   20.0410 C   0  0  0  0  0  2  0  0  0  0  0  0
  -24.6920  -30.9680   21.9830 N   0  0  0  0  0  0  0  0  0  0  0  0
  -23.4960  -32.0840   23.5840 O   0  0  0  0  0  0  0  0  0  0  0  0
  -22.7150  -29.4130   22.3790 C   0  0  0  0  0  0  0  0  0  0  0  0
  -21.3810  -29.2720   22.2720 N   0  0  0  0  0  0  0  0  0  0  0  0
  -23.3790  -28.7680   23.1960 O   0  0  0  0  0  0  0  0  0  0  0  0
  -20.8950  -29.8410   21.5930 H   0  0  0  0  0  0  0  0  0  0  0  0
  -17.9830  -28.1150   22.8250 C   0  0  0  0  0  0  0  0  0  0  0  0
  -20.5560  -28.3310   23.0390 C   0  0  0  0  0  3  0  0  0  0  0  0
  -20.6180  -26.9080   22.4320 C   0  0  0  0  0  2  0  0  0  0  0  0
  -19.4880  -26.6300   21.4360 C   0  0  0  0  0  2  0  0  0  0  0  0
  -18.1210  -26.7840   22.1090 C   0  0  0  0  0  2  0  0  0  0  0  0
  -19.1240  -28.8490   23.2500 C   0  0  0  0  0  0  0  0  0  0  0  0
  -18.9340  -30.0990   23.8800 C   0  0  0  0  0  3  0  0  0  0  0  0
  -17.6400  -30.6110   24.0890 C   0  0  0  0  0  3  0  0  0  0  0  0
  -16.5150  -29.8760   23.6770 C   0  0  0  0  0  3  0  0  0  0  0  0
  -16.6890  -28.6290   23.0510 C   0  0  0  0  0  3  0  0  0  0  0  0
  -25.8530  -32.4470   23.7220 C   0  0  0  0  0  3  0  0  0  0  0  0
  -26.3550  -31.6790   25.0060 C   0  0  1  0  0  0  0  0  0  0  0  0
  -25.2470  -31.4390   26.0590 C   0  0  0  0  0  1  0  0  0  0  0  0
  -26.9460  -30.3020   24.6280 C   0  0  0  0  0  1  0  0  0  0  0  0
  -27.4940  -32.4750   25.6820 C   0  0  0  0  0  1  0  0  0  0  0  0
  -25.5230  -33.8400   24.0710 N   0  0  0  0  0  0  0  0  0  0  0  0
  -25.8640  -34.9200   23.3510 C   0  0  0  0  0  0  0  0  0  0  0  0
  -26.5520  -34.8460   22.3300 O   0  0  0  0  0  0  0  0  0  0  0  0
  -24.9140  -33.9780   24.8660 H   0  0  0  0  0  0  0  0  0  0  0  0
  -24.1440  -36.7300   23.0060 C   0  0  0  0  0  1  0  0  0  0  0  0
  -25.3630  -36.2970   23.8380 C   0  0  0  0  0  3  0  0  0  0  0  0
  -27.4750  -37.1600   24.7470 C   0  0  0  0  0  1  0  0  0  0  0  0
  -26.3960  -37.3540   23.7820 N   0  0  0  0  0  0  0  0  0  0  0  0
  -25.9810  -38.2670   23.9450 H   0  0  0  0  0  0  0  0  0  0  0  0
  1  2  2  0
  1  4  1  0
  2  5  1  0
  3  6  1  0
  3 50  1  0
  4  3  2  0
  5 16  1  0
  5  6  2  0
  6  7  1  0
  8 16  1  0
  9 14  1  0
 10 11  1  0
 10  9  1  0
 12 11  1  0
 12 21  1  0
 12 13  1  0
 14  8  1  0
 14 13  1  0
 15  8  2  0
 16 17  1  0
 18 19  2  0
 19 38  1  0
 20 19  1  0
 20 23  1  0
 21 18  1  0
 21 22  1  0
 22 20  2  0
 23 24  1  0
 24 25  2  0
 26 29  1  0
 26 25  1  0
 27 26  2  0
 28 27  1  0
 28 23  2  0
 29 30  1  0
 30 31  1  0
 31 32  2  0
 33 32  1  0
 33 37  1  0
 34 33  2  0
 35 30  2  0
 35 34  1  0
 36 35  1  0
 38 39  1  0
 39 42  1  0
 39 41  1  0
 40 38  2  0
 43 44  1  0
 43 18  1  0
 45 43  1  0
 46 48  1  0
 48  4  1  0
 48 47  1  0
 49 46  2  0
 50 51  2  0
 52 53  1  0
 52 50  1  0
 54 65  2  0
 55 53  1  0
 55 60  1  0
 56 64  1  0
 56 66  1  0
 57 63  1  0
 57 59  1  0
 58 64  1  0
 59 60  2  0
 59 58  1  0
 61 55  2  0
 62 61  1  0
 62 57  2  0
 63 56  1  0
 64 54  1  0
 66 68  2  0
 67 66  1  0
 69 67  1  0
 70 79  2  0
 70 75  1  0
 71 67  1  0
 71 75  1  0
 72 71  1  0
 73 74  1  0
 73 72  1  0
 74 70  1  0
 75 76  2  0
 76 77  1  0
 78 77  2  0
 79 78  1  0
 80 54  1  0
 80 85  1  0
 80 81  1  0
 81 84  1  1
 81 82  1  0
 83 81  1  0
 85 88  1  0
 86 90  1  0
 86 85  1  0
 87 86  2  0
 90 89  1  0
 92 90  1  0
 92 93  1  0
 92 91  1  0
M  ISO  4   8 100  16 100  52 101  53 101
M  END
>  <TORSDO>  (2) 
F 19

>  <SCORE>  (2) 
-15.716

>  <name>  (2) 
1

>  <ligand_id>  (2) 
1

>  <original_smiles>  (2) 
[H]C(=O)N(c1c([H])c([H])c(N([H])C(=O)N2C([H])([H])C([H])([H])C([H])([H])C([H])(n3nc(-c4c([H])c([H])c(Oc5c([H])c([H])c(F)c([H])c5F)c([H])c4[H])c(C(=O)N([H])[H])c3N([H])[H])C2([H])[H])c(F)c1C(=O)C([H])([H])Oc1c([H])c([H])c2c(c1[H])C([H])([H])N(C(=O)C([H])(N([H])C(=O)C([H])(N([H])C([H])([H])[H])C([H])([H])[H])C(C([H])([H])[H])(C([H])([H])[H])C([H])([H])[H])C([H])(C(=O)N([H])C1([H])c3c([H])c([H])c([H])c([H])c3C([H])([H])C([H])([H])C1([H])[H])C2([H])[H])C([H])([H])[H]

>  <smiles>  (2) 
[H]C(=O)N(c1c([H])c([H])c(N([H])C(=O)N2C([H])([H])C([H])([H])C([H])([H])C([H])(n3nc(-c4c([H])c([H])c(Oc5c([H])c([H])c(F)c([H])c5F)c([H])c4[H])c(C(=O)N([H])[H])c3N([H])[H])C2([H])[H])c(F)c1C(=O)C([H])([H])Oc1c([H])c([H])c2c(c1[H])C([H])([H])N(C(=O)C([H])(N([H])C(=O)C([H])(N([H])C([H])([H])[H])C([H])([H])[H])C(C([H])([H])[H])(C([H])([H])[H])C([H])([H])[H])C([H])(C(=O)N([H])C1([H])c3c([H])c([H])c([H])c([H])c3C([H])([H])C([H])([H])C1([H])[H])C2([H])[H])C([H])([H])[H]

$$$$
2:0:0
     RDKit          3D

 97105  0  0  1  0  0  0  0  0999 V2000
  -30.4310  -22.2870   21.4480 C   0  0  0  0  0  0  0  0  0  0  0  0
  -29.6900  -23.2610   21.6060 O   0  0  0  0  0  0  0  0  0  0  0  0
  -31.6720  -22.3070   20.6490 C   0  0  0  0  0  3  0  0  0  0  0  0
  -31.8940  -23.0380   19.5330 C   0  0  0  0  0  0  0  0  0  0  0  0
  -33.2360  -22.9690   18.8270 C   0  0  0  0  0  1  0  0  0  0  0  0
  -30.8890  -23.9630   18.8520 C   0  0  0  0  0  2  0  0  0  0  0  0
  -31.1940  -25.4550   19.0940 C   0  0  0  0  0  2  0  0  0  0  0  0
  -30.4350  -26.3980   18.1430 C   0  0  0  0  0  2  0  0  0  0  0  0
  -28.9310  -26.5260   18.4300 C   0  0  0  0  0  2  0  0  0  0  0  0
  -28.7130  -27.3190   19.5960 O   0  0  0  0  0  0  0  0  0  0  0  0
  -24.6420  -31.8360   23.2980 C   0  0  0  0  0  0  0  0  0  0  0  0
  -27.4700  -27.9020   19.7300 C   0  0  0  0  0  0  0  0  0  0  0  0
  -23.4710  -30.5020   21.5740 C   0  0  0  0  0  3  0  0  0  0  0  0
  -24.9710  -29.2010   19.9770 C   0  0  0  0  0  0  0  0  0  0  0  0
  -25.9570  -31.0540   21.3350 C   0  0  0  0  0  2  0  0  0  0  0  0
  -26.1100  -29.7520   20.5760 C   0  0  0  0  0  0  0  0  0  0  0  0
  -27.3580  -29.1020   20.4640 C   0  0  0  0  0  3  0  0  0  0  0  0
  -26.3050  -27.3470   19.1480 C   0  0  0  0  0  3  0  0  0  0  0  0
  -25.0620  -27.9920   19.2690 C   0  0  0  0  0  3  0  0  0  0  0  0
  -23.6750  -29.9620   20.1340 C   0  0  0  0  0  2  0  0  0  0  0  0
  -24.7100  -31.1410   22.1280 N   0  0  0  0  0  0  0  0  0  0  0  0
  -23.5650  -31.9840   23.8940 O   0  0  0  0  0  0  0  0  0  0  0  0
  -22.9290  -29.3560   22.4580 C   0  0  0  0  0  0  0  0  0  0  0  0
  -21.6490  -29.0030   22.2570 N   0  0  0  0  0  0  0  0  0  0  0  0
  -23.6570  -28.7890   23.2760 O   0  0  0  0  0  0  0  0  0  0  0  0
  -21.1180  -29.5220   21.5720 H   0  0  0  0  0  0  0  0  0  0  0  0
  -18.4960  -27.2500   22.4270 C   0  0  0  0  0  0  0  0  0  0  0  0
  -20.9350  -27.9290   22.9450 C   0  0  0  0  0  3  0  0  0  0  0  0
  -21.3330  -26.5450   22.3800 C   0  0  0  0  0  2  0  0  0  0  0  0
  -20.4030  -26.0590   21.2640 C   0  0  0  0  0  2  0  0  0  0  0  0
  -18.9620  -25.9590   21.7720 C   0  0  0  0  0  2  0  0  0  0  0  0
  -19.4230  -28.1810   22.9620 C   0  0  0  0  0  0  0  0  0  0  0  0
  -18.9400  -29.3810   23.5280 C   0  0  0  0  0  3  0  0  0  0  0  0
  -17.5600  -29.6540   23.5660 C   0  0  0  0  0  3  0  0  0  0  0  0
  -16.6450  -28.7210   23.0480 C   0  0  0  0  0  3  0  0  0  0  0  0
  -17.1130  -27.5200   22.4840 C   0  0  0  0  0  3  0  0  0  0  0  0
  -25.9060  -32.4980   23.9310 C   0  0  0  0  0  3  0  0  0  0  0  0
  -25.5600  -33.8880   24.2540 N   0  0  0  0  0  0  0  0  0  0  0  0
  -25.9060  -34.9490   23.5140 C   0  0  0  0  0  0  0  0  0  0  0  0
  -26.6200  -34.8630   22.5110 O   0  0  0  0  0  0  0  0  0  0  0  0
  -24.9300  -34.0290   25.0300 H   0  0  0  0  0  0  0  0  0  0  0  0
  -24.1770  -36.7220   23.0780 C   0  0  0  0  0  1  0  0  0  0  0  0
  -25.3740  -36.3270   23.9550 C   0  0  0  0  0  3  0  0  0  0  0  0
  -27.4470  -37.2280   24.9140 C   0  0  0  0  0  1  0  0  0  0  0  0
  -26.3980  -37.3940   23.9120 N   0  0  0  0  0  0  0  0  0  0  0  0
  -25.9710  -38.3070   24.0450 H   0  0  0  0  0  0  0  0  0  0  0  0
  -26.4310  -31.7390   25.2110 C   0  0  1  0  0  0  0  0  0  0  0  0
  -25.3320  -31.4630   26.2640 C   0  0  0  0  0  1  0  0  0  0  0  0
  -27.0610  -30.3810   24.8210 C   0  0  0  0  0  1  0  0  0  0  0  0
  -27.5470  -32.5660   25.8910 C   0  0  0  0  0  1  0  0  0  0  0  0
  -30.0720  -20.9840   22.1620 C   0  0  0  0  0  2  0  0  0  0  0  0
  -29.3620  -19.9690   21.2470 C   0  0  0  0  0  2  0  0  0  0  0  0
  -30.1910  -17.9830   19.8720 C   0  0  0  0  0  3  0  0  0  0  0  0
  -30.8210  -16.7240   19.7770 C   0  0  0  0  0  3  0  0  0  0  0  0
  -31.2840  -16.7880   22.1690 C   0  0  0  0  0  3  0  0  0  0  0  0
  -30.0980  -18.6440   21.1180 C   0  0  0  0  0  0  0  0  0  0  0  0
  -31.3490  -16.1060   20.9360 C   0  0  0  0  0  0  0  0  0  0  0  0
  -30.6650  -18.0470   22.2610 C   0  0  0  0  0  0  0  0  0  0  0  0
  -30.5950  -18.6720   23.4630 F   0  0  0  0  0  0  0  0  0  0  0  0
  -32.1070  -14.0000   19.9010 C   0  0  0  0  0  0  0  0  0  0  0  0
  -31.6240  -11.7580   18.9820 C   0  0  0  0  0  2  0  0  0  0  0  0
  -30.5980  -11.8300   17.8350 C   0  0  0  0  0  2  0  0  0  0  0  0
  -29.1580  -11.8150   18.3780 C   0  0  0  0  0  2  0  0  0  0  0  0
  -28.9410  -12.8530   19.5070 C   0  0  0  0  0  3  0  0  0  0  0  0
  -30.0510  -12.7250   20.5750 C   0  0  0  0  0  2  0  0  0  0  0  0
  -31.3700  -12.8600   19.9180 N   0  0  0  0  0  0  0  0  0  0  0  0
  -33.0090  -14.2290   19.0890 O   0  0  0  0  0  0  0  0  0  0  0  0
  -31.8880  -14.7920   20.9580 N   0  0  0  0  0  0  0  0  0  0  0  0
  -31.5910  -14.2620   21.7640 H   0  0  0  0  0  0  0  0  0  0  0  0
  -26.7260  -13.7210   20.5020 C   0  0  0  0  0  0  0  0  0  0  0  0
  -25.5940  -13.0710   20.9200 C   0  0  0  0  0  0  0  0  0  0  0  0
  -25.8500  -11.6780   20.7360 C   0  0  0  0  0  0  0  0  0  0  0  0
  -27.6080  -12.7290   20.0970 N   0  0  0  0  0  0  0  0  0  0  0  0
  -27.0860  -11.4910   20.2900 N   0  0  0  0  0  0  0  0  0  0  0  0
  -24.9710  -10.5130   20.9050 C   0  0  0  0  0  0  0  0  0  0  0  0
  -25.1970   -9.5590   21.9230 C   0  0  0  0  0  3  0  0  0  0  0  0
  -24.3290   -8.4570   22.0740 C   0  0  0  0  0  3  0  0  0  0  0  0
  -23.2210   -8.3000   21.2070 C   0  0  0  0  0  0  0  0  0  0  0  0
  -23.0150   -9.2400   20.1820 C   0  0  0  0  0  3  0  0  0  0  0  0
  -23.8830  -10.3340   20.0280 C   0  0  0  0  0  3  0  0  0  0  0  0
  -22.3420   -7.2470   21.2640 O   0  0  0  0  0  0  0  0  0  0  0  0
  -21.8430   -6.7880   22.4570 C   0  0  0  0  0  0  0  0  0  0  0  0
  -21.1870   -7.6440   23.3680 C   0  0  0  0  0  3  0  0  0  0  0  0
  -20.6270   -7.1180   24.5490 C   0  0  0  0  0  3  0  0  0  0  0  0
  -20.7130   -5.7390   24.8180 C   0  0  0  0  0  0  0  0  0  0  0  0
  -21.3610   -4.8840   23.9090 C   0  0  0  0  0  3  0  0  0  0  0  0
  -21.9210   -5.4070   22.7300 C   0  0  0  0  0  0  0  0  0  0  0  0
  -22.5260   -4.5760   21.8470 F   0  0  0  0  0  0  0  0  0  0  0  0
  -20.1690   -5.2320   25.9490 F   0  0  0  0  0  0  0  0  0  0  0  0
  -24.3120  -13.7060   21.3780 C   0  0  0  0  0  0  0  0  0  0  0  0
  -23.5770  -13.0380   22.2600 N   0  0  0  0  0  0  0  0  0  0  0  0
  -23.9770  -14.8230   20.9880 O   0  0  0  0  0  0  0  0  0  0  0  0
  -23.8630  -12.1310   22.5990 H   0  0  0  0  0  0  0  0  0  0  0  0
  -22.7190  -13.4430   22.6060 H   0  0  0  0  0  0  0  0  0  0  0  0
  -27.0720  -15.0660   20.4170 N   0  0  0  0  0  0  0  0  0  0  0  0
  -26.4290  -15.8110   20.6620 H   0  0  0  0  0  0  0  0  0  0  0  0
  -27.9550  -15.4070   20.0620 H   0  0  0  0  0  0  0  0  0  0  0  0
  1  2  2  0
  1 51  1  0
  3  1  1  0
  4  3  2  0
  5  4  1  0
  6  7  1  0
  6  4  1  0
  8  9  1  0
  8  7  1  0
  9 10  1  0
 10 12  1  0
 11 22  2  0
 12 17  1  0
 13 21  1  0
 13 23  1  0
 14 20  1  0
 14 16  1  0
 15 21  1  0
 16 15  1  0
 17 16  2  0
 18 19  1  0
 18 12  2  0
 19 14  2  0
 20 13  1  0
 21 11  1  0
 23 25  2  0
 24 23  1  0
 26 24  1  0
 27 36  2  0
 27 32  1  0
 28 24  1  0
 28 32  1  0
 29 28  1  0
 30 31  1  0
 30 29  1  0
 31 27  1  0
 32 33  2  0
 33 34  1  0
 35 34  2  0
 36 35  1  0
 37 11  1  0
 37 38  1  0
 37 47  1  0
 38 41  1  0
 39 43  1  0
 39 38  1  0
 40 39  2  0
 43 42  1  0
 45 43  1  0
 45 46  1  0
 45 44  1  0
 47 50  1  1
 47 48  1  0
 49 47  1  0
 52 51  1  0
 53 56  1  0
 54 53  2  0
 54 57  1  0
 55 58  1  0
 56 52  1  0
 56 58  2  0
 57 68  1  0
 57 55  2  0
 58 59  1  0
 60 66  1  0
 60 68  1  0
 61 66  1  0
 62 63  1  0
 62 61  1  0
 64 63  1  0
 64 73  1  0
 64 65  1  0
 66 65  1  0
 67 60  2  0
 68 69  1  0
 70 71  2  0
 71 90  1  0
 72 75  1  0
 72 71  1  0
 73 74  1  0
 73 70  1  0
 74 72  2  0
 75 76  1  0
 76 77  2  0
 78 81  1  0
 78 77  1  0
 79 78  2  0
 80 79  1  0
 80 75  2  0
 81 82  1  0
 82 87  2  0
 82 83  1  0
 83 84  2  0
 84 85  1  0
 85 89  1  0
 86 85  2  0
 87 86  1  0
 88 87  1  0
 90 91  1  0
 91 93  1  0
 91 94  1  0
 92 90  2  0
 95 70  1  0
 95 96  1  0
 97 95  1  0
M  ISO  4   9 101  10 101  60 100  68 100
M  END
>  <TORSDO>  (3) 
F 24

>  <SCORE>  (3) 
-9.653

>  <name>  (3) 
2

>  <ligand_id>  (3) 
2

>  <original_smiles>  (3) 
[H]C(C(=O)C([H])([H])C([H])([H])c1c([H])c([H])c(N([H])C(=O)N2C([H])([H])C([H])([H])C([H])([H])C([H])(n3nc(-c4c([H])c([H])c(Oc5c([H])c([H])c(F)c([H])c5F)c([H])c4[H])c(C(=O)N([H])[H])c3N([H])[H])C2([H])[H])c([H])c1F)=C(C([H])([H])[H])C([H])([H])C([H])([H])C([H])([H])C([H])([H])Oc1c([H])c([H])c2c(c1[H])C([H])([H])N(C(=O)C([H])(N([H])C(=O)C([H])(N([H])C([H])([H])[H])C([H])([H])[H])C(C([H])([H])[H])(C([H])([H])[H])C([H])([H])[H])C([H])(C(=O)N([H])C1([H])c3c([H])c([H])c([H])c([H])c3C([H])([H])C([H])([H])C1([H])[H])C2([H])[H]

>  <smiles>  (3) 
[H]C(C(=O)C([H])([H])C([H])([H])c1c([H])c([H])c(N([H])C(=O)N2C([H])([H])C([H])([H])C([H])([H])C([H])(n3nc(-c4c([H])c([H])c(Oc5c([H])c([H])c(F)c([H])c5F)c([H])c4[H])c(C(=O)N([H])[H])c3N([H])[H])C2([H])[H])c([H])c1F)=C(C([H])([H])[H])C([H])([H])C([H])([H])C([H])([H])C([H])([H])Oc1c([H])c([H])c2c(c1[H])C([H])([H])N(C(=O)C([H])(N([H])C(=O)C([H])(N([H])C([H])([H])[H])C([H])([H])[H])C(C([H])([H])[H])(C([H])([H])[H])C([H])([H])[H])C([H])(C(=O)N([H])C1([H])c3c([H])c([H])c([H])c([H])c3C([H])([H])C([H])([H])C1([H])[H])C2([H])[H]

$$$$
3:0:0
     RDKit          3D

 92100  0  0  1  0  0  0  0  0999 V2000
  -30.2410  -21.7150   20.3590 C   0  0  0  0  0  0  0  0  0  0  0  0
  -29.2240  -22.6170   20.1910 N   0  0  0  0  0  0  0  0  0  0  0  0
  -31.3830  -22.1440   20.5470 O   0  0  0  0  0  0  0  0  0  0  0  0
  -28.2910  -22.2540   20.0450 H   0  0  0  0  0  0  0  0  0  0  0  0
  -31.2160  -19.3490   20.0870 C   0  0  0  0  0  3  0  0  0  0  0  0
  -31.1800  -17.9240   20.1470 C   0  0  0  0  0  3  0  0  0  0  0  0
  -28.8260  -18.0460   20.6030 C   0  0  0  0  0  3  0  0  0  0  0  0
  -30.0710  -20.1760   20.2900 C   0  0  0  0  0  0  0  0  0  0  0  0
  -29.9780  -17.2230   20.4200 C   0  0  0  0  0  0  0  0  0  0  0  0
  -28.8620  -19.4770   20.5450 C   0  0  0  0  0  0  0  0  0  0  0  0
  -27.7160  -20.1670   20.7630 F   0  0  0  0  0  0  0  0  0  0  0  0
  -30.6240  -14.7110   20.0850 C   0  0  0  0  0  0  0  0  0  0  0  0
  -30.3360  -12.5040   18.9760 C   0  0  0  0  0  2  0  0  0  0  0  0
  -29.3290  -12.6760   17.8170 C   0  0  0  0  0  2  0  0  0  0  0  0
  -27.8800  -12.5190   18.3180 C   0  0  0  0  0  2  0  0  0  0  0  0
  -27.5980  -13.3510   19.5970 C   0  0  0  0  0  3  0  0  0  0  0  0
  -28.7110  -13.1510   20.6510 C   0  0  0  0  0  2  0  0  0  0  0  0
  -29.9920  -13.4960   20.0150 N   0  0  0  0  0  0  0  0  0  0  0  0
  -31.7650  -14.8620   19.6380 O   0  0  0  0  0  0  0  0  0  0  0  0
  -29.8530  -15.7620   20.5210 N   0  0  0  0  0  0  0  0  0  0  0  0
  -28.9700  -15.4460   20.8940 H   0  0  0  0  0  0  0  0  0  0  0  0
  -25.2520  -13.9580   20.4530 C   0  0  0  0  0  0  0  0  0  0  0  0
  -24.1970  -13.1880   20.8600 C   0  0  0  0  0  0  0  0  0  0  0  0
  -24.6400  -11.8330   20.7710 C   0  0  0  0  0  0  0  0  0  0  0  0
  -26.2720  -13.0720   20.1430 N   0  0  0  0  0  0  0  0  0  0  0  0
  -25.9120  -11.7880   20.3950 N   0  0  0  0  0  0  0  0  0  0  0  0
  -23.9100  -10.5740   20.9680 C   0  0  0  0  0  0  0  0  0  0  0  0
  -24.3480   -9.6020   21.8940 C   0  0  0  0  0  3  0  0  0  0  0  0
  -23.6170   -8.4070   22.0770 C   0  0  0  0  0  3  0  0  0  0  0  0
  -22.4340   -8.1780   21.3360 C   0  0  0  0  0  0  0  0  0  0  0  0
  -22.0150   -9.1390   20.3990 C   0  0  0  0  0  3  0  0  0  0  0  0
  -22.7460  -10.3240   20.2130 C   0  0  0  0  0  3  0  0  0  0  0  0
  -21.6750   -7.0370   21.4290 O   0  0  0  0  0  0  0  0  0  0  0  0
  -21.5970   -6.3180   22.5950 C   0  0  0  0  0  0  0  0  0  0  0  0
  -21.1190   -6.8900   23.7930 C   0  0  0  0  0  3  0  0  0  0  0  0
  -20.9900   -6.0960   24.9510 C   0  0  0  0  0  3  0  0  0  0  0  0
  -21.3300   -4.7300   24.9100 C   0  0  0  0  0  0  0  0  0  0  0  0
  -21.8020   -4.1580   23.7160 C   0  0  0  0  0  3  0  0  0  0  0  0
  -21.9320   -4.9480   22.5610 C   0  0  0  0  0  0  0  0  0  0  0  0
  -22.3670   -4.3870   21.4080 F   0  0  0  0  0  0  0  0  0  0  0  0
  -21.1990   -3.9660   26.0190 F   0  0  0  0  0  0  0  0  0  0  0  0
  -22.8210  -13.6730   21.2160 C   0  0  0  0  0  0  0  0  0  0  0  0
  -22.1260  -12.9580   22.0920 N   0  0  0  0  0  0  0  0  0  0  0  0
  -22.3730  -14.7210   20.7520 O   0  0  0  0  0  0  0  0  0  0  0  0
  -22.5010  -12.1090   22.4900 H   0  0  0  0  0  0  0  0  0  0  0  0
  -21.2040  -13.2640   22.3720 H   0  0  0  0  0  0  0  0  0  0  0  0
  -25.4230  -15.3310   20.2990 N   0  0  0  0  0  0  0  0  0  0  0  0
  -24.6610  -15.9850   20.4480 H   0  0  0  0  0  0  0  0  0  0  0  0
  -26.2400  -15.7650   19.8880 H   0  0  0  0  0  0  0  0  0  0  0  0
  -29.4030  -24.1180   20.3100 C   0  0  0  0  0  3  0  0  0  0  0  0
  -28.2050  -25.0790   19.9140 C   0  0  0  0  0  3  0  0  0  0  0  0
  -28.3850  -26.5370   20.1240 O   0  0  0  0  0  0  0  0  0  0  0  0
  -24.5960  -31.8440   23.2130 C   0  0  0  0  0  0  0  0  0  0  0  0
  -27.2520  -27.3660   20.0830 C   0  0  0  0  0  0  0  0  0  0  0  0
  -23.4060  -30.4670   21.5430 C   0  0  0  0  0  3  0  0  0  0  0  0
  -24.8720  -28.9550   20.0940 C   0  0  0  0  0  0  0  0  0  0  0  0
  -25.9430  -30.8100   21.3720 C   0  0  0  0  0  2  0  0  0  0  0  0
  -26.0360  -29.4450   20.7010 C   0  0  0  0  0  0  0  0  0  0  0  0
  -27.2280  -28.6640   20.6840 C   0  0  0  0  0  3  0  0  0  0  0  0
  -26.0630  -26.9290   19.4540 C   0  0  0  0  0  3  0  0  0  0  0  0
  -24.8870  -27.7030   19.4620 C   0  0  0  0  0  3  0  0  0  0  0  0
  -23.6290  -29.8190   20.1520 C   0  0  0  0  0  2  0  0  0  0  0  0
  -24.6680  -31.0570   22.1000 N   0  0  0  0  0  0  0  0  0  0  0  0
  -23.5100  -32.1040   23.7490 O   0  0  0  0  0  0  0  0  0  0  0  0
  -22.7490  -29.4280   22.4830 C   0  0  0  0  0  0  0  0  0  0  0  0
  -21.4240  -29.2500   22.3530 N   0  0  0  0  0  0  0  0  0  0  0  0
  -23.4290  -28.7870   23.2880 O   0  0  0  0  0  0  0  0  0  0  0  0
  -20.9330  -29.8190   21.6770 H   0  0  0  0  0  0  0  0  0  0  0  0
  -18.0460  -28.0540   22.8470 C   0  0  0  0  0  0  0  0  0  0  0  0
  -20.6070  -28.2950   23.1040 C   0  0  0  0  0  3  0  0  0  0  0  0
  -20.6990  -26.8790   22.4900 C   0  0  0  0  0  2  0  0  0  0  0  0
  -19.5870  -26.5880   21.4760 C   0  0  0  0  0  2  0  0  0  0  0  0
  -18.2110  -26.7220   22.1330 C   0  0  0  0  0  2  0  0  0  0  0  0
  -19.1710  -28.8000   23.2880 C   0  0  0  0  0  0  0  0  0  0  0  0
  -18.9620  -30.0480   23.9150 C   0  0  0  0  0  3  0  0  0  0  0  0
  -17.6600  -30.5490   24.1050 C   0  0  0  0  0  3  0  0  0  0  0  0
  -16.5500  -29.8010   23.6780 C   0  0  0  0  0  3  0  0  0  0  0  0
  -16.7430  -28.5550   23.0550 C   0  0  0  0  0  3  0  0  0  0  0  0
  -25.8730  -32.4730   23.8500 C   0  0  0  0  0  3  0  0  0  0  0  0
  -26.3780  -31.6930   25.1260 C   0  0  1  0  0  0  0  0  0  0  0  0
  -25.2750  -31.4430   26.1800 C   0  0  0  0  0  1  0  0  0  0  0  0
  -26.9710  -30.3220   24.7300 C   0  0  0  0  0  1  0  0  0  0  0  0
  -27.5180  -32.4870   25.8070 C   0  0  0  0  0  1  0  0  0  0  0  0
  -25.5590  -33.8680   24.1880 N   0  0  0  0  0  0  0  0  0  0  0  0
  -25.8760  -34.9260   23.4290 C   0  0  0  0  0  0  0  0  0  0  0  0
  -26.5340  -34.8290   22.3890 O   0  0  0  0  0  0  0  0  0  0  0  0
  -24.9720  -34.0160   24.9970 H   0  0  0  0  0  0  0  0  0  0  0  0
  -24.1250  -36.7040   23.1110 C   0  0  0  0  0  1  0  0  0  0  0  0
  -25.3860  -36.3100   23.8960 C   0  0  0  0  0  3  0  0  0  0  0  0
  -27.5240  -37.2210   24.6900 C   0  0  0  0  0  1  0  0  0  0  0  0
  -26.4060  -37.3720   23.7610 N   0  0  0  0  0  0  0  0  0  0  0  0
  -25.9950  -38.2900   23.9080 H   0  0  0  0  0  0  0  0  0  0  0  0
  1  3  2  0
  2 50  1  0
  2  1  1  0
  4  2  1  0
  5  6  2  0
  5  8  1  0
  6  9  1  0
  8  1  1  0
  8 10  2  0
  9 20  1  0
  9  7  2  0
 10  7  1  0
 10 11  1  0
 12 20  1  0
 13 18  1  0
 14 15  1  0
 14 13  1  0
 16 15  1  0
 16 25  1  0
 16 17  1  0
 18 12  1  0
 18 17  1  0
 19 12  2  0
 20 21  1  0
 22 23  2  0
 23 42  1  0
 24 23  1  0
 24 27  1  0
 25 26  1  0
 25 22  1  0
 26 24  2  0
 27 28  1  0
 28 29  2  0
 30 33  1  0
 30 29  1  0
 31 30  2  0
 32 31  1  0
 32 27  2  0
 33 34  1  0
 34 35  1  0
 35 36  2  0
 37 36  1  0
 37 41  1  0
 38 37  2  0
 39 34  2  0
 39 38  1  0
 40 39  1  0
 42 43  1  0
 43 46  1  0
 43 45  1  0
 44 42  2  0
 47 48  1  0
 47 22  1  0
 49 47  1  0
 51 52  1  0
 51 50  2  0
 53 64  2  0
 54 52  1  0
 54 59  1  0
 55 63  1  0
 55 65  1  0
 56 62  1  0
 56 58  1  0
 57 63  1  0
 58 57  1  0
 59 58  2  0
 60 61  1  0
 60 54  2  0
 61 56  2  0
 62 55  1  0
 63 53  1  0
 65 67  2  0
 66 65  1  0
 68 66  1  0
 69 78  2  0
 69 74  1  0
 70 66  1  0
 70 74  1  0
 71 70  1  0
 72 73  1  0
 72 71  1  0
 73 69  1  0
 74 75  2  0
 75 76  1  0
 77 76  2  0
 78 77  1  0
 79 53  1  0
 79 84  1  0
 79 80  1  0
 80 83  1  1
 80 81  1  0
 82 80  1  0
 84 87  1  0
 85 89  1  0
 85 84  1  0
 86 85  2  0
 89 88  1  0
 91 89  1  0
 91 92  1  0
 91 90  1  0
M  ISO  4  12 100  20 100  51 101  52 101
M  END
>  <TORSDO>  (4) 
F 19

>  <SCORE>  (4) 
-14.260

>  <name>  (4) 
3

>  <ligand_id>  (4) 
3

>  <original_smiles>  (4) 
[H]c1c([H])c([H])c2c(c1[H])C([H])([H])C([H])([H])C([H])([H])C2([H])N([H])C(=O)C1([H])N(C(=O)C([H])(N([H])C(=O)C([H])(N([H])C([H])([H])[H])C([H])([H])[H])C(C([H])([H])[H])(C([H])([H])[H])C([H])([H])[H])C([H])([H])c2c([H])c(OC([H])([H])C([H])([H])N([H])C(=O)c3c([H])c([H])c(N([H])C(=O)N4C([H])([H])C([H])([H])C([H])([H])C([H])(n5nc(-c6c([H])c([H])c(Oc7c([H])c([H])c(F)c([H])c7F)c([H])c6[H])c(C(=O)N([H])[H])c5N([H])[H])C4([H])[H])c([H])c3F)c([H])c([H])c2C1([H])[H]

>  <smiles>  (4) 
[H]c1c([H])c([H])c2c(c1[H])C([H])([H])C([H])([H])C([H])([H])C2([H])N([H])C(=O)C1([H])N(C(=O)C([H])(N([H])C(=O)C([H])(N([H])C([H])([H])[H])C([H])([H])[H])C(C([H])([H])[H])(C([H])([H])[H])C([H])([H])[H])C([H])([H])c2c([H])c(OC([H])([H])C([H])([H])N([H])C(=O)c3c([H])c([H])c(N([H])C(=O)N4C([H])([H])C([H])([H])C([H])([H])C([H])(n5nc(-c6c([H])c([H])c(Oc7c([H])c([H])c(F)c([H])c7F)c([H])c6[H])c(C(=O)N([H])[H])c5N([H])[H])C4([H])[H])c([H])c3F)c([H])c([H])c2C1([H])[H]

$$$$
4:0:0
     RDKit          3D

100108  0  0  1  0  0  0  0  0999 V2000
  -27.4330  -22.7570   21.4240 C   0  0  0  0  0  0  0  0  0  0  0  0
  -26.3130  -23.0250   22.0930 N   0  0  0  0  0  4  0  0  0  0  0  0
  -28.6160  -23.0760   21.9830 N   0  0  0  0  0  0  0  0  0  0  0  0
  -25.4310  -22.7120   21.7170 H   0  0  0  0  0  0  0  0  0  0  0  0
  -26.3090  -23.4660   23.0000 H   0  0  0  0  0  0  0  0  0  0  0  0
  -28.6240  -23.4160   22.9340 H   0  0  0  0  0  0  0  0  0  0  0  0
  -26.5220  -22.0650   17.8060 C   0  0  0  0  0  3  0  0  0  0  0  0
  -26.4900  -22.6190   19.1050 C   0  0  0  0  0  3  0  0  0  0  0  0
  -27.4180  -21.0150   17.5030 C   0  0  0  0  0  3  0  0  0  0  0  0
  -28.2000  -21.0420   19.8140 C   0  0  0  0  0  3  0  0  0  0  0  0
  -27.3580  -22.1300   20.1040 C   0  0  0  0  0  0  0  0  0  0  0  0
  -28.2490  -20.5030   18.5190 C   0  0  0  0  0  0  0  0  0  0  0  0
  -29.1270  -18.5440   16.9430 O   0  0  0  0  0  0  0  0  0  0  0  0
  -30.8100  -19.9140   18.2460 O   0  0  0  0  0  0  0  0  0  0  0  0
  -29.4920  -19.2650   18.1790 S   0  0  1  0  0  0  0  0  0  0  0  0
  -29.3590  -18.0790   19.5780 C   0  0  0  0  0  2  0  0  0  0  0  0
  -30.6230  -17.2240   19.7390 C   0  0  0  0  0  2  0  0  0  0  0  0
  -31.1370  -14.8890   20.3090 C   0  0  0  0  0  0  0  0  0  0  0  0
  -30.9600  -12.5130   19.7270 C   0  0  0  0  0  2  0  0  0  0  0  0
  -30.0960  -12.3830   18.4550 C   0  0  0  0  0  2  0  0  0  0  0  0
  -28.6000  -12.3010   18.8180 C   0  0  0  0  0  2  0  0  0  0  0  0
  -28.1560  -13.4130   19.8100 C   0  0  0  0  0  3  0  0  0  0  0  0
  -29.1380  -13.5180   21.0000 C   0  0  0  0  0  2  0  0  0  0  0  0
  -30.4990  -13.7000   20.4620 N   0  0  0  0  0  0  0  0  0  0  0  0
  -32.2860  -15.0090   19.8800 O   0  0  0  0  0  0  0  0  0  0  0  0
  -30.3460  -15.9570   20.4230 N   0  0  0  0  0  0  0  0  0  0  0  0
  -29.4130  -15.7750   20.7570 H   0  0  0  0  0  0  0  0  0  0  0  0
  -25.8010  -14.1350   20.5730 C   0  0  0  0  0  0  0  0  0  0  0  0
  -24.6710  -13.4140   20.8560 C   0  0  0  0  0  0  0  0  0  0  0  0
  -25.0270  -12.0420   20.6870 C   0  0  0  0  0  0  0  0  0  0  0  0
  -26.7780  -13.2030   20.2560 N   0  0  0  0  0  0  0  0  0  0  0  0
  -26.3130  -11.9320   20.3800 N   0  0  0  0  0  0  0  0  0  0  0  0
  -24.2060  -10.8270   20.7420 C   0  0  0  0  0  0  0  0  0  0  0  0
  -24.6440   -9.6710   21.4260 C   0  0  0  0  0  3  0  0  0  0  0  0
  -23.8290   -8.5180   21.4810 C   0  0  0  0  0  3  0  0  0  0  0  0
  -22.5630   -8.5140   20.8510 C   0  0  0  0  0  0  0  0  0  0  0  0
  -22.1430   -9.6570   20.1490 C   0  0  0  0  0  3  0  0  0  0  0  0
  -22.9560  -10.8030   20.0910 C   0  0  0  0  0  3  0  0  0  0  0  0
  -21.7170   -7.4320   20.8310 O   0  0  0  0  0  0  0  0  0  0  0  0
  -21.7250   -6.4900   21.8300 C   0  0  0  0  0  0  0  0  0  0  0  0
  -21.4920   -6.8330   23.1800 C   0  0  0  0  0  3  0  0  0  0  0  0
  -21.4410   -5.8250   24.1640 C   0  0  0  0  0  3  0  0  0  0  0  0
  -21.6110   -4.4750   23.8000 C   0  0  0  0  0  0  0  0  0  0  0  0
  -21.8380   -4.1320   22.4570 C   0  0  0  0  0  3  0  0  0  0  0  0
  -21.8910   -5.1360   21.4740 C   0  0  0  0  0  0  0  0  0  0  0  0
  -22.0870   -4.7970   20.1770 F   0  0  0  0  0  0  0  0  0  0  0  0
  -21.5560   -3.5060   24.7440 F   0  0  0  0  0  0  0  0  0  0  0  0
  -23.3100  -13.9650   21.1720 C   0  0  0  0  0  0  0  0  0  0  0  0
  -22.5230  -13.2440   21.9620 N   0  0  0  0  0  0  0  0  0  0  0  0
  -22.9550  -15.0640   20.7520 O   0  0  0  0  0  0  0  0  0  0  0  0
  -22.8220  -12.3470   22.3190 H   0  0  0  0  0  0  0  0  0  0  0  0
  -21.6050  -13.5870   22.2080 H   0  0  0  0  0  0  0  0  0  0  0  0
  -26.0730  -15.5000   20.5420 N   0  0  0  0  0  0  0  0  0  0  0  0
  -25.3690  -16.1940   20.7600 H   0  0  0  0  0  0  0  0  0  0  0  0
  -26.9330  -15.9080   20.1980 H   0  0  0  0  0  0  0  0  0  0  0  0
  -29.9560  -23.0710   21.3490 C   0  0  0  0  0  2  0  0  0  0  0  0
  -29.9760  -23.9870   20.1120 C   0  0  0  0  0  2  0  0  0  0  0  0
  -31.3880  -24.2290   19.5420 C   0  0  0  0  0  2  0  0  0  0  0  0
  -31.5460  -25.6140   18.8820 C   0  0  0  0  0  2  0  0  0  0  0  0
  -30.5440  -25.7900   17.8880 O   0  0  0  0  0  0  0  0  0  0  0  0
  -26.0810  -28.7960   22.6730 C   0  0  0  0  0  0  0  0  0  0  0  0
  -29.3130  -26.2920   18.2480 C   0  0  0  0  0  0  0  0  0  0  0  0
  -25.0730  -27.9820   20.5660 C   0  0  0  0  0  3  0  0  0  0  0  0
  -26.7210  -27.3140   18.7360 C   0  0  0  0  0  0  0  0  0  0  0  0
  -27.5230  -28.7230   20.6360 C   0  0  0  0  0  2  0  0  0  0  0  0
  -27.7980  -27.7190   19.5380 C   0  0  0  0  0  0  0  0  0  0  0  0
  -29.1000  -27.2080   19.3050 C   0  0  0  0  0  3  0  0  0  0  0  0
  -28.2190  -25.8950   17.4540 C   0  0  0  0  0  3  0  0  0  0  0  0
  -26.9250  -26.3930   17.6930 C   0  0  0  0  0  3  0  0  0  0  0  0
  -25.3690  -27.9130   19.0430 C   0  0  0  0  0  2  0  0  0  0  0  0
  -26.2420  -28.4930   21.3530 N   0  0  0  0  0  0  0  0  0  0  0  0
  -24.9730  -28.6960   23.2180 O   0  0  0  0  0  0  0  0  0  0  0  0
  -24.5800  -26.5950   21.0340 C   0  0  0  0  0  0  0  0  0  0  0  0
  -23.3140  -26.2730   20.7200 N   0  0  0  0  0  0  0  0  0  0  0  0
  -25.3330  -25.8260   21.6370 O   0  0  0  0  0  0  0  0  0  0  0  0
  -22.7440  -26.9600   20.2470 H   0  0  0  0  0  0  0  0  0  0  0  0
  -20.2100  -24.4570   20.3960 C   0  0  0  0  0  0  0  0  0  0  0  0
  -22.6580  -25.0000   21.0170 C   0  0  0  0  0  3  0  0  0  0  0  0
  -23.0530  -23.9160   19.9850 C   0  0  0  0  0  2  0  0  0  0  0  0
  -22.0770  -23.8190   18.8090 C   0  0  0  0  0  2  0  0  0  0  0  0
  -20.6660  -23.4950   19.3100 C   0  0  0  0  0  2  0  0  0  0  0  0
  -21.1470  -25.1770   21.1870 C   0  0  0  0  0  0  0  0  0  0  0  0
  -20.6690  -26.0840   22.1570 C   0  0  0  0  0  3  0  0  0  0  0  0
  -19.2860  -26.2720   22.3520 C   0  0  0  0  0  3  0  0  0  0  0  0
  -18.3650  -25.5500   21.5710 C   0  0  0  0  0  3  0  0  0  0  0  0
  -18.8280  -24.6400   20.6040 C   0  0  0  0  0  3  0  0  0  0  0  0
  -27.2650  -29.3070   23.5460 C   0  0  0  0  0  3  0  0  0  0  0  0
  -26.8020  -30.5100   24.2510 N   0  0  0  0  0  0  0  0  0  0  0  0
  -27.0940  -31.7660   23.8910 C   0  0  0  0  0  0  0  0  0  0  0  0
  -27.8500  -32.0350   22.9520 O   0  0  0  0  0  0  0  0  0  0  0  0
  -26.1400  -30.3640   25.0010 H   0  0  0  0  0  0  0  0  0  0  0  0
  -25.2610  -33.4850   23.9130 C   0  0  0  0  0  1  0  0  0  0  0  0
  -26.4480  -32.9070   24.7000 C   0  0  0  0  0  3  0  0  0  0  0  0
  -28.4380  -33.5760   25.9740 C   0  0  0  0  0  1  0  0  0  0  0  0
  -27.3920  -33.9920   25.0440 N   0  0  0  0  0  0  0  0  0  0  0  0
  -26.9010  -34.7820   25.4540 H   0  0  0  0  0  0  0  0  0  0  0  0
  -27.7920  -28.2280   24.5680 C   0  0  1  0  0  0  0  0  0  0  0  0
  -26.6710  -27.5070   25.3550 C   0  0  0  0  0  1  0  0  0  0  0  0
  -28.6260  -27.1510   23.8350 C   0  0  0  0  0  1  0  0  0  0  0  0
  -28.7350  -28.8980   25.5940 C   0  0  0  0  0  1  0  0  0  0  0  0
  1  3  1  0
  1  2  2  0
  2  5  1  0
  3  6  1  0
  4  2  1  0
  7  8  1  0
  8 11  2  0
  9  7  2  0
  9 12  1  0
 10 11  1  0
 11  1  1  0
 12 10  2  0
 13 15  2  0
 15 14  2  0
 15 12  1  0
 15 16  1  1
 16 17  1  0
 17 26  1  0
 18 26  1  0
 18 24  1  0
 19 24  1  0
 20 21  1  0
 20 19  1  0
 22 21  1  0
 22 31  1  0
 22 23  1  0
 24 23  1  0
 25 18  2  0
 26 27  1  0
 28 29  2  0
 29 48  1  0
 30 33  1  0
 30 29  1  0
 31 32  1  0
 31 28  1  0
 32 30  2  0
 33 34  1  0
 34 35  2  0
 36 35  1  0
 37 36  2  0
 38 37  1  0
 38 33  2  0
 39 36  1  0
 39 40  1  0
 40 41  1  0
 41 42  2  0
 43 42  1  0
 43 47  1  0
 44 43  2  0
 45 40  2  0
 45 44  1  0
 46 45  1  0
 48 49  1  0
 49 52  1  0
 49 51  1  0
 50 48  2  0
 53 28  1  0
 53 54  1  0
 55 53  1  0
 56  3  1  0
 57 56  1  0
 58 57  1  0
 59 58  1  0
 60 62  1  0
 60 59  1  0
 61 72  2  0
 62 67  1  0
 63 73  1  0
 63 71  1  0
 64 70  1  0
 64 66  1  0
 65 71  1  0
 66 65  1  0
 67 66  2  0
 68 69  1  0
 68 62  2  0
 69 64  2  0
 70 63  1  0
 71 61  1  0
 73 75  2  0
 74 73  1  0
 76 74  1  0
 77 86  2  0
 77 82  1  0
 78 74  1  0
 78 82  1  0
 79 78  1  0
 80 81  1  0
 80 79  1  0
 81 77  1  0
 82 83  2  0
 83 84  1  0
 85 84  2  0
 86 85  1  0
 87 61  1  0
 87 88  1  0
 87 97  1  0
 88 91  1  0
 89 88  1  0
 89 93  1  0
 90 89  2  0
 93 92  1  0
 93 95  1  0
 95 96  1  0
 95 94  1  0
 97 98  1  1
 97100  1  0
 99 97  1  0
M  ISO  4  18 100  26 100  59 101  60 101
M  END
>  <TORSDO>  (5) 
F 24

>  <SCORE>  (5) 
-9.167

>  <name>  (5) 
4

>  <ligand_id>  (5) 
4

>  <original_smiles>  (5) 
[H]c1c([H])c([H])c2c(c1[H])C([H])([H])C([H])([H])C([H])([H])C2([H])N([H])C(=O)C1([H])N(C(=O)C([H])(N([H])C(=O)C([H])(N([H])C([H])([H])[H])C([H])([H])[H])C(C([H])([H])[H])(C([H])([H])[H])C([H])([H])[H])C([H])([H])c2c([H])c(OC([H])([H])C([H])([H])C([H])([H])C([H])([H])[N+]([H])=C(c3c([H])c([H])c([H])c(S(=O)(=O)C([H])([H])C([H])([H])N([H])C(=O)N4C([H])([H])C([H])([H])C([H])([H])C([H])(n5nc(-c6c([H])c([H])c(Oc7c([H])c([H])c(F)c([H])c7F)c([H])c6[H])c(C(=O)N([H])[H])c5N([H])[H])C4([H])[H])c3[H])N([H])[H])c([H])c([H])c2C1([H])[H]

>  <smiles>  (5) 
[H]c1c([H])c([H])c2c(c1[H])C([H])([H])C([H])([H])C([H])([H])C2([H])N([H])C(=O)C1([H])N(C(=O)C([H])(N([H])C(=O)C([H])(N([H])C([H])([H])[H])C([H])([H])[H])C(C([H])([H])[H])(C([H])([H])[H])C([H])([H])[H])C([H])([H])c2c([H])c(OC([H])([H])C([H])([H])C([H])([H])C([H])([H])[N+]([H])=C(c3c([H])c([H])c([H])c(S(=O)(=O)C([H])([H])C([H])([H])N([H])C(=O)N4C([H])([H])C([H])([H])C([H])([H])C([H])(n5nc(-c6c([H])c([H])c(Oc7c([H])c([H])c(F)c([H])c7F)c([H])c6[H])c(C(=O)N([H])[H])c5N([H])[H])C4([H])[H])c3[H])N([H])[H])c([H])c([H])c2C1([H])[H]

$$$$
5:0:0
     RDKit          3D

102110  0  0  1  0  0  0  0  0999 V2000
  -32.9180  -20.4640   18.0690 C   0  0  0  0  0  2  0  0  0  0  0  0
  -34.0200  -20.7010   19.1260 C   0  0  0  0  0  2  0  0  0  0  0  0
  -33.4290  -20.9910   20.5110 C   0  0  0  0  0  0  0  0  0  0  0  0
  -34.9530  -20.1060   22.1900 C   0  0  0  0  0  1  0  0  0  0  0  0
  -33.6740  -20.0980   21.4870 N   0  0  0  0  0  0  0  0  0  0  0  0
  -32.7540  -22.0080   20.6940 O   0  0  0  0  0  0  0  0  0  0  0  0
  -31.7820  -19.8630   23.0370 C   0  0  0  0  0  3  0  0  0  0  0  0
  -30.7330  -19.0790   23.5540 C   0  0  0  0  0  3  0  0  0  0  0  0
  -32.4010  -18.0230   21.5500 C   0  0  0  0  0  3  0  0  0  0  0  0
  -32.6140  -19.3340   22.0280 C   0  0  0  0  0  0  0  0  0  0  0  0
  -31.3460  -17.2370   22.0710 C   0  0  0  0  0  0  0  0  0  0  0  0
  -30.5220  -17.7720   23.0800 C   0  0  0  0  0  0  0  0  0  0  0  0
  -29.5150  -17.0210   23.5890 F   0  0  0  0  0  0  0  0  0  0  0  0
  -31.5090  -15.1710   20.6610 C   0  0  0  0  0  0  0  0  0  0  0  0
  -31.2530  -13.0060   19.5000 C   0  0  0  0  0  2  0  0  0  0  0  0
  -30.3660  -13.1250   18.2480 C   0  0  0  0  0  2  0  0  0  0  0  0
  -28.8750  -12.9940   18.6140 C   0  0  0  0  0  2  0  0  0  0  0  0
  -28.4680  -13.8970   19.8060 C   0  0  0  0  0  3  0  0  0  0  0  0
  -29.4620  -13.7250   20.9750 C   0  0  0  0  0  2  0  0  0  0  0  0
  -30.8250  -14.0120   20.4820 N   0  0  0  0  0  0  0  0  0  0  0  0
  -32.5150  -15.4650   20.0100 O   0  0  0  0  0  0  0  0  0  0  0  0
  -31.0380  -15.9150   21.6700 N   0  0  0  0  0  0  0  0  0  0  0  0
  -30.2480  -15.5120   22.1530 H   0  0  0  0  0  0  0  0  0  0  0  0
  -26.0410  -14.5220   20.4120 C   0  0  0  0  0  0  0  0  0  0  0  0
  -24.9510  -13.7550   20.7330 C   0  0  0  0  0  0  0  0  0  0  0  0
  -25.4030  -12.4010   20.7100 C   0  0  0  0  0  0  0  0  0  0  0  0
  -27.0910  -13.6340   20.2250 N   0  0  0  0  0  0  0  0  0  0  0  0
  -26.7040  -12.3520   20.4570 N   0  0  0  0  0  0  0  0  0  0  0  0
  -24.6590  -11.1430   20.8590 C   0  0  0  0  0  0  0  0  0  0  0  0
  -24.9970  -10.2010   21.8550 C   0  0  0  0  0  3  0  0  0  0  0  0
  -24.2570   -9.0080   21.9910 C   0  0  0  0  0  3  0  0  0  0  0  0
  -23.1610   -8.7520   21.1330 C   0  0  0  0  0  0  0  0  0  0  0  0
  -22.8450   -9.6820   20.1280 C   0  0  0  0  0  3  0  0  0  0  0  0
  -23.5850  -10.8670   19.9890 C   0  0  0  0  0  3  0  0  0  0  0  0
  -22.4000   -7.6080   21.1780 O   0  0  0  0  0  0  0  0  0  0  0  0
  -22.1490   -6.9540   22.3570 C   0  0  0  0  0  0  0  0  0  0  0  0
  -21.5200   -7.5950   23.4460 C   0  0  0  0  0  3  0  0  0  0  0  0
  -21.2200   -6.8660   24.6150 C   0  0  0  0  0  3  0  0  0  0  0  0
  -21.5350   -5.4970   24.6930 C   0  0  0  0  0  0  0  0  0  0  0  0
  -22.1520   -4.8540   23.6060 C   0  0  0  0  0  3  0  0  0  0  0  0
  -22.4550   -5.5800   22.4400 C   0  0  0  0  0  0  0  0  0  0  0  0
  -23.0300   -4.9490   21.3870 F   0  0  0  0  0  0  0  0  0  0  0  0
  -21.2400   -4.7960   25.8130 F   0  0  0  0  0  0  0  0  0  0  0  0
  -23.5470  -14.2430   20.9580 C   0  0  0  0  0  0  0  0  0  0  0  0
  -22.7870  -13.5550   21.8030 N   0  0  0  0  0  0  0  0  0  0  0  0
  -23.1330  -15.2690   20.4210 O   0  0  0  0  0  0  0  0  0  0  0  0
  -23.1390  -12.7270   22.2570 H   0  0  0  0  0  0  0  0  0  0  0  0
  -21.8440  -13.8600   21.9970 H   0  0  0  0  0  0  0  0  0  0  0  0
  -26.2240  -15.8900   20.2460 N   0  0  0  0  0  0  0  0  0  0  0  0
  -25.4640  -16.5560   20.3450 H   0  0  0  0  0  0  0  0  0  0  0  0
  -27.0990  -16.3300   19.9880 H   0  0  0  0  0  0  0  0  0  0  0  0
  -32.0850  -19.1850   18.3040 C   0  0  0  0  0  2  0  0  0  0  0  0
  -30.6040  -19.3420   17.9180 C   0  0  0  0  0  2  0  0  0  0  0  0
  -29.7580  -20.0200   19.0150 C   0  0  0  0  0  2  0  0  0  0  0  0
  -28.3830  -20.4980   18.5120 C   0  0  0  0  0  2  0  0  0  0  0  0
  -28.3820  -21.9420   17.9740 C   0  0  0  0  0  2  0  0  0  0  0  0
  -28.3110  -24.2340   18.9390 C   0  0  0  0  0  0  0  0  0  0  0  0
  -28.4180  -22.9050   19.0700 N   0  0  0  0  0  0  0  0  0  0  0  0
  -28.2560  -24.7930   17.8400 O   0  0  0  0  0  0  0  0  0  0  0  0
  -28.4730  -22.5330   20.0080 H   0  0  0  0  0  0  0  0  0  0  0  0
  -28.2290  -25.0340   20.2510 C   0  0  0  0  0  2  0  0  0  0  0  0
  -28.2910  -26.4470   20.0270 O   0  0  0  0  0  0  0  0  0  0  0  0
  -24.5200  -31.6270   23.1060 C   0  0  0  0  0  0  0  0  0  0  0  0
  -27.1060  -27.1510   20.0320 C   0  0  0  0  0  0  0  0  0  0  0  0
  -23.3000  -30.2510   21.4520 C   0  0  0  0  0  3  0  0  0  0  0  0
  -24.7320  -28.6860   20.0390 C   0  0  0  0  0  0  0  0  0  0  0  0
  -25.8330  -30.5640   21.2720 C   0  0  0  0  0  2  0  0  0  0  0  0
  -25.8950  -29.1940   20.6280 C   0  0  0  0  0  0  0  0  0  0  0  0
  -27.0850  -28.4360   20.6170 C   0  0  0  0  0  3  0  0  0  0  0  0
  -25.9210  -26.6480   19.4480 C   0  0  0  0  0  3  0  0  0  0  0  0
  -24.7380  -27.4120   19.4470 C   0  0  0  0  0  3  0  0  0  0  0  0
  -23.5060  -29.5680   20.0740 C   0  0  0  0  0  2  0  0  0  0  0  0
  -24.5680  -30.8280   22.0010 N   0  0  0  0  0  0  0  0  0  0  0  0
  -23.4410  -31.9200   23.6370 O   0  0  0  0  0  0  0  0  0  0  0  0
  -22.6210  -29.2420   22.4050 C   0  0  0  0  0  0  0  0  0  0  0  0
  -21.2950  -29.0840   22.2610 N   0  0  0  0  0  0  0  0  0  0  0  0
  -23.2830  -28.6030   23.2290 O   0  0  0  0  0  0  0  0  0  0  0  0
  -20.8250  -29.6480   21.5670 H   0  0  0  0  0  0  0  0  0  0  0  0
  -17.8940  -27.9530   22.7130 C   0  0  0  0  0  0  0  0  0  0  0  0
  -20.4520  -28.1620   23.0210 C   0  0  0  0  0  3  0  0  0  0  0  0
  -20.5360  -26.7290   22.4450 C   0  0  0  0  0  2  0  0  0  0  0  0
  -19.4410  -26.4280   21.4150 C   0  0  0  0  0  2  0  0  0  0  0  0
  -18.0540  -26.6000   22.0420 C   0  0  0  0  0  2  0  0  0  0  0  0
  -19.0220  -28.6940   23.1590 C   0  0  0  0  0  0  0  0  0  0  0  0
  -18.8190  -29.9630   23.7440 C   0  0  0  0  0  3  0  0  0  0  0  0
  -17.5230  -30.4900   23.8920 C   0  0  0  0  0  3  0  0  0  0  0  0
  -16.4100  -29.7460   23.4640 C   0  0  0  0  0  3  0  0  0  0  0  0
  -16.5960  -28.4790   22.8800 C   0  0  0  0  0  3  0  0  0  0  0  0
  -25.8130  -32.2310   23.7380 C   0  0  0  0  0  3  0  0  0  0  0  0
  -26.3250  -31.4240   24.9940 C   0  0  1  0  0  0  0  0  0  0  0  0
  -25.2340  -31.1750   26.0620 C   0  0  0  0  0  1  0  0  0  0  0  0
  -26.8900  -30.0510   24.5640 C   0  0  0  0  0  1  0  0  0  0  0  0
  -27.4900  -32.1900   25.6660 C   0  0  0  0  0  1  0  0  0  0  0  0
  -25.5210  -33.6240   24.0980 N   0  0  0  0  0  0  0  0  0  0  0  0
  -25.8730  -34.6890   23.3630 C   0  0  0  0  0  0  0  0  0  0  0  0
  -26.5500  -34.5980   22.3350 O   0  0  0  0  0  0  0  0  0  0  0  0
  -24.9210  -33.7700   24.8950 H   0  0  0  0  0  0  0  0  0  0  0  0
  -24.1670  -36.5060   23.0400 C   0  0  0  0  0  1  0  0  0  0  0  0
  -25.3990  -36.0730   23.8480 C   0  0  0  0  0  3  0  0  0  0  0  0
  -27.5400  -36.9150   24.7050 C   0  0  0  0  0  1  0  0  0  0  0  0
  -26.4450  -37.1150   23.7590 N   0  0  0  0  0  0  0  0  0  0  0  0
  -26.0510  -38.0390   23.9200 H   0  0  0  0  0  0  0  0  0  0  0  0
  1 52  1  0
  1  2  1  0
  2  3  1  0
  3  6  2  0
  3  5  1  0
  5 10  1  0
  5  4  1  0
  7  8  1  0
  9 10  1  0
  9 11  2  0
 10  7  2  0
 11 12  1  0
 12  8  2  0
 12 13  1  0
 14 22  1  0
 15 20  1  0
 16 17  1  0
 16 15  1  0
 18 17  1  0
 18 27  1  0
 18 19  1  0
 20 14  1  0
 20 19  1  0
 21 14  2  0
 22 11  1  0
 22 23  1  0
 24 25  2  0
 25 44  1  0
 26 25  1  0
 26 29  1  0
 27 24  1  0
 27 28  1  0
 28 26  2  0
 29 30  1  0
 30 31  2  0
 32 35  1  0
 32 31  1  0
 33 32  2  0
 34 33  1  0
 34 29  2  0
 35 36  1  0
 36 41  2  0
 36 37  1  0
 37 38  2  0
 38 39  1  0
 39 43  1  0
 40 39  2  0
 41 40  1  0
 42 41  1  0
 44 45  1  0
 45 48  1  0
 45 47  1  0
 46 44  2  0
 49 50  1  0
 49 24  1  0
 51 49  1  0
 53 52  1  0
 53 54  1  0
 55 54  1  0
 56 55  1  0
 56 58  1  0
 57 58  1  0
 57 61  1  0
 58 60  1  0
 59 57  2  0
 62 64  1  0
 62 61  1  0
 63 74  2  0
 64 69  1  0
 65 73  1  0
 65 75  1  0
 66 72  1  0
 66 68  1  0
 67 73  1  0
 68 67  1  0
 69 68  2  0
 70 64  2  0
 71 70  1  0
 71 66  2  0
 72 65  1  0
 73 63  1  0
 75 77  2  0
 76 75  1  0
 78 76  1  0
 79 88  2  0
 79 84  1  0
 80 76  1  0
 80 84  1  0
 81 80  1  0
 82 83  1  0
 82 81  1  0
 83 79  1  0
 84 85  2  0
 85 86  1  0
 87 86  2  0
 88 87  1  0
 89 63  1  0
 89 94  1  0
 89 90  1  0
 90 93  1  1
 90 91  1  0
 92 90  1  0
 94 97  1  0
 95 99  1  0
 95 94  1  0
 96 95  2  0
 99 98  1  0
101 99  1  0
101102  1  0
101100  1  0
M  ISO  4  14 100  22 100  61 101  62 101
M  END
>  <TORSDO>  (6) 
F 26

>  <SCORE>  (6) 
-8.890

>  <name>  (6) 
5

>  <ligand_id>  (6) 
5

>  <original_smiles>  (6) 
[H]c1c([H])c([H])c2c(c1[H])C([H])([H])C([H])([H])C([H])([H])C2([H])N([H])C(=O)C1([H])N(C(=O)C([H])(N([H])C(=O)C([H])(N([H])C([H])([H])[H])C([H])([H])[H])C(C([H])([H])[H])(C([H])([H])[H])C([H])([H])[H])C([H])([H])c2c([H])c(OC([H])([H])C(=O)N([H])C([H])([H])C([H])([H])C([H])([H])C([H])([H])C([H])([H])C([H])([H])C([H])([H])C(=O)N(c3c([H])c([H])c(F)c(N([H])C(=O)N4C([H])([H])C([H])([H])C([H])([H])C([H])(n5nc(-c6c([H])c([H])c(Oc7c([H])c([H])c(F)c([H])c7F)c([H])c6[H])c(C(=O)N([H])[H])c5N([H])[H])C4([H])[H])c3[H])C([H])([H])[H])c([H])c([H])c2C1([H])[H]

>  <smiles>  (6) 
[H]c1c([H])c([H])c2c(c1[H])C([H])([H])C([H])([H])C([H])([H])C2([H])N([H])C(=O)C1([H])N(C(=O)C([H])(N([H])C(=O)C([H])(N([H])C([H])([H])[H])C([H])([H])[H])C(C([H])([H])[H])(C([H])([H])[H])C([H])([H])[H])C([H])([H])c2c([H])c(OC([H])([H])C(=O)N([H])C([H])([H])C([H])([H])C([H])([H])C([H])([H])C([H])([H])C([H])([H])C([H])([H])C(=O)N(c3c([H])c([H])c(F)c(N([H])C(=O)N4C([H])([H])C([H])([H])C([H])([H])C([H])(n5nc(-c6c([H])c([H])c(Oc7c([H])c([H])c(F)c([H])c7F)c([H])c6[H])c(C(=O)N([H])[H])c5N([H])[H])C4([H])[H])c3[H])C([H])([H])[H])c([H])c([H])c2C1([H])[H]

$$$$
6:0:0
     RDKit          3D

 89 97  0  0  1  0  0  0  0  0999 V2000
  -30.5050  -18.5500   19.6790 C   0  0  0  0  0  3  0  0  0  0  0  0
  -30.2040  -19.9850   19.5630 C   0  0  0  0  0  3  0  0  0  0  0  0
  -27.9670  -19.5410   20.1410 C   0  0  0  0  0  3  0  0  0  0  0  0
  -29.5350  -17.5380   20.0320 C   0  0  0  0  0  0  0  0  0  0  0  0
  -28.8970  -20.5610   19.7700 C   0  0  0  0  0  0  0  0  0  0  0  0
  -28.2580  -18.1360   20.2790 C   0  0  0  0  0  0  0  0  0  0  0  0
  -26.9600  -17.1090   20.7780 Cl  0  0  0  0  0  0  0  0  0  0  0  0
  -30.4520  -14.9230   19.7450 C   0  0  0  0  0  0  0  0  0  0  0  0
  -30.2870  -12.5690   18.8170 C   0  0  0  0  0  2  0  0  0  0  0  0
  -29.2510  -12.5420   17.6680 C   0  0  0  0  0  2  0  0  0  0  0  0
  -27.8230  -12.3410   18.2160 C   0  0  0  0  0  2  0  0  0  0  0  0
  -27.5220  -13.2610   19.4280 C   0  0  0  0  0  3  0  0  0  0  0  0
  -28.6670  -13.2360   20.4660 C   0  0  0  0  0  2  0  0  0  0  0  0
  -29.8960  -13.6460   19.7680 N   0  0  0  0  0  0  0  0  0  0  0  0
  -31.5930  -15.0550   19.2890 O   0  0  0  0  0  0  0  0  0  0  0  0
  -29.6320  -16.0100   20.1170 N   0  0  0  0  0  0  0  0  0  0  0  0
  -28.8030  -15.6420   20.5620 H   0  0  0  0  0  0  0  0  0  0  0  0
  -25.2160  -13.8530   20.3770 C   0  0  0  0  0  0  0  0  0  0  0  0
  -24.1770  -13.0850   20.8230 C   0  0  0  0  0  0  0  0  0  0  0  0
  -24.6150  -11.7290   20.7130 C   0  0  0  0  0  0  0  0  0  0  0  0
  -26.2240  -12.9700   20.0280 N   0  0  0  0  0  0  0  0  0  0  0  0
  -25.8740  -11.6830   20.2910 N   0  0  0  0  0  0  0  0  0  0  0  0
  -23.8850  -10.4740   20.9290 C   0  0  0  0  0  0  0  0  0  0  0  0
  -24.3610   -9.4860   21.8210 C   0  0  0  0  0  3  0  0  0  0  0  0
  -23.6290   -8.2960   22.0270 C   0  0  0  0  0  3  0  0  0  0  0  0
  -22.4100   -8.0850   21.3420 C   0  0  0  0  0  0  0  0  0  0  0  0
  -21.9530   -9.0600   20.4380 C   0  0  0  0  0  3  0  0  0  0  0  0
  -22.6840  -10.2420   20.2300 C   0  0  0  0  0  3  0  0  0  0  0  0
  -21.6470   -6.9490   21.4590 O   0  0  0  0  0  0  0  0  0  0  0  0
  -21.6250   -6.2130   22.6160 C   0  0  0  0  0  0  0  0  0  0  0  0
  -21.2370   -6.7780   23.8510 C   0  0  0  0  0  3  0  0  0  0  0  0
  -21.1630   -5.9690   25.0030 C   0  0  0  0  0  3  0  0  0  0  0  0
  -21.4650   -4.5960   24.9210 C   0  0  0  0  0  0  0  0  0  0  0  0
  -21.8460   -4.0310   23.6910 C   0  0  0  0  0  3  0  0  0  0  0  0
  -21.9220   -4.8370   22.5410 C   0  0  0  0  0  0  0  0  0  0  0  0
  -22.2690   -4.2840   21.3540 F   0  0  0  0  0  0  0  0  0  0  0  0
  -21.3860   -3.8170   26.0250 F   0  0  0  0  0  0  0  0  0  0  0  0
  -22.8180  -13.5750   21.2310 C   0  0  0  0  0  0  0  0  0  0  0  0
  -22.1660  -12.8770   22.1530 N   0  0  0  0  0  0  0  0  0  0  0  0
  -22.3470  -14.6130   20.7680 O   0  0  0  0  0  0  0  0  0  0  0  0
  -22.5630  -12.0370   22.5490 H   0  0  0  0  0  0  0  0  0  0  0  0
  -21.2590  -13.1860   22.4700 H   0  0  0  0  0  0  0  0  0  0  0  0
  -25.3750  -15.2250   20.2130 N   0  0  0  0  0  0  0  0  0  0  0  0
  -24.6370  -15.8800   20.4400 H   0  0  0  0  0  0  0  0  0  0  0  0
  -26.2100  -15.6760   19.8630 H   0  0  0  0  0  0  0  0  0  0  0  0
  -28.3680  -21.9170   19.5950 O   0  0  0  0  0  0  0  0  0  0  0  0
  -28.9840  -23.3190   19.5650 C   0  0  0  0  0  3  0  0  0  0  0  0
  -27.9970  -24.6690   19.3440 C   0  0  0  0  0  3  0  0  0  0  0  0
  -28.2660  -26.1820   19.5880 O   0  0  0  0  0  0  0  0  0  0  0  0
  -24.5940  -31.5890   22.9920 C   0  0  0  0  0  0  0  0  0  0  0  0
  -27.1870  -27.1400   19.6090 C   0  0  0  0  0  0  0  0  0  0  0  0
  -23.3840  -30.2910   21.2820 C   0  0  0  0  0  3  0  0  0  0  0  0
  -24.8290  -28.8390   19.7330 C   0  0  0  0  0  0  0  0  0  0  0  0
  -25.9310  -30.6070   21.0930 C   0  0  0  0  0  2  0  0  0  0  0  0
  -26.0130  -29.2650   20.3490 C   0  0  0  0  0  0  0  0  0  0  0  0
  -27.1920  -28.4330   20.2700 C   0  0  0  0  0  3  0  0  0  0  0  0
  -25.9700  -26.8150   18.9670 C   0  0  0  0  0  3  0  0  0  0  0  0
  -24.8200  -27.6280   19.0270 C   0  0  0  0  0  3  0  0  0  0  0  0
  -23.5910  -29.7110   19.8580 C   0  0  0  0  0  2  0  0  0  0  0  0
  -24.6560  -30.8460   21.8450 N   0  0  0  0  0  0  0  0  0  0  0  0
  -23.5130  -31.8230   23.5540 O   0  0  0  0  0  0  0  0  0  0  0  0
  -22.7350  -29.2100   22.1840 C   0  0  0  0  0  0  0  0  0  0  0  0
  -21.4050  -29.0450   22.0820 N   0  0  0  0  0  0  0  0  0  0  0  0
  -23.4300  -28.5280   22.9400 O   0  0  0  0  0  0  0  0  0  0  0  0
  -20.8990  -29.6490   21.4490 H   0  0  0  0  0  0  0  0  0  0  0  0
  -18.0350  -27.8280   22.6190 C   0  0  0  0  0  0  0  0  0  0  0  0
  -20.6050  -28.0520   22.8040 C   0  0  0  0  0  3  0  0  0  0  0  0
  -20.6700  -26.6720   22.1080 C   0  0  0  0  0  2  0  0  0  0  0  0
  -19.5250  -26.4420   21.1160 C   0  0  0  0  0  2  0  0  0  0  0  0
  -18.1720  -26.5400   21.8250 C   0  0  0  0  0  2  0  0  0  0  0  0
  -19.1770  -28.5450   23.0650 C   0  0  0  0  0  0  0  0  0  0  0  0
  -18.9920  -29.7540   23.7710 C   0  0  0  0  0  3  0  0  0  0  0  0
  -17.6990  -30.2450   24.0340 C   0  0  0  0  0  3  0  0  0  0  0  0
  -16.5730  -29.5240   23.6020 C   0  0  0  0  0  3  0  0  0  0  0  0
  -16.7420  -28.3170   22.9010 C   0  0  0  0  0  3  0  0  0  0  0  0
  -25.8730  -32.1990   23.6390 C   0  0  0  0  0  3  0  0  0  0  0  0
  -26.3950  -31.3730   24.8790 C   0  0  1  0  0  0  0  0  0  0  0  0
  -25.3060  -31.0910   25.9420 C   0  0  0  0  0  1  0  0  0  0  0  0
  -26.9720  -30.0120   24.4280 C   0  0  0  0  0  1  0  0  0  0  0  0
  -27.5510  -32.1350   25.5680 C   0  0  0  0  0  1  0  0  0  0  0  0
  -25.5590  -33.5800   24.0400 N   0  0  0  0  0  0  0  0  0  0  0  0
  -25.8730  -34.6720   23.3300 C   0  0  0  0  0  0  0  0  0  0  0  0
  -26.5260  -34.6240   22.2850 O   0  0  0  0  0  0  0  0  0  0  0  0
  -24.9770  -33.6900   24.8570 H   0  0  0  0  0  0  0  0  0  0  0  0
  -24.1240  -36.4680   23.1070 C   0  0  0  0  0  1  0  0  0  0  0  0
  -25.3890  -36.0350   23.8660 C   0  0  0  0  0  3  0  0  0  0  0  0
  -27.5360  -36.9020   24.6850 C   0  0  0  0  0  1  0  0  0  0  0  0
  -26.4110  -37.1010   23.7750 N   0  0  0  0  0  0  0  0  0  0  0  0
  -26.0020  -38.0100   23.9700 H   0  0  0  0  0  0  0  0  0  0  0  0
  1  4  1  0
  2  1  2  0
  2  5  1  0
  3  6  1  0
  4 16  1  0
  4  6  2  0
  5  3  2  0
  6  7  1  0
  8 14  1  0
  8 16  1  0
  9 14  1  0
 10 11  1  0
 10  9  1  0
 12 11  1  0
 12 21  1  0
 12 13  1  0
 14 13  1  0
 15  8  2  0
 16 17  1  0
 18 19  2  0
 19 38  1  0
 20 19  1  0
 20 23  1  0
 21 22  1  0
 21 18  1  0
 22 20  2  0
 23 24  1  0
 24 25  2  0
 26 29  1  0
 26 25  1  0
 27 26  2  0
 28 27  1  0
 28 23  2  0
 29 30  1  0
 30 31  1  0
 31 32  2  0
 33 32  1  0
 33 37  1  0
 34 33  2  0
 35 30  2  0
 35 34  1  0
 36 35  1  0
 38 39  1  0
 39 42  1  0
 39 41  1  0
 40 38  2  0
 43 18  1  0
 43 44  1  0
 45 43  1  0
 46  5  1  0
 47 46  1  0
 48 47  2  0
 48 49  1  0
 49 51  1  0
 50 61  2  0
 51 56  1  0
 52 60  1  0
 52 62  1  0
 53 59  1  0
 53 55  1  0
 54 60  1  0
 55 54  1  0
 56 55  2  0
 57 58  1  0
 57 51  2  0
 58 53  2  0
 59 52  1  0
 60 50  1  0
 62 64  2  0
 63 62  1  0
 65 63  1  0
 66 75  2  0
 66 71  1  0
 67 63  1  0
 67 71  1  0
 68 67  1  0
 69 70  1  0
 69 68  1  0
 70 66  1  0
 71 72  2  0
 72 73  1  0
 74 73  2  0
 75 74  1  0
 76 50  1  0
 76 81  1  0
 76 77  1  0
 77 80  1  1
 77 78  1  0
 79 77  1  0
 81 84  1  0
 82 86  1  0
 82 81  1  0
 83 82  2  0
 86 85  1  0
 88 86  1  0
 88 89  1  0
 88 87  1  0
M  ISO  4   8 100  16 100  48 101  49 101
M  END
>  <TORSDO>  (7) 
F 19

>  <SCORE>  (7) 
-13.068

>  <name>  (7) 
6

>  <ligand_id>  (7) 
6

>  <original_smiles>  (7) 
[H]c1c([H])c([H])c2c(c1[H])C([H])([H])C([H])([H])C([H])([H])C2([H])N([H])C(=O)C1([H])N(C(=O)C([H])(N([H])C(=O)C([H])(N([H])C([H])([H])[H])C([H])([H])[H])C(C([H])([H])[H])(C([H])([H])[H])C([H])([H])[H])C([H])([H])c2c([H])c(OC([H])([H])C([H])([H])Oc3c([H])c([H])c(N([H])C(=O)N4C([H])([H])C([H])([H])C([H])([H])C([H])(n5nc(-c6c([H])c([H])c(Oc7c([H])c([H])c(F)c([H])c7F)c([H])c6[H])c(C(=O)N([H])[H])c5N([H])[H])C4([H])[H])c(Cl)c3[H])c([H])c([H])c2C1([H])[H]

>  <smiles>  (7) 
[H]c1c([H])c([H])c2c(c1[H])C([H])([H])C([H])([H])C([H])([H])C2([H])N([H])C(=O)C1([H])N(C(=O)C([H])(N([H])C(=O)C([H])(N([H])C([H])([H])[H])C([H])([H])[H])C(C([H])([H])[H])(C([H])([H])[H])C([H])([H])[H])C([H])([H])c2c([H])c(OC([H])([H])C([H])([H])Oc3c([H])c([H])c(N([H])C(=O)N4C([H])([H])C([H])([H])C([H])([H])C([H])(n5nc(-c6c([H])c([H])c(Oc7c([H])c([H])c(F)c([H])c7F)c([H])c6[H])c(C(=O)N([H])[H])c5N([H])[H])C4([H])[H])c(Cl)c3[H])c([H])c([H])c2C1([H])[H]

$$$$
7:0:0
     RDKit          3D

105113  0  0  1  0  0  0  0  0999 V2000
  -25.5110  -24.3150   21.9630 C   0  0  0  0  0  3  0  0  0  0  0  0
  -25.0810  -23.1140   19.4710 C   0  0  0  0  0  3  0  0  0  0  0  0
  -24.2080  -23.9080   21.6260 C   0  0  0  0  0  0  0  0  0  0  0  0
  -26.5930  -24.1740   21.0690 C   0  0  0  0  0  0  0  0  0  0  0  0
  -23.9920  -23.3490   20.3390 C   0  0  0  0  0  0  0  0  0  0  0  0
  -26.3750  -23.5540   19.8210 C   0  0  0  0  0  0  0  0  0  0  0  0
  -27.3920  -23.3640   18.9500 F   0  0  0  0  0  0  0  0  0  0  0  0
  -28.8190  -23.9390   22.0040 C   0  0  0  0  0  0  0  0  0  0  0  0
  -30.1790  -24.5110   22.3280 C   0  0  0  0  0  1  0  0  0  0  0  0
  -27.8980  -24.6870   21.4350 N   0  0  0  0  0  0  0  0  0  0  0  0
  -28.5690  -22.7850   22.2880 O   0  0  0  0  0  0  0  0  0  0  0  0
  -28.0490  -26.0550   21.0920 C   0  0  0  0  0  2  0  0  0  0  0  0
  -28.9760  -27.2420   21.5470 C   0  0  0  0  0  2  0  0  0  0  0  0
  -28.5090  -28.4870   20.9740 O   0  0  0  0  0  0  0  0  0  0  0  0
  -24.2250  -28.2780   26.6050 C   0  0  0  0  0  0  0  0  0  0  0  0
  -27.3320  -28.9390   21.5380 C   0  0  0  0  0  0  0  0  0  0  0  0
  -23.2390  -29.2750   24.5580 C   0  0  0  0  0  3  0  0  0  0  0  0
  -24.8890  -29.7710   22.6750 C   0  0  0  0  0  0  0  0  0  0  0  0
  -25.7440  -29.4180   25.0020 C   0  0  0  0  0  2  0  0  0  0  0  0
  -25.9440  -29.3740   23.5010 C   0  0  0  0  0  0  0  0  0  0  0  0
  -27.1530  -28.9520   22.9330 C   0  0  0  0  0  3  0  0  0  0  0  0
  -26.2760  -29.3740   20.7180 C   0  0  0  0  0  3  0  0  0  0  0  0
  -25.0470  -29.7850   21.2750 C   0  0  0  0  0  3  0  0  0  0  0  0
  -23.6170  -30.2070   23.3700 C   0  0  0  0  0  2  0  0  0  0  0  0
  -24.4130  -28.9360   25.4250 N   0  0  0  0  0  0  0  0  0  0  0  0
  -23.0800  -27.9970   26.9870 O   0  0  0  0  0  0  0  0  0  0  0  0
  -22.5030  -28.0330   23.9980 C   0  0  0  0  0  0  0  0  0  0  0  0
  -21.3300  -28.2650   23.3760 N   0  0  0  0  0  0  0  0  0  0  0  0
  -23.0280  -26.9160   24.0810 O   0  0  0  0  0  0  0  0  0  0  0  0
  -20.9740  -29.2060   23.3570 H   0  0  0  0  0  0  0  0  0  0  0  0
  -18.3810  -27.7690   21.3470 C   0  0  0  0  0  0  0  0  0  0  0  0
  -20.4950  -27.2320   22.7370 C   0  0  0  0  0  3  0  0  0  0  0  0
  -21.1260  -26.7600   21.4070 C   0  0  0  0  0  2  0  0  0  0  0  0
  -20.6180  -27.5170   20.1830 C   0  0  0  0  0  2  0  0  0  0  0  0
  -19.0930  -27.3910   20.0540 C   0  0  0  0  0  2  0  0  0  0  0  0
  -19.0510  -27.7160   22.5990 C   0  0  0  0  0  0  0  0  0  0  0  0
  -18.3460  -28.1130   23.7600 C   0  0  0  0  0  3  0  0  0  0  0  0
  -16.9980  -28.5430   23.6920 C   0  0  0  0  0  3  0  0  0  0  0  0
  -16.3580  -28.5980   22.4380 C   0  0  0  0  0  3  0  0  0  0  0  0
  -17.0430  -28.2000   21.2760 C   0  0  0  0  0  3  0  0  0  0  0  0
  -25.4150  -27.8660   27.5180 C   0  0  0  0  0  3  0  0  0  0  0  0
  -24.9380  -27.9040   28.9020 N   0  0  0  0  0  0  0  0  0  0  0  0
  -25.2170  -28.8880   29.7760 C   0  0  0  0  0  0  0  0  0  0  0  0
  -26.0050  -29.8030   29.5160 O   0  0  0  0  0  0  0  0  0  0  0  0
  -24.2210  -27.2290   29.1630 H   0  0  0  0  0  0  0  0  0  0  0  0
  -23.3300  -29.7370   31.2130 C   0  0  0  0  0  1  0  0  0  0  0  0
  -24.5520  -28.7950   31.1690 C   0  0  0  0  0  3  0  0  0  0  0  0
  -26.5320  -28.1190   32.4740 C   0  0  0  0  0  1  0  0  0  0  0  0
  -25.4720  -29.1140   32.2780 N   0  0  0  0  0  0  0  0  0  0  0  0
  -24.9690  -29.2280   33.1540 H   0  0  0  0  0  0  0  0  0  0  0  0
  -26.0240  -26.4580   27.1450 C   0  0  1  0  0  0  0  0  0  0  0  0
  -24.9550  -25.3430   27.0500 C   0  0  0  0  0  1  0  0  0  0  0  0
  -26.7790  -26.5020   25.7850 C   0  0  0  0  0  1  0  0  0  0  0  0
  -27.0520  -26.0200   28.2140 C   0  0  0  0  0  1  0  0  0  0  0  0
  -23.1530  -24.1120   22.5910 C   0  0  0  0  0  0  0  0  0  0  0  0
  -22.3060  -24.2850   23.3600 N   0  0  0  0  0  0  0  0  0  0  0  0
  -22.7250  -23.0470   19.9210 O   0  0  0  0  0  0  0  0  0  0  0  0
  -22.1190  -24.1100   19.1980 C   0  0  0  0  0  2  0  0  0  0  0  0
  -21.0980  -23.5820   18.1880 C   0  0  0  0  0  2  0  0  0  0  0  0
  -21.6850  -22.8370   16.9550 C   0  0  0  0  0  2  0  0  0  0  0  0
  -22.8510  -24.7950   15.7530 C   0  0  0  0  0  0  0  0  0  0  0  0
  -22.7060  -23.5090   16.1290 N   0  0  0  0  0  0  0  0  0  0  0  0
  -22.2200  -25.7320   16.2490 O   0  0  0  0  0  0  0  0  0  0  0  0
  -23.3120  -22.8520   15.6400 H   0  0  0  0  0  0  0  0  0  0  0  0
  -23.8790  -25.0370   14.6300 C   0  0  0  0  0  2  0  0  0  0  0  0
  -24.4850  -26.4610   14.5680 C   0  0  0  0  0  2  0  0  0  0  0  0
  -23.7000  -27.5190   13.7750 C   0  0  0  0  0  2  0  0  0  0  0  0
  -23.4880  -28.1000   11.4050 C   0  0  0  0  0  0  0  0  0  0  0  0
  -21.9550  -29.2430    9.8550 C   0  0  0  0  0  2  0  0  0  0  0  0
  -21.0040  -30.1450   10.6630 C   0  0  0  0  0  2  0  0  0  0  0  0
  -19.7630  -29.3400   11.1040 C   0  0  0  0  0  2  0  0  0  0  0  0
  -20.1330  -28.0080   11.8090 C   0  0  0  0  0  3  0  0  0  0  0  0
  -21.1580  -27.2240   10.9630 C   0  0  0  0  0  2  0  0  0  0  0  0
  -22.3170  -28.1090   10.7160 N   0  0  0  0  0  0  0  0  0  0  0  0
  -24.3870  -28.9390   11.2610 O   0  0  0  0  0  0  0  0  0  0  0  0
  -23.5710  -27.1640   12.3580 N   0  0  0  0  0  0  0  0  0  0  0  0
  -24.2510  -26.4640   12.1020 H   0  0  0  0  0  0  0  0  0  0  0  0
  -18.5060  -26.7030   13.2970 C   0  0  0  0  0  0  0  0  0  0  0  0
  -17.3010  -26.0710   13.0110 C   0  0  0  0  0  0  0  0  0  0  0  0
  -17.0770  -26.2740   11.6310 C   0  0  0  0  0  0  0  0  0  0  0  0
  -18.9440  -27.2110   12.0810 N   0  0  0  0  0  0  0  0  0  0  0  0
  -18.1010  -26.9060   11.0630 N   0  0  0  0  0  0  0  0  0  0  0  0
  -15.9060  -25.9430   10.8010 C   0  0  0  0  0  0  0  0  0  0  0  0
  -16.0320  -25.2130    9.6030 C   0  0  0  0  0  3  0  0  0  0  0  0
  -14.8870  -24.8970    8.8380 C   0  0  0  0  0  3  0  0  0  0  0  0
  -13.6080  -25.3100    9.2730 C   0  0  0  0  0  0  0  0  0  0  0  0
  -13.4940  -26.0580   10.4570 C   0  0  0  0  0  3  0  0  0  0  0  0
  -14.6350  -26.3770   11.2130 C   0  0  0  0  0  3  0  0  0  0  0  0
  -12.4450  -25.0700    8.5810 O   0  0  0  0  0  0  0  0  0  0  0  0
  -12.3280  -24.0040    7.7260 C   0  0  0  0  0  0  0  0  0  0  0  0
  -12.5540  -22.6790    8.1530 C   0  0  0  0  0  3  0  0  0  0  0  0
  -12.3550  -21.6090    7.2570 C   0  0  0  0  0  3  0  0  0  0  0  0
  -11.9190  -21.8630    5.9440 C   0  0  0  0  0  0  0  0  0  0  0  0
  -11.7020  -23.1840    5.5150 C   0  0  0  0  0  3  0  0  0  0  0  0
  -11.9000  -24.2530    6.4080 C   0  0  0  0  0  0  0  0  0  0  0  0
  -11.6600  -25.5220    6.0000 F   0  0  0  0  0  0  0  0  0  0  0  0
  -11.7260  -20.8350    5.0820 F   0  0  0  0  0  0  0  0  0  0  0  0
  -16.4010  -25.4330   14.0190 C   0  0  0  0  0  0  0  0  0  0  0  0
  -15.6580  -24.3910   13.5970 N   0  0  0  0  0  0  0  0  0  0  0  0
  -16.3540  -25.7950   15.1830 O   0  0  0  0  0  0  0  0  0  0  0  0
  -15.7220  -24.0730   12.6510 H   0  0  0  0  0  0  0  0  0  0  0  0
  -15.0460  -23.9210   14.2540 H   0  0  0  0  0  0  0  0  0  0  0  0
  -19.1870  -26.8650   14.4670 N   0  0  0  0  0  0  0  0  0  0  0  0
  -18.8370  -26.4480   15.3230 H   0  0  0  0  0  0  0  0  0  0  0  0
  -20.1010  -27.2990   14.5940 H   0  0  0  0  0  0  0  0  0  0  0  0
  2  6  2  0
  2  5  1  0
  3  1  1  0
  3 55  1  0
  4 10  1  0
  4  1  2  0
  5  3  2  0
  6  4  1  0
  7  6  1  0
  8 11  2  0
  8  9  1  0
 10  8  1  0
 12 10  1  0
 12 13  1  0
 14 16  1  0
 14 13  1  0
 15 26  2  0
 16 21  1  0
 17 27  1  0
 17 25  1  0
 18 24  1  0
 18 20  1  0
 19 25  1  0
 20 19  1  0
 21 20  2  0
 22 23  1  0
 22 16  2  0
 23 18  2  0
 24 17  1  0
 25 15  1  0
 27 29  2  0
 28 27  1  0
 30 28  1  0
 31 36  1  0
 32 28  1  0
 33 32  1  0
 34 33  1  0
 35 34  1  0
 35 31  1  0
 36 32  1  0
 36 37  2  0
 38 37  1  0
 39 38  2  0
 40 31  2  0
 40 39  1  0
 41 15  1  0
 41 42  1  0
 42 45  1  0
 42 43  1  0
 43 47  1  0
 44 43  2  0
 47 46  1  0
 47 49  1  0
 49 48  1  0
 49 50  1  0
 51 41  1  0
 51 54  1  1
 52 51  1  0
 53 51  1  0
 55 56  3  0
 57  5  1  0
 58 57  1  0
 59 58  1  0
 60 59  1  0
 61 62  1  0
 61 63  2  0
 62 60  1  0
 64 62  1  0
 65 61  1  0
 66 65  1  0
 67 66  1  0
 68 76  1  0
 69 70  1  0
 69 74  1  0
 70 71  1  0
 71 72  1  0
 72 73  1  0
 72 81  1  0
 74 73  1  0
 74 68  1  0
 75 68  2  0
 76 67  1  0
 77 76  1  0
 78103  1  0
 79 78  2  0
 79 98  1  0
 80 79  1  0
 81 78  1  0
 82 80  2  0
 82 81  1  0
 83 88  1  0
 83 80  1  0
 84 83  2  0
 85 86  2  0
 85 84  1  0
 86 87  1  0
 87 88  2  0
 89 86  1  0
 90 91  1  0
 90 89  1  0
 92 91  2  0
 93 92  1  0
 94 93  2  0
 94 95  1  0
 95 90  2  0
 96 95  1  0
 97 93  1  0
 98100  2  0
 99 98  1  0
 99102  1  0
101 99  1  0
103105  1  0
103104  1  0
M  ISO  4  13 101  14 101  68 100  76 100
M  END
>  <TORSDO>  (8) 
F 28

>  <SCORE>  (8) 
-4.377

>  <name>  (8) 
7

>  <ligand_id>  (8) 
7

>  <original_smiles>  (8) 
[H]c1c([H])c([H])c2c(c1[H])C([H])([H])C([H])([H])C([H])([H])C2([H])N([H])C(=O)C1([H])N(C(=O)C([H])(N([H])C(=O)C([H])(N([H])C([H])([H])[H])C([H])([H])[H])C(C([H])([H])[H])(C([H])([H])[H])C([H])([H])[H])C([H])([H])c2c([H])c(OC([H])([H])C([H])([H])N(C(=O)C([H])([H])[H])c3c([H])c(C#N)c(OC([H])([H])C([H])([H])C([H])([H])N([H])C(=O)C([H])([H])C([H])([H])C([H])([H])N([H])C(=O)N4C([H])([H])C([H])([H])C([H])([H])C([H])(n5nc(-c6c([H])c([H])c(Oc7c([H])c([H])c(F)c([H])c7F)c([H])c6[H])c(C(=O)N([H])[H])c5N([H])[H])C4([H])[H])c([H])c3F)c([H])c([H])c2C1([H])[H]

>  <smiles>  (8) 
[H]c1c([H])c([H])c2c(c1[H])C([H])([H])C([H])([H])C([H])([H])C2([H])N([H])C(=O)C1([H])N(C(=O)C([H])(N([H])C(=O)C([H])(N([H])C([H])([H])[H])C([H])([H])[H])C(C([H])([H])[H])(C([H])([H])[H])C([H])([H])[H])C([H])([H])c2c([H])c(OC([H])([H])C([H])([H])N(C(=O)C([H])([H])[H])c3c([H])c(C#N)c(OC([H])([H])C([H])([H])C([H])([H])N([H])C(=O)C([H])([H])C([H])([H])C([H])([H])N([H])C(=O)N4C([H])([H])C([H])([H])C([H])([H])C([H])(n5nc(-c6c([H])c([H])c(Oc7c([H])c([H])c(F)c([H])c7F)c([H])c6[H])c(C(=O)N([H])[H])c5N([H])[H])C4([H])[H])c([H])c3F)c([H])c([H])c2C1([H])[H]

$$$$
8:0:0
     RDKit          3D

 92100  0  0  1  0  0  0  0  0999 V2000
  -31.2530  -17.8900   19.7390 C   0  0  0  0  0  3  0  0  0  0  0  0
  -30.9700  -19.1520   19.1550 C   0  0  0  0  0  3  0  0  0  0  0  0
  -28.8850  -17.5320   20.0350 C   0  0  0  0  0  3  0  0  0  0  0  0
  -30.2040  -17.0550   20.1890 C   0  0  0  0  0  0  0  0  0  0  0  0
  -29.6390  -19.6350   19.0000 C   0  0  0  0  0  0  0  0  0  0  0  0
  -28.5820  -18.7880   19.4600 C   0  0  0  0  0  0  0  0  0  0  0  0
  -31.1770  -14.7150   20.5140 C   0  0  0  0  0  0  0  0  0  0  0  0
  -31.1260  -12.2810   20.0580 C   0  0  0  0  0  2  0  0  0  0  0  0
  -30.3040  -12.0490   18.7700 C   0  0  0  0  0  2  0  0  0  0  0  0
  -28.7960  -11.9600   19.0790 C   0  0  0  0  0  2  0  0  0  0  0  0
  -28.3030  -13.1120   19.9930 C   0  0  0  0  0  3  0  0  0  0  0  0
  -29.2370  -13.2650   21.2150 C   0  0  0  0  0  2  0  0  0  0  0  0
  -30.6060  -13.4920   20.7140 N   0  0  0  0  0  0  0  0  0  0  0  0
  -32.3230  -14.8530   20.0710 O   0  0  0  0  0  0  0  0  0  0  0  0
  -30.3510  -15.7520   20.7800 N   0  0  0  0  0  0  0  0  0  0  0  0
  -29.5380  -15.4430   21.2920 H   0  0  0  0  0  0  0  0  0  0  0  0
  -25.9330  -13.8780   20.6460 C   0  0  0  0  0  0  0  0  0  0  0  0
  -24.7880  -13.1770   20.9150 C   0  0  0  0  0  0  0  0  0  0  0  0
  -25.1350  -11.7960   20.8010 C   0  0  0  0  0  0  0  0  0  0  0  0
  -26.9100  -12.9260   20.3930 N   0  0  0  0  0  0  0  0  0  0  0  0
  -26.4290  -11.6660   20.5420 N   0  0  0  0  0  0  0  0  0  0  0  0
  -24.2970  -10.5910   20.8690 C   0  0  0  0  0  0  0  0  0  0  0  0
  -24.6880   -9.4620   21.6220 C   0  0  0  0  0  3  0  0  0  0  0  0
  -23.8580   -8.3220   21.6860 C   0  0  0  0  0  3  0  0  0  0  0  0
  -22.6220   -8.3040   20.9950 C   0  0  0  0  0  0  0  0  0  0  0  0
  -22.2480   -9.4230   20.2300 C   0  0  0  0  0  3  0  0  0  0  0  0
  -23.0780  -10.5540   20.1630 C   0  0  0  0  0  3  0  0  0  0  0  0
  -21.7650   -7.2320   20.9790 O   0  0  0  0  0  0  0  0  0  0  0  0
  -21.8440   -6.2310   21.9150 C   0  0  0  0  0  0  0  0  0  0  0  0
  -21.7550   -6.4980   23.2980 C   0  0  0  0  0  3  0  0  0  0  0  0
  -21.7710   -5.4330   24.2220 C   0  0  0  0  0  3  0  0  0  0  0  0
  -21.8660   -4.1050   23.7650 C   0  0  0  0  0  0  0  0  0  0  0  0
  -21.9500   -3.8380   22.3870 C   0  0  0  0  0  3  0  0  0  0  0  0
  -21.9360   -4.8990   21.4650 C   0  0  0  0  0  0  0  0  0  0  0  0
  -21.9950   -4.6350   20.1370 F   0  0  0  0  0  0  0  0  0  0  0  0
  -21.8730   -3.0810   24.6510 F   0  0  0  0  0  0  0  0  0  0  0  0
  -23.4240  -13.7540   21.1680 C   0  0  0  0  0  0  0  0  0  0  0  0
  -22.6150  -13.0820   21.9800 N   0  0  0  0  0  0  0  0  0  0  0  0
  -23.0840  -14.8320   20.6840 O   0  0  0  0  0  0  0  0  0  0  0  0
  -22.9000  -12.2070   22.3950 H   0  0  0  0  0  0  0  0  0  0  0  0
  -21.6980  -13.4490   22.1910 H   0  0  0  0  0  0  0  0  0  0  0  0
  -26.2220  -15.2380   20.5810 N   0  0  0  0  0  0  0  0  0  0  0  0
  -25.5100  -15.9490   20.7110 H   0  0  0  0  0  0  0  0  0  0  0  0
  -27.1200  -15.6210   20.3160 H   0  0  0  0  0  0  0  0  0  0  0  0
  -26.7400  -20.2810   18.8760 C   0  0  0  0  0  1  0  0  0  0  0  0
  -27.2260  -19.0570   19.4070 O   0  0  0  0  0  0  0  0  0  0  0  0
  -29.3350  -20.8670   18.4180 O   0  0  0  0  0  0  0  0  0  0  0  0
  -30.3700  -21.7620   17.9940 C   0  0  0  0  0  2  0  0  0  0  0  0
  -30.1420  -23.2470   18.4300 C   0  0  0  0  0  2  0  0  0  0  0  0
  -28.9480  -24.0140   17.7860 C   0  0  0  0  0  2  0  0  0  0  0  0
  -29.1200  -25.5610   17.6300 C   0  0  0  0  0  2  0  0  0  0  0  0
  -29.0110  -26.3690   18.8200 O   0  0  0  0  0  0  0  0  0  0  0  0
  -25.5270  -30.5510   23.4400 C   0  0  0  0  0  0  0  0  0  0  0  0
  -27.8910  -27.1610   19.0350 C   0  0  0  0  0  0  0  0  0  0  0  0
  -24.2630  -29.9000   21.4160 C   0  0  0  0  0  3  0  0  0  0  0  0
  -25.6290  -28.8010   19.5590 C   0  0  0  0  0  0  0  0  0  0  0  0
  -26.8170  -30.0610   21.3620 C   0  0  0  0  0  2  0  0  0  0  0  0
  -26.8050  -28.9800   20.2950 C   0  0  0  0  0  0  0  0  0  0  0  0
  -27.9340  -28.1630   20.0380 C   0  0  0  0  0  3  0  0  0  0  0  0
  -26.6870  -26.9950   18.3110 C   0  0  0  0  0  3  0  0  0  0  0  0
  -25.5650  -27.8070   18.5670 C   0  0  0  0  0  3  0  0  0  0  0  0
  -24.4620  -29.7060   19.8890 C   0  0  0  0  0  2  0  0  0  0  0  0
  -25.5530  -30.1650   22.1330 N   0  0  0  0  0  0  0  0  0  0  0  0
  -24.4540  -30.7260   24.0360 O   0  0  0  0  0  0  0  0  0  0  0  0
  -23.4920  -28.6820   21.9730 C   0  0  0  0  0  0  0  0  0  0  0  0
  -22.1610  -28.6790   21.7880 N   0  0  0  0  0  0  0  0  0  0  0  0
  -24.0900  -27.7580   22.5320 O   0  0  0  0  0  0  0  0  0  0  0  0
  -21.7460  -29.4770   21.3290 H   0  0  0  0  0  0  0  0  0  0  0  0
  -18.6850  -27.6930   21.8080 C   0  0  0  0  0  0  0  0  0  0  0  0
  -21.2400  -27.6170   22.1920 C   0  0  0  0  0  3  0  0  0  0  0  0
  -21.2560  -26.4510   21.1770 C   0  0  0  0  0  2  0  0  0  0  0  0
  -20.1780  -26.5780   20.0950 C   0  0  0  0  0  2  0  0  0  0  0  0
  -18.7850  -26.6280   20.7280 C   0  0  0  0  0  2  0  0  0  0  0  0
  -19.8400  -28.1680   22.4850 C   0  0  0  0  0  0  0  0  0  0  0  0
  -19.6960  -29.1820   23.4550 C   0  0  0  0  0  3  0  0  0  0  0  0
  -18.4290  -29.7170   23.7550 C   0  0  0  0  0  3  0  0  0  0  0  0
  -17.2880  -29.2310   23.0940 C   0  0  0  0  0  3  0  0  0  0  0  0
  -17.4160  -28.2190   22.1270 C   0  0  0  0  0  3  0  0  0  0  0  0
  -26.8390  -30.8160   24.2420 C   0  0  0  0  0  3  0  0  0  0  0  0
  -26.6490  -32.0550   25.0080 N   0  0  0  0  0  0  0  0  0  0  0  0
  -27.1660  -33.2440   24.6700 C   0  0  0  0  0  0  0  0  0  0  0  0
  -27.9220  -33.3970   23.7070 O   0  0  0  0  0  0  0  0  0  0  0  0
  -25.9970  -32.0150   25.7770 H   0  0  0  0  0  0  0  0  0  0  0  0
  -25.6890  -35.2730   24.8350 C   0  0  0  0  0  1  0  0  0  0  0  0
  -26.7840  -34.4560   25.5400 C   0  0  0  0  0  3  0  0  0  0  0  0
  -28.9010  -34.7130   26.7580 C   0  0  0  0  0  1  0  0  0  0  0  0
  -27.9300  -35.3350   25.8620 N   0  0  0  0  0  0  0  0  0  0  0  0
  -27.6110  -36.1990   26.2910 H   0  0  0  0  0  0  0  0  0  0  0  0
  -27.2340  -29.6250   25.1990 C   0  0  1  0  0  0  0  0  0  0  0  0
  -26.0870  -29.1730   26.1350 C   0  0  0  0  0  1  0  0  0  0  0  0
  -27.6870  -28.3930   24.3800 C   0  0  0  0  0  1  0  0  0  0  0  0
  -28.4350  -30.0370   26.0820 C   0  0  0  0  0  1  0  0  0  0  0  0
  1  4  1  0
  2  1  2  0
  3  4  2  0
  4 15  1  0
  5  2  1  0
  5  6  2  0
  6  3  1  0
  7 13  1  0
  7 15  1  0
  8 13  1  0
  9 10  1  0
  9  8  1  0
 11 10  1  0
 11 20  1  0
 11 12  1  0
 13 12  1  0
 14  7  2  0
 15 16  1  0
 17 18  2  0
 18 37  1  0
 19 22  1  0
 19 18  1  0
 20 21  1  0
 20 17  1  0
 21 19  2  0
 22 23  1  0
 23 24  2  0
 25 24  1  0
 26 25  2  0
 27 26  1  0
 27 22  2  0
 28 25  1  0
 28 29  1  0
 29 30  1  0
 30 31  2  0
 32 31  1  0
 32 36  1  0
 33 32  2  0
 34 29  2  0
 34 33  1  0
 35 34  1  0
 37 38  1  0
 38 41  1  0
 38 40  1  0
 39 37  2  0
 42 17  1  0
 42 43  1  0
 44 42  1  0
 45 46  1  0
 46  6  1  0
 47  5  1  0
 48 47  1  0
 48 49  1  0
 50 49  1  0
 51 50  1  0
 51 52  1  0
 52 54  1  0
 53 64  2  0
 54 59  1  0
 55 65  1  0
 55 63  1  0
 56 62  1  0
 56 58  1  0
 57 63  1  0
 58 57  1  0
 59 58  2  0
 60 61  1  0
 60 54  2  0
 61 56  2  0
 62 55  1  0
 63 53  1  0
 65 67  2  0
 66 65  1  0
 68 66  1  0
 69 78  2  0
 69 74  1  0
 70 66  1  0
 70 74  1  0
 71 70  1  0
 72 73  1  0
 72 71  1  0
 73 69  1  0
 74 75  2  0
 75 76  1  0
 77 76  2  0
 78 77  1  0
 79 53  1  0
 79 80  1  0
 79 89  1  0
 80 83  1  0
 81 80  1  0
 81 85  1  0
 82 81  2  0
 85 84  1  0
 85 87  1  0
 87 88  1  0
 87 86  1  0
 89 92  1  1
 89 90  1  0
 91 89  1  0
M  ISO  4   7 100  15 100  51 101  52 101
M  END
>  <TORSDO>  (9) 
F 22

>  <SCORE>  (9) 
-9.692

>  <name>  (9) 
8

>  <ligand_id>  (9) 
8

>  <original_smiles>  (9) 
[H]c1c([H])c([H])c2c(c1[H])C([H])([H])C([H])([H])C([H])([H])C2([H])N([H])C(=O)C1([H])N(C(=O)C([H])(N([H])C(=O)C([H])(N([H])C([H])([H])[H])C([H])([H])[H])C(C([H])([H])[H])(C([H])([H])[H])C([H])([H])[H])C([H])([H])c2c([H])c(OC([H])([H])C([H])([H])C([H])([H])C([H])([H])Oc3c([H])c([H])c(N([H])C(=O)N4C([H])([H])C([H])([H])C([H])([H])C([H])(n5nc(-c6c([H])c([H])c(Oc7c([H])c([H])c(F)c([H])c7F)c([H])c6[H])c(C(=O)N([H])[H])c5N([H])[H])C4([H])[H])c([H])c3OC([H])([H])[H])c([H])c([H])c2C1([H])[H]

>  <smiles>  (9) 
[H]c1c([H])c([H])c2c(c1[H])C([H])([H])C([H])([H])C([H])([H])C2([H])N([H])C(=O)C1([H])N(C(=O)C([H])(N([H])C(=O)C([H])(N([H])C([H])([H])[H])C([H])([H])[H])C(C([H])([H])[H])(C([H])([H])[H])C([H])([H])[H])C([H])([H])c2c([H])c(OC([H])([H])C([H])([H])C([H])([H])C([H])([H])Oc3c([H])c([H])c(N([H])C(=O)N4C([H])([H])C([H])([H])C([H])([H])C([H])(n5nc(-c6c([H])c([H])c(Oc7c([H])c([H])c(F)c([H])c7F)c([H])c6[H])c(C(=O)N([H])[H])c5N([H])[H])C4([H])[H])c([H])c3OC([H])([H])[H])c([H])c([H])c2C1([H])[H]

$$$$
9:0:0
     RDKit          3D

 99107  0  0  1  0  0  0  0  0999 V2000
  -24.3850  -21.9220   18.3250 C   0  0  0  0  0  3  0  0  0  0  0  0
  -25.1230  -20.8730   17.7400 C   0  0  0  0  0  3  0  0  0  0  0  0
  -25.0340  -22.8840   19.1230 C   0  0  0  0  0  3  0  0  0  0  0  0
  -27.1510  -21.7390   18.7740 C   0  0  0  0  0  3  0  0  0  0  0  0
  -26.5110  -20.7710   17.9680 C   0  0  0  0  0  0  0  0  0  0  0  0
  -26.4260  -22.8080   19.3450 C   0  0  0  0  0  0  0  0  0  0  0  0
  -28.2820  -23.9630   20.5770 C   0  0  0  0  0  0  0  0  0  0  0  0
  -27.0230  -23.8470   20.1090 N   0  0  0  0  0  0  0  0  0  0  0  0
  -29.1120  -23.0570   20.6270 O   0  0  0  0  0  0  0  0  0  0  0  0
  -26.4460  -24.6660   20.2380 H   0  0  0  0  0  0  0  0  0  0  0  0
  -28.6670  -25.3360   21.1070 C   0  0  0  0  0  2  0  0  0  0  0  0
  -29.5170  -26.1000   20.0770 C   0  0  0  0  0  2  0  0  0  0  0  0
  -29.3080  -27.4960   20.2380 O   0  0  0  0  0  0  0  0  0  0  0  0
  -24.8340  -31.8430   23.5990 C   0  0  0  0  0  0  0  0  0  0  0  0
  -28.0160  -27.9760   20.2870 C   0  0  0  0  0  0  0  0  0  0  0  0
  -23.8060  -30.3920   21.8830 C   0  0  0  0  0  3  0  0  0  0  0  0
  -25.4370  -29.1250   20.3910 C   0  0  0  0  0  0  0  0  0  0  0  0
  -26.2620  -31.0780   21.7130 C   0  0  0  0  0  2  0  0  0  0  0  0
  -26.5180  -29.7660   21.0060 C   0  0  0  0  0  0  0  0  0  0  0  0
  -27.8050  -29.1960   20.9570 C   0  0  0  0  0  3  0  0  0  0  0  0
  -26.9090  -27.3280   19.6850 C   0  0  0  0  0  3  0  0  0  0  0  0
  -25.6240  -27.8970   19.7390 C   0  0  0  0  0  3  0  0  0  0  0  0
  -24.0970  -29.8180   20.4720 C   0  0  0  0  0  2  0  0  0  0  0  0
  -24.9850  -31.1140   22.4590 N   0  0  0  0  0  0  0  0  0  0  0  0
  -23.7290  -31.9480   24.1500 O   0  0  0  0  0  0  0  0  0  0  0  0
  -23.2940  -29.2470   22.7830 C   0  0  0  0  0  0  0  0  0  0  0  0
  -22.1670  -28.6350   22.3840 N   0  0  0  0  0  0  0  0  0  0  0  0
  -23.9170  -28.9060   23.7920 O   0  0  0  0  0  0  0  0  0  0  0  0
  -21.7130  -28.9700   21.5470 H   0  0  0  0  0  0  0  0  0  0  0  0
  -19.4340  -26.2960   22.1320 C   0  0  0  0  0  0  0  0  0  0  0  0
  -21.5160  -27.5120   23.0540 C   0  0  0  0  0  3  0  0  0  0  0  0
  -22.2810  -26.1920   22.7920 C   0  0  0  0  0  2  0  0  0  0  0  0
  -21.7440  -25.4160   21.5860 C   0  0  0  0  0  2  0  0  0  0  0  0
  -20.2660  -25.0720   21.7830 C   0  0  0  0  0  2  0  0  0  0  0  0
  -20.0230  -27.4480   22.7150 C   0  0  0  0  0  0  0  0  0  0  0  0
  -19.2100  -28.5710   22.9810 C   0  0  0  0  0  3  0  0  0  0  0  0
  -17.8350  -28.5530   22.6820 C   0  0  0  0  0  3  0  0  0  0  0  0
  -17.2520  -27.4020   22.1240 C   0  0  0  0  0  3  0  0  0  0  0  0
  -18.0510  -26.2770   21.8520 C   0  0  0  0  0  3  0  0  0  0  0  0
  -26.0340  -32.5990   24.2520 C   0  0  0  0  0  3  0  0  0  0  0  0
  -25.6240  -33.9960   24.4470 N   0  0  0  0  0  0  0  0  0  0  0  0
  -25.9520  -35.0050   23.6290 C   0  0  0  0  0  0  0  0  0  0  0  0
  -26.7090  -34.8640   22.6640 O   0  0  0  0  0  0  0  0  0  0  0  0
  -24.9640  -34.1710   25.1910 H   0  0  0  0  0  0  0  0  0  0  0  0
  -24.1580  -36.6480   23.0020 C   0  0  0  0  0  1  0  0  0  0  0  0
  -25.3500  -36.3890   23.9350 C   0  0  0  0  0  3  0  0  0  0  0  0
  -27.3600  -37.4700   24.8460 C   0  0  0  0  0  1  0  0  0  0  0  0
  -26.3270  -37.4950   23.8140 N   0  0  0  0  0  0  0  0  0  0  0  0
  -25.8560  -38.3960   23.8580 H   0  0  0  0  0  0  0  0  0  0  0  0
  -26.4970  -31.9590   25.6180 C   0  0  1  0  0  0  0  0  0  0  0  0
  -25.3260  -31.5950   26.5620 C   0  0  0  0  0  1  0  0  0  0  0  0
  -27.3170  -30.6720   25.3650 C   0  0  0  0  0  1  0  0  0  0  0  0
  -27.4360  -32.9350   26.3640 C   0  0  0  0  0  1  0  0  0  0  0  0
  -27.3300  -19.7010   17.3060 C   0  0  0  0  0  0  0  0  0  0  0  0
  -28.0640  -18.9680   18.1500 N   0  0  0  0  0  0  0  0  0  0  0  0
  -27.3220  -19.5400   16.0840 O   0  0  0  0  0  0  0  0  0  0  0  0
  -27.9140  -19.1570   19.1310 H   0  0  0  0  0  0  0  0  0  0  0  0
  -29.1970  -18.1220   17.8040 C   0  0  0  0  0  2  0  0  0  0  0  0
  -29.4620  -17.0880   18.9050 C   0  0  0  0  0  2  0  0  0  0  0  0
  -29.5230  -17.6820   20.3310 C   0  0  0  0  0  2  0  0  0  0  0  0
  -30.3720  -16.8810   21.3360 C   0  0  0  0  0  2  0  0  0  0  0  0
  -30.7200  -14.4400   21.0550 C   0  0  0  0  0  0  0  0  0  0  0  0
  -30.4150  -12.4630   19.6470 C   0  0  0  0  0  2  0  0  0  0  0  0
  -29.5380  -12.8970   18.4550 C   0  0  0  0  0  2  0  0  0  0  0  0
  -28.0420  -12.7480   18.7970 C   0  0  0  0  0  2  0  0  0  0  0  0
  -27.6660  -13.3740   20.1700 C   0  0  0  0  0  3  0  0  0  0  0  0
  -28.6800  -12.9740   21.2690 C   0  0  0  0  0  2  0  0  0  0  0  0
  -30.0320  -13.3030   20.7870 N   0  0  0  0  0  0  0  0  0  0  0  0
  -31.9030  -14.6100   20.7450 O   0  0  0  0  0  0  0  0  0  0  0  0
  -29.9600  -15.4750   21.4320 N   0  0  0  0  0  0  0  0  0  0  0  0
  -28.9900  -15.2800   21.6250 H   0  0  0  0  0  0  0  0  0  0  0  0
  -25.2170  -13.9400   20.7420 C   0  0  0  0  0  0  0  0  0  0  0  0
  -24.1370  -13.1440   21.0050 C   0  0  0  0  0  0  0  0  0  0  0  0
  -24.6140  -11.7990   20.9460 C   0  0  0  0  0  0  0  0  0  0  0  0
  -26.2880  -13.0770   20.5480 N   0  0  0  0  0  0  0  0  0  0  0  0
  -25.9230  -11.7830   20.7260 N   0  0  0  0  0  0  0  0  0  0  0  0
  -23.8960  -10.5250   21.0300 C   0  0  0  0  0  0  0  0  0  0  0  0
  -24.2210   -9.5610   22.0090 C   0  0  0  0  0  3  0  0  0  0  0  0
  -23.5040   -8.3480   22.0850 C   0  0  0  0  0  3  0  0  0  0  0  0
  -22.4490   -8.0910   21.1780 C   0  0  0  0  0  0  0  0  0  0  0  0
  -22.1440   -9.0450   20.1910 C   0  0  0  0  0  3  0  0  0  0  0  0
  -22.8630  -10.2490   20.1130 C   0  0  0  0  0  3  0  0  0  0  0  0
  -21.7130   -6.9320   21.1590 O   0  0  0  0  0  0  0  0  0  0  0  0
  -21.3870   -6.2650   22.3120 C   0  0  0  0  0  0  0  0  0  0  0  0
  -20.6440   -6.8800   23.3420 C   0  0  0  0  0  3  0  0  0  0  0  0
  -20.2710   -6.1390   24.4810 C   0  0  0  0  0  3  0  0  0  0  0  0
  -20.6300   -4.7820   24.5880 C   0  0  0  0  0  0  0  0  0  0  0  0
  -21.3630   -4.1670   23.5580 C   0  0  0  0  0  3  0  0  0  0  0  0
  -21.7400   -4.9050   22.4230 C   0  0  0  0  0  0  0  0  0  0  0  0
  -22.4290   -4.3010   21.4250 F   0  0  0  0  0  0  0  0  0  0  0  0
  -20.2650   -4.0660   25.6760 F   0  0  0  0  0  0  0  0  0  0  0  0
  -22.7180  -13.5930   21.2030 C   0  0  0  0  0  0  0  0  0  0  0  0
  -21.9530  -12.8740   22.0130 N   0  0  0  0  0  0  0  0  0  0  0  0
  -22.2940  -14.6240   20.6770 O   0  0  0  0  0  0  0  0  0  0  0  0
  -22.3040  -12.0390   22.4580 H   0  0  0  0  0  0  0  0  0  0  0  0
  -20.9990  -13.1570   22.1890 H   0  0  0  0  0  0  0  0  0  0  0  0
  -25.3620  -15.3200   20.6350 N   0  0  0  0  0  0  0  0  0  0  0  0
  -24.5600  -15.9330   20.7300 H   0  0  0  0  0  0  0  0  0  0  0  0
  -26.1970  -15.8080   20.3390 H   0  0  0  0  0  0  0  0  0  0  0  0
  1  3  1  0
  2  5  1  0
  2  1  2  0
  3  6  2  0
  4  6  1  0
  5  4  2  0
  6  8  1  0
  7  9  2  0
  7 11  1  0
  8 10  1  0
  8  7  1  0
 12 13  1  0
 12 11  1  0
 13 15  1  0
 14 25  2  0
 15 20  1  0
 16 24  1  0
 16 26  1  0
 17 23  1  0
 17 19  1  0
 18 24  1  0
 19 18  1  0
 20 19  2  0
 21 22  1  0
 21 15  2  0
 22 17  2  0
 23 16  1  0
 24 14  1  0
 26 28  2  0
 27 26  1  0
 29 27  1  0
 30 35  1  0
 31 27  1  0
 32 31  1  0
 33 34  1  0
 33 32  1  0
 34 30  1  0
 35 36  2  0
 35 31  1  0
 37 36  1  0
 38 37  2  0
 39 38  1  0
 39 30  2  0
 40 14  1  0
 40 41  1  0
 40 50  1  0
 41 44  1  0
 42 46  1  0
 42 41  1  0
 43 42  2  0
 46 45  1  0
 48 49  1  0
 48 46  1  0
 48 47  1  0
 50 53  1  1
 50 51  1  0
 52 50  1  0
 54  5  1  0
 54 55  1  0
 55 57  1  0
 56 54  2  0
 58 55  1  0
 58 59  1  0
 59 60  1  0
 60 61  1  0
 61 70  1  0
 62 70  1  0
 63 68  1  0
 64 65  1  0
 64 63  1  0
 66 65  1  0
 66 75  1  0
 66 67  1  0
 68 62  1  0
 68 67  1  0
 69 62  2  0
 70 71  1  0
 72 73  2  0
 73 92  1  0
 74 73  1  0
 74 77  1  0
 75 76  1  0
 75 72  1  0
 76 74  2  0
 77 78  1  0
 78 79  2  0
 80 79  1  0
 81 80  2  0
 82 81  1  0
 82 77  2  0
 83 80  1  0
 83 84  1  0
 84 89  2  0
 84 85  1  0
 85 86  2  0
 86 87  1  0
 87 91  1  0
 88 87  2  0
 89 88  1  0
 90 89  1  0
 92 93  1  0
 93 96  1  0
 93 95  1  0
 94 92  2  0
 97 98  1  0
 97 72  1  0
 99 97  1  0
M  ISO  4  12 101  13 101  62 100  70 100
M  END
>  <TORSDO>  (10) 
F 24

>  <SCORE>  (10) 
-11.308

>  <name>  (10) 
9

>  <ligand_id>  (10) 
9

>  <original_smiles>  (10) 
[H]c1c([H])c(C(=O)N([H])C([H])([H])C([H])([H])C([H])([H])C([H])([H])N([H])C(=O)N2C([H])([H])C([H])([H])C([H])([H])C([H])(n3nc(-c4c([H])c([H])c(Oc5c([H])c([H])c(F)c([H])c5F)c([H])c4[H])c(C(=O)N([H])[H])c3N([H])[H])C2([H])[H])c([H])c(N([H])C(=O)C([H])([H])C([H])([H])Oc2c([H])c([H])c3c(c2[H])C([H])([H])N(C(=O)C([H])(N([H])C(=O)C([H])(N([H])C([H])([H])[H])C([H])([H])[H])C(C([H])([H])[H])(C([H])([H])[H])C([H])([H])[H])C([H])(C(=O)N([H])C2([H])c4c([H])c([H])c([H])c([H])c4C([H])([H])C([H])([H])C2([H])[H])C3([H])[H])c1[H]

>  <smiles>  (10) 
[H]c1c([H])c(C(=O)N([H])C([H])([H])C([H])([H])C([H])([H])C([H])([H])N([H])C(=O)N2C([H])([H])C([H])([H])C([H])([H])C([H])(n3nc(-c4c([H])c([H])c(Oc5c([H])c([H])c(F)c([H])c5F)c([H])c4[H])c(C(=O)N([H])[H])c3N([H])[H])C2([H])[H])c([H])c(N([H])C(=O)C([H])([H])C([H])([H])Oc2c([H])c([H])c3c(c2[H])C([H])([H])N(C(=O)C([H])(N([H])C(=O)C([H])(N([H])C([H])([H])[H])C([H])([H])[H])C(C([H])([H])[H])(C([H])([H])[H])C([H])([H])[H])C([H])(C(=O)N([H])C2([H])c4c([H])c([H])c([H])c([H])c4C([H])([H])C([H])([H])C2([H])[H])C3([H])[H])c1[H]

$$$$
10:0:0
     RDKit          3D

102109  0  0  1  0  0  0  0  0999 V2000
  -32.2000  -26.8600   17.5770 C   0  0  0  0  0  0  0  0  0  0  0  0
  -31.6360  -27.6600   18.5290 N   0  0  0  0  0  0  0  0  0  0  0  0
  -31.9370  -26.9810   16.3760 O   0  0  0  0  0  0  0  0  0  0  0  0
  -33.6790  -28.6300   19.6500 C   0  0  0  0  0  1  0  0  0  0  0  0
  -32.2750  -28.0110   19.8290 C   0  0  0  0  0  3  0  0  0  0  0  0
  -32.4510  -27.3410   22.3080 C   0  0  0  0  0  1  0  0  0  0  0  0
  -32.2270  -26.8650   20.8670 C   0  0  0  0  0  2  0  0  0  0  0  0
  -30.5400  -29.5950   17.3680 C   0  0  0  0  0  1  0  0  0  0  0  0
  -30.3490  -28.3670   18.2810 C   0  0  0  0  0  3  0  0  0  0  0  0
  -29.2060  -27.4360   17.7930 C   0  0  0  0  0  2  0  0  0  0  0  0
  -28.8560  -26.2910   18.7710 C   0  0  0  0  0  2  0  0  0  0  0  0
  -28.4360  -26.7930   20.0410 O   0  0  0  0  0  0  0  0  0  0  0  0
  -24.6090  -31.8690   23.2130 C   0  0  0  0  0  0  0  0  0  0  0  0
  -27.2440  -27.4770   20.0730 C   0  0  0  0  0  0  0  0  0  0  0  0
  -23.3960  -30.4930   21.5510 C   0  0  0  0  0  3  0  0  0  0  0  0
  -24.8450  -28.9590   20.1190 C   0  0  0  0  0  0  0  0  0  0  0  0
  -25.9220  -30.8430   21.3630 C   0  0  0  0  0  2  0  0  0  0  0  0
  -26.0000  -29.4780   20.7160 C   0  0  0  0  0  0  0  0  0  0  0  0
  -27.2000  -28.7360   20.7050 C   0  0  0  0  0  3  0  0  0  0  0  0
  -26.0680  -26.9530   19.4910 C   0  0  0  0  0  3  0  0  0  0  0  0
  -24.8700  -27.6910   19.5130 C   0  0  0  0  0  3  0  0  0  0  0  0
  -23.6050  -29.8220   20.1660 C   0  0  0  0  0  2  0  0  0  0  0  0
  -24.6600  -31.0830   22.1010 N   0  0  0  0  0  0  0  0  0  0  0  0
  -23.5290  -32.1420   23.7540 O   0  0  0  0  0  0  0  0  0  0  0  0
  -22.7380  -29.4660   22.4990 C   0  0  0  0  0  0  0  0  0  0  0  0
  -21.4110  -29.3020   22.3730 N   0  0  0  0  0  0  0  0  0  0  0  0
  -23.4160  -28.8190   23.3010 O   0  0  0  0  0  0  0  0  0  0  0  0
  -20.9240  -29.8780   21.7000 H   0  0  0  0  0  0  0  0  0  0  0  0
  -18.0260  -28.1360   22.8490 C   0  0  0  0  0  0  0  0  0  0  0  0
  -20.5840  -28.3640   23.1320 C   0  0  0  0  0  3  0  0  0  0  0  0
  -20.6740  -26.9380   22.5410 C   0  0  0  0  0  2  0  0  0  0  0  0
  -19.5730  -26.6370   21.5200 C   0  0  0  0  0  2  0  0  0  0  0  0
  -18.1910  -26.7910   22.1600 C   0  0  0  0  0  2  0  0  0  0  0  0
  -19.1510  -28.8810   23.2910 C   0  0  0  0  0  0  0  0  0  0  0  0
  -18.9440  -30.1420   23.8930 C   0  0  0  0  0  3  0  0  0  0  0  0
  -17.6440  -30.6570   24.0550 C   0  0  0  0  0  3  0  0  0  0  0  0
  -16.5330  -29.9070   23.6320 C   0  0  0  0  0  3  0  0  0  0  0  0
  -16.7250  -28.6480   23.0350 C   0  0  0  0  0  3  0  0  0  0  0  0
  -25.9010  -32.4830   23.8420 C   0  0  0  0  0  3  0  0  0  0  0  0
  -25.5880  -33.8630   24.2330 N   0  0  0  0  0  0  0  0  0  0  0  0
  -25.9020  -34.9480   23.5130 C   0  0  0  0  0  0  0  0  0  0  0  0
  -26.5580  -34.8920   22.4680 O   0  0  0  0  0  0  0  0  0  0  0  0
  -25.0070  -33.9820   25.0500 H   0  0  0  0  0  0  0  0  0  0  0  0
  -24.1480  -36.7330   23.2640 C   0  0  0  0  0  1  0  0  0  0  0  0
  -25.4100  -36.3120   24.0340 C   0  0  0  0  0  3  0  0  0  0  0  0
  -27.5580  -37.1810   24.8460 C   0  0  0  0  0  1  0  0  0  0  0  0
  -26.4290  -37.3800   23.9420 N   0  0  0  0  0  0  0  0  0  0  0  0
  -26.0170  -38.2880   24.1430 H   0  0  0  0  0  0  0  0  0  0  0  0
  -26.4470  -31.6600   25.0730 C   0  0  1  0  0  0  0  0  0  0  0  0
  -25.3780  -31.3700   26.1520 C   0  0  0  0  0  1  0  0  0  0  0  0
  -27.0280  -30.3040   24.6090 C   0  0  0  0  0  1  0  0  0  0  0  0
  -27.6040  -32.4340   25.7490 C   0  0  0  0  0  1  0  0  0  0  0  0
  -33.0740  -25.6720   18.0080 C   0  0  0  0  0  2  0  0  0  0  0  0
  -33.4550  -24.7020   16.8650 C   0  0  0  0  0  2  0  0  0  0  0  0
  -33.9740  -23.3460   17.3750 C   0  0  0  0  0  2  0  0  0  0  0  0
  -32.8400  -22.4290   17.8630 C   0  0  0  0  0  2  0  0  0  0  0  0
  -33.3380  -21.1740   18.5900 C   0  0  0  0  0  2  0  0  0  0  0  0
  -32.1670  -20.3280   19.1090 C   0  0  0  0  0  2  0  0  0  0  0  0
  -32.6110  -19.1540   19.9890 C   0  0  0  0  0  2  0  0  0  0  0  0
  -30.2730  -19.1250   21.2960 O   0  0  0  0  0  0  0  0  0  0  0  0
  -30.6040  -17.4880   19.4010 O   0  0  0  0  0  0  0  0  0  0  0  0
  -31.1580  -18.2020   20.5630 S   0  0  1  0  0  0  0  0  0  0  0  0
  -31.8880  -17.0010   21.7450 C   0  0  0  0  0  2  0  0  0  0  0  0
  -30.8290  -16.0720   22.3460 C   0  0  0  0  0  0  0  0  0  0  0  0
  -30.2860  -16.5870   23.6660 C   0  0  0  0  0  1  0  0  0  0  0  0
  -30.3660  -14.9550   21.9150 N   0  0  0  0  0  0  0  0  0  0  0  0
  -30.7940  -14.3240   20.7510 C   0  0  0  0  0  0  0  0  0  0  0  0
  -30.4180  -12.3010   19.3720 C   0  0  0  0  0  2  0  0  0  0  0  0
  -29.4750  -12.5440   18.1810 C   0  0  0  0  0  2  0  0  0  0  0  0
  -28.0040  -12.3860   18.6080 C   0  0  0  0  0  2  0  0  0  0  0  0
  -27.6700  -13.1960   19.8870 C   0  0  0  0  0  3  0  0  0  0  0  0
  -28.7100  -12.9120   20.9930 C   0  0  0  0  0  2  0  0  0  0  0  0
  -30.0490  -13.2260   20.4520 N   0  0  0  0  0  0  0  0  0  0  0  0
  -31.7620  -14.6400   20.0560 O   0  0  0  0  0  0  0  0  0  0  0  0
  -25.2630  -13.8150   20.5700 C   0  0  0  0  0  0  0  0  0  0  0  0
  -24.1850  -13.0440   20.9170 C   0  0  0  0  0  0  0  0  0  0  0  0
  -24.6390  -11.6900   20.8730 C   0  0  0  0  0  0  0  0  0  0  0  0
  -26.3070  -12.9290   20.3430 N   0  0  0  0  0  0  0  0  0  0  0  0
  -25.9310  -11.6460   20.5780 N   0  0  0  0  0  0  0  0  0  0  0  0
  -23.9050  -10.4290   21.0410 C   0  0  0  0  0  0  0  0  0  0  0  0
  -24.3600   -9.4210   21.9190 C   0  0  0  0  0  3  0  0  0  0  0  0
  -23.6280   -8.2240   22.0760 C   0  0  0  0  0  3  0  0  0  0  0  0
  -22.4270   -8.0280   21.3550 C   0  0  0  0  0  0  0  0  0  0  0  0
  -21.9900   -9.0260   20.4650 C   0  0  0  0  0  3  0  0  0  0  0  0
  -22.7230  -10.2140   20.3060 C   0  0  0  0  0  3  0  0  0  0  0  0
  -21.6630   -6.8880   21.4250 O   0  0  0  0  0  0  0  0  0  0  0  0
  -21.6850   -6.0740   22.5280 C   0  0  0  0  0  0  0  0  0  0  0  0
  -21.4010   -6.5640   23.8220 C   0  0  0  0  0  3  0  0  0  0  0  0
  -21.3660   -5.6790   24.9180 C   0  0  0  0  0  3  0  0  0  0  0  0
  -21.6040   -4.3060   24.7220 C   0  0  0  0  0  0  0  0  0  0  0  0
  -21.8820   -3.8150   23.4340 C   0  0  0  0  0  3  0  0  0  0  0  0
  -21.9190   -4.6970   22.3400 C   0  0  0  0  0  0  0  0  0  0  0  0
  -22.1660   -4.2160   21.0980 F   0  0  0  0  0  0  0  0  0  0  0  0
  -21.5630   -3.4540   25.7730 F   0  0  0  0  0  0  0  0  0  0  0  0
  -22.7880  -13.5260   21.1830 C   0  0  0  0  0  0  0  0  0  0  0  0
  -22.0510  -12.8250   22.0390 N   0  0  0  0  0  0  0  0  0  0  0  0
  -22.3580  -14.5570   20.6700 O   0  0  0  0  0  0  0  0  0  0  0  0
  -22.4100  -11.9890   22.4760 H   0  0  0  0  0  0  0  0  0  0  0  0
  -21.1140  -13.1310   22.2600 H   0  0  0  0  0  0  0  0  0  0  0  0
  -25.4370  -15.1860   20.4100 N   0  0  0  0  0  0  0  0  0  0  0  0
  -24.6790  -15.8500   20.5270 H   0  0  0  0  0  0  0  0  0  0  0  0
  -26.3070  -15.6210   20.1280 H   0  0  0  0  0  0  0  0  0  0  0  0
  1 53  1  0
  1  2  1  0
  2  5  1  0
  3  1  2  0
  5  4  1  0
  5  7  1  0
  7  6  1  0
  9  8  1  0
  9  2  1  0
 10  9  1  0
 10 11  1  0
 11 12  1  0
 12 14  1  0
 13 24  2  0
 14 19  1  0
 15 23  1  0
 15 25  1  0
 16 22  1  0
 16 18  1  0
 17 23  1  0
 18 17  1  0
 19 18  2  0
 20 21  1  0
 20 14  2  0
 21 16  2  0
 22 15  1  0
 23 13  1  0
 25 27  2  0
 26 25  1  0
 28 26  1  0
 29 38  2  0
 29 34  1  0
 30 26  1  0
 30 34  1  0
 31 30  1  0
 32 33  1  0
 32 31  1  0
 33 29  1  0
 34 35  2  0
 35 36  1  0
 37 36  2  0
 38 37  1  0
 39 13  1  0
 39 40  1  0
 39 49  1  0
 40 43  1  0
 41 45  1  0
 41 40  1  0
 42 41  2  0
 45 44  1  0
 47 45  1  0
 47 48  1  0
 47 46  1  0
 49 52  1  1
 49 50  1  0
 51 49  1  0
 54 55  1  0
 54 53  1  0
 55 56  1  0
 56 57  1  0
 57 58  1  0
 58 59  1  0
 62 59  1  6
 61 62  2  0
 62 60  2  0
 62 63  1  0
 63 64  1  0
 64 65  1  0
 66 64  2  0
 67 66  1  0
 68 73  1  0
 69 70  1  0
 69 68  1  0
 71 70  1  0
 71 78  1  0
 71 72  1  0
 73 67  1  0
 73 72  1  0
 74 67  2  0
 75 76  2  0
 76 95  1  0
 77 76  1  0
 77 80  1  0
 78 75  1  0
 78 79  1  0
 79 77  2  0
 80 81  1  0
 81 82  2  0
 83 86  1  0
 83 82  1  0
 84 83  2  0
 85 84  1  0
 85 80  2  0
 86 87  1  0
 87 88  1  0
 88 89  2  0
 90 89  1  0
 90 94  1  0
 91 90  2  0
 92 87  2  0
 92 91  1  0
 93 92  1  0
 95 96  1  0
 96 99  1  0
 96 98  1  0
 97 95  2  0
100101  1  0
100 75  1  0
102100  1  0
M  ISO  4  11 101  12 101  66 100  67 100
M  END
>  <TORSDO>  (11) 
F 31

>  <SCORE>  (11) 
-7.504

>  <name>  (11) 
10

>  <ligand_id>  (11) 
10

>  <original_smiles>  (11) 
[H]c1c([H])c([H])c2c(c1[H])C([H])([H])C([H])([H])C([H])([H])C2([H])N([H])C(=O)C1([H])N(C(=O)C([H])(N([H])C(=O)C([H])(N([H])C([H])([H])[H])C([H])([H])[H])C(C([H])([H])[H])(C([H])([H])[H])C([H])([H])[H])C([H])([H])c2c([H])c(OC([H])([H])C([H])([H])C([H])(N(C(=O)C([H])([H])C([H])([H])C([H])([H])C([H])([H])C([H])([H])C([H])([H])C([H])([H])S(=O)(=O)C([H])([H])C(=NC(=O)N3C([H])([H])C([H])([H])C([H])([H])C([H])(n4nc(-c5c([H])c([H])c(Oc6c([H])c([H])c(F)c([H])c6F)c([H])c5[H])c(C(=O)N([H])[H])c4N([H])[H])C3([H])[H])C([H])([H])[H])C([H])(C([H])([H])[H])C([H])([H])C([H])([H])[H])C([H])([H])[H])c([H])c([H])c2C1([H])[H]

>  <smiles>  (11) 
[H]c1c([H])c([H])c2c(c1[H])C([H])([H])C([H])([H])C([H])([H])C2([H])N([H])C(=O)C1([H])N(C(=O)C([H])(N([H])C(=O)C([H])(N([H])C([H])([H])[H])C([H])([H])[H])C(C([H])([H])[H])(C([H])([H])[H])C([H])([H])[H])C([H])([H])c2c([H])c(OC([H])([H])C([H])([H])C([H])(N(C(=O)C([H])([H])C([H])([H])C([H])([H])C([H])([H])C([H])([H])C([H])([H])C([H])([H])S(=O)(=O)C([H])([H])C(=NC(=O)N3C([H])([H])C([H])([H])C([H])([H])C([H])(n4nc(-c5c([H])c([H])c(Oc6c([H])c([H])c(F)c([H])c6F)c([H])c5[H])c(C(=O)N([H])[H])c4N([H])[H])C3([H])[H])C([H])([H])[H])C([H])(C([H])([H])[H])C([H])([H])C([H])([H])[H])C([H])([H])[H])c([H])c([H])c2C1([H])[H]

$$$$
11:0:0
     RDKit          3D

 90 98  0  0  1  0  0  0  0  0999 V2000
  -28.9700  -17.6990   19.1380 C   0  0  0  0  0  3  0  0  0  0  0  0
  -28.7950  -20.4470   19.1110 C   0  0  0  0  0  3  0  0  0  0  0  0
  -28.2880  -18.3260   18.0970 C   0  0  0  0  0  0  0  0  0  0  0  0
  -28.2330  -19.7150   18.0630 C   0  0  0  0  0  0  0  0  0  0  0  0
  -29.6060  -18.3310   20.2410 C   0  0  0  0  0  0  0  0  0  0  0  0
  -29.3990  -19.9450   20.3010 C   0  0  0  0  0  0  0  0  0  0  0  0
  -27.6260  -17.4860   17.0150 C   0  0  0  0  0  1  0  0  0  0  0  0
  -27.5350  -20.4490   16.9270 C   0  0  0  0  0  1  0  0  0  0  0  0
  -30.7840  -15.6530   20.6220 C   0  0  0  0  0  0  0  0  0  0  0  0
  -30.6350  -13.2830   19.5170 C   0  0  0  0  0  2  0  0  0  0  0  0
  -29.7280  -13.1290   18.2740 C   0  0  0  0  0  2  0  0  0  0  0  0
  -28.2830  -12.8430   18.7010 C   0  0  0  0  0  2  0  0  0  0  0  0
  -27.8310  -13.7530   19.8690 C   0  0  0  0  0  3  0  0  0  0  0  0
  -28.8760  -13.8690   21.0040 C   0  0  0  0  0  2  0  0  0  0  0  0
  -30.1050  -14.4100   20.3940 N   0  0  0  0  0  0  0  0  0  0  0  0
  -31.9990  -15.5200   20.4170 O   0  0  0  0  0  0  0  0  0  0  0  0
  -30.2700  -17.0380   20.9710 N   0  0  0  0  0  0  0  0  0  0  0  0
  -30.9160  -17.3870   21.6670 H   0  0  0  0  0  0  0  0  0  0  0  0
  -25.4550  -14.2920   20.5970 C   0  0  0  0  0  0  0  0  0  0  0  0
  -24.3760  -13.5090   20.8980 C   0  0  0  0  0  0  0  0  0  0  0  0
  -24.8350  -12.1560   20.8310 C   0  0  0  0  0  0  0  0  0  0  0  0
  -26.4960  -13.4190   20.3500 N   0  0  0  0  0  0  0  0  0  0  0  0
  -26.1350  -12.1240   20.5580 N   0  0  0  0  0  0  0  0  0  0  0  0
  -24.0940  -10.8930   20.9570 C   0  0  0  0  0  0  0  0  0  0  0  0
  -24.4680   -9.9020   21.8900 C   0  0  0  0  0  3  0  0  0  0  0  0
  -23.7280   -8.7030   21.9970 C   0  0  0  0  0  3  0  0  0  0  0  0
  -22.5990   -8.4900   21.1730 C   0  0  0  0  0  0  0  0  0  0  0  0
  -22.2410   -9.4720   20.2310 C   0  0  0  0  0  3  0  0  0  0  0  0
  -22.9820  -10.6620   20.1200 C   0  0  0  0  0  3  0  0  0  0  0  0
  -21.8290   -7.3530   21.1990 O   0  0  0  0  0  0  0  0  0  0  0  0
  -21.6910   -6.6030   22.3390 C   0  0  0  0  0  0  0  0  0  0  0  0
  -21.1430   -7.1410   23.5250 C   0  0  0  0  0  3  0  0  0  0  0  0
  -20.9560   -6.3160   24.6510 C   0  0  0  0  0  3  0  0  0  0  0  0
  -21.3030   -4.9530   24.5920 C   0  0  0  0  0  0  0  0  0  0  0  0
  -21.8390   -4.4130   23.4100 C   0  0  0  0  0  3  0  0  0  0  0  0
  -22.0310   -5.2360   22.2860 C   0  0  0  0  0  0  0  0  0  0  0  0
  -22.5330   -4.7060   21.1440 F   0  0  0  0  0  0  0  0  0  0  0  0
  -21.1130   -4.1590   25.6720 F   0  0  0  0  0  0  0  0  0  0  0  0
  -22.9770  -13.9920   21.1430 C   0  0  0  0  0  0  0  0  0  0  0  0
  -22.2120  -13.2790   21.9610 N   0  0  0  0  0  0  0  0  0  0  0  0
  -22.5720  -15.0420   20.6440 O   0  0  0  0  0  0  0  0  0  0  0  0
  -22.5480  -12.4250   22.3810 H   0  0  0  0  0  0  0  0  0  0  0  0
  -21.2810  -13.6020   22.1840 H   0  0  0  0  0  0  0  0  0  0  0  0
  -25.6290  -15.6680   20.4810 N   0  0  0  0  0  0  0  0  0  0  0  0
  -24.8480  -16.3100   20.5570 H   0  0  0  0  0  0  0  0  0  0  0  0
  -26.4980  -16.1330   20.2530 H   0  0  0  0  0  0  0  0  0  0  0  0
  -29.5770  -21.2230   21.1710 O   0  0  0  0  0  0  0  0  0  0  0  0
  -29.2500  -22.8580   20.8090 C   0  0  0  0  0  2  0  0  0  0  0  0
  -28.8840  -24.4790   21.6070 C   0  0  0  0  0  2  0  0  0  0  0  0
  -28.9480  -26.1310   21.2880 O   0  0  0  0  0  0  0  0  0  0  0  0
  -24.8380  -32.1260   23.6130 C   0  0  0  0  0  0  0  0  0  0  0  0
  -27.8710  -27.1770   21.1600 C   0  0  0  0  0  0  0  0  0  0  0  0
  -23.8700  -30.5950   21.9480 C   0  0  0  0  0  3  0  0  0  0  0  0
  -25.5170  -28.9770   20.7710 C   0  0  0  0  0  0  0  0  0  0  0  0
  -26.4310  -30.9050   22.0420 C   0  0  0  0  0  2  0  0  0  0  0  0
  -26.6230  -29.4610   21.4790 C   0  0  0  0  0  0  0  0  0  0  0  0
  -27.7970  -28.5870   21.6340 C   0  0  0  0  0  3  0  0  0  0  0  0
  -26.7270  -26.8480   20.3990 C   0  0  0  0  0  3  0  0  0  0  0  0
  -25.5970  -27.6900   20.2130 C   0  0  0  0  0  3  0  0  0  0  0  0
  -24.2640  -29.8480   20.6440 C   0  0  0  0  0  2  0  0  0  0  0  0
  -25.0620  -31.2400   22.5880 N   0  0  0  0  0  0  0  0  0  0  0  0
  -23.6900  -32.3950   24.0040 O   0  0  0  0  0  0  0  0  0  0  0  0
  -23.1190  -29.6200   22.8950 C   0  0  0  0  0  0  0  0  0  0  0  0
  -21.8260  -29.3570   22.6250 N   0  0  0  0  0  0  0  0  0  0  0  0
  -23.7110  -29.1020   23.8460 O   0  0  0  0  0  0  0  0  0  0  0  0
  -21.3990  -29.8240   21.8370 H   0  0  0  0  0  0  0  0  0  0  0  0
  -18.4850  -27.9550   22.8240 C   0  0  0  0  0  0  0  0  0  0  0  0
  -20.9740  -28.4150   23.3600 C   0  0  0  0  0  3  0  0  0  0  0  0
  -21.2320  -26.9600   22.9050 C   0  0  0  0  0  2  0  0  0  0  0  0
  -20.2820  -26.4980   21.7950 C   0  0  0  0  0  2  0  0  0  0  0  0
  -18.8260  -26.5830   22.2650 C   0  0  0  0  0  2  0  0  0  0  0  0
  -19.4940  -28.8200   23.3230 C   0  0  0  0  0  0  0  0  0  0  0  0
  -19.1240  -30.0950   23.8040 C   0  0  0  0  0  3  0  0  0  0  0  0
  -17.7770  -30.5080   23.7890 C   0  0  0  0  0  3  0  0  0  0  0  0
  -16.7820  -29.6420   23.3050 C   0  0  0  0  0  3  0  0  0  0  0  0
  -17.1350  -28.3670   22.8290 C   0  0  0  0  0  3  0  0  0  0  0  0
  -26.0090  -32.8590   24.3330 C   0  0  0  0  0  3  0  0  0  0  0  0
  -26.3650  -32.2250   25.7360 C   0  0  1  0  0  0  0  0  0  0  0  0
  -25.1390  -32.0100   26.6520 C   0  0  0  0  0  1  0  0  0  0  0  0
  -27.0640  -30.8570   25.5650 C   0  0  0  0  0  1  0  0  0  0  0  0
  -27.3670  -33.1400   26.4810 C   0  0  0  0  0  1  0  0  0  0  0  0
  -25.6280  -34.2720   24.4970 N   0  0  0  0  0  0  0  0  0  0  0  0
  -25.9940  -35.2680   23.6790 C   0  0  0  0  0  0  0  0  0  0  0  0
  -26.7470  -35.0950   22.7190 O   0  0  0  0  0  0  0  0  0  0  0  0
  -24.9620  -34.4780   25.2280 H   0  0  0  0  0  0  0  0  0  0  0  0
  -24.2330  -36.9610   23.0620 C   0  0  0  0  0  1  0  0  0  0  0  0
  -25.4390  -36.6790   23.9730 C   0  0  0  0  0  3  0  0  0  0  0  0
  -27.4880  -37.7280   24.8260 C   0  0  0  0  0  1  0  0  0  0  0  0
  -26.4420  -37.7540   23.8080 N   0  0  0  0  0  0  0  0  0  0  0  0
  -25.9980  -38.6670   23.8340 H   0  0  0  0  0  0  0  0  0  0  0  0
  1  5  1  0
  2  6  1  0
  3  1  2  0
  4  3  1  0
  4  2  2  0
  5  6  2  0
  5 17  1  0
  6 47  1  0
  7  3  1  0
  8  4  1  0
  9 17  1  0
 10 15  1  0
 11 12  1  0
 11 10  1  0
 13 12  1  0
 13 22  1  0
 13 14  1  0
 15  9  1  0
 15 14  1  0
 16  9  2  0
 17 18  1  0
 19 20  2  0
 20 39  1  0
 21 20  1  0
 21 24  1  0
 22 23  1  0
 22 19  1  0
 23 21  2  0
 24 25  1  0
 25 26  2  0
 27 30  1  0
 27 26  1  0
 28 27  2  0
 29 28  1  0
 29 24  2  0
 30 31  1  0
 31 32  1  0
 32 33  2  0
 34 33  1  0
 34 38  1  0
 35 34  2  0
 36 31  2  0
 36 35  1  0
 37 36  1  0
 39 40  1  0
 40 43  1  0
 40 42  1  0
 41 39  2  0
 44 45  1  0
 44 19  1  0
 46 44  1  0
 48 47  1  0
 48 49  1  0
 50 49  1  0
 51 62  2  0
 52 50  1  0
 52 57  1  0
 53 61  1  0
 53 63  1  0
 54 56  1  0
 55 61  1  0
 56 57  2  0
 56 55  1  0
 58 52  2  0
 59 58  1  0
 59 54  2  0
 60 54  1  0
 60 53  1  0
 61 51  1  0
 63 65  2  0
 64 63  1  0
 66 64  1  0
 67 76  2  0
 67 72  1  0
 68 64  1  0
 69 68  1  0
 70 71  1  0
 70 69  1  0
 71 67  1  0
 72 68  1  0
 72 73  2  0
 74 73  1  0
 75 74  2  0
 76 75  1  0
 77 51  1  0
 77 82  1  0
 77 78  1  0
 78 81  1  1
 78 79  1  0
 80 78  1  0
 82 85  1  0
 83 87  1  0
 83 82  1  0
 84 83  2  0
 87 86  1  0
 89 90  1  0
 89 87  1  0
 89 88  1  0
M  ISO  4   9 100  17 100  49 101  50 101
M  END
>  <TORSDO>  (12) 
F 19

>  <SCORE>  (12) 
-12.482

>  <name>  (12) 
11

>  <ligand_id>  (12) 
11

>  <original_smiles>  (12) 
[H]c1c([H])c([H])c2c(c1[H])C([H])([H])C([H])([H])C([H])([H])C2([H])N([H])C(=O)C1([H])N(C(=O)C([H])(N([H])C(=O)C([H])(N([H])C([H])([H])[H])C([H])([H])[H])C(C([H])([H])[H])(C([H])([H])[H])C([H])([H])[H])C([H])([H])c2c([H])c(OC([H])([H])C([H])([H])Oc3c([H])c(C([H])([H])[H])c(C([H])([H])[H])c([H])c3N([H])C(=O)N3C([H])([H])C([H])([H])C([H])([H])C([H])(n4nc(-c5c([H])c([H])c(Oc6c([H])c([H])c(F)c([H])c6F)c([H])c5[H])c(C(=O)N([H])[H])c4N([H])[H])C3([H])[H])c([H])c([H])c2C1([H])[H]

>  <smiles>  (12) 
[H]c1c([H])c([H])c2c(c1[H])C([H])([H])C([H])([H])C([H])([H])C2([H])N([H])C(=O)C1([H])N(C(=O)C([H])(N([H])C(=O)C([H])(N([H])C([H])([H])[H])C([H])([H])[H])C(C([H])([H])[H])(C([H])([H])[H])C([H])([H])[H])C([H])([H])c2c([H])c(OC([H])([H])C([H])([H])Oc3c([H])c(C([H])([H])[H])c(C([H])([H])[H])c([H])c3N([H])C(=O)N3C([H])([H])C([H])([H])C([H])([H])C([H])(n4nc(-c5c([H])c([H])c(Oc6c([H])c([H])c(F)c([H])c6F)c([H])c5[H])c(C(=O)N([H])[H])c4N([H])[H])C3([H])[H])c([H])c([H])c2C1([H])[H]

$$$$
12:0:0
     RDKit          3D

 99107  0  0  1  0  0  0  0  0999 V2000
  -28.5600  -20.0610   24.6290 C   0  0  0  0  0  3  0  0  0  0  0  0
  -28.7910  -21.0430   23.6450 C   0  0  0  0  0  3  0  0  0  0  0  0
  -31.1870  -20.6750   23.8590 C   0  0  0  0  0  3  0  0  0  0  0  0
  -29.6420  -19.3830   25.2320 C   0  0  0  0  0  0  0  0  0  0  0  0
  -30.1150  -21.3580   23.2530 C   0  0  0  0  0  0  0  0  0  0  0  0
  -30.9630  -19.7020   24.8480 C   0  0  0  0  0  0  0  0  0  0  0  0
  -32.0190  -19.0540   25.3930 F   0  0  0  0  0  0  0  0  0  0  0  0
  -28.8090  -17.2290   25.7100 C   0  0  0  0  0  0  0  0  0  0  0  0
  -29.3960  -18.3490   26.1720 N   0  0  0  0  0  0  0  0  0  0  0  0
  -27.5970  -17.0220   25.8220 O   0  0  0  0  0  0  0  0  0  0  0  0
  -29.5320  -17.5490   28.5490 C   0  0  0  0  0  1  0  0  0  0  0  0
  -30.2210  -18.2820   27.3850 C   0  0  0  0  0  2  0  0  0  0  0  0
  -29.6840  -16.2390   24.9310 C   0  0  0  0  0  2  0  0  0  0  0  0
  -29.8310  -16.6450   23.4550 C   0  0  0  0  0  2  0  0  0  0  0  0
  -31.0030  -15.9350   22.7520 C   0  0  0  0  0  2  0  0  0  0  0  0
  -31.5610  -15.6460   20.3310 C   0  0  0  0  0  0  0  0  0  0  0  0
  -31.1830  -13.8020   18.7380 C   0  0  0  0  0  2  0  0  0  0  0  0
  -30.0640  -14.1590   17.7390 C   0  0  0  0  0  2  0  0  0  0  0  0
  -28.6750  -13.8100   18.3110 C   0  0  0  0  0  2  0  0  0  0  0  0
  -28.4770  -14.3390   19.7530 C   0  0  0  0  0  3  0  0  0  0  0  0
  -29.6840  -13.9510   20.6270 C   0  0  0  0  0  2  0  0  0  0  0  0
  -30.9080  -14.4940   20.0090 N   0  0  0  0  0  0  0  0  0  0  0  0
  -32.4550  -16.1250   19.6330 O   0  0  0  0  0  0  0  0  0  0  0  0
  -31.0990  -16.3700   21.3610 N   0  0  0  0  0  0  0  0  0  0  0  0
  -31.3970  -17.3330   21.2830 H   0  0  0  0  0  0  0  0  0  0  0  0
  -26.1280  -14.5760   20.7930 C   0  0  0  0  0  0  0  0  0  0  0  0
  -25.2020  -13.6430   21.1810 C   0  0  0  0  0  0  0  0  0  0  0  0
  -25.7940  -12.3690   20.9230 C   0  0  0  0  0  0  0  0  0  0  0  0
  -27.2230  -13.8570   20.3360 N   0  0  0  0  0  0  0  0  0  0  0  0
  -27.0300  -12.5200   20.4660 N   0  0  0  0  0  0  0  0  0  0  0  0
  -25.2340  -11.0150   21.0280 C   0  0  0  0  0  0  0  0  0  0  0  0
  -25.6320  -10.1300   22.0550 C   0  0  0  0  0  3  0  0  0  0  0  0
  -25.0700   -8.8390   22.1430 C   0  0  0  0  0  3  0  0  0  0  0  0
  -24.0940   -8.4230   21.2060 C   0  0  0  0  0  0  0  0  0  0  0  0
  -23.7190   -9.3010   20.1730 C   0  0  0  0  0  3  0  0  0  0  0  0
  -24.2840  -10.5830   20.0810 C   0  0  0  0  0  3  0  0  0  0  0  0
  -23.5100   -7.1800   21.2000 O   0  0  0  0  0  0  0  0  0  0  0  0
  -23.0550   -6.5940   22.3550 C   0  0  0  0  0  0  0  0  0  0  0  0
  -22.1000   -7.2230   23.1840 C   0  0  0  0  0  3  0  0  0  0  0  0
  -21.6090   -6.5530   24.3240 C   0  0  0  0  0  3  0  0  0  0  0  0
  -22.0640   -5.2560   24.6290 C   0  0  0  0  0  0  0  0  0  0  0  0
  -23.0120   -4.6280   23.8020 C   0  0  0  0  0  3  0  0  0  0  0  0
  -23.5030   -5.2950   22.6660 C   0  0  0  0  0  0  0  0  0  0  0  0
  -24.4010   -4.6770   21.8600 F   0  0  0  0  0  0  0  0  0  0  0  0
  -21.5880   -4.6080   25.7200 F   0  0  0  0  0  0  0  0  0  0  0  0
  -23.8090  -13.9140   21.6690 C   0  0  0  0  0  0  0  0  0  0  0  0
  -23.2720  -13.0430   22.5180 N   0  0  0  0  0  0  0  0  0  0  0  0
  -23.2020  -14.9310   21.3340 O   0  0  0  0  0  0  0  0  0  0  0  0
  -23.7730  -12.2170   22.8100 H   0  0  0  0  0  0  0  0  0  0  0  0
  -22.3450  -13.2070   22.8850 H   0  0  0  0  0  0  0  0  0  0  0  0
  -26.1200  -15.9670   20.7740 N   0  0  0  0  0  0  0  0  0  0  0  0
  -25.3220  -16.5010   21.0980 H   0  0  0  0  0  0  0  0  0  0  0  0
  -26.8780  -16.5500   20.4400 H   0  0  0  0  0  0  0  0  0  0  0  0
  -30.4580  -22.2710   22.2820 O   0  0  0  0  0  0  0  0  0  0  0  0
  -29.5580  -23.3090   21.9150 C   0  0  0  0  0  2  0  0  0  0  0  0
  -29.7050  -23.5520   20.4090 C   0  0  0  0  0  2  0  0  0  0  0  0
  -29.0100  -24.8430   19.9590 C   0  0  0  0  0  2  0  0  0  0  0  0
  -29.4170  -25.2790   18.5420 C   0  0  0  0  0  2  0  0  0  0  0  0
  -29.2580  -26.6870   18.3910 O   0  0  0  0  0  0  0  0  0  0  0  0
  -24.7920  -30.3430   22.5110 C   0  0  0  0  0  0  0  0  0  0  0  0
  -27.9990  -27.2300   18.5010 C   0  0  0  0  0  0  0  0  0  0  0  0
  -23.8100  -29.4150   20.4370 C   0  0  0  0  0  3  0  0  0  0  0  0
  -25.4740  -28.4700   18.7530 C   0  0  0  0  0  0  0  0  0  0  0  0
  -26.3000  -29.9920   20.5600 C   0  0  0  0  0  2  0  0  0  0  0  0
  -26.5410  -28.8830   19.5580 C   0  0  0  0  0  0  0  0  0  0  0  0
  -27.8040  -28.2720   19.4300 C   0  0  0  0  0  3  0  0  0  0  0  0
  -26.9130  -26.8140   17.6990 C   0  0  0  0  0  3  0  0  0  0  0  0
  -25.6530  -27.4320   17.8210 C   0  0  0  0  0  3  0  0  0  0  0  0
  -24.1580  -29.1910   18.9410 C   0  0  0  0  0  2  0  0  0  0  0  0
  -24.9810  -29.9150   21.2290 N   0  0  0  0  0  0  0  0  0  0  0  0
  -23.6610  -30.3670   23.0170 O   0  0  0  0  0  0  0  0  0  0  0  0
  -23.2000  -28.1120   21.0020 C   0  0  0  0  0  0  0  0  0  0  0  0
  -21.9460  -27.8260   20.6210 N   0  0  0  0  0  0  0  0  0  0  0  0
  -23.8600  -27.3740   21.7380 O   0  0  0  0  0  0  0  0  0  0  0  0
  -21.4700  -28.4890   20.0250 H   0  0  0  0  0  0  0  0  0  0  0  0
  -18.7900  -26.1290   20.1640 C   0  0  0  0  0  0  0  0  0  0  0  0
  -21.1830  -26.6350   20.9960 C   0  0  0  0  0  3  0  0  0  0  0  0
  -21.6220  -25.4070   20.1650 C   0  0  0  0  0  2  0  0  0  0  0  0
  -20.7780  -25.1980   18.9040 C   0  0  0  0  0  2  0  0  0  0  0  0
  -19.3020  -25.0120   19.2700 C   0  0  0  0  0  2  0  0  0  0  0  0
  -19.6740  -26.9020   20.9620 C   0  0  0  0  0  0  0  0  0  0  0  0
  -19.1490  -27.9520   21.7450 C   0  0  0  0  0  3  0  0  0  0  0  0
  -17.7690  -28.2310   21.7430 C   0  0  0  0  0  3  0  0  0  0  0  0
  -16.8970  -27.4540   20.9630 C   0  0  0  0  0  3  0  0  0  0  0  0
  -17.4060  -26.4040   20.1780 C   0  0  0  0  0  3  0  0  0  0  0  0
  -25.9780  -30.8470   23.3910 C   0  0  0  0  0  3  0  0  0  0  0  0
  -26.4900  -29.7680   24.4230 C   0  0  1  0  0  0  0  0  0  0  0  0
  -25.3670  -29.1510   25.2870 C   0  0  0  0  0  1  0  0  0  0  0  0
  -27.2120  -28.6130   23.6920 C   0  0  0  0  0  1  0  0  0  0  0  0
  -27.5260  -30.4060   25.3770 C   0  0  0  0  0  1  0  0  0  0  0  0
  -25.5300  -32.0610   24.0850 N   0  0  0  0  0  0  0  0  0  0  0  0
  -25.8760  -33.3080   23.7370 C   0  0  0  0  0  0  0  0  0  0  0  0
  -26.6760  -33.5520   22.8310 O   0  0  0  0  0  0  0  0  0  0  0  0
  -24.8340  -31.9380   24.8070 H   0  0  0  0  0  0  0  0  0  0  0  0
  -24.1000  -35.0890   23.6890 C   0  0  0  0  0  1  0  0  0  0  0  0
  -25.2330  -34.4670   24.5220 C   0  0  0  0  0  3  0  0  0  0  0  0
  -27.1510  -35.0810   25.9280 C   0  0  0  0  0  1  0  0  0  0  0  0
  -26.1970  -35.5200   24.9130 N   0  0  0  0  0  0  0  0  0  0  0  0
  -25.7100  -36.3400   25.2660 H   0  0  0  0  0  0  0  0  0  0  0  0
  1  4  1  0
  2  1  2  0
  3  6  1  0
  4  9  1  0
  5  2  1  0
  5  3  2  0
  6  4  2  0
  6  7  1  0
  8 10  2  0
  8  9  1  0
  9 12  1  0
 12 11  1  0
 13  8  1  0
 14 13  1  0
 15 14  1  0
 16 24  1  0
 17 22  1  0
 18 19  1  0
 18 17  1  0
 20 19  1  0
 20 29  1  0
 20 21  1  0
 22 16  1  0
 22 21  1  0
 23 16  2  0
 24 15  1  0
 25 24  1  0
 26 27  2  0
 27 46  1  0
 28 31  1  0
 28 27  1  0
 29 30  1  0
 29 26  1  0
 30 28  2  0
 31 32  1  0
 32 33  2  0
 34 33  1  0
 35 34  2  0
 36 35  1  0
 36 31  2  0
 37 34  1  0
 37 38  1  0
 38 43  2  0
 38 39  1  0
 39 40  2  0
 40 41  1  0
 41 45  1  0
 42 41  2  0
 43 42  1  0
 44 43  1  0
 46 47  1  0
 47 49  1  0
 47 50  1  0
 48 46  2  0
 51 26  1  0
 51 52  1  0
 53 51  1  0
 54  5  1  0
 55 54  1  0
 56 55  1  0
 57 56  1  0
 58 57  1  0
 59 61  1  0
 59 58  1  0
 60 71  2  0
 61 66  1  0
 62 72  1  0
 62 70  1  0
 63 69  1  0
 63 65  1  0
 64 70  1  0
 65 64  1  0
 66 65  2  0
 67 68  1  0
 67 61  2  0
 68 63  2  0
 69 62  1  0
 70 60  1  0
 72 74  2  0
 73 72  1  0
 75 73  1  0
 76 85  2  0
 76 81  1  0
 77 73  1  0
 78 77  1  0
 79 80  1  0
 79 78  1  0
 80 76  1  0
 81 77  1  0
 81 82  2  0
 83 82  1  0
 84 83  2  0
 85 84  1  0
 86 60  1  0
 86 91  1  0
 86 87  1  0
 87 88  1  1
 87 90  1  0
 89 87  1  0
 91 94  1  0
 92 91  1  0
 92 96  1  0
 93 92  2  0
 96 95  1  0
 96 98  1  0
 98 99  1  0
 98 97  1  0
M  ISO  4  16 100  24 100  58 101  59 101
M  END
>  <TORSDO>  (13) 
F 26

>  <SCORE>  (13) 
34.136

>  <name>  (13) 
12

>  <ligand_id>  (13) 
12

>  <original_smiles>  (13) 
[H]c1c([H])c([H])c2c(c1[H])C([H])([H])C([H])([H])C([H])([H])C2([H])N([H])C(=O)C1([H])N(C(=O)C([H])(N([H])C(=O)C([H])(N([H])C([H])([H])[H])C([H])([H])[H])C(C([H])([H])[H])(C([H])([H])[H])C([H])([H])[H])C([H])([H])c2c([H])c(OC([H])([H])C([H])([H])C([H])([H])C([H])([H])Oc3c([H])c([H])c(N(C(=O)C([H])([H])C([H])([H])C([H])([H])N([H])C(=O)N4C([H])([H])C([H])([H])C([H])([H])C([H])(n5nc(-c6c([H])c([H])c(Oc7c([H])c([H])c(F)c([H])c7F)c([H])c6[H])c(C(=O)N([H])[H])c5N([H])[H])C4([H])[H])C([H])([H])C([H])([H])[H])c(F)c3[H])c([H])c([H])c2C1([H])[H]

>  <smiles>  (13) 
[H]c1c([H])c([H])c2c(c1[H])C([H])([H])C([H])([H])C([H])([H])C2([H])N([H])C(=O)C1([H])N(C(=O)C([H])(N([H])C(=O)C([H])(N([H])C([H])([H])[H])C([H])([H])[H])C(C([H])([H])[H])(C([H])([H])[H])C([H])([H])[H])C([H])([H])c2c([H])c(OC([H])([H])C([H])([H])C([H])([H])C([H])([H])Oc3c([H])c([H])c(N(C(=O)C([H])([H])C([H])([H])C([H])([H])N([H])C(=O)N4C([H])([H])C([H])([H])C([H])([H])C([H])(n5nc(-c6c([H])c([H])c(Oc7c([H])c([H])c(F)c([H])c7F)c([H])c6[H])c(C(=O)N([H])[H])c5N([H])[H])C4([H])[H])C([H])([H])C([H])([H])[H])c(F)c3[H])c([H])c([H])c2C1([H])[H]

$$$$
13:0:0
     RDKit          3D

 96103  0  0  1  0  0  0  0  0999 V2000
  -26.9940  -11.4100   20.5900 C   0  0  0  0  0  3  0  0  0  0  0  0
  -27.9720  -12.4810   21.8050 C   0  0  0  0  0  3  0  0  0  0  0  0
  -26.2550  -14.0880   19.0380 C   0  0  0  0  0  3  0  0  0  0  0  0
  -26.0360  -12.2750   19.2600 C   0  0  0  0  0  0  0  0  0  0  0  0
  -28.2000  -14.2670   21.4260 C   0  0  0  0  0  0  0  0  0  0  0  0
  -27.2850  -15.1260   20.1300 C   0  0  0  0  0  0  0  0  0  0  0  0
  -30.6560  -14.0920   20.4250 C   0  0  0  0  0  0  0  0  0  0  0  0
  -30.9420  -12.1090   18.7780 C   0  0  0  0  0  2  0  0  0  0  0  0
  -29.7490  -11.9320   17.7670 C   0  0  0  0  0  2  0  0  0  0  0  0
  -28.3580  -11.8740   18.3690 C   0  0  0  0  0  2  0  0  0  0  0  0
  -28.2760  -12.8000   19.6770 C   0  0  0  0  0  2  0  0  0  0  0  0
  -29.5730  -11.9930   20.3220 C   0  0  0  0  0  2  0  0  0  0  0  0
  -30.5440  -12.8140   19.9850 N   0  0  0  0  0  0  0  0  0  0  0  0
  -31.6000  -14.7000   19.9230 O   0  0  0  0  0  0  0  0  0  0  0  0
  -29.6630  -14.6240   21.2950 N   0  0  0  0  0  0  0  0  0  0  0  0
  -29.8800  -15.5700   21.5660 H   0  0  0  0  0  0  0  0  0  0  0  0
  -24.9360  -14.1930   21.3020 C   0  0  0  0  0  0  0  0  0  0  0  0
  -23.8580  -13.3900   21.5660 C   0  0  0  0  0  0  0  0  0  0  0  0
  -24.2310  -12.0470   21.6200 C   0  0  0  0  0  3  0  0  0  0  0  0
  -26.0200  -13.3600   21.2660 N   0  0  0  0  0  2  0  0  0  0  0  0
  -25.3530  -12.3730   22.1300 N   0  0  0  0  0  2  0  0  0  0  0  0
  -23.5530  -10.7200   21.7750 C   0  0  0  0  0  0  0  0  0  0  0  0
  -24.0950   -9.5890   22.4480 C   0  0  0  0  0  3  0  0  0  0  0  0
  -23.3070   -8.4310   22.6760 C   0  0  0  0  0  3  0  0  0  0  0  0
  -21.9660   -8.3800   22.2200 C   0  0  0  0  0  0  0  0  0  0  0  0
  -21.4700   -9.4580   21.4750 C   0  0  0  0  0  3  0  0  0  0  0  0
  -22.2550  -10.5970   21.2400 C   0  0  0  0  0  3  0  0  0  0  0  0
  -21.1060   -7.3200   22.3990 O   0  0  0  0  0  0  0  0  0  0  0  0
  -21.2320   -6.4420   23.4480 C   0  0  0  0  0  0  0  0  0  0  0  0
  -21.2030   -6.8630   24.7930 C   0  0  0  0  0  3  0  0  0  0  0  0
  -21.2790   -5.9120   25.8310 C   0  0  0  0  0  3  0  0  0  0  0  0
  -21.3710   -4.5410   25.5270 C   0  0  0  0  0  0  0  0  0  0  0  0
  -21.3800   -4.1170   24.1860 C   0  0  0  0  0  3  0  0  0  0  0  0
  -21.3060   -5.0660   23.1500 C   0  0  0  0  0  0  0  0  0  0  0  0
  -21.2940   -4.6520   21.8610 F   0  0  0  0  0  0  0  0  0  0  0  0
  -21.4480   -3.6230   26.5180 F   0  0  0  0  0  0  0  0  0  0  0  0
  -22.5510  -13.9060   21.9090 C   0  0  0  0  0  0  0  0  0  0  0  0
  -21.9280  -13.2940   22.9070 N   0  0  0  0  0  0  0  0  0  0  0  0
  -22.1570  -14.9330   21.3820 O   0  0  0  0  0  0  0  0  0  0  0  0
  -22.3340  -12.4920   23.3680 H   0  0  0  0  0  0  0  0  0  0  0  0
  -21.0350  -13.6510   23.2240 H   0  0  0  0  0  0  0  0  0  0  0  0
  -25.0410  -15.5520   21.0910 N   0  0  0  0  0  0  0  0  0  0  0  0
  -24.2260  -16.1530   21.0820 H   0  0  0  0  0  0  0  0  0  0  0  0
  -25.9030  -16.0270   20.8450 H   0  0  0  0  0  0  0  0  0  0  0  0
  -25.1100  -11.5410   18.2880 C   0  0  0  0  0  2  0  0  0  0  0  0
  -23.0940  -10.1130   18.3970 C   0  0  0  0  0  0  0  0  0  0  0  0
  -22.3030   -9.0680   19.1800 C   0  0  0  0  0  1  0  0  0  0  0  0
  -24.2880  -10.4960   18.8820 N   0  0  0  0  0  0  0  0  0  0  0  0
  -22.6100  -10.5780   17.3640 O   0  0  0  0  0  0  0  0  0  0  0  0
  -24.6240  -10.0650   19.7300 H   0  0  0  0  0  0  0  0  0  0  0  0
  -27.2340  -16.6860   19.7950 O   0  0  0  0  0  0  0  0  0  0  0  0
  -27.7450  -18.2560   20.2470 C   0  0  0  0  0  3  0  0  0  0  0  0
  -27.2910  -20.0490   19.8090 C   0  0  0  0  0  3  0  0  0  0  0  0
  -27.8690  -21.8270   20.1350 C   0  0  0  0  0  3  0  0  0  0  0  0
  -27.3390  -23.6120   19.7710 C   0  0  0  0  0  3  0  0  0  0  0  0
  -27.8160  -25.2420   20.0750 O   0  0  0  0  0  0  0  0  0  0  0  0
  -24.5610  -31.5380   23.0150 C   0  0  0  0  0  0  0  0  0  0  0  0
  -26.9980  -26.5170   19.9870 C   0  0  0  0  0  0  0  0  0  0  0  0
  -23.3900  -30.1560   21.3600 C   0  0  0  0  0  3  0  0  0  0  0  0
  -24.8320  -28.5590   19.9240 C   0  0  0  0  0  0  0  0  0  0  0  0
  -25.9690  -30.3040   21.2670 C   0  0  0  0  0  2  0  0  0  0  0  0
  -26.0180  -28.8900   20.5890 C   0  0  0  0  0  0  0  0  0  0  0  0
  -27.1090  -27.8870   20.5960 C   0  0  0  0  0  3  0  0  0  0  0  0
  -25.8230  -26.4060   19.2320 C   0  0  0  0  0  3  0  0  0  0  0  0
  -24.7700  -27.3520   19.2170 C   0  0  0  0  0  3  0  0  0  0  0  0
  -23.6360  -29.5110   19.9710 C   0  0  0  0  0  2  0  0  0  0  0  0
  -24.6630  -30.6970   21.9320 N   0  0  0  0  0  0  0  0  0  0  0  0
  -23.4630  -31.8260   23.5200 O   0  0  0  0  0  0  0  0  0  0  0  0
  -22.6910  -29.1430   22.3060 C   0  0  0  0  0  0  0  0  0  0  0  0
  -21.3540  -29.0150   22.2110 N   0  0  0  0  0  0  0  0  0  0  0  0
  -23.3580  -28.4810   23.1060 O   0  0  0  0  0  0  0  0  0  0  0  0
  -20.8670  -29.6040   21.5500 H   0  0  0  0  0  0  0  0  0  0  0  0
  -17.9520  -27.8830   22.7860 C   0  0  0  0  0  0  0  0  0  0  0  0
  -20.5270  -28.0760   22.9790 C   0  0  0  0  0  3  0  0  0  0  0  0
  -20.5720  -26.6590   22.3620 C   0  0  0  0  0  2  0  0  0  0  0  0
  -19.4330  -26.3960   21.3700 C   0  0  0  0  0  2  0  0  0  0  0  0
  -18.0760  -26.5520   22.0610 C   0  0  0  0  0  2  0  0  0  0  0  0
  -19.1030  -28.6030   23.2050 C   0  0  0  0  0  0  0  0  0  0  0  0
  -18.9340  -29.8460   23.8520 C   0  0  0  0  0  3  0  0  0  0  0  0
  -17.6470  -30.3700   24.0810 C   0  0  0  0  0  3  0  0  0  0  0  0
  -16.5130  -29.6470   23.6760 C   0  0  0  0  0  3  0  0  0  0  0  0
  -16.6660  -28.4040   23.0370 C   0  0  0  0  0  3  0  0  0  0  0  0
  -25.8170  -32.1970   23.6590 C   0  0  0  0  0  3  0  0  0  0  0  0
  -25.4770  -33.5940   23.9920 N   0  0  0  0  0  0  0  0  0  0  0  0
  -25.8320  -34.6690   23.2750 C   0  0  0  0  0  0  0  0  0  0  0  0
  -26.5410  -34.5890   22.2690 O   0  0  0  0  0  0  0  0  0  0  0  0
  -24.8450  -33.7250   24.7680 H   0  0  0  0  0  0  0  0  0  0  0  0
  -24.1130  -36.4750   22.8970 C   0  0  0  0  0  1  0  0  0  0  0  0
  -25.3230  -36.0490   23.7430 C   0  0  0  0  0  3  0  0  0  0  0  0
  -27.4210  -36.9280   24.6770 C   0  0  0  0  0  1  0  0  0  0  0  0
  -26.3550  -37.1080   23.6950 N   0  0  0  0  0  0  0  0  0  0  0  0
  -25.9370  -38.0230   23.8460 H   0  0  0  0  0  0  0  0  0  0  0  0
  -26.3120  -31.4400   24.9560 C   0  0  1  0  0  0  0  0  0  0  0  0
  -25.2060  -31.2130   26.0150 C   0  0  0  0  0  1  0  0  0  0  0  0
  -26.8970  -30.0540   24.6050 C   0  0  0  0  0  1  0  0  0  0  0  0
  -27.4520  -32.2410   25.6260 C   0  0  0  0  0  1  0  0  0  0  0  0
  1  2  1  0
  3  4  1  0
  3  6  2  0
  4  1  2  0
  5  2  2  0
  6  5  1  0
  7 15  1  0
  8 13  1  0
  9 10  1  0
  9  8  1  0
 10 11  1  0
 11 12  1  0
 13 12  1  0
 13  7  1  0
 14  7  2  0
 15  5  1  0
 15 16  1  0
 17 18  2  0
 18 19  1  0
 18 37  1  0
 19 22  1  0
 19 21  1  0
 20 17  1  0
 20 21  1  0
 22 23  1  0
 23 24  2  0
 25 28  1  0
 25 24  1  0
 26 25  2  0
 27 26  1  0
 27 22  2  0
 28 29  1  0
 29 30  1  0
 30 31  2  0
 32 31  1  0
 32 36  1  0
 33 32  2  0
 34 29  2  0
 34 33  1  0
 35 34  1  0
 37 38  1  0
 38 41  1  0
 38 40  1  0
 39 37  2  0
 42 17  1  0
 43 42  1  0
 44 42  1  0
 45 48  1  0
 45  4  1  0
 46 48  1  0
 46 47  1  0
 48 50  1  0
 49 46  2  0
 51  6  1  0
 51 52  1  0
 53 54  1  0
 53 52  2  0
 55 56  1  0
 55 54  2  0
 57 68  2  0
 58 56  1  0
 58 63  1  0
 59 67  1  0
 59 69  1  0
 60 66  1  0
 60 62  1  0
 61 67  1  0
 62 63  2  0
 62 61  1  0
 64 58  2  0
 65 64  1  0
 65 60  2  0
 66 59  1  0
 67 57  1  0
 69 71  2  0
 70 69  1  0
 72 70  1  0
 73 82  2  0
 73 78  1  0
 74 70  1  0
 74 78  1  0
 75 74  1  0
 76 77  1  0
 76 75  1  0
 77 73  1  0
 78 79  2  0
 79 80  1  0
 81 80  2  0
 82 81  1  0
 83 57  1  0
 83 84  1  0
 83 93  1  0
 84 87  1  0
 85 89  1  0
 85 84  1  0
 86 85  2  0
 89 88  1  0
 91 89  1  0
 91 92  1  0
 91 90  1  0
 93 96  1  1
 93 94  1  0
 95 93  1  0
M  ISO  4   7 100  15 100  55 101  56 101
M  END
>  <TORSDO>  (14) 
F 23

>  <SCORE>  (14) 
2.967

>  <name>  (14) 
13

>  <ligand_id>  (14) 
13

>  <original_smiles>  (14) 
[H]c1c([H])c([H])c2c(c1[H])C([H])([H])C([H])([H])C([H])([H])C2([H])N([H])C(=O)C1([H])N(C(=O)C([H])(N([H])C(=O)C([H])(N([H])C([H])([H])[H])C([H])([H])[H])C(C([H])([H])[H])(C([H])([H])[H])C([H])([H])[H])C([H])([H])c2c([H])c(OC([H])([H])C([H])([H])C([H])([H])C([H])([H])Oc3c([H])c(C([H])([H])N([H])C(=O)C([H])([H])[H])c([H])c([H])c3N([H])C(=O)N3C([H])([H])C([H])([H])C([H])([H])C([H])(n4nc(-c5c([H])c([H])c(Oc6c([H])c([H])c(F)c([H])c6F)c([H])c5[H])c(C(=O)N([H])[H])c4N([H])[H])C3([H])[H])c([H])c([H])c2C1([H])[H]

>  <smiles>  (14) 
[H]c1c([H])c([H])c2c(c1[H])C([H])([H])C([H])([H])C([H])([H])C2([H])N([H])C(=O)C1([H])N(C(=O)C([H])(N([H])C(=O)C([H])(N([H])C([H])([H])[H])C([H])([H])[H])C(C([H])([H])[H])(C([H])([H])[H])C([H])([H])[H])C([H])([H])c2c([H])c(OC([H])([H])C([H])([H])C([H])([H])C([H])([H])Oc3c([H])c(C([H])([H])N([H])C(=O)C([H])([H])[H])c([H])c([H])c3N([H])C(=O)N3C([H])([H])C([H])([H])C([H])([H])C([H])(n4nc(-c5c([H])c([H])c(Oc6c([H])c([H])c(F)c([H])c6F)c([H])c5[H])c(C(=O)N([H])[H])c4N([H])[H])C3([H])[H])c([H])c([H])c2C1([H])[H]

$$$$
14:0:0
     RDKit          3D

 94102  0  0  1  0  0  0  0  0999 V2000
  -29.3040  -21.4910   20.0870 C   0  0  0  0  0  0  0  0  0  0  0  0
  -28.4290  -22.5740   18.0040 C   0  0  0  0  0  1  0  0  0  0  0  0
  -29.2730  -22.5290   19.2070 N   0  0  0  0  0  0  0  0  0  0  0  0
  -30.0600  -21.4830   21.0640 O   0  0  0  0  0  0  0  0  0  0  0  0
  -28.4090  -20.2500   19.8920 C   0  0  0  0  0  2  0  0  0  0  0  0
  -29.9290  -18.9710   18.2900 C   0  0  0  0  0  3  0  0  0  0  0  0
  -30.6400  -17.8150   17.9240 C   0  0  0  0  0  3  0  0  0  0  0  0
  -29.2690  -17.8910   20.3750 C   0  0  0  0  0  3  0  0  0  0  0  0
  -29.2280  -19.0140   19.5130 C   0  0  0  0  0  0  0  0  0  0  0  0
  -29.9860  -16.7240   20.0230 C   0  0  0  0  0  0  0  0  0  0  0  0
  -30.6540  -16.6880   18.7660 C   0  0  0  0  0  0  0  0  0  0  0  0
  -31.2760  -15.5730   18.3150 F   0  0  0  0  0  0  0  0  0  0  0  0
  -30.7490  -14.5450   20.9040 C   0  0  0  0  0  0  0  0  0  0  0  0
  -30.5730  -12.3110   19.9380 C   0  0  0  0  0  2  0  0  0  0  0  0
  -29.7400  -12.4540   18.6460 C   0  0  0  0  0  2  0  0  0  0  0  0
  -28.2330  -12.3310   18.9520 C   0  0  0  0  0  2  0  0  0  0  0  0
  -27.7840  -13.2370   20.1300 C   0  0  0  0  0  3  0  0  0  0  0  0
  -28.7420  -13.0960   21.3370 C   0  0  0  0  0  2  0  0  0  0  0  0
  -30.1130  -13.3490   20.8660 N   0  0  0  0  0  0  0  0  0  0  0  0
  -31.9610  -14.6790   20.7160 O   0  0  0  0  0  0  0  0  0  0  0  0
  -29.9290  -15.6070   20.9170 N   0  0  0  0  0  0  0  0  0  0  0  0
  -29.0290  -15.4480   21.3400 H   0  0  0  0  0  0  0  0  0  0  0  0
  -25.3340  -13.8620   20.6270 C   0  0  0  0  0  0  0  0  0  0  0  0
  -24.2390  -13.0980   20.9290 C   0  0  0  0  0  0  0  0  0  0  0  0
  -24.7000  -11.7480   20.9750 C   0  0  0  0  0  0  0  0  0  0  0  0
  -26.3940  -12.9770   20.5070 N   0  0  0  0  0  0  0  0  0  0  0  0
  -26.0120  -11.7030   20.7770 N   0  0  0  0  0  0  0  0  0  0  0  0
  -23.9620  -10.4880   21.1410 C   0  0  0  0  0  0  0  0  0  0  0  0
  -24.3450   -9.5300   22.1050 C   0  0  0  0  0  3  0  0  0  0  0  0
  -23.6100   -8.3350   22.2550 C   0  0  0  0  0  3  0  0  0  0  0  0
  -22.4780   -8.0880   21.4410 C   0  0  0  0  0  0  0  0  0  0  0  0
  -22.1160   -9.0360   20.4680 C   0  0  0  0  0  3  0  0  0  0  0  0
  -22.8510  -10.2220   20.3150 C   0  0  0  0  0  3  0  0  0  0  0  0
  -21.7200   -6.9450   21.5000 O   0  0  0  0  0  0  0  0  0  0  0  0
  -21.6300   -6.2000   22.6480 C   0  0  0  0  0  0  0  0  0  0  0  0
  -21.1780   -6.7550   23.8650 C   0  0  0  0  0  3  0  0  0  0  0  0
  -21.0350   -5.9360   25.0030 C   0  0  0  0  0  3  0  0  0  0  0  0
  -21.3340   -4.5620   24.9240 C   0  0  0  0  0  0  0  0  0  0  0  0
  -21.7790   -4.0060   23.7120 C   0  0  0  0  0  3  0  0  0  0  0  0
  -21.9240   -4.8230   22.5770 C   0  0  0  0  0  0  0  0  0  0  0  0
  -22.3330   -4.2780   21.4050 F   0  0  0  0  0  0  0  0  0  0  0  0
  -21.1890   -3.7740   26.0140 F   0  0  0  0  0  0  0  0  0  0  0  0
  -22.8220  -13.5780   21.0700 C   0  0  0  0  0  0  0  0  0  0  0  0
  -22.0270  -12.9090   21.8980 N   0  0  0  0  0  0  0  0  0  0  0  0
  -22.4260  -14.5840   20.4810 O   0  0  0  0  0  0  0  0  0  0  0  0
  -22.3600  -12.1010   22.4010 H   0  0  0  0  0  0  0  0  0  0  0  0
  -21.0730  -13.2130   22.0330 H   0  0  0  0  0  0  0  0  0  0  0  0
  -25.5150  -15.2270   20.4230 N   0  0  0  0  0  0  0  0  0  0  0  0
  -24.7420  -15.8830   20.4500 H   0  0  0  0  0  0  0  0  0  0  0  0
  -26.3850  -15.6540   20.1320 H   0  0  0  0  0  0  0  0  0  0  0  0
  -30.2340  -23.6450   19.3240 C   0  0  0  0  0  2  0  0  0  0  0  0
  -29.6420  -25.0600   19.1470 C   0  0  0  0  0  2  0  0  0  0  0  0
  -28.5150  -25.4350   20.1230 C   0  0  0  0  0  2  0  0  0  0  0  0
  -28.4310  -26.8560   20.1200 O   0  0  0  0  0  0  0  0  0  0  0  0
  -24.5790  -31.9230   23.2330 C   0  0  0  0  0  0  0  0  0  0  0  0
  -27.2110  -27.4910   20.1490 C   0  0  0  0  0  0  0  0  0  0  0  0
  -23.3610  -30.5220   21.5940 C   0  0  0  0  0  3  0  0  0  0  0  0
  -24.8060  -28.9740   20.1770 C   0  0  0  0  0  0  0  0  0  0  0  0
  -25.8830  -30.8800   21.3870 C   0  0  0  0  0  2  0  0  0  0  0  0
  -25.9620  -29.5090   20.7540 C   0  0  0  0  0  0  0  0  0  0  0  0
  -27.1650  -28.7730   20.7350 C   0  0  0  0  0  3  0  0  0  0  0  0
  -26.0330  -26.9610   19.5710 C   0  0  0  0  0  3  0  0  0  0  0  0
  -24.8340  -27.6980   19.5880 C   0  0  0  0  0  3  0  0  0  0  0  0
  -23.5650  -29.8350   20.2170 C   0  0  0  0  0  2  0  0  0  0  0  0
  -24.6260  -31.1240   22.1300 N   0  0  0  0  0  0  0  0  0  0  0  0
  -23.5010  -32.1980   23.7780 O   0  0  0  0  0  0  0  0  0  0  0  0
  -22.7130  -29.5040   22.5590 C   0  0  0  0  0  0  0  0  0  0  0  0
  -21.3860  -29.3330   22.4420 N   0  0  0  0  0  0  0  0  0  0  0  0
  -23.3990  -28.8700   23.3650 O   0  0  0  0  0  0  0  0  0  0  0  0
  -20.8950  -29.8940   21.7610 H   0  0  0  0  0  0  0  0  0  0  0  0
  -18.0070  -28.1690   22.9610 C   0  0  0  0  0  0  0  0  0  0  0  0
  -20.5690  -28.4020   23.2190 C   0  0  0  0  0  3  0  0  0  0  0  0
  -20.6540  -26.9710   22.6390 C   0  0  0  0  0  2  0  0  0  0  0  0
  -19.5420  -26.6600   21.6310 C   0  0  0  0  0  2  0  0  0  0  0  0
  -18.1670  -26.8170   22.2860 C   0  0  0  0  0  2  0  0  0  0  0  0
  -19.1370  -28.9190   23.3860 C   0  0  0  0  0  0  0  0  0  0  0  0
  -18.9360  -30.1840   23.9790 C   0  0  0  0  0  3  0  0  0  0  0  0
  -17.6380  -30.7000   24.1500 C   0  0  0  0  0  3  0  0  0  0  0  0
  -16.5220  -29.9480   23.7430 C   0  0  0  0  0  3  0  0  0  0  0  0
  -16.7090  -28.6830   23.1570 C   0  0  0  0  0  3  0  0  0  0  0  0
  -25.8720  -32.5480   23.8460 C   0  0  0  0  0  3  0  0  0  0  0  0
  -25.5700  -33.9470   24.1770 N   0  0  0  0  0  0  0  0  0  0  0  0
  -25.9110  -34.9970   23.4180 C   0  0  0  0  0  0  0  0  0  0  0  0
  -26.5840  -34.8910   22.3900 O   0  0  0  0  0  0  0  0  0  0  0  0
  -24.9700  -34.1040   24.9730 H   0  0  0  0  0  0  0  0  0  0  0  0
  -24.1950  -36.7980   23.0530 C   0  0  0  0  0  1  0  0  0  0  0  0
  -25.4270  -36.3870   23.8750 C   0  0  0  0  0  3  0  0  0  0  0  0
  -27.5620  -37.2540   24.7220 C   0  0  0  0  0  1  0  0  0  0  0  0
  -26.4670  -37.4350   23.7720 N   0  0  0  0  0  0  0  0  0  0  0  0
  -26.0650  -38.3560   23.9240 H   0  0  0  0  0  0  0  0  0  0  0  0
  -26.3970  -31.7730   25.1160 C   0  0  1  0  0  0  0  0  0  0  0  0
  -25.3130  -31.5400   26.1920 C   0  0  0  0  0  1  0  0  0  0  0  0
  -26.9730  -30.3950   24.7160 C   0  0  0  0  0  1  0  0  0  0  0  0
  -27.5570  -32.5640   25.7690 C   0  0  0  0  0  1  0  0  0  0  0  0
  1  4  2  0
  2  3  1  0
  3 51  1  0
  3  1  1  0
  5  1  1  0
  6  9  1  0
  7  6  2  0
  7 11  1  0
  9  5  1  0
  9  8  2  0
 10  8  1  0
 10 21  1  0
 11 10  2  0
 12 11  1  0
 13 21  1  0
 14 19  1  0
 15 16  1  0
 15 14  1  0
 17 16  1  0
 17 26  1  0
 17 18  1  0
 19 13  1  0
 19 18  1  0
 20 13  2  0
 21 22  1  0
 23 24  2  0
 24 25  1  0
 24 43  1  0
 25 28  1  0
 26 23  1  0
 26 27  1  0
 27 25  2  0
 28 29  1  0
 29 30  2  0
 31 34  1  0
 31 30  1  0
 32 31  2  0
 33 32  1  0
 33 28  2  0
 34 35  1  0
 35 36  1  0
 36 37  2  0
 38 37  1  0
 38 42  1  0
 39 38  2  0
 40 35  2  0
 40 39  1  0
 41 40  1  0
 43 44  1  0
 44 47  1  0
 44 46  1  0
 45 43  2  0
 48 49  1  0
 48 23  1  0
 50 48  1  0
 52 51  1  0
 52 53  1  0
 54 53  1  0
 54 56  1  0
 55 66  2  0
 56 61  1  0
 57 65  1  0
 57 67  1  0
 58 64  1  0
 58 60  1  0
 59 65  1  0
 60 59  1  0
 61 60  2  0
 62 63  1  0
 62 56  2  0
 63 58  2  0
 64 57  1  0
 65 55  1  0
 67 69  2  0
 68 67  1  0
 70 68  1  0
 71 80  2  0
 71 76  1  0
 72 68  1  0
 72 76  1  0
 73 72  1  0
 74 75  1  0
 74 73  1  0
 75 71  1  0
 76 77  2  0
 77 78  1  0
 79 78  2  0
 80 79  1  0
 81 55  1  0
 81 82  1  0
 81 91  1  0
 82 85  1  0
 83 87  1  0
 83 82  1  0
 84 83  2  0
 87 86  1  0
 89 87  1  0
 89 90  1  0
 89 88  1  0
 91 94  1  1
 91 92  1  0
 93 91  1  0
M  ISO  4  13 100  21 100  53 101  54 101
M  END
>  <TORSDO>  (15) 
F 21

>  <SCORE>  (15) 
-13.507

>  <name>  (15) 
14

>  <ligand_id>  (15) 
14

>  <original_smiles>  (15) 
[H]c1c([H])c([H])c2c(c1[H])C([H])([H])C([H])([H])C([H])([H])C2([H])N([H])C(=O)C1([H])N(C(=O)C([H])(N([H])C(=O)C([H])(N([H])C([H])([H])[H])C([H])([H])[H])C(C([H])([H])[H])(C([H])([H])[H])C([H])([H])[H])C([H])([H])c2c([H])c(OC([H])([H])C([H])([H])C([H])([H])N(C(=O)C([H])([H])c3c([H])c([H])c(F)c(N([H])C(=O)N4C([H])([H])C([H])([H])C([H])([H])C([H])(n5nc(-c6c([H])c([H])c(Oc7c([H])c([H])c(F)c([H])c7F)c([H])c6[H])c(C(=O)N([H])[H])c5N([H])[H])C4([H])[H])c3[H])C([H])([H])[H])c([H])c([H])c2C1([H])[H]

>  <smiles>  (15) 
[H]c1c([H])c([H])c2c(c1[H])C([H])([H])C([H])([H])C([H])([H])C2([H])N([H])C(=O)C1([H])N(C(=O)C([H])(N([H])C(=O)C([H])(N([H])C([H])([H])[H])C([H])([H])[H])C(C([H])([H])[H])(C([H])([H])[H])C([H])([H])[H])C([H])([H])c2c([H])c(OC([H])([H])C([H])([H])C([H])([H])N(C(=O)C([H])([H])c3c([H])c([H])c(F)c(N([H])C(=O)N4C([H])([H])C([H])([H])C([H])([H])C([H])(n5nc(-c6c([H])c([H])c(Oc7c([H])c([H])c(F)c([H])c7F)c([H])c6[H])c(C(=O)N([H])[H])c5N([H])[H])C4([H])[H])c3[H])C([H])([H])[H])c([H])c([H])c2C1([H])[H]

$$$$
15:0:0
     RDKit          3D

 90 98  0  0  1  0  0  0  0  0999 V2000
  -28.9520  -21.7480   20.1490 C   0  0  0  0  0  2  0  0  0  0  0  0
  -28.9990  -23.1020   19.4110 C   0  0  0  0  0  2  0  0  0  0  0  0
  -28.4340  -24.3120   20.1820 C   0  0  0  0  0  2  0  0  0  0  0  0
  -28.6590  -25.6290   19.4080 C   0  0  0  0  0  2  0  0  0  0  0  0
  -28.4360  -26.7850   20.2160 O   0  0  0  0  0  0  0  0  0  0  0  0
  -24.5490  -31.8840   23.2510 C   0  0  0  0  0  0  0  0  0  0  0  0
  -27.2260  -27.4480   20.1920 C   0  0  0  0  0  0  0  0  0  0  0  0
  -23.3570  -30.4840   21.5960 C   0  0  0  0  0  3  0  0  0  0  0  0
  -24.8210  -28.9410   20.1890 C   0  0  0  0  0  0  0  0  0  0  0  0
  -25.8820  -30.8410   21.4240 C   0  0  0  0  0  2  0  0  0  0  0  0
  -25.9700  -29.4680   20.7890 C   0  0  0  0  0  0  0  0  0  0  0  0
  -27.1700  -28.7240   20.7940 C   0  0  0  0  0  3  0  0  0  0  0  0
  -26.0520  -26.9220   19.6040 C   0  0  0  0  0  3  0  0  0  0  0  0
  -24.8560  -27.6650   19.5990 C   0  0  0  0  0  3  0  0  0  0  0  0
  -23.5780  -29.8010   20.2190 C   0  0  0  0  0  2  0  0  0  0  0  0
  -24.6140  -31.0850   22.1500 N   0  0  0  0  0  0  0  0  0  0  0  0
  -23.4630  -32.1590   23.7800 O   0  0  0  0  0  0  0  0  0  0  0  0
  -22.6940  -29.4650   22.5490 C   0  0  0  0  0  0  0  0  0  0  0  0
  -21.3730  -29.2780   22.4000 N   0  0  0  0  0  0  0  0  0  0  0  0
  -23.3660  -28.8450   23.3780 O   0  0  0  0  0  0  0  0  0  0  0  0
  -20.8930  -29.8300   21.7030 H   0  0  0  0  0  0  0  0  0  0  0  0
  -17.9950  -28.0750   22.8370 C   0  0  0  0  0  0  0  0  0  0  0  0
  -20.5460  -28.3400   23.1590 C   0  0  0  0  0  3  0  0  0  0  0  0
  -20.6640  -26.9080   22.5900 C   0  0  0  0  0  2  0  0  0  0  0  0
  -19.5830  -26.5780   21.5560 C   0  0  0  0  0  2  0  0  0  0  0  0
  -18.1880  -26.7230   22.1710 C   0  0  0  0  0  2  0  0  0  0  0  0
  -19.1030  -28.8410   23.2860 C   0  0  0  0  0  0  0  0  0  0  0  0
  -18.8700  -30.1070   23.8660 C   0  0  0  0  0  3  0  0  0  0  0  0
  -17.5620  -30.6060   24.0030 C   0  0  0  0  0  3  0  0  0  0  0  0
  -16.4680  -29.8370   23.5720 C   0  0  0  0  0  3  0  0  0  0  0  0
  -16.6850  -28.5740   22.9940 C   0  0  0  0  0  3  0  0  0  0  0  0
  -25.8300  -32.5110   23.8850 C   0  0  0  0  0  3  0  0  0  0  0  0
  -25.5240  -33.9110   24.2060 N   0  0  0  0  0  0  0  0  0  0  0  0
  -25.8760  -34.9590   23.4470 C   0  0  0  0  0  0  0  0  0  0  0  0
  -26.5640  -34.8470   22.4280 O   0  0  0  0  0  0  0  0  0  0  0  0
  -24.9150  -34.0730   24.9930 H   0  0  0  0  0  0  0  0  0  0  0  0
  -24.1640  -36.7590   23.0520 C   0  0  0  0  0  1  0  0  0  0  0  0
  -25.3870  -36.3520   23.8890 C   0  0  0  0  0  3  0  0  0  0  0  0
  -27.5110  -37.2260   24.7570 C   0  0  0  0  0  1  0  0  0  0  0  0
  -26.4270  -37.3980   23.7930 N   0  0  0  0  0  0  0  0  0  0  0  0
  -26.0240  -38.3210   23.9330 H   0  0  0  0  0  0  0  0  0  0  0  0
  -26.3300  -31.7410   25.1690 C   0  0  1  0  0  0  0  0  0  0  0  0
  -25.2250  -31.5100   26.2250 C   0  0  0  0  0  1  0  0  0  0  0  0
  -26.9110  -30.3610   24.7850 C   0  0  0  0  0  1  0  0  0  0  0  0
  -27.4770  -32.5320   25.8420 C   0  0  0  0  0  1  0  0  0  0  0  0
  -29.6540  -20.8240   19.3210 O   0  0  0  0  0  0  0  0  0  0  0  0
  -30.5940  -17.2870   19.1520 C   0  0  0  0  0  3  0  0  0  0  0  0
  -30.4770  -18.6470   18.8290 C   0  0  0  0  0  3  0  0  0  0  0  0
  -29.3170  -17.7540   21.1450 C   0  0  0  0  0  3  0  0  0  0  0  0
  -29.9990  -16.8130   20.3440 C   0  0  0  0  0  0  0  0  0  0  0  0
  -29.7730  -19.5000   19.6890 C   0  0  0  0  0  0  0  0  0  0  0  0
  -29.2030  -19.0680   20.8360 N   0  0  0  0  0  0  0  0  0  0  0  0
  -30.6770  -14.4320   20.1310 C   0  0  0  0  0  0  0  0  0  0  0  0
  -30.3010  -12.3200   18.9360 C   0  0  0  0  0  2  0  0  0  0  0  0
  -29.3090  -12.5990   17.7870 C   0  0  0  0  0  2  0  0  0  0  0  0
  -27.8530  -12.4720   18.2800 C   0  0  0  0  0  2  0  0  0  0  0  0
  -27.5920  -13.2620   19.5910 C   0  0  0  0  0  3  0  0  0  0  0  0
  -28.6920  -12.9660   20.6370 C   0  0  0  0  0  2  0  0  0  0  0  0
  -29.9990  -13.2610   20.0230 N   0  0  0  0  0  0  0  0  0  0  0  0
  -31.7850  -14.6180   19.6220 O   0  0  0  0  0  0  0  0  0  0  0  0
  -29.9970  -15.4320   20.7220 N   0  0  0  0  0  0  0  0  0  0  0  0
  -29.2260  -15.1360   21.3030 H   0  0  0  0  0  0  0  0  0  0  0  0
  -25.2270  -13.8770   20.3980 C   0  0  0  0  0  0  0  0  0  0  0  0
  -24.1710  -13.1080   20.8090 C   0  0  0  0  0  0  0  0  0  0  0  0
  -24.6240  -11.7540   20.7520 C   0  0  0  0  0  0  0  0  0  0  0  0
  -26.2570  -12.9920   20.1210 N   0  0  0  0  0  0  0  0  0  0  0  0
  -25.8990  -11.7110   20.3900 N   0  0  0  0  0  0  0  0  0  0  0  0
  -23.9010  -10.4940   20.9670 C   0  0  0  0  0  0  0  0  0  0  0  0
  -24.3630   -9.5260   21.8860 C   0  0  0  0  0  3  0  0  0  0  0  0
  -23.6420   -8.3300   22.0890 C   0  0  0  0  0  3  0  0  0  0  0  0
  -22.4440   -8.0940   21.3720 C   0  0  0  0  0  0  0  0  0  0  0  0
  -22.0020   -9.0510   20.4410 C   0  0  0  0  0  3  0  0  0  0  0  0
  -22.7240  -10.2380   20.2370 C   0  0  0  0  0  3  0  0  0  0  0  0
  -21.6920   -6.9510   21.4830 O   0  0  0  0  0  0  0  0  0  0  0  0
  -21.6710   -6.2120   22.6400 C   0  0  0  0  0  0  0  0  0  0  0  0
  -21.2750   -6.7720   23.8740 C   0  0  0  0  0  3  0  0  0  0  0  0
  -21.2020   -5.9600   25.0230 C   0  0  0  0  0  3  0  0  0  0  0  0
  -21.5140   -4.5900   24.9400 C   0  0  0  0  0  0  0  0  0  0  0  0
  -21.9040   -4.0300   23.7110 C   0  0  0  0  0  3  0  0  0  0  0  0
  -21.9790   -4.8390   22.5630 C   0  0  0  0  0  0  0  0  0  0  0  0
  -22.3340   -4.2900   21.3770 F   0  0  0  0  0  0  0  0  0  0  0  0
  -21.4370   -3.8090   26.0420 F   0  0  0  0  0  0  0  0  0  0  0  0
  -22.7890  -13.5900   21.1430 C   0  0  0  0  0  0  0  0  0  0  0  0
  -22.0960  -12.8910   22.0360 N   0  0  0  0  0  0  0  0  0  0  0  0
  -22.3340  -14.6200   20.6490 O   0  0  0  0  0  0  0  0  0  0  0  0
  -22.4770  -12.0570   22.4570 H   0  0  0  0  0  0  0  0  0  0  0  0
  -21.1700  -13.1950   22.3010 H   0  0  0  0  0  0  0  0  0  0  0  0
  -25.3910  -15.2480   20.2220 N   0  0  0  0  0  0  0  0  0  0  0  0
  -24.6300  -15.9060   20.3580 H   0  0  0  0  0  0  0  0  0  0  0  0
  -26.2250  -15.6810   19.8460 H   0  0  0  0  0  0  0  0  0  0  0  0
  2  1  1  0
  2  3  1  0
  4  3  1  0
  4  5  1  0
  6 17  2  0
  7  5  1  0
  7 12  1  0
  8 16  1  0
  8 18  1  0
  9 15  1  0
  9 11  1  0
 10 16  1  0
 11 12  2  0
 11 10  1  0
 13  7  2  0
 14 13  1  0
 14  9  2  0
 15  8  1  0
 16  6  1  0
 18 20  2  0
 19 18  1  0
 21 19  1  0
 22 31  2  0
 22 27  1  0
 23 19  1  0
 23 27  1  0
 24 23  1  0
 25 26  1  0
 25 24  1  0
 26 22  1  0
 27 28  2  0
 28 29  1  0
 30 29  2  0
 31 30  1  0
 32  6  1  0
 32 33  1  0
 32 42  1  0
 33 36  1  0
 34 38  1  0
 34 33  1  0
 35 34  2  0
 38 37  1  0
 40 38  1  0
 40 41  1  0
 40 39  1  0
 42 45  1  1
 42 43  1  0
 44 42  1  0
 46 51  1  0
 46  1  1  0
 47 50  1  0
 48 47  2  0
 48 51  1  0
 50 61  1  0
 50 49  2  0
 51 52  2  0
 52 49  1  0
 53 61  1  0
 54 59  1  0
 55 56  1  0
 55 54  1  0
 57 56  1  0
 57 66  1  0
 57 58  1  0
 59 53  1  0
 59 58  1  0
 60 53  2  0
 61 62  1  0
 63 64  2  0
 64 83  1  0
 65 64  1  0
 65 68  1  0
 66 67  1  0
 66 63  1  0
 67 65  2  0
 68 69  1  0
 69 70  2  0
 71 74  1  0
 71 70  1  0
 72 71  2  0
 73 72  1  0
 73 68  2  0
 74 75  1  0
 75 76  1  0
 76 77  2  0
 78 77  1  0
 78 82  1  0
 79 78  2  0
 80 75  2  0
 80 79  1  0
 81 80  1  0
 83 84  1  0
 84 87  1  0
 84 86  1  0
 85 83  2  0
 88 89  1  0
 88 63  1  0
 90 88  1  0
M  ISO  4   4 101   5 101  53 100  61 100
M  END
>  <TORSDO>  (16) 
F 21

>  <SCORE>  (16) 
-13.233

>  <name>  (16) 
15

>  <ligand_id>  (16) 
15

>  <original_smiles>  (16) 
[H]c1nc(OC([H])([H])C([H])([H])C([H])([H])C([H])([H])Oc2c([H])c([H])c3c(c2[H])C([H])([H])N(C(=O)C([H])(N([H])C(=O)C([H])(N([H])C([H])([H])[H])C([H])([H])[H])C(C([H])([H])[H])(C([H])([H])[H])C([H])([H])[H])C([H])(C(=O)N([H])C2([H])c4c([H])c([H])c([H])c([H])c4C([H])([H])C([H])([H])C2([H])[H])C3([H])[H])c([H])c([H])c1N([H])C(=O)N1C([H])([H])C([H])([H])C([H])([H])C([H])(n2nc(-c3c([H])c([H])c(Oc4c([H])c([H])c(F)c([H])c4F)c([H])c3[H])c(C(=O)N([H])[H])c2N([H])[H])C1([H])[H]

>  <smiles>  (16) 
[H]c1nc(OC([H])([H])C([H])([H])C([H])([H])C([H])([H])Oc2c([H])c([H])c3c(c2[H])C([H])([H])N(C(=O)C([H])(N([H])C(=O)C([H])(N([H])C([H])([H])[H])C([H])([H])[H])C(C([H])([H])[H])(C([H])([H])[H])C([H])([H])[H])C([H])(C(=O)N([H])C2([H])c4c([H])c([H])c([H])c([H])c4C([H])([H])C([H])([H])C2([H])[H])C3([H])[H])c([H])c([H])c1N([H])C(=O)N1C([H])([H])C([H])([H])C([H])([H])C([H])(n2nc(-c3c([H])c([H])c(Oc4c([H])c([H])c(F)c([H])c4F)c([H])c3[H])c(C(=O)N([H])[H])c2N([H])[H])C1([H])[H]

$$$$
16:0:0
     RDKit          3D

 90 98  0  0  1  0  0  0  0  0999 V2000
  -28.2610  -21.6180   21.0860 C   0  0  0  0  0  3  0  0  0  0  0  0
  -28.1040  -22.7940   20.0730 C   0  0  0  0  0  3  0  0  0  0  0  0
  -28.1500  -24.2290   20.7040 C   0  0  0  0  0  2  0  0  0  0  0  0
  -28.5430  -25.3690   19.7180 C   0  0  0  0  0  2  0  0  0  0  0  0
  -28.4560  -26.7150   20.2430 O   0  0  0  0  0  0  0  0  0  0  0  0
  -24.6090  -31.9120   23.2320 C   0  0  0  0  0  0  0  0  0  0  0  0
  -27.2650  -27.4270   20.2000 C   0  0  0  0  0  0  0  0  0  0  0  0
  -23.4060  -30.4960   21.5970 C   0  0  0  0  0  3  0  0  0  0  0  0
  -24.8670  -28.9470   20.1890 C   0  0  0  0  0  0  0  0  0  0  0  0
  -25.9290  -30.8600   21.3880 C   0  0  0  0  0  2  0  0  0  0  0  0
  -26.0240  -29.4770   20.7700 C   0  0  0  0  0  0  0  0  0  0  0  0
  -27.2270  -28.7270   20.7680 C   0  0  0  0  0  3  0  0  0  0  0  0
  -26.0830  -26.9120   19.6220 C   0  0  0  0  0  3  0  0  0  0  0  0
  -24.8940  -27.6650   19.6110 C   0  0  0  0  0  3  0  0  0  0  0  0
  -23.6200  -29.8040   20.2230 C   0  0  0  0  0  2  0  0  0  0  0  0
  -24.6670  -31.1030   22.1340 N   0  0  0  0  0  0  0  0  0  0  0  0
  -23.5260  -32.1840   23.7700 O   0  0  0  0  0  0  0  0  0  0  0  0
  -22.7510  -29.4820   22.5640 C   0  0  0  0  0  0  0  0  0  0  0  0
  -21.4260  -29.3020   22.4410 N   0  0  0  0  0  0  0  0  0  0  0  0
  -23.4350  -28.8590   23.3810 O   0  0  0  0  0  0  0  0  0  0  0  0
  -20.9310  -29.8660   21.7650 H   0  0  0  0  0  0  0  0  0  0  0  0
  -18.0560  -28.1030   22.9420 C   0  0  0  0  0  0  0  0  0  0  0  0
  -20.6120  -28.3640   23.2150 C   0  0  0  0  0  3  0  0  0  0  0  0
  -20.7160  -26.9300   22.6460 C   0  0  0  0  0  2  0  0  0  0  0  0
  -19.6150  -26.6020   21.6310 C   0  0  0  0  0  2  0  0  0  0  0  0
  -18.2330  -26.7500   22.2750 C   0  0  0  0  0  2  0  0  0  0  0  0
  -19.1730  -28.8670   23.3720 C   0  0  0  0  0  0  0  0  0  0  0  0
  -18.9560  -30.1320   23.9580 C   0  0  0  0  0  3  0  0  0  0  0  0
  -17.6500  -30.6340   24.1170 C   0  0  0  0  0  3  0  0  0  0  0  0
  -16.5460  -29.8670   23.7060 C   0  0  0  0  0  3  0  0  0  0  0  0
  -16.7490  -28.6030   23.1240 C   0  0  0  0  0  3  0  0  0  0  0  0
  -25.8910  -32.5520   23.8520 C   0  0  0  0  0  3  0  0  0  0  0  0
  -25.5830  -33.9530   24.1680 N   0  0  0  0  0  0  0  0  0  0  0  0
  -25.9160  -34.9980   23.3980 C   0  0  0  0  0  0  0  0  0  0  0  0
  -26.5900  -34.8830   22.3700 O   0  0  0  0  0  0  0  0  0  0  0  0
  -24.9930  -34.1170   24.9700 H   0  0  0  0  0  0  0  0  0  0  0  0
  -24.1950  -36.7920   23.0110 C   0  0  0  0  0  1  0  0  0  0  0  0
  -25.4270  -36.3910   23.8380 C   0  0  0  0  0  3  0  0  0  0  0  0
  -27.5590  -37.2830   24.6720 C   0  0  0  0  0  1  0  0  0  0  0  0
  -26.4600  -37.4430   23.7220 N   0  0  0  0  0  0  0  0  0  0  0  0
  -26.0540  -38.3650   23.8600 H   0  0  0  0  0  0  0  0  0  0  0  0
  -26.4040  -31.7930   25.1370 C   0  0  1  0  0  0  0  0  0  0  0  0
  -25.3120  -31.5670   26.2090 C   0  0  0  0  0  1  0  0  0  0  0  0
  -26.9830  -30.4120   24.7520 C   0  0  0  0  0  1  0  0  0  0  0  0
  -27.5520  -32.5920   25.7980 C   0  0  0  0  0  1  0  0  0  0  0  0
  -28.1190  -20.2960   20.5190 O   0  0  0  0  0  0  0  0  0  0  0  0
  -31.6210  -19.1510   19.9750 C   0  0  0  0  0  3  0  0  0  0  0  0
  -31.4870  -17.7550   20.1630 C   0  0  0  0  0  3  0  0  0  0  0  0
  -30.5110  -20.0080   20.0960 C   0  0  0  0  0  3  0  0  0  0  0  0
  -29.1170  -18.0700   20.5680 C   0  0  0  0  0  3  0  0  0  0  0  0
  -30.2230  -17.1770   20.4620 C   0  0  0  0  0  0  0  0  0  0  0  0
  -29.2410  -19.4810   20.4080 C   0  0  0  0  0  0  0  0  0  0  0  0
  -30.6930  -14.6470   20.3060 C   0  0  0  0  0  0  0  0  0  0  0  0
  -30.3530  -12.4180   19.2820 C   0  0  0  0  0  2  0  0  0  0  0  0
  -29.4270  -12.6010   18.0630 C   0  0  0  0  0  2  0  0  0  0  0  0
  -27.9510  -12.4800   18.4860 C   0  0  0  0  0  2  0  0  0  0  0  0
  -27.6060  -13.3160   19.7480 C   0  0  0  0  0  3  0  0  0  0  0  0
  -28.6820  -13.1820   20.8540 C   0  0  0  0  0  2  0  0  0  0  0  0
  -30.0000  -13.4630   20.2590 N   0  0  0  0  0  0  0  0  0  0  0  0
  -31.8460  -14.7330   19.8850 O   0  0  0  0  0  0  0  0  0  0  0  0
  -29.9850  -15.7530   20.6780 N   0  0  0  0  0  0  0  0  0  0  0  0
  -29.0620  -15.5380   21.0170 H   0  0  0  0  0  0  0  0  0  0  0  0
  -25.2150  -13.8910   20.4900 C   0  0  0  0  0  0  0  0  0  0  0  0
  -24.1530  -13.1150   20.8710 C   0  0  0  0  0  0  0  0  0  0  0  0
  -24.6210  -11.7640   20.8310 C   0  0  0  0  0  0  0  0  0  0  0  0
  -26.2620  -13.0200   20.2470 N   0  0  0  0  0  0  0  0  0  0  0  0
  -25.9100  -11.7340   20.5100 N   0  0  0  0  0  0  0  0  0  0  0  0
  -23.8970  -10.5010   21.0240 C   0  0  0  0  0  0  0  0  0  0  0  0
  -24.3400   -9.5250   21.9470 C   0  0  0  0  0  3  0  0  0  0  0  0
  -23.6110   -8.3300   22.1280 C   0  0  0  0  0  3  0  0  0  0  0  0
  -22.4260   -8.1020   21.3870 C   0  0  0  0  0  0  0  0  0  0  0  0
  -22.0050   -9.0620   20.4540 C   0  0  0  0  0  3  0  0  0  0  0  0
  -22.7350  -10.2500   20.2670 C   0  0  0  0  0  3  0  0  0  0  0  0
  -21.6680   -6.9590   21.4770 O   0  0  0  0  0  0  0  0  0  0  0  0
  -21.6330   -6.2060   22.6230 C   0  0  0  0  0  0  0  0  0  0  0  0
  -21.2260   -6.7500   23.8610 C   0  0  0  0  0  3  0  0  0  0  0  0
  -21.1360   -5.9250   24.9980 C   0  0  0  0  0  3  0  0  0  0  0  0
  -21.4470   -4.5540   24.9020 C   0  0  0  0  0  0  0  0  0  0  0  0
  -21.8490   -4.0090   23.6690 C   0  0  0  0  0  3  0  0  0  0  0  0
  -21.9390   -4.8330   22.5330 C   0  0  0  0  0  0  0  0  0  0  0  0
  -22.3060   -4.2990   21.3430 F   0  0  0  0  0  0  0  0  0  0  0  0
  -21.3560   -3.7590   25.9930 F   0  0  0  0  0  0  0  0  0  0  0  0
  -22.7590  -13.5930   21.1550 C   0  0  0  0  0  0  0  0  0  0  0  0
  -22.0390  -12.8890   22.0270 N   0  0  0  0  0  0  0  0  0  0  0  0
  -22.3130  -14.6170   20.6450 O   0  0  0  0  0  0  0  0  0  0  0  0
  -22.4130  -12.0630   22.4670 H   0  0  0  0  0  0  0  0  0  0  0  0
  -21.1000  -13.1830   22.2560 H   0  0  0  0  0  0  0  0  0  0  0  0
  -25.3730  -15.2640   20.3070 N   0  0  0  0  0  0  0  0  0  0  0  0
  -24.5850  -15.9040   20.3290 H   0  0  0  0  0  0  0  0  0  0  0  0
  -26.1920  -15.6730   19.8760 H   0  0  0  0  0  0  0  0  0  0  0  0
  2  3  1  0
  2  1  2  0
  4  5  1  0
  4  3  1  0
  6 17  2  0
  7  5  1  0
  7 12  1  0
  8 16  1  0
  8 18  1  0
  9 15  1  0
  9 11  1  0
 10 16  1  0
 11 10  1  0
 12 11  2  0
 13  7  2  0
 14 13  1  0
 14  9  2  0
 15  8  1  0
 16  6  1  0
 18 20  2  0
 19 18  1  0
 21 19  1  0
 22 31  2  0
 22 27  1  0
 23 19  1  0
 23 27  1  0
 24 23  1  0
 25 26  1  0
 25 24  1  0
 26 22  1  0
 27 28  2  0
 28 29  1  0
 30 29  2  0
 31 30  1  0
 32  6  1  0
 32 33  1  0
 32 42  1  0
 33 36  1  0
 34 38  1  0
 34 33  1  0
 35 34  2  0
 38 37  1  0
 40 38  1  0
 40 41  1  0
 40 39  1  0
 42 45  1  1
 42 43  1  0
 44 42  1  0
 46  1  1  0
 47 49  2  0
 47 48  1  0
 48 51  2  0
 49 52  1  0
 51 50  1  0
 51 61  1  0
 52 46  1  0
 52 50  2  0
 53 61  1  0
 54 59  1  0
 55 56  1  0
 55 54  1  0
 57 56  1  0
 57 66  1  0
 57 58  1  0
 59 53  1  0
 59 58  1  0
 60 53  2  0
 61 62  1  0
 63 64  2  0
 64 83  1  0
 65 64  1  0
 65 68  1  0
 66 63  1  0
 66 67  1  0
 67 65  2  0
 68 69  1  0
 69 70  2  0
 71 74  1  0
 71 70  1  0
 72 71  2  0
 73 72  1  0
 73 68  2  0
 74 75  1  0
 75 76  1  0
 76 77  2  0
 78 77  1  0
 78 82  1  0
 79 78  2  0
 80 75  2  0
 80 79  1  0
 81 80  1  0
 83 84  1  0
 84 87  1  0
 84 86  1  0
 85 83  2  0
 88 89  1  0
 88 63  1  0
 90 88  1  0
M  ISO  4   4 101   5 101  53 100  61 100
M  END
>  <TORSDO>  (17) 
F 21

>  <SCORE>  (17) 
-13.667

>  <name>  (17) 
16

>  <ligand_id>  (17) 
16

>  <original_smiles>  (17) 
[H]c1c([H])c(OC([H])([H])C([H])([H])C([H])([H])C([H])([H])Oc2c([H])c([H])c3c(c2[H])C([H])([H])N(C(=O)C([H])(N([H])C(=O)C([H])(N([H])C([H])([H])[H])C([H])([H])[H])C(C([H])([H])[H])(C([H])([H])[H])C([H])([H])[H])C([H])(C(=O)N([H])C2([H])c4c([H])c([H])c([H])c([H])c4C([H])([H])C([H])([H])C2([H])[H])C3([H])[H])c([H])c(N([H])C(=O)N2C([H])([H])C([H])([H])C([H])([H])C([H])(n3nc(-c4c([H])c([H])c(Oc5c([H])c([H])c(F)c([H])c5F)c([H])c4[H])c(C(=O)N([H])[H])c3N([H])[H])C2([H])[H])c1[H]

>  <smiles>  (17) 
[H]c1c([H])c(OC([H])([H])C([H])([H])C([H])([H])C([H])([H])Oc2c([H])c([H])c3c(c2[H])C([H])([H])N(C(=O)C([H])(N([H])C(=O)C([H])(N([H])C([H])([H])[H])C([H])([H])[H])C(C([H])([H])[H])(C([H])([H])[H])C([H])([H])[H])C([H])(C(=O)N([H])C2([H])c4c([H])c([H])c([H])c([H])c4C([H])([H])C([H])([H])C2([H])[H])C3([H])[H])c([H])c(N([H])C(=O)N2C([H])([H])C([H])([H])C([H])([H])C([H])(n3nc(-c4c([H])c([H])c(Oc5c([H])c([H])c(F)c([H])c5F)c([H])c4[H])c(C(=O)N([H])[H])c3N([H])[H])C2([H])[H])c1[H]

$$$$
17:0:0
     RDKit          3D

 93101  0  0  1  0  0  0  0  0999 V2000
  -28.9630  -22.5030   20.1860 C   0  0  0  0  0  0  0  0  0  0  0  0
  -29.8300  -21.5540   20.6650 N   0  0  0  0  0  0  0  0  0  0  0  0
  -27.9410  -22.2010   19.5650 O   0  0  0  0  0  0  0  0  0  0  0  0
  -30.6050  -21.9450   21.1820 H   0  0  0  0  0  0  0  0  0  0  0  0
  -28.9550  -19.3160   19.7970 C   0  0  0  0  0  3  0  0  0  0  0  0
  -30.7740  -17.9120   21.3970 C   0  0  0  0  0  3  0  0  0  0  0  0
  -28.9760  -17.8900   19.7890 C   0  0  0  0  0  0  0  0  0  0  0  0
  -30.7620  -19.3420   21.3920 C   0  0  0  0  0  0  0  0  0  0  0  0
  -29.8270  -20.0870   20.6110 C   0  0  0  0  0  0  0  0  0  0  0  0
  -29.8710  -17.1490   20.6160 C   0  0  0  0  0  0  0  0  0  0  0  0
  -28.0140  -17.1760   18.8580 C   0  0  0  0  0  1  0  0  0  0  0  0
  -31.7640  -20.0720   22.2710 C   0  0  0  0  0  1  0  0  0  0  0  0
  -30.5640  -14.6560   20.5360 C   0  0  0  0  0  0  0  0  0  0  0  0
  -30.3800  -12.4070   19.5000 C   0  0  0  0  0  2  0  0  0  0  0  0
  -29.4520  -12.5240   18.2690 C   0  0  0  0  0  2  0  0  0  0  0  0
  -27.9720  -12.3690   18.6760 C   0  0  0  0  0  2  0  0  0  0  0  0
  -27.5910  -13.2430   19.9010 C   0  0  0  0  0  3  0  0  0  0  0  0
  -28.6340  -13.0990   21.0320 C   0  0  0  0  0  2  0  0  0  0  0  0
  -29.9540  -13.4320   20.4700 N   0  0  0  0  0  0  0  0  0  0  0  0
  -31.7440  -14.8140   20.2090 O   0  0  0  0  0  0  0  0  0  0  0  0
  -29.7220  -15.7060   20.7710 N   0  0  0  0  0  0  0  0  0  0  0  0
  -28.7710  -15.3990   20.9100 H   0  0  0  0  0  0  0  0  0  0  0  0
  -25.1860  -13.8520   20.5790 C   0  0  0  0  0  0  0  0  0  0  0  0
  -24.1100  -13.0840   20.9290 C   0  0  0  0  0  0  0  0  0  0  0  0
  -24.5700  -11.7320   20.9120 C   0  0  0  0  0  0  0  0  0  0  0  0
  -26.2330  -12.9690   20.3650 N   0  0  0  0  0  0  0  0  0  0  0  0
  -25.8660  -11.6880   20.6260 N   0  0  0  0  0  0  0  0  0  0  0  0
  -23.8370  -10.4740   21.0950 C   0  0  0  0  0  0  0  0  0  0  0  0
  -24.2640   -9.5010   22.0250 C   0  0  0  0  0  3  0  0  0  0  0  0
  -23.5310   -8.3060   22.1970 C   0  0  0  0  0  3  0  0  0  0  0  0
  -22.3580   -8.0790   21.4390 C   0  0  0  0  0  0  0  0  0  0  0  0
  -21.9510   -9.0410   20.4980 C   0  0  0  0  0  3  0  0  0  0  0  0
  -22.6850  -10.2270   20.3240 C   0  0  0  0  0  3  0  0  0  0  0  0
  -21.5980   -6.9380   21.5200 O   0  0  0  0  0  0  0  0  0  0  0  0
  -21.5560   -6.1810   22.6640 C   0  0  0  0  0  0  0  0  0  0  0  0
  -21.1410   -6.7220   23.9000 C   0  0  0  0  0  3  0  0  0  0  0  0
  -21.0450   -5.8930   25.0350 C   0  0  0  0  0  3  0  0  0  0  0  0
  -21.3540   -4.5230   24.9350 C   0  0  0  0  0  0  0  0  0  0  0  0
  -21.7630   -3.9820   23.7040 C   0  0  0  0  0  3  0  0  0  0  0  0
  -21.8610   -4.8090   22.5700 C   0  0  0  0  0  0  0  0  0  0  0  0
  -22.2340   -4.2770   21.3810 F   0  0  0  0  0  0  0  0  0  0  0  0
  -21.2550   -3.7240   26.0230 F   0  0  0  0  0  0  0  0  0  0  0  0
  -22.7100  -13.5690   21.1730 C   0  0  0  0  0  0  0  0  0  0  0  0
  -21.9650  -12.8840   22.0330 N   0  0  0  0  0  0  0  0  0  0  0  0
  -22.2840  -14.5910   20.6360 O   0  0  0  0  0  0  0  0  0  0  0  0
  -22.3210  -12.0580   22.4910 H   0  0  0  0  0  0  0  0  0  0  0  0
  -21.0250  -13.1920   22.2380 H   0  0  0  0  0  0  0  0  0  0  0  0
  -25.3510  -15.2210   20.4080 N   0  0  0  0  0  0  0  0  0  0  0  0
  -24.5830  -15.8730   20.5220 H   0  0  0  0  0  0  0  0  0  0  0  0
  -26.2090  -15.6680   20.1190 H   0  0  0  0  0  0  0  0  0  0  0  0
  -29.2650  -24.0350   20.4320 C   0  0  0  0  0  3  0  0  0  0  0  0
  -28.1460  -25.0730   19.9910 C   0  0  0  0  0  3  0  0  0  0  0  0
  -28.3370  -26.5200   20.2320 O   0  0  0  0  0  0  0  0  0  0  0  0
  -24.6150  -31.8890   23.2720 C   0  0  0  0  0  0  0  0  0  0  0  0
  -27.2070  -27.3520   20.1810 C   0  0  0  0  0  0  0  0  0  0  0  0
  -23.3970  -30.4980   21.6350 C   0  0  0  0  0  3  0  0  0  0  0  0
  -24.8360  -28.9550   20.1930 C   0  0  0  0  0  0  0  0  0  0  0  0
  -25.9340  -30.8170   21.4360 C   0  0  0  0  0  2  0  0  0  0  0  0
  -26.0080  -29.4430   20.7840 C   0  0  0  0  0  0  0  0  0  0  0  0
  -27.1940  -28.6530   20.7700 C   0  0  0  0  0  3  0  0  0  0  0  0
  -26.0100  -26.9160   19.5640 C   0  0  0  0  0  3  0  0  0  0  0  0
  -24.8380  -27.6950   19.5740 C   0  0  0  0  0  3  0  0  0  0  0  0
  -23.6000  -29.8270   20.2500 C   0  0  0  0  0  2  0  0  0  0  0  0
  -24.6670  -31.0850   22.1700 N   0  0  0  0  0  0  0  0  0  0  0  0
  -23.5350  -32.1680   23.8140 O   0  0  0  0  0  0  0  0  0  0  0  0
  -22.7400  -29.4790   22.5960 C   0  0  0  0  0  0  0  0  0  0  0  0
  -21.4130  -29.3000   22.4690 N   0  0  0  0  0  0  0  0  0  0  0  0
  -23.4190  -28.8540   23.4130 O   0  0  0  0  0  0  0  0  0  0  0  0
  -20.9260  -29.8560   21.7800 H   0  0  0  0  0  0  0  0  0  0  0  0
  -18.0370  -28.1000   22.9640 C   0  0  0  0  0  0  0  0  0  0  0  0
  -20.5940  -28.3640   23.2400 C   0  0  0  0  0  3  0  0  0  0  0  0
  -20.7010  -26.9310   22.6680 C   0  0  0  0  0  2  0  0  0  0  0  0
  -19.6020  -26.6050   21.6520 C   0  0  0  0  0  2  0  0  0  0  0  0
  -18.2180  -26.7500   22.2910 C   0  0  0  0  0  2  0  0  0  0  0  0
  -19.1540  -28.8660   23.3950 C   0  0  0  0  0  0  0  0  0  0  0  0
  -18.9310  -30.1290   23.9830 C   0  0  0  0  0  3  0  0  0  0  0  0
  -17.6250  -30.6280   24.1450 C   0  0  0  0  0  3  0  0  0  0  0  0
  -16.5230  -29.8600   23.7310 C   0  0  0  0  0  3  0  0  0  0  0  0
  -16.7300  -28.5980   23.1460 C   0  0  0  0  0  3  0  0  0  0  0  0
  -25.9030  -32.5140   23.8880 C   0  0  0  0  0  3  0  0  0  0  0  0
  -26.4210  -31.7400   25.1630 C   0  0  1  0  0  0  0  0  0  0  0  0
  -25.3320  -31.5100   26.2370 C   0  0  0  0  0  1  0  0  0  0  0  0
  -26.9940  -30.3590   24.7690 C   0  0  0  0  0  1  0  0  0  0  0  0
  -27.5800  -32.5290   25.8180 C   0  0  0  0  0  1  0  0  0  0  0  0
  -25.6020  -33.9150   24.2210 N   0  0  0  0  0  0  0  0  0  0  0  0
  -25.9220  -34.9640   23.4530 C   0  0  0  0  0  0  0  0  0  0  0  0
  -26.5720  -34.8570   22.4090 O   0  0  0  0  0  0  0  0  0  0  0  0
  -25.0230  -34.0720   25.0320 H   0  0  0  0  0  0  0  0  0  0  0  0
  -24.1830  -36.7540   23.1350 C   0  0  0  0  0  1  0  0  0  0  0  0
  -25.4450  -36.3540   23.9150 C   0  0  0  0  0  3  0  0  0  0  0  0
  -27.6000  -37.2440   24.6870 C   0  0  0  0  0  1  0  0  0  0  0  0
  -26.4740  -37.4080   23.7710 N   0  0  0  0  0  0  0  0  0  0  0  0
  -26.0700  -38.3280   23.9260 H   0  0  0  0  0  0  0  0  0  0  0  0
  1 51  1  0
  1  2  1  0
  2  4  1  0
  3  1  2  0
  5  9  1  0
  7  5  2  0
  7 10  1  0
  8  6  1  0
  8 12  1  0
  9  2  1  0
  9  8  2  0
 10 21  1  0
 10  6  2  0
 11  7  1  0
 13 21  1  0
 14 19  1  0
 15 16  1  0
 15 14  1  0
 17 16  1  0
 17 26  1  0
 17 18  1  0
 19 13  1  0
 19 18  1  0
 20 13  2  0
 21 22  1  0
 23 24  2  0
 24 43  1  0
 25 24  1  0
 25 28  1  0
 26 23  1  0
 26 27  1  0
 27 25  2  0
 28 29  1  0
 29 30  2  0
 31 34  1  0
 31 30  1  0
 32 31  2  0
 33 32  1  0
 33 28  2  0
 34 35  1  0
 35 36  1  0
 36 37  2  0
 38 37  1  0
 38 42  1  0
 39 38  2  0
 40 35  2  0
 40 39  1  0
 41 40  1  0
 43 44  1  0
 44 47  1  0
 44 46  1  0
 45 43  2  0
 48 49  1  0
 48 23  1  0
 50 48  1  0
 52 53  1  0
 52 51  2  0
 54 65  2  0
 55 53  1  0
 55 60  1  0
 56 64  1  0
 56 66  1  0
 57 63  1  0
 57 59  1  0
 58 64  1  0
 59 58  1  0
 60 59  2  0
 61 62  1  0
 61 55  2  0
 62 57  2  0
 63 56  1  0
 64 54  1  0
 66 68  2  0
 67 66  1  0
 69 67  1  0
 70 79  2  0
 70 75  1  0
 71 67  1  0
 71 75  1  0
 72 71  1  0
 73 74  1  0
 73 72  1  0
 74 70  1  0
 75 76  2  0
 76 77  1  0
 78 77  2  0
 79 78  1  0
 80 54  1  0
 80 85  1  0
 80 81  1  0
 81 84  1  1
 81 82  1  0
 83 81  1  0
 85 88  1  0
 86 90  1  0
 86 85  1  0
 87 86  2  0
 90 89  1  0
 92 90  1  0
 92 93  1  0
 92 91  1  0
M  ISO  4  13 100  21 100  52 101  53 101
M  END
>  <TORSDO>  (18) 
F 19

>  <SCORE>  (18) 
-14.682

>  <name>  (18) 
17

>  <ligand_id>  (18) 
17

>  <original_smiles>  (18) 
[H]c1c([H])c([H])c2c(c1[H])C([H])([H])C([H])([H])C([H])([H])C2([H])N([H])C(=O)C1([H])N(C(=O)C([H])(N([H])C(=O)C([H])(N([H])C([H])([H])[H])C([H])([H])[H])C(C([H])([H])[H])(C([H])([H])[H])C([H])([H])[H])C([H])([H])c2c([H])c(OC([H])([H])C([H])([H])C(=O)N([H])c3c([H])c(C([H])([H])[H])c(N([H])C(=O)N4C([H])([H])C([H])([H])C([H])([H])C([H])(n5nc(-c6c([H])c([H])c(Oc7c([H])c([H])c(F)c([H])c7F)c([H])c6[H])c(C(=O)N([H])[H])c5N([H])[H])C4([H])[H])c([H])c3C([H])([H])[H])c([H])c([H])c2C1([H])[H]

>  <smiles>  (18) 
[H]c1c([H])c([H])c2c(c1[H])C([H])([H])C([H])([H])C([H])([H])C2([H])N([H])C(=O)C1([H])N(C(=O)C([H])(N([H])C(=O)C([H])(N([H])C([H])([H])[H])C([H])([H])[H])C(C([H])([H])[H])(C([H])([H])[H])C([H])([H])[H])C([H])([H])c2c([H])c(OC([H])([H])C([H])([H])C(=O)N([H])c3c([H])c(C([H])([H])[H])c(N([H])C(=O)N4C([H])([H])C([H])([H])C([H])([H])C([H])(n5nc(-c6c([H])c([H])c(Oc7c([H])c([H])c(F)c([H])c7F)c([H])c6[H])c(C(=O)N([H])[H])c5N([H])[H])C4([H])[H])c([H])c3C([H])([H])[H])c([H])c([H])c2C1([H])[H]

$$$$
18:0:0
     RDKit          3D

109117  0  0  1  0  0  0  0  0999 V2000
  -36.7480  -19.4100   21.3890 C   0  0  0  0  0  2  0  0  0  0  0  0
  -35.6870  -20.2230   20.6180 C   0  0  0  0  0  2  0  0  0  0  0  0
  -33.5030  -21.1010   21.4120 C   0  0  0  0  0  0  0  0  0  0  0  0
  -34.8390  -21.0280   21.5000 N   0  0  0  0  0  0  0  0  0  0  0  0
  -32.8660  -20.4990   20.5480 O   0  0  0  0  0  0  0  0  0  0  0  0
  -35.2970  -21.5480   22.2390 H   0  0  0  0  0  0  0  0  0  0  0  0
  -32.7700  -21.9440   22.4610 C   0  0  0  0  0  2  0  0  0  0  0  0
  -31.4230  -22.5350   21.9780 C   0  0  0  0  0  2  0  0  0  0  0  0
  -31.5510  -23.6710   20.9420 C   0  0  0  0  0  2  0  0  0  0  0  0
  -29.9940  -25.0040   19.5280 C   0  0  0  0  0  0  0  0  0  0  0  0
  -30.2350  -24.1830   20.5600 N   0  0  0  0  0  0  0  0  0  0  0  0
  -30.8800  -25.3550   18.7440 O   0  0  0  0  0  0  0  0  0  0  0  0
  -29.4450  -23.9320   21.1410 H   0  0  0  0  0  0  0  0  0  0  0  0
  -28.5640  -25.5370   19.3630 C   0  0  0  0  0  2  0  0  0  0  0  0
  -28.4490  -26.7700   20.0770 O   0  0  0  0  0  0  0  0  0  0  0  0
  -24.6160  -31.8640   23.2020 C   0  0  0  0  0  0  0  0  0  0  0  0
  -27.2470  -27.4460   20.0740 C   0  0  0  0  0  0  0  0  0  0  0  0
  -23.4050  -30.4910   21.5390 C   0  0  0  0  0  3  0  0  0  0  0  0
  -24.8480  -28.9510   20.1100 C   0  0  0  0  0  0  0  0  0  0  0  0
  -25.9330  -30.8270   21.3560 C   0  0  0  0  0  2  0  0  0  0  0  0
  -26.0060  -29.4640   20.7040 C   0  0  0  0  0  0  0  0  0  0  0  0
  -27.2030  -28.7150   20.6890 C   0  0  0  0  0  3  0  0  0  0  0  0
  -26.0650  -26.9360   19.4860 C   0  0  0  0  0  3  0  0  0  0  0  0
  -24.8700  -27.6820   19.5050 C   0  0  0  0  0  3  0  0  0  0  0  0
  -23.6110  -29.8170   20.1550 C   0  0  0  0  0  2  0  0  0  0  0  0
  -24.6700  -31.0780   22.0890 N   0  0  0  0  0  0  0  0  0  0  0  0
  -23.5350  -32.1390   23.7420 O   0  0  0  0  0  0  0  0  0  0  0  0
  -22.7420  -29.4680   22.4900 C   0  0  0  0  0  0  0  0  0  0  0  0
  -21.4150  -29.3050   22.3640 N   0  0  0  0  0  0  0  0  0  0  0  0
  -23.4180  -28.8220   23.2950 O   0  0  0  0  0  0  0  0  0  0  0  0
  -20.9280  -29.8770   21.6890 H   0  0  0  0  0  0  0  0  0  0  0  0
  -18.0310  -28.1380   22.8490 C   0  0  0  0  0  0  0  0  0  0  0  0
  -20.5880  -28.3680   23.1270 C   0  0  0  0  0  3  0  0  0  0  0  0
  -20.6800  -26.9410   22.5400 C   0  0  0  0  0  2  0  0  0  0  0  0
  -19.5790  -26.6380   21.5190 C   0  0  0  0  0  2  0  0  0  0  0  0
  -18.1950  -26.7940   22.1590 C   0  0  0  0  0  2  0  0  0  0  0  0
  -19.1550  -28.8840   23.2880 C   0  0  0  0  0  0  0  0  0  0  0  0
  -18.9490  -30.1440   23.8900 C   0  0  0  0  0  3  0  0  0  0  0  0
  -17.6500  -30.6570   24.0580 C   0  0  0  0  0  3  0  0  0  0  0  0
  -16.5390  -29.9090   23.6340 C   0  0  0  0  0  3  0  0  0  0  0  0
  -16.7290  -28.6510   23.0340 C   0  0  0  0  0  3  0  0  0  0  0  0
  -25.9070  -32.4780   23.8310 C   0  0  0  0  0  3  0  0  0  0  0  0
  -26.4500  -31.6570   25.0650 C   0  0  1  0  0  0  0  0  0  0  0  0
  -25.3800  -31.3690   26.1420 C   0  0  0  0  0  1  0  0  0  0  0  0
  -27.0340  -30.3010   24.6020 C   0  0  0  0  0  1  0  0  0  0  0  0
  -27.6050  -32.4320   25.7440 C   0  0  0  0  0  1  0  0  0  0  0  0
  -25.5920  -33.8590   24.2280 N   0  0  0  0  0  0  0  0  0  0  0  0
  -25.9040  -34.9450   23.5110 C   0  0  0  0  0  0  0  0  0  0  0  0
  -26.5620  -34.8930   22.4650 O   0  0  0  0  0  0  0  0  0  0  0  0
  -25.0150  -33.9710   25.0470 H   0  0  0  0  0  0  0  0  0  0  0  0
  -24.1500  -36.7270   23.2640 C   0  0  0  0  0  1  0  0  0  0  0  0
  -25.4120  -36.3090   24.0350 C   0  0  0  0  0  3  0  0  0  0  0  0
  -27.5590  -37.1790   24.8490 C   0  0  0  0  0  1  0  0  0  0  0  0
  -26.4310  -37.3780   23.9430 N   0  0  0  0  0  0  0  0  0  0  0  0
  -26.0190  -38.2850   24.1440 H   0  0  0  0  0  0  0  0  0  0  0  0
  -36.2440  -18.6390   22.6310 C   0  0  0  0  0  2  0  0  0  0  0  0
  -34.9850  -17.8080   22.3780 C   0  0  0  0  0  0  0  0  0  0  0  0
  -33.9370  -18.1070   23.1650 N   0  0  0  0  0  0  0  0  0  0  0  0
  -34.9980  -16.9390   21.5050 O   0  0  0  0  0  0  0  0  0  0  0  0
  -34.1250  -18.8280   23.8460 H   0  0  0  0  0  0  0  0  0  0  0  0
  -31.7000  -18.2780   24.0340 C   0  0  0  0  0  3  0  0  0  0  0  0
  -30.3610  -17.8570   24.1240 C   0  0  0  0  0  3  0  0  0  0  0  0
  -32.1330  -16.5690   22.3530 C   0  0  0  0  0  3  0  0  0  0  0  0
  -32.5980  -17.6350   23.1560 C   0  0  0  0  0  0  0  0  0  0  0  0
  -29.8960  -16.7930   23.3270 C   0  0  0  0  0  0  0  0  0  0  0  0
  -30.7830  -16.1520   22.4310 C   0  0  0  0  0  0  0  0  0  0  0  0
  -30.7500  -14.3300   20.7060 C   0  0  0  0  0  0  0  0  0  0  0  0
  -30.4150  -12.2790   19.3740 C   0  0  0  0  0  2  0  0  0  0  0  0
  -29.4760  -12.5300   18.1800 C   0  0  0  0  0  2  0  0  0  0  0  0
  -27.9990  -12.3870   18.5970 C   0  0  0  0  0  2  0  0  0  0  0  0
  -27.6630  -13.1930   19.8790 C   0  0  0  0  0  3  0  0  0  0  0  0
  -28.6970  -12.8920   20.9820 C   0  0  0  0  0  2  0  0  0  0  0  0
  -30.0390  -13.2030   20.4510 N   0  0  0  0  0  0  0  0  0  0  0  0
  -31.7640  -14.6430   20.0720 O   0  0  0  0  0  0  0  0  0  0  0  0
  -30.2520  -15.0560   21.7100 N   0  0  0  0  0  0  0  0  0  0  0  0
  -29.3500  -14.7660   22.0620 H   0  0  0  0  0  0  0  0  0  0  0  0
  -25.2570  -13.8130   20.5590 C   0  0  0  0  0  0  0  0  0  0  0  0
  -24.1830  -13.0440   20.9180 C   0  0  0  0  0  0  0  0  0  0  0  0
  -24.6370  -11.6900   20.8760 C   0  0  0  0  0  0  0  0  0  0  0  0
  -26.3020  -12.9280   20.3370 N   0  0  0  0  0  0  0  0  0  0  0  0
  -25.9280  -11.6460   20.5760 N   0  0  0  0  0  0  0  0  0  0  0  0
  -23.9030  -10.4300   21.0430 C   0  0  0  0  0  0  0  0  0  0  0  0
  -24.3590   -9.4210   21.9200 C   0  0  0  0  0  3  0  0  0  0  0  0
  -23.6280   -8.2250   22.0760 C   0  0  0  0  0  3  0  0  0  0  0  0
  -22.4260   -8.0280   21.3550 C   0  0  0  0  0  0  0  0  0  0  0  0
  -21.9900   -9.0250   20.4650 C   0  0  0  0  0  3  0  0  0  0  0  0
  -22.7220  -10.2140   20.3060 C   0  0  0  0  0  3  0  0  0  0  0  0
  -21.6640   -6.8880   21.4240 O   0  0  0  0  0  0  0  0  0  0  0  0
  -21.6850   -6.0740   22.5290 C   0  0  0  0  0  0  0  0  0  0  0  0
  -21.4010   -6.5640   23.8220 C   0  0  0  0  0  3  0  0  0  0  0  0
  -21.3660   -5.6790   24.9180 C   0  0  0  0  0  3  0  0  0  0  0  0
  -21.6040   -4.3060   24.7230 C   0  0  0  0  0  0  0  0  0  0  0  0
  -21.8820   -3.8150   23.4350 C   0  0  0  0  0  3  0  0  0  0  0  0
  -21.9190   -4.6970   22.3410 C   0  0  0  0  0  0  0  0  0  0  0  0
  -22.1660   -4.2150   21.0990 F   0  0  0  0  0  0  0  0  0  0  0  0
  -21.5630   -3.4540   25.7740 F   0  0  0  0  0  0  0  0  0  0  0  0
  -22.7860  -13.5250   21.1860 C   0  0  0  0  0  0  0  0  0  0  0  0
  -22.0500  -12.8250   22.0410 N   0  0  0  0  0  0  0  0  0  0  0  0
  -22.3560  -14.5570   20.6720 O   0  0  0  0  0  0  0  0  0  0  0  0
  -22.4090  -11.9880   22.4780 H   0  0  0  0  0  0  0  0  0  0  0  0
  -21.1130  -13.1290   22.2630 H   0  0  0  0  0  0  0  0  0  0  0  0
  -25.4250  -15.1820   20.3800 N   0  0  0  0  0  0  0  0  0  0  0  0
  -24.6510  -15.8330   20.4530 H   0  0  0  0  0  0  0  0  0  0  0  0
  -26.2660  -15.6050   20.0070 H   0  0  0  0  0  0  0  0  0  0  0  0
  -28.5640  -16.3460   23.4220 N   0  0  0  0  0  0  0  0  0  0  0  0
  -27.3420  -14.5440   24.6060 C   0  0  0  0  0  1  0  0  0  0  0  0
  -28.1270  -15.8570   24.7270 C   0  0  0  0  0  2  0  0  0  0  0  0
  -27.1350  -18.3540   22.9580 C   0  0  0  0  0  1  0  0  0  0  0  0
  -27.6140  -16.9690   22.5010 C   0  0  0  0  0  2  0  0  0  0  0  0
  1 56  1  0
  2  1  1  0
  2  4  1  0
  3  4  1  0
  3  7  1  0
  4  6  1  0
  5  3  2  0
  8  7  1  0
  9  8  1  0
 10 11  1  0
 11  9  1  0
 11 13  1  0
 12 10  2  0
 14 10  1  0
 14 15  1  0
 16 27  2  0
 17 15  1  0
 17 22  1  0
 18 26  1  0
 18 28  1  0
 19 25  1  0
 19 21  1  0
 20 26  1  0
 21 20  1  0
 22 21  2  0
 23 24  1  0
 23 17  2  0
 24 19  2  0
 25 18  1  0
 26 16  1  0
 28 30  2  0
 29 28  1  0
 31 29  1  0
 32 41  2  0
 32 37  1  0
 33 29  1  0
 33 37  1  0
 34 33  1  0
 35 36  1  0
 35 34  1  0
 36 32  1  0
 37 38  2  0
 38 39  1  0
 40 39  2  0
 41 40  1  0
 42 16  1  0
 42 47  1  0
 42 43  1  0
 43 46  1  1
 43 44  1  0
 45 43  1  0
 47 50  1  0
 48 52  1  0
 48 47  1  0
 49 48  2  0
 52 51  1  0
 54 52  1  0
 54 55  1  0
 54 53  1  0
 57 56  1  0
 57 58  1  0
 58 60  1  0
 59 57  2  0
 61 62  1  0
 63 66  2  0
 63 64  1  0
 64 58  1  0
 64 61  2  0
 65105  1  0
 65 62  2  0
 66 65  1  0
 67 75  1  0
 68 73  1  0
 69 70  1  0
 69 68  1  0
 71 70  1  0
 71 80  1  0
 71 72  1  0
 73 67  1  0
 73 72  1  0
 74 67  2  0
 75 76  1  0
 75 66  1  0
 77 78  2  0
 78 97  1  0
 79 78  1  0
 79 82  1  0
 80 77  1  0
 80 81  1  0
 81 79  2  0
 82 83  1  0
 83 84  2  0
 85 88  1  0
 85 84  1  0
 86 85  2  0
 87 86  1  0
 87 82  2  0
 88 89  1  0
 89 90  1  0
 90 91  2  0
 92 91  1  0
 92 96  1  0
 93 92  2  0
 94 89  2  0
 94 93  1  0
 95 94  1  0
 97 98  1  0
 98101  1  0
 98100  1  0
 99 97  2  0
102103  1  0
102 77  1  0
104102  1  0
105107  1  0
106107  1  0
109108  1  0
109105  1  0
M  ISO  4  14 101  15 101  67 100  75 100
M  END
>  <TORSDO>  (19) 
F 29

>  <SCORE>  (19) 
40.779

>  <name>  (19) 
18

>  <ligand_id>  (19) 
18

>  <original_smiles>  (19) 
[H]c1c([H])c([H])c2c(c1[H])C([H])([H])C([H])([H])C([H])([H])C2([H])N([H])C(=O)C1([H])N(C(=O)C([H])(N([H])C(=O)C([H])(N([H])C([H])([H])[H])C([H])([H])[H])C(C([H])([H])[H])(C([H])([H])[H])C([H])([H])[H])C([H])([H])c2c([H])c(OC([H])([H])C(=O)N([H])C([H])([H])C([H])([H])C([H])([H])C(=O)N([H])C([H])([H])C([H])([H])C([H])([H])C(=O)N([H])c3c([H])c([H])c(N(C([H])([H])C([H])([H])[H])C([H])([H])C([H])([H])[H])c(N([H])C(=O)N4C([H])([H])C([H])([H])C([H])([H])C([H])(n5nc(-c6c([H])c([H])c(Oc7c([H])c([H])c(F)c([H])c7F)c([H])c6[H])c(C(=O)N([H])[H])c5N([H])[H])C4([H])[H])c3[H])c([H])c([H])c2C1([H])[H]

>  <smiles>  (19) 
[H]c1c([H])c([H])c2c(c1[H])C([H])([H])C([H])([H])C([H])([H])C2([H])N([H])C(=O)C1([H])N(C(=O)C([H])(N([H])C(=O)C([H])(N([H])C([H])([H])[H])C([H])([H])[H])C(C([H])([H])[H])(C([H])([H])[H])C([H])([H])[H])C([H])([H])c2c([H])c(OC([H])([H])C(=O)N([H])C([H])([H])C([H])([H])C([H])([H])C(=O)N([H])C([H])([H])C([H])([H])C([H])([H])C(=O)N([H])c3c([H])c([H])c(N(C([H])([H])C([H])([H])[H])C([H])([H])C([H])([H])[H])c(N([H])C(=O)N4C([H])([H])C([H])([H])C([H])([H])C([H])(n5nc(-c6c([H])c([H])c(Oc7c([H])c([H])c(F)c([H])c7F)c([H])c6[H])c(C(=O)N([H])[H])c5N([H])[H])C4([H])[H])c3[H])c([H])c([H])c2C1([H])[H]

$$$$
19:0:0
     RDKit          3D

 90 98  0  0  1  0  0  0  0  0999 V2000
  -28.2610  -21.6180   21.0860 C   0  0  0  0  0  3  0  0  0  0  0  0
  -28.1040  -22.7940   20.0730 C   0  0  0  0  0  3  0  0  0  0  0  0
  -28.1500  -24.2290   20.7040 C   0  0  0  0  0  2  0  0  0  0  0  0
  -28.5430  -25.3690   19.7180 C   0  0  0  0  0  2  0  0  0  0  0  0
  -28.4560  -26.7150   20.2430 O   0  0  0  0  0  0  0  0  0  0  0  0
  -24.6090  -31.9120   23.2320 C   0  0  0  0  0  0  0  0  0  0  0  0
  -27.2650  -27.4270   20.2000 C   0  0  0  0  0  0  0  0  0  0  0  0
  -23.4060  -30.4960   21.5970 C   0  0  0  0  0  3  0  0  0  0  0  0
  -24.8670  -28.9470   20.1890 C   0  0  0  0  0  0  0  0  0  0  0  0
  -25.9290  -30.8600   21.3880 C   0  0  0  0  0  2  0  0  0  0  0  0
  -26.0240  -29.4770   20.7700 C   0  0  0  0  0  0  0  0  0  0  0  0
  -27.2270  -28.7270   20.7680 C   0  0  0  0  0  3  0  0  0  0  0  0
  -26.0830  -26.9120   19.6220 C   0  0  0  0  0  3  0  0  0  0  0  0
  -24.8940  -27.6650   19.6110 C   0  0  0  0  0  3  0  0  0  0  0  0
  -23.6200  -29.8040   20.2230 C   0  0  0  0  0  2  0  0  0  0  0  0
  -24.6670  -31.1030   22.1340 N   0  0  0  0  0  0  0  0  0  0  0  0
  -23.5260  -32.1840   23.7700 O   0  0  0  0  0  0  0  0  0  0  0  0
  -22.7510  -29.4820   22.5640 C   0  0  0  0  0  0  0  0  0  0  0  0
  -21.4260  -29.3020   22.4410 N   0  0  0  0  0  0  0  0  0  0  0  0
  -23.4350  -28.8590   23.3810 O   0  0  0  0  0  0  0  0  0  0  0  0
  -20.9310  -29.8660   21.7650 H   0  0  0  0  0  0  0  0  0  0  0  0
  -18.0560  -28.1030   22.9420 C   0  0  0  0  0  0  0  0  0  0  0  0
  -20.6120  -28.3640   23.2150 C   0  0  0  0  0  3  0  0  0  0  0  0
  -20.7160  -26.9300   22.6460 C   0  0  0  0  0  2  0  0  0  0  0  0
  -19.6150  -26.6020   21.6310 C   0  0  0  0  0  2  0  0  0  0  0  0
  -18.2330  -26.7500   22.2750 C   0  0  0  0  0  2  0  0  0  0  0  0
  -19.1730  -28.8670   23.3720 C   0  0  0  0  0  0  0  0  0  0  0  0
  -18.9560  -30.1320   23.9580 C   0  0  0  0  0  3  0  0  0  0  0  0
  -17.6500  -30.6340   24.1170 C   0  0  0  0  0  3  0  0  0  0  0  0
  -16.5460  -29.8670   23.7060 C   0  0  0  0  0  3  0  0  0  0  0  0
  -16.7490  -28.6030   23.1240 C   0  0  0  0  0  3  0  0  0  0  0  0
  -25.8910  -32.5520   23.8520 C   0  0  0  0  0  3  0  0  0  0  0  0
  -25.5830  -33.9530   24.1680 N   0  0  0  0  0  0  0  0  0  0  0  0
  -25.9160  -34.9980   23.3980 C   0  0  0  0  0  0  0  0  0  0  0  0
  -26.5900  -34.8830   22.3700 O   0  0  0  0  0  0  0  0  0  0  0  0
  -24.9930  -34.1170   24.9700 H   0  0  0  0  0  0  0  0  0  0  0  0
  -24.1950  -36.7920   23.0110 C   0  0  0  0  0  1  0  0  0  0  0  0
  -25.4270  -36.3910   23.8380 C   0  0  0  0  0  3  0  0  0  0  0  0
  -27.5590  -37.2830   24.6720 C   0  0  0  0  0  1  0  0  0  0  0  0
  -26.4600  -37.4430   23.7220 N   0  0  0  0  0  0  0  0  0  0  0  0
  -26.0540  -38.3650   23.8600 H   0  0  0  0  0  0  0  0  0  0  0  0
  -26.4040  -31.7930   25.1370 C   0  0  1  0  0  0  0  0  0  0  0  0
  -25.3120  -31.5670   26.2090 C   0  0  0  0  0  1  0  0  0  0  0  0
  -26.9830  -30.4120   24.7520 C   0  0  0  0  0  1  0  0  0  0  0  0
  -27.5520  -32.5920   25.7980 C   0  0  0  0  0  1  0  0  0  0  0  0
  -28.1190  -20.2960   20.5190 O   0  0  0  0  0  0  0  0  0  0  0  0
  -31.6210  -19.1510   19.9750 C   0  0  0  0  0  3  0  0  0  0  0  0
  -31.4870  -17.7550   20.1630 C   0  0  0  0  0  3  0  0  0  0  0  0
  -30.5110  -20.0080   20.0960 C   0  0  0  0  0  3  0  0  0  0  0  0
  -29.1170  -18.0700   20.5680 C   0  0  0  0  0  3  0  0  0  0  0  0
  -30.2230  -17.1770   20.4620 C   0  0  0  0  0  0  0  0  0  0  0  0
  -29.2410  -19.4810   20.4080 C   0  0  0  0  0  0  0  0  0  0  0  0
  -30.6930  -14.6470   20.3060 C   0  0  0  0  0  0  0  0  0  0  0  0
  -30.3530  -12.4180   19.2820 C   0  0  0  0  0  2  0  0  0  0  0  0
  -29.4270  -12.6010   18.0630 C   0  0  0  0  0  2  0  0  0  0  0  0
  -27.9510  -12.4800   18.4860 C   0  0  0  0  0  2  0  0  0  0  0  0
  -27.6060  -13.3160   19.7480 C   0  0  0  0  0  3  0  0  0  0  0  0
  -28.6820  -13.1820   20.8540 C   0  0  0  0  0  2  0  0  0  0  0  0
  -30.0000  -13.4630   20.2590 N   0  0  0  0  0  0  0  0  0  0  0  0
  -31.8460  -14.7330   19.8850 O   0  0  0  0  0  0  0  0  0  0  0  0
  -29.9850  -15.7530   20.6780 N   0  0  0  0  0  0  0  0  0  0  0  0
  -29.0620  -15.5380   21.0170 H   0  0  0  0  0  0  0  0  0  0  0  0
  -25.2150  -13.8910   20.4900 C   0  0  0  0  0  0  0  0  0  0  0  0
  -24.1530  -13.1150   20.8710 C   0  0  0  0  0  0  0  0  0  0  0  0
  -24.6210  -11.7640   20.8310 C   0  0  0  0  0  0  0  0  0  0  0  0
  -26.2620  -13.0200   20.2470 N   0  0  0  0  0  0  0  0  0  0  0  0
  -25.9100  -11.7340   20.5100 N   0  0  0  0  0  0  0  0  0  0  0  0
  -23.8970  -10.5010   21.0240 C   0  0  0  0  0  0  0  0  0  0  0  0
  -24.3400   -9.5250   21.9470 C   0  0  0  0  0  3  0  0  0  0  0  0
  -23.6110   -8.3300   22.1280 C   0  0  0  0  0  3  0  0  0  0  0  0
  -22.4260   -8.1020   21.3870 C   0  0  0  0  0  0  0  0  0  0  0  0
  -22.0050   -9.0620   20.4540 C   0  0  0  0  0  3  0  0  0  0  0  0
  -22.7350  -10.2500   20.2670 C   0  0  0  0  0  3  0  0  0  0  0  0
  -21.6680   -6.9590   21.4770 O   0  0  0  0  0  0  0  0  0  0  0  0
  -21.6330   -6.2060   22.6230 C   0  0  0  0  0  0  0  0  0  0  0  0
  -21.2260   -6.7500   23.8610 C   0  0  0  0  0  3  0  0  0  0  0  0
  -21.1360   -5.9250   24.9980 C   0  0  0  0  0  3  0  0  0  0  0  0
  -21.4470   -4.5540   24.9020 C   0  0  0  0  0  0  0  0  0  0  0  0
  -21.8490   -4.0090   23.6690 C   0  0  0  0  0  3  0  0  0  0  0  0
  -21.9390   -4.8330   22.5330 C   0  0  0  0  0  0  0  0  0  0  0  0
  -22.3060   -4.2990   21.3430 F   0  0  0  0  0  0  0  0  0  0  0  0
  -21.3560   -3.7590   25.9930 F   0  0  0  0  0  0  0  0  0  0  0  0
  -22.7590  -13.5930   21.1550 C   0  0  0  0  0  0  0  0  0  0  0  0
  -22.0390  -12.8890   22.0270 N   0  0  0  0  0  0  0  0  0  0  0  0
  -22.3130  -14.6170   20.6450 O   0  0  0  0  0  0  0  0  0  0  0  0
  -22.4130  -12.0630   22.4670 H   0  0  0  0  0  0  0  0  0  0  0  0
  -21.1000  -13.1830   22.2560 H   0  0  0  0  0  0  0  0  0  0  0  0
  -25.3730  -15.2640   20.3070 N   0  0  0  0  0  0  0  0  0  0  0  0
  -24.5850  -15.9040   20.3290 H   0  0  0  0  0  0  0  0  0  0  0  0
  -26.1920  -15.6730   19.8760 H   0  0  0  0  0  0  0  0  0  0  0  0
  2  3  1  0
  2  1  2  0
  4  5  1  0
  4  3  1  0
  6 17  2  0
  7  5  1  0
  7 12  1  0
  8 16  1  0
  8 18  1  0
  9 15  1  0
  9 11  1  0
 10 16  1  0
 11 10  1  0
 12 11  2  0
 13  7  2  0
 14 13  1  0
 14  9  2  0
 15  8  1  0
 16  6  1  0
 18 20  2  0
 19 18  1  0
 21 19  1  0
 22 31  2  0
 22 27  1  0
 23 19  1  0
 23 27  1  0
 24 23  1  0
 25 26  1  0
 25 24  1  0
 26 22  1  0
 27 28  2  0
 28 29  1  0
 30 29  2  0
 31 30  1  0
 32  6  1  0
 32 33  1  0
 32 42  1  0
 33 36  1  0
 34 38  1  0
 34 33  1  0
 35 34  2  0
 38 37  1  0
 40 38  1  0
 40 41  1  0
 40 39  1  0
 42 45  1  1
 42 43  1  0
 44 42  1  0
 46  1  1  0
 47 49  2  0
 47 48  1  0
 48 51  2  0
 49 52  1  0
 51 50  1  0
 51 61  1  0
 52 46  1  0
 52 50  2  0
 53 61  1  0
 54 59  1  0
 55 56  1  0
 55 54  1  0
 57 56  1  0
 57 66  1  0
 57 58  1  0
 59 53  1  0
 59 58  1  0
 60 53  2  0
 61 62  1  0
 63 64  2  0
 64 83  1  0
 65 64  1  0
 65 68  1  0
 66 63  1  0
 66 67  1  0
 67 65  2  0
 68 69  1  0
 69 70  2  0
 71 74  1  0
 71 70  1  0
 72 71  2  0
 73 72  1  0
 73 68  2  0
 74 75  1  0
 75 76  1  0
 76 77  2  0
 78 77  1  0
 78 82  1  0
 79 78  2  0
 80 75  2  0
 80 79  1  0
 81 80  1  0
 83 84  1  0
 84 87  1  0
 84 86  1  0
 85 83  2  0
 88 89  1  0
 88 63  1  0
 90 88  1  0
M  ISO  4   4 101   5 101  53 100  61 100
M  END
>  <TORSDO>  (20) 
F 21

>  <SCORE>  (20) 
-13.667

>  <name>  (20) 
19

>  <ligand_id>  (20) 
19

>  <original_smiles>  (20) 
[H]c1c([H])c(OC([H])([H])C([H])([H])C([H])([H])C([H])([H])Oc2c([H])c([H])c3c(c2[H])C([H])([H])N(C(=O)C([H])(N([H])C(=O)C([H])(N([H])C([H])([H])[H])C([H])([H])[H])C(C([H])([H])[H])(C([H])([H])[H])C([H])([H])[H])C([H])(C(=O)N([H])C2([H])c4c([H])c([H])c([H])c([H])c4C([H])([H])C([H])([H])C2([H])[H])C3([H])[H])c([H])c(N([H])C(=O)N2C([H])([H])C([H])([H])C([H])([H])C([H])(n3nc(-c4c([H])c([H])c(Oc5c([H])c([H])c(F)c([H])c5F)c([H])c4[H])c(C(=O)N([H])[H])c3N([H])[H])C2([H])[H])c1[H]

>  <smiles>  (20) 
[H]c1c([H])c(OC([H])([H])C([H])([H])C([H])([H])C([H])([H])Oc2c([H])c([H])c3c(c2[H])C([H])([H])N(C(=O)C([H])(N([H])C(=O)C([H])(N([H])C([H])([H])[H])C([H])([H])[H])C(C([H])([H])[H])(C([H])([H])[H])C([H])([H])[H])C([H])(C(=O)N([H])C2([H])c4c([H])c([H])c([H])c([H])c4C([H])([H])C([H])([H])C2([H])[H])C3([H])[H])c([H])c(N([H])C(=O)N2C([H])([H])C([H])([H])C([H])([H])C([H])(n3nc(-c4c([H])c([H])c(Oc5c([H])c([H])c(F)c([H])c5F)c([H])c4[H])c(C(=O)N([H])[H])c3N([H])[H])C2([H])[H])c1[H]

$$$$
20:0:0
     RDKit          3D

 91 99  0  0  1  0  0  0  0  0999 V2000
  -29.6070  -21.1420   19.9830 O   0  0  0  0  0  0  0  0  0  0  0  0
  -30.6210  -17.9150   21.6390 C   0  0  0  0  0  3  0  0  0  0  0  0
  -30.5190  -19.3090   21.4070 C   0  0  0  0  0  3  0  0  0  0  0  0
  -29.2750  -18.8660   19.3780 C   0  0  0  0  0  3  0  0  0  0  0  0
  -30.0530  -16.9800   20.7420 C   0  0  0  0  0  0  0  0  0  0  0  0
  -29.8220  -19.8040   20.2760 C   0  0  0  0  0  0  0  0  0  0  0  0
  -29.3740  -17.4750   19.5970 C   0  0  0  0  0  0  0  0  0  0  0  0
  -28.5880  -16.4300   18.4670 Cl  0  0  0  0  0  0  0  0  0  0  0  0
  -30.7800  -14.6200   20.4880 C   0  0  0  0  0  0  0  0  0  0  0  0
  -30.5400  -12.4490   19.3400 C   0  0  0  0  0  2  0  0  0  0  0  0
  -29.5990  -12.6410   18.1310 C   0  0  0  0  0  2  0  0  0  0  0  0
  -28.1210  -12.4960   18.5510 C   0  0  0  0  0  2  0  0  0  0  0  0
  -27.7700  -13.3180   19.8190 C   0  0  0  0  0  3  0  0  0  0  0  0
  -28.8210  -13.0900   20.9290 C   0  0  0  0  0  2  0  0  0  0  0  0
  -30.1480  -13.4180   20.3760 N   0  0  0  0  0  0  0  0  0  0  0  0
  -31.8950  -14.8440   20.0070 O   0  0  0  0  0  0  0  0  0  0  0  0
  -30.0580  -15.5900   21.0820 N   0  0  0  0  0  0  0  0  0  0  0  0
  -29.2340  -15.2620   21.5620 H   0  0  0  0  0  0  0  0  0  0  0  0
  -25.3650  -13.9070   20.5240 C   0  0  0  0  0  0  0  0  0  0  0  0
  -24.2970  -13.1250   20.8750 C   0  0  0  0  0  0  0  0  0  0  0  0
  -24.7650  -11.7750   20.8240 C   0  0  0  0  0  0  0  0  0  0  0  0
  -26.4150  -13.0330   20.2850 N   0  0  0  0  0  0  0  0  0  0  0  0
  -26.0550  -11.7450   20.5220 N   0  0  0  0  0  0  0  0  0  0  0  0
  -24.0430  -10.5080   20.9900 C   0  0  0  0  0  0  0  0  0  0  0  0
  -24.4300   -9.5610   21.9650 C   0  0  0  0  0  3  0  0  0  0  0  0
  -23.7110   -8.3560   22.1180 C   0  0  0  0  0  3  0  0  0  0  0  0
  -22.5910   -8.0900   21.2960 C   0  0  0  0  0  0  0  0  0  0  0  0
  -22.2230   -9.0250   20.3130 C   0  0  0  0  0  3  0  0  0  0  0  0
  -22.9430  -10.2210   20.1580 C   0  0  0  0  0  3  0  0  0  0  0  0
  -21.8470   -6.9350   21.3560 O   0  0  0  0  0  0  0  0  0  0  0  0
  -21.6810   -6.2470   22.5310 C   0  0  0  0  0  0  0  0  0  0  0  0
  -20.9870   -6.8020   23.6280 C   0  0  0  0  0  3  0  0  0  0  0  0
  -20.7800   -6.0340   24.7910 C   0  0  0  0  0  3  0  0  0  0  0  0
  -21.2540   -4.7100   24.8560 C   0  0  0  0  0  0  0  0  0  0  0  0
  -21.9410   -4.1540   23.7620 C   0  0  0  0  0  3  0  0  0  0  0  0
  -22.1510   -4.9200   22.6010 C   0  0  0  0  0  0  0  0  0  0  0  0
  -22.7940   -4.3730   21.5420 F   0  0  0  0  0  0  0  0  0  0  0  0
  -21.0480   -3.9690   25.9690 F   0  0  0  0  0  0  0  0  0  0  0  0
  -22.8970  -13.5910   21.1520 C   0  0  0  0  0  0  0  0  0  0  0  0
  -22.1650  -12.8690   21.9920 N   0  0  0  0  0  0  0  0  0  0  0  0
  -22.4600  -14.6300   20.6580 O   0  0  0  0  0  0  0  0  0  0  0  0
  -22.5300  -12.0280   22.4140 H   0  0  0  0  0  0  0  0  0  0  0  0
  -21.2250  -13.1630   22.2190 H   0  0  0  0  0  0  0  0  0  0  0  0
  -25.5250  -15.2810   20.3690 N   0  0  0  0  0  0  0  0  0  0  0  0
  -24.7550  -15.9310   20.4800 H   0  0  0  0  0  0  0  0  0  0  0  0
  -26.3730  -15.7230   20.0370 H   0  0  0  0  0  0  0  0  0  0  0  0
  -29.9100  -22.1550   20.9490 C   0  0  0  0  0  2  0  0  0  0  0  0
  -29.2670  -23.5020   20.5190 C   0  0  0  0  0  2  0  0  0  0  0  0
  -29.5670  -24.6780   21.4840 C   0  0  0  0  0  2  0  0  0  0  0  0
  -28.5220  -25.8240   21.5190 C   0  0  0  0  0  2  0  0  0  0  0  0
  -28.6410  -26.8170   20.4900 O   0  0  0  0  0  0  0  0  0  0  0  0
  -24.5630  -31.9500   23.2880 C   0  0  0  0  0  0  0  0  0  0  0  0
  -27.4930  -27.5730   20.3860 C   0  0  0  0  0  0  0  0  0  0  0  0
  -23.4910  -30.5170   21.5800 C   0  0  0  0  0  3  0  0  0  0  0  0
  -25.0680  -29.0140   20.2450 C   0  0  0  0  0  0  0  0  0  0  0  0
  -26.0140  -30.9390   21.5310 C   0  0  0  0  0  2  0  0  0  0  0  0
  -26.1750  -29.5710   20.9010 C   0  0  0  0  0  0  0  0  0  0  0  0
  -27.3940  -28.8560   20.9700 C   0  0  0  0  0  3  0  0  0  0  0  0
  -26.3760  -27.0320   19.7190 C   0  0  0  0  0  3  0  0  0  0  0  0
  -25.1630  -27.7440   19.6500 C   0  0  0  0  0  3  0  0  0  0  0  0
  -23.8000  -29.8390   20.2170 C   0  0  0  0  0  2  0  0  0  0  0  0
  -24.7030  -31.1500   22.1920 N   0  0  0  0  0  0  0  0  0  0  0  0
  -23.4460  -32.1960   23.7620 O   0  0  0  0  0  0  0  0  0  0  0  0
  -22.8080  -29.4820   22.5030 C   0  0  0  0  0  0  0  0  0  0  0  0
  -21.4930  -29.2850   22.3130 N   0  0  0  0  0  0  0  0  0  0  0  0
  -23.4600  -28.8600   23.3460 O   0  0  0  0  0  0  0  0  0  0  0  0
  -21.0290  -29.8400   21.6070 H   0  0  0  0  0  0  0  0  0  0  0  0
  -18.1030  -28.0920   22.6870 C   0  0  0  0  0  0  0  0  0  0  0  0
  -20.6520  -28.3330   23.0380 C   0  0  0  0  0  3  0  0  0  0  0  0
  -20.7660  -26.9160   22.4320 C   0  0  0  0  0  2  0  0  0  0  0  0
  -19.6940  -26.6210   21.3790 C   0  0  0  0  0  2  0  0  0  0  0  0
  -18.2940  -26.7570   21.9870 C   0  0  0  0  0  2  0  0  0  0  0  0
  -19.2110  -28.8390   23.1670 C   0  0  0  0  0  0  0  0  0  0  0  0
  -18.9810  -30.0900   23.7800 C   0  0  0  0  0  3  0  0  0  0  0  0
  -17.6740  -30.5940   23.9180 C   0  0  0  0  0  3  0  0  0  0  0  0
  -16.5800  -29.8440   23.4560 C   0  0  0  0  0  3  0  0  0  0  0  0
  -16.7940  -28.5940   22.8470 C   0  0  0  0  0  3  0  0  0  0  0  0
  -25.7950  -32.6120   23.9800 C   0  0  0  0  0  3  0  0  0  0  0  0
  -25.4490  -34.0130   24.2530 N   0  0  0  0  0  0  0  0  0  0  0  0
  -25.8190  -35.0500   23.4890 C   0  0  0  0  0  0  0  0  0  0  0  0
  -26.5560  -34.9290   22.5060 O   0  0  0  0  0  0  0  0  0  0  0  0
  -24.8020  -34.1810   25.0100 H   0  0  0  0  0  0  0  0  0  0  0  0
  -24.1240  -36.8260   22.9440 C   0  0  0  0  0  1  0  0  0  0  0  0
  -25.2850  -36.4420   23.8750 C   0  0  0  0  0  3  0  0  0  0  0  0
  -27.3150  -37.3660   24.9010 C   0  0  0  0  0  1  0  0  0  0  0  0
  -26.3190  -37.5000   23.8420 N   0  0  0  0  0  0  0  0  0  0  0  0
  -25.8960  -38.4210   23.9200 H   0  0  0  0  0  0  0  0  0  0  0  0
  -26.2330  -31.8770   25.3070 C   0  0  1  0  0  0  0  0  0  0  0  0
  -25.0690  -31.6350   26.2960 C   0  0  0  0  0  1  0  0  0  0  0  0
  -26.8700  -30.5050   24.9850 C   0  0  0  0  0  1  0  0  0  0  0  0
  -27.3150  -32.7080   26.0350 C   0  0  0  0  0  1  0  0  0  0  0  0
  1  6  1  0
  1 47  1  0
  3  2  1  0
  4  7  2  0
  4  6  1  0
  5 17  1  0
  5  2  2  0
  6  3  2  0
  7  5  1  0
  8  7  1  0
  9 17  1  0
 10 15  1  0
 11 12  1  0
 11 10  1  0
 13 12  1  0
 13 22  1  0
 13 14  1  0
 15  9  1  0
 15 14  1  0
 16  9  2  0
 17 18  1  0
 19 20  2  0
 20 39  1  0
 21 20  1  0
 21 24  1  0
 22 23  1  0
 22 19  1  0
 23 21  2  0
 24 25  1  0
 25 26  2  0
 27 30  1  0
 27 26  1  0
 28 27  2  0
 29 28  1  0
 29 24  2  0
 30 31  1  0
 31 36  2  0
 31 32  1  0
 32 33  2  0
 33 34  1  0
 34 38  1  0
 35 34  2  0
 36 35  1  0
 37 36  1  0
 39 40  1  0
 40 43  1  0
 40 42  1  0
 41 39  2  0
 44 45  1  0
 44 19  1  0
 46 44  1  0
 48 47  1  0
 48 49  1  0
 49 50  1  0
 51 50  1  0
 52 63  2  0
 53 51  1  0
 53 58  1  0
 54 62  1  0
 54 64  1  0
 55 57  1  0
 56 62  1  0
 57 58  2  0
 57 56  1  0
 59 53  2  0
 60 59  1  0
 60 55  2  0
 61 55  1  0
 61 54  1  0
 62 52  1  0
 64 66  2  0
 65 64  1  0
 67 65  1  0
 68 77  2  0
 68 73  1  0
 69 65  1  0
 69 73  1  0
 70 69  1  0
 71 72  1  0
 71 70  1  0
 72 68  1  0
 73 74  2  0
 74 75  1  0
 76 75  2  0
 77 76  1  0
 78 52  1  0
 78 79  1  0
 78 88  1  0
 79 82  1  0
 80 84  1  0
 80 79  1  0
 81 80  2  0
 84 83  1  0
 86 84  1  0
 86 87  1  0
 86 85  1  0
 88 91  1  1
 88 89  1  0
 90 88  1  0
M  ISO  4   9 100  17 100  50 101  51 101
M  END
>  <TORSDO>  (21) 
F 21

>  <SCORE>  (21) 
-13.225

>  <name>  (21) 
20

>  <ligand_id>  (21) 
20

>  <original_smiles>  (21) 
[H]c1c([H])c([H])c2c(c1[H])C([H])([H])C([H])([H])C([H])([H])C2([H])N([H])C(=O)C1([H])N(C(=O)C([H])(N([H])C(=O)C([H])(N([H])C([H])([H])[H])C([H])([H])[H])C(C([H])([H])[H])(C([H])([H])[H])C([H])([H])[H])C([H])([H])c2c([H])c(OC([H])([H])C([H])([H])C([H])([H])C([H])([H])Oc3c([H])c([H])c(N([H])C(=O)N4C([H])([H])C([H])([H])C([H])([H])C([H])(n5nc(-c6c([H])c([H])c(Oc7c([H])c([H])c(F)c([H])c7F)c([H])c6[H])c(C(=O)N([H])[H])c5N([H])[H])C4([H])[H])c(Cl)c3[H])c([H])c([H])c2C1([H])[H]

>  <smiles>  (21) 
[H]c1c([H])c([H])c2c(c1[H])C([H])([H])C([H])([H])C([H])([H])C2([H])N([H])C(=O)C1([H])N(C(=O)C([H])(N([H])C(=O)C([H])(N([H])C([H])([H])[H])C([H])([H])[H])C(C([H])([H])[H])(C([H])([H])[H])C([H])([H])[H])C([H])([H])c2c([H])c(OC([H])([H])C([H])([H])C([H])([H])C([H])([H])Oc3c([H])c([H])c(N([H])C(=O)N4C([H])([H])C([H])([H])C([H])([H])C([H])(n5nc(-c6c([H])c([H])c(Oc7c([H])c([H])c(F)c([H])c7F)c([H])c6[H])c(C(=O)N([H])[H])c5N([H])[H])C4([H])[H])c(Cl)c3[H])c([H])c([H])c2C1([H])[H]

$$$$
21:0:0
     RDKit          3D

101108  0  0  1  0  0  0  0  0999 V2000
  -29.4860  -22.4570   14.5750 C   0  0  0  0  0  2  0  0  0  0  0  0
  -28.8320  -23.8480   14.6470 C   0  0  0  0  0  2  0  0  0  0  0  0
  -29.8500  -24.9850   14.8310 C   0  0  0  0  0  2  0  0  0  0  0  0
  -29.2120  -26.3470   15.1490 C   0  0  0  0  0  2  0  0  0  0  0  0
  -30.1970  -27.3100   15.8490 C   0  0  0  0  0  2  0  0  0  0  0  0
  -30.0470  -26.6940   18.2940 C   0  0  0  0  0  0  0  0  0  0  0  0
  -29.9000  -27.5470   17.2660 N   0  0  0  0  0  0  0  0  0  0  0  0
  -30.3970  -25.5220   18.1450 O   0  0  0  0  0  0  0  0  0  0  0  0
  -29.6310  -28.4920   17.5070 H   0  0  0  0  0  0  0  0  0  0  0  0
  -29.7880  -27.2410   19.7090 C   0  0  0  0  0  2  0  0  0  0  0  0
  -28.6410  -26.6050   20.2800 O   0  0  0  0  0  0  0  0  0  0  0  0
  -24.6100  -31.7130   23.2370 C   0  0  0  0  0  0  0  0  0  0  0  0
  -27.4780  -27.3360   20.2800 C   0  0  0  0  0  0  0  0  0  0  0  0
  -23.5040  -30.2920   21.5380 C   0  0  0  0  0  3  0  0  0  0  0  0
  -25.0470  -28.7640   20.2010 C   0  0  0  0  0  0  0  0  0  0  0  0
  -26.0270  -30.6890   21.4640 C   0  0  0  0  0  2  0  0  0  0  0  0
  -26.1640  -29.3170   20.8410 C   0  0  0  0  0  0  0  0  0  0  0  0
  -27.3830  -28.6080   20.8890 C   0  0  0  0  0  3  0  0  0  0  0  0
  -26.3380  -26.7720   19.6760 C   0  0  0  0  0  3  0  0  0  0  0  0
  -25.1230  -27.4830   19.6240 C   0  0  0  0  0  3  0  0  0  0  0  0
  -23.7910  -29.6070   20.1760 C   0  0  0  0  0  2  0  0  0  0  0  0
  -24.7290  -30.9120   22.1410 N   0  0  0  0  0  0  0  0  0  0  0  0
  -23.5000  -31.9760   23.7190 O   0  0  0  0  0  0  0  0  0  0  0  0
  -22.8150  -29.2690   22.4700 C   0  0  0  0  0  0  0  0  0  0  0  0
  -21.4990  -29.0870   22.2840 N   0  0  0  0  0  0  0  0  0  0  0  0
  -23.4650  -28.6410   23.3110 O   0  0  0  0  0  0  0  0  0  0  0  0
  -21.0380  -29.6470   21.5810 H   0  0  0  0  0  0  0  0  0  0  0  0
  -18.1020  -27.9160   22.6630 C   0  0  0  0  0  0  0  0  0  0  0  0
  -20.6520  -28.1460   23.0160 C   0  0  0  0  0  3  0  0  0  0  0  0
  -20.7600  -26.7230   22.4260 C   0  0  0  0  0  2  0  0  0  0  0  0
  -19.6870  -26.4230   21.3730 C   0  0  0  0  0  2  0  0  0  0  0  0
  -18.2860  -26.5750   21.9750 C   0  0  0  0  0  2  0  0  0  0  0  0
  -19.2140  -28.6620   23.1380 C   0  0  0  0  0  0  0  0  0  0  0  0
  -18.9890  -29.9210   23.7360 C   0  0  0  0  0  3  0  0  0  0  0  0
  -17.6850  -30.4330   23.8660 C   0  0  0  0  0  3  0  0  0  0  0  0
  -16.5870  -29.6850   23.4060 C   0  0  0  0  0  3  0  0  0  0  0  0
  -16.7960  -28.4280   22.8110 C   0  0  0  0  0  3  0  0  0  0  0  0
  -25.8580  -32.3580   23.9180 C   0  0  0  0  0  3  0  0  0  0  0  0
  -25.5300  -33.7610   24.2070 N   0  0  0  0  0  0  0  0  0  0  0  0
  -25.9000  -34.8000   23.4460 C   0  0  0  0  0  0  0  0  0  0  0  0
  -26.6260  -34.6790   22.4550 O   0  0  0  0  0  0  0  0  0  0  0  0
  -24.8920  -33.9290   24.9720 H   0  0  0  0  0  0  0  0  0  0  0  0
  -24.1920  -36.5820   22.9560 C   0  0  0  0  0  1  0  0  0  0  0  0
  -25.3830  -36.1950   23.8490 C   0  0  0  0  0  3  0  0  0  0  0  0
  -27.4590  -37.1050   24.7950 C   0  0  0  0  0  1  0  0  0  0  0  0
  -26.4180  -37.2490   23.7800 N   0  0  0  0  0  0  0  0  0  0  0  0
  -26.0020  -38.1700   23.8800 H   0  0  0  0  0  0  0  0  0  0  0  0
  -26.3070  -31.6070   25.2320 C   0  0  1  0  0  0  0  0  0  0  0  0
  -25.1570  -31.3800   26.2400 C   0  0  0  0  0  1  0  0  0  0  0  0
  -26.9150  -30.2260   24.8910 C   0  0  0  0  0  1  0  0  0  0  0  0
  -27.4130  -32.4170   25.9500 C   0  0  0  0  0  1  0  0  0  0  0  0
  -30.3840  -22.1360   15.7870 C   0  0  0  0  0  2  0  0  0  0  0  0
  -30.6270  -20.6300   15.9420 C   0  0  0  0  0  2  0  0  0  0  0  0
  -31.2450  -20.1020   18.2990 C   0  0  0  0  0  0  0  0  0  0  0  0
  -31.5690  -20.3130   17.0160 N   0  0  0  0  0  0  0  0  0  0  0  0
  -30.1210  -20.3280   18.7530 O   0  0  0  0  0  0  0  0  0  0  0  0
  -32.5300  -20.1460   16.7460 H   0  0  0  0  0  0  0  0  0  0  0  0
  -32.3580  -19.5490   19.2050 C   0  0  0  0  0  2  0  0  0  0  0  0
  -31.2020  -17.5330   20.1610 C   0  0  0  0  0  0  0  0  0  0  0  0
  -31.9070  -18.6670   20.2890 N   0  0  0  0  0  0  0  0  0  0  0  0
  -30.7270  -17.1630   19.0850 O   0  0  0  0  0  0  0  0  0  0  0  0
  -32.2070  -18.9280   21.2190 H   0  0  0  0  0  0  0  0  0  0  0  0
  -31.0240  -16.6850   21.4340 C   0  0  0  0  0  2  0  0  0  0  0  0
  -31.1300  -14.3750   20.4610 C   0  0  0  0  0  0  0  0  0  0  0  0
  -30.7340  -12.2900   19.2140 C   0  0  0  0  0  2  0  0  0  0  0  0
  -29.8010  -12.5740   18.0200 C   0  0  0  0  0  2  0  0  0  0  0  0
  -28.3200  -12.4730   18.4430 C   0  0  0  0  0  2  0  0  0  0  0  0
  -28.0120  -13.2860   19.7290 C   0  0  0  0  0  3  0  0  0  0  0  0
  -29.0590  -12.9800   20.8260 C   0  0  0  0  0  2  0  0  0  0  0  0
  -30.3980  -13.2490   20.2740 N   0  0  0  0  0  0  0  0  0  0  0  0
  -32.2340  -14.5590   19.9400 O   0  0  0  0  0  0  0  0  0  0  0  0
  -30.5310  -15.3230   21.1940 N   0  0  0  0  0  0  0  0  0  0  0  0
  -29.6230  -15.0960   21.5700 H   0  0  0  0  0  0  0  0  0  0  0  0
  -25.6280  -13.9690   20.4260 C   0  0  0  0  0  0  0  0  0  0  0  0
  -24.5370  -13.2260   20.7970 C   0  0  0  0  0  0  0  0  0  0  0  0
  -24.9580  -11.8620   20.7650 C   0  0  0  0  0  0  0  0  0  0  0  0
  -26.6470  -13.0550   20.2000 N   0  0  0  0  0  0  0  0  0  0  0  0
  -26.2460  -11.7840   20.4590 N   0  0  0  0  0  0  0  0  0  0  0  0
  -24.1950  -10.6220   20.9510 C   0  0  0  0  0  0  0  0  0  0  0  0
  -24.5860   -9.6500   21.8980 C   0  0  0  0  0  3  0  0  0  0  0  0
  -23.8280   -8.4730   22.0750 C   0  0  0  0  0  3  0  0  0  0  0  0
  -22.6620   -8.2590   21.3010 C   0  0  0  0  0  0  0  0  0  0  0  0
  -22.2900   -9.2180   20.3420 C   0  0  0  0  0  3  0  0  0  0  0  0
  -23.0480  -10.3860   20.1660 C   0  0  0  0  0  3  0  0  0  0  0  0
  -21.8730   -7.1360   21.3860 O   0  0  0  0  0  0  0  0  0  0  0  0
  -21.7730   -6.4130   22.5460 C   0  0  0  0  0  0  0  0  0  0  0  0
  -21.2950   -6.9880   23.7430 C   0  0  0  0  0  3  0  0  0  0  0  0
  -21.1440   -6.1910   24.8950 C   0  0  0  0  0  3  0  0  0  0  0  0
  -21.4580   -4.8200   24.8490 C   0  0  0  0  0  0  0  0  0  0  0  0
  -21.9290   -4.2430   23.6560 C   0  0  0  0  0  3  0  0  0  0  0  0
  -22.0840   -5.0380   22.5070 C   0  0  0  0  0  0  0  0  0  0  0  0
  -22.5170   -4.4740   21.3520 F   0  0  0  0  0  0  0  0  0  0  0  0
  -21.3060   -4.0520   25.9530 F   0  0  0  0  0  0  0  0  0  0  0  0
  -23.1520  -13.7430   21.0670 C   0  0  0  0  0  0  0  0  0  0  0  0
  -22.3980  -13.0690   21.9270 N   0  0  0  0  0  0  0  0  0  0  0  0
  -22.7480  -14.7820   20.5470 O   0  0  0  0  0  0  0  0  0  0  0  0
  -22.7330  -12.2260   22.3740 H   0  0  0  0  0  0  0  0  0  0  0  0
  -21.4680  -13.3990   22.1420 H   0  0  0  0  0  0  0  0  0  0  0  0
  -25.8360  -15.3320   20.2440 N   0  0  0  0  0  0  0  0  0  0  0  0
  -25.1000  -16.0200   20.3520 H   0  0  0  0  0  0  0  0  0  0  0  0
  -26.6980  -15.7330   19.8960 H   0  0  0  0  0  0  0  0  0  0  0  0
  1  2  1  0
  1 52  1  0
  2  3  1  0
  3  4  1  0
  4  5  1  0
  5  7  1  0
  6 10  1  0
  7  9  1  0
  7  6  1  0
  8  6  2  0
 10 11  1  0
 11 13  1  0
 12 23  2  0
 13 18  1  0
 14 22  1  0
 14 24  1  0
 15 17  1  0
 16 22  1  0
 17 18  2  0
 17 16  1  0
 19 13  2  0
 20 19  1  0
 20 15  2  0
 21 15  1  0
 21 14  1  0
 22 12  1  0
 24 26  2  0
 25 24  1  0
 27 25  1  0
 28 37  2  0
 28 33  1  0
 29 25  1  0
 29 33  1  0
 30 29  1  0
 31 32  1  0
 31 30  1  0
 32 28  1  0
 33 34  2  0
 34 35  1  0
 36 35  2  0
 37 36  1  0
 38 12  1  0
 38 39  1  0
 38 48  1  0
 39 42  1  0
 40 44  1  0
 40 39  1  0
 41 40  2  0
 44 43  1  0
 46 44  1  0
 46 47  1  0
 46 45  1  0
 48 51  1  1
 48 49  1  0
 50 48  1  0
 52 53  1  0
 53 55  1  0
 54 56  2  0
 54 58  1  0
 55 54  1  0
 57 55  1  0
 58 60  1  0
 59 60  1  0
 59 63  1  0
 60 62  1  0
 61 59  2  0
 64 72  1  0
 65 70  1  0
 66 67  1  0
 66 65  1  0
 68 67  1  0
 68 77  1  0
 68 69  1  0
 70 64  1  0
 70 69  1  0
 71 64  2  0
 72 63  1  0
 72 73  1  0
 74 75  2  0
 75 94  1  0
 76 75  1  0
 76 79  1  0
 77 74  1  0
 77 78  1  0
 78 76  2  0
 79 80  1  0
 80 81  2  0
 82 85  1  0
 82 81  1  0
 83 82  2  0
 84 83  1  0
 84 79  2  0
 85 86  1  0
 86 87  1  0
 87 88  2  0
 89 88  1  0
 89 93  1  0
 90 89  2  0
 91 86  2  0
 91 90  1  0
 92 91  1  0
 94 95  1  0
 95 98  1  0
 95 97  1  0
 96 94  2  0
 99100  1  0
 99 74  1  0
101 99  1  0
M  ISO  4  10 101  11 101  64 100  72 100
M  END
>  <TORSDO>  (22) 
F 28

>  <SCORE>  (22) 
-10.437

>  <name>  (22) 
21

>  <ligand_id>  (22) 
21

>  <original_smiles>  (22) 
[H]c1c([H])c([H])c2c(c1[H])C([H])([H])C([H])([H])C([H])([H])C2([H])N([H])C(=O)C1([H])N(C(=O)C([H])(N([H])C(=O)C([H])(N([H])C([H])([H])[H])C([H])([H])[H])C(C([H])([H])[H])(C([H])([H])[H])C([H])([H])[H])C([H])([H])c2c([H])c(OC([H])([H])C(=O)N([H])C([H])([H])C([H])([H])C([H])([H])C([H])([H])C([H])([H])C([H])([H])C([H])([H])N([H])C(=O)C([H])([H])N([H])C(=O)C([H])([H])N([H])C(=O)N3C([H])([H])C([H])([H])C([H])([H])C([H])(n4nc(-c5c([H])c([H])c(Oc6c([H])c([H])c(F)c([H])c6F)c([H])c5[H])c(C(=O)N([H])[H])c4N([H])[H])C3([H])[H])c([H])c([H])c2C1([H])[H]

>  <smiles>  (22) 
[H]c1c([H])c([H])c2c(c1[H])C([H])([H])C([H])([H])C([H])([H])C2([H])N([H])C(=O)C1([H])N(C(=O)C([H])(N([H])C(=O)C([H])(N([H])C([H])([H])[H])C([H])([H])[H])C(C([H])([H])[H])(C([H])([H])[H])C([H])([H])[H])C([H])([H])c2c([H])c(OC([H])([H])C(=O)N([H])C([H])([H])C([H])([H])C([H])([H])C([H])([H])C([H])([H])C([H])([H])C([H])([H])N([H])C(=O)C([H])([H])N([H])C(=O)C([H])([H])N([H])C(=O)N3C([H])([H])C([H])([H])C([H])([H])C([H])(n4nc(-c5c([H])c([H])c(Oc6c([H])c([H])c(F)c([H])c6F)c([H])c5[H])c(C(=O)N([H])[H])c4N([H])[H])C3([H])[H])c([H])c([H])c2C1([H])[H]

$$$$
22:0:0
     RDKit          3D

 92100  0  0  1  0  0  0  0  0999 V2000
  -28.9550  -22.1390   20.3490 C   0  0  0  0  0  0  0  0  0  0  0  0
  -29.7390  -21.1500   18.2590 C   0  0  0  0  0  1  0  0  0  0  0  0
  -29.5470  -21.0270   19.7120 N   0  0  0  0  0  0  0  0  0  0  0  0
  -28.4160  -22.0220   21.4570 O   0  0  0  0  0  0  0  0  0  0  0  0
  -30.6800  -18.5440   22.3980 C   0  0  0  0  0  3  0  0  0  0  0  0
  -30.3160  -19.7160   21.7130 C   0  0  0  0  0  3  0  0  0  0  0  0
  -30.0870  -18.4190   19.6800 C   0  0  0  0  0  3  0  0  0  0  0  0
  -30.6990  -17.2900   21.7590 C   0  0  0  0  0  0  0  0  0  0  0  0
  -29.9540  -19.7190   20.3430 C   0  0  0  0  0  0  0  0  0  0  0  0
  -30.4880  -17.1910   20.3600 C   0  0  0  0  0  0  0  0  0  0  0  0
  -30.7950  -16.0590   22.6490 C   0  0  0  0  0  1  0  0  0  0  0  0
  -31.3000  -14.7650   19.7560 C   0  0  0  0  0  0  0  0  0  0  0  0
  -31.0120  -12.4790   18.7740 C   0  0  0  0  0  2  0  0  0  0  0  0
  -29.9990  -12.5950   17.6130 C   0  0  0  0  0  2  0  0  0  0  0  0
  -28.5500  -12.4950   18.1410 C   0  0  0  0  0  2  0  0  0  0  0  0
  -28.2970  -13.4140   19.3680 C   0  0  0  0  0  3  0  0  0  0  0  0
  -29.4130  -13.2230   20.4130 C   0  0  0  0  0  2  0  0  0  0  0  0
  -30.6820  -13.5390   19.7450 N   0  0  0  0  0  0  0  0  0  0  0  0
  -32.4860  -14.8870   19.4380 O   0  0  0  0  0  0  0  0  0  0  0  0
  -30.4260  -15.8390   19.7790 N   0  0  0  0  0  0  0  0  0  0  0  0
  -29.4850  -15.4830   19.7180 H   0  0  0  0  0  0  0  0  0  0  0  0
  -26.0280  -14.1670   20.3000 C   0  0  0  0  0  0  0  0  0  0  0  0
  -24.9340  -13.4610   20.7230 C   0  0  0  0  0  0  0  0  0  0  0  0
  -25.2920  -12.0810   20.6220 C   0  0  0  0  0  0  0  0  0  0  0  0
  -26.9760  -13.2170   19.9500 N   0  0  0  0  0  0  0  0  0  0  0  0
  -26.5470  -11.9580   20.2090 N   0  0  0  0  0  0  0  0  0  0  0  0
  -24.4950  -10.8700   20.8300 C   0  0  0  0  0  0  0  0  0  0  0  0
  -24.8690   -9.8940   21.7790 C   0  0  0  0  0  3  0  0  0  0  0  0
  -24.0760   -8.7430   21.9720 C   0  0  0  0  0  3  0  0  0  0  0  0
  -22.8930   -8.5610   21.2130 C   0  0  0  0  0  0  0  0  0  0  0  0
  -22.5390   -9.5260   20.2520 C   0  0  0  0  0  3  0  0  0  0  0  0
  -23.3330  -10.6680   20.0590 C   0  0  0  0  0  3  0  0  0  0  0  0
  -22.0750   -7.4640   21.3110 O   0  0  0  0  0  0  0  0  0  0  0  0
  -21.9010   -6.8040   22.5010 C   0  0  0  0  0  0  0  0  0  0  0  0
  -21.4220   -7.4610   23.6560 C   0  0  0  0  0  3  0  0  0  0  0  0
  -21.1900   -6.7290   24.8360 C   0  0  0  0  0  3  0  0  0  0  0  0
  -21.4280   -5.3410   24.8640 C   0  0  0  0  0  0  0  0  0  0  0  0
  -21.9010   -4.6840   23.7150 C   0  0  0  0  0  3  0  0  0  0  0  0
  -22.1340   -5.4130   22.5360 C   0  0  0  0  0  0  0  0  0  0  0  0
  -22.5690   -4.7720   21.4250 F   0  0  0  0  0  0  0  0  0  0  0  0
  -21.1980   -4.6370   25.9970 F   0  0  0  0  0  0  0  0  0  0  0  0
  -23.6000  -14.0290   21.1080 C   0  0  0  0  0  0  0  0  0  0  0  0
  -22.8950  -13.3690   22.0200 N   0  0  0  0  0  0  0  0  0  0  0  0
  -23.1950  -15.0900   20.6340 O   0  0  0  0  0  0  0  0  0  0  0  0
  -23.2350  -12.5100   22.4230 H   0  0  0  0  0  0  0  0  0  0  0  0
  -22.0020  -13.7330   22.3200 H   0  0  0  0  0  0  0  0  0  0  0  0
  -26.2820  -15.5270   20.1630 N   0  0  0  0  0  0  0  0  0  0  0  0
  -25.5800  -16.2240   20.3890 H   0  0  0  0  0  0  0  0  0  0  0  0
  -27.1340  -15.9330   19.7980 H   0  0  0  0  0  0  0  0  0  0  0  0
  -28.8980  -23.6220   19.7100 C   0  0  0  0  0  2  0  0  0  0  0  0
  -28.0390  -24.8120   20.4050 C   0  0  0  0  0  2  0  0  0  0  0  0
  -28.3740  -26.2840   20.2500 O   0  0  0  0  0  0  0  0  0  0  0  0
  -24.6270  -31.7600   23.2110 C   0  0  0  0  0  0  0  0  0  0  0  0
  -27.3020  -27.2030   20.1780 C   0  0  0  0  0  0  0  0  0  0  0  0
  -23.4670  -30.3700   21.5390 C   0  0  0  0  0  3  0  0  0  0  0  0
  -24.9550  -28.8530   20.1140 C   0  0  0  0  0  0  0  0  0  0  0  0
  -26.0110  -30.6980   21.4080 C   0  0  0  0  0  2  0  0  0  0  0  0
  -26.1120  -29.3260   20.7480 C   0  0  0  0  0  0  0  0  0  0  0  0
  -27.2950  -28.5140   20.7700 C   0  0  0  0  0  3  0  0  0  0  0  0
  -26.1350  -26.8180   19.4870 C   0  0  0  0  0  3  0  0  0  0  0  0
  -24.9710  -27.6090   19.4760 C   0  0  0  0  0  3  0  0  0  0  0  0
  -23.7100  -29.7220   20.1530 C   0  0  0  0  0  2  0  0  0  0  0  0
  -24.7190  -30.9590   22.1090 N   0  0  0  0  0  0  0  0  0  0  0  0
  -23.5300  -32.0160   23.7270 O   0  0  0  0  0  0  0  0  0  0  0  0
  -22.8020  -29.3290   22.4740 C   0  0  0  0  0  0  0  0  0  0  0  0
  -21.4860  -29.1170   22.3110 N   0  0  0  0  0  0  0  0  0  0  0  0
  -23.4730  -28.7180   23.3100 O   0  0  0  0  0  0  0  0  0  0  0  0
  -20.9930  -29.6670   21.6200 H   0  0  0  0  0  0  0  0  0  0  0  0
  -18.1370  -27.7960   22.6840 C   0  0  0  0  0  0  0  0  0  0  0  0
  -20.6700  -28.1580   23.0610 C   0  0  0  0  0  3  0  0  0  0  0  0
  -20.8530  -26.7230   22.5180 C   0  0  0  0  0  2  0  0  0  0  0  0
  -19.8120  -26.3430   21.4610 C   0  0  0  0  0  2  0  0  0  0  0  0
  -18.3970  -26.4470   22.0370 C   0  0  0  0  0  2  0  0  0  0  0  0
  -19.2060  -28.6060   23.1520 C   0  0  0  0  0  0  0  0  0  0  0  0
  -18.9120  -29.8700   23.7100 C   0  0  0  0  0  3  0  0  0  0  0  0
  -17.5840  -30.3210   23.8110 C   0  0  0  0  0  3  0  0  0  0  0  0
  -16.5310  -29.5080   23.3600 C   0  0  0  0  0  3  0  0  0  0  0  0
  -16.8080  -28.2490   22.7990 C   0  0  0  0  0  3  0  0  0  0  0  0
  -25.8870  -32.4060   23.8580 C   0  0  0  0  0  3  0  0  0  0  0  0
  -26.3950  -31.6300   25.1360 C   0  0  1  0  0  0  0  0  0  0  0  0
  -25.2820  -31.3440   26.1760 C   0  0  0  0  0  1  0  0  0  0  0  0
  -27.0260  -30.2750   24.7370 C   0  0  0  0  0  1  0  0  0  0  0  0
  -27.5090  -32.4450   25.8340 C   0  0  0  0  0  1  0  0  0  0  0  0
  -25.5490  -33.7950   24.2040 N   0  0  0  0  0  0  0  0  0  0  0  0
  -25.9070  -34.8660   23.4840 C   0  0  0  0  0  0  0  0  0  0  0  0
  -26.6260  -34.7910   22.4830 O   0  0  0  0  0  0  0  0  0  0  0  0
  -24.9140  -33.9320   24.9770 H   0  0  0  0  0  0  0  0  0  0  0  0
  -24.1810  -36.6500   23.0880 C   0  0  0  0  0  1  0  0  0  0  0  0
  -25.3890  -36.2430   23.9450 C   0  0  0  0  0  3  0  0  0  0  0  0
  -27.4830  -37.1210   24.8750 C   0  0  0  0  0  1  0  0  0  0  0  0
  -26.4160  -37.3060   23.8960 N   0  0  0  0  0  0  0  0  0  0  0  0
  -25.9960  -38.2200   24.0510 H   0  0  0  0  0  0  0  0  0  0  0  0
  1  4  2  0
  2  3  1  0
  3  9  1  0
  3  1  1  0
  6  5  2  0
  7  9  2  0
  7 10  1  0
  8  5  1  0
  8 11  1  0
  9  6  1  0
 10  8  2  0
 12 20  1  0
 13 18  1  0
 14 15  1  0
 14 13  1  0
 16 15  1  0
 16 25  1  0
 16 17  1  0
 18 12  1  0
 18 17  1  0
 19 12  2  0
 20 10  1  0
 21 20  1  0
 22 23  2  0
 23 42  1  0
 24 23  1  0
 24 27  1  0
 25 26  1  0
 25 22  1  0
 26 24  2  0
 27 28  1  0
 28 29  2  0
 30 33  1  0
 30 29  1  0
 31 30  2  0
 32 31  1  0
 32 27  2  0
 33 34  1  0
 34 39  2  0
 34 35  1  0
 35 36  2  0
 36 37  1  0
 37 41  1  0
 38 37  2  0
 39 38  1  0
 40 39  1  0
 42 43  1  0
 43 46  1  0
 43 45  1  0
 44 42  2  0
 47 22  1  0
 47 48  1  0
 49 47  1  0
 50  1  1  0
 50 51  1  0
 52 51  1  0
 53 64  2  0
 54 52  1  0
 54 59  1  0
 55 63  1  0
 55 65  1  0
 56 62  1  0
 56 58  1  0
 57 63  1  0
 58 59  2  0
 58 57  1  0
 60 54  2  0
 61 60  1  0
 61 56  2  0
 62 55  1  0
 63 53  1  0
 65 67  2  0
 66 65  1  0
 68 66  1  0
 69 78  2  0
 69 74  1  0
 70 66  1  0
 70 74  1  0
 71 70  1  0
 72 73  1  0
 72 71  1  0
 73 69  1  0
 74 75  2  0
 75 76  1  0
 77 76  2  0
 78 77  1  0
 79 53  1  0
 79 84  1  0
 79 80  1  0
 80 83  1  1
 80 81  1  0
 82 80  1  0
 84 87  1  0
 85 89  1  0
 85 84  1  0
 86 85  2  0
 89 88  1  0
 91 89  1  0
 91 92  1  0
 91 90  1  0
M  ISO  4  12 100  20 100  51 101  52 101
M  END
>  <TORSDO>  (23) 
F 19

>  <SCORE>  (23) 
-12.705

>  <name>  (23) 
22

>  <ligand_id>  (23) 
22

>  <original_smiles>  (23) 
[H]c1c([H])c([H])c2c(c1[H])C([H])([H])C([H])([H])C([H])([H])C2([H])N([H])C(=O)C1([H])N(C(=O)C([H])(N([H])C(=O)C([H])(N([H])C([H])([H])[H])C([H])([H])[H])C(C([H])([H])[H])(C([H])([H])[H])C([H])([H])[H])C([H])([H])c2c([H])c(OC([H])([H])C([H])([H])C(=O)N(c3c([H])c([H])c(C([H])([H])[H])c(N([H])C(=O)N4C([H])([H])C([H])([H])C([H])([H])C([H])(n5nc(-c6c([H])c([H])c(Oc7c([H])c([H])c(F)c([H])c7F)c([H])c6[H])c(C(=O)N([H])[H])c5N([H])[H])C4([H])[H])c3[H])C([H])([H])[H])c([H])c([H])c2C1([H])[H]

>  <smiles>  (23) 
[H]c1c([H])c([H])c2c(c1[H])C([H])([H])C([H])([H])C([H])([H])C2([H])N([H])C(=O)C1([H])N(C(=O)C([H])(N([H])C(=O)C([H])(N([H])C([H])([H])[H])C([H])([H])[H])C(C([H])([H])[H])(C([H])([H])[H])C([H])([H])[H])C([H])([H])c2c([H])c(OC([H])([H])C([H])([H])C(=O)N(c3c([H])c([H])c(C([H])([H])[H])c(N([H])C(=O)N4C([H])([H])C([H])([H])C([H])([H])C([H])(n5nc(-c6c([H])c([H])c(Oc7c([H])c([H])c(F)c([H])c7F)c([H])c6[H])c(C(=O)N([H])[H])c5N([H])[H])C4([H])[H])c3[H])C([H])([H])[H])c([H])c([H])c2C1([H])[H]

$$$$
23:0:0
     RDKit          3D

114122  0  0  1  0  0  0  0  0999 V2000
  -25.5170  -20.0320   19.2360 C   0  0  0  0  0  2  0  0  0  0  0  0
  -24.9480  -21.1800   18.4600 N   0  0  1  0  0  4  0  0  0  0  0  0
  -25.5970  -21.9430   18.5890 H   0  0  0  0  0  0  0  0  0  0  0  0
  -24.2460  -19.6220   16.5680 C   0  0  0  0  0  1  0  0  0  0  0  0
  -26.2860  -21.1060   16.3280 C   0  0  0  0  0  1  0  0  0  0  0  0
  -24.9020  -20.9580   16.9790 C   0  0  0  0  0  3  0  0  0  0  0  0
  -23.6650  -21.7210   19.0050 C   0  0  0  0  0  2  0  0  0  0  0  0
  -23.6100  -23.2670   18.9640 C   0  0  0  0  0  2  0  0  0  0  0  0
  -24.5740  -23.9920   19.9210 C   0  0  0  0  0  3  0  0  0  0  0  0
  -24.2460  -23.8730   21.4210 C   0  0  0  0  0  3  0  0  0  0  0  0
  -25.2420  -24.5810   22.3660 C   0  0  0  0  0  2  0  0  0  0  0  0
  -26.7390  -24.1980   22.2180 C   0  0  0  0  0  2  0  0  0  0  0  0
  -28.0950  -24.5850   20.1240 C   0  0  0  0  0  0  0  0  0  0  0  0
  -27.4270  -25.0050   21.2110 N   0  0  0  0  0  0  0  0  0  0  0  0
  -28.2440  -23.3860   19.8760 O   0  0  0  0  0  0  0  0  0  0  0  0
  -27.3560  -26.0100   21.3200 H   0  0  0  0  0  0  0  0  0  0  0  0
  -28.6240  -25.6440   19.1240 C   0  0  0  0  0  2  0  0  0  0  0  0
  -28.5570  -26.9960   19.6060 O   0  0  0  0  0  0  0  0  0  0  0  0
  -24.6110  -31.5940   23.2470 C   0  0  0  0  0  0  0  0  0  0  0  0
  -27.3560  -27.6780   19.6110 C   0  0  0  0  0  0  0  0  0  0  0  0
  -23.4210  -30.3420   21.4750 C   0  0  0  0  0  3  0  0  0  0  0  0
  -24.8990  -29.0510   19.8510 C   0  0  0  0  0  0  0  0  0  0  0  0
  -25.9270  -30.8250   21.2820 C   0  0  0  0  0  2  0  0  0  0  0  0
  -26.0470  -29.5500   20.4790 C   0  0  0  0  0  0  0  0  0  0  0  0
  -27.2720  -28.8610   20.3700 C   0  0  0  0  0  3  0  0  0  0  0  0
  -26.1970  -27.2180   18.9410 C   0  0  0  0  0  3  0  0  0  0  0  0
  -24.9650  -27.8800   19.0830 C   0  0  0  0  0  3  0  0  0  0  0  0
  -23.6240  -29.8390   20.0220 C   0  0  0  0  0  2  0  0  0  0  0  0
  -24.6700  -30.9270   22.0590 N   0  0  0  0  0  0  0  0  0  0  0  0
  -23.5340  -31.7600   23.8350 O   0  0  0  0  0  0  0  0  0  0  0  0
  -22.8390  -29.1860   22.3180 C   0  0  0  0  0  0  0  0  0  0  0  0
  -21.5410  -28.9010   22.1250 N   0  0  0  0  0  0  0  0  0  0  0  0
  -23.5540  -28.5560   23.1020 O   0  0  0  0  0  0  0  0  0  0  0  0
  -21.0290  -29.4610   21.4610 H   0  0  0  0  0  0  0  0  0  0  0  0
  -18.3020  -27.3170   22.3090 C   0  0  0  0  0  0  0  0  0  0  0  0
  -20.7880  -27.8400   22.7920 C   0  0  0  0  0  3  0  0  0  0  0  0
  -21.0980  -26.4610   22.1640 C   0  0  0  0  0  2  0  0  0  0  0  0
  -20.1180  -26.0710   21.0550 C   0  0  0  0  0  2  0  0  0  0  0  0
  -18.6830  -26.0330   21.5920 C   0  0  0  0  0  2  0  0  0  0  0  0
  -19.2910  -28.1740   22.8590 C   0  0  0  0  0  0  0  0  0  0  0  0
  -18.8860  -29.3740   23.4860 C   0  0  0  0  0  3  0  0  0  0  0  0
  -17.5230  -29.7150   23.5740 C   0  0  0  0  0  3  0  0  0  0  0  0
  -16.5470  -28.8540   23.0440 C   0  0  0  0  0  3  0  0  0  0  0  0
  -16.9370  -27.6590   22.4150 C   0  0  0  0  0  3  0  0  0  0  0  0
  -25.8900  -32.2030   23.9060 C   0  0  0  0  0  3  0  0  0  0  0  0
  -26.3760  -31.4040   25.1770 C   0  0  1  0  0  0  0  0  0  0  0  0
  -25.2600  -31.1690   26.2220 C   0  0  0  0  0  1  0  0  0  0  0  0
  -26.9470  -30.0250   24.7780 C   0  0  0  0  0  1  0  0  0  0  0  0
  -27.5280  -32.1720   25.8680 C   0  0  0  0  0  1  0  0  0  0  0  0
  -25.5870  -33.5980   24.2500 N   0  0  0  0  0  0  0  0  0  0  0  0
  -25.9910  -34.6620   23.5430 C   0  0  0  0  0  0  0  0  0  0  0  0
  -26.7310  -34.5700   22.5580 O   0  0  0  0  0  0  0  0  0  0  0  0
  -24.9420  -33.7420   25.0130 H   0  0  0  0  0  0  0  0  0  0  0  0
  -24.3540  -36.5110   23.0820 C   0  0  0  0  0  1  0  0  0  0  0  0
  -25.4970  -36.0460   23.9990 C   0  0  0  0  0  3  0  0  0  0  0  0
  -27.5600  -36.8330   25.0710 C   0  0  0  0  0  1  0  0  0  0  0  0
  -26.5640  -37.0710   24.0300 N   0  0  0  0  0  0  0  0  0  0  0  0
  -26.1690  -37.9950   24.1770 H   0  0  0  0  0  0  0  0  0  0  0  0
  -26.3420  -20.4530   20.4740 C   0  0  0  0  0  2  0  0  0  0  0  0
  -27.4930  -19.4930   20.8550 C   0  0  0  0  0  2  0  0  0  0  0  0
  -28.4930  -19.1390   19.7310 C   0  0  0  0  0  2  0  0  0  0  0  0
  -28.7780  -20.2870   18.7320 C   0  0  0  0  0  2  0  0  0  0  0  0
  -30.2220  -20.3500   18.1710 C   0  0  0  0  0  2  0  0  0  0  0  0
  -30.5700  -19.4750   15.8810 C   0  0  0  0  0  0  0  0  0  0  0  0
  -30.9950  -18.3200   14.9720 C   0  0  0  0  0  1  0  0  0  0  0  0
  -30.5590  -19.2680   17.2210 N   0  0  0  0  0  0  0  0  0  0  0  0
  -30.2610  -20.5520   15.3590 O   0  0  0  0  0  0  0  0  0  0  0  0
  -32.0820  -16.5990   19.3600 C   0  0  0  0  0  3  0  0  0  0  0  0
  -29.9580  -16.9370   17.5440 C   0  0  0  0  0  3  0  0  0  0  0  0
  -31.0770  -15.6230   19.2460 C   0  0  0  0  0  0  0  0  0  0  0  0
  -30.8640  -17.9940   17.7760 C   0  0  0  0  0  0  0  0  0  0  0  0
  -31.9870  -17.8120   18.6260 C   0  0  0  0  0  0  0  0  0  0  0  0
  -30.0420  -15.7590   18.3020 C   0  0  0  0  0  0  0  0  0  0  0  0
  -29.0720  -14.8130   18.1970 F   0  0  0  0  0  0  0  0  0  0  0  0
  -31.8370  -13.8170   20.7740 C   0  0  0  0  0  0  0  0  0  0  0  0
  -31.8510  -11.6380   21.9370 C   0  0  0  0  0  2  0  0  0  0  0  0
  -31.2420  -10.5860   20.9870 C   0  0  0  0  0  2  0  0  0  0  0  0
  -29.6940  -10.5860   21.0280 C   0  0  0  0  0  2  0  0  0  0  0  0
  -29.0840  -12.0100   20.9450 C   0  0  0  0  0  3  0  0  0  0  0  0
  -29.8010  -12.9340   21.9490 C   0  0  0  0  0  2  0  0  0  0  0  0
  -31.2410  -12.9280   21.6080 N   0  0  0  0  0  0  0  0  0  0  0  0
  -33.0330  -13.7870   20.4570 O   0  0  0  0  0  0  0  0  0  0  0  0
  -30.9450  -14.6620   20.2560 N   0  0  0  0  0  0  0  0  0  0  0  0
  -29.9970  -14.4710   20.5410 H   0  0  0  0  0  0  0  0  0  0  0  0
  -26.7510  -13.0570   21.2620 C   0  0  0  0  0  0  0  0  0  0  0  0
  -25.5120  -12.4960   21.3960 C   0  0  0  0  0  0  0  0  0  0  0  0
  -25.7140  -11.0810   21.3590 C   0  0  0  0  0  0  0  0  0  0  0  0
  -27.6390  -11.9990   21.1610 N   0  0  0  0  0  0  0  0  0  0  0  0
  -27.0070  -10.8020   21.2680 N   0  0  0  0  0  0  0  0  0  0  0  0
  -24.7470   -9.9760   21.3470 C   0  0  0  0  0  0  0  0  0  0  0  0
  -24.7620   -8.9710   22.3400 C   0  0  0  0  0  3  0  0  0  0  0  0
  -23.8130   -7.9280   22.3170 C   0  0  0  0  0  3  0  0  0  0  0  0
  -22.8350   -7.8800   21.2950 C   0  0  0  0  0  0  0  0  0  0  0  0
  -22.8350   -8.8740   20.2980 C   0  0  0  0  0  3  0  0  0  0  0  0
  -23.7850   -9.9080   20.3210 C   0  0  0  0  0  3  0  0  0  0  0  0
  -21.8890   -6.8920   21.1780 O   0  0  0  0  0  0  0  0  0  0  0  0
  -21.3270   -6.2970   22.2790 C   0  0  0  0  0  0  0  0  0  0  0  0
  -20.6510   -7.0470   23.2660 C   0  0  0  0  0  3  0  0  0  0  0  0
  -20.0270   -6.3880   24.3450 C   0  0  0  0  0  3  0  0  0  0  0  0
  -20.0730   -4.9840   24.4350 C   0  0  0  0  0  0  0  0  0  0  0  0
  -20.7410   -4.2360   23.4500 C   0  0  0  0  0  3  0  0  0  0  0  0
  -21.3650   -4.8910   22.3730 C   0  0  0  0  0  0  0  0  0  0  0  0
  -21.9890   -4.1650   21.4140 F   0  0  0  0  0  0  0  0  0  0  0  0
  -19.4680   -4.3490   25.4660 F   0  0  0  0  0  0  0  0  0  0  0  0
  -24.1970  -13.2230   21.4580 C   0  0  0  0  0  0  0  0  0  0  0  0
  -23.2160  -12.6660   22.1570 N   0  0  0  0  0  0  0  0  0  0  0  0
  -24.0470  -14.3210   20.9200 O   0  0  0  0  0  0  0  0  0  0  0  0
  -23.3460  -11.7780   22.6220 H   0  0  0  0  0  0  0  0  0  0  0  0
  -22.3250  -13.1330   22.2370 H   0  0  0  0  0  0  0  0  0  0  0  0
  -27.1970  -14.3760   21.2070 N   0  0  0  0  0  0  0  0  0  0  0  0
  -26.5540  -15.1560   21.2310 H   0  0  0  0  0  0  0  0  0  0  0  0
  -28.1620  -14.6500   21.0780 H   0  0  0  0  0  0  0  0  0  0  0  0
  -34.0540  -18.6060   19.5780 C   0  0  0  0  0  1  0  0  0  0  0  0
  -32.9150  -18.8280   18.7400 O   0  0  0  0  0  0  0  0  0  0  0  0
  1 59  1  0
  2  3  1  6
  2  7  1  0
  2  1  1  0
  4  6  1  0
  5  6  1  0
  6  2  1  0
  8  7  1  0
  8  9  1  0
  9 10  2  0
 10 11  1  0
 12 11  1  0
 13 14  1  0
 14 16  1  0
 14 12  1  0
 15 13  2  0
 17 18  1  0
 17 13  1  0
 18 20  1  0
 19 30  2  0
 20 25  1  0
 21 29  1  0
 21 31  1  0
 22 28  1  0
 22 24  1  0
 23 29  1  0
 24 23  1  0
 25 24  2  0
 26 27  1  0
 26 20  2  0
 27 22  2  0
 28 21  1  0
 29 19  1  0
 31 33  2  0
 32 31  1  0
 34 32  1  0
 35 44  2  0
 35 40  1  0
 36 32  1  0
 36 40  1  0
 37 36  1  0
 38 39  1  0
 38 37  1  0
 39 35  1  0
 40 41  2  0
 41 42  1  0
 43 42  2  0
 44 43  1  0
 45 19  1  0
 45 50  1  0
 45 46  1  0
 46 49  1  1
 46 47  1  0
 48 46  1  0
 50 53  1  0
 51 55  1  0
 51 50  1  0
 52 51  2  0
 55 54  1  0
 55 57  1  0
 57 58  1  0
 57 56  1  0
 59 60  1  0
 61 60  1  0
 62 61  1  0
 63 62  1  0
 64 66  1  0
 65 64  1  0
 66 71  1  0
 66 63  1  0
 67 64  2  0
 69 71  2  0
 69 73  1  0
 70 68  1  0
 70 83  1  0
 71 72  1  0
 72114  1  0
 72 68  2  0
 73 70  2  0
 74 73  1  0
 75 81  1  0
 77 78  1  0
 77 76  1  0
 79 78  1  0
 79 88  1  0
 79 80  1  0
 81 76  1  0
 81 80  1  0
 82 75  2  0
 83 84  1  0
 83 75  1  0
 85 86  2  0
 86105  1  0
 87 86  1  0
 88 85  1  0
 88 89  1  0
 89 87  2  0
 90 87  1  0
 90 91  1  0
 92 91  2  0
 93 92  1  0
 94 95  1  0
 94 93  2  0
 95 90  2  0
 96 93  1  0
 96 97  1  0
 97102  2  0
 97 98  1  0
 98 99  2  0
 99100  1  0
100104  1  0
101100  2  0
102101  1  0
103102  1  0
105106  1  0
106109  1  0
106108  1  0
107105  2  0
110111  1  0
110 85  1  0
112110  1  0
114113  1  0
M  ISO  4  17 101  18 101  75 100  83 100
M  END
>  <TORSDO>  (24) 
F 34

>  <SCORE>  (24) 
-2.419

>  <name>  (24) 
23

>  <ligand_id>  (24) 
23

>  <original_smiles>  (24) 
[H]c1c([H])c([H])c2c(c1[H])C([H])([H])C([H])([H])C([H])([H])C2([H])N([H])C(=O)C1([H])N(C(=O)C([H])(N([H])C(=O)C([H])(N([H])C([H])([H])[H])C([H])([H])[H])C(C([H])([H])[H])(C([H])([H])[H])C([H])([H])[H])C([H])([H])c2c([H])c(OC([H])([H])C(=O)N([H])C([H])([H])C([H])([H])C([H])([H])C([H])([H])C([H])([H])C([H])([H])[N+]([H])(C([H])([H])C([H])([H])C([H])([H])C([H])([H])C([H])([H])C([H])([H])N(C(=O)C([H])([H])[H])c3c([H])c(F)c(N([H])C(=O)N4C([H])([H])C([H])([H])C([H])([H])C([H])(n5nc(-c6c([H])c([H])c(Oc7c([H])c([H])c(F)c([H])c7F)c([H])c6[H])c(C(=O)N([H])[H])c5N([H])[H])C4([H])[H])c([H])c3OC([H])([H])[H])C([H])(C([H])([H])[H])C([H])([H])[H])c([H])c([H])c2C1([H])[H]

>  <smiles>  (24) 
[H]c1c([H])c([H])c2c(c1[H])C([H])([H])C([H])([H])C([H])([H])C2([H])N([H])C(=O)C1([H])N(C(=O)C([H])(N([H])C(=O)C([H])(N([H])C([H])([H])[H])C([H])([H])[H])C(C([H])([H])[H])(C([H])([H])[H])C([H])([H])[H])C([H])([H])c2c([H])c(OC([H])([H])C(=O)N([H])C([H])([H])C([H])([H])C([H])([H])C([H])([H])C([H])([H])C([H])([H])[N+]([H])(C([H])([H])C([H])([H])C([H])([H])C([H])([H])C([H])([H])C([H])([H])N(C(=O)C([H])([H])[H])c3c([H])c(F)c(N([H])C(=O)N4C([H])([H])C([H])([H])C([H])([H])C([H])(n5nc(-c6c([H])c([H])c(Oc7c([H])c([H])c(F)c([H])c7F)c([H])c6[H])c(C(=O)N([H])[H])c5N([H])[H])C4([H])[H])c([H])c3OC([H])([H])[H])C([H])(C([H])([H])[H])C([H])([H])[H])c([H])c([H])c2C1([H])[H]

$$$$
24:0:0
     RDKit          3D

 94102  0  0  1  0  0  0  0  0999 V2000
  -30.9680  -17.6910   20.4500 C   0  0  0  0  0  3  0  0  0  0  0  0
  -30.6380  -19.0030   20.0200 C   0  0  0  0  0  3  0  0  0  0  0  0
  -28.6590  -17.0230   20.1290 C   0  0  0  0  0  3  0  0  0  0  0  0
  -28.3240  -18.3240   19.6800 C   0  0  0  0  0  0  0  0  0  0  0  0
  -29.9770  -16.6800   20.5010 C   0  0  0  0  0  0  0  0  0  0  0  0
  -29.3170  -19.3340   19.6170 C   0  0  0  0  0  0  0  0  0  0  0  0
  -30.8950  -14.3370   20.3660 C   0  0  0  0  0  0  0  0  0  0  0  0
  -30.6560  -12.0300   19.4930 C   0  0  0  0  0  2  0  0  0  0  0  0
  -29.7410  -12.0620   18.2500 C   0  0  0  0  0  2  0  0  0  0  0  0
  -28.2510  -11.9970   18.6470 C   0  0  0  0  0  2  0  0  0  0  0  0
  -27.8910  -12.9990   19.7750 C   0  0  0  0  0  3  0  0  0  0  0  0
  -28.9070  -12.8920   20.9340 C   0  0  0  0  0  2  0  0  0  0  0  0
  -30.2560  -13.1320   20.3830 N   0  0  0  0  0  0  0  0  0  0  0  0
  -32.0000  -14.5050   19.8360 O   0  0  0  0  0  0  0  0  0  0  0  0
  -30.1960  -15.3360   20.9470 N   0  0  0  0  0  0  0  0  0  0  0  0
  -29.4290  -14.9590   21.4840 H   0  0  0  0  0  0  0  0  0  0  0  0
  -25.5300  -13.7620   20.4610 C   0  0  0  0  0  0  0  0  0  0  0  0
  -24.4120  -13.0630   20.8280 C   0  0  0  0  0  0  0  0  0  0  0  0
  -24.7850  -11.6840   20.8000 C   0  0  0  0  0  0  0  0  0  0  0  0
  -26.5170  -12.8150   20.2390 N   0  0  0  0  0  0  0  0  0  0  0  0
  -26.0710  -11.5600   20.5000 N   0  0  0  0  0  0  0  0  0  0  0  0
  -23.9770  -10.4710   20.9860 C   0  0  0  0  0  0  0  0  0  0  0  0
  -24.3880   -9.4360   21.8540 C   0  0  0  0  0  3  0  0  0  0  0  0
  -23.5860   -8.2880   22.0290 C   0  0  0  0  0  3  0  0  0  0  0  0
  -22.3580   -8.1670   21.3340 C   0  0  0  0  0  0  0  0  0  0  0  0
  -21.9660   -9.1910   20.4530 C   0  0  0  0  0  3  0  0  0  0  0  0
  -22.7680  -10.3310   20.2760 C   0  0  0  0  0  3  0  0  0  0  0  0
  -21.5260   -7.0770   21.4230 O   0  0  0  0  0  0  0  0  0  0  0  0
  -21.5520   -6.2400   22.5090 C   0  0  0  0  0  0  0  0  0  0  0  0
  -21.3490   -6.7170   23.8230 C   0  0  0  0  0  3  0  0  0  0  0  0
  -21.3100   -5.8130   24.9020 C   0  0  0  0  0  3  0  0  0  0  0  0
  -21.4660   -4.4330   24.6710 C   0  0  0  0  0  0  0  0  0  0  0  0
  -21.6640   -3.9550   23.3640 C   0  0  0  0  0  3  0  0  0  0  0  0
  -21.7020   -4.8560   22.2860 C   0  0  0  0  0  0  0  0  0  0  0  0
  -21.8710   -4.3880   21.0260 F   0  0  0  0  0  0  0  0  0  0  0  0
  -21.4220   -3.5630   25.7080 F   0  0  0  0  0  0  0  0  0  0  0  0
  -23.0470  -13.6300   21.0940 C   0  0  0  0  0  0  0  0  0  0  0  0
  -22.2790  -12.9940   21.9710 N   0  0  0  0  0  0  0  0  0  0  0  0
  -22.6700  -14.6710   20.5560 O   0  0  0  0  0  0  0  0  0  0  0  0
  -22.5950  -12.1510   22.4280 H   0  0  0  0  0  0  0  0  0  0  0  0
  -21.3630  -13.3580   22.1910 H   0  0  0  0  0  0  0  0  0  0  0  0
  -25.7860  -15.1160   20.2740 N   0  0  0  0  0  0  0  0  0  0  0  0
  -25.0670  -15.8240   20.3780 H   0  0  0  0  0  0  0  0  0  0  0  0
  -26.6350  -15.4760   19.8610 H   0  0  0  0  0  0  0  0  0  0  0  0
  -26.8860  -18.6330   19.2600 C   0  0  1  0  0  0  0  0  0  0  0  0
  -26.0460  -17.6520   19.5880 F   0  0  0  0  0  0  0  0  0  0  0  0
  -26.4500  -19.7470   19.8530 F   0  0  0  0  0  0  0  0  0  0  0  0
  -26.8250  -18.8000   17.9390 F   0  0  0  0  0  0  0  0  0  0  0  0
  -28.9340  -20.5750   19.1280 O   0  0  0  0  0  0  0  0  0  0  0  0
  -29.7100  -21.7480   19.3870 C   0  0  0  0  0  2  0  0  0  0  0  0
  -28.7540  -22.9760   19.3170 C   0  0  0  0  0  3  0  0  0  0  0  0
  -29.3420  -24.3160   19.8340 C   0  0  0  0  0  3  0  0  0  0  0  0
  -28.2970  -25.4130   20.1960 C   0  0  0  0  0  2  0  0  0  0  0  0
  -28.0970  -26.3860   19.1640 O   0  0  0  0  0  0  0  0  0  0  0  0
  -24.6740  -31.3610   23.0110 C   0  0  0  0  0  0  0  0  0  0  0  0
  -26.9900  -27.1860   19.3440 C   0  0  0  0  0  0  0  0  0  0  0  0
  -23.3430  -30.2110   21.2710 C   0  0  0  0  0  3  0  0  0  0  0  0
  -24.6720  -28.7790   19.6270 C   0  0  0  0  0  0  0  0  0  0  0  0
  -25.8760  -30.4760   21.0130 C   0  0  0  0  0  2  0  0  0  0  0  0
  -25.8740  -29.1810   20.2250 C   0  0  0  0  0  0  0  0  0  0  0  0
  -27.0390  -28.3890   20.0860 C   0  0  0  0  0  3  0  0  0  0  0  0
  -25.7750  -26.7970   18.7450 C   0  0  0  0  0  3  0  0  0  0  0  0
  -24.6150  -27.5840   18.8880 C   0  0  0  0  0  3  0  0  0  0  0  0
  -23.4730  -29.6830   19.8170 C   0  0  0  0  0  2  0  0  0  0  0  0
  -24.6520  -30.6910   21.8240 N   0  0  0  0  0  0  0  0  0  0  0  0
  -23.6270  -31.6170   23.6220 O   0  0  0  0  0  0  0  0  0  0  0  0
  -22.6760  -29.1180   22.1370 C   0  0  0  0  0  0  0  0  0  0  0  0
  -21.3390  -29.0220   22.0570 N   0  0  0  0  0  0  0  0  0  0  0  0
  -23.3580  -28.3640   22.8360 O   0  0  0  0  0  0  0  0  0  0  0  0
  -20.8530  -29.6830   21.4660 H   0  0  0  0  0  0  0  0  0  0  0  0
  -17.9280  -27.9480   22.5710 C   0  0  0  0  0  0  0  0  0  0  0  0
  -20.5050  -28.0430   22.7520 C   0  0  0  0  0  3  0  0  0  0  0  0
  -20.5060  -26.6870   22.0110 C   0  0  0  0  0  2  0  0  0  0  0  0
  -19.3480  -26.5400   21.0190 C   0  0  0  0  0  2  0  0  0  0  0  0
  -18.0020  -26.6780   21.7390 C   0  0  0  0  0  2  0  0  0  0  0  0
  -19.1030  -28.5970   23.0340 C   0  0  0  0  0  0  0  0  0  0  0  0
  -18.9790  -29.7910   23.7760 C   0  0  0  0  0  3  0  0  0  0  0  0
  -17.7110  -30.3350   24.0570 C   0  0  0  0  0  3  0  0  0  0  0  0
  -16.5510  -29.6800   23.6090 C   0  0  0  0  0  3  0  0  0  0  0  0
  -16.6600  -28.4870   22.8710 C   0  0  0  0  0  3  0  0  0  0  0  0
  -26.0110  -31.8590   23.6450 C   0  0  0  0  0  3  0  0  0  0  0  0
  -25.7760  -33.2120   24.1670 N   0  0  0  0  0  0  0  0  0  0  0  0
  -26.1470  -34.3400   23.5480 C   0  0  0  0  0  0  0  0  0  0  0  0
  -26.7930  -34.3460   22.4970 O   0  0  0  0  0  0  0  0  0  0  0  0
  -25.2030  -33.2840   24.9940 H   0  0  0  0  0  0  0  0  0  0  0  0
  -24.5000  -36.2410   23.4770 C   0  0  0  0  0  1  0  0  0  0  0  0
  -25.7340  -35.6750   24.1980 C   0  0  0  0  0  3  0  0  0  0  0  0
  -27.9240  -36.3390   25.0880 C   0  0  0  0  0  1  0  0  0  0  0  0
  -26.8140  -36.6850   24.2040 N   0  0  0  0  0  0  0  0  0  0  0  0
  -26.4550  -37.5940   24.4850 H   0  0  0  0  0  0  0  0  0  0  0  0
  -26.5540  -30.9070   24.7810 C   0  0  1  0  0  0  0  0  0  0  0  0
  -25.5050  -30.5780   25.8690 C   0  0  0  0  0  1  0  0  0  0  0  0
  -27.0500  -29.5710   24.1820 C   0  0  0  0  0  1  0  0  0  0  0  0
  -27.7720  -31.5610   25.4740 C   0  0  0  0  0  1  0  0  0  0  0  0
  1  5  1  0
  2  1  2  0
  3  5  2  0
  4  3  1  0
  5 15  1  0
  6  4  2  0
  6  2  1  0
  7 13  1  0
  7 15  1  0
  8 13  1  0
  9 10  1  0
  9  8  1  0
 11 10  1  0
 11 20  1  0
 11 12  1  0
 13 12  1  0
 14  7  2  0
 15 16  1  0
 17 18  2  0
 18 37  1  0
 19 18  1  0
 19 22  1  0
 20 17  1  0
 20 21  1  0
 21 19  2  0
 22 23  1  0
 23 24  2  0
 25 28  1  0
 25 24  1  0
 26 25  2  0
 27 26  1  0
 27 22  2  0
 28 29  1  0
 29 30  1  0
 30 31  2  0
 32 31  1  0
 32 36  1  0
 33 32  2  0
 34 29  2  0
 34 33  1  0
 35 34  1  0
 37 38  1  0
 38 41  1  0
 38 40  1  0
 39 37  2  0
 42 43  1  0
 42 17  1  0
 44 42  1  0
 45 46  1  6
 45  4  1  0
 45 47  1  0
 48 45  1  0
 49 50  1  0
 49  6  1  0
 51 50  1  0
 51 52  2  0
 52 53  1  0
 54 56  1  0
 54 53  1  0
 55 66  2  0
 56 61  1  0
 57 65  1  0
 57 67  1  0
 58 64  1  0
 58 60  1  0
 59 65  1  0
 60 59  1  0
 61 60  2  0
 62 63  1  0
 62 56  2  0
 63 58  2  0
 64 57  1  0
 65 55  1  0
 67 69  2  0
 68 67  1  0
 70 68  1  0
 71 80  2  0
 71 76  1  0
 72 68  1  0
 72 76  1  0
 73 72  1  0
 74 75  1  0
 74 73  1  0
 75 71  1  0
 76 77  2  0
 77 78  1  0
 79 78  2  0
 80 79  1  0
 81 55  1  0
 81 82  1  0
 81 91  1  0
 82 85  1  0
 83 82  1  0
 83 87  1  0
 84 83  2  0
 87 86  1  0
 87 89  1  0
 89 90  1  0
 89 88  1  0
 91 94  1  1
 91 92  1  0
 93 91  1  0
M  ISO  4   7 100  15 100  53 101  54 101
M  END
>  <TORSDO>  (25) 
F 22

>  <SCORE>  (25) 
-11.637

>  <name>  (25) 
24

>  <ligand_id>  (25) 
24

>  <original_smiles>  (25) 
[H]c1c([H])c([H])c2c(c1[H])C([H])([H])C([H])([H])C([H])([H])C2([H])N([H])C(=O)C1([H])N(C(=O)C([H])(N([H])C(=O)C([H])(N([H])C([H])([H])[H])C([H])([H])[H])C(C([H])([H])[H])(C([H])([H])[H])C([H])([H])[H])C([H])([H])c2c([H])c(OC([H])([H])C([H])([H])C([H])([H])C([H])([H])Oc3c([H])c([H])c(N([H])C(=O)N4C([H])([H])C([H])([H])C([H])([H])C([H])(n5nc(-c6c([H])c([H])c(Oc7c([H])c([H])c(F)c([H])c7F)c([H])c6[H])c(C(=O)N([H])[H])c5N([H])[H])C4([H])[H])c([H])c3C(F)(F)F)c([H])c([H])c2C1([H])[H]

>  <smiles>  (25) 
[H]c1c([H])c([H])c2c(c1[H])C([H])([H])C([H])([H])C([H])([H])C2([H])N([H])C(=O)C1([H])N(C(=O)C([H])(N([H])C(=O)C([H])(N([H])C([H])([H])[H])C([H])([H])[H])C(C([H])([H])[H])(C([H])([H])[H])C([H])([H])[H])C([H])([H])c2c([H])c(OC([H])([H])C([H])([H])C([H])([H])C([H])([H])Oc3c([H])c([H])c(N([H])C(=O)N4C([H])([H])C([H])([H])C([H])([H])C([H])(n5nc(-c6c([H])c([H])c(Oc7c([H])c([H])c(F)c([H])c7F)c([H])c6[H])c(C(=O)N([H])[H])c5N([H])[H])C4([H])[H])c([H])c3C(F)(F)F)c([H])c([H])c2C1([H])[H]

$$$$
25:0:0
     RDKit          3D

102110  0  0  1  0  0  0  0  0999 V2000
  -23.2680  -18.7340   20.3020 C   0  0  0  0  0  0  0  0  0  0  0  0
  -22.7380  -17.6090   19.8360 N   0  0  0  0  0  0  0  0  0  0  0  0
  -23.3170  -18.8770   21.4990 O   0  0  0  0  0  0  0  0  0  0  0  0
  -21.9210  -17.7040   19.2300 H   0  0  0  0  0  0  0  0  0  0  0  0
  -22.9880  -13.9510   19.8630 C   0  0  0  0  0  3  0  0  0  0  0  0
  -24.3910  -13.7040   20.0740 C   0  0  0  0  0  3  0  0  0  0  0  0
  -22.4490  -15.2310   19.8740 C   0  0  0  0  0  3  0  0  0  0  0  0
  -24.7340  -16.0640   20.1320 C   0  0  0  0  0  3  0  0  0  0  0  0
  -25.2760  -14.7760   20.1980 C   0  0  0  0  0  0  0  0  0  0  0  0
  -23.3270  -16.3210   20.0000 C   0  0  0  0  0  0  0  0  0  0  0  0
  -26.8010  -14.4290   20.4710 C   0  0  0  0  0  2  0  0  0  0  0  0
  -28.8920  -14.8780   19.2920 C   0  0  0  0  0  3  0  0  0  0  0  0
  -28.5560  -13.9810   18.1060 C   0  0  0  0  0  1  0  0  0  0  0  0
  -27.9580  -15.3000   20.1000 N   0  0  0  0  0  2  0  0  0  0  0  0
  -30.4410  -15.3380   19.3360 C   0  0  0  0  0  2  0  0  0  0  0  0
  -32.3830  -13.4440   19.0280 C   0  0  0  0  0  0  0  0  0  0  0  0
  -31.7210  -11.3490   17.9920 C   0  0  0  0  0  2  0  0  0  0  0  0
  -30.4660  -11.7450   17.2100 C   0  0  0  0  0  2  0  0  0  0  0  0
  -29.2300  -11.6440   18.1070 C   0  0  0  0  0  2  0  0  0  0  0  0
  -29.3730  -12.2570   19.5240 C   0  0  0  0  0  3  0  0  0  0  0  0
  -30.7380  -11.9110   20.1620 C   0  0  0  0  0  2  0  0  0  0  0  0
  -31.7690  -12.2300   19.1560 N   0  0  0  0  0  0  0  0  0  0  0  0
  -33.5660  -13.4620   18.6660 O   0  0  0  0  0  0  0  0  0  0  0  0
  -31.5560  -14.5130   18.6630 N   0  0  0  0  0  0  0  0  0  0  0  0
  -32.0700  -15.1210   18.0200 H   0  0  0  0  0  0  0  0  0  0  0  0
  -27.6930  -12.9380   21.4260 C   0  0  0  0  0  3  0  0  0  0  0  0
  -26.5010  -12.3750   21.8060 C   0  0  0  0  0  0  0  0  0  0  0  0
  -26.4890  -11.0950   21.1830 C   0  0  0  0  0  0  0  0  0  0  0  0
  -28.2210  -12.0740   20.4430 N   0  0  0  0  0  0  0  0  0  0  0  0
  -27.5590  -10.9090   20.4260 N   0  0  0  0  0  2  0  0  0  0  0  0
  -25.5090  -10.0560   21.1850 C   0  0  0  0  0  0  0  0  0  0  0  0
  -25.8610   -8.8130   21.7410 C   0  0  0  0  0  3  0  0  0  0  0  0
  -24.9380   -7.7520   21.7790 C   0  0  0  0  0  3  0  0  0  0  0  0
  -23.6690   -7.9770   21.2090 C   0  0  0  0  0  0  0  0  0  0  0  0
  -23.3260   -9.2120   20.6200 C   0  0  0  0  0  3  0  0  0  0  0  0
  -24.2340  -10.2570   20.6390 C   0  0  0  0  0  3  0  0  0  0  0  0
  -22.6830   -7.0030   21.1450 O   0  0  0  0  0  0  0  0  0  0  0  0
  -22.4820   -6.1590   22.2030 C   0  0  0  0  0  0  0  0  0  0  0  0
  -22.0830   -6.5740   23.5070 C   0  0  0  0  0  3  0  0  0  0  0  0
  -21.8260   -5.6370   24.5060 C   0  0  0  0  0  3  0  0  0  0  0  0
  -21.9470   -4.2570   24.2360 C   0  0  0  0  0  0  0  0  0  0  0  0
  -22.3280   -3.8300   22.9410 C   0  0  0  0  0  3  0  0  0  0  0  0
  -22.5770   -4.7610   21.9400 C   0  0  0  0  0  0  0  0  0  0  0  0
  -22.9070   -4.3580   20.6970 F   0  0  0  0  0  0  0  0  0  0  0  0
  -21.6750   -3.3470   25.1890 F   0  0  0  0  0  0  0  0  0  0  0  0
  -25.4930  -12.8170   22.8120 C   0  0  0  0  0  0  0  0  0  0  0  0
  -24.8100  -11.8290   23.4420 N   0  0  0  0  0  0  0  0  0  0  0  0
  -25.3560  -14.0300   23.0690 O   0  0  0  0  0  0  0  0  0  0  0  0
  -24.8420  -10.8280   23.1710 H   0  0  0  0  0  0  0  0  0  0  0  0
  -24.3970  -11.9940   24.3900 H   0  0  0  0  0  0  0  0  0  0  0  0
  -28.4060  -14.0870   21.8000 N   0  0  0  0  0  0  0  0  0  0  0  0
  -28.1940  -14.7070   22.5850 H   0  0  0  0  0  0  0  0  0  0  0  0
  -29.4350  -13.9650   21.7200 H   0  0  0  0  0  0  0  0  0  0  0  0
  -23.7330  -19.8650   19.3150 C   0  0  0  0  0  2  0  0  0  0  0  0
  -24.1610  -21.2940   19.9720 C   0  0  0  0  0  3  0  0  0  0  0  0
  -25.6020  -21.9730   19.6440 C   0  0  0  0  0  3  0  0  0  0  0  0
  -27.0120  -24.1800   19.8890 C   0  0  0  0  0  0  0  0  0  0  0  0
  -26.0830  -23.2450   20.3770 N   0  0  0  0  0  0  0  0  0  0  0  0
  -27.2410  -24.0700   18.7030 O   0  0  0  0  0  0  0  0  0  0  0  0
  -25.8740  -23.3120   21.3630 H   0  0  0  0  0  0  0  0  0  0  0  0
  -27.8100  -25.3290   20.7910 C   0  0  0  0  0  2  0  0  0  0  0  0
  -28.5870  -26.6220   20.3070 O   0  0  0  0  0  0  0  0  0  0  0  0
  -24.7270  -31.7230   23.6300 C   0  0  0  0  0  0  0  0  0  0  0  0
  -27.8350  -27.7730   20.2290 C   0  0  0  0  0  0  0  0  0  0  0  0
  -23.8280  -30.4510   21.7430 C   0  0  0  0  0  3  0  0  0  0  0  0
  -25.5030  -29.3190   20.2210 C   0  0  0  0  0  0  0  0  0  0  0  0
  -26.3410  -31.0060   21.8470 C   0  0  0  0  0  2  0  0  0  0  0  0
  -26.5760  -29.7390   21.0140 C   0  0  0  0  0  0  0  0  0  0  0  0
  -27.7810  -28.9510   21.0470 C   0  0  0  0  0  3  0  0  0  0  0  0
  -26.8740  -27.6440   19.2440 C   0  0  0  0  0  3  0  0  0  0  0  0
  -25.6420  -28.2520   19.3480 C   0  0  0  0  0  3  0  0  0  0  0  0
  -24.2050  -30.0780   20.2980 C   0  0  0  0  0  2  0  0  0  0  0  0
  -24.9820  -31.0820   22.4590 N   0  0  0  0  0  0  0  0  0  0  0  0
  -23.5780  -31.8200   24.0700 O   0  0  0  0  0  0  0  0  0  0  0  0
  -23.2330  -29.2200   22.4660 C   0  0  0  0  0  0  0  0  0  0  0  0
  -21.9550  -28.9090   22.2030 N   0  0  0  0  0  0  0  0  0  0  0  0
  -23.9140  -28.5620   23.2540 O   0  0  0  0  0  0  0  0  0  0  0  0
  -21.4580  -29.4950   21.5510 H   0  0  0  0  0  0  0  0  0  0  0  0
  -18.7130  -27.3020   22.2890 C   0  0  0  0  0  0  0  0  0  0  0  0
  -21.2050  -27.7880   22.7690 C   0  0  0  0  0  3  0  0  0  0  0  0
  -21.5020  -26.4750   22.0150 C   0  0  0  0  0  2  0  0  0  0  0  0
  -20.4980  -26.1830   20.8910 C   0  0  0  0  0  2  0  0  0  0  0  0
  -19.0760  -26.0910   21.4540 C   0  0  0  0  0  2  0  0  0  0  0  0
  -19.7140  -28.1000   22.8990 C   0  0  0  0  0  0  0  0  0  0  0  0
  -19.3230  -29.2360   23.6400 C   0  0  0  0  0  3  0  0  0  0  0  0
  -17.9630  -29.5720   23.7770 C   0  0  0  0  0  3  0  0  0  0  0  0
  -16.9730  -28.7600   23.1910 C   0  0  0  0  0  3  0  0  0  0  0  0
  -17.3510  -27.6260   22.4490 C   0  0  0  0  0  3  0  0  0  0  0  0
  -25.8580  -32.4200   24.4210 C   0  0  0  0  0  3  0  0  0  0  0  0
  -26.1540  -31.7080   25.7930 C   0  0  1  0  0  0  0  0  0  0  0  0
  -24.8880  -31.4310   26.6410 C   0  0  0  0  0  1  0  0  0  0  0  0
  -26.8720  -30.3560   25.5850 C   0  0  0  0  0  1  0  0  0  0  0  0
  -27.1200  -32.5810   26.6320 C   0  0  0  0  0  1  0  0  0  0  0  0
  -25.4540  -33.8150   24.6450 N   0  0  0  0  0  0  0  0  0  0  0  0
  -26.0040  -34.8750   24.0390 C   0  0  0  0  0  0  0  0  0  0  0  0
  -26.9790  -34.7850   23.2870 O   0  0  0  0  0  0  0  0  0  0  0  0
  -24.6250  -33.9650   25.2000 H   0  0  0  0  0  0  0  0  0  0  0  0
  -24.6500  -36.7570   23.0670 C   0  0  0  0  0  1  0  0  0  0  0  0
  -25.3850  -36.2590   24.3170 C   0  0  0  0  0  3  0  0  0  0  0  0
  -26.9290  -36.9990   26.0760 C   0  0  0  0  0  1  0  0  0  0  0  0
  -26.3800  -37.2660   24.7520 N   0  0  0  0  0  0  0  0  0  0  0  0
  -25.9750  -38.2010   24.7610 H   0  0  0  0  0  0  0  0  0  0  0  0
  1  3  2  0
  2 10  1  0
  2  1  1  0
  4  2  1  0
  5  7  2  0
  5  6  1  0
  6  9  2  0
  7 10  1  0
  8  9  1  0
  9 11  1  0
 10  8  2  0
 12 13  1  0
 12 15  1  0
 12 14  1  0
 14 11  1  0
 16 22  1  0
 17 22  1  0
 18 17  1  0
 18 19  1  0
 20 19  1  0
 20 21  1  0
 20 29  1  0
 22 21  1  0
 23 16  2  0
 24 16  1  0
 24 15  1  0
 25 24  1  0
 26 51  1  0
 26 27  1  0
 27 46  1  0
 28 31  1  0
 28 27  2  0
 29 30  1  0
 29 26  1  0
 30 28  1  0
 31 32  1  0
 32 33  2  0
 34 33  1  0
 35 36  1  0
 35 34  2  0
 36 31  2  0
 37 34  1  0
 37 38  1  0
 38 39  1  0
 39 40  2  0
 41 40  1  0
 41 45  1  0
 42 41  2  0
 43 38  2  0
 43 42  1  0
 44 43  1  0
 46 48  2  0
 46 47  1  0
 47 50  1  0
 49 47  1  0
 51 52  1  0
 53 51  1  0
 54 55  1  0
 54  1  1  0
 56 55  2  0
 56 58  1  0
 57 58  1  0
 57 61  1  0
 58 60  1  0
 59 57  2  0
 62 61  1  0
 63 74  2  0
 64 62  1  0
 64 69  1  0
 65 73  1  0
 65 75  1  0
 66 72  1  0
 66 68  1  0
 67 73  1  0
 68 69  2  0
 68 67  1  0
 70 71  1  0
 70 64  2  0
 71 66  2  0
 72 65  1  0
 73 63  1  0
 75 77  2  0
 76 75  1  0
 78 76  1  0
 79 88  2  0
 79 84  1  0
 80 76  1  0
 80 84  1  0
 81 80  1  0
 82 83  1  0
 82 81  1  0
 83 79  1  0
 84 85  2  0
 85 86  1  0
 87 86  2  0
 88 87  1  0
 89 63  1  0
 89 94  1  0
 89 90  1  0
 90 93  1  1
 90 91  1  0
 92 90  1  0
 94 97  1  0
 95 99  1  0
 95 94  1  0
 96 95  2  0
 99 98  1  0
 99101  1  0
101102  1  0
101100  1  0
M  ISO  4  16 100  24 100  61 101  62 101
M  END
>  <TORSDO>  (26) 
F 25

>  <SCORE>  (26) 
16.971

>  <name>  (26) 
25

>  <ligand_id>  (26) 
25

>  <original_smiles>  (26) 
[H]c1c([H])c(N([H])C(=O)C([H])([H])C([H])([H])C([H])([H])N([H])C(=O)C([H])([H])Oc2c([H])c([H])c3c(c2[H])C([H])([H])N(C(=O)C([H])(N([H])C(=O)C([H])(N([H])C([H])([H])[H])C([H])([H])[H])C(C([H])([H])[H])(C([H])([H])[H])C([H])([H])[H])C([H])(C(=O)N([H])C2([H])c4c([H])c([H])c([H])c([H])c4C([H])([H])C([H])([H])C2([H])[H])C3([H])[H])c([H])c(C([H])([H])N=C(C([H])([H])[H])C([H])([H])N([H])C(=O)N2C([H])([H])C([H])([H])C([H])([H])C([H])(n3nc(-c4c([H])c([H])c(Oc5c([H])c([H])c(F)c([H])c5F)c([H])c4[H])c(C(=O)N([H])[H])c3N([H])[H])C2([H])[H])c1[H]

>  <smiles>  (26) 
[H]c1c([H])c(N([H])C(=O)C([H])([H])C([H])([H])C([H])([H])N([H])C(=O)C([H])([H])Oc2c([H])c([H])c3c(c2[H])C([H])([H])N(C(=O)C([H])(N([H])C(=O)C([H])(N([H])C([H])([H])[H])C([H])([H])[H])C(C([H])([H])[H])(C([H])([H])[H])C([H])([H])[H])C([H])(C(=O)N([H])C2([H])c4c([H])c([H])c([H])c([H])c4C([H])([H])C([H])([H])C2([H])[H])C3([H])[H])c([H])c(C([H])([H])N=C(C([H])([H])[H])C([H])([H])N([H])C(=O)N2C([H])([H])C([H])([H])C([H])([H])C([H])(n3nc(-c4c([H])c([H])c(Oc5c([H])c([H])c(F)c([H])c5F)c([H])c4[H])c(C(=O)N([H])[H])c3N([H])[H])C2([H])[H])c1[H]

$$$$
26:0:0
     RDKit          3D

 90 98  0  0  1  0  0  0  0  0999 V2000
  -31.0930  -17.9190   20.5650 C   0  0  0  0  0  3  0  0  0  0  0  0
  -31.0950  -19.3450   20.5020 C   0  0  0  0  0  3  0  0  0  0  0  0
  -28.7000  -19.3790   20.3330 C   0  0  0  0  0  3  0  0  0  0  0  0
  -29.8810  -17.1820   20.5250 C   0  0  0  0  0  0  0  0  0  0  0  0
  -29.9090  -20.1220   20.3880 C   0  0  0  0  0  0  0  0  0  0  0  0
  -28.6910  -17.9520   20.4070 C   0  0  0  0  0  0  0  0  0  0  0  0
  -27.5060  -17.2970   20.3610 F   0  0  0  0  0  0  0  0  0  0  0  0
  -30.5680  -14.6790   20.3110 C   0  0  0  0  0  0  0  0  0  0  0  0
  -30.3460  -12.4480   19.2340 C   0  0  0  0  0  2  0  0  0  0  0  0
  -29.3930  -12.5890   18.0260 C   0  0  0  0  0  2  0  0  0  0  0  0
  -27.9220  -12.4340   18.4630 C   0  0  0  0  0  2  0  0  0  0  0  0
  -27.5740  -13.2900   19.7100 C   0  0  0  0  0  3  0  0  0  0  0  0
  -28.6390  -13.1200   20.8180 C   0  0  0  0  0  2  0  0  0  0  0  0
  -29.9480  -13.4590   20.2340 N   0  0  0  0  0  0  0  0  0  0  0  0
  -31.7320  -14.8330   19.9340 O   0  0  0  0  0  0  0  0  0  0  0  0
  -29.7540  -15.7290   20.6430 N   0  0  0  0  0  0  0  0  0  0  0  0
  -28.8180  -15.4350   20.8750 H   0  0  0  0  0  0  0  0  0  0  0  0
  -25.1820  -13.8950   20.4320 C   0  0  0  0  0  0  0  0  0  0  0  0
  -24.1150  -13.1250   20.8040 C   0  0  0  0  0  0  0  0  0  0  0  0
  -24.5760  -11.7720   20.7780 C   0  0  0  0  0  0  0  0  0  0  0  0
  -26.2260  -13.0130   20.2010 N   0  0  0  0  0  0  0  0  0  0  0  0
  -25.8660  -11.7310   20.4680 N   0  0  0  0  0  0  0  0  0  0  0  0
  -23.8480  -10.5130   20.9740 C   0  0  0  0  0  0  0  0  0  0  0  0
  -24.2760   -9.5510   21.9150 C   0  0  0  0  0  3  0  0  0  0  0  0
  -23.5480   -8.3540   22.0980 C   0  0  0  0  0  3  0  0  0  0  0  0
  -22.3770   -8.1130   21.3420 C   0  0  0  0  0  0  0  0  0  0  0  0
  -21.9680   -9.0640   20.3910 C   0  0  0  0  0  3  0  0  0  0  0  0
  -22.6970  -10.2510   20.2050 C   0  0  0  0  0  3  0  0  0  0  0  0
  -21.6220   -6.9700   21.4330 O   0  0  0  0  0  0  0  0  0  0  0  0
  -21.5600   -6.2390   22.5930 C   0  0  0  0  0  0  0  0  0  0  0  0
  -21.1070   -6.8040   23.8060 C   0  0  0  0  0  3  0  0  0  0  0  0
  -20.9940   -6.0000   24.9580 C   0  0  0  0  0  3  0  0  0  0  0  0
  -21.3220   -4.6320   24.8980 C   0  0  0  0  0  0  0  0  0  0  0  0
  -21.7670   -4.0660   23.6900 C   0  0  0  0  0  3  0  0  0  0  0  0
  -21.8820   -4.8680   22.5400 C   0  0  0  0  0  0  0  0  0  0  0  0
  -22.2920   -4.3140   21.3730 F   0  0  0  0  0  0  0  0  0  0  0  0
  -21.2050   -3.8570   26.0010 F   0  0  0  0  0  0  0  0  0  0  0  0
  -22.7190  -13.6050   21.0780 C   0  0  0  0  0  0  0  0  0  0  0  0
  -21.9920  -12.9140   21.9490 N   0  0  0  0  0  0  0  0  0  0  0  0
  -22.2810  -14.6300   20.5560 O   0  0  0  0  0  0  0  0  0  0  0  0
  -22.3580  -12.0850   22.3930 H   0  0  0  0  0  0  0  0  0  0  0  0
  -21.0560  -13.2180   22.1750 H   0  0  0  0  0  0  0  0  0  0  0  0
  -25.3430  -15.2660   20.2560 N   0  0  0  0  0  0  0  0  0  0  0  0
  -24.5770  -15.9130   20.3970 H   0  0  0  0  0  0  0  0  0  0  0  0
  -26.2090  -15.7380   20.0180 H   0  0  0  0  0  0  0  0  0  0  0  0
  -30.0250  -21.5300   20.3580 O   0  0  0  0  0  0  0  0  0  0  0  0
  -28.8960  -22.4420   20.1650 C   0  0  0  0  0  2  0  0  0  0  0  0
  -29.2560  -23.9960   20.2800 C   0  0  0  0  0  3  0  0  0  0  0  0
  -28.1150  -25.0540   19.9510 C   0  0  0  0  0  3  0  0  0  0  0  0
  -28.3390  -26.5060   20.1590 O   0  0  0  0  0  0  0  0  0  0  0  0
  -24.6140  -31.8650   23.2520 C   0  0  0  0  0  0  0  0  0  0  0  0
  -27.2190  -27.3560   20.1210 C   0  0  0  0  0  0  0  0  0  0  0  0
  -23.4060  -30.4950   21.5920 C   0  0  0  0  0  3  0  0  0  0  0  0
  -24.8530  -28.9680   20.1410 C   0  0  0  0  0  0  0  0  0  0  0  0
  -25.9460  -30.8150   21.4110 C   0  0  0  0  0  2  0  0  0  0  0  0
  -26.0230  -29.4470   20.7430 C   0  0  0  0  0  0  0  0  0  0  0  0
  -27.2090  -28.6530   20.7210 C   0  0  0  0  0  3  0  0  0  0  0  0
  -26.0200  -26.9330   19.4980 C   0  0  0  0  0  3  0  0  0  0  0  0
  -24.8540  -27.7170   19.5100 C   0  0  0  0  0  3  0  0  0  0  0  0
  -23.6170  -29.8420   20.2020 C   0  0  0  0  0  2  0  0  0  0  0  0
  -24.6750  -31.0740   22.1420 N   0  0  0  0  0  0  0  0  0  0  0  0
  -23.5310  -32.1370   23.7920 O   0  0  0  0  0  0  0  0  0  0  0  0
  -22.7430  -29.4640   22.5360 C   0  0  0  0  0  0  0  0  0  0  0  0
  -21.4170  -29.2900   22.4050 N   0  0  0  0  0  0  0  0  0  0  0  0
  -23.4200  -28.8240   23.3450 O   0  0  0  0  0  0  0  0  0  0  0  0
  -20.9300  -29.8560   21.7250 H   0  0  0  0  0  0  0  0  0  0  0  0
  -18.0360  -28.0990   22.8910 C   0  0  0  0  0  0  0  0  0  0  0  0
  -20.5950  -28.3430   23.1610 C   0  0  0  0  0  3  0  0  0  0  0  0
  -20.6890  -26.9200   22.5620 C   0  0  0  0  0  2  0  0  0  0  0  0
  -19.5850  -26.6200   21.5440 C   0  0  0  0  0  2  0  0  0  0  0  0
  -18.2040  -26.7600   22.1930 C   0  0  0  0  0  2  0  0  0  0  0  0
  -19.1580  -28.8490   23.3310 C   0  0  0  0  0  0  0  0  0  0  0  0
  -18.9450  -30.1030   23.9450 C   0  0  0  0  0  3  0  0  0  0  0  0
  -17.6430  -30.6080   24.1200 C   0  0  0  0  0  3  0  0  0  0  0  0
  -16.5350  -29.8550   23.6960 C   0  0  0  0  0  3  0  0  0  0  0  0
  -16.7310  -28.6020   23.0870 C   0  0  0  0  0  3  0  0  0  0  0  0
  -25.8970  -32.4860   23.8840 C   0  0  0  0  0  3  0  0  0  0  0  0
  -26.4020  -31.7040   25.1580 C   0  0  1  0  0  0  0  0  0  0  0  0
  -25.3030  -31.4670   26.2190 C   0  0  0  0  0  1  0  0  0  0  0  0
  -26.9780  -30.3240   24.7620 C   0  0  0  0  0  1  0  0  0  0  0  0
  -27.5540  -32.4870   25.8300 C   0  0  0  0  0  1  0  0  0  0  0  0
  -25.5960  -33.8840   24.2200 N   0  0  0  0  0  0  0  0  0  0  0  0
  -25.9130  -34.9370   23.4560 C   0  0  0  0  0  0  0  0  0  0  0  0
  -26.5620  -34.8340   22.4100 O   0  0  0  0  0  0  0  0  0  0  0  0
  -25.0160  -34.0380   25.0330 H   0  0  0  0  0  0  0  0  0  0  0  0
  -24.1680  -36.7240   23.1540 C   0  0  0  0  0  1  0  0  0  0  0  0
  -25.4370  -36.3260   23.9240 C   0  0  0  0  0  3  0  0  0  0  0  0
  -27.5930  -37.2240   24.6820 C   0  0  0  0  0  1  0  0  0  0  0  0
  -26.4620  -37.3820   23.7720 N   0  0  0  0  0  0  0  0  0  0  0  0
  -26.0580  -38.3010   23.9250 H   0  0  0  0  0  0  0  0  0  0  0  0
  2  1  2  0
  3  5  2  0
  3  6  1  0
  4  1  1  0
  4 16  1  0
  5  2  1  0
  6  4  2  0
  7  6  1  0
  8 16  1  0
  9 14  1  0
 10 11  1  0
 10  9  1  0
 12 11  1  0
 12 21  1  0
 12 13  1  0
 14  8  1  0
 14 13  1  0
 15  8  2  0
 16 17  1  0
 18 19  2  0
 19 38  1  0
 20 19  1  0
 20 23  1  0
 21 18  1  0
 21 22  1  0
 22 20  2  0
 23 24  1  0
 24 25  2  0
 26 29  1  0
 26 25  1  0
 27 26  2  0
 28 27  1  0
 28 23  2  0
 29 30  1  0
 30 31  1  0
 31 32  2  0
 33 32  1  0
 33 37  1  0
 34 33  2  0
 35 30  2  0
 35 34  1  0
 36 35  1  0
 38 39  1  0
 39 42  1  0
 39 41  1  0
 40 38  2  0
 43 44  1  0
 43 18  1  0
 45 43  1  0
 46  5  1  0
 47 48  1  0
 47 46  1  0
 49 50  1  0
 49 48  2  0
 51 62  2  0
 52 50  1  0
 52 57  1  0
 53 61  1  0
 53 63  1  0
 54 60  1  0
 54 56  1  0
 55 61  1  0
 56 55  1  0
 57 56  2  0
 58 59  1  0
 58 52  2  0
 59 54  2  0
 60 53  1  0
 61 51  1  0
 63 65  2  0
 64 63  1  0
 66 64  1  0
 67 76  2  0
 67 72  1  0
 68 64  1  0
 68 72  1  0
 69 68  1  0
 70 71  1  0
 70 69  1  0
 71 67  1  0
 72 73  2  0
 73 74  1  0
 75 74  2  0
 76 75  1  0
 77 51  1  0
 77 82  1  0
 77 78  1  0
 78 81  1  1
 78 79  1  0
 80 78  1  0
 82 85  1  0
 83 87  1  0
 83 82  1  0
 84 83  2  0
 87 86  1  0
 89 87  1  0
 89 90  1  0
 89 88  1  0
M  ISO  4   8 100  16 100  49 101  50 101
M  END
>  <TORSDO>  (27) 
F 20

>  <SCORE>  (27) 
-14.070

>  <name>  (27) 
26

>  <ligand_id>  (27) 
26

>  <original_smiles>  (27) 
[H]c1c([H])c([H])c2c(c1[H])C([H])([H])C([H])([H])C([H])([H])C2([H])N([H])C(=O)C1([H])N(C(=O)C([H])(N([H])C(=O)C([H])(N([H])C([H])([H])[H])C([H])([H])[H])C(C([H])([H])[H])(C([H])([H])[H])C([H])([H])[H])C([H])([H])c2c([H])c(OC([H])([H])C([H])([H])C([H])([H])Oc3c([H])c([H])c(N([H])C(=O)N4C([H])([H])C([H])([H])C([H])([H])C([H])(n5nc(-c6c([H])c([H])c(Oc7c([H])c([H])c(F)c([H])c7F)c([H])c6[H])c(C(=O)N([H])[H])c5N([H])[H])C4([H])[H])c(F)c3[H])c([H])c([H])c2C1([H])[H]

>  <smiles>  (27) 
[H]c1c([H])c([H])c2c(c1[H])C([H])([H])C([H])([H])C([H])([H])C2([H])N([H])C(=O)C1([H])N(C(=O)C([H])(N([H])C(=O)C([H])(N([H])C([H])([H])[H])C([H])([H])[H])C(C([H])([H])[H])(C([H])([H])[H])C([H])([H])[H])C([H])([H])c2c([H])c(OC([H])([H])C([H])([H])C([H])([H])Oc3c([H])c([H])c(N([H])C(=O)N4C([H])([H])C([H])([H])C([H])([H])C([H])(n5nc(-c6c([H])c([H])c(Oc7c([H])c([H])c(F)c([H])c7F)c([H])c6[H])c(C(=O)N([H])[H])c5N([H])[H])C4([H])[H])c(F)c3[H])c([H])c([H])c2C1([H])[H]

$$$$
27:0:0
     RDKit          3D

 90 98  0  0  1  0  0  0  0  0999 V2000
  -30.9440  -17.8240   18.6560 C   0  0  0  0  0  3  0  0  0  0  0  0
  -31.9900  -19.9540   18.4560 C   0  0  0  0  0  3  0  0  0  0  0  0
  -30.1070  -18.1860   19.7520 C   0  0  0  0  0  0  0  0  0  0  0  0
  -29.9220  -19.7980   19.8920 C   0  0  0  0  0  0  0  0  0  0  0  0
  -31.8480  -18.6560   18.0080 C   0  0  0  0  0  0  0  0  0  0  0  0
  -31.0750  -20.4880   19.3700 C   0  0  0  0  0  0  0  0  0  0  0  0
  -32.6430  -18.1740   17.0190 F   0  0  0  0  0  0  0  0  0  0  0  0
  -31.3790  -21.7490   19.7440 F   0  0  0  0  0  0  0  0  0  0  0  0
  -30.3710  -15.3410   20.2530 C   0  0  0  0  0  0  0  0  0  0  0  0
  -30.3070  -12.8670   19.4400 C   0  0  0  0  0  2  0  0  0  0  0  0
  -29.4160  -12.6830   18.1870 C   0  0  0  0  0  2  0  0  0  0  0  0
  -27.9670  -12.4050   18.6160 C   0  0  0  0  0  2  0  0  0  0  0  0
  -27.5030  -13.3530   19.7510 C   0  0  0  0  0  3  0  0  0  0  0  0
  -28.5460  -13.5250   20.8780 C   0  0  0  0  0  2  0  0  0  0  0  0
  -29.7730  -14.0360   20.2400 N   0  0  0  0  0  0  0  0  0  0  0  0
  -31.5920  -15.2520   20.0390 O   0  0  0  0  0  0  0  0  0  0  0  0
  -29.6980  -16.7010   20.3140 N   0  0  0  0  0  0  0  0  0  0  0  0
  -28.7530  -16.6520   20.6630 H   0  0  0  0  0  0  0  0  0  0  0  0
  -25.1440  -13.8860   20.5270 C   0  0  0  0  0  0  0  0  0  0  0  0
  -24.0890  -13.1020   20.8850 C   0  0  0  0  0  0  0  0  0  0  0  0
  -24.5570  -11.7550   20.8450 C   0  0  0  0  0  0  0  0  0  0  0  0
  -26.1850  -13.0190   20.2560 N   0  0  0  0  0  0  0  0  0  0  0  0
  -25.8500  -11.7300   20.5330 N   0  0  0  0  0  0  0  0  0  0  0  0
  -23.8340  -10.4890   21.0320 C   0  0  0  0  0  0  0  0  0  0  0  0
  -24.2730   -9.5190   21.9590 C   0  0  0  0  0  3  0  0  0  0  0  0
  -23.5410   -8.3270   22.1490 C   0  0  0  0  0  3  0  0  0  0  0  0
  -22.3560   -8.0960   21.4090 C   0  0  0  0  0  0  0  0  0  0  0  0
  -21.9340   -9.0550   20.4730 C   0  0  0  0  0  3  0  0  0  0  0  0
  -22.6650  -10.2400   20.2810 C   0  0  0  0  0  3  0  0  0  0  0  0
  -21.5930   -6.9590   21.5050 O   0  0  0  0  0  0  0  0  0  0  0  0
  -21.5770   -6.1980   22.6480 C   0  0  0  0  0  0  0  0  0  0  0  0
  -21.2180   -6.7430   23.8980 C   0  0  0  0  0  3  0  0  0  0  0  0
  -21.1490   -5.9140   25.0360 C   0  0  0  0  0  3  0  0  0  0  0  0
  -21.4240   -4.5380   24.9220 C   0  0  0  0  0  0  0  0  0  0  0  0
  -21.7780   -3.9910   23.6750 C   0  0  0  0  0  3  0  0  0  0  0  0
  -21.8530   -4.8190   22.5410 C   0  0  0  0  0  0  0  0  0  0  0  0
  -22.1760   -4.2850   21.3380 F   0  0  0  0  0  0  0  0  0  0  0  0
  -21.3500   -3.7380   26.0120 F   0  0  0  0  0  0  0  0  0  0  0  0
  -22.6880  -13.5720   21.1450 C   0  0  0  0  0  0  0  0  0  0  0  0
  -21.9630  -12.8740   22.0090 N   0  0  0  0  0  0  0  0  0  0  0  0
  -22.2480  -14.5920   20.6150 O   0  0  0  0  0  0  0  0  0  0  0  0
  -22.3260  -12.0480   22.4640 H   0  0  0  0  0  0  0  0  0  0  0  0
  -21.0250  -13.1760   22.2280 H   0  0  0  0  0  0  0  0  0  0  0  0
  -25.3000  -15.2640   20.3970 N   0  0  0  0  0  0  0  0  0  0  0  0
  -24.6560  -15.8880   20.8720 H   0  0  0  0  0  0  0  0  0  0  0  0
  -26.1390  -15.7300   20.0810 H   0  0  0  0  0  0  0  0  0  0  0  0
  -28.9260  -20.9010   20.3560 O   0  0  0  0  0  0  0  0  0  0  0  0
  -28.9690  -22.5860   20.1330 C   0  0  0  0  0  3  0  0  0  0  0  0
  -27.9340  -24.0910   20.3200 C   0  0  0  0  0  3  0  0  0  0  0  0
  -28.1650  -25.7540   20.2200 O   0  0  0  0  0  0  0  0  0  0  0  0
  -24.6300  -31.8260   23.1520 C   0  0  0  0  0  0  0  0  0  0  0  0
  -27.1550  -26.8700   20.1810 C   0  0  0  0  0  0  0  0  0  0  0  0
  -23.4280  -30.4160   21.5370 C   0  0  0  0  0  3  0  0  0  0  0  0
  -24.8650  -28.7800   20.1300 C   0  0  0  0  0  0  0  0  0  0  0  0
  -25.9970  -30.6090   21.3700 C   0  0  0  0  0  2  0  0  0  0  0  0
  -26.0620  -29.1850   20.7360 C   0  0  0  0  0  0  0  0  0  0  0  0
  -27.2020  -28.2510   20.7350 C   0  0  0  0  0  3  0  0  0  0  0  0
  -25.9250  -26.6290   19.5260 C   0  0  0  0  0  3  0  0  0  0  0  0
  -24.8240  -27.5260   19.5050 C   0  0  0  0  0  3  0  0  0  0  0  0
  -23.6510  -29.7080   20.1710 C   0  0  0  0  0  2  0  0  0  0  0  0
  -24.7080  -30.9810   22.0710 N   0  0  0  0  0  0  0  0  0  0  0  0
  -23.5420  -32.1210   23.6760 O   0  0  0  0  0  0  0  0  0  0  0  0
  -22.7350  -29.4330   22.5180 C   0  0  0  0  0  0  0  0  0  0  0  0
  -21.4030  -29.2820   22.4130 N   0  0  0  0  0  0  0  0  0  0  0  0
  -23.4040  -28.8060   23.3420 O   0  0  0  0  0  0  0  0  0  0  0  0
  -20.9110  -29.8410   21.7290 H   0  0  0  0  0  0  0  0  0  0  0  0
  -18.0180  -28.0890   22.9610 C   0  0  0  0  0  0  0  0  0  0  0  0
  -20.5810  -28.3490   23.1970 C   0  0  0  0  0  3  0  0  0  0  0  0
  -20.6710  -26.9120   22.6330 C   0  0  0  0  0  2  0  0  0  0  0  0
  -19.5580  -26.5860   21.6320 C   0  0  0  0  0  2  0  0  0  0  0  0
  -18.1840  -26.7380   22.2900 C   0  0  0  0  0  2  0  0  0  0  0  0
  -19.1410  -28.8530   23.3740 C   0  0  0  0  0  0  0  0  0  0  0  0
  -18.9290  -30.1180   23.9660 C   0  0  0  0  0  3  0  0  0  0  0  0
  -17.6270  -30.6180   24.1480 C   0  0  0  0  0  3  0  0  0  0  0  0
  -16.5180  -29.8510   23.7510 C   0  0  0  0  0  3  0  0  0  0  0  0
  -16.7140  -28.5900   23.1640 C   0  0  0  0  0  3  0  0  0  0  0  0
  -25.8990  -32.4800   23.7730 C   0  0  0  0  0  3  0  0  0  0  0  0
  -26.4320  -31.7080   25.0440 C   0  0  1  0  0  0  0  0  0  0  0  0
  -25.3520  -31.4600   26.1250 C   0  0  0  0  0  1  0  0  0  0  0  0
  -27.0200  -30.3350   24.6470 C   0  0  0  0  0  1  0  0  0  0  0  0
  -27.5810  -32.5090   25.7000 C   0  0  0  0  0  1  0  0  0  0  0  0
  -25.5680  -33.8730   24.1330 N   0  0  0  0  0  0  0  0  0  0  0  0
  -25.8750  -34.9500   23.3990 C   0  0  0  0  0  0  0  0  0  0  0  0
  -26.5270  -34.8770   22.3550 O   0  0  0  0  0  0  0  0  0  0  0  0
  -24.9820  -33.9990   24.9440 H   0  0  0  0  0  0  0  0  0  0  0  0
  -24.1220  -36.7390   23.1370 C   0  0  0  0  0  1  0  0  0  0  0  0
  -25.3910  -36.3270   23.9000 C   0  0  0  0  0  3  0  0  0  0  0  0
  -27.5370  -37.2310   24.6850 C   0  0  0  0  0  1  0  0  0  0  0  0
  -26.4090  -37.3930   23.7710 N   0  0  0  0  0  0  0  0  0  0  0  0
  -25.9970  -38.3090   23.9260 H   0  0  0  0  0  0  0  0  0  0  0  0
  1  3  1  0
  2  6  2  0
  3  4  2  0
  3 17  1  0
  4 47  1  0
  5  2  1  0
  5  1  2  0
  6  8  1  0
  6  4  1  0
  7  5  1  0
  9 17  1  0
 10 15  1  0
 11 12  1  0
 11 10  1  0
 13 12  1  0
 13 22  1  0
 13 14  1  0
 15  9  1  0
 15 14  1  0
 16  9  2  0
 17 18  1  0
 19 20  2  0
 20 39  1  0
 21 20  1  0
 21 24  1  0
 22 19  1  0
 22 23  1  0
 23 21  2  0
 24 25  1  0
 25 26  2  0
 27 30  1  0
 27 26  1  0
 28 27  2  0
 29 28  1  0
 29 24  2  0
 30 31  1  0
 31 32  1  0
 32 33  2  0
 34 33  1  0
 34 38  1  0
 35 34  2  0
 36 31  2  0
 36 35  1  0
 37 36  1  0
 39 40  1  0
 40 43  1  0
 40 42  1  0
 41 39  2  0
 44 19  1  0
 44 45  1  0
 46 44  1  0
 48 49  2  0
 48 47  1  0
 50 49  1  0
 51 62  2  0
 52 50  1  0
 52 57  1  0
 53 61  1  0
 53 63  1  0
 54 60  1  0
 54 56  1  0
 55 61  1  0
 56 55  1  0
 57 56  2  0
 58 52  2  0
 59 58  1  0
 59 54  2  0
 60 53  1  0
 61 51  1  0
 63 65  2  0
 64 63  1  0
 66 64  1  0
 67 76  2  0
 67 72  1  0
 68 64  1  0
 68 72  1  0
 69 68  1  0
 70 71  1  0
 70 69  1  0
 71 67  1  0
 72 73  2  0
 73 74  1  0
 75 74  2  0
 76 75  1  0
 77 51  1  0
 77 82  1  0
 77 78  1  0
 78 81  1  1
 78 79  1  0
 80 78  1  0
 82 85  1  0
 83 87  1  0
 83 82  1  0
 84 83  2  0
 87 86  1  0
 89 87  1  0
 89 90  1  0
 89 88  1  0
M  ISO  4   9 100  17 100  49 101  50 101
M  END
>  <TORSDO>  (28) 
F 19

>  <SCORE>  (28) 
-15.861

>  <name>  (28) 
27

>  <ligand_id>  (28) 
27

>  <original_smiles>  (28) 
[H]c1c([H])c([H])c2c(c1[H])C([H])([H])C([H])([H])C([H])([H])C2([H])N([H])C(=O)C1([H])N(C(=O)C([H])(N([H])C(=O)C([H])(N([H])C([H])([H])[H])C([H])([H])[H])C(C([H])([H])[H])(C([H])([H])[H])C([H])([H])[H])C([H])([H])c2c([H])c(OC([H])([H])C([H])([H])Oc3c(F)c([H])c(F)c([H])c3N([H])C(=O)N3C([H])([H])C([H])([H])C([H])([H])C([H])(n4nc(-c5c([H])c([H])c(Oc6c([H])c([H])c(F)c([H])c6F)c([H])c5[H])c(C(=O)N([H])[H])c4N([H])[H])C3([H])[H])c([H])c([H])c2C1([H])[H]

>  <smiles>  (28) 
[H]c1c([H])c([H])c2c(c1[H])C([H])([H])C([H])([H])C([H])([H])C2([H])N([H])C(=O)C1([H])N(C(=O)C([H])(N([H])C(=O)C([H])(N([H])C([H])([H])[H])C([H])([H])[H])C(C([H])([H])[H])(C([H])([H])[H])C([H])([H])[H])C([H])([H])c2c([H])c(OC([H])([H])C([H])([H])Oc3c(F)c([H])c(F)c([H])c3N([H])C(=O)N3C([H])([H])C([H])([H])C([H])([H])C([H])(n4nc(-c5c([H])c([H])c(Oc6c([H])c([H])c(F)c([H])c6F)c([H])c5[H])c(C(=O)N([H])[H])c4N([H])[H])C3([H])[H])c([H])c([H])c2C1([H])[H]

$$$$
28:0:0
     RDKit          3D

 89 97  0  0  1  0  0  0  0  0999 V2000
  -30.6000  -18.5700   20.2420 C   0  0  0  0  0  3  0  0  0  0  0  0
  -30.3030  -20.0010   20.0810 C   0  0  0  0  0  3  0  0  0  0  0  0
  -28.3150  -18.0820   19.9500 C   0  0  0  0  0  3  0  0  0  0  0  0
  -28.0190  -19.4850   19.7730 C   0  0  0  0  0  0  0  0  0  0  0  0
  -29.6070  -17.5220   20.1850 C   0  0  0  0  0  0  0  0  0  0  0  0
  -28.9880  -20.5410   19.8310 C   0  0  0  0  0  0  0  0  0  0  0  0
  -26.5720  -19.8670   19.5120 C   0  0  0  0  0  1  0  0  0  0  0  0
  -30.5680  -14.9060   20.1730 C   0  0  0  0  0  0  0  0  0  0  0  0
  -30.4660  -12.5240   19.3130 C   0  0  0  0  0  2  0  0  0  0  0  0
  -29.5180  -12.4590   18.0900 C   0  0  0  0  0  2  0  0  0  0  0  0
  -28.0520  -12.2890   18.5340 C   0  0  0  0  0  2  0  0  0  0  0  0
  -27.6660  -13.2540   19.6850 C   0  0  0  0  0  3  0  0  0  0  0  0
  -28.7260  -13.2530   20.8080 C   0  0  0  0  0  2  0  0  0  0  0  0
  -30.0070  -13.6320   20.1920 N   0  0  0  0  0  0  0  0  0  0  0  0
  -31.7540  -15.0210   19.8450 O   0  0  0  0  0  0  0  0  0  0  0  0
  -29.6960  -16.0020   20.3630 N   0  0  0  0  0  0  0  0  0  0  0  0
  -28.8000  -15.6220   20.6240 H   0  0  0  0  0  0  0  0  0  0  0  0
  -25.3120  -13.9030   20.4650 C   0  0  0  0  0  0  0  0  0  0  0  0
  -24.2280  -13.1580   20.8400 C   0  0  0  0  0  0  0  0  0  0  0  0
  -24.6460  -11.7930   20.7750 C   0  0  0  0  0  0  0  0  0  0  0  0
  -26.3220  -12.9940   20.1930 N   0  0  0  0  0  0  0  0  0  0  0  0
  -25.9310  -11.7190   20.4430 N   0  0  0  0  0  0  0  0  0  0  0  0
  -23.8800  -10.5520   20.9500 C   0  0  0  0  0  0  0  0  0  0  0  0
  -24.3010   -9.5440   21.8460 C   0  0  0  0  0  3  0  0  0  0  0  0
  -23.5370   -8.3690   22.0110 C   0  0  0  0  0  3  0  0  0  0  0  0
  -22.3370   -8.1940   21.2820 C   0  0  0  0  0  0  0  0  0  0  0  0
  -21.9350   -9.1900   20.3740 C   0  0  0  0  0  3  0  0  0  0  0  0
  -22.6990  -10.3560   20.2070 C   0  0  0  0  0  3  0  0  0  0  0  0
  -21.5450   -7.0740   21.3580 O   0  0  0  0  0  0  0  0  0  0  0  0
  -21.5070   -6.2950   22.4870 C   0  0  0  0  0  0  0  0  0  0  0  0
  -21.1400   -6.8230   23.7440 C   0  0  0  0  0  3  0  0  0  0  0  0
  -21.0460   -5.9740   24.8650 C   0  0  0  0  0  3  0  0  0  0  0  0
  -21.3090   -4.5980   24.7290 C   0  0  0  0  0  0  0  0  0  0  0  0
  -21.6690   -4.0690   23.4770 C   0  0  0  0  0  3  0  0  0  0  0  0
  -21.7640   -4.9160   22.3590 C   0  0  0  0  0  0  0  0  0  0  0  0
  -22.0910   -4.3980   21.1510 F   0  0  0  0  0  0  0  0  0  0  0  0
  -21.2110   -3.7800   25.8040 F   0  0  0  0  0  0  0  0  0  0  0  0
  -22.8510  -13.6760   21.1390 C   0  0  0  0  0  0  0  0  0  0  0  0
  -22.1170  -12.9960   22.0130 N   0  0  0  0  0  0  0  0  0  0  0  0
  -22.4370  -14.7180   20.6340 O   0  0  0  0  0  0  0  0  0  0  0  0
  -22.4660  -12.1520   22.4440 H   0  0  0  0  0  0  0  0  0  0  0  0
  -21.1920  -13.3230   22.2540 H   0  0  0  0  0  0  0  0  0  0  0  0
  -25.5150  -15.2700   20.3020 N   0  0  0  0  0  0  0  0  0  0  0  0
  -24.7520  -15.9300   20.4010 H   0  0  0  0  0  0  0  0  0  0  0  0
  -26.3200  -15.6650   19.8340 H   0  0  0  0  0  0  0  0  0  0  0  0
  -28.5020  -21.9050   19.6020 O   0  0  0  0  0  0  0  0  0  0  0  0
  -29.0970  -23.3080   19.7440 C   0  0  0  0  0  3  0  0  0  0  0  0
  -28.1100  -24.6490   19.4750 C   0  0  0  0  0  3  0  0  0  0  0  0
  -28.3550  -26.1640   19.7190 O   0  0  0  0  0  0  0  0  0  0  0  0
  -24.5930  -31.5780   23.0040 C   0  0  0  0  0  0  0  0  0  0  0  0
  -27.2660  -27.1080   19.7140 C   0  0  0  0  0  0  0  0  0  0  0  0
  -23.4110  -30.2350   21.3090 C   0  0  0  0  0  3  0  0  0  0  0  0
  -24.8840  -28.7770   19.7930 C   0  0  0  0  0  0  0  0  0  0  0  0
  -25.9540  -30.5810   21.1330 C   0  0  0  0  0  2  0  0  0  0  0  0
  -26.0580  -29.2280   20.4100 C   0  0  0  0  0  0  0  0  0  0  0  0
  -27.2490  -28.4120   20.3520 C   0  0  0  0  0  3  0  0  0  0  0  0
  -26.0570  -26.7550   19.0690 C   0  0  0  0  0  3  0  0  0  0  0  0
  -24.8960  -27.5540   19.1080 C   0  0  0  0  0  3  0  0  0  0  0  0
  -23.6340  -29.6350   19.8960 C   0  0  0  0  0  2  0  0  0  0  0  0
  -24.6730  -30.8170   21.8710 N   0  0  0  0  0  0  0  0  0  0  0  0
  -23.5050  -31.8070   23.5560 O   0  0  0  0  0  0  0  0  0  0  0  0
  -22.7700  -29.1630   22.2250 C   0  0  0  0  0  0  0  0  0  0  0  0
  -21.4430  -28.9780   22.1150 N   0  0  0  0  0  0  0  0  0  0  0  0
  -23.4680  -28.5020   22.9980 O   0  0  0  0  0  0  0  0  0  0  0  0
  -20.9350  -29.5640   21.4680 H   0  0  0  0  0  0  0  0  0  0  0  0
  -18.0860  -27.7200   22.6380 C   0  0  0  0  0  0  0  0  0  0  0  0
  -20.6510  -27.9860   22.8480 C   0  0  0  0  0  3  0  0  0  0  0  0
  -20.7430  -26.5950   22.1810 C   0  0  0  0  0  2  0  0  0  0  0  0
  -19.6150  -26.3280   21.1790 C   0  0  0  0  0  2  0  0  0  0  0  0
  -18.2520  -26.4190   21.8720 C   0  0  0  0  0  2  0  0  0  0  0  0
  -19.2120  -28.4640   23.0820 C   0  0  0  0  0  0  0  0  0  0  0  0
  -19.0010  -29.6830   23.7620 C   0  0  0  0  0  3  0  0  0  0  0  0
  -17.6980  -30.1580   24.0030 C   0  0  0  0  0  3  0  0  0  0  0  0
  -16.5870  -29.4110   23.5720 C   0  0  0  0  0  3  0  0  0  0  0  0
  -16.7830  -28.1930   22.8960 C   0  0  0  0  0  3  0  0  0  0  0  0
  -25.8610  -32.2140   23.6500 C   0  0  0  0  0  3  0  0  0  0  0  0
  -26.3970  -31.4010   24.8940 C   0  0  1  0  0  0  0  0  0  0  0  0
  -25.3150  -31.1050   25.9590 C   0  0  0  0  0  1  0  0  0  0  0  0
  -27.0000  -30.0490   24.4480 C   0  0  0  0  0  1  0  0  0  0  0  0
  -27.5400  -32.1860   25.5790 C   0  0  0  0  0  1  0  0  0  0  0  0
  -25.5200  -33.5890   24.0480 N   0  0  0  0  0  0  0  0  0  0  0  0
  -25.8080  -34.6840   23.3340 C   0  0  0  0  0  0  0  0  0  0  0  0
  -26.4590  -34.6450   22.2850 O   0  0  0  0  0  0  0  0  0  0  0  0
  -24.9380  -33.6910   24.8670 H   0  0  0  0  0  0  0  0  0  0  0  0
  -24.0210  -36.4420   23.1090 C   0  0  0  0  0  1  0  0  0  0  0  0
  -25.2980  -36.0380   23.8650 C   0  0  0  0  0  3  0  0  0  0  0  0
  -27.4310  -36.9520   24.6700 C   0  0  0  0  0  1  0  0  0  0  0  0
  -26.2970  -37.1260   23.7650 N   0  0  0  0  0  0  0  0  0  0  0  0
  -25.8700  -38.0270   23.9610 H   0  0  0  0  0  0  0  0  0  0  0  0
  2  1  2  0
  3  5  2  0
  4  6  2  0
  4  3  1  0
  5  1  1  0
  5 16  1  0
  6  2  1  0
  7  4  1  0
  8 14  1  0
  8 16  1  0
  9 14  1  0
 10 11  1  0
 10  9  1  0
 12 11  1  0
 12 21  1  0
 12 13  1  0
 14 13  1  0
 15  8  2  0
 16 17  1  0
 18 19  2  0
 19 38  1  0
 20 19  1  0
 20 23  1  0
 21 22  1  0
 21 18  1  0
 22 20  2  0
 23 24  1  0
 24 25  2  0
 26 29  1  0
 26 25  1  0
 27 26  2  0
 28 27  1  0
 28 23  2  0
 29 30  1  0
 30 31  1  0
 31 32  2  0
 33 32  1  0
 33 37  1  0
 34 33  2  0
 35 30  2  0
 35 34  1  0
 36 35  1  0
 38 39  1  0
 39 42  1  0
 39 41  1  0
 40 38  2  0
 43 44  1  0
 43 18  1  0
 45 43  1  0
 46 47  1  0
 46  6  1  0
 48 49  1  0
 48 47  2  0
 50 61  2  0
 51 49  1  0
 51 56  1  0
 52 60  1  0
 52 62  1  0
 53 59  1  0
 53 55  1  0
 54 60  1  0
 55 54  1  0
 56 55  2  0
 57 58  1  0
 57 51  2  0
 58 53  2  0
 59 52  1  0
 60 50  1  0
 62 64  2  0
 63 62  1  0
 65 63  1  0
 66 75  2  0
 66 71  1  0
 67 63  1  0
 67 71  1  0
 68 67  1  0
 69 70  1  0
 69 68  1  0
 70 66  1  0
 71 72  2  0
 72 73  1  0
 74 73  2  0
 75 74  1  0
 76 50  1  0
 76 81  1  0
 76 77  1  0
 77 80  1  1
 77 78  1  0
 79 77  1  0
 81 84  1  0
 82 86  1  0
 82 81  1  0
 83 82  2  0
 86 85  1  0
 88 86  1  0
 88 89  1  0
 88 87  1  0
M  ISO  4   8 100  16 100  48 101  49 101
M  END
>  <TORSDO>  (29) 
F 19

>  <SCORE>  (29) 
-13.134

>  <name>  (29) 
28

>  <ligand_id>  (29) 
28

>  <original_smiles>  (29) 
[H]c1c([H])c([H])c2c(c1[H])C([H])([H])C([H])([H])C([H])([H])C2([H])N([H])C(=O)C1([H])N(C(=O)C([H])(N([H])C(=O)C([H])(N([H])C([H])([H])[H])C([H])([H])[H])C(C([H])([H])[H])(C([H])([H])[H])C([H])([H])[H])C([H])([H])c2c([H])c(OC([H])([H])C([H])([H])Oc3c([H])c([H])c(N([H])C(=O)N4C([H])([H])C([H])([H])C([H])([H])C([H])(n5nc(-c6c([H])c([H])c(Oc7c([H])c([H])c(F)c([H])c7F)c([H])c6[H])c(C(=O)N([H])[H])c5N([H])[H])C4([H])[H])c([H])c3C([H])([H])[H])c([H])c([H])c2C1([H])[H]

>  <smiles>  (29) 
[H]c1c([H])c([H])c2c(c1[H])C([H])([H])C([H])([H])C([H])([H])C2([H])N([H])C(=O)C1([H])N(C(=O)C([H])(N([H])C(=O)C([H])(N([H])C([H])([H])[H])C([H])([H])[H])C(C([H])([H])[H])(C([H])([H])[H])C([H])([H])[H])C([H])([H])c2c([H])c(OC([H])([H])C([H])([H])Oc3c([H])c([H])c(N([H])C(=O)N4C([H])([H])C([H])([H])C([H])([H])C([H])(n5nc(-c6c([H])c([H])c(Oc7c([H])c([H])c(F)c([H])c7F)c([H])c6[H])c(C(=O)N([H])[H])c5N([H])[H])C4([H])[H])c([H])c3C([H])([H])[H])c([H])c([H])c2C1([H])[H]

$$$$
29:0:0
     RDKit          3D

 94102  0  0  1  0  0  0  0  0999 V2000
  -29.0360  -19.8710   20.0410 C   0  0  0  0  0  0  0  0  0  0  0  0
  -29.5410  -21.1690   20.0040 N   0  0  0  0  0  0  0  0  0  0  0  0
  -27.9360  -19.6330   19.5350 O   0  0  0  0  0  0  0  0  0  0  0  0
  -31.0140  -21.2630   19.8900 C   0  0  0  0  0  2  0  0  0  0  0  0
  -32.4340  -22.8860   18.5500 C   0  0  0  0  0  3  0  0  0  0  0  0
  -31.4750  -23.6690   20.6230 C   0  0  0  0  0  3  0  0  0  0  0  0
  -33.0120  -24.1560   18.3900 C   0  0  0  0  0  3  0  0  0  0  0  0
  -32.0780  -24.9120   20.3700 C   0  0  0  0  0  3  0  0  0  0  0  0
  -31.6340  -22.6340   19.6810 C   0  0  0  0  0  0  0  0  0  0  0  0
  -32.8330  -25.1580   19.2780 N   0  0  0  0  0  0  0  0  0  0  0  0
  -29.7170  -18.6250   20.7870 C   0  0  0  0  0  2  0  0  0  0  0  0
  -30.2220  -17.3470   19.9510 C   0  0  0  0  0  2  0  0  0  0  0  0
  -30.7160  -14.8050   20.2190 C   0  0  0  0  0  0  0  0  0  0  0  0
  -30.4980  -12.5230   19.2570 C   0  0  0  0  0  2  0  0  0  0  0  0
  -29.5470  -12.5850   18.0410 C   0  0  0  0  0  2  0  0  0  0  0  0
  -28.0830  -12.4120   18.4870 C   0  0  0  0  0  2  0  0  0  0  0  0
  -27.7180  -13.3210   19.6910 C   0  0  0  0  0  3  0  0  0  0  0  0
  -28.7870  -13.2550   20.8050 C   0  0  0  0  0  2  0  0  0  0  0  0
  -30.0850  -13.5840   20.2020 N   0  0  0  0  0  0  0  0  0  0  0  0
  -31.8760  -14.9150   19.8170 O   0  0  0  0  0  0  0  0  0  0  0  0
  -29.9540  -15.9300   20.4540 N   0  0  0  0  0  0  0  0  0  0  0  0
  -29.0210  -15.7500   20.7940 H   0  0  0  0  0  0  0  0  0  0  0  0
  -25.3430  -13.9140   20.4680 C   0  0  0  0  0  0  0  0  0  0  0  0
  -24.2810  -13.1380   20.8460 C   0  0  0  0  0  0  0  0  0  0  0  0
  -24.7380  -11.7860   20.7870 C   0  0  0  0  0  0  0  0  0  0  0  0
  -26.3790  -13.0340   20.2000 N   0  0  0  0  0  0  0  0  0  0  0  0
  -26.0230  -11.7490   20.4560 N   0  0  0  0  0  0  0  0  0  0  0  0
  -24.0110  -10.5240   20.9710 C   0  0  0  0  0  0  0  0  0  0  0  0
  -24.4570   -9.5390   21.8800 C   0  0  0  0  0  3  0  0  0  0  0  0
  -23.7290   -8.3420   22.0530 C   0  0  0  0  0  3  0  0  0  0  0  0
  -22.5420   -8.1190   21.3170 C   0  0  0  0  0  0  0  0  0  0  0  0
  -22.1150   -9.0920   20.3970 C   0  0  0  0  0  3  0  0  0  0  0  0
  -22.8420  -10.2810   20.2220 C   0  0  0  0  0  3  0  0  0  0  0  0
  -21.7830   -6.9760   21.4030 O   0  0  0  0  0  0  0  0  0  0  0  0
  -21.7440   -6.2230   22.5470 C   0  0  0  0  0  0  0  0  0  0  0  0
  -21.3430   -6.7700   23.7860 C   0  0  0  0  0  3  0  0  0  0  0  0
  -21.2490   -5.9440   24.9230 C   0  0  0  0  0  3  0  0  0  0  0  0
  -21.5430   -4.5700   24.8230 C   0  0  0  0  0  0  0  0  0  0  0  0
  -21.9350   -4.0220   23.5900 C   0  0  0  0  0  3  0  0  0  0  0  0
  -22.0310   -4.8460   22.4550 C   0  0  0  0  0  0  0  0  0  0  0  0
  -22.3900   -4.3080   21.2630 F   0  0  0  0  0  0  0  0  0  0  0  0
  -21.4450   -3.7750   25.9140 F   0  0  0  0  0  0  0  0  0  0  0  0
  -22.8910  -13.6160   21.1480 C   0  0  0  0  0  0  0  0  0  0  0  0
  -22.1800  -12.9160   22.0260 N   0  0  0  0  0  0  0  0  0  0  0  0
  -22.4440  -14.6440   20.6430 O   0  0  0  0  0  0  0  0  0  0  0  0
  -22.5540  -12.0840   22.4580 H   0  0  0  0  0  0  0  0  0  0  0  0
  -21.2460  -13.2160   22.2700 H   0  0  0  0  0  0  0  0  0  0  0  0
  -25.5110  -15.2860   20.3040 N   0  0  0  0  0  0  0  0  0  0  0  0
  -24.7450  -15.9420   20.4180 H   0  0  0  0  0  0  0  0  0  0  0  0
  -26.3520  -15.7220   19.9490 H   0  0  0  0  0  0  0  0  0  0  0  0
  -28.6890  -22.3340   19.4600 C   0  0  0  0  0  2  0  0  0  0  0  0
  -28.8880  -23.8770   19.8920 C   0  0  0  0  0  3  0  0  0  0  0  0
  -27.7830  -24.9450   19.4310 C   0  0  0  0  0  3  0  0  0  0  0  0
  -28.0080  -26.4160   19.5470 O   0  0  0  0  0  0  0  0  0  0  0  0
  -24.4920  -31.7170   22.9880 C   0  0  0  0  0  0  0  0  0  0  0  0
  -26.8950  -27.2840   19.5770 C   0  0  0  0  0  0  0  0  0  0  0  0
  -23.1850  -30.3980   21.3600 C   0  0  0  0  0  3  0  0  0  0  0  0
  -24.5390  -28.9120   19.7790 C   0  0  0  0  0  0  0  0  0  0  0  0
  -25.7100  -30.7120   21.0440 C   0  0  0  0  0  2  0  0  0  0  0  0
  -25.7430  -29.3640   20.3320 C   0  0  0  0  0  0  0  0  0  0  0  0
  -26.9190  -28.5600   20.2280 C   0  0  0  0  0  3  0  0  0  0  0  0
  -25.6660  -26.9010   18.9890 C   0  0  0  0  0  3  0  0  0  0  0  0
  -24.5040  -27.6870   19.0980 C   0  0  0  0  0  3  0  0  0  0  0  0
  -23.3130  -29.7860   19.9390 C   0  0  0  0  0  2  0  0  0  0  0  0
  -24.4830  -30.9580   21.8530 N   0  0  0  0  0  0  0  0  0  0  0  0
  -23.4440  -31.9750   23.5990 O   0  0  0  0  0  0  0  0  0  0  0  0
  -22.5760  -29.3400   22.3110 C   0  0  0  0  0  0  0  0  0  0  0  0
  -21.2460  -29.1570   22.2430 N   0  0  0  0  0  0  0  0  0  0  0  0
  -23.2970  -28.6890   23.0720 O   0  0  0  0  0  0  0  0  0  0  0  0
  -20.7220  -29.7340   21.5990 H   0  0  0  0  0  0  0  0  0  0  0  0
  -17.9150  -27.8670   22.8090 C   0  0  0  0  0  0  0  0  0  0  0  0
  -20.4730  -28.1860   23.0180 C   0  0  0  0  0  3  0  0  0  0  0  0
  -20.5960  -26.7690   22.4120 C   0  0  0  0  0  2  0  0  0  0  0  0
  -19.4760  -26.4370   21.4220 C   0  0  0  0  0  2  0  0  0  0  0  0
  -18.1070  -26.5350   22.1030 C   0  0  0  0  0  2  0  0  0  0  0  0
  -19.0260  -28.6490   23.2250 C   0  0  0  0  0  0  0  0  0  0  0  0
  -18.7910  -29.8950   23.8460 C   0  0  0  0  0  3  0  0  0  0  0  0
  -17.4790  -30.3590   24.0580 C   0  0  0  0  0  3  0  0  0  0  0  0
  -16.3830  -29.5750   23.6550 C   0  0  0  0  0  3  0  0  0  0  0  0
  -16.6030  -28.3310   23.0370 C   0  0  0  0  0  3  0  0  0  0  0  0
  -25.8140  -32.3160   23.5580 C   0  0  0  0  0  3  0  0  0  0  0  0
  -25.5160  -33.6750   24.0310 N   0  0  0  0  0  0  0  0  0  0  0  0
  -25.8260  -34.7980   23.3670 C   0  0  0  0  0  0  0  0  0  0  0  0
  -26.4620  -34.7970   22.3110 O   0  0  0  0  0  0  0  0  0  0  0  0
  -24.9490  -33.7500   24.8630 H   0  0  0  0  0  0  0  0  0  0  0  0
  -24.0940  -36.6190   23.2390 C   0  0  0  0  0  1  0  0  0  0  0  0
  -25.3550  -36.1340   23.9720 C   0  0  0  0  0  3  0  0  0  0  0  0
  -27.5110  -36.9330   24.8320 C   0  0  0  0  0  1  0  0  0  0  0  0
  -26.3860  -37.1930   23.9380 N   0  0  0  0  0  0  0  0  0  0  0  0
  -25.9830  -38.0920   24.1900 H   0  0  0  0  0  0  0  0  0  0  0  0
  -26.4380  -31.4510   24.7210 C   0  0  1  0  0  0  0  0  0  0  0  0
  -25.4360  -31.1180   25.8520 C   0  0  0  0  0  1  0  0  0  0  0  0
  -26.9970  -30.1160   24.1760 C   0  0  0  0  0  1  0  0  0  0  0  0
  -27.6300  -32.2060   25.3550 C   0  0  0  0  0  1  0  0  0  0  0  0
  1 11  1  0
  2  1  1  0
  3  1  2  0
  4  2  1  0
  5  9  1  0
  7  5  2  0
  7 10  1  0
  8  6  1  0
  9  4  1  0
  9  6  2  0
 10  8  2  0
 12 21  1  0
 12 11  1  0
 13 21  1  0
 14 19  1  0
 15 16  1  0
 15 14  1  0
 17 16  1  0
 17 26  1  0
 17 18  1  0
 19 13  1  0
 19 18  1  0
 20 13  2  0
 21 22  1  0
 23 24  2  0
 24 43  1  0
 25 24  1  0
 25 28  1  0
 26 27  1  0
 26 23  1  0
 27 25  2  0
 28 29  1  0
 29 30  2  0
 31 34  1  0
 31 30  1  0
 32 31  2  0
 33 32  1  0
 33 28  2  0
 34 35  1  0
 35 36  1  0
 36 37  2  0
 38 37  1  0
 38 42  1  0
 39 38  2  0
 40 35  2  0
 40 39  1  0
 41 40  1  0
 43 44  1  0
 44 47  1  0
 44 46  1  0
 45 43  2  0
 48 49  1  0
 48 23  1  0
 50 48  1  0
 51 52  1  0
 51  2  1  0
 53 54  1  0
 53 52  2  0
 54 56  1  0
 55 66  2  0
 56 61  1  0
 57 65  1  0
 57 67  1  0
 58 64  1  0
 58 60  1  0
 59 65  1  0
 60 59  1  0
 61 60  2  0
 62 63  1  0
 62 56  2  0
 63 58  2  0
 64 57  1  0
 65 55  1  0
 67 69  2  0
 68 67  1  0
 70 68  1  0
 71 80  2  0
 71 76  1  0
 72 68  1  0
 72 76  1  0
 73 72  1  0
 74 75  1  0
 74 73  1  0
 75 71  1  0
 76 77  2  0
 77 78  1  0
 79 78  2  0
 80 79  1  0
 81 55  1  0
 81 82  1  0
 81 91  1  0
 82 85  1  0
 83 87  1  0
 83 82  1  0
 84 83  2  0
 87 86  1  0
 89 87  1  0
 89 90  1  0
 89 88  1  0
 91 94  1  1
 91 92  1  0
 93 91  1  0
M  ISO  4  13 100  21 100  53 101  54 101
M  END
>  <TORSDO>  (30) 
F 23

>  <SCORE>  (30) 
-12.384

>  <name>  (30) 
29

>  <ligand_id>  (30) 
29

>  <original_smiles>  (30) 
[H]c1nc([H])c([H])c(C([H])([H])N(C(=O)C([H])([H])C([H])([H])N([H])C(=O)N2C([H])([H])C([H])([H])C([H])([H])C([H])(n3nc(-c4c([H])c([H])c(Oc5c([H])c([H])c(F)c([H])c5F)c([H])c4[H])c(C(=O)N([H])[H])c3N([H])[H])C2([H])[H])C([H])([H])C([H])([H])C([H])([H])Oc2c([H])c([H])c3c(c2[H])C([H])([H])N(C(=O)C([H])(N([H])C(=O)C([H])(N([H])C([H])([H])[H])C([H])([H])[H])C(C([H])([H])[H])(C([H])([H])[H])C([H])([H])[H])C([H])(C(=O)N([H])C2([H])c4c([H])c([H])c([H])c([H])c4C([H])([H])C([H])([H])C2([H])[H])C3([H])[H])c1[H]

>  <smiles>  (30) 
[H]c1nc([H])c([H])c(C([H])([H])N(C(=O)C([H])([H])C([H])([H])N([H])C(=O)N2C([H])([H])C([H])([H])C([H])([H])C([H])(n3nc(-c4c([H])c([H])c(Oc5c([H])c([H])c(F)c([H])c5F)c([H])c4[H])c(C(=O)N([H])[H])c3N([H])[H])C2([H])[H])C([H])([H])C([H])([H])C([H])([H])Oc2c([H])c([H])c3c(c2[H])C([H])([H])N(C(=O)C([H])(N([H])C(=O)C([H])(N([H])C([H])([H])[H])C([H])([H])[H])C(C([H])([H])[H])(C([H])([H])[H])C([H])([H])[H])C([H])(C(=O)N([H])C2([H])c4c([H])c([H])c([H])c([H])c4C([H])([H])C([H])([H])C2([H])[H])C3([H])[H])c1[H]

$$$$
30:0:0
     RDKit          3D

 97105  0  0  1  0  0  0  0  0999 V2000
  -27.3790  -21.6880   18.8850 C   0  0  0  0  0  3  0  0  0  0  0  0
  -29.1340  -20.8090   17.4430 C   0  0  0  0  0  3  0  0  0  0  0  0
  -27.3420  -22.8680   18.1210 C   0  0  0  0  0  3  0  0  0  0  0  0
  -29.1010  -21.9970   16.6850 C   0  0  0  0  0  3  0  0  0  0  0  0
  -28.2950  -20.6580   18.5730 C   0  0  0  0  0  0  0  0  0  0  0  0
  -28.2350  -23.0500   17.0390 C   0  0  0  0  0  0  0  0  0  0  0  0
  -29.5310  -19.0750   19.9480 C   0  0  0  0  0  0  0  0  0  0  0  0
  -27.0950  -18.8430   19.7640 C   0  0  0  0  0  1  0  0  0  0  0  0
  -28.3590  -19.4910   19.3970 N   0  0  0  0  0  0  0  0  0  0  0  0
  -30.5950  -19.6870   19.7920 O   0  0  0  0  0  0  0  0  0  0  0  0
  -29.5390  -17.7970   20.8080 C   0  0  0  0  0  2  0  0  0  0  0  0
  -30.9540  -17.3760   21.2600 C   0  0  0  0  0  2  0  0  0  0  0  0
  -30.9770  -16.1160   22.1420 C   0  0  0  0  0  2  0  0  0  0  0  0
  -30.7600  -14.2800   20.4310 C   0  0  0  0  0  0  0  0  0  0  0  0
  -30.3250  -12.3070   19.0080 C   0  0  0  0  0  2  0  0  0  0  0  0
  -29.3300  -12.6250   17.8760 C   0  0  0  0  0  2  0  0  0  0  0  0
  -27.8720  -12.4950   18.3560 C   0  0  0  0  0  2  0  0  0  0  0  0
  -27.6160  -13.2380   19.6940 C   0  0  0  0  0  3  0  0  0  0  0  0
  -28.6970  -12.8620   20.7290 C   0  0  0  0  0  2  0  0  0  0  0  0
  -30.0190  -13.1780   20.1520 N   0  0  0  0  0  0  0  0  0  0  0  0
  -31.7530  -14.6170   19.7790 O   0  0  0  0  0  0  0  0  0  0  0  0
  -30.3470  -14.9590   21.5130 N   0  0  0  0  0  0  0  0  0  0  0  0
  -29.5420  -14.5720   21.9850 H   0  0  0  0  0  0  0  0  0  0  0  0
  -25.2410  -13.8670   20.4670 C   0  0  0  0  0  0  0  0  0  0  0  0
  -24.1760  -13.1010   20.8590 C   0  0  0  0  0  0  0  0  0  0  0  0
  -24.6220  -11.7450   20.7990 C   0  0  0  0  0  0  0  0  0  0  0  0
  -26.2720  -12.9760   20.2010 N   0  0  0  0  0  0  0  0  0  0  0  0
  -25.9000  -11.6950   20.4530 N   0  0  0  0  0  0  0  0  0  0  0  0
  -23.8900  -10.4880   20.9980 C   0  0  0  0  0  0  0  0  0  0  0  0
  -24.3290   -9.5160   21.9250 C   0  0  0  0  0  3  0  0  0  0  0  0
  -23.5990   -8.3220   22.1100 C   0  0  0  0  0  3  0  0  0  0  0  0
  -22.4160   -8.0910   21.3670 C   0  0  0  0  0  0  0  0  0  0  0  0
  -21.9980   -9.0520   20.4290 C   0  0  0  0  0  3  0  0  0  0  0  0
  -22.7270  -10.2360   20.2430 C   0  0  0  0  0  3  0  0  0  0  0  0
  -21.6570   -6.9500   21.4610 O   0  0  0  0  0  0  0  0  0  0  0  0
  -21.6030   -6.2140   22.6160 C   0  0  0  0  0  0  0  0  0  0  0  0
  -21.1830   -6.7790   23.8410 C   0  0  0  0  0  3  0  0  0  0  0  0
  -21.0780   -5.9700   24.9890 C   0  0  0  0  0  3  0  0  0  0  0  0
  -21.3820   -4.5970   24.9150 C   0  0  0  0  0  0  0  0  0  0  0  0
  -21.7960   -4.0320   23.6970 C   0  0  0  0  0  3  0  0  0  0  0  0
  -21.9050   -4.8390   22.5500 C   0  0  0  0  0  0  0  0  0  0  0  0
  -22.2830   -4.2860   21.3720 F   0  0  0  0  0  0  0  0  0  0  0  0
  -21.2740   -3.8170   26.0160 F   0  0  0  0  0  0  0  0  0  0  0  0
  -22.7910  -13.5870   21.1780 C   0  0  0  0  0  0  0  0  0  0  0  0
  -22.0850  -12.8910   22.0620 N   0  0  0  0  0  0  0  0  0  0  0  0
  -22.3450  -14.6200   20.6800 O   0  0  0  0  0  0  0  0  0  0  0  0
  -22.4580  -12.0540   22.4870 H   0  0  0  0  0  0  0  0  0  0  0  0
  -21.1570  -13.1990   22.3170 H   0  0  0  0  0  0  0  0  0  0  0  0
  -25.4170  -15.2370   20.3000 N   0  0  0  0  0  0  0  0  0  0  0  0
  -24.6660  -15.9040   20.4420 H   0  0  0  0  0  0  0  0  0  0  0  0
  -26.2670  -15.6610   19.9530 H   0  0  0  0  0  0  0  0  0  0  0  0
  -28.3220  -24.2190   16.3160 O   0  0  0  0  0  0  0  0  0  0  0  0
  -28.2000  -25.4570   17.0180 C   0  0  0  0  0  2  0  0  0  0  0  0
  -29.3620  -25.6510   18.0170 C   0  0  0  0  0  2  0  0  0  0  0  0
  -29.5420  -27.1000   18.5090 C   0  0  0  0  0  2  0  0  0  0  0  0
  -29.8420  -27.2070   20.0180 C   0  0  0  0  0  2  0  0  0  0  0  0
  -28.7540  -26.7150   20.8000 O   0  0  0  0  0  0  0  0  0  0  0  0
  -24.6990  -31.9580   23.4360 C   0  0  0  0  0  0  0  0  0  0  0  0
  -27.5930  -27.4420   20.7310 C   0  0  0  0  0  0  0  0  0  0  0  0
  -23.6130  -30.4570   21.7950 C   0  0  0  0  0  3  0  0  0  0  0  0
  -25.1690  -28.8740   20.5450 C   0  0  0  0  0  0  0  0  0  0  0  0
  -26.1400  -30.8480   21.7370 C   0  0  0  0  0  2  0  0  0  0  0  0
  -26.2830  -29.4540   21.1680 C   0  0  0  0  0  0  0  0  0  0  0  0
  -27.4990  -28.7460   21.2620 C   0  0  0  0  0  3  0  0  0  0  0  0
  -26.4620  -26.8520   20.1330 C   0  0  0  0  0  3  0  0  0  0  0  0
  -25.2530  -27.5670   20.0280 C   0  0  0  0  0  3  0  0  0  0  0  0
  -23.9130  -29.7130   20.4690 C   0  0  0  0  0  2  0  0  0  0  0  0
  -24.8310  -31.1060   22.3790 N   0  0  0  0  0  0  0  0  0  0  0  0
  -23.5860  -32.2400   23.8960 O   0  0  0  0  0  0  0  0  0  0  0  0
  -22.9180  -29.4760   22.7680 C   0  0  0  0  0  0  0  0  0  0  0  0
  -21.6130  -29.2420   22.5520 N   0  0  0  0  0  0  0  0  0  0  0  0
  -23.5520  -28.9280   23.6720 O   0  0  0  0  0  0  0  0  0  0  0  0
  -21.1620  -29.7400   21.7970 H   0  0  0  0  0  0  0  0  0  0  0  0
  -18.2510  -27.9480   22.8440 C   0  0  0  0  0  0  0  0  0  0  0  0
  -20.7630  -28.3300   23.3180 C   0  0  0  0  0  3  0  0  0  0  0  0
  -20.9670  -26.8670   22.8640 C   0  0  0  0  0  2  0  0  0  0  0  0
  -19.9710  -26.4260   21.7850 C   0  0  0  0  0  2  0  0  0  0  0  0
  -18.5320  -26.5610   22.2920 C   0  0  0  0  0  2  0  0  0  0  0  0
  -19.3000  -28.7840   23.3100 C   0  0  0  0  0  0  0  0  0  0  0  0
  -18.9810  -30.0790   23.7780 C   0  0  0  0  0  3  0  0  0  0  0  0
  -17.6500  -30.5340   23.7940 C   0  0  0  0  0  3  0  0  0  0  0  0
  -16.6160  -29.6960   23.3420 C   0  0  0  0  0  3  0  0  0  0  0  0
  -16.9170  -28.4060   22.8700 C   0  0  0  0  0  3  0  0  0  0  0  0
  -25.9390  -32.6410   24.0970 C   0  0  0  0  0  3  0  0  0  0  0  0
  -26.3890  -31.9420   25.4400 C   0  0  1  0  0  0  0  0  0  0  0  0
  -25.2380  -31.7140   26.4480 C   0  0  0  0  0  1  0  0  0  0  0  0
  -27.0380  -30.5680   25.1520 C   0  0  0  0  0  1  0  0  0  0  0  0
  -27.4730  -32.7990   26.1390 C   0  0  0  0  0  1  0  0  0  0  0  0
  -25.5920  -34.0490   24.3350 N   0  0  0  0  0  0  0  0  0  0  0  0
  -25.9570  -35.0660   23.5430 C   0  0  0  0  0  0  0  0  0  0  0  0
  -26.6890  -34.9220   22.5600 O   0  0  0  0  0  0  0  0  0  0  0  0
  -24.9450  -34.2340   25.0880 H   0  0  0  0  0  0  0  0  0  0  0  0
  -24.2220  -36.8060   23.0020 C   0  0  0  0  0  1  0  0  0  0  0  0
  -25.4230  -36.4680   23.8980 C   0  0  0  0  0  3  0  0  0  0  0  0
  -27.5010  -37.4330   24.7830 C   0  0  0  0  0  1  0  0  0  0  0  0
  -26.4440  -37.5320   23.7810 N   0  0  0  0  0  0  0  0  0  0  0  0
  -26.0180  -38.4520   23.8580 H   0  0  0  0  0  0  0  0  0  0  0  0
  2  5  2  0
  3  1  2  0
  4  6  2  0
  4  2  1  0
  5  1  1  0
  5  9  1  0
  6  3  1  0
  7 11  1  0
  9  8  1  0
  9  7  1  0
 10  7  2  0
 11 12  1  0
 12 13  1  0
 14 22  1  0
 15 20  1  0
 16 17  1  0
 16 15  1  0
 18 17  1  0
 18 27  1  0
 18 19  1  0
 20 14  1  0
 20 19  1  0
 21 14  2  0
 22 23  1  0
 22 13  1  0
 24 25  2  0
 25 44  1  0
 26 25  1  0
 26 29  1  0
 27 28  1  0
 27 24  1  0
 28 26  2  0
 29 30  1  0
 30 31  2  0
 32 35  1  0
 32 31  1  0
 33 32  2  0
 34 33  1  0
 34 29  2  0
 35 36  1  0
 36 37  1  0
 37 38  2  0
 39 38  1  0
 39 43  1  0
 40 39  2  0
 41 36  2  0
 41 40  1  0
 42 41  1  0
 44 45  1  0
 45 48  1  0
 45 47  1  0
 46 44  2  0
 49 50  1  0
 49 24  1  0
 51 49  1  0
 52 53  1  0
 52  6  1  0
 53 54  1  0
 54 55  1  0
 55 56  1  0
 56 57  1  0
 58 69  2  0
 59 57  1  0
 59 64  1  0
 60 68  1  0
 60 70  1  0
 61 63  1  0
 62 68  1  0
 63 64  2  0
 63 62  1  0
 65 59  2  0
 66 65  1  0
 66 61  2  0
 67 61  1  0
 67 60  1  0
 68 58  1  0
 70 72  2  0
 71 70  1  0
 73 71  1  0
 74 83  2  0
 74 79  1  0
 75 71  1  0
 76 75  1  0
 77 78  1  0
 77 76  1  0
 78 74  1  0
 79 75  1  0
 79 80  2  0
 80 81  1  0
 82 81  2  0
 83 82  1  0
 84 58  1  0
 84 89  1  0
 84 85  1  0
 85 88  1  1
 85 86  1  0
 87 85  1  0
 89 92  1  0
 90 94  1  0
 90 89  1  0
 91 90  2  0
 94 93  1  0
 96 97  1  0
 96 94  1  0
 96 95  1  0
M  ISO  4  14 100  22 100  56 101  57 101
M  END
>  <TORSDO>  (31) 
F 25

>  <SCORE>  (31) 
-11.765

>  <name>  (31) 
30

>  <ligand_id>  (31) 
30

>  <original_smiles>  (31) 
[H]c1c([H])c([H])c2c(c1[H])C([H])([H])C([H])([H])C([H])([H])C2([H])N([H])C(=O)C1([H])N(C(=O)C([H])(N([H])C(=O)C([H])(N([H])C([H])([H])[H])C([H])([H])[H])C(C([H])([H])[H])(C([H])([H])[H])C([H])([H])[H])C([H])([H])c2c([H])c(OC([H])([H])C([H])([H])C([H])([H])C([H])([H])Oc3c([H])c([H])c(N(C(=O)C([H])([H])C([H])([H])C([H])([H])N([H])C(=O)N4C([H])([H])C([H])([H])C([H])([H])C([H])(n5nc(-c6c([H])c([H])c(Oc7c([H])c([H])c(F)c([H])c7F)c([H])c6[H])c(C(=O)N([H])[H])c5N([H])[H])C4([H])[H])C([H])([H])[H])c([H])c3[H])c([H])c([H])c2C1([H])[H]

>  <smiles>  (31) 
[H]c1c([H])c([H])c2c(c1[H])C([H])([H])C([H])([H])C([H])([H])C2([H])N([H])C(=O)C1([H])N(C(=O)C([H])(N([H])C(=O)C([H])(N([H])C([H])([H])[H])C([H])([H])[H])C(C([H])([H])[H])(C([H])([H])[H])C([H])([H])[H])C([H])([H])c2c([H])c(OC([H])([H])C([H])([H])C([H])([H])C([H])([H])Oc3c([H])c([H])c(N(C(=O)C([H])([H])C([H])([H])C([H])([H])N([H])C(=O)N4C([H])([H])C([H])([H])C([H])([H])C([H])(n5nc(-c6c([H])c([H])c(Oc7c([H])c([H])c(F)c([H])c7F)c([H])c6[H])c(C(=O)N([H])[H])c5N([H])[H])C4([H])[H])C([H])([H])[H])c([H])c3[H])c([H])c([H])c2C1([H])[H]

$$$$
31:0:0
     RDKit          3D

100107  0  0  1  0  0  0  0  0999 V2000
  -31.4970  -27.0960   18.3860 C   0  0  0  0  0  2  0  0  0  0  0  0
  -31.8460  -26.9290   19.9100 C   0  0  0  0  0  2  0  0  0  0  0  0
  -31.4860  -27.9520   21.0420 C   0  0  0  0  0  2  0  0  0  0  0  0
  -30.4510  -26.1270   22.4260 C   0  0  0  0  0  0  0  0  0  0  0  0
  -30.1450  -28.4970   23.0400 C   0  0  0  0  0  1  0  0  0  0  0  0
  -30.6880  -27.4410   22.1800 N   0  0  0  0  0  0  0  0  0  0  0  0
  -31.2710  -25.2380   22.1770 O   0  0  0  0  0  0  0  0  0  0  0  0
  -29.0430  -25.7030   22.8790 C   0  0  0  0  0  2  0  0  0  0  0  0
  -28.1260  -25.1190   21.7680 C   0  0  0  0  0  2  0  0  0  0  0  0
  -28.4510  -25.4540   20.3020 C   0  0  0  0  0  2  0  0  0  0  0  0
  -28.4430  -26.8510   20.0580 O   0  0  0  0  0  0  0  0  0  0  0  0
  -24.6210  -31.8770   23.1960 C   0  0  0  0  0  0  0  0  0  0  0  0
  -27.2470  -27.5120   20.0470 C   0  0  0  0  0  0  0  0  0  0  0  0
  -23.5660  -30.2490   21.6630 C   0  0  0  0  0  3  0  0  0  0  0  0
  -24.8750  -29.0100   19.9870 C   0  0  0  0  0  0  0  0  0  0  0  0
  -25.9470  -30.9220   21.2850 C   0  0  0  0  0  2  0  0  0  0  0  0
  -26.0380  -29.5650   20.5660 C   0  0  0  0  0  0  0  0  0  0  0  0
  -27.2250  -28.8170   20.5770 C   0  0  0  0  0  3  0  0  0  0  0  0
  -26.0760  -26.9640   19.4760 C   0  0  0  0  0  3  0  0  0  0  0  0
  -24.8850  -27.7090   19.4560 C   0  0  0  0  0  3  0  0  0  0  0  0
  -23.5950  -29.7910   20.1830 C   0  0  0  0  0  2  0  0  0  0  0  0
  -24.6790  -31.1450   22.0480 N   0  0  0  0  0  0  0  0  0  0  0  0
  -23.5390  -32.1090   23.7500 O   0  0  0  0  0  0  0  0  0  0  0  0
  -22.6830  -29.4610   22.6550 C   0  0  0  0  0  0  0  0  0  0  0  0
  -21.3850  -29.3110   22.3810 N   0  0  0  0  0  0  0  0  0  0  0  0
  -23.1950  -28.8630   23.6180 O   0  0  0  0  0  0  0  0  0  0  0  0
  -20.9730  -29.8050   21.6000 H   0  0  0  0  0  0  0  0  0  0  0  0
  -17.9990  -28.1450   22.8370 C   0  0  0  0  0  0  0  0  0  0  0  0
  -20.5420  -28.3760   23.1230 C   0  0  0  0  0  3  0  0  0  0  0  0
  -20.6520  -26.9480   22.5410 C   0  0  0  0  0  2  0  0  0  0  0  0
  -19.5590  -26.6390   21.5160 C   0  0  0  0  0  2  0  0  0  0  0  0
  -18.1730  -26.7960   22.1530 C   0  0  0  0  0  2  0  0  0  0  0  0
  -19.1180  -28.8930   23.2750 C   0  0  0  0  0  0  0  0  0  0  0  0
  -18.9240  -30.1510   23.8850 C   0  0  0  0  0  3  0  0  0  0  0  0
  -17.6300  -30.6670   24.0580 C   0  0  0  0  0  3  0  0  0  0  0  0
  -16.5170  -29.9180   23.6330 C   0  0  0  0  0  3  0  0  0  0  0  0
  -16.7020  -28.6620   23.0270 C   0  0  0  0  0  3  0  0  0  0  0  0
  -25.9000  -32.4910   23.8320 C   0  0  0  0  0  3  0  0  0  0  0  0
  -25.5800  -33.8660   24.2260 N   0  0  0  0  0  0  0  0  0  0  0  0
  -25.8980  -34.9510   23.5100 C   0  0  0  0  0  0  0  0  0  0  0  0
  -26.5610  -34.9030   22.4720 O   0  0  0  0  0  0  0  0  0  0  0  0
  -24.9810  -33.9750   25.0320 H   0  0  0  0  0  0  0  0  0  0  0  0
  -24.1450  -36.7410   23.2630 C   0  0  0  0  0  1  0  0  0  0  0  0
  -25.4010  -36.3120   24.0350 C   0  0  0  0  0  3  0  0  0  0  0  0
  -27.5520  -37.1850   24.8430 C   0  0  0  0  0  1  0  0  0  0  0  0
  -26.4170  -37.3800   23.9470 N   0  0  0  0  0  0  0  0  0  0  0  0
  -25.9970  -38.2860   24.1480 H   0  0  0  0  0  0  0  0  0  0  0  0
  -26.4380  -31.6610   25.0620 C   0  0  1  0  0  0  0  0  0  0  0  0
  -25.3720  -31.3740   26.1440 C   0  0  0  0  0  1  0  0  0  0  0  0
  -27.0170  -30.3080   24.5850 C   0  0  0  0  0  1  0  0  0  0  0  0
  -27.5960  -32.4270   25.7460 C   0  0  0  0  0  1  0  0  0  0  0  0
  -31.7280  -25.8050   17.5740 C   0  0  0  0  0  2  0  0  0  0  0  0
  -30.4630  -24.9770   17.2070 C   0  0  0  0  0  2  0  0  0  0  0  0
  -29.9010  -22.5690   17.7620 C   0  0  0  0  0  0  0  0  0  0  0  0
  -30.3200  -23.8060   18.0660 N   0  0  0  0  0  0  0  0  0  0  0  0
  -29.4980  -22.2550   16.6410 O   0  0  0  0  0  0  0  0  0  0  0  0
  -30.5990  -23.9510   19.0240 H   0  0  0  0  0  0  0  0  0  0  0  0
  -29.9830  -21.5480   18.9190 C   0  0  0  0  0  2  0  0  0  0  0  0
  -29.9380  -20.0470   18.5470 C   0  0  0  0  0  2  0  0  0  0  0  0
  -30.2260  -19.1610   19.7970 C   0  0  0  0  0  2  0  0  0  0  0  0
  -29.9120  -17.6520   19.6500 C   0  0  0  0  0  2  0  0  0  0  0  0
  -30.2190  -16.8910   20.9670 C   0  0  0  0  0  2  0  0  0  0  0  0
  -30.6650  -14.4590   20.5130 C   0  0  0  0  0  0  0  0  0  0  0  0
  -30.4210  -12.2910   19.3920 C   0  0  0  0  0  2  0  0  0  0  0  0
  -29.4820  -12.4890   18.1850 C   0  0  0  0  0  2  0  0  0  0  0  0
  -28.0010  -12.3620   18.6080 C   0  0  0  0  0  2  0  0  0  0  0  0
  -27.6530  -13.2050   19.8650 C   0  0  0  0  0  3  0  0  0  0  0  0
  -28.6970  -12.9740   20.9790 C   0  0  0  0  0  2  0  0  0  0  0  0
  -30.0280  -13.2650   20.4180 N   0  0  0  0  0  0  0  0  0  0  0  0
  -31.8050  -14.6670   20.0880 O   0  0  0  0  0  0  0  0  0  0  0  0
  -29.8830  -15.4690   20.9270 N   0  0  0  0  0  0  0  0  0  0  0  0
  -28.9440  -15.2160   21.2090 H   0  0  0  0  0  0  0  0  0  0  0  0
  -25.2510  -13.8220   20.5650 C   0  0  0  0  0  0  0  0  0  0  0  0
  -24.1780  -13.0420   20.9180 C   0  0  0  0  0  0  0  0  0  0  0  0
  -24.6360  -11.6910   20.8720 C   0  0  0  0  0  0  0  0  0  0  0  0
  -26.2970  -12.9370   20.3340 N   0  0  0  0  0  0  0  0  0  0  0  0
  -25.9280  -11.6530   20.5750 N   0  0  0  0  0  0  0  0  0  0  0  0
  -23.9040  -10.4280   21.0350 C   0  0  0  0  0  0  0  0  0  0  0  0
  -24.3590   -9.4230   21.9150 C   0  0  0  0  0  3  0  0  0  0  0  0
  -23.6290   -8.2260   22.0760 C   0  0  0  0  0  3  0  0  0  0  0  0
  -22.4290   -8.0260   21.3530 C   0  0  0  0  0  0  0  0  0  0  0  0
  -21.9880   -9.0230   20.4650 C   0  0  0  0  0  3  0  0  0  0  0  0
  -22.7190  -10.2120   20.3030 C   0  0  0  0  0  3  0  0  0  0  0  0
  -21.6640   -6.8840   21.4240 O   0  0  0  0  0  0  0  0  0  0  0  0
  -21.6860   -6.0720   22.5270 C   0  0  0  0  0  0  0  0  0  0  0  0
  -21.4020   -6.5620   23.8210 C   0  0  0  0  0  3  0  0  0  0  0  0
  -21.3660   -5.6780   24.9160 C   0  0  0  0  0  3  0  0  0  0  0  0
  -21.6040   -4.3040   24.7230 C   0  0  0  0  0  0  0  0  0  0  0  0
  -21.8830   -3.8130   23.4350 C   0  0  0  0  0  3  0  0  0  0  0  0
  -21.9200   -4.6930   22.3400 C   0  0  0  0  0  0  0  0  0  0  0  0
  -22.1660   -4.2110   21.0990 F   0  0  0  0  0  0  0  0  0  0  0  0
  -21.5640   -3.4540   25.7750 F   0  0  0  0  0  0  0  0  0  0  0  0
  -22.7820  -13.5230   21.1890 C   0  0  0  0  0  0  0  0  0  0  0  0
  -22.0480  -12.8170   22.0450 N   0  0  0  0  0  0  0  0  0  0  0  0
  -22.3450  -14.5500   20.6730 O   0  0  0  0  0  0  0  0  0  0  0  0
  -22.4150  -11.9840   22.4800 H   0  0  0  0  0  0  0  0  0  0  0  0
  -21.1110  -13.1170   22.2700 H   0  0  0  0  0  0  0  0  0  0  0  0
  -25.4120  -15.1930   20.4030 N   0  0  0  0  0  0  0  0  0  0  0  0
  -24.6300  -15.8330   20.5000 H   0  0  0  0  0  0  0  0  0  0  0  0
  -26.2490  -15.6480   20.0570 H   0  0  0  0  0  0  0  0  0  0  0  0
  1  2  1  0
  2  3  1  0
  3  6  1  0
  4  8  1  0
  6  4  1  0
  6  5  1  0
  7  4  2  0
  9  8  1  0
 10  9  1  0
 11 10  1  0
 12 23  2  0
 13 11  1  0
 13 18  1  0
 14 22  1  0
 14 24  1  0
 15 21  1  0
 15 17  1  0
 16 22  1  0
 17 18  2  0
 17 16  1  0
 19 13  2  0
 20 19  1  0
 20 15  2  0
 21 14  1  0
 22 12  1  0
 24 26  2  0
 25 24  1  0
 27 25  1  0
 28 37  2  0
 28 33  1  0
 29 25  1  0
 29 33  1  0
 30 29  1  0
 31 32  1  0
 31 30  1  0
 32 28  1  0
 33 34  2  0
 34 35  1  0
 36 35  2  0
 37 36  1  0
 38 12  1  0
 38 39  1  0
 38 48  1  0
 39 42  1  0
 40 44  1  0
 40 39  1  0
 41 40  2  0
 44 43  1  0
 46 44  1  0
 46 47  1  0
 46 45  1  0
 48 51  1  1
 48 49  1  0
 50 48  1  0
 52  1  1  0
 53 52  1  0
 53 55  1  0
 54 55  1  0
 54 58  1  0
 55 57  1  0
 56 54  2  0
 59 58  1  0
 59 60  1  0
 61 60  1  0
 61 62  1  0
 63 71  1  0
 64 69  1  0
 65 66  1  0
 65 64  1  0
 67 66  1  0
 67 76  1  0
 67 68  1  0
 69 63  1  0
 69 68  1  0
 70 63  2  0
 71 62  1  0
 71 72  1  0
 73 74  2  0
 74 93  1  0
 75 74  1  0
 75 78  1  0
 76 73  1  0
 76 77  1  0
 77 75  2  0
 78 79  1  0
 79 80  2  0
 81 84  1  0
 81 80  1  0
 82 81  2  0
 83 82  1  0
 83 78  2  0
 84 85  1  0
 85 86  1  0
 86 87  2  0
 88 87  1  0
 88 92  1  0
 89 88  2  0
 90 85  2  0
 90 89  1  0
 91 90  1  0
 93 94  1  0
 94 97  1  0
 94 96  1  0
 95 93  2  0
 98 99  1  0
 98 73  1  0
100 98  1  0
M  ISO  4  10 101  11 101  63 100  71 100
M  END
>  <TORSDO>  (32) 
F 30

>  <SCORE>  (32) 
-10.417

>  <name>  (32) 
31

>  <ligand_id>  (32) 
31

>  <original_smiles>  (32) 
[H]c1c([H])c([H])c2c(c1[H])C([H])([H])C([H])([H])C([H])([H])C2([H])N([H])C(=O)C1([H])N(C(=O)C([H])(N([H])C(=O)C([H])(N([H])C([H])([H])[H])C([H])([H])[H])C(C([H])([H])[H])(C([H])([H])[H])C([H])([H])[H])C([H])([H])c2c([H])c(OC([H])([H])C([H])([H])C([H])([H])C(=O)N(C([H])([H])[H])C([H])([H])C([H])([H])C([H])([H])C([H])([H])C([H])([H])N([H])C(=O)C([H])([H])C([H])([H])C([H])([H])C([H])([H])C([H])([H])N([H])C(=O)N3C([H])([H])C([H])([H])C([H])([H])C([H])(n4nc(-c5c([H])c([H])c(Oc6c([H])c([H])c(F)c([H])c6F)c([H])c5[H])c(C(=O)N([H])[H])c4N([H])[H])C3([H])[H])c([H])c([H])c2C1([H])[H]

>  <smiles>  (32) 
[H]c1c([H])c([H])c2c(c1[H])C([H])([H])C([H])([H])C([H])([H])C2([H])N([H])C(=O)C1([H])N(C(=O)C([H])(N([H])C(=O)C([H])(N([H])C([H])([H])[H])C([H])([H])[H])C(C([H])([H])[H])(C([H])([H])[H])C([H])([H])[H])C([H])([H])c2c([H])c(OC([H])([H])C([H])([H])C([H])([H])C(=O)N(C([H])([H])[H])C([H])([H])C([H])([H])C([H])([H])C([H])([H])C([H])([H])N([H])C(=O)C([H])([H])C([H])([H])C([H])([H])C([H])([H])C([H])([H])N([H])C(=O)N3C([H])([H])C([H])([H])C([H])([H])C([H])(n4nc(-c5c([H])c([H])c(Oc6c([H])c([H])c(F)c([H])c6F)c([H])c5[H])c(C(=O)N([H])[H])c4N([H])[H])C3([H])[H])c([H])c([H])c2C1([H])[H]

$$$$
32:0:0
     RDKit          3D

 99107  0  0  1  0  0  0  0  0999 V2000
  -30.3670  -20.3170   20.2520 C   0  0  0  0  0  2  0  0  0  0  0  0
  -30.5800  -19.1890   21.1730 N   0  0  0  0  0  0  0  0  0  0  0  0
  -31.5560  -18.9410   21.3150 H   0  0  0  0  0  0  0  0  0  0  0  0
  -28.1540  -18.3990   21.1410 O   0  0  0  0  0  0  0  0  0  0  0  0
  -29.8900  -17.0910   22.4730 O   0  0  0  0  0  0  0  0  0  0  0  0
  -29.5100  -17.8500   21.2680 S   0  0  2  0  0  0  0  0  0  0  0  0
  -30.7740  -15.9660   17.2790 C   0  0  0  0  0  3  0  0  0  0  0  0
  -29.5810  -16.7060   17.3860 C   0  0  0  0  0  3  0  0  0  0  0  0
  -31.5160  -15.6570   18.4340 C   0  0  0  0  0  3  0  0  0  0  0  0
  -29.1980  -17.2050   18.6400 C   0  0  0  0  0  3  0  0  0  0  0  0
  -31.0770  -16.0300   19.7300 C   0  0  0  0  0  0  0  0  0  0  0  0
  -29.9550  -16.9120   19.7960 C   0  0  0  0  0  0  0  0  0  0  0  0
  -32.3040  -14.3280   21.1030 C   0  0  0  0  0  0  0  0  0  0  0  0
  -31.8570  -12.0500   20.2680 C   0  0  0  0  0  2  0  0  0  0  0  0
  -31.0470  -12.0190   18.9590 C   0  0  0  0  0  2  0  0  0  0  0  0
  -29.5360  -12.2180   19.1920 C   0  0  0  0  0  2  0  0  0  0  0  0
  -29.1720  -13.2990   20.2410 C   0  0  0  0  0  3  0  0  0  0  0  0
  -30.0820  -13.2090   21.4820 C   0  0  0  0  0  2  0  0  0  0  0  0
  -31.4720  -13.2550   21.0190 N   0  0  0  0  0  0  0  0  0  0  0  0
  -33.5290  -14.2310   21.0680 O   0  0  0  0  0  0  0  0  0  0  0  0
  -31.7690  -15.5590   20.9030 N   0  0  0  0  0  0  0  0  0  0  0  0
  -32.3370  -16.2600   21.3510 H   0  0  0  0  0  0  0  0  0  0  0  0
  -26.8460  -14.3220   20.6630 C   0  0  0  0  0  0  0  0  0  0  0  0
  -25.6210  -13.7380   20.8750 C   0  0  0  0  0  0  0  0  0  0  0  0
  -25.8560  -12.3290   20.8860 C   0  0  0  0  0  0  0  0  0  0  0  0
  -27.7510  -13.2720   20.5670 N   0  0  0  0  0  0  0  0  0  0  0  0
  -27.1540  -12.0740   20.7680 N   0  0  0  0  0  0  0  0  0  0  0  0
  -24.9150  -11.2000   20.9310 C   0  0  0  0  0  0  0  0  0  0  0  0
  -25.0800  -10.1370   21.8470 C   0  0  0  0  0  3  0  0  0  0  0  0
  -24.1490   -9.0780   21.8980 C   0  0  0  0  0  3  0  0  0  0  0  0
  -23.0370   -9.0760   21.0300 C   0  0  0  0  0  0  0  0  0  0  0  0
  -22.8860  -10.1210   20.1020 C   0  0  0  0  0  3  0  0  0  0  0  0
  -23.8170  -11.1700   20.0490 C   0  0  0  0  0  3  0  0  0  0  0  0
  -22.0910   -8.0770   20.9950 O   0  0  0  0  0  0  0  0  0  0  0  0
  -21.8220   -7.3030   22.0950 C   0  0  0  0  0  0  0  0  0  0  0  0
  -21.3860   -7.8680   23.3150 C   0  0  0  0  0  3  0  0  0  0  0  0
  -21.0570   -7.0310   24.4020 C   0  0  0  0  0  3  0  0  0  0  0  0
  -21.1520   -5.6330   24.2700 C   0  0  0  0  0  0  0  0  0  0  0  0
  -21.5800   -5.0720   23.0570 C   0  0  0  0  0  3  0  0  0  0  0  0
  -21.9090   -5.9020   21.9700 C   0  0  0  0  0  0  0  0  0  0  0  0
  -22.3000   -5.3500   20.7980 F   0  0  0  0  0  0  0  0  0  0  0  0
  -20.8270   -4.8270   25.3090 F   0  0  0  0  0  0  0  0  0  0  0  0
  -24.2940  -14.4380   20.9450 C   0  0  0  0  0  0  0  0  0  0  0  0
  -23.3420  -13.8900   21.6980 N   0  0  0  0  0  0  0  0  0  0  0  0
  -24.1080  -15.5000   20.3510 O   0  0  0  0  0  0  0  0  0  0  0  0
  -23.4950  -13.0240   22.1910 H   0  0  0  0  0  0  0  0  0  0  0  0
  -22.4430  -14.3420   21.7990 H   0  0  0  0  0  0  0  0  0  0  0  0
  -27.2530  -15.6430   20.5070 N   0  0  0  0  0  0  0  0  0  0  0  0
  -26.5580  -16.3750   20.3980 H   0  0  0  0  0  0  0  0  0  0  0  0
  -28.1260  -15.8680   20.0500 H   0  0  0  0  0  0  0  0  0  0  0  0
  -29.9310  -19.9310   18.8190 C   0  0  0  0  0  2  0  0  0  0  0  0
  -30.5070  -20.9150   17.7980 C   0  0  0  0  0  2  0  0  0  0  0  0
  -29.8350  -22.2950   17.8450 C   0  0  0  0  0  2  0  0  0  0  0  0
  -30.7880  -23.4030   17.3730 C   0  0  0  0  0  2  0  0  0  0  0  0
  -30.0980  -24.7090   16.9390 C   0  0  0  0  0  2  0  0  0  0  0  0
  -29.3070  -25.4580   18.0330 C   0  0  0  0  0  2  0  0  0  0  0  0
  -30.1550  -26.5050   18.7860 C   0  0  0  0  0  2  0  0  0  0  0  0
  -29.3350  -27.4820   19.6400 C   0  0  0  0  0  2  0  0  0  0  0  0
  -28.2020  -26.8150   20.1900 O   0  0  0  0  0  0  0  0  0  0  0  0
  -24.5320  -32.0680   23.3030 C   0  0  0  0  0  0  0  0  0  0  0  0
  -27.0650  -27.5760   20.2540 C   0  0  0  0  0  0  0  0  0  0  0  0
  -23.2880  -30.6940   21.6630 C   0  0  0  0  0  3  0  0  0  0  0  0
  -24.7000  -29.1050   20.2600 C   0  0  0  0  0  0  0  0  0  0  0  0
  -25.8180  -30.9910   21.4630 C   0  0  0  0  0  2  0  0  0  0  0  0
  -25.8680  -29.6130   20.8440 C   0  0  0  0  0  0  0  0  0  0  0  0
  -27.0540  -28.8580   20.8440 C   0  0  0  0  0  3  0  0  0  0  0  0
  -25.8810  -27.0540   19.6970 C   0  0  0  0  0  3  0  0  0  0  0  0
  -24.6970  -27.8180   19.6910 C   0  0  0  0  0  3  0  0  0  0  0  0
  -23.4800  -29.9920   20.2910 C   0  0  0  0  0  2  0  0  0  0  0  0
  -24.5640  -31.2640   22.2020 N   0  0  0  0  0  0  0  0  0  0  0  0
  -23.4580  -32.3750   23.8410 O   0  0  0  0  0  0  0  0  0  0  0  0
  -22.6070  -29.6980   22.6300 C   0  0  0  0  0  0  0  0  0  0  0  0
  -21.2780  -29.5590   22.4980 N   0  0  0  0  0  0  0  0  0  0  0  0
  -23.2700  -29.0500   23.4450 O   0  0  0  0  0  0  0  0  0  0  0  0
  -20.8100  -30.1270   21.8060 H   0  0  0  0  0  0  0  0  0  0  0  0
  -17.8610  -28.5000   23.0040 C   0  0  0  0  0  0  0  0  0  0  0  0
  -20.4280  -28.6520   23.2700 C   0  0  0  0  0  3  0  0  0  0  0  0
  -20.4740  -27.2210   22.6890 C   0  0  0  0  0  2  0  0  0  0  0  0
  -19.3580  -26.9450   21.6770 C   0  0  0  0  0  2  0  0  0  0  0  0
  -17.9840  -27.1430   22.3250 C   0  0  0  0  0  2  0  0  0  0  0  0
  -19.0110  -29.2150   23.4330 C   0  0  0  0  0  0  0  0  0  0  0  0
  -18.8440  -30.4850   24.0240 C   0  0  0  0  0  3  0  0  0  0  0  0
  -17.5630  -31.0390   24.1920 C   0  0  0  0  0  3  0  0  0  0  0  0
  -16.4280  -30.3180   23.7840 C   0  0  0  0  0  3  0  0  0  0  0  0
  -16.5770  -29.0530   23.1920 C   0  0  0  0  0  3  0  0  0  0  0  0
  -25.8370  -32.6610   23.9270 C   0  0  0  0  0  3  0  0  0  0  0  0
  -25.5770  -34.0740   24.2330 N   0  0  0  0  0  0  0  0  0  0  0  0
  -25.9610  -35.1000   23.4620 C   0  0  0  0  0  0  0  0  0  0  0  0
  -26.6460  -34.9560   22.4460 O   0  0  0  0  0  0  0  0  0  0  0  0
  -24.9720  -34.2610   25.0190 H   0  0  0  0  0  0  0  0  0  0  0  0
  -24.3120  -36.9500   23.0490 C   0  0  0  0  0  1  0  0  0  0  0  0
  -25.5210  -36.5130   23.8910 C   0  0  0  0  0  3  0  0  0  0  0  0
  -27.6720  -37.3250   24.7510 C   0  0  0  0  0  1  0  0  0  0  0  0
  -26.5980  -37.5240   23.7810 N   0  0  0  0  0  0  0  0  0  0  0  0
  -26.2260  -38.4630   23.9050 H   0  0  0  0  0  0  0  0  0  0  0  0
  -26.3200  -31.8850   25.2120 C   0  0  1  0  0  0  0  0  0  0  0  0
  -25.2120  -31.6950   26.2740 C   0  0  0  0  0  1  0  0  0  0  0  0
  -26.8540  -30.4850   24.8310 C   0  0  0  0  0  1  0  0  0  0  0  0
  -27.5010  -32.6410   25.8660 C   0  0  0  0  0  1  0  0  0  0  0  0
  1  2  1  0
  6  2  1  6
  2  3  1  0
  4  6  2  0
  6  5  2  0
  7  8  2  0
  7  9  1  0
  8 10  1  0
  9 11  2  0
 10 12  2  0
 11 12  1  0
 11 21  1  0
 12  6  1  0
 14 19  1  0
 15 16  1  0
 15 14  1  0
 17 16  1  0
 17 26  1  0
 17 18  1  0
 19 13  1  0
 19 18  1  0
 20 13  2  0
 21 13  1  0
 21 22  1  0
 23 24  2  0
 24 25  1  0
 24 43  1  0
 25 28  1  0
 26 23  1  0
 26 27  1  0
 27 25  2  0
 28 29  1  0
 29 30  2  0
 31 30  1  0
 32 31  2  0
 33 32  1  0
 33 28  2  0
 34 31  1  0
 34 35  1  0
 35 36  1  0
 36 37  2  0
 38 37  1  0
 38 42  1  0
 39 38  2  0
 40 35  2  0
 40 39  1  0
 41 40  1  0
 43 44  1  0
 44 47  1  0
 44 46  1  0
 45 43  2  0
 48 23  1  0
 49 48  1  0
 50 48  1  0
 51  1  1  0
 52 53  1  0
 52 51  1  0
 54 53  1  0
 55 54  1  0
 55 56  1  0
 56 57  1  0
 57 58  1  0
 58 59  1  0
 59 61  1  0
 60 71  2  0
 61 66  1  0
 62 70  1  0
 62 72  1  0
 63 69  1  0
 63 65  1  0
 64 70  1  0
 65 64  1  0
 66 65  2  0
 67 61  2  0
 68 67  1  0
 68 63  2  0
 69 62  1  0
 70 60  1  0
 72 74  2  0
 73 72  1  0
 75 73  1  0
 76 85  2  0
 76 81  1  0
 77 73  1  0
 77 81  1  0
 78 77  1  0
 79 80  1  0
 79 78  1  0
 80 76  1  0
 81 82  2  0
 82 83  1  0
 84 83  2  0
 85 84  1  0
 86 60  1  0
 86 87  1  0
 86 96  1  0
 87 90  1  0
 88 92  1  0
 88 87  1  0
 89 88  2  0
 92 91  1  0
 94 92  1  0
 94 95  1  0
 94 93  1  0
 96 99  1  1
 96 97  1  0
 98 96  1  0
M  ISO  4  13 100  21 100  58 101  59 101
M  END
>  <TORSDO>  (33) 
F 27

>  <SCORE>  (33) 
-7.119

>  <name>  (33) 
32

>  <ligand_id>  (33) 
32

>  <original_smiles>  (33) 
[H]c1c([H])c([H])c(S(=O)(=O)N([H])C([H])([H])C([H])([H])C([H])([H])C([H])([H])C([H])([H])C([H])([H])C([H])([H])C([H])([H])C([H])([H])Oc2c([H])c([H])c3c(c2[H])C([H])([H])N(C(=O)C([H])(N([H])C(=O)C([H])(N([H])C([H])([H])[H])C([H])([H])[H])C(C([H])([H])[H])(C([H])([H])[H])C([H])([H])[H])C([H])(C(=O)N([H])C2([H])c4c([H])c([H])c([H])c([H])c4C([H])([H])C([H])([H])C2([H])[H])C3([H])[H])c(N([H])C(=O)N2C([H])([H])C([H])([H])C([H])([H])C([H])(n3nc(-c4c([H])c([H])c(Oc5c([H])c([H])c(F)c([H])c5F)c([H])c4[H])c(C(=O)N([H])[H])c3N([H])[H])C2([H])[H])c1[H]

>  <smiles>  (33) 
[H]c1c([H])c([H])c(S(=O)(=O)N([H])C([H])([H])C([H])([H])C([H])([H])C([H])([H])C([H])([H])C([H])([H])C([H])([H])C([H])([H])C([H])([H])Oc2c([H])c([H])c3c(c2[H])C([H])([H])N(C(=O)C([H])(N([H])C(=O)C([H])(N([H])C([H])([H])[H])C([H])([H])[H])C(C([H])([H])[H])(C([H])([H])[H])C([H])([H])[H])C([H])(C(=O)N([H])C2([H])c4c([H])c([H])c([H])c([H])c4C([H])([H])C([H])([H])C2([H])[H])C3([H])[H])c(N([H])C(=O)N2C([H])([H])C([H])([H])C([H])([H])C([H])(n3nc(-c4c([H])c([H])c(Oc5c([H])c([H])c(F)c([H])c5F)c([H])c4[H])c(C(=O)N([H])[H])c3N([H])[H])C2([H])[H])c1[H]

$$$$
33:0:0
     RDKit          3D

 92100  0  0  1  0  0  0  0  0999 V2000
  -31.3490  -18.2460   20.5580 C   0  0  0  0  0  3  0  0  0  0  0  0
  -30.8160  -20.6790   20.5320 C   0  0  0  0  0  3  0  0  0  0  0  0
  -29.0640  -19.0130   20.3950 C   0  0  0  0  0  3  0  0  0  0  0  0
  -31.7470  -19.6100   20.6030 C   0  0  0  0  0  0  0  0  0  0  0  0
  -30.0010  -17.8350   20.4580 C   0  0  0  0  0  0  0  0  0  0  0  0
  -29.4250  -20.4760   20.4230 C   0  0  0  0  0  0  0  0  0  0  0  0
  -30.4800  -15.0940   20.3240 C   0  0  0  0  0  0  0  0  0  0  0  0
  -30.3760  -12.7290   19.3720 C   0  0  0  0  0  2  0  0  0  0  0  0
  -29.4300  -12.6540   18.1500 C   0  0  0  0  0  2  0  0  0  0  0  0
  -27.9780  -12.4160   18.6030 C   0  0  0  0  0  2  0  0  0  0  0  0
  -27.5700  -13.3340   19.7840 C   0  0  0  0  0  3  0  0  0  0  0  0
  -28.6400  -13.3780   20.8950 C   0  0  0  0  0  2  0  0  0  0  0  0
  -29.8870  -13.8260   20.2650 N   0  0  0  0  0  0  0  0  0  0  0  0
  -31.6870  -15.1280   20.0570 O   0  0  0  0  0  0  0  0  0  0  0  0
  -29.6990  -16.3020   20.4550 N   0  0  0  0  0  0  0  0  0  0  0  0
  -28.7180  -16.0890   20.5540 H   0  0  0  0  0  0  0  0  0  0  0  0
  -25.1970  -13.8790   20.5630 C   0  0  0  0  0  0  0  0  0  0  0  0
  -24.1460  -13.0910   20.9390 C   0  0  0  0  0  0  0  0  0  0  0  0
  -24.6230  -11.7450   20.8900 C   0  0  0  0  0  0  0  0  0  0  0  0
  -26.2450  -13.0140   20.3010 N   0  0  0  0  0  0  0  0  0  0  0  0
  -25.9110  -11.7240   20.5660 N   0  0  0  0  0  0  0  0  0  0  0  0
  -23.9090  -10.4730   21.0760 C   0  0  0  0  0  0  0  0  0  0  0  0
  -24.3610   -9.4990   21.9930 C   0  0  0  0  0  3  0  0  0  0  0  0
  -23.6450   -8.2950   22.1680 C   0  0  0  0  0  3  0  0  0  0  0  0
  -22.4630   -8.0570   21.4270 C   0  0  0  0  0  0  0  0  0  0  0  0
  -22.0310   -9.0210   20.4980 C   0  0  0  0  0  3  0  0  0  0  0  0
  -22.7480  -10.2160   20.3210 C   0  0  0  0  0  3  0  0  0  0  0  0
  -21.7170   -6.9060   21.5120 O   0  0  0  0  0  0  0  0  0  0  0  0
  -21.6900   -6.1510   22.6560 C   0  0  0  0  0  0  0  0  0  0  0  0
  -21.2580   -6.6830   23.8910 C   0  0  0  0  0  3  0  0  0  0  0  0
  -21.1790   -5.8520   25.0270 C   0  0  0  0  0  3  0  0  0  0  0  0
  -21.5200   -4.4900   24.9290 C   0  0  0  0  0  0  0  0  0  0  0  0
  -21.9450   -3.9570   23.6990 C   0  0  0  0  0  3  0  0  0  0  0  0
  -22.0250   -4.7850   22.5650 C   0  0  0  0  0  0  0  0  0  0  0  0
  -22.4140   -4.2610   21.3780 F   0  0  0  0  0  0  0  0  0  0  0  0
  -21.4380   -3.6900   26.0180 F   0  0  0  0  0  0  0  0  0  0  0  0
  -22.7470  -13.5520   21.2260 C   0  0  0  0  0  0  0  0  0  0  0  0
  -22.0360  -12.8480   22.0980 N   0  0  0  0  0  0  0  0  0  0  0  0
  -22.2950  -14.5750   20.7130 O   0  0  0  0  0  0  0  0  0  0  0  0
  -22.4160  -12.0210   22.5340 H   0  0  0  0  0  0  0  0  0  0  0  0
  -21.0970  -13.1390   22.3330 H   0  0  0  0  0  0  0  0  0  0  0  0
  -25.3430  -15.2530   20.3930 N   0  0  0  0  0  0  0  0  0  0  0  0
  -24.5620  -15.8910   20.5080 H   0  0  0  0  0  0  0  0  0  0  0  0
  -26.1640  -15.7020   20.0080 H   0  0  0  0  0  0  0  0  0  0  0  0
  -33.2300  -19.9450   20.7120 C   0  0  1  0  0  0  0  0  0  0  0  0
  -33.9200  -18.9530   21.2760 F   0  0  0  0  0  0  0  0  0  0  0  0
  -33.7210  -20.1640   19.4930 F   0  0  0  0  0  0  0  0  0  0  0  0
  -33.4160  -21.0420   21.4480 F   0  0  0  0  0  0  0  0  0  0  0  0
  -28.5420  -21.6670   20.3460 O   0  0  0  0  0  0  0  0  0  0  0  0
  -28.9380  -23.1940   20.4210 C   0  0  0  0  0  3  0  0  0  0  0  0
  -27.9240  -24.5720   20.2070 C   0  0  0  0  0  3  0  0  0  0  0  0
  -28.2130  -26.1260   20.3490 O   0  0  0  0  0  0  0  0  0  0  0  0
  -24.6270  -31.9400   23.2560 C   0  0  0  0  0  0  0  0  0  0  0  0
  -27.1770  -27.1470   20.2720 C   0  0  0  0  0  0  0  0  0  0  0  0
  -23.4270  -30.5450   21.6190 C   0  0  0  0  0  3  0  0  0  0  0  0
  -24.8700  -28.9450   20.2110 C   0  0  0  0  0  0  0  0  0  0  0  0
  -25.9870  -30.7760   21.4710 C   0  0  0  0  0  2  0  0  0  0  0  0
  -26.0530  -29.3760   20.8250 C   0  0  0  0  0  0  0  0  0  0  0  0
  -27.2060  -28.4950   20.8340 C   0  0  0  0  0  3  0  0  0  0  0  0
  -25.9670  -26.8310   19.6170 C   0  0  0  0  0  3  0  0  0  0  0  0
  -24.8430  -27.6880   19.5900 C   0  0  0  0  0  3  0  0  0  0  0  0
  -23.6520  -29.8580   20.2460 C   0  0  0  0  0  2  0  0  0  0  0  0
  -24.7010  -31.1100   22.1700 N   0  0  0  0  0  0  0  0  0  0  0  0
  -23.5390  -32.2370   23.7750 O   0  0  0  0  0  0  0  0  0  0  0  0
  -22.7310  -29.5510   22.5840 C   0  0  0  0  0  0  0  0  0  0  0  0
  -21.4020  -29.3910   22.4500 N   0  0  0  0  0  0  0  0  0  0  0  0
  -23.3910  -28.9260   23.4180 O   0  0  0  0  0  0  0  0  0  0  0  0
  -20.9260  -29.9460   21.7530 H   0  0  0  0  0  0  0  0  0  0  0  0
  -18.0070  -28.2220   22.9460 C   0  0  0  0  0  0  0  0  0  0  0  0
  -20.5680  -28.4650   23.2220 C   0  0  0  0  0  3  0  0  0  0  0  0
  -20.6590  -27.0290   22.6560 C   0  0  0  0  0  2  0  0  0  0  0  0
  -19.5590  -26.7100   21.6390 C   0  0  0  0  0  2  0  0  0  0  0  0
  -18.1760  -26.8690   22.2760 C   0  0  0  0  0  2  0  0  0  0  0  0
  -19.1300  -28.9790   23.3760 C   0  0  0  0  0  0  0  0  0  0  0  0
  -18.9160  -30.2430   23.9650 C   0  0  0  0  0  3  0  0  0  0  0  0
  -17.6150  -30.7530   24.1260 C   0  0  0  0  0  3  0  0  0  0  0  0
  -16.5070  -29.9950   23.7100 C   0  0  0  0  0  3  0  0  0  0  0  0
  -16.7040  -28.7310   23.1260 C   0  0  0  0  0  3  0  0  0  0  0  0
  -25.9050  -32.5720   23.8890 C   0  0  0  0  0  3  0  0  0  0  0  0
  -26.4030  -31.8040   25.1750 C   0  0  1  0  0  0  0  0  0  0  0  0
  -25.2980  -31.5800   26.2350 C   0  0  0  0  0  1  0  0  0  0  0  0
  -26.9800  -30.4190   24.8020 C   0  0  0  0  0  1  0  0  0  0  0  0
  -27.5520  -32.5940   25.8430 C   0  0  0  0  0  1  0  0  0  0  0  0
  -25.5970  -33.9730   24.2180 N   0  0  0  0  0  0  0  0  0  0  0  0
  -25.9170  -35.0260   23.4550 C   0  0  0  0  0  0  0  0  0  0  0  0
  -26.5680  -34.9210   22.4120 O   0  0  0  0  0  0  0  0  0  0  0  0
  -25.0170  -34.1290   25.0290 H   0  0  0  0  0  0  0  0  0  0  0  0
  -24.1760  -36.8180   23.1490 C   0  0  0  0  0  1  0  0  0  0  0  0
  -25.4440  -36.4180   23.9210 C   0  0  0  0  0  3  0  0  0  0  0  0
  -27.5990  -37.3160   24.6830 C   0  0  0  0  0  1  0  0  0  0  0  0
  -26.4690  -37.4720   23.7690 N   0  0  0  0  0  0  0  0  0  0  0  0
  -26.0660  -38.3930   23.9190 H   0  0  0  0  0  0  0  0  0  0  0  0
  1  4  1  0
  2  4  2  0
  3  6  2  0
  3  5  1  0
  4 45  1  0
  5  1  2  0
  6  2  1  0
  7 15  1  0
  8 13  1  0
  9 10  1  0
  9  8  1  0
 11 10  1  0
 11 20  1  0
 11 12  1  0
 13  7  1  0
 13 12  1  0
 14  7  2  0
 15  5  1  0
 15 16  1  0
 17 18  2  0
 18 37  1  0
 19 18  1  0
 19 22  1  0
 20 17  1  0
 20 21  1  0
 21 19  2  0
 22 23  1  0
 23 24  2  0
 25 28  1  0
 25 24  1  0
 26 25  2  0
 27 26  1  0
 27 22  2  0
 28 29  1  0
 29 30  1  0
 30 31  2  0
 32 31  1  0
 32 36  1  0
 33 32  2  0
 34 29  2  0
 34 33  1  0
 35 34  1  0
 37 38  1  0
 38 41  1  0
 38 40  1  0
 39 37  2  0
 42 43  1  0
 42 17  1  0
 44 42  1  0
 45 46  1  1
 45 48  1  0
 47 45  1  0
 49 50  1  0
 49  6  1  0
 51 52  1  0
 51 50  2  0
 53 64  2  0
 54 52  1  0
 54 59  1  0
 55 63  1  0
 55 65  1  0
 56 62  1  0
 56 58  1  0
 57 63  1  0
 58 59  2  0
 58 57  1  0
 60 54  2  0
 61 60  1  0
 61 56  2  0
 62 55  1  0
 63 53  1  0
 65 67  2  0
 66 65  1  0
 68 66  1  0
 69 78  2  0
 69 74  1  0
 70 66  1  0
 70 74  1  0
 71 70  1  0
 72 73  1  0
 72 71  1  0
 73 69  1  0
 74 75  2  0
 75 76  1  0
 77 76  2  0
 78 77  1  0
 79 53  1  0
 79 84  1  0
 79 80  1  0
 80 83  1  1
 80 81  1  0
 82 80  1  0
 84 87  1  0
 85 89  1  0
 85 84  1  0
 86 85  2  0
 89 88  1  0
 91 92  1  0
 91 89  1  0
 91 90  1  0
M  ISO  4   7 100  15 100  51 101  52 101
M  END
>  <TORSDO>  (34) 
F 20

>  <SCORE>  (34) 
-14.910

>  <name>  (34) 
33

>  <ligand_id>  (34) 
33

>  <original_smiles>  (34) 
[H]c1c([H])c([H])c2c(c1[H])C([H])([H])C([H])([H])C([H])([H])C2([H])N([H])C(=O)C1([H])N(C(=O)C([H])(N([H])C(=O)C([H])(N([H])C([H])([H])[H])C([H])([H])[H])C(C([H])([H])[H])(C([H])([H])[H])C([H])([H])[H])C([H])([H])c2c([H])c(OC([H])([H])C([H])([H])Oc3c([H])c(N([H])C(=O)N4C([H])([H])C([H])([H])C([H])([H])C([H])(n5nc(-c6c([H])c([H])c(Oc7c([H])c([H])c(F)c([H])c7F)c([H])c6[H])c(C(=O)N([H])[H])c5N([H])[H])C4([H])[H])c([H])c(C(F)(F)F)c3[H])c([H])c([H])c2C1([H])[H]

>  <smiles>  (34) 
[H]c1c([H])c([H])c2c(c1[H])C([H])([H])C([H])([H])C([H])([H])C2([H])N([H])C(=O)C1([H])N(C(=O)C([H])(N([H])C(=O)C([H])(N([H])C([H])([H])[H])C([H])([H])[H])C(C([H])([H])[H])(C([H])([H])[H])C([H])([H])[H])C([H])([H])c2c([H])c(OC([H])([H])C([H])([H])Oc3c([H])c(N([H])C(=O)N4C([H])([H])C([H])([H])C([H])([H])C([H])(n5nc(-c6c([H])c([H])c(Oc7c([H])c([H])c(F)c([H])c7F)c([H])c6[H])c(C(=O)N([H])[H])c5N([H])[H])C4([H])[H])c([H])c(C(F)(F)F)c3[H])c([H])c([H])c2C1([H])[H]

$$$$
34:0:0
     RDKit          3D

 93101  0  0  1  0  0  0  0  0999 V2000
  -31.3660  -17.9670   19.9770 C   0  0  0  0  0  3  0  0  0  0  0  0
  -31.3930  -19.3480   19.6340 C   0  0  0  0  0  3  0  0  0  0  0  0
  -29.1050  -18.2360   20.7270 C   0  0  0  0  0  3  0  0  0  0  0  0
  -30.2190  -17.3710   20.5540 C   0  0  0  0  0  0  0  0  0  0  0  0
  -30.2950  -20.2390   19.8440 C   0  0  0  0  0  0  0  0  0  0  0  0
  -29.1270  -19.6290   20.3930 C   0  0  0  0  0  0  0  0  0  0  0  0
  -30.9700  -14.9080   20.9230 C   0  0  0  0  0  0  0  0  0  0  0  0
  -30.9410  -12.5000   20.3110 C   0  0  0  0  0  2  0  0  0  0  0  0
  -30.2000  -12.3610   18.9630 C   0  0  0  0  0  2  0  0  0  0  0  0
  -28.6770  -12.2420   19.1800 C   0  0  0  0  0  2  0  0  0  0  0  0
  -28.1280  -13.3220   20.1510 C   0  0  0  0  0  3  0  0  0  0  0  0
  -28.9940  -13.4130   21.4270 C   0  0  0  0  0  2  0  0  0  0  0  0
  -30.3800  -13.6740   21.0070 N   0  0  0  0  0  0  0  0  0  0  0  0
  -32.1750  -15.0270   20.6830 O   0  0  0  0  0  0  0  0  0  0  0  0
  -30.1060  -15.9690   20.9560 N   0  0  0  0  0  0  0  0  0  0  0  0
  -29.1730  -15.6830   21.2110 H   0  0  0  0  0  0  0  0  0  0  0  0
  -25.6880  -14.0260   20.5510 C   0  0  0  0  0  0  0  0  0  0  0  0
  -24.5530  -13.3000   20.7940 C   0  0  0  0  0  0  0  0  0  0  0  0
  -24.9630  -11.9320   20.8430 C   0  0  0  0  0  0  0  0  0  0  0  0
  -26.7180  -13.1030   20.4630 N   0  0  0  0  0  0  0  0  0  0  0  0
  -26.2790  -11.8400   20.6990 N   0  0  0  0  0  0  0  0  0  0  0  0
  -24.1700  -10.7010   20.9590 C   0  0  0  0  0  0  0  0  0  0  0  0
  -24.5070   -9.6920   21.8870 C   0  0  0  0  0  3  0  0  0  0  0  0
  -23.7190   -8.5250   21.9920 C   0  0  0  0  0  3  0  0  0  0  0  0
  -22.5800   -8.3610   21.1680 C   0  0  0  0  0  0  0  0  0  0  0  0
  -22.2630   -9.3580   20.2300 C   0  0  0  0  0  3  0  0  0  0  0  0
  -23.0510  -10.5170   20.1230 C   0  0  0  0  0  3  0  0  0  0  0  0
  -21.7710   -7.2510   21.1840 O   0  0  0  0  0  0  0  0  0  0  0  0
  -21.7080   -6.4210   22.2750 C   0  0  0  0  0  0  0  0  0  0  0  0
  -21.3660   -6.9010   23.5590 C   0  0  0  0  0  3  0  0  0  0  0  0
  -21.2460   -6.0020   24.6370 C   0  0  0  0  0  3  0  0  0  0  0  0
  -21.4560   -4.6250   24.4340 C   0  0  0  0  0  0  0  0  0  0  0  0
  -21.7920   -4.1450   23.1560 C   0  0  0  0  0  3  0  0  0  0  0  0
  -21.9140   -5.0410   22.0800 C   0  0  0  0  0  0  0  0  0  0  0  0
  -22.2170   -4.5690   20.8460 F   0  0  0  0  0  0  0  0  0  0  0  0
  -21.3330   -3.7610   25.4680 F   0  0  0  0  0  0  0  0  0  0  0  0
  -23.1530  -13.8330   20.8790 C   0  0  0  0  0  0  0  0  0  0  0  0
  -22.2990  -13.1900   21.6680 N   0  0  0  0  0  0  0  0  0  0  0  0
  -22.8200  -14.8560   20.2800 O   0  0  0  0  0  0  0  0  0  0  0  0
  -22.5760  -12.3640   22.1750 H   0  0  0  0  0  0  0  0  0  0  0  0
  -21.3530  -13.5310   21.7660 H   0  0  0  0  0  0  0  0  0  0  0  0
  -25.9260  -15.3860   20.3750 N   0  0  0  0  0  0  0  0  0  0  0  0
  -25.1740  -16.0650   20.3740 H   0  0  0  0  0  0  0  0  0  0  0  0
  -26.8180  -15.7850   20.1110 H   0  0  0  0  0  0  0  0  0  0  0  0
  -31.7920  -22.1250   19.3540 C   0  0  0  0  0  1  0  0  0  0  0  0
  -30.4230  -21.6610   19.5930 N   0  0  0  0  0  0  0  0  0  0  0  0
  -29.3040  -22.5810   19.1960 C   0  0  0  0  0  2  0  0  0  0  0  0
  -29.5660  -24.1530   19.3160 C   0  0  0  0  0  3  0  0  0  0  0  0
  -28.3420  -25.1220   19.0670 C   0  0  0  0  0  3  0  0  0  0  0  0
  -28.5200  -26.5750   19.2700 O   0  0  0  0  0  0  0  0  0  0  0  0
  -24.7810  -31.5270   22.9300 C   0  0  0  0  0  0  0  0  0  0  0  0
  -27.3650  -27.3670   19.3470 C   0  0  0  0  0  0  0  0  0  0  0  0
  -23.5300  -30.2240   21.2480 C   0  0  0  0  0  3  0  0  0  0  0  0
  -24.9440  -28.8650   19.6120 C   0  0  0  0  0  0  0  0  0  0  0  0
  -26.0390  -30.6640   20.9460 C   0  0  0  0  0  2  0  0  0  0  0  0
  -26.1280  -29.3520   20.1800 C   0  0  0  0  0  0  0  0  0  0  0  0
  -27.3400  -28.6160   20.0390 C   0  0  0  0  0  3  0  0  0  0  0  0
  -26.1520  -26.9340   18.7580 C   0  0  0  0  0  3  0  0  0  0  0  0
  -24.9570  -27.6610   18.8940 C   0  0  0  0  0  3  0  0  0  0  0  0
  -23.6820  -29.6780   19.8050 C   0  0  0  0  0  2  0  0  0  0  0  0
  -24.8050  -30.8190   21.7640 N   0  0  0  0  0  0  0  0  0  0  0  0
  -23.7230  -31.7140   23.5480 O   0  0  0  0  0  0  0  0  0  0  0  0
  -22.9650  -29.1020   22.1520 C   0  0  0  0  0  0  0  0  0  0  0  0
  -21.6480  -28.8510   22.0510 N   0  0  0  0  0  0  0  0  0  0  0  0
  -23.7070  -28.4650   22.9020 O   0  0  0  0  0  0  0  0  0  0  0  0
  -21.1050  -29.4240   21.4200 H   0  0  0  0  0  0  0  0  0  0  0  0
  -18.3880  -27.3460   22.4780 C   0  0  0  0  0  0  0  0  0  0  0  0
  -20.9130  -27.8160   22.7770 C   0  0  0  0  0  3  0  0  0  0  0  0
  -21.1410  -26.4230   22.1470 C   0  0  0  0  0  2  0  0  0  0  0  0
  -20.0760  -26.0460   21.1120 C   0  0  0  0  0  2  0  0  0  0  0  0
  -18.6840  -26.0450   21.7520 C   0  0  0  0  0  2  0  0  0  0  0  0
  -19.4340  -28.1850   22.9460 C   0  0  0  0  0  0  0  0  0  0  0  0
  -19.1030  -29.3990   23.5860 C   0  0  0  0  0  3  0  0  0  0  0  0
  -17.7580  -29.7790   23.7610 C   0  0  0  0  0  3  0  0  0  0  0  0
  -16.7270  -28.9370   23.3090 C   0  0  0  0  0  3  0  0  0  0  0  0
  -17.0420  -27.7220   22.6740 C   0  0  0  0  0  3  0  0  0  0  0  0
  -26.0760  -32.1550   23.5290 C   0  0  0  0  0  3  0  0  0  0  0  0
  -25.7370  -33.5070   23.9990 N   0  0  0  0  0  0  0  0  0  0  0  0
  -26.0290  -34.6370   23.3420 C   0  0  0  0  0  0  0  0  0  0  0  0
  -26.6820  -34.6520   22.2950 O   0  0  0  0  0  0  0  0  0  0  0  0
  -25.1540  -33.5670   24.8210 H   0  0  0  0  0  0  0  0  0  0  0  0
  -24.2480  -36.4080   23.1930 C   0  0  0  0  0  1  0  0  0  0  0  0
  -25.5140  -35.9610   23.9400 C   0  0  0  0  0  3  0  0  0  0  0  0
  -27.6420  -36.8190   24.8170 C   0  0  0  0  0  1  0  0  0  0  0  0
  -26.5170  -37.0470   23.9130 N   0  0  0  0  0  0  0  0  0  0  0  0
  -26.0900  -37.9380   24.1570 H   0  0  0  0  0  0  0  0  0  0  0  0
  -26.6970  -31.3000   24.7010 C   0  0  1  0  0  0  0  0  0  0  0  0
  -25.6840  -30.9380   25.8120 C   0  0  0  0  0  1  0  0  0  0  0  0
  -27.2920  -29.9790   24.1570 C   0  0  0  0  0  1  0  0  0  0  0  0
  -27.8650  -32.0760   25.3550 C   0  0  0  0  0  1  0  0  0  0  0  0
  -28.0000  -20.3890   20.5990 O   0  0  0  0  0  0  0  0  0  0  0  0
  -28.6480  -22.2330   22.0210 C   0  0  0  0  0  1  0  0  0  0  0  0
  -27.8420  -20.9350   21.9050 C   0  0  0  0  0  2  0  0  0  0  0  0
  1  4  1  0
  2  5  1  0
  2  1  2  0
  4  3  2  0
  4 15  1  0
  5  6  2  0
  6 91  1  0
  6  3  1  0
  7 15  1  0
  7 13  1  0
  8 13  1  0
  9 10  1  0
  9  8  1  0
 11 10  1  0
 11 20  1  0
 11 12  1  0
 13 12  1  0
 14  7  2  0
 15 16  1  0
 17 18  2  0
 18 19  1  0
 18 37  1  0
 19 22  1  0
 20 17  1  0
 20 21  1  0
 21 19  2  0
 22 23  1  0
 23 24  2  0
 25 28  1  0
 25 24  1  0
 26 25  2  0
 27 26  1  0
 27 22  2  0
 28 29  1  0
 29 30  1  0
 30 31  2  0
 32 31  1  0
 32 36  1  0
 33 32  2  0
 34 29  2  0
 34 33  1  0
 35 34  1  0
 37 38  1  0
 38 41  1  0
 38 40  1  0
 39 37  2  0
 42 17  1  0
 43 42  1  0
 44 42  1  0
 45 46  1  0
 46  5  1  0
 47 48  1  0
 47 46  1  0
 49 50  1  0
 49 48  2  0
 50 52  1  0
 51 62  2  0
 52 57  1  0
 53 61  1  0
 53 63  1  0
 54 60  1  0
 54 56  1  0
 55 61  1  0
 56 55  1  0
 57 56  2  0
 58 59  1  0
 58 52  2  0
 59 54  2  0
 60 53  1  0
 61 51  1  0
 63 65  2  0
 64 63  1  0
 66 64  1  0
 67 76  2  0
 67 72  1  0
 68 64  1  0
 68 72  1  0
 69 68  1  0
 70 71  1  0
 70 69  1  0
 71 67  1  0
 72 73  2  0
 73 74  1  0
 75 74  2  0
 76 75  1  0
 77 51  1  0
 77 78  1  0
 77 87  1  0
 78 81  1  0
 79 83  1  0
 79 78  1  0
 80 79  2  0
 83 82  1  0
 85 83  1  0
 85 86  1  0
 85 84  1  0
 87 90  1  1
 87 88  1  0
 89 87  1  0
 91 93  1  0
 93 92  1  0
M  ISO  4   7 100  15 100  49 101  50 101
M  END
>  <TORSDO>  (35) 
F 22

>  <SCORE>  (35) 
-10.330

>  <name>  (35) 
34

>  <ligand_id>  (35) 
34

>  <original_smiles>  (35) 
[H]c1c([H])c([H])c2c(c1[H])C([H])([H])C([H])([H])C([H])([H])C2([H])N([H])C(=O)C1([H])N(C(=O)C([H])(N([H])C(=O)C([H])(N([H])C([H])([H])[H])C([H])([H])[H])C(C([H])([H])[H])(C([H])([H])[H])C([H])([H])[H])C([H])([H])c2c([H])c(OC([H])([H])C([H])([H])C([H])([H])N(c3c([H])c([H])c(N([H])C(=O)N4C([H])([H])C([H])([H])C([H])([H])C([H])(n5nc(-c6c([H])c([H])c(Oc7c([H])c([H])c(F)c([H])c7F)c([H])c6[H])c(C(=O)N([H])[H])c5N([H])[H])C4([H])[H])c([H])c3OC([H])([H])C([H])([H])[H])C([H])([H])[H])c([H])c([H])c2C1([H])[H]

>  <smiles>  (35) 
[H]c1c([H])c([H])c2c(c1[H])C([H])([H])C([H])([H])C([H])([H])C2([H])N([H])C(=O)C1([H])N(C(=O)C([H])(N([H])C(=O)C([H])(N([H])C([H])([H])[H])C([H])([H])[H])C(C([H])([H])[H])(C([H])([H])[H])C([H])([H])[H])C([H])([H])c2c([H])c(OC([H])([H])C([H])([H])C([H])([H])N(c3c([H])c([H])c(N([H])C(=O)N4C([H])([H])C([H])([H])C([H])([H])C([H])(n5nc(-c6c([H])c([H])c(Oc7c([H])c([H])c(F)c([H])c7F)c([H])c6[H])c(C(=O)N([H])[H])c5N([H])[H])C4([H])[H])c([H])c3OC([H])([H])C([H])([H])[H])C([H])([H])[H])c([H])c([H])c2C1([H])[H]

$$$$
35:0:0
     RDKit          3D

 98106  0  0  1  0  0  0  0  0999 V2000
  -27.4950  -22.9840   17.5720 C   0  0  0  0  0  0  0  0  0  0  0  0
  -26.4710  -21.0010   16.4870 C   0  0  0  0  0  1  0  0  0  0  0  0
  -27.0160  -21.7150   17.6460 N   0  0  0  0  0  0  0  0  0  0  0  0
  -27.8270  -23.6090   18.5820 O   0  0  0  0  0  0  0  0  0  0  0  0
  -26.8970  -21.0030   18.9310 C   0  0  0  0  0  2  0  0  0  0  0  0
  -27.3760  -19.5390   18.8460 C   0  0  0  0  0  2  0  0  0  0  0  0
  -27.8710  -18.9890   20.1940 C   0  0  0  0  0  2  0  0  0  0  0  0
  -29.2850  -19.1000   20.3490 O   0  0  0  0  0  0  0  0  0  0  0  0
  -31.1690  -15.9810   19.5190 C   0  0  0  0  0  3  0  0  0  0  0  0
  -31.2540  -16.4040   21.9110 C   0  0  0  0  0  3  0  0  0  0  0  0
  -30.3670  -17.1300   19.3490 C   0  0  0  0  0  3  0  0  0  0  0  0
  -30.4760  -17.5660   21.7320 C   0  0  0  0  0  3  0  0  0  0  0  0
  -31.6150  -15.6040   20.8070 C   0  0  0  0  0  0  0  0  0  0  0  0
  -30.0160  -17.9370   20.4540 C   0  0  0  0  0  0  0  0  0  0  0  0
  -32.7920  -13.5830   20.0650 C   0  0  0  0  0  0  0  0  0  0  0  0
  -31.8860  -11.9470   18.4490 C   0  0  0  0  0  2  0  0  0  0  0  0
  -30.9290  -12.6190   17.4470 C   0  0  0  0  0  2  0  0  0  0  0  0
  -29.4970  -12.7010   18.0100 C   0  0  0  0  0  2  0  0  0  0  0  0
  -29.4490  -13.2560   19.4580 C   0  0  0  0  0  3  0  0  0  0  0  0
  -30.5020  -12.5650   20.3550 C   0  0  0  0  0  2  0  0  0  0  0  0
  -31.8160  -12.7060   19.7070 N   0  0  0  0  0  0  0  0  0  0  0  0
  -33.8870  -13.6350   19.5020 O   0  0  0  0  0  0  0  0  0  0  0  0
  -32.4810  -14.4940   21.0050 N   0  0  0  0  0  0  0  0  0  0  0  0
  -33.2880  -14.7420   21.5610 H   0  0  0  0  0  0  0  0  0  0  0  0
  -27.2250  -14.1600   20.3730 C   0  0  0  0  0  0  0  0  0  0  0  0
  -26.0850  -13.5370   20.7810 C   0  0  0  0  0  0  0  0  0  0  0  0
  -26.3330  -12.1370   20.6460 C   0  0  0  0  0  0  0  0  0  0  0  0
  -28.1120  -13.1550   20.0260 N   0  0  0  0  0  0  0  0  0  0  0  0
  -27.5790  -11.9240   20.2420 N   0  0  0  0  0  0  0  0  0  0  0  0
  -25.4290  -10.9940   20.8140 C   0  0  0  0  0  0  0  0  0  0  0  0
  -25.5890  -10.0800   21.8780 C   0  0  0  0  0  3  0  0  0  0  0  0
  -24.6940   -8.9980   22.0270 C   0  0  0  0  0  3  0  0  0  0  0  0
  -23.6260   -8.8260   21.1140 C   0  0  0  0  0  0  0  0  0  0  0  0
  -23.4880   -9.7310   20.0450 C   0  0  0  0  0  3  0  0  0  0  0  0
  -24.3800  -10.8030   19.8920 C   0  0  0  0  0  3  0  0  0  0  0  0
  -22.7250   -7.7900   21.1700 O   0  0  0  0  0  0  0  0  0  0  0  0
  -22.1860   -7.3700   22.3600 C   0  0  0  0  0  0  0  0  0  0  0  0
  -21.3910   -8.2160   23.1630 C   0  0  0  0  0  3  0  0  0  0  0  0
  -20.8020   -7.7160   24.3420 C   0  0  0  0  0  3  0  0  0  0  0  0
  -20.9990   -6.3750   24.7160 C   0  0  0  0  0  0  0  0  0  0  0  0
  -21.7860   -5.5280   23.9130 C   0  0  0  0  0  3  0  0  0  0  0  0
  -22.3740   -6.0240   22.7350 C   0  0  0  0  0  0  0  0  0  0  0  0
  -23.1120   -5.2010   21.9540 F   0  0  0  0  0  0  0  0  0  0  0  0
  -20.4270   -5.8900   25.8430 F   0  0  0  0  0  0  0  0  0  0  0  0
  -24.8000  -14.2050   21.1730 C   0  0  0  0  0  0  0  0  0  0  0  0
  -24.0420  -13.6150   22.0860 N   0  0  0  0  0  0  0  0  0  0  0  0
  -24.4760  -15.2930   20.6930 O   0  0  0  0  0  0  0  0  0  0  0  0
  -24.3120  -12.7440   22.5230 H   0  0  0  0  0  0  0  0  0  0  0  0
  -23.1820  -14.0620   22.3690 H   0  0  0  0  0  0  0  0  0  0  0  0
  -27.5520  -15.5040   20.2520 N   0  0  0  0  0  0  0  0  0  0  0  0
  -26.8500  -16.2010   20.4680 H   0  0  0  0  0  0  0  0  0  0  0  0
  -28.4530  -15.8950   20.0160 H   0  0  0  0  0  0  0  0  0  0  0  0
  -27.6540  -23.6730   16.1950 C   0  0  0  0  0  2  0  0  0  0  0  0
  -27.8110  -25.2080   16.2960 C   0  0  0  0  0  2  0  0  0  0  0  0
  -29.1300  -25.6600   16.9580 C   0  0  0  0  0  2  0  0  0  0  0  0
  -28.9510  -26.7920   17.9880 C   0  0  0  0  0  2  0  0  0  0  0  0
  -28.9390  -26.2670   19.4360 C   0  0  0  0  0  2  0  0  0  0  0  0
  -28.7500  -27.3330   20.3560 O   0  0  0  0  0  0  0  0  0  0  0  0
  -24.8010  -32.0700   23.8470 C   0  0  0  0  0  0  0  0  0  0  0  0
  -27.5410  -27.9940   20.3880 C   0  0  0  0  0  0  0  0  0  0  0  0
  -23.6310  -30.8160   22.0690 C   0  0  0  0  0  3  0  0  0  0  0  0
  -25.1200  -29.4530   20.5130 C   0  0  0  0  0  0  0  0  0  0  0  0
  -26.1520  -31.2300   21.9300 C   0  0  0  0  0  2  0  0  0  0  0  0
  -26.2620  -29.9260   21.1700 C   0  0  0  0  0  0  0  0  0  0  0  0
  -27.4690  -29.1990   21.1200 C   0  0  0  0  0  3  0  0  0  0  0  0
  -26.3790  -27.5360   19.7210 C   0  0  0  0  0  3  0  0  0  0  0  0
  -25.1780  -28.2590   19.7780 C   0  0  0  0  0  3  0  0  0  0  0  0
  -23.8540  -30.2720   20.6310 C   0  0  0  0  0  2  0  0  0  0  0  0
  -24.8800  -31.3780   22.6770 N   0  0  0  0  0  0  0  0  0  0  0  0
  -23.7120  -32.2760   24.4000 O   0  0  0  0  0  0  0  0  0  0  0  0
  -22.9820  -29.6970   22.9140 C   0  0  0  0  0  0  0  0  0  0  0  0
  -21.6800  -29.4560   22.6880 N   0  0  0  0  0  0  0  0  0  0  0  0
  -23.6510  -29.0480   23.7230 O   0  0  0  0  0  0  0  0  0  0  0  0
  -21.2020  -30.0270   22.0040 H   0  0  0  0  0  0  0  0  0  0  0  0
  -18.3710  -28.0230   22.8230 C   0  0  0  0  0  0  0  0  0  0  0  0
  -20.8710  -28.4320   23.3410 C   0  0  0  0  0  3  0  0  0  0  0  0
  -21.1240  -27.0400   22.7190 C   0  0  0  0  0  2  0  0  0  0  0  0
  -20.1420  -26.6930   21.5950 C   0  0  0  0  0  2  0  0  0  0  0  0
  -18.7000  -26.7220   22.1110 C   0  0  0  0  0  2  0  0  0  0  0  0
  -19.3920  -28.8350   23.3860 C   0  0  0  0  0  0  0  0  0  0  0  0
  -19.0370  -30.0590   23.9970 C   0  0  0  0  0  3  0  0  0  0  0  0
  -17.6920  -30.4700   24.0560 C   0  0  0  0  0  3  0  0  0  0  0  0
  -16.6830  -29.6520   23.5160 C   0  0  0  0  0  3  0  0  0  0  0  0
  -17.0230  -28.4300   22.9060 C   0  0  0  0  0  3  0  0  0  0  0  0
  -26.0740  -32.6550   24.5370 C   0  0  0  0  0  3  0  0  0  0  0  0
  -26.4810  -31.8750   25.8450 C   0  0  1  0  0  0  0  0  0  0  0  0
  -25.3100  -31.6710   26.8350 C   0  0  0  0  0  1  0  0  0  0  0  0
  -27.0500  -30.4800   25.4910 C   0  0  0  0  0  1  0  0  0  0  0  0
  -27.6080  -32.6350   26.5820 C   0  0  0  0  0  1  0  0  0  0  0  0
  -25.8090  -34.0680   24.8320 N   0  0  0  0  0  0  0  0  0  0  0  0
  -26.2540  -35.0930   24.0940 C   0  0  0  0  0  0  0  0  0  0  0  0
  -27.0040  -34.9480   23.1230 O   0  0  0  0  0  0  0  0  0  0  0  0
  -25.1670  -34.2600   25.5870 H   0  0  0  0  0  0  0  0  0  0  0  0
  -24.6660  -36.9630   23.5600 C   0  0  0  0  0  1  0  0  0  0  0  0
  -25.7950  -36.5060   24.4960 C   0  0  0  0  0  3  0  0  0  0  0  0
  -27.8730  -37.2840   25.5490 C   0  0  0  0  0  1  0  0  0  0  0  0
  -26.8890  -37.5040   24.4920 N   0  0  0  0  0  0  0  0  0  0  0  0
  -26.5170  -38.4450   24.5960 H   0  0  0  0  0  0  0  0  0  0  0  0
  1  3  1  0
  1  4  2  0
  2  3  1  0
  3  5  1  0
  6  5  1  0
  6  7  1  0
  7  8  1  0
  8 14  1  0
  9 13  1  0
 11  9  2  0
 11 14  1  0
 12 10  1  0
 13 23  1  0
 13 10  2  0
 14 12  2  0
 15 23  1  0
 16 21  1  0
 17 18  1  0
 17 16  1  0
 19 18  1  0
 19 28  1  0
 19 20  1  0
 21 15  1  0
 21 20  1  0
 22 15  2  0
 23 24  1  0
 25 26  2  0
 26 45  1  0
 27 26  1  0
 27 30  1  0
 28 29  1  0
 28 25  1  0
 29 27  2  0
 30 31  1  0
 31 32  2  0
 33 36  1  0
 33 32  1  0
 34 33  2  0
 35 34  1  0
 35 30  2  0
 36 37  1  0
 37 42  2  0
 37 38  1  0
 38 39  2  0
 39 40  1  0
 40 44  1  0
 41 40  2  0
 42 41  1  0
 43 42  1  0
 45 46  1  0
 46 49  1  0
 46 48  1  0
 47 45  2  0
 50 25  1  0
 50 51  1  0
 52 50  1  0
 53 54  1  0
 53  1  1  0
 54 55  1  0
 55 56  1  0
 56 57  1  0
 57 58  1  0
 58 60  1  0
 59 70  2  0
 60 65  1  0
 61 69  1  0
 61 71  1  0
 62 68  1  0
 62 64  1  0
 63 69  1  0
 64 63  1  0
 65 64  2  0
 66 67  1  0
 66 60  2  0
 67 62  2  0
 68 61  1  0
 69 59  1  0
 71 73  2  0
 72 71  1  0
 74 72  1  0
 75 84  2  0
 75 80  1  0
 76 72  1  0
 76 80  1  0
 77 76  1  0
 78 79  1  0
 78 77  1  0
 79 75  1  0
 80 81  2  0
 81 82  1  0
 83 82  2  0
 84 83  1  0
 85 59  1  0
 85 90  1  0
 85 86  1  0
 86 89  1  1
 86 87  1  0
 88 86  1  0
 90 93  1  0
 91 95  1  0
 91 90  1  0
 92 91  2  0
 95 94  1  0
 97 95  1  0
 97 98  1  0
 97 96  1  0
M  ISO  4  15 100  23 100  57 101  58 101
M  END
>  <TORSDO>  (36) 
F 26

>  <SCORE>  (36) 
-7.015

>  <name>  (36) 
35

>  <ligand_id>  (36) 
35

>  <original_smiles>  (36) 
[H]c1c([H])c([H])c2c(c1[H])C([H])([H])C([H])([H])C([H])([H])C2([H])N([H])C(=O)C1([H])N(C(=O)C([H])(N([H])C(=O)C([H])(N([H])C([H])([H])[H])C([H])([H])[H])C(C([H])([H])[H])(C([H])([H])[H])C([H])([H])[H])C([H])([H])c2c([H])c(OC([H])([H])C([H])([H])C([H])([H])C([H])([H])C([H])([H])C(=O)N(C([H])([H])[H])C([H])([H])C([H])([H])C([H])([H])Oc3c([H])c([H])c(N([H])C(=O)N4C([H])([H])C([H])([H])C([H])([H])C([H])(n5nc(-c6c([H])c([H])c(Oc7c([H])c([H])c(F)c([H])c7F)c([H])c6[H])c(C(=O)N([H])[H])c5N([H])[H])C4([H])[H])c([H])c3[H])c([H])c([H])c2C1([H])[H]

>  <smiles>  (36) 
[H]c1c([H])c([H])c2c(c1[H])C([H])([H])C([H])([H])C([H])([H])C2([H])N([H])C(=O)C1([H])N(C(=O)C([H])(N([H])C(=O)C([H])(N([H])C([H])([H])[H])C([H])([H])[H])C(C([H])([H])[H])(C([H])([H])[H])C([H])([H])[H])C([H])([H])c2c([H])c(OC([H])([H])C([H])([H])C([H])([H])C([H])([H])C([H])([H])C(=O)N(C([H])([H])[H])C([H])([H])C([H])([H])C([H])([H])Oc3c([H])c([H])c(N([H])C(=O)N4C([H])([H])C([H])([H])C([H])([H])C([H])(n5nc(-c6c([H])c([H])c(Oc7c([H])c([H])c(F)c([H])c7F)c([H])c6[H])c(C(=O)N([H])[H])c5N([H])[H])C4([H])[H])c([H])c3[H])c([H])c([H])c2C1([H])[H]

$$$$
36:0:0
     RDKit          3D

 91 99  0  0  1  0  0  0  0  0999 V2000
  -29.0220  -22.5110   20.2550 C   0  0  0  0  0  0  0  0  0  0  0  0
  -31.3510  -22.1180   20.8620 C   0  0  0  0  0  1  0  0  0  0  0  0
  -30.0260  -21.5870   20.5050 N   0  0  0  0  0  0  0  0  0  0  0  0
  -27.8930  -22.1540   19.9020 O   0  0  0  0  0  0  0  0  0  0  0  0
  -28.7800  -17.9390   20.7960 C   0  0  0  0  0  3  0  0  0  0  0  0
  -31.0690  -17.8980   20.0660 C   0  0  0  0  0  3  0  0  0  0  0  0
  -28.7810  -19.3670   20.7710 C   0  0  0  0  0  3  0  0  0  0  0  0
  -31.0680  -19.3240   20.0440 C   0  0  0  0  0  3  0  0  0  0  0  0
  -29.9210  -17.1600   20.4570 C   0  0  0  0  0  0  0  0  0  0  0  0
  -29.9350  -20.1130   20.4120 C   0  0  0  0  0  0  0  0  0  0  0  0
  -30.6030  -14.6790   20.0510 C   0  0  0  0  0  0  0  0  0  0  0  0
  -30.3220  -12.4830   18.9200 C   0  0  0  0  0  2  0  0  0  0  0  0
  -29.3040  -12.6610   17.7720 C   0  0  0  0  0  2  0  0  0  0  0  0
  -27.8590  -12.4900   18.2840 C   0  0  0  0  0  2  0  0  0  0  0  0
  -27.5840  -13.3070   19.5740 C   0  0  0  0  0  3  0  0  0  0  0  0
  -28.7080  -13.1000   20.6160 C   0  0  0  0  0  2  0  0  0  0  0  0
  -29.9820  -13.4590   19.9740 N   0  0  0  0  0  0  0  0  0  0  0  0
  -31.7310  -14.8540   19.5800 O   0  0  0  0  0  0  0  0  0  0  0  0
  -29.8310  -15.7020   20.5340 N   0  0  0  0  0  0  0  0  0  0  0  0
  -28.9630  -15.3640   20.9220 H   0  0  0  0  0  0  0  0  0  0  0  0
  -25.2390  -13.8900   20.4510 C   0  0  0  0  0  0  0  0  0  0  0  0
  -24.1930  -13.1080   20.8620 C   0  0  0  0  0  0  0  0  0  0  0  0
  -24.6480  -11.7570   20.7630 C   0  0  0  0  0  0  0  0  0  0  0  0
  -26.2650  -13.0150   20.1290 N   0  0  0  0  0  0  0  0  0  0  0  0
  -25.9170  -11.7260   20.3750 N   0  0  0  0  0  0  0  0  0  0  0  0
  -23.9300  -10.4920   20.9580 C   0  0  0  0  0  0  0  0  0  0  0  0
  -24.3800   -9.5230   21.8820 C   0  0  0  0  0  3  0  0  0  0  0  0
  -23.6630   -8.3210   22.0660 C   0  0  0  0  0  3  0  0  0  0  0  0
  -22.4810   -8.0800   21.3260 C   0  0  0  0  0  0  0  0  0  0  0  0
  -22.0500   -9.0380   20.3910 C   0  0  0  0  0  3  0  0  0  0  0  0
  -22.7680  -10.2310   20.2050 C   0  0  0  0  0  3  0  0  0  0  0  0
  -21.7340   -6.9310   21.4200 O   0  0  0  0  0  0  0  0  0  0  0  0
  -21.6550   -6.2160   22.5890 C   0  0  0  0  0  0  0  0  0  0  0  0
  -21.1680   -6.7920   23.7820 C   0  0  0  0  0  3  0  0  0  0  0  0
  -21.0400   -6.0030   24.9420 C   0  0  0  0  0  3  0  0  0  0  0  0
  -21.3870   -4.6390   24.9090 C   0  0  0  0  0  0  0  0  0  0  0  0
  -21.8680   -4.0640   23.7200 C   0  0  0  0  0  3  0  0  0  0  0  0
  -21.9980   -4.8490   22.5620 C   0  0  0  0  0  0  0  0  0  0  0  0
  -22.4410   -4.2850   21.4130 F   0  0  0  0  0  0  0  0  0  0  0  0
  -21.2560   -3.8790   26.0220 F   0  0  0  0  0  0  0  0  0  0  0  0
  -22.8160  -13.5790   21.2320 C   0  0  0  0  0  0  0  0  0  0  0  0
  -22.1430  -12.8620   22.1240 N   0  0  0  0  0  0  0  0  0  0  0  0
  -22.3500  -14.6190   20.7670 O   0  0  0  0  0  0  0  0  0  0  0  0
  -22.5350  -12.0210   22.5200 H   0  0  0  0  0  0  0  0  0  0  0  0
  -21.2220  -13.1580   22.4150 H   0  0  0  0  0  0  0  0  0  0  0  0
  -25.3960  -15.2660   20.3030 N   0  0  0  0  0  0  0  0  0  0  0  0
  -24.6320  -15.9120   20.4640 H   0  0  0  0  0  0  0  0  0  0  0  0
  -26.2120  -15.7100   19.9020 H   0  0  0  0  0  0  0  0  0  0  0  0
  -29.2820  -24.0740   20.4040 C   0  0  0  0  0  3  0  0  0  0  0  0
  -28.1320  -25.0840   19.9880 C   0  0  0  0  0  3  0  0  0  0  0  0
  -28.3280  -26.5320   20.2280 O   0  0  0  0  0  0  0  0  0  0  0  0
  -24.5840  -31.8830   23.2820 C   0  0  0  0  0  0  0  0  0  0  0  0
  -27.2010  -27.3670   20.1790 C   0  0  0  0  0  0  0  0  0  0  0  0
  -23.3800  -30.4990   21.6290 C   0  0  0  0  0  3  0  0  0  0  0  0
  -24.8300  -28.9660   20.1870 C   0  0  0  0  0  0  0  0  0  0  0  0
  -25.9180  -30.8250   21.4480 C   0  0  0  0  0  2  0  0  0  0  0  0
  -25.9990  -29.4540   20.7860 C   0  0  0  0  0  0  0  0  0  0  0  0
  -27.1870  -28.6670   20.7720 C   0  0  0  0  0  3  0  0  0  0  0  0
  -26.0080  -26.9320   19.5550 C   0  0  0  0  0  3  0  0  0  0  0  0
  -24.8360  -27.7100   19.5650 C   0  0  0  0  0  3  0  0  0  0  0  0
  -23.5930  -29.8380   20.2420 C   0  0  0  0  0  2  0  0  0  0  0  0
  -24.6460  -31.0850   22.1760 N   0  0  0  0  0  0  0  0  0  0  0  0
  -23.5010  -32.1560   23.8190 O   0  0  0  0  0  0  0  0  0  0  0  0
  -22.7180  -29.4720   22.5780 C   0  0  0  0  0  0  0  0  0  0  0  0
  -21.3930  -29.2920   22.4450 N   0  0  0  0  0  0  0  0  0  0  0  0
  -23.3960  -28.8420   23.3950 O   0  0  0  0  0  0  0  0  0  0  0  0
  -20.9070  -29.8530   21.7600 H   0  0  0  0  0  0  0  0  0  0  0  0
  -18.0150  -28.0970   22.9340 C   0  0  0  0  0  0  0  0  0  0  0  0
  -20.5730  -28.3480   23.2060 C   0  0  0  0  0  3  0  0  0  0  0  0
  -20.6730  -26.9220   22.6170 C   0  0  0  0  0  2  0  0  0  0  0  0
  -19.5690  -26.6120   21.5990 C   0  0  0  0  0  2  0  0  0  0  0  0
  -18.1880  -26.7530   22.2440 C   0  0  0  0  0  2  0  0  0  0  0  0
  -19.1350  -28.8520   23.3710 C   0  0  0  0  0  0  0  0  0  0  0  0
  -18.9190  -30.1100   23.9740 C   0  0  0  0  0  3  0  0  0  0  0  0
  -17.6150  -30.6120   24.1460 C   0  0  0  0  0  3  0  0  0  0  0  0
  -16.5090  -29.8530   23.7250 C   0  0  0  0  0  3  0  0  0  0  0  0
  -16.7100  -28.5980   23.1240 C   0  0  0  0  0  3  0  0  0  0  0  0
  -25.8670  -32.5080   23.9090 C   0  0  0  0  0  3  0  0  0  0  0  0
  -26.3720  -31.7370   25.1900 C   0  0  1  0  0  0  0  0  0  0  0  0
  -25.2710  -31.5030   26.2500 C   0  0  0  0  0  1  0  0  0  0  0  0
  -26.9550  -30.3580   24.8040 C   0  0  0  0  0  1  0  0  0  0  0  0
  -27.5210  -32.5290   25.8590 C   0  0  0  0  0  1  0  0  0  0  0  0
  -25.5640  -33.9080   24.2360 N   0  0  0  0  0  0  0  0  0  0  0  0
  -25.8770  -34.9570   23.4630 C   0  0  0  0  0  0  0  0  0  0  0  0
  -26.5230  -34.8460   22.4170 O   0  0  0  0  0  0  0  0  0  0  0  0
  -24.9900  -34.0690   25.0510 H   0  0  0  0  0  0  0  0  0  0  0  0
  -24.1260  -36.7340   23.1520 C   0  0  0  0  0  1  0  0  0  0  0  0
  -25.3990  -36.3480   23.9210 C   0  0  0  0  0  3  0  0  0  0  0  0
  -27.5540  -37.2590   24.6650 C   0  0  0  0  0  1  0  0  0  0  0  0
  -26.4210  -37.4050   23.7560 N   0  0  0  0  0  0  0  0  0  0  0  0
  -26.0130  -38.3250   23.9030 H   0  0  0  0  0  0  0  0  0  0  0  0
  1 49  1  0
  1  3  1  0
  3  2  1  0
  4  1  2  0
  6  9  1  0
  7  5  1  0
  8  6  2  0
  8 10  1  0
  9 19  1  0
  9  5  2  0
 10  3  1  0
 10  7  2  0
 11 19  1  0
 12 17  1  0
 13 14  1  0
 13 12  1  0
 15 14  1  0
 15 24  1  0
 15 16  1  0
 17 11  1  0
 17 16  1  0
 18 11  2  0
 19 20  1  0
 21 22  2  0
 22 41  1  0
 23 22  1  0
 23 26  1  0
 24 25  1  0
 24 21  1  0
 25 23  2  0
 26 27  1  0
 27 28  2  0
 29 32  1  0
 29 28  1  0
 30 29  2  0
 31 30  1  0
 31 26  2  0
 32 33  1  0
 33 34  1  0
 34 35  2  0
 36 35  1  0
 36 40  1  0
 37 36  2  0
 38 33  2  0
 38 37  1  0
 39 38  1  0
 41 42  1  0
 42 45  1  0
 42 44  1  0
 43 41  2  0
 46 21  1  0
 46 47  1  0
 48 46  1  0
 50 51  1  0
 50 49  2  0
 52 63  2  0
 53 51  1  0
 53 58  1  0
 54 62  1  0
 54 64  1  0
 55 61  1  0
 55 57  1  0
 56 62  1  0
 57 56  1  0
 58 57  2  0
 59 60  1  0
 59 53  2  0
 60 55  2  0
 61 54  1  0
 62 52  1  0
 64 66  2  0
 65 64  1  0
 67 65  1  0
 68 77  2  0
 68 73  1  0
 69 65  1  0
 69 73  1  0
 70 69  1  0
 71 72  1  0
 71 70  1  0
 72 68  1  0
 73 74  2  0
 74 75  1  0
 76 75  2  0
 77 76  1  0
 78 52  1  0
 78 83  1  0
 78 79  1  0
 79 82  1  1
 79 80  1  0
 81 79  1  0
 83 86  1  0
 84 88  1  0
 84 83  1  0
 85 84  2  0
 88 87  1  0
 90 91  1  0
 90 88  1  0
 90 89  1  0
M  ISO  4  11 100  19 100  50 101  51 101
M  END
>  <TORSDO>  (37) 
F 19

>  <SCORE>  (37) 
-14.073

>  <name>  (37) 
36

>  <ligand_id>  (37) 
36

>  <original_smiles>  (37) 
[H]c1c([H])c([H])c2c(c1[H])C([H])([H])C([H])([H])C([H])([H])C2([H])N([H])C(=O)C1([H])N(C(=O)C([H])(N([H])C(=O)C([H])(N([H])C([H])([H])[H])C([H])([H])[H])C(C([H])([H])[H])(C([H])([H])[H])C([H])([H])[H])C([H])([H])c2c([H])c(OC([H])([H])C([H])([H])C(=O)N(c3c([H])c([H])c(N([H])C(=O)N4C([H])([H])C([H])([H])C([H])([H])C([H])(n5nc(-c6c([H])c([H])c(Oc7c([H])c([H])c(F)c([H])c7F)c([H])c6[H])c(C(=O)N([H])[H])c5N([H])[H])C4([H])[H])c([H])c3[H])C([H])([H])[H])c([H])c([H])c2C1([H])[H]

>  <smiles>  (37) 
[H]c1c([H])c([H])c2c(c1[H])C([H])([H])C([H])([H])C([H])([H])C2([H])N([H])C(=O)C1([H])N(C(=O)C([H])(N([H])C(=O)C([H])(N([H])C([H])([H])[H])C([H])([H])[H])C(C([H])([H])[H])(C([H])([H])[H])C([H])([H])[H])C([H])([H])c2c([H])c(OC([H])([H])C([H])([H])C(=O)N(c3c([H])c([H])c(N([H])C(=O)N4C([H])([H])C([H])([H])C([H])([H])C([H])(n5nc(-c6c([H])c([H])c(Oc7c([H])c([H])c(F)c([H])c7F)c([H])c6[H])c(C(=O)N([H])[H])c5N([H])[H])C4([H])[H])c([H])c3[H])C([H])([H])[H])c([H])c([H])c2C1([H])[H]

$$$$
37:0:0
     RDKit          3D

 93100  0  0  1  0  0  0  0  0999 V2000
  -30.9140  -25.2560   23.7440 C   0  0  0  0  0  0  0  0  0  0  0  0
  -30.3080  -24.1720   24.2390 N   0  0  0  0  0  0  0  0  0  0  0  0
  -32.1210  -25.4670   23.8760 O   0  0  0  0  0  0  0  0  0  0  0  0
  -29.3060  -24.1040   24.1130 H   0  0  0  0  0  0  0  0  0  0  0  0
  -30.9750  -22.9990   24.7970 C   0  0  0  0  0  2  0  0  0  0  0  0
  -31.5030  -22.0730   23.6840 C   0  0  0  0  0  2  0  0  0  0  0  0
  -30.5540  -21.9490   22.4760 C   0  0  0  0  0  2  0  0  0  0  0  0
  -31.2100  -21.2540   21.2750 C   0  0  0  0  0  2  0  0  0  0  0  0
  -30.4090  -21.4470   19.9780 C   0  0  0  0  0  2  0  0  0  0  0  0
  -31.2130  -21.0370   18.7360 C   0  0  0  0  0  2  0  0  0  0  0  0
  -30.4650  -21.2940   17.4200 C   0  0  0  0  0  2  0  0  0  0  0  0
  -31.3900  -21.1180   16.2070 C   0  0  0  0  0  2  0  0  0  0  0  0
  -30.6710  -21.2500   14.8470 C   0  0  0  0  0  2  0  0  0  0  0  0
  -31.6360  -21.2000   13.6490 C   0  0  0  0  0  0  0  0  0  0  0  0
  -32.0150  -20.9690   11.2180 C   0  0  0  0  0  2  0  0  0  0  0  0
  -31.9370  -22.3260   10.4980 C   0  0  0  0  0  2  0  0  0  0  0  0
  -30.4810  -22.6560   10.1210 C   0  0  0  0  0  2  0  0  0  0  0  0
  -29.5060  -22.4890   11.3170 C   0  0  0  0  0  3  0  0  0  0  0  0
  -29.7220  -21.1300   12.0220 C   0  0  0  0  0  2  0  0  0  0  0  0
  -31.1410  -21.0250   12.3980 N   0  0  0  0  0  0  0  0  0  0  0  0
  -32.8480  -21.3060   13.8650 O   0  0  0  0  0  0  0  0  0  0  0  0
  -27.1700  -23.5760   11.3470 C   0  0  0  0  0  0  0  0  0  0  0  0
  -26.0560  -23.3710   10.5770 C   0  0  0  0  0  0  0  0  0  0  0  0
  -26.3940  -22.3220    9.6670 C   0  0  0  0  0  0  0  0  0  0  0  0
  -28.1160  -22.6670   10.8970 N   0  0  0  0  0  0  0  0  0  0  0  0
  -27.6200  -21.8760    9.9120 N   0  0  0  0  0  0  0  0  0  0  0  0
  -25.6420  -21.7560    8.5390 C   0  0  0  0  0  0  0  0  0  0  0  0
  -25.3920  -20.3690    8.4410 C   0  0  0  0  0  3  0  0  0  0  0  0
  -24.6510  -19.8500    7.3580 C   0  0  0  0  0  3  0  0  0  0  0  0
  -24.1500  -20.7200    6.3590 C   0  0  0  0  0  0  0  0  0  0  0  0
  -24.4210  -22.0960    6.4500 C   0  0  0  0  0  3  0  0  0  0  0  0
  -25.1630  -22.6110    7.5260 C   0  0  0  0  0  3  0  0  0  0  0  0
  -23.4430  -20.3030    5.2580 O   0  0  0  0  0  0  0  0  0  0  0  0
  -22.6690  -19.1700    5.2850 C   0  0  0  0  0  0  0  0  0  0  0  0
  -21.6050  -19.0160    6.2000 C   0  0  0  0  0  3  0  0  0  0  0  0
  -20.7930  -17.8660    6.1470 C   0  0  0  0  0  3  0  0  0  0  0  0
  -21.0350  -16.8740    5.1770 C   0  0  0  0  0  0  0  0  0  0  0  0
  -22.0920  -17.0290    4.2620 C   0  0  0  0  0  3  0  0  0  0  0  0
  -22.9040  -18.1750    4.3140 C   0  0  0  0  0  0  0  0  0  0  0  0
  -23.9070  -18.3290    3.4160 F   0  0  0  0  0  0  0  0  0  0  0  0
  -20.2510  -15.7730    5.1210 F   0  0  0  0  0  0  0  0  0  0  0  0
  -24.7810  -24.1620   10.6170 C   0  0  0  0  0  0  0  0  0  0  0  0
  -23.6560  -23.5300   10.3040 N   0  0  0  0  0  0  0  0  0  0  0  0
  -24.7710  -25.3390   10.9740 O   0  0  0  0  0  0  0  0  0  0  0  0
  -23.6620  -22.5580   10.0300 H   0  0  0  0  0  0  0  0  0  0  0  0
  -22.7750  -24.0230   10.3390 H   0  0  0  0  0  0  0  0  0  0  0  0
  -27.4640  -24.4680   12.3730 N   0  0  0  0  0  0  0  0  0  0  0  0
  -26.8060  -25.1740   12.6840 H   0  0  0  0  0  0  0  0  0  0  0  0
  -28.3600  -24.5280   12.8420 H   0  0  0  0  0  0  0  0  0  0  0  0
  -30.0190  -26.2070   22.9480 C   0  0  0  0  0  2  0  0  0  0  0  0
  -30.6330  -27.5930   22.6730 C   0  0  0  0  0  2  0  0  0  0  0  0
  -29.9480  -28.2820   21.4860 C   0  0  0  0  0  2  0  0  0  0  0  0
  -29.6380  -29.6310   21.8160 O   0  0  0  0  0  0  0  0  0  0  0  0
  -24.6130  -28.1920   26.6160 C   0  0  0  0  0  0  0  0  0  0  0  0
  -28.3350  -29.7930   22.1980 C   0  0  0  0  0  0  0  0  0  0  0  0
  -23.8220  -29.1640   24.4810 C   0  0  0  0  0  3  0  0  0  0  0  0
  -25.6390  -30.0890   22.9480 C   0  0  0  0  0  0  0  0  0  0  0  0
  -26.1680  -29.6710   25.3580 C   0  0  0  0  0  2  0  0  0  0  0  0
  -26.6100  -29.8100   23.9190 C   0  0  0  0  0  0  0  0  0  0  0  0
  -27.9620  -29.6610   23.5500 C   0  0  0  0  0  3  0  0  0  0  0  0
  -27.3560  -30.0720   21.2250 C   0  0  0  0  0  3  0  0  0  0  0  0
  -26.0050  -30.2190   21.5950 C   0  0  0  0  0  3  0  0  0  0  0  0
  -24.2150  -30.2410   23.4330 C   0  0  0  0  0  2  0  0  0  0  0  0
  -24.8810  -28.9590   25.5230 N   0  0  0  0  0  0  0  0  0  0  0  0
  -23.4910  -27.6940   26.7890 O   0  0  0  0  0  0  0  0  0  0  0  0
  -23.4400  -27.8680   23.7330 C   0  0  0  0  0  0  0  0  0  0  0  0
  -22.3050  -27.9050   23.0180 N   0  0  0  0  0  0  0  0  0  0  0  0
  -24.1680  -26.8720   23.7810 O   0  0  0  0  0  0  0  0  0  0  0  0
  -21.7620  -28.7560   23.0360 H   0  0  0  0  0  0  0  0  0  0  0  0
  -19.7060  -27.0480   20.6610 C   0  0  0  0  0  0  0  0  0  0  0  0
  -21.7660  -26.8170   22.2030 C   0  0  0  0  0  3  0  0  0  0  0  0
  -22.5890  -26.6340   20.9060 C   0  0  0  0  0  2  0  0  0  0  0  0
  -22.0240  -27.4180   19.7180 C   0  0  0  0  0  2  0  0  0  0  0  0
  -20.5850  -26.9860   19.4240 C   0  0  0  0  0  2  0  0  0  0  0  0
  -20.2620  -26.9840   21.9660 C   0  0  0  0  0  0  0  0  0  0  0  0
  -19.4040  -27.0830   23.0830 C   0  0  0  0  0  3  0  0  0  0  0  0
  -18.0150  -27.2390   22.9120 C   0  0  0  0  0  3  0  0  0  0  0  0
  -17.4680  -27.2850   21.6180 C   0  0  0  0  0  3  0  0  0  0  0  0
  -18.3110  -27.1850   20.4980 C   0  0  0  0  0  3  0  0  0  0  0  0
  -25.6910  -27.9230   27.7130 C   0  0  0  0  0  3  0  0  0  0  0  0
  -26.6360  -26.7050   27.3710 C   0  0  1  0  0  0  0  0  0  0  0  0
  -25.8730  -25.4140   26.9960 C   0  0  0  0  0  1  0  0  0  0  0  0
  -27.5760  -27.0580   26.1950 C   0  0  0  0  0  1  0  0  0  0  0  0
  -27.5420  -26.3880   28.5840 C   0  0  0  0  0  1  0  0  0  0  0  0
  -24.9850  -27.6950   28.9800 N   0  0  0  0  0  0  0  0  0  0  0  0
  -24.8740  -28.6010   29.9610 C   0  0  0  0  0  0  0  0  0  0  0  0
  -25.4240  -29.7050   29.9200 O   0  0  0  0  0  0  0  0  0  0  0  0
  -24.4630  -26.8350   29.0590 H   0  0  0  0  0  0  0  0  0  0  0  0
  -22.6370  -28.8970   31.0700 C   0  0  0  0  0  1  0  0  0  0  0  0
  -24.0130  -28.2230   31.1810 C   0  0  0  0  0  3  0  0  0  0  0  0
  -25.8190  -27.7750   32.7840 C   0  0  0  0  0  1  0  0  0  0  0  0
  -24.6390  -28.5770   32.4740 N   0  0  0  0  0  0  0  0  0  0  0  0
  -23.9750  -28.4710   33.2370 H   0  0  0  0  0  0  0  0  0  0  0  0
  1  3  2  0
  1  2  1  0
  2  5  1  0
  4  2  1  0
  6  5  1  0
  7  6  1  0
  8  7  1  0
  9  8  1  0
 10  9  1  0
 11 10  1  0
 12 11  1  0
 13 12  1  0
 14 21  2  0
 14 13  1  0
 15 20  1  0
 16 15  1  0
 17 16  1  0
 18 17  1  0
 18 19  1  0
 19 20  1  0
 20 14  1  0
 22 47  1  0
 23 42  1  0
 23 22  2  0
 24 26  2  0
 24 23  1  0
 25 18  1  0
 25 22  1  0
 26 25  1  0
 27 24  1  0
 28 27  1  0
 29 28  2  0
 30 31  2  0
 30 29  1  0
 31 32  1  0
 32 27  2  0
 33 34  1  0
 33 30  1  0
 34 35  1  0
 36 35  2  0
 37 36  1  0
 38 39  1  0
 38 37  2  0
 39 34  2  0
 40 39  1  0
 41 37  1  0
 42 44  2  0
 43 46  1  0
 43 42  1  0
 45 43  1  0
 47 48  1  0
 47 49  1  0
 50  1  1  0
 51 50  1  0
 52 53  1  0
 52 51  1  0
 53 55  1  0
 54 65  2  0
 55 60  1  0
 56 66  1  0
 56 64  1  0
 57 63  1  0
 57 59  1  0
 58 64  1  0
 59 58  1  0
 60 59  2  0
 61 62  1  0
 61 55  2  0
 62 57  2  0
 63 56  1  0
 64 54  1  0
 66 68  2  0
 67 69  1  0
 67 66  1  0
 70 75  1  0
 71 67  1  0
 72 71  1  0
 73 72  1  0
 74 73  1  0
 74 70  1  0
 75 71  1  0
 75 76  2  0
 77 76  1  0
 78 77  2  0
 79 70  2  0
 79 78  1  0
 80 54  1  0
 80 85  1  0
 81 80  1  0
 81 84  1  1
 82 81  1  0
 83 81  1  0
 85 88  1  0
 85 86  1  0
 86 90  1  0
 87 86  2  0
 90 89  1  0
 90 92  1  0
 92 91  1  0
 92 93  1  0
M  ISO  4  13 100  14 100  52 101  53 101
M  END
>  <TORSDO>  (38) 
F 28

>  <SCORE>  (38) 
3.732

>  <name>  (38) 
37

>  <ligand_id>  (38) 
37

>  <original_smiles>  (38) 
[H]c1c([H])c([H])c2c(c1[H])C([H])([H])C([H])([H])C([H])([H])C2([H])N([H])C(=O)C1([H])N(C(=O)C([H])(N([H])C(=O)C([H])(N([H])C([H])([H])[H])C([H])([H])[H])C(C([H])([H])[H])(C([H])([H])[H])C([H])([H])[H])C([H])([H])c2c([H])c(OC([H])([H])C([H])([H])C([H])([H])C(=O)N([H])C([H])([H])C([H])([H])C([H])([H])C([H])([H])C([H])([H])C([H])([H])C([H])([H])C([H])([H])C([H])([H])C(=O)N3C([H])([H])C([H])([H])C([H])([H])C([H])(n4nc(-c5c([H])c([H])c(Oc6c([H])c([H])c(F)c([H])c6F)c([H])c5[H])c(C(=O)N([H])[H])c4N([H])[H])C3([H])[H])c([H])c([H])c2C1([H])[H]

>  <smiles>  (38) 
[H]c1c([H])c([H])c2c(c1[H])C([H])([H])C([H])([H])C([H])([H])C2([H])N([H])C(=O)C1([H])N(C(=O)C([H])(N([H])C(=O)C([H])(N([H])C([H])([H])[H])C([H])([H])[H])C(C([H])([H])[H])(C([H])([H])[H])C([H])([H])[H])C([H])([H])c2c([H])c(OC([H])([H])C([H])([H])C([H])([H])C(=O)N([H])C([H])([H])C([H])([H])C([H])([H])C([H])([H])C([H])([H])C([H])([H])C([H])([H])C([H])([H])C([H])([H])C(=O)N3C([H])([H])C([H])([H])C([H])([H])C([H])(n4nc(-c5c([H])c([H])c(Oc6c([H])c([H])c(F)c([H])c6F)c([H])c5[H])c(C(=O)N([H])[H])c4N([H])[H])C3([H])[H])c([H])c([H])c2C1([H])[H]

$$$$
38:0:0
     RDKit          3D

 93101  0  0  1  0  0  0  0  0999 V2000
  -28.7210  -21.1860   20.3510 C   0  0  0  0  0  0  0  0  0  0  0  0
  -30.5320  -22.7830   19.6800 C   0  0  0  0  0  1  0  0  0  0  0  0
  -29.1480  -22.5010   20.0820 N   0  0  0  0  0  0  0  0  0  0  0  0
  -27.5120  -20.9520   20.4190 O   0  0  0  0  0  0  0  0  0  0  0  0
  -29.3090  -18.5550   20.3030 C   0  0  0  0  0  3  0  0  0  0  0  0
  -30.9400  -20.1280   21.1710 C   0  0  0  0  0  3  0  0  0  0  0  0
  -31.4410  -17.7270   21.1190 C   0  0  0  0  0  3  0  0  0  0  0  0
  -29.6750  -19.9490   20.5640 C   0  0  0  0  0  0  0  0  0  0  0  0
  -30.1760  -17.4090   20.5750 C   0  0  0  0  0  0  0  0  0  0  0  0
  -31.8300  -19.0520   21.4080 C   0  0  0  0  0  0  0  0  0  0  0  0
  -30.5880  -14.8230   20.2350 C   0  0  0  0  0  0  0  0  0  0  0  0
  -30.3720  -12.5470   19.2110 C   0  0  0  0  0  2  0  0  0  0  0  0
  -29.4080  -12.6080   18.0070 C   0  0  0  0  0  2  0  0  0  0  0  0
  -27.9490  -12.4260   18.4710 C   0  0  0  0  0  2  0  0  0  0  0  0
  -27.5950  -13.3130   19.6940 C   0  0  0  0  0  3  0  0  0  0  0  0
  -28.6770  -13.2410   20.7910 C   0  0  0  0  0  2  0  0  0  0  0  0
  -29.9540  -13.6010   20.1640 N   0  0  0  0  0  0  0  0  0  0  0  0
  -31.7790  -14.8990   19.9200 O   0  0  0  0  0  0  0  0  0  0  0  0
  -29.8080  -15.9700   20.4040 N   0  0  0  0  0  0  0  0  0  0  0  0
  -28.8200  -15.7770   20.4430 H   0  0  0  0  0  0  0  0  0  0  0  0
  -25.2260  -13.8970   20.4790 C   0  0  0  0  0  0  0  0  0  0  0  0
  -24.1700  -13.1180   20.8700 C   0  0  0  0  0  0  0  0  0  0  0  0
  -24.6370  -11.7680   20.8240 C   0  0  0  0  0  0  0  0  0  0  0  0
  -26.2650  -13.0200   20.2150 N   0  0  0  0  0  0  0  0  0  0  0  0
  -25.9210  -11.7350   20.4890 N   0  0  0  0  0  0  0  0  0  0  0  0
  -23.9160  -10.5040   21.0200 C   0  0  0  0  0  0  0  0  0  0  0  0
  -24.3650   -9.5330   21.9430 C   0  0  0  0  0  3  0  0  0  0  0  0
  -23.6430   -8.3350   22.1270 C   0  0  0  0  0  3  0  0  0  0  0  0
  -22.4580   -8.0990   21.3900 C   0  0  0  0  0  0  0  0  0  0  0  0
  -22.0290   -9.0580   20.4550 C   0  0  0  0  0  3  0  0  0  0  0  0
  -22.7520  -10.2470   20.2680 C   0  0  0  0  0  3  0  0  0  0  0  0
  -21.7050   -6.9540   21.4860 O   0  0  0  0  0  0  0  0  0  0  0  0
  -21.6710   -6.2090   22.6380 C   0  0  0  0  0  0  0  0  0  0  0  0
  -21.2440   -6.7570   23.8670 C   0  0  0  0  0  3  0  0  0  0  0  0
  -21.1580   -5.9380   25.0110 C   0  0  0  0  0  3  0  0  0  0  0  0
  -21.4880   -4.5720   24.9250 C   0  0  0  0  0  0  0  0  0  0  0  0
  -21.9060   -4.0230   23.7010 C   0  0  0  0  0  3  0  0  0  0  0  0
  -21.9940   -4.8400   22.5600 C   0  0  0  0  0  0  0  0  0  0  0  0
  -22.3780   -4.3010   21.3770 F   0  0  0  0  0  0  0  0  0  0  0  0
  -21.3970   -3.7830   26.0220 F   0  0  0  0  0  0  0  0  0  0  0  0
  -22.7780  -13.5920   21.1680 C   0  0  0  0  0  0  0  0  0  0  0  0
  -22.0660  -12.8890   22.0400 N   0  0  0  0  0  0  0  0  0  0  0  0
  -22.3310  -14.6210   20.6620 O   0  0  0  0  0  0  0  0  0  0  0  0
  -22.4420  -12.0580   22.4720 H   0  0  0  0  0  0  0  0  0  0  0  0
  -21.1310  -13.1860   22.2790 H   0  0  0  0  0  0  0  0  0  0  0  0
  -25.3800  -15.2690   20.3030 N   0  0  0  0  0  0  0  0  0  0  0  0
  -24.6060  -15.9130   20.4230 H   0  0  0  0  0  0  0  0  0  0  0  0
  -26.2030  -15.7140   19.9170 H   0  0  0  0  0  0  0  0  0  0  0  0
  -33.6540  -20.5180   21.9660 C   0  0  0  0  0  1  0  0  0  0  0  0
  -33.0910  -19.2110   21.9430 O   0  0  0  0  0  0  0  0  0  0  0  0
  -28.2600  -23.7350   19.7990 C   0  0  0  0  0  2  0  0  0  0  0  0
  -28.3260  -25.0620   20.7310 C   0  0  0  0  0  2  0  0  0  0  0  0
  -28.3880  -26.4710   20.2040 O   0  0  0  0  0  0  0  0  0  0  0  0
  -24.6180  -31.9080   23.2380 C   0  0  0  0  0  0  0  0  0  0  0  0
  -27.2610  -27.3160   20.2230 C   0  0  0  0  0  0  0  0  0  0  0  0
  -23.4310  -30.4980   21.5970 C   0  0  0  0  0  3  0  0  0  0  0  0
  -24.8950  -28.9390   20.1870 C   0  0  0  0  0  0  0  0  0  0  0  0
  -25.9710  -30.8220   21.4220 C   0  0  0  0  0  2  0  0  0  0  0  0
  -26.0610  -29.4360   20.7830 C   0  0  0  0  0  0  0  0  0  0  0  0
  -27.2510  -28.6410   20.7790 C   0  0  0  0  0  3  0  0  0  0  0  0
  -26.0710  -26.8730   19.6150 C   0  0  0  0  0  3  0  0  0  0  0  0
  -24.9040  -27.6660   19.5910 C   0  0  0  0  0  3  0  0  0  0  0  0
  -23.6560  -29.8140   20.2220 C   0  0  0  0  0  2  0  0  0  0  0  0
  -24.6920  -31.0960   22.1420 N   0  0  0  0  0  0  0  0  0  0  0  0
  -23.5300  -32.1820   23.7650 O   0  0  0  0  0  0  0  0  0  0  0  0
  -22.7670  -29.4840   22.5590 C   0  0  0  0  0  0  0  0  0  0  0  0
  -21.4420  -29.3020   22.4280 N   0  0  0  0  0  0  0  0  0  0  0  0
  -23.4440  -28.8640   23.3840 O   0  0  0  0  0  0  0  0  0  0  0  0
  -20.9550  -29.8540   21.7370 H   0  0  0  0  0  0  0  0  0  0  0  0
  -18.0660  -28.0970   22.9250 C   0  0  0  0  0  0  0  0  0  0  0  0
  -20.6240  -28.3620   23.1970 C   0  0  0  0  0  3  0  0  0  0  0  0
  -20.7300  -26.9310   22.6210 C   0  0  0  0  0  2  0  0  0  0  0  0
  -19.6290  -26.6060   21.6050 C   0  0  0  0  0  2  0  0  0  0  0  0
  -18.2460  -26.7490   22.2480 C   0  0  0  0  0  2  0  0  0  0  0  0
  -19.1820  -28.8620   23.3560 C   0  0  0  0  0  0  0  0  0  0  0  0
  -18.9600  -30.1230   23.9490 C   0  0  0  0  0  3  0  0  0  0  0  0
  -17.6530  -30.6220   24.1130 C   0  0  0  0  0  3  0  0  0  0  0  0
  -16.5510  -29.8530   23.6980 C   0  0  0  0  0  3  0  0  0  0  0  0
  -16.7580  -28.5940   23.1090 C   0  0  0  0  0  3  0  0  0  0  0  0
  -25.8940  -32.5500   23.8660 C   0  0  0  0  0  3  0  0  0  0  0  0
  -26.4050  -31.7890   25.1500 C   0  0  1  0  0  0  0  0  0  0  0  0
  -25.3060  -31.5520   26.2120 C   0  0  0  0  0  1  0  0  0  0  0  0
  -26.9940  -30.4120   24.7690 C   0  0  0  0  0  1  0  0  0  0  0  0
  -27.5480  -32.5910   25.8160 C   0  0  0  0  0  1  0  0  0  0  0  0
  -25.5750  -33.9500   24.1880 N   0  0  0  0  0  0  0  0  0  0  0  0
  -25.9060  -35.0030   23.4290 C   0  0  0  0  0  0  0  0  0  0  0  0
  -26.5820  -34.8990   22.4010 O   0  0  0  0  0  0  0  0  0  0  0  0
  -24.9750  -34.1030   24.9850 H   0  0  0  0  0  0  0  0  0  0  0  0
  -24.1750  -36.7900   23.0610 C   0  0  0  0  0  1  0  0  0  0  0  0
  -25.4130  -36.3910   23.8810 C   0  0  0  0  0  3  0  0  0  0  0  0
  -27.5370  -37.2870   24.7240 C   0  0  0  0  0  1  0  0  0  0  0  0
  -26.4420  -37.4470   23.7720 N   0  0  0  0  0  0  0  0  0  0  0  0
  -26.0310  -38.3670   23.9130 H   0  0  0  0  0  0  0  0  0  0  0  0
  1  4  2  0
  1  8  1  0
  2  3  1  0
  3  1  1  0
  5  8  2  0
  5  9  1  0
  6 10  2  0
  7 10  1  0
  8  6  1  0
  9  7  2  0
 10 50  1  0
 11 19  1  0
 12 17  1  0
 13 14  1  0
 13 12  1  0
 15 14  1  0
 15 24  1  0
 15 16  1  0
 17 11  1  0
 17 16  1  0
 18 11  2  0
 19 20  1  0
 19  9  1  0
 21 22  2  0
 22 41  1  0
 23 22  1  0
 23 26  1  0
 24 21  1  0
 24 25  1  0
 25 23  2  0
 26 27  1  0
 27 28  2  0
 29 32  1  0
 29 28  1  0
 30 29  2  0
 31 30  1  0
 31 26  2  0
 32 33  1  0
 33 34  1  0
 34 35  2  0
 36 35  1  0
 36 40  1  0
 37 36  2  0
 38 33  2  0
 38 37  1  0
 39 38  1  0
 41 42  1  0
 42 45  1  0
 42 44  1  0
 43 41  2  0
 46 47  1  0
 46 21  1  0
 48 46  1  0
 50 49  1  0
 51  3  1  0
 51 52  1  0
 53 55  1  0
 53 52  1  0
 54 65  2  0
 55 60  1  0
 56 64  1  0
 56 66  1  0
 57 63  1  0
 57 59  1  0
 58 64  1  0
 59 58  1  0
 60 59  2  0
 61 55  2  0
 62 61  1  0
 62 57  2  0
 63 56  1  0
 64 54  1  0
 66 68  2  0
 67 66  1  0
 69 67  1  0
 70 79  2  0
 70 75  1  0
 71 67  1  0
 71 75  1  0
 72 71  1  0
 73 74  1  0
 73 72  1  0
 74 70  1  0
 75 76  2  0
 76 77  1  0
 78 77  2  0
 79 78  1  0
 80 54  1  0
 80 85  1  0
 80 81  1  0
 81 84  1  1
 81 82  1  0
 83 81  1  0
 85 88  1  0
 86 90  1  0
 86 85  1  0
 87 86  2  0
 90 89  1  0
 92 90  1  0
 92 93  1  0
 92 91  1  0
M  ISO  4  11 100  19 100  52 101  53 101
M  END
>  <TORSDO>  (39) 
F 20

>  <SCORE>  (39) 
-14.110

>  <name>  (39) 
38

>  <ligand_id>  (39) 
38

>  <original_smiles>  (39) 
[H]c1c([H])c([H])c2c(c1[H])C([H])([H])C([H])([H])C([H])([H])C2([H])N([H])C(=O)C1([H])N(C(=O)C([H])(N([H])C(=O)C([H])(N([H])C([H])([H])[H])C([H])([H])[H])C(C([H])([H])[H])(C([H])([H])[H])C([H])([H])[H])C([H])([H])c2c([H])c(OC([H])([H])C([H])([H])N(C(=O)c3c([H])c(OC([H])([H])[H])c([H])c(N([H])C(=O)N4C([H])([H])C([H])([H])C([H])([H])C([H])(n5nc(-c6c([H])c([H])c(Oc7c([H])c([H])c(F)c([H])c7F)c([H])c6[H])c(C(=O)N([H])[H])c5N([H])[H])C4([H])[H])c3[H])C([H])([H])[H])c([H])c([H])c2C1([H])[H]

>  <smiles>  (39) 
[H]c1c([H])c([H])c2c(c1[H])C([H])([H])C([H])([H])C([H])([H])C2([H])N([H])C(=O)C1([H])N(C(=O)C([H])(N([H])C(=O)C([H])(N([H])C([H])([H])[H])C([H])([H])[H])C(C([H])([H])[H])(C([H])([H])[H])C([H])([H])[H])C([H])([H])c2c([H])c(OC([H])([H])C([H])([H])N(C(=O)c3c([H])c(OC([H])([H])[H])c([H])c(N([H])C(=O)N4C([H])([H])C([H])([H])C([H])([H])C([H])(n5nc(-c6c([H])c([H])c(Oc7c([H])c([H])c(F)c([H])c7F)c([H])c6[H])c(C(=O)N([H])[H])c5N([H])[H])C4([H])[H])c3[H])C([H])([H])[H])c([H])c([H])c2C1([H])[H]

$$$$
39:0:0
     RDKit          3D

 90 98  0  0  1  0  0  0  0  0999 V2000
  -28.2610  -21.6180   21.0860 C   0  0  0  0  0  3  0  0  0  0  0  0
  -28.1040  -22.7940   20.0730 C   0  0  0  0  0  3  0  0  0  0  0  0
  -28.1500  -24.2290   20.7040 C   0  0  0  0  0  2  0  0  0  0  0  0
  -28.5430  -25.3690   19.7180 C   0  0  0  0  0  2  0  0  0  0  0  0
  -28.4560  -26.7150   20.2430 O   0  0  0  0  0  0  0  0  0  0  0  0
  -24.6090  -31.9120   23.2320 C   0  0  0  0  0  0  0  0  0  0  0  0
  -27.2650  -27.4270   20.2000 C   0  0  0  0  0  0  0  0  0  0  0  0
  -23.4060  -30.4960   21.5970 C   0  0  0  0  0  3  0  0  0  0  0  0
  -24.8670  -28.9470   20.1890 C   0  0  0  0  0  0  0  0  0  0  0  0
  -25.9290  -30.8600   21.3880 C   0  0  0  0  0  2  0  0  0  0  0  0
  -26.0240  -29.4770   20.7700 C   0  0  0  0  0  0  0  0  0  0  0  0
  -27.2270  -28.7270   20.7680 C   0  0  0  0  0  3  0  0  0  0  0  0
  -26.0830  -26.9120   19.6220 C   0  0  0  0  0  3  0  0  0  0  0  0
  -24.8940  -27.6650   19.6110 C   0  0  0  0  0  3  0  0  0  0  0  0
  -23.6200  -29.8040   20.2230 C   0  0  0  0  0  2  0  0  0  0  0  0
  -24.6670  -31.1030   22.1340 N   0  0  0  0  0  0  0  0  0  0  0  0
  -23.5260  -32.1840   23.7700 O   0  0  0  0  0  0  0  0  0  0  0  0
  -22.7510  -29.4820   22.5640 C   0  0  0  0  0  0  0  0  0  0  0  0
  -21.4260  -29.3020   22.4410 N   0  0  0  0  0  0  0  0  0  0  0  0
  -23.4350  -28.8590   23.3810 O   0  0  0  0  0  0  0  0  0  0  0  0
  -20.9310  -29.8660   21.7650 H   0  0  0  0  0  0  0  0  0  0  0  0
  -18.0560  -28.1030   22.9420 C   0  0  0  0  0  0  0  0  0  0  0  0
  -20.6120  -28.3640   23.2150 C   0  0  0  0  0  3  0  0  0  0  0  0
  -20.7160  -26.9300   22.6460 C   0  0  0  0  0  2  0  0  0  0  0  0
  -19.6150  -26.6020   21.6310 C   0  0  0  0  0  2  0  0  0  0  0  0
  -18.2330  -26.7500   22.2750 C   0  0  0  0  0  2  0  0  0  0  0  0
  -19.1730  -28.8670   23.3720 C   0  0  0  0  0  0  0  0  0  0  0  0
  -18.9560  -30.1320   23.9580 C   0  0  0  0  0  3  0  0  0  0  0  0
  -17.6500  -30.6340   24.1170 C   0  0  0  0  0  3  0  0  0  0  0  0
  -16.5460  -29.8670   23.7060 C   0  0  0  0  0  3  0  0  0  0  0  0
  -16.7490  -28.6030   23.1240 C   0  0  0  0  0  3  0  0  0  0  0  0
  -25.8910  -32.5520   23.8520 C   0  0  0  0  0  3  0  0  0  0  0  0
  -25.5830  -33.9530   24.1680 N   0  0  0  0  0  0  0  0  0  0  0  0
  -25.9160  -34.9980   23.3980 C   0  0  0  0  0  0  0  0  0  0  0  0
  -26.5900  -34.8830   22.3700 O   0  0  0  0  0  0  0  0  0  0  0  0
  -24.9930  -34.1170   24.9700 H   0  0  0  0  0  0  0  0  0  0  0  0
  -24.1950  -36.7920   23.0110 C   0  0  0  0  0  1  0  0  0  0  0  0
  -25.4270  -36.3910   23.8380 C   0  0  0  0  0  3  0  0  0  0  0  0
  -27.5590  -37.2830   24.6720 C   0  0  0  0  0  1  0  0  0  0  0  0
  -26.4600  -37.4430   23.7220 N   0  0  0  0  0  0  0  0  0  0  0  0
  -26.0540  -38.3650   23.8600 H   0  0  0  0  0  0  0  0  0  0  0  0
  -26.4040  -31.7930   25.1370 C   0  0  1  0  0  0  0  0  0  0  0  0
  -25.3120  -31.5670   26.2090 C   0  0  0  0  0  1  0  0  0  0  0  0
  -26.9830  -30.4120   24.7520 C   0  0  0  0  0  1  0  0  0  0  0  0
  -27.5520  -32.5920   25.7980 C   0  0  0  0  0  1  0  0  0  0  0  0
  -28.1190  -20.2960   20.5190 O   0  0  0  0  0  0  0  0  0  0  0  0
  -31.6210  -19.1510   19.9750 C   0  0  0  0  0  3  0  0  0  0  0  0
  -31.4870  -17.7550   20.1630 C   0  0  0  0  0  3  0  0  0  0  0  0
  -30.5110  -20.0080   20.0960 C   0  0  0  0  0  3  0  0  0  0  0  0
  -29.1170  -18.0700   20.5680 C   0  0  0  0  0  3  0  0  0  0  0  0
  -30.2230  -17.1770   20.4620 C   0  0  0  0  0  0  0  0  0  0  0  0
  -29.2410  -19.4810   20.4080 C   0  0  0  0  0  0  0  0  0  0  0  0
  -30.6930  -14.6470   20.3060 C   0  0  0  0  0  0  0  0  0  0  0  0
  -30.3530  -12.4180   19.2820 C   0  0  0  0  0  2  0  0  0  0  0  0
  -29.4270  -12.6010   18.0630 C   0  0  0  0  0  2  0  0  0  0  0  0
  -27.9510  -12.4800   18.4860 C   0  0  0  0  0  2  0  0  0  0  0  0
  -27.6060  -13.3160   19.7480 C   0  0  0  0  0  3  0  0  0  0  0  0
  -28.6820  -13.1820   20.8540 C   0  0  0  0  0  2  0  0  0  0  0  0
  -30.0000  -13.4630   20.2590 N   0  0  0  0  0  0  0  0  0  0  0  0
  -31.8460  -14.7330   19.8850 O   0  0  0  0  0  0  0  0  0  0  0  0
  -29.9850  -15.7530   20.6780 N   0  0  0  0  0  0  0  0  0  0  0  0
  -29.0620  -15.5380   21.0170 H   0  0  0  0  0  0  0  0  0  0  0  0
  -25.2150  -13.8910   20.4900 C   0  0  0  0  0  0  0  0  0  0  0  0
  -24.1530  -13.1150   20.8710 C   0  0  0  0  0  0  0  0  0  0  0  0
  -24.6210  -11.7640   20.8310 C   0  0  0  0  0  0  0  0  0  0  0  0
  -26.2620  -13.0200   20.2470 N   0  0  0  0  0  0  0  0  0  0  0  0
  -25.9100  -11.7340   20.5100 N   0  0  0  0  0  0  0  0  0  0  0  0
  -23.8970  -10.5010   21.0240 C   0  0  0  0  0  0  0  0  0  0  0  0
  -24.3400   -9.5250   21.9470 C   0  0  0  0  0  3  0  0  0  0  0  0
  -23.6110   -8.3300   22.1280 C   0  0  0  0  0  3  0  0  0  0  0  0
  -22.4260   -8.1020   21.3870 C   0  0  0  0  0  0  0  0  0  0  0  0
  -22.0050   -9.0620   20.4540 C   0  0  0  0  0  3  0  0  0  0  0  0
  -22.7350  -10.2500   20.2670 C   0  0  0  0  0  3  0  0  0  0  0  0
  -21.6680   -6.9590   21.4770 O   0  0  0  0  0  0  0  0  0  0  0  0
  -21.6330   -6.2060   22.6230 C   0  0  0  0  0  0  0  0  0  0  0  0
  -21.2260   -6.7500   23.8610 C   0  0  0  0  0  3  0  0  0  0  0  0
  -21.1360   -5.9250   24.9980 C   0  0  0  0  0  3  0  0  0  0  0  0
  -21.4470   -4.5540   24.9020 C   0  0  0  0  0  0  0  0  0  0  0  0
  -21.8490   -4.0090   23.6690 C   0  0  0  0  0  3  0  0  0  0  0  0
  -21.9390   -4.8330   22.5330 C   0  0  0  0  0  0  0  0  0  0  0  0
  -22.3060   -4.2990   21.3430 F   0  0  0  0  0  0  0  0  0  0  0  0
  -21.3560   -3.7590   25.9930 F   0  0  0  0  0  0  0  0  0  0  0  0
  -22.7590  -13.5930   21.1550 C   0  0  0  0  0  0  0  0  0  0  0  0
  -22.0390  -12.8890   22.0270 N   0  0  0  0  0  0  0  0  0  0  0  0
  -22.3130  -14.6170   20.6450 O   0  0  0  0  0  0  0  0  0  0  0  0
  -22.4130  -12.0630   22.4670 H   0  0  0  0  0  0  0  0  0  0  0  0
  -21.1000  -13.1830   22.2560 H   0  0  0  0  0  0  0  0  0  0  0  0
  -25.3730  -15.2640   20.3070 N   0  0  0  0  0  0  0  0  0  0  0  0
  -24.5850  -15.9040   20.3290 H   0  0  0  0  0  0  0  0  0  0  0  0
  -26.1920  -15.6730   19.8760 H   0  0  0  0  0  0  0  0  0  0  0  0
  2  3  1  0
  2  1  2  0
  4  5  1  0
  4  3  1  0
  6 17  2  0
  7  5  1  0
  7 12  1  0
  8 16  1  0
  8 18  1  0
  9 15  1  0
  9 11  1  0
 10 16  1  0
 11 10  1  0
 12 11  2  0
 13  7  2  0
 14 13  1  0
 14  9  2  0
 15  8  1  0
 16  6  1  0
 18 20  2  0
 19 18  1  0
 21 19  1  0
 22 31  2  0
 22 27  1  0
 23 19  1  0
 23 27  1  0
 24 23  1  0
 25 26  1  0
 25 24  1  0
 26 22  1  0
 27 28  2  0
 28 29  1  0
 30 29  2  0
 31 30  1  0
 32  6  1  0
 32 33  1  0
 32 42  1  0
 33 36  1  0
 34 38  1  0
 34 33  1  0
 35 34  2  0
 38 37  1  0
 40 38  1  0
 40 41  1  0
 40 39  1  0
 42 45  1  1
 42 43  1  0
 44 42  1  0
 46  1  1  0
 47 49  2  0
 47 48  1  0
 48 51  2  0
 49 52  1  0
 51 50  1  0
 51 61  1  0
 52 46  1  0
 52 50  2  0
 53 61  1  0
 54 59  1  0
 55 56  1  0
 55 54  1  0
 57 56  1  0
 57 66  1  0
 57 58  1  0
 59 53  1  0
 59 58  1  0
 60 53  2  0
 61 62  1  0
 63 64  2  0
 64 83  1  0
 65 64  1  0
 65 68  1  0
 66 63  1  0
 66 67  1  0
 67 65  2  0
 68 69  1  0
 69 70  2  0
 71 74  1  0
 71 70  1  0
 72 71  2  0
 73 72  1  0
 73 68  2  0
 74 75  1  0
 75 76  1  0
 76 77  2  0
 78 77  1  0
 78 82  1  0
 79 78  2  0
 80 75  2  0
 80 79  1  0
 81 80  1  0
 83 84  1  0
 84 87  1  0
 84 86  1  0
 85 83  2  0
 88 89  1  0
 88 63  1  0
 90 88  1  0
M  ISO  4   4 101   5 101  53 100  61 100
M  END
>  <TORSDO>  (40) 
F 21

>  <SCORE>  (40) 
-13.667

>  <name>  (40) 
39

>  <ligand_id>  (40) 
39

>  <original_smiles>  (40) 
[H]c1c([H])c(OC([H])([H])C([H])([H])C([H])([H])C([H])([H])Oc2c([H])c([H])c3c(c2[H])C([H])([H])N(C(=O)C([H])(N([H])C(=O)C([H])(N([H])C([H])([H])[H])C([H])([H])[H])C(C([H])([H])[H])(C([H])([H])[H])C([H])([H])[H])C([H])(C(=O)N([H])C2([H])c4c([H])c([H])c([H])c([H])c4C([H])([H])C([H])([H])C2([H])[H])C3([H])[H])c([H])c(N([H])C(=O)N2C([H])([H])C([H])([H])C([H])([H])C([H])(n3nc(-c4c([H])c([H])c(Oc5c([H])c([H])c(F)c([H])c5F)c([H])c4[H])c(C(=O)N([H])[H])c3N([H])[H])C2([H])[H])c1[H]

>  <smiles>  (40) 
[H]c1c([H])c(OC([H])([H])C([H])([H])C([H])([H])C([H])([H])Oc2c([H])c([H])c3c(c2[H])C([H])([H])N(C(=O)C([H])(N([H])C(=O)C([H])(N([H])C([H])([H])[H])C([H])([H])[H])C(C([H])([H])[H])(C([H])([H])[H])C([H])([H])[H])C([H])(C(=O)N([H])C2([H])c4c([H])c([H])c([H])c([H])c4C([H])([H])C([H])([H])C2([H])[H])C3([H])[H])c([H])c(N([H])C(=O)N2C([H])([H])C([H])([H])C([H])([H])C([H])(n3nc(-c4c([H])c([H])c(Oc5c([H])c([H])c(F)c([H])c5F)c([H])c4[H])c(C(=O)N([H])[H])c3N([H])[H])C2([H])[H])c1[H]

$$$$
40:0:0
     RDKit          3D

112120  0  0  1  0  0  0  0  0999 V2000
  -25.6260  -23.3070   22.6360 C   0  0  0  0  0  2  0  0  0  0  0  0
  -26.8190  -23.3450   21.6690 C   0  0  0  0  0  2  0  0  0  0  0  0
  -30.1250  -21.1720   18.6030 C   0  0  0  0  0  3  0  0  0  0  0  0
  -29.1800  -20.2210   19.0110 C   0  0  0  0  0  0  0  0  0  0  0  0
  -30.0380  -22.4440   19.1880 C   0  0  0  0  0  0  0  0  0  0  0  0
  -28.2470  -21.7380   20.4140 C   0  0  0  0  0  0  0  0  0  0  0  0
  -29.1760  -18.8200   18.4380 C   0  0  0  0  0  1  0  0  0  0  0  0
  -31.8220  -23.3000   17.7150 C   0  0  0  0  0  1  0  0  0  0  0  0
  -28.2350  -20.5150   19.9210 N   0  0  0  0  0  0  0  0  0  0  0  0
  -29.0900  -22.7070   20.1040 N   0  0  0  0  0  0  0  0  0  0  0  0
  -27.2730  -22.0000   21.3390 N   0  0  0  0  0  0  0  0  0  0  0  0
  -30.9210  -23.4940   18.8460 N   0  0  0  0  0  0  0  0  0  0  0  0
  -26.6190  -21.2420   21.4730 H   0  0  0  0  0  0  0  0  0  0  0  0
  -30.5870  -24.8650   19.2440 C   0  0  0  0  0  2  0  0  0  0  0  0
  -29.5410  -25.5070   18.3150 C   0  0  0  0  0  2  0  0  0  0  0  0
  -29.1020  -26.8970   18.7880 C   0  0  0  0  0  2  0  0  0  0  0  0
  -28.4140  -26.7790   20.0300 O   0  0  0  0  0  0  0  0  0  0  0  0
  -24.6100  -31.8710   23.2130 C   0  0  0  0  0  0  0  0  0  0  0  0
  -27.2420  -27.4830   20.0810 C   0  0  0  0  0  0  0  0  0  0  0  0
  -23.3970  -30.4920   21.5520 C   0  0  0  0  0  3  0  0  0  0  0  0
  -24.8450  -28.9570   20.1200 C   0  0  0  0  0  0  0  0  0  0  0  0
  -25.9200  -30.8460   21.3610 C   0  0  0  0  0  2  0  0  0  0  0  0
  -26.0000  -29.4810   20.7170 C   0  0  0  0  0  0  0  0  0  0  0  0
  -27.2010  -28.7440   20.7060 C   0  0  0  0  0  3  0  0  0  0  0  0
  -26.0750  -26.9520   19.4970 C   0  0  0  0  0  3  0  0  0  0  0  0
  -24.8740  -27.6870   19.5140 C   0  0  0  0  0  3  0  0  0  0  0  0
  -23.6040  -29.8200   20.1680 C   0  0  0  0  0  2  0  0  0  0  0  0
  -24.6600  -31.0830   22.1010 N   0  0  0  0  0  0  0  0  0  0  0  0
  -23.5300  -32.1440   23.7550 O   0  0  0  0  0  0  0  0  0  0  0  0
  -22.7390  -29.4660   22.5020 C   0  0  0  0  0  0  0  0  0  0  0  0
  -21.4120  -29.3020   22.3750 N   0  0  0  0  0  0  0  0  0  0  0  0
  -23.4170  -28.8220   23.3050 O   0  0  0  0  0  0  0  0  0  0  0  0
  -20.9280  -29.8730   21.6970 H   0  0  0  0  0  0  0  0  0  0  0  0
  -18.0270  -28.1370   22.8490 C   0  0  0  0  0  0  0  0  0  0  0  0
  -20.5850  -28.3640   23.1340 C   0  0  0  0  0  3  0  0  0  0  0  0
  -20.6760  -26.9380   22.5430 C   0  0  0  0  0  2  0  0  0  0  0  0
  -19.5750  -26.6370   21.5220 C   0  0  0  0  0  2  0  0  0  0  0  0
  -18.1920  -26.7910   22.1630 C   0  0  0  0  0  2  0  0  0  0  0  0
  -19.1520  -28.8820   23.2910 C   0  0  0  0  0  0  0  0  0  0  0  0
  -18.9450  -30.1430   23.8920 C   0  0  0  0  0  3  0  0  0  0  0  0
  -17.6450  -30.6580   24.0560 C   0  0  0  0  0  3  0  0  0  0  0  0
  -16.5340  -29.9080   23.6320 C   0  0  0  0  0  3  0  0  0  0  0  0
  -16.7260  -28.6500   23.0340 C   0  0  0  0  0  3  0  0  0  0  0  0
  -25.9010  -32.4840   23.8410 C   0  0  0  0  0  3  0  0  0  0  0  0
  -25.5880  -33.8630   24.2340 N   0  0  0  0  0  0  0  0  0  0  0  0
  -25.9020  -34.9490   23.5140 C   0  0  0  0  0  0  0  0  0  0  0  0
  -26.5590  -34.8930   22.4700 O   0  0  0  0  0  0  0  0  0  0  0  0
  -25.0040  -33.9800   25.0500 H   0  0  0  0  0  0  0  0  0  0  0  0
  -24.1480  -36.7330   23.2640 C   0  0  0  0  0  1  0  0  0  0  0  0
  -25.4100  -36.3120   24.0340 C   0  0  0  0  0  3  0  0  0  0  0  0
  -27.5580  -37.1820   24.8460 C   0  0  0  0  0  1  0  0  0  0  0  0
  -26.4300  -37.3800   23.9410 N   0  0  0  0  0  0  0  0  0  0  0  0
  -26.0190  -38.2890   24.1400 H   0  0  0  0  0  0  0  0  0  0  0  0
  -26.4460  -31.6600   25.0720 C   0  0  1  0  0  0  0  0  0  0  0  0
  -25.3740  -31.3690   26.1480 C   0  0  0  0  0  1  0  0  0  0  0  0
  -27.0280  -30.3060   24.6060 C   0  0  0  0  0  1  0  0  0  0  0  0
  -27.6040  -32.4310   25.7480 C   0  0  0  0  0  1  0  0  0  0  0  0
  -24.3830  -22.6340   22.0300 C   0  0  0  0  0  2  0  0  0  0  0  0
  -23.3270  -22.2820   23.0910 C   0  0  0  0  0  2  0  0  0  0  0  0
  -22.2010  -21.3640   22.5750 C   0  0  0  0  0  2  0  0  0  0  0  0
  -22.6690  -20.0280   21.9600 C   0  0  0  0  0  2  0  0  0  0  0  0
  -24.5480  -18.4470   22.3430 C   0  0  0  0  0  0  0  0  0  0  0  0
  -23.6660  -19.3520   22.7890 N   0  0  0  0  0  0  0  0  0  0  0  0
  -24.6140  -18.1160   21.1580 O   0  0  0  0  0  0  0  0  0  0  0  0
  -23.6660  -19.5670   23.7770 H   0  0  0  0  0  0  0  0  0  0  0  0
  -25.4680  -17.7830   23.3780 C   0  0  0  0  0  3  0  0  0  0  0  0
  -25.4560  -16.3270   23.1720 N   0  0  0  0  0  4  0  0  0  0  0  0
  -25.6520  -16.1110   22.1990 H   0  0  0  0  0  0  0  0  0  0  0  0
  -24.5280  -15.9910   23.3580 H   0  0  0  0  0  0  0  0  0  0  0  0
  -26.1010  -15.8610   23.7820 H   0  0  0  0  0  0  0  0  0  0  0  0
  -26.9000  -18.3950   23.4420 C   0  0  0  0  0  2  0  0  0  0  0  0
  -27.9200  -18.0680   22.3200 C   0  0  0  0  0  2  0  0  0  0  0  0
  -28.5840  -16.6840   22.4570 C   0  0  0  0  0  2  0  0  0  0  0  0
  -29.8890  -16.4880   21.6610 C   0  0  0  0  0  2  0  0  0  0  0  0
  -30.7200  -14.3500   20.6930 C   0  0  0  0  0  0  0  0  0  0  0  0
  -30.4330  -12.2800   19.3790 C   0  0  0  0  0  2  0  0  0  0  0  0
  -29.4910  -12.5450   18.1870 C   0  0  0  0  0  2  0  0  0  0  0  0
  -28.0120  -12.3960   18.6000 C   0  0  0  0  0  2  0  0  0  0  0  0
  -27.6750  -13.1910   19.8900 C   0  0  0  0  0  3  0  0  0  0  0  0
  -28.7110  -12.8680   20.9890 C   0  0  0  0  0  2  0  0  0  0  0  0
  -30.0620  -13.1840   20.4740 N   0  0  0  0  0  0  0  0  0  0  0  0
  -31.6950  -14.7360   20.0400 O   0  0  0  0  0  0  0  0  0  0  0  0
  -30.1860  -15.0630   21.6880 N   0  0  0  0  0  0  0  0  0  0  0  0
  -29.5700  -14.5200   22.2720 H   0  0  0  0  0  0  0  0  0  0  0  0
  -25.2680  -13.8130   20.5790 C   0  0  0  0  0  0  0  0  0  0  0  0
  -24.1890  -13.0430   20.9200 C   0  0  0  0  0  0  0  0  0  0  0  0
  -24.6390  -11.6880   20.8690 C   0  0  0  0  0  0  0  0  0  0  0  0
  -26.3090  -12.9270   20.3400 N   0  0  0  0  0  0  0  0  0  0  0  0
  -25.9310  -11.6430   20.5690 N   0  0  0  0  0  0  0  0  0  0  0  0
  -23.9040  -10.4290   21.0380 C   0  0  0  0  0  0  0  0  0  0  0  0
  -24.3600   -9.4220   21.9180 C   0  0  0  0  0  3  0  0  0  0  0  0
  -23.6280   -8.2240   22.0740 C   0  0  0  0  0  3  0  0  0  0  0  0
  -22.4260   -8.0280   21.3550 C   0  0  0  0  0  0  0  0  0  0  0  0
  -21.9890   -9.0250   20.4640 C   0  0  0  0  0  3  0  0  0  0  0  0
  -22.7210  -10.2140   20.3050 C   0  0  0  0  0  3  0  0  0  0  0  0
  -21.6640   -6.8880   21.4240 O   0  0  0  0  0  0  0  0  0  0  0  0
  -21.6860   -6.0740   22.5290 C   0  0  0  0  0  0  0  0  0  0  0  0
  -21.4020   -6.5640   23.8220 C   0  0  0  0  0  3  0  0  0  0  0  0
  -21.3650   -5.6790   24.9190 C   0  0  0  0  0  3  0  0  0  0  0  0
  -21.6040   -4.3050   24.7240 C   0  0  0  0  0  0  0  0  0  0  0  0
  -21.8820   -3.8140   23.4360 C   0  0  0  0  0  3  0  0  0  0  0  0
  -21.9190   -4.6970   22.3410 C   0  0  0  0  0  0  0  0  0  0  0  0
  -22.1660   -4.2150   21.0990 F   0  0  0  0  0  0  0  0  0  0  0  0
  -21.5630   -3.4540   25.7750 F   0  0  0  0  0  0  0  0  0  0  0  0
  -22.7910  -13.5240   21.1860 C   0  0  0  0  0  0  0  0  0  0  0  0
  -22.0500  -12.8250   22.0390 N   0  0  0  0  0  0  0  0  0  0  0  0
  -22.3670  -14.5600   20.6770 O   0  0  0  0  0  0  0  0  0  0  0  0
  -22.4020  -11.9850   22.4740 H   0  0  0  0  0  0  0  0  0  0  0  0
  -21.1110  -13.1290   22.2540 H   0  0  0  0  0  0  0  0  0  0  0  0
  -25.4550  -15.1900   20.4560 N   0  0  0  0  0  0  0  0  0  0  0  0
  -24.6180  -15.7350   20.2640 H   0  0  0  0  0  0  0  0  0  0  0  0
  -26.2140  -15.4830   19.8520 H   0  0  0  0  0  0  0  0  0  0  0  0
  2  1  1  0
  3  4  2  0
  3  5  1  0
  4  9  1  0
  5 10  2  0
  6 11  1  0
  7  4  1  0
  8 12  1  0
  9  6  2  0
 10  6  1  0
 11 13  1  0
 11  2  1  0
 12  5  1  0
 12 14  1  0
 15 16  1  0
 15 14  1  0
 16 17  1  0
 17 19  1  0
 18 29  2  0
 19 24  1  0
 20 28  1  0
 20 30  1  0
 21 27  1  0
 21 23  1  0
 22 28  1  0
 23 22  1  0
 24 23  2  0
 25 26  1  0
 25 19  2  0
 26 21  2  0
 27 20  1  0
 28 18  1  0
 30 32  2  0
 31 30  1  0
 33 31  1  0
 34 43  2  0
 34 39  1  0
 35 31  1  0
 35 39  1  0
 36 35  1  0
 37 38  1  0
 37 36  1  0
 38 34  1  0
 39 40  2  0
 40 41  1  0
 42 41  2  0
 43 42  1  0
 44 18  1  0
 44 45  1  0
 44 54  1  0
 45 48  1  0
 46 50  1  0
 46 45  1  0
 47 46  2  0
 50 49  1  0
 52 50  1  0
 52 53  1  0
 52 51  1  0
 54 57  1  1
 54 55  1  0
 56 54  1  0
 58  1  1  0
 58 59  1  0
 60 59  1  0
 61 60  1  0
 61 63  1  0
 62 63  1  0
 62 66  1  0
 63 65  1  0
 64 62  2  0
 66 71  1  0
 67 69  1  0
 67 66  1  0
 67 70  1  0
 68 67  1  0
 72 73  1  0
 72 71  1  0
 74 83  1  0
 74 73  1  0
 75 83  1  0
 76 81  1  0
 77 78  1  0
 77 76  1  0
 79 78  1  0
 79 88  1  0
 79 80  1  0
 81 75  1  0
 81 80  1  0
 82 75  2  0
 83 84  1  0
 85 86  2  0
 86105  1  0
 87 86  1  0
 87 90  1  0
 88 89  1  0
 88 85  1  0
 89 87  2  0
 90 91  1  0
 91 92  2  0
 93 96  1  0
 93 92  1  0
 94 93  2  0
 95 94  1  0
 95 90  2  0
 96 97  1  0
 97 98  1  0
 98 99  2  0
100 99  1  0
100104  1  0
101100  2  0
102 97  2  0
102101  1  0
103102  1  0
105106  1  0
106109  1  0
106108  1  0
107105  2  0
110 85  1  0
111110  1  0
112110  1  0
M  ISO  4  16 101  17 101  75 100  83 100
M  END
>  <TORSDO>  (41) 
F 32

>  <SCORE>  (41) 
50.561

>  <name>  (41) 
40

>  <ligand_id>  (41) 
40

>  <original_smiles>  (41) 
[H]c1c(N(C([H])([H])[H])C([H])([H])C([H])([H])C([H])([H])Oc2c([H])c([H])c3c(c2[H])C([H])([H])N(C(=O)C([H])(N([H])C(=O)C([H])(N([H])C([H])([H])[H])C([H])([H])[H])C(C([H])([H])[H])(C([H])([H])[H])C([H])([H])[H])C([H])(C(=O)N([H])C2([H])c4c([H])c([H])c([H])c([H])c4C([H])([H])C([H])([H])C2([H])[H])C3([H])[H])nc(N([H])C([H])([H])C([H])([H])C([H])([H])C([H])([H])C([H])([H])C([H])([H])N([H])C(=O)C([H])(C([H])([H])C([H])([H])C([H])([H])C([H])([H])N([H])C(=O)N2C([H])([H])C([H])([H])C([H])([H])C([H])(n3nc(-c4c([H])c([H])c(Oc5c([H])c([H])c(F)c([H])c5F)c([H])c4[H])c(C(=O)N([H])[H])c3N([H])[H])C2([H])[H])[N+]([H])([H])[H])nc1C([H])([H])[H]

>  <smiles>  (41) 
[H]c1c(N(C([H])([H])[H])C([H])([H])C([H])([H])C([H])([H])Oc2c([H])c([H])c3c(c2[H])C([H])([H])N(C(=O)C([H])(N([H])C(=O)C([H])(N([H])C([H])([H])[H])C([H])([H])[H])C(C([H])([H])[H])(C([H])([H])[H])C([H])([H])[H])C([H])(C(=O)N([H])C2([H])c4c([H])c([H])c([H])c([H])c4C([H])([H])C([H])([H])C2([H])[H])C3([H])[H])nc(N([H])C([H])([H])C([H])([H])C([H])([H])C([H])([H])C([H])([H])C([H])([H])N([H])C(=O)C([H])(C([H])([H])C([H])([H])C([H])([H])C([H])([H])N([H])C(=O)N2C([H])([H])C([H])([H])C([H])([H])C([H])(n3nc(-c4c([H])c([H])c(Oc5c([H])c([H])c(F)c([H])c5F)c([H])c4[H])c(C(=O)N([H])[H])c3N([H])[H])C2([H])[H])[N+]([H])([H])[H])nc1C([H])([H])[H]

$$$$
41:0:0
     RDKit          3D

 97105  0  0  1  0  0  0  0  0999 V2000
  -30.6530  -18.5140   20.1710 C   0  0  0  0  0  3  0  0  0  0  0  0
  -28.1010  -19.5550   20.1980 C   0  0  0  0  0  3  0  0  0  0  0  0
  -30.4360  -19.9710   20.1590 C   0  0  0  0  0  0  0  0  0  0  0  0
  -29.6230  -17.5130   20.2120 C   0  0  0  0  0  0  0  0  0  0  0  0
  -29.1050  -20.5780   20.1460 C   0  0  0  0  0  0  0  0  0  0  0  0
  -28.3260  -18.1170   20.2390 C   0  0  0  0  0  0  0  0  0  0  0  0
  -30.5470  -14.8980   19.9000 C   0  0  0  0  0  0  0  0  0  0  0  0
  -30.4250  -12.5670   18.9040 C   0  0  0  0  0  2  0  0  0  0  0  0
  -29.3980  -12.5490   17.7460 C   0  0  0  0  0  2  0  0  0  0  0  0
  -27.9720  -12.3060   18.2780 C   0  0  0  0  0  2  0  0  0  0  0  0
  -27.6450  -13.1900   19.5100 C   0  0  0  0  0  3  0  0  0  0  0  0
  -28.7810  -13.1630   20.5550 C   0  0  0  0  0  2  0  0  0  0  0  0
  -30.0060  -13.6130   19.8770 N   0  0  0  0  0  0  0  0  0  0  0  0
  -31.7010  -15.0480   19.4810 O   0  0  0  0  0  0  0  0  0  0  0  0
  -29.6990  -15.9790   20.2480 N   0  0  0  0  0  0  0  0  0  0  0  0
  -28.8300  -15.6050   20.5990 H   0  0  0  0  0  0  0  0  0  0  0  0
  -25.3170  -13.7190   20.4400 C   0  0  0  0  0  0  0  0  0  0  0  0
  -24.2900  -12.9230   20.8640 C   0  0  0  0  0  0  0  0  0  0  0  0
  -24.7600  -11.5790   20.7470 C   0  0  0  0  0  0  0  0  0  0  0  0
  -26.3480  -12.8620   20.0940 N   0  0  0  0  0  0  0  0  0  0  0  0
  -26.0240  -11.5650   20.3400 N   0  0  0  0  0  0  0  0  0  0  0  0
  -24.0560  -10.3050   20.9430 C   0  0  0  0  0  0  0  0  0  0  0  0
  -24.4850   -9.3640   21.9060 C   0  0  0  0  0  3  0  0  0  0  0  0
  -23.7800   -8.1550   22.0900 C   0  0  0  0  0  3  0  0  0  0  0  0
  -22.6320   -7.8790   21.3100 C   0  0  0  0  0  0  0  0  0  0  0  0
  -22.2230   -8.8070   20.3370 C   0  0  0  0  0  3  0  0  0  0  0  0
  -22.9280  -10.0070   20.1520 C   0  0  0  0  0  3  0  0  0  0  0  0
  -21.9000   -6.7180   21.4000 O   0  0  0  0  0  0  0  0  0  0  0  0
  -21.7370   -6.0620   22.5940 C   0  0  0  0  0  0  0  0  0  0  0  0
  -21.1370   -6.6830   23.7100 C   0  0  0  0  0  3  0  0  0  0  0  0
  -20.9260   -5.9500   24.8950 C   0  0  0  0  0  3  0  0  0  0  0  0
  -21.3060   -4.5960   24.9640 C   0  0  0  0  0  0  0  0  0  0  0  0
  -21.8980   -3.9740   23.8500 C   0  0  0  0  0  3  0  0  0  0  0  0
  -22.1100   -4.7050   22.6680 C   0  0  0  0  0  0  0  0  0  0  0  0
  -22.6630   -4.0940   21.5920 F   0  0  0  0  0  0  0  0  0  0  0  0
  -21.0960   -3.8900   26.0980 F   0  0  0  0  0  0  0  0  0  0  0  0
  -22.9150  -13.3790   21.2600 C   0  0  0  0  0  0  0  0  0  0  0  0
  -22.2710  -12.6620   22.1730 N   0  0  0  0  0  0  0  0  0  0  0  0
  -22.4240  -14.4080   20.7950 O   0  0  0  0  0  0  0  0  0  0  0  0
  -22.6820  -11.8300   22.5700 H   0  0  0  0  0  0  0  0  0  0  0  0
  -21.3520  -12.9490   22.4800 H   0  0  0  0  0  0  0  0  0  0  0  0
  -25.4490  -15.0950   20.2980 N   0  0  0  0  0  0  0  0  0  0  0  0
  -24.6810  -15.7260   20.5000 H   0  0  0  0  0  0  0  0  0  0  0  0
  -26.2840  -15.5760   19.9890 H   0  0  0  0  0  0  0  0  0  0  0  0
  -31.6920  -20.7990   20.2810 C   0  0  0  0  0  0  0  0  0  0  0  0
  -31.8010  -21.8900   19.5410 N   0  0  0  0  0  0  0  0  0  0  0  0
  -32.6250  -20.4310   20.9940 O   0  0  0  0  0  0  0  0  0  0  0  0
  -31.0080  -22.2330   19.0010 H   0  0  0  0  0  0  0  0  0  0  0  0
  -32.6430  -22.4430   19.5830 H   0  0  0  0  0  0  0  0  0  0  0  0
  -28.6640  -23.2800   19.5930 C   0  0  0  0  0  0  0  0  0  0  0  0
  -28.6280  -22.0430   20.2930 N   0  0  0  0  0  0  0  0  0  0  0  0
  -29.3290  -23.3770   18.5600 O   0  0  0  0  0  0  0  0  0  0  0  0
  -27.9800  -22.1390   21.0640 H   0  0  0  0  0  0  0  0  0  0  0  0
  -27.7920  -24.6080   20.0710 C   0  0  0  0  0  2  0  0  0  0  0  0
  -28.0240  -26.0550   19.5530 O   0  0  0  0  0  0  0  0  0  0  0  0
  -24.5580  -31.5800   23.0090 C   0  0  0  0  0  0  0  0  0  0  0  0
  -26.9770  -27.0390   19.6310 C   0  0  0  0  0  0  0  0  0  0  0  0
  -23.2880  -30.3050   21.3230 C   0  0  0  0  0  3  0  0  0  0  0  0
  -24.6710  -28.7990   19.7670 C   0  0  0  0  0  0  0  0  0  0  0  0
  -25.8390  -30.5510   21.0960 C   0  0  0  0  0  2  0  0  0  0  0  0
  -25.8730  -29.1990   20.3640 C   0  0  0  0  0  0  0  0  0  0  0  0
  -27.0310  -28.3380   20.2750 C   0  0  0  0  0  3  0  0  0  0  0  0
  -25.7500  -26.7370   19.0030 C   0  0  0  0  0  3  0  0  0  0  0  0
  -24.6200  -27.5810   19.0700 C   0  0  0  0  0  3  0  0  0  0  0  0
  -23.4580  -29.7080   19.9000 C   0  0  0  0  0  2  0  0  0  0  0  0
  -24.5830  -30.8290   21.8660 N   0  0  0  0  0  0  0  0  0  0  0  0
  -23.4930  -31.8460   23.5870 O   0  0  0  0  0  0  0  0  0  0  0  0
  -22.6210  -29.2520   22.2420 C   0  0  0  0  0  0  0  0  0  0  0  0
  -21.2840  -29.1270   22.1630 N   0  0  0  0  0  0  0  0  0  0  0  0
  -23.3070  -28.5500   22.9900 O   0  0  0  0  0  0  0  0  0  0  0  0
  -20.7870  -29.7440   21.5360 H   0  0  0  0  0  0  0  0  0  0  0  0
  -17.8910  -27.9910   22.7330 C   0  0  0  0  0  0  0  0  0  0  0  0
  -20.4670  -28.1600   22.9010 C   0  0  0  0  0  3  0  0  0  0  0  0
  -20.4970  -26.7700   22.2240 C   0  0  0  0  0  2  0  0  0  0  0  0
  -19.3420  -26.5540   21.2400 C   0  0  0  0  0  2  0  0  0  0  0  0
  -17.9950  -26.6910   21.9550 C   0  0  0  0  0  2  0  0  0  0  0  0
  -19.0510  -28.6890   23.1640 C   0  0  0  0  0  0  0  0  0  0  0  0
  -18.8970  -29.9100   23.8560 C   0  0  0  0  0  3  0  0  0  0  0  0
  -17.6160  -30.4330   24.1190 C   0  0  0  0  0  3  0  0  0  0  0  0
  -16.4730  -29.7310   23.7030 C   0  0  0  0  0  3  0  0  0  0  0  0
  -16.6110  -28.5120   23.0150 C   0  0  0  0  0  3  0  0  0  0  0  0
  -25.8640  -32.1560   23.6370 C   0  0  0  0  0  3  0  0  0  0  0  0
  -26.3930  -31.3050   24.8560 C   0  0  1  0  0  0  0  0  0  0  0  0
  -25.3270  -31.0500   25.9470 C   0  0  0  0  0  1  0  0  0  0  0  0
  -26.9170  -29.9300   24.3820 C   0  0  0  0  0  1  0  0  0  0  0  0
  -27.5910  -32.0270   25.5180 C   0  0  0  0  0  1  0  0  0  0  0  0
  -25.5880  -33.5380   24.0560 N   0  0  0  0  0  0  0  0  0  0  0  0
  -25.9000  -34.6300   23.3470 C   0  0  0  0  0  0  0  0  0  0  0  0
  -26.5200  -34.5780   22.2810 O   0  0  0  0  0  0  0  0  0  0  0  0
  -25.0330  -33.6520   24.8930 H   0  0  0  0  0  0  0  0  0  0  0  0
  -24.1740  -36.4560   23.1980 C   0  0  0  0  0  1  0  0  0  0  0  0
  -25.4590  -35.9980   23.9070 C   0  0  0  0  0  3  0  0  0  0  0  0
  -27.6460  -36.8290   24.6540 C   0  0  0  0  0  1  0  0  0  0  0  0
  -26.4940  -37.0470   23.7830 N   0  0  0  0  0  0  0  0  0  0  0  0
  -26.1060  -37.9630   23.9930 H   0  0  0  0  0  0  0  0  0  0  0  0
  -25.9530  -17.7130   20.3500 C   0  0  0  0  0  1  0  0  0  0  0  0
  -27.2850  -17.2130   20.3240 O   0  0  0  0  0  0  0  0  0  0  0  0
  1  4  1  0
  2  6  1  0
  3  1  2  0
  3 45  1  0
  4  6  2  0
  4 15  1  0
  5  3  1  0
  5  2  2  0
  5 51  1  0
  6 97  1  0
  7 15  1  0
  8 13  1  0
  9 10  1  0
  9  8  1  0
 11 10  1  0
 11 20  1  0
 11 12  1  0
 13  7  1  0
 13 12  1  0
 14  7  2  0
 15 16  1  0
 17 18  2  0
 18 37  1  0
 19 18  1  0
 19 22  1  0
 20 21  1  0
 20 17  1  0
 21 19  2  0
 22 23  1  0
 23 24  2  0
 25 28  1  0
 25 24  1  0
 26 25  2  0
 27 26  1  0
 27 22  2  0
 28 29  1  0
 29 34  2  0
 29 30  1  0
 30 31  2  0
 31 32  1  0
 32 36  1  0
 33 32  2  0
 34 33  1  0
 35 34  1  0
 37 38  1  0
 38 41  1  0
 38 40  1  0
 39 37  2  0
 42 17  1  0
 42 43  1  0
 44 42  1  0
 45 47  2  0
 46 49  1  0
 46 45  1  0
 48 46  1  0
 50 54  1  0
 50 51  1  0
 51 53  1  0
 52 50  2  0
 55 57  1  0
 55 54  1  0
 56 67  2  0
 57 62  1  0
 58 66  1  0
 58 68  1  0
 59 65  1  0
 59 61  1  0
 60 66  1  0
 61 60  1  0
 62 61  2  0
 63 64  1  0
 63 57  2  0
 64 59  2  0
 65 58  1  0
 66 56  1  0
 68 70  2  0
 69 68  1  0
 71 69  1  0
 72 81  2  0
 72 77  1  0
 73 69  1  0
 73 77  1  0
 74 73  1  0
 75 76  1  0
 75 74  1  0
 76 72  1  0
 77 78  2  0
 78 79  1  0
 80 79  2  0
 81 80  1  0
 82 56  1  0
 82 87  1  0
 82 83  1  0
 83 86  1  1
 83 84  1  0
 85 83  1  0
 87 90  1  0
 88 92  1  0
 88 87  1  0
 89 88  2  0
 92 91  1  0
 94 92  1  0
 94 95  1  0
 94 93  1  0
 97 96  1  0
M  ISO  4   7 100  15 100  54 101  55 101
M  END
>  <TORSDO>  (42) 
F 20

>  <SCORE>  (42) 
-13.070

>  <name>  (42) 
41

>  <ligand_id>  (42) 
41

>  <original_smiles>  (42) 
[H]c1c([H])c([H])c2c(c1[H])C([H])([H])C([H])([H])C([H])([H])C2([H])N([H])C(=O)C1([H])N(C(=O)C([H])(N([H])C(=O)C([H])(N([H])C([H])([H])[H])C([H])([H])[H])C(C([H])([H])[H])(C([H])([H])[H])C([H])([H])[H])C([H])([H])c2c([H])c(OC([H])([H])C(=O)N([H])c3c([H])c(OC([H])([H])[H])c(N([H])C(=O)N4C([H])([H])C([H])([H])C([H])([H])C([H])(n5nc(-c6c([H])c([H])c(Oc7c([H])c([H])c(F)c([H])c7F)c([H])c6[H])c(C(=O)N([H])[H])c5N([H])[H])C4([H])[H])c([H])c3C(=O)N([H])[H])c([H])c([H])c2C1([H])[H]

>  <smiles>  (42) 
[H]c1c([H])c([H])c2c(c1[H])C([H])([H])C([H])([H])C([H])([H])C2([H])N([H])C(=O)C1([H])N(C(=O)C([H])(N([H])C(=O)C([H])(N([H])C([H])([H])[H])C([H])([H])[H])C(C([H])([H])[H])(C([H])([H])[H])C([H])([H])[H])C([H])([H])c2c([H])c(OC([H])([H])C(=O)N([H])c3c([H])c(OC([H])([H])[H])c(N([H])C(=O)N4C([H])([H])C([H])([H])C([H])([H])C([H])(n5nc(-c6c([H])c([H])c(Oc7c([H])c([H])c(F)c([H])c7F)c([H])c6[H])c(C(=O)N([H])[H])c5N([H])[H])C4([H])[H])c([H])c3C(=O)N([H])[H])c([H])c([H])c2C1([H])[H]

$$$$
42:0:0
     RDKit          3D

105113  0  0  1  0  0  0  0  0999 V2000
  -31.5700  -19.4640   22.0280 C   0  0  0  0  0  2  0  0  0  0  0  0
  -30.6860  -19.4410   23.2930 C   0  0  0  0  0  2  0  0  0  0  0  0
  -29.6580  -18.2900   23.3660 C   0  0  0  0  0  2  0  0  0  0  0  0
  -31.3170  -16.7470   22.3250 C   0  0  0  0  0  0  0  0  0  0  0  0
  -30.2250  -16.9790   23.0570 N   0  0  0  0  0  0  0  0  0  0  0  0
  -32.0280  -17.6290   21.8430 O   0  0  0  0  0  0  0  0  0  0  0  0
  -29.7010  -16.1670   23.3540 H   0  0  0  0  0  0  0  0  0  0  0  0
  -32.2530  -13.0870   22.8670 C   0  0  0  0  0  3  0  0  0  0  0  0
  -31.8640  -14.4160   23.1330 C   0  0  0  0  0  3  0  0  0  0  0  0
  -32.3870  -12.6480   21.5340 C   0  0  0  0  0  3  0  0  0  0  0  0
  -31.6910  -14.8430   20.7370 C   0  0  0  0  0  3  0  0  0  0  0  0
  -31.6110  -15.3050   22.0650 C   0  0  0  0  0  0  0  0  0  0  0  0
  -32.0670  -13.5100   20.4640 C   0  0  0  0  0  0  0  0  0  0  0  0
  -31.1790  -13.2810   18.2440 C   0  0  0  0  0  0  0  0  0  0  0  0
  -30.2320  -11.2130   17.4090 C   0  0  0  0  0  2  0  0  0  0  0  0
  -28.9440  -11.2690   16.5860 C   0  0  0  0  0  2  0  0  0  0  0  0
  -27.7220  -11.1950   17.5100 C   0  0  0  0  0  2  0  0  0  0  0  0
  -27.7710  -12.2710   18.6220 C   0  0  0  0  0  3  0  0  0  0  0  0
  -29.1360  -12.2720   19.3500 C   0  0  0  0  0  2  0  0  0  0  0  0
  -30.2480  -12.3120   18.3790 N   0  0  0  0  0  0  0  0  0  0  0  0
  -31.3900  -13.8740   17.1790 O   0  0  0  0  0  0  0  0  0  0  0  0
  -32.2160  -13.0840   19.1120 N   0  0  0  0  0  0  0  0  0  0  0  0
  -25.8360  -13.0690   20.1290 C   0  0  0  0  0  0  0  0  0  0  0  0
  -24.8870  -12.3870   20.8460 C   0  0  0  0  0  0  0  0  0  0  0  0
  -25.1740  -10.9990   20.6570 C   0  0  0  0  0  0  0  0  0  0  0  0
  -26.6510  -12.1050   19.5530 N   0  0  0  0  0  0  0  0  0  0  0  0
  -26.2690  -10.8530   19.9180 N   0  0  0  0  0  0  0  0  0  0  0  0
  -24.4350   -9.8040   21.0890 C   0  0  0  0  0  0  0  0  0  0  0  0
  -24.7320   -9.1560   22.3080 C   0  0  0  0  0  3  0  0  0  0  0  0
  -23.9980   -8.0190   22.7130 C   0  0  0  0  0  3  0  0  0  0  0  0
  -22.9540   -7.5230   21.8960 C   0  0  0  0  0  0  0  0  0  0  0  0
  -22.6750   -8.1580   20.6700 C   0  0  0  0  0  3  0  0  0  0  0  0
  -23.4100   -9.2860   20.2690 C   0  0  0  0  0  3  0  0  0  0  0  0
  -22.2030   -6.4120   22.2000 O   0  0  0  0  0  0  0  0  0  0  0  0
  -21.4050   -6.3590   23.3140 C   0  0  0  0  0  0  0  0  0  0  0  0
  -20.6240   -7.4640   23.7220 C   0  0  0  0  0  3  0  0  0  0  0  0
  -19.7680   -7.3480   24.8360 C   0  0  0  0  0  3  0  0  0  0  0  0
  -19.6820   -6.1280   25.5330 C   0  0  0  0  0  0  0  0  0  0  0  0
  -20.4510   -5.0240   25.1230 C   0  0  0  0  0  3  0  0  0  0  0  0
  -21.3070   -5.1390   24.0130 C   0  0  0  0  0  0  0  0  0  0  0  0
  -22.0310   -4.0670   23.6100 F   0  0  0  0  0  0  0  0  0  0  0  0
  -18.8530   -6.0120   26.5960 F   0  0  0  0  0  0  0  0  0  0  0  0
  -23.7230  -12.9820   21.5890 C   0  0  0  0  0  0  0  0  0  0  0  0
  -23.3120  -12.3590   22.6900 N   0  0  0  0  0  0  0  0  0  0  0  0
  -23.2020  -14.0340   21.2250 O   0  0  0  0  0  0  0  0  0  0  0  0
  -23.7520  -11.5100   23.0130 H   0  0  0  0  0  0  0  0  0  0  0  0
  -22.5460  -12.7440   23.2200 H   0  0  0  0  0  0  0  0  0  0  0  0
  -26.0580  -14.4250   19.9110 N   0  0  0  0  0  0  0  0  0  0  0  0
  -25.4390  -15.1430   20.2760 H   0  0  0  0  0  0  0  0  0  0  0  0
  -26.8020  -14.7940   19.3310 H   0  0  0  0  0  0  0  0  0  0  0  0
  -34.5320  -12.1470   19.5700 C   0  0  0  0  0  1  0  0  0  0  0  0
  -33.7140  -12.2420   17.2270 C   0  0  0  0  0  1  0  0  0  0  0  0
  -33.6140  -12.9420   18.6050 C   0  0  0  0  0  3  0  0  0  0  0  0
  -30.9570  -20.2140   20.8370 C   0  0  0  0  0  2  0  0  0  0  0  0
  -31.9670  -20.3970   19.6940 C   0  0  0  0  0  2  0  0  0  0  0  0
  -31.6110  -21.5900   18.7930 C   0  0  0  0  0  2  0  0  0  0  0  0
  -32.6320  -21.8350   17.6600 C   0  0  0  0  0  2  0  0  0  0  0  0
  -32.4930  -23.2190   17.0030 C   0  0  0  0  0  0  0  0  0  0  0  0
  -34.7400  -22.9900   15.9660 C   0  0  0  0  0  1  0  0  0  0  0  0
  -33.5630  -23.7630   16.3730 N   0  0  0  0  0  0  0  0  0  0  0  0
  -31.4220  -23.8260   17.1140 O   0  0  0  0  0  0  0  0  0  0  0  0
  -33.5910  -25.1870   16.0230 C   0  0  0  0  0  2  0  0  0  0  0  0
  -34.1690  -26.0210   17.1810 C   0  0  0  0  0  2  0  0  0  0  0  0
  -33.3860  -27.3010   17.4970 C   0  0  0  0  0  2  0  0  0  0  0  0
  -32.1830  -27.0010   18.2060 O   0  0  0  0  0  0  0  0  0  0  0  0
  -25.1400  -26.1260   18.4760 C   0  0  0  0  0  0  0  0  0  0  0  0
  -30.9760  -27.3080   17.6220 C   0  0  0  0  0  0  0  0  0  0  0  0
  -26.0020  -27.2520   16.4500 C   0  0  0  0  0  3  0  0  0  0  0  0
  -28.4500  -27.9440   16.5290 C   0  0  0  0  0  0  0  0  0  0  0  0
  -27.2780  -27.3830   18.6620 C   0  0  0  0  0  2  0  0  0  0  0  0
  -28.5490  -27.4900   17.8490 C   0  0  0  0  0  0  0  0  0  0  0  0
  -29.8060  -27.1540   18.3940 C   0  0  0  0  0  3  0  0  0  0  0  0
  -30.8590  -27.7710   16.2910 C   0  0  0  0  0  3  0  0  0  0  0  0
  -29.6030  -28.0720   15.7380 C   0  0  0  0  0  3  0  0  0  0  0  0
  -27.0720  -28.2890   16.0210 C   0  0  0  0  0  2  0  0  0  0  0  0
  -26.1200  -26.8700   17.8950 N   0  0  0  0  0  0  0  0  0  0  0  0
  -24.1280  -25.7910   17.8420 O   0  0  0  0  0  0  0  0  0  0  0  0
  -26.0760  -26.0420   15.4910 C   0  0  0  0  0  0  0  0  0  0  0  0
  -25.5520  -26.2200   14.2670 N   0  0  0  0  0  0  0  0  0  0  0  0
  -26.6130  -24.9890   15.8410 O   0  0  0  0  0  0  0  0  0  0  0  0
  -25.1220  -27.1100   14.0600 H   0  0  0  0  0  0  0  0  0  0  0  0
  -24.5040  -25.6580   10.8560 C   0  0  0  0  0  0  0  0  0  0  0  0
  -25.5380  -25.2330   13.1870 C   0  0  0  0  0  3  0  0  0  0  0  0
  -26.9020  -25.1820   12.4600 C   0  0  0  0  0  2  0  0  0  0  0  0
  -26.9670  -26.1000   11.2350 C   0  0  0  0  0  2  0  0  0  0  0  0
  -25.8830  -25.7200   10.2220 C   0  0  0  0  0  2  0  0  0  0  0  0
  -24.3430  -25.4450   12.2510 C   0  0  0  0  0  0  0  0  0  0  0  0
  -23.0400  -25.4320   12.7950 C   0  0  0  0  0  3  0  0  0  0  0  0
  -21.9140  -25.6230   11.9720 C   0  0  0  0  0  3  0  0  0  0  0  0
  -22.0790  -25.8170   10.5900 C   0  0  0  0  0  3  0  0  0  0  0  0
  -23.3710  -25.8310   10.0350 C   0  0  0  0  0  3  0  0  0  0  0  0
  -25.2270  -25.6790   19.9700 C   0  0  0  0  0  3  0  0  0  0  0  0
  -24.0610  -26.2370   20.6660 N   0  0  0  0  0  0  0  0  0  0  0  0
  -24.1030  -27.2890   21.4950 C   0  0  0  0  0  0  0  0  0  0  0  0
  -25.1560  -27.8490   21.8130 O   0  0  0  0  0  0  0  0  0  0  0  0
  -23.1600  -25.8620   20.4110 H   0  0  0  0  0  0  0  0  0  0  0  0
  -22.3270  -29.0550   21.2940 C   0  0  0  0  0  1  0  0  0  0  0  0
  -22.7650  -27.7990   22.0630 C   0  0  0  0  0  3  0  0  0  0  0  0
  -22.9760  -26.9010   24.3380 C   0  0  0  0  0  1  0  0  0  0  0  0
  -22.8150  -28.0930   23.5110 N   0  0  0  0  0  0  0  0  0  0  0  0
  -21.9720  -28.5760   23.8100 H   0  0  0  0  0  0  0  0  0  0  0  0
  -25.2890  -24.1130   20.1470 C   0  0  1  0  0  0  0  0  0  0  0  0
  -24.1920  -23.3550   19.3630 C   0  0  0  0  0  1  0  0  0  0  0  0
  -26.6600  -23.5650   19.6900 C   0  0  0  0  0  1  0  0  0  0  0  0
  -25.1450  -23.7490   21.6430 C   0  0  0  0  0  1  0  0  0  0  0  0
  1  2  1  0
  2  3  1  0
  4  5  1  0
  5  7  1  0
  5  3  1  0
  6  4  2  0
  8  9  1  0
 10  8  2  0
 11 12  1  0
 12  4  1  0
 12  9  2  0
 13 11  2  0
 13 10  1  0
 14 20  1  0
 14 22  1  0
 15 20  1  0
 16 15  1  0
 16 17  1  0
 18 17  1  0
 18 19  1  0
 18 26  1  0
 20 19  1  0
 21 14  2  0
 22 13  1  0
 23 24  2  0
 24 43  1  0
 25 24  1  0
 25 28  1  0
 26 27  1  0
 26 23  1  0
 27 25  2  0
 28 29  1  0
 29 30  2  0
 31 34  1  0
 31 30  1  0
 32 31  2  0
 33 32  1  0
 33 28  2  0
 34 35  1  0
 35 36  2  0
 35 40  1  0
 36 37  1  0
 37 38  2  0
 38 42  1  0
 39 38  1  0
 40 39  2  0
 41 40  1  0
 43 44  1  0
 44 46  1  0
 44 47  1  0
 45 43  2  0
 48 23  1  0
 48 49  1  0
 50 48  1  0
 52 53  1  0
 53 22  1  0
 53 51  1  0
 54  1  1  0
 55 54  1  0
 56 55  1  0
 57 56  1  0
 58 61  2  0
 58 57  1  0
 59 60  1  0
 60 58  1  0
 62 60  1  0
 62 63  1  0
 63 64  1  0
 64 65  1  0
 67 65  1  0
 67 72  1  0
 68 78  1  0
 68 76  1  0
 69 71  1  0
 71 72  2  0
 71 70  1  0
 73 67  2  0
 74 73  1  0
 74 69  2  0
 75 68  1  0
 75 69  1  0
 76 66  1  0
 76 70  1  0
 77 66  2  0
 78 80  2  0
 79 78  1  0
 81 79  1  0
 82 87  1  0
 83 79  1  0
 84 83  1  0
 85 84  1  0
 86 82  1  0
 86 85  1  0
 87 88  2  0
 87 83  1  0
 89 88  1  0
 90 89  2  0
 91 90  1  0
 91 82  2  0
 92 66  1  0
 92102  1  0
 92 93  1  0
 93 94  1  0
 94 95  2  0
 94 98  1  0
 96 93  1  0
 98 97  1  0
 98100  1  0
100101  1  0
100 99  1  0
102105  1  1
103102  1  0
104102  1  0
M  ISO  4  14 100  22 100  64 101  65 101
M  END
>  <TORSDO>  (43) 
F 29

>  <SCORE>  (43) 
4.241

>  <name>  (43) 
42

>  <ligand_id>  (43) 
42

>  <original_smiles>  (43) 
[H]c1c([H])c(C(=O)N([H])C([H])([H])C([H])([H])C([H])([H])C([H])([H])C([H])([H])C([H])([H])C([H])([H])C(=O)N(C([H])([H])[H])C([H])([H])C([H])([H])C([H])([H])Oc2c([H])c([H])c3c(c2[H])C([H])([H])N(C(=O)C([H])(N([H])C(=O)C([H])(N([H])C([H])([H])[H])C([H])([H])[H])C(C([H])([H])[H])(C([H])([H])[H])C([H])([H])[H])C([H])(C(=O)N([H])C2([H])c4c([H])c([H])c([H])c([H])c4C([H])([H])C([H])([H])C2([H])[H])C3([H])[H])c([H])c(N(C(=O)N2C([H])([H])C([H])([H])C([H])([H])C([H])(n3nc(-c4c([H])c([H])c(Oc5c([H])c([H])c(F)c([H])c5F)c([H])c4[H])c(C(=O)N([H])[H])c3N([H])[H])C2([H])[H])C([H])(C([H])([H])[H])C([H])([H])[H])c1[H]

>  <smiles>  (43) 
[H]c1c([H])c(C(=O)N([H])C([H])([H])C([H])([H])C([H])([H])C([H])([H])C([H])([H])C([H])([H])C([H])([H])C(=O)N(C([H])([H])[H])C([H])([H])C([H])([H])C([H])([H])Oc2c([H])c([H])c3c(c2[H])C([H])([H])N(C(=O)C([H])(N([H])C(=O)C([H])(N([H])C([H])([H])[H])C([H])([H])[H])C(C([H])([H])[H])(C([H])([H])[H])C([H])([H])[H])C([H])(C(=O)N([H])C2([H])c4c([H])c([H])c([H])c([H])c4C([H])([H])C([H])([H])C2([H])[H])C3([H])[H])c([H])c(N(C(=O)N2C([H])([H])C([H])([H])C([H])([H])C([H])(n3nc(-c4c([H])c([H])c(Oc5c([H])c([H])c(F)c([H])c5F)c([H])c4[H])c(C(=O)N([H])[H])c3N([H])[H])C2([H])[H])C([H])(C([H])([H])[H])C([H])([H])[H])c1[H]

$$$$
43:0:0
     RDKit          3D

 92 99  0  0  1  0  0  0  0  0999 V2000
  -28.8850  -22.0470   21.7730 C   0  0  0  0  0  1  0  0  0  0  0  0
  -28.9650  -22.0350   20.2310 C   0  0  0  0  0  3  0  0  0  0  0  0
  -32.4270  -20.9860   18.8630 C   0  0  0  0  0  3  0  0  0  0  0  0
  -32.6760  -19.6330   18.7610 C   0  0  0  0  0  3  0  0  0  0  0  0
  -31.2000  -21.4190   19.3640 C   0  0  0  0  0  3  0  0  0  0  0  0
  -31.7430  -18.7070   19.2220 C   0  0  0  0  0  3  0  0  0  0  0  0
  -30.1310  -20.6220   19.8580 C   0  0  0  0  0  0  0  0  0  0  0  0
  -30.4990  -18.9640   19.8790 C   0  0  0  0  0  0  0  0  0  0  0  0
  -30.7440  -15.8740   20.1860 C   0  0  0  0  0  0  0  0  0  0  0  0
  -30.7470  -13.3260   19.3670 C   0  0  0  0  0  2  0  0  0  0  0  0
  -29.8610  -12.9610   18.1450 C   0  0  0  0  0  2  0  0  0  0  0  0
  -28.4330  -12.6200   18.5900 C   0  0  0  0  0  2  0  0  0  0  0  0
  -27.9340  -13.6180   19.6610 C   0  0  0  0  0  3  0  0  0  0  0  0
  -28.9680  -13.9240   20.7730 C   0  0  0  0  0  2  0  0  0  0  0  0
  -30.1550  -14.5300   20.1190 N   0  0  0  0  0  0  0  0  0  0  0  0
  -31.9740  -15.7110   20.0440 O   0  0  0  0  0  0  0  0  0  0  0  0
  -30.0990  -17.3210   20.2530 N   0  0  0  0  0  0  0  0  0  0  0  0
  -29.1230  -17.2310   20.5040 H   0  0  0  0  0  0  0  0  0  0  0  0
  -25.5830  -14.1740   20.4370 C   0  0  0  0  0  0  0  0  0  0  0  0
  -24.5060  -13.4090   20.7820 C   0  0  0  0  0  0  0  0  0  0  0  0
  -24.9510  -12.0520   20.7290 C   0  0  0  0  0  0  0  0  0  0  0  0
  -26.6120  -13.2900   20.1800 N   0  0  0  0  0  0  0  0  0  0  0  0
  -26.2450  -12.0040   20.4240 N   0  0  0  0  0  0  0  0  0  0  0  0
  -24.1970  -10.8020   20.8970 C   0  0  0  0  0  0  0  0  0  0  0  0
  -24.5820   -9.8280   21.8450 C   0  0  0  0  0  3  0  0  0  0  0  0
  -23.8290   -8.6440   22.0020 C   0  0  0  0  0  3  0  0  0  0  0  0
  -22.6770   -8.4240   21.2090 C   0  0  0  0  0  0  0  0  0  0  0  0
  -22.3120   -9.3830   20.2500 C   0  0  0  0  0  3  0  0  0  0  0  0
  -23.0650  -10.5590   20.0910 C   0  0  0  0  0  3  0  0  0  0  0  0
  -21.8990   -7.2910   21.2720 O   0  0  0  0  0  0  0  0  0  0  0  0
  -21.7650   -6.5750   22.4340 C   0  0  0  0  0  0  0  0  0  0  0  0
  -21.2790   -7.1650   23.6210 C   0  0  0  0  0  3  0  0  0  0  0  0
  -21.0910   -6.3770   24.7740 C   0  0  0  0  0  3  0  0  0  0  0  0
  -21.3770   -4.9990   24.7410 C   0  0  0  0  0  0  0  0  0  0  0  0
  -21.8550   -4.4070   23.5570 C   0  0  0  0  0  3  0  0  0  0  0  0
  -22.0450   -5.1940   22.4080 C   0  0  0  0  0  0  0  0  0  0  0  0
  -22.4890   -4.6170   21.2650 F   0  0  0  0  0  0  0  0  0  0  0  0
  -21.1860   -4.2400   25.8450 F   0  0  0  0  0  0  0  0  0  0  0  0
  -23.1180  -13.9090   21.0420 C   0  0  0  0  0  0  0  0  0  0  0  0
  -22.3710  -13.2280   21.9050 N   0  0  0  0  0  0  0  0  0  0  0  0
  -22.7040  -14.9390   20.5140 O   0  0  0  0  0  0  0  0  0  0  0  0
  -22.7200  -12.3970   22.3600 H   0  0  0  0  0  0  0  0  0  0  0  0
  -21.4380  -13.5480   22.1170 H   0  0  0  0  0  0  0  0  0  0  0  0
  -25.7650  -15.5480   20.2860 N   0  0  0  0  0  0  0  0  0  0  0  0
  -24.9950  -16.1990   20.3860 H   0  0  0  0  0  0  0  0  0  0  0  0
  -26.6140  -15.9780   19.9470 H   0  0  0  0  0  0  0  0  0  0  0  0
  -27.2100  -20.1950   20.2180 C   0  0  0  0  0  1  0  0  0  0  0  0
  -26.5650  -22.4240   19.4710 C   0  0  0  0  0  1  0  0  0  0  0  0
  -27.6950  -21.4790   19.6400 N   0  0  1  0  0  4  0  0  0  0  0  0
  -27.9620  -21.2430   18.6950 H   0  0  0  0  0  0  0  0  0  0  0  0
  -29.0070  -23.9920   19.8380 C   0  0  0  0  0  1  0  0  0  0  0  0
  -28.6870  -25.6640   20.3780 O   0  0  0  0  0  0  0  0  0  0  0  0
  -24.8420  -31.8190   23.1550 C   0  0  0  0  0  0  0  0  0  0  0  0
  -27.6760  -26.8420   20.2150 C   0  0  0  0  0  0  0  0  0  0  0  0
  -23.7690  -30.3860   21.4670 C   0  0  0  0  0  3  0  0  0  0  0  0
  -25.3320  -28.8000   20.0940 C   0  0  0  0  0  0  0  0  0  0  0  0
  -26.3410  -30.6170   21.4450 C   0  0  0  0  0  2  0  0  0  0  0  0
  -26.4850  -29.1910   20.7810 C   0  0  0  0  0  0  0  0  0  0  0  0
  -27.6300  -28.2350   20.8200 C   0  0  0  0  0  3  0  0  0  0  0  0
  -26.4860  -26.6680   19.4630 C   0  0  0  0  0  3  0  0  0  0  0  0
  -25.3710  -27.5680   19.4110 C   0  0  0  0  0  3  0  0  0  0  0  0
  -24.0880  -29.7050   20.1020 C   0  0  0  0  0  2  0  0  0  0  0  0
  -25.0040  -30.9760   22.0760 N   0  0  0  0  0  0  0  0  0  0  0  0
  -23.7210  -32.0740   23.6270 O   0  0  0  0  0  0  0  0  0  0  0  0
  -23.0530  -29.3800   22.4070 C   0  0  0  0  0  0  0  0  0  0  0  0
  -21.7240  -29.2110   22.2620 N   0  0  0  0  0  0  0  0  0  0  0  0
  -23.7050  -28.7520   23.2450 O   0  0  0  0  0  0  0  0  0  0  0  0
  -21.2430  -29.7720   21.5730 H   0  0  0  0  0  0  0  0  0  0  0  0
  -18.3420  -27.9750   22.7500 C   0  0  0  0  0  0  0  0  0  0  0  0
  -20.9030  -28.2470   23.0060 C   0  0  0  0  0  3  0  0  0  0  0  0
  -21.0060  -26.8350   22.3810 C   0  0  0  0  0  2  0  0  0  0  0  0
  -19.9000  -26.5470   21.3610 C   0  0  0  0  0  2  0  0  0  0  0  0
  -18.5220  -26.6570   22.0180 C   0  0  0  0  0  2  0  0  0  0  0  0
  -19.4590  -28.7300   23.2010 C   0  0  0  0  0  0  0  0  0  0  0  0
  -19.2320  -29.9610   23.8530 C   0  0  0  0  0  3  0  0  0  0  0  0
  -17.9240  -30.4390   24.0560 C   0  0  0  0  0  3  0  0  0  0  0  0
  -16.8230  -29.6820   23.6160 C   0  0  0  0  0  3  0  0  0  0  0  0
  -17.0330  -28.4530   22.9690 C   0  0  0  0  0  3  0  0  0  0  0  0
  -26.0550  -32.5140   23.8440 C   0  0  0  0  0  3  0  0  0  0  0  0
  -26.5220  -31.7750   25.1600 C   0  0  1  0  0  0  0  0  0  0  0  0
  -25.3780  -31.5220   26.1710 C   0  0  0  0  0  1  0  0  0  0  0  0
  -27.1640  -30.4080   24.8350 C   0  0  0  0  0  1  0  0  0  0  0  0
  -27.6130  -32.6080   25.8720 C   0  0  0  0  0  1  0  0  0  0  0  0
  -25.6740  -33.9030   24.1620 N   0  0  0  0  0  0  0  0  0  0  0  0
  -25.9830  -34.9790   23.4270 C   0  0  0  0  0  0  0  0  0  0  0  0
  -26.6790  -34.9100   22.4120 O   0  0  0  0  0  0  0  0  0  0  0  0
  -25.0530  -34.0270   24.9490 H   0  0  0  0  0  0  0  0  0  0  0  0
  -24.1890  -36.7130   23.0790 C   0  0  0  0  0  1  0  0  0  0  0  0
  -25.4420  -36.3510   23.8880 C   0  0  0  0  0  3  0  0  0  0  0  0
  -27.5350  -37.3290   24.7260 C   0  0  0  0  0  1  0  0  0  0  0  0
  -26.4310  -37.4450   23.7780 N   0  0  0  0  0  0  0  0  0  0  0  0
  -25.9880  -38.3500   23.9170 H   0  0  0  0  0  0  0  0  0  0  0  0
  2  1  1  0
  3  5  1  0
  4  3  2  0
  4  6  1  0
  5  7  2  0
  6  8  2  0
  7  8  1  0
  7  2  1  0
  8 17  1  0
  9 17  1  0
 10 15  1  0
 11 12  1  0
 11 10  1  0
 13 12  1  0
 13 22  1  0
 13 14  1  0
 15  9  1  0
 15 14  1  0
 16  9  2  0
 17 18  1  0
 19 20  2  0
 20 39  1  0
 21 20  1  0
 21 24  1  0
 22 23  1  0
 22 19  1  0
 23 21  2  0
 24 25  1  0
 25 26  2  0
 27 30  1  0
 27 26  1  0
 28 27  2  0
 29 28  1  0
 29 24  2  0
 30 31  1  0
 31 32  1  0
 32 33  2  0
 34 33  1  0
 34 38  1  0
 35 34  2  0
 36 31  2  0
 36 35  1  0
 37 36  1  0
 39 40  1  0
 40 43  1  0
 40 42  1  0
 41 39  2  0
 44 45  1  0
 44 19  1  0
 46 44  1  0
 48 49  1  0
 49 47  1  0
 49  2  1  0
 49 50  1  6
 51 52  1  0
 53 64  2  0
 54 52  1  0
 54 59  1  0
 55 63  1  0
 55 65  1  0
 56 62  1  0
 56 58  1  0
 57 63  1  0
 58 59  2  0
 58 57  1  0
 60 54  2  0
 61 60  1  0
 61 56  2  0
 62 55  1  0
 63 53  1  0
 65 67  2  0
 66 65  1  0
 68 66  1  0
 69 78  2  0
 69 74  1  0
 70 66  1  0
 70 74  1  0
 71 70  1  0
 72 73  1  0
 72 71  1  0
 73 69  1  0
 74 75  2  0
 75 76  1  0
 77 76  2  0
 78 77  1  0
 79 53  1  0
 79 84  1  0
 79 80  1  0
 80 83  1  1
 80 81  1  0
 82 80  1  0
 84 87  1  0
 85 89  1  0
 85 84  1  0
 86 85  2  0
 89 88  1  0
 91 89  1  0
 91 92  1  0
 91 90  1  0
M  ISO  4   9 100  17 100  51 101  52 101
M  END
>  <TORSDO>  (44) 
F 19

>  <SCORE>  (44) 
-15.335

>  <name>  (44) 
43

>  <ligand_id>  (44) 
43

>  <original_smiles>  (44) 
[H]c1c([H])c([H])c(C(C([H])([H])[H])(C([H])([H])Oc2c([H])c([H])c3c(c2[H])C([H])([H])N(C(=O)C([H])(N([H])C(=O)C([H])(N([H])C([H])([H])[H])C([H])([H])[H])C(C([H])([H])[H])(C([H])([H])[H])C([H])([H])[H])C([H])(C(=O)N([H])C2([H])c4c([H])c([H])c([H])c([H])c4C([H])([H])C([H])([H])C2([H])[H])C3([H])[H])[N+]([H])(C([H])([H])[H])C([H])([H])[H])c(N([H])C(=O)N2C([H])([H])C([H])([H])C([H])([H])C([H])(n3nc(-c4c([H])c([H])c(Oc5c([H])c([H])c(F)c([H])c5F)c([H])c4[H])c(C(=O)N([H])[H])c3N([H])[H])C2([H])[H])c1[H]

>  <smiles>  (44) 
[H]c1c([H])c([H])c(C(C([H])([H])[H])(C([H])([H])Oc2c([H])c([H])c3c(c2[H])C([H])([H])N(C(=O)C([H])(N([H])C(=O)C([H])(N([H])C([H])([H])[H])C([H])([H])[H])C(C([H])([H])[H])(C([H])([H])[H])C([H])([H])[H])C([H])(C(=O)N([H])C2([H])c4c([H])c([H])c([H])c([H])c4C([H])([H])C([H])([H])C2([H])[H])C3([H])[H])[N+]([H])(C([H])([H])[H])C([H])([H])[H])c(N([H])C(=O)N2C([H])([H])C([H])([H])C([H])([H])C([H])(n3nc(-c4c([H])c([H])c(Oc5c([H])c([H])c(F)c([H])c5F)c([H])c4[H])c(C(=O)N([H])[H])c3N([H])[H])C2([H])[H])c1[H]

$$$$
44:0:0
     RDKit          3D

 93101  0  0  1  0  0  0  0  0999 V2000
  -28.8520  -19.9400   20.0470 C   0  0  0  0  0  3  0  0  0  0  0  0
  -30.9730  -18.3740   20.8900 C   0  0  0  0  0  3  0  0  0  0  0  0
  -28.7790  -18.4830   19.9910 C   0  0  0  0  0  0  0  0  0  0  0  0
  -29.8480  -17.5890   20.4590 C   0  0  0  0  0  0  0  0  0  0  0  0
  -29.9750  -20.7050   20.4350 C   0  0  0  0  0  0  0  0  0  0  0  0
  -31.0430  -19.8310   20.8500 C   0  0  0  0  0  0  0  0  0  0  0  0
  -32.2130  -20.4080   21.2210 F   0  0  0  0  0  0  0  0  0  0  0  0
  -30.5590  -14.8850   20.0910 C   0  0  0  0  0  0  0  0  0  0  0  0
  -30.3460  -12.6240   18.9450 C   0  0  0  0  0  2  0  0  0  0  0  0
  -29.3250  -12.7100   17.7860 C   0  0  0  0  0  2  0  0  0  0  0  0
  -27.8900  -12.4750   18.2960 C   0  0  0  0  0  2  0  0  0  0  0  0
  -27.5800  -13.2650   19.5940 C   0  0  0  0  0  3  0  0  0  0  0  0
  -28.7230  -13.1460   20.6280 C   0  0  0  0  0  2  0  0  0  0  0  0
  -29.9530  -13.6270   19.9770 N   0  0  0  0  0  0  0  0  0  0  0  0
  -31.7430  -14.9680   19.7440 O   0  0  0  0  0  0  0  0  0  0  0  0
  -29.7670  -16.0350   20.4000 N   0  0  0  0  0  0  0  0  0  0  0  0
  -28.8440  -15.7220   20.6530 H   0  0  0  0  0  0  0  0  0  0  0  0
  -25.2070  -13.7490   20.4320 C   0  0  0  0  0  0  0  0  0  0  0  0
  -24.1830  -12.9580   20.8470 C   0  0  0  0  0  0  0  0  0  0  0  0
  -24.6780  -11.6250   20.7670 C   0  0  0  0  0  0  0  0  0  0  0  0
  -26.2730  -12.9170   20.1480 N   0  0  0  0  0  0  0  0  0  0  0  0
  -25.9590  -11.6210   20.4070 N   0  0  0  0  0  0  0  0  0  0  0  0
  -23.9780  -10.3540   20.9540 C   0  0  0  0  0  0  0  0  0  0  0  0
  -24.4000   -9.4170   21.9190 C   0  0  0  0  0  3  0  0  0  0  0  0
  -23.6910   -8.2100   22.0960 C   0  0  0  0  0  3  0  0  0  0  0  0
  -22.5480   -7.9370   21.3090 C   0  0  0  0  0  0  0  0  0  0  0  0
  -22.1450   -8.8650   20.3340 C   0  0  0  0  0  3  0  0  0  0  0  0
  -22.8540  -10.0620   20.1540 C   0  0  0  0  0  3  0  0  0  0  0  0
  -21.8150   -6.7790   21.3960 O   0  0  0  0  0  0  0  0  0  0  0  0
  -21.6600   -6.1150   22.5860 C   0  0  0  0  0  0  0  0  0  0  0  0
  -21.0590   -6.7280   23.7070 C   0  0  0  0  0  3  0  0  0  0  0  0
  -20.8590   -5.9900   24.8910 C   0  0  0  0  0  3  0  0  0  0  0  0
  -21.2460   -4.6370   24.9500 C   0  0  0  0  0  0  0  0  0  0  0  0
  -21.8390   -4.0240   23.8340 C   0  0  0  0  0  3  0  0  0  0  0  0
  -22.0440   -4.7600   22.6530 C   0  0  0  0  0  0  0  0  0  0  0  0
  -22.5970   -4.1600   21.5730 F   0  0  0  0  0  0  0  0  0  0  0  0
  -21.0430   -3.9240   26.0820 F   0  0  0  0  0  0  0  0  0  0  0  0
  -22.7950  -13.4180   21.1850 C   0  0  0  0  0  0  0  0  0  0  0  0
  -22.1230  -12.7160   22.0890 N   0  0  0  0  0  0  0  0  0  0  0  0
  -22.3170  -14.4380   20.6860 O   0  0  0  0  0  0  0  0  0  0  0  0
  -22.5240  -11.8950   22.5160 H   0  0  0  0  0  0  0  0  0  0  0  0
  -21.1930  -13.0060   22.3600 H   0  0  0  0  0  0  0  0  0  0  0  0
  -25.2750  -15.1060   20.2370 N   0  0  0  0  0  0  0  0  0  0  0  0
  -24.4480  -15.6790   20.3450 H   0  0  0  0  0  0  0  0  0  0  0  0
  -26.0390  -15.6000   19.8000 H   0  0  0  0  0  0  0  0  0  0  0  0
  -26.4330  -18.9690   18.9250 C   0  0  0  0  0  1  0  0  0  0  0  0
  -26.8700  -16.7900   19.9500 C   0  0  0  0  0  1  0  0  0  0  0  0
  -28.1580  -17.6070   17.8100 C   0  0  0  0  0  1  0  0  0  0  0  0
  -27.5710  -17.9470   19.1990 C   0  0  2  0  0  0  0  0  0  0  0  0
  -30.1080  -22.1590   20.3230 O   0  0  0  0  0  0  0  0  0  0  0  0
  -29.0890  -23.2800   20.5870 C   0  0  0  0  0  2  0  0  0  0  0  0
  -29.0830  -24.7560   19.7790 C   0  0  0  0  0  2  0  0  0  0  0  0
  -28.8630  -26.1890   20.3340 O   0  0  0  0  0  0  0  0  0  0  0  0
  -24.7050  -31.6150   23.0070 C   0  0  0  0  0  0  0  0  0  0  0  0
  -27.7140  -27.0430   20.1640 C   0  0  0  0  0  0  0  0  0  0  0  0
  -23.6680  -30.1410   21.3210 C   0  0  0  0  0  3  0  0  0  0  0  0
  -25.2740  -28.6260   19.9970 C   0  0  0  0  0  0  0  0  0  0  0  0
  -26.2070  -30.5420   21.2910 C   0  0  0  0  0  2  0  0  0  0  0  0
  -26.3890  -29.1510   20.6610 C   0  0  0  0  0  0  0  0  0  0  0  0
  -27.6000  -28.3720   20.7330 C   0  0  0  0  0  3  0  0  0  0  0  0
  -26.5630  -26.6030   19.4660 C   0  0  0  0  0  3  0  0  0  0  0  0
  -25.3720  -27.3630   19.3890 C   0  0  0  0  0  3  0  0  0  0  0  0
  -23.9990  -29.4560   19.9660 C   0  0  0  0  0  2  0  0  0  0  0  0
  -24.8750  -30.7890   21.9290 N   0  0  0  0  0  0  0  0  0  0  0  0
  -23.5800  -31.8520   23.4700 O   0  0  0  0  0  0  0  0  0  0  0  0
  -22.9890  -29.1140   22.2590 C   0  0  0  0  0  0  0  0  0  0  0  0
  -21.6640  -28.9360   22.1130 N   0  0  0  0  0  0  0  0  0  0  0  0
  -23.6550  -28.4790   23.0810 O   0  0  0  0  0  0  0  0  0  0  0  0
  -21.1850  -29.5040   21.4280 H   0  0  0  0  0  0  0  0  0  0  0  0
  -18.2660  -27.8030   22.6600 C   0  0  0  0  0  0  0  0  0  0  0  0
  -20.8390  -27.9790   22.8560 C   0  0  0  0  0  3  0  0  0  0  0  0
  -20.8800  -26.5800   22.1990 C   0  0  0  0  0  2  0  0  0  0  0  0
  -19.7370  -26.3450   21.2060 C   0  0  0  0  0  2  0  0  0  0  0  0
  -18.3820  -26.4900   21.9050 C   0  0  0  0  0  2  0  0  0  0  0  0
  -19.4200  -28.5100   23.0940 C   0  0  0  0  0  0  0  0  0  0  0  0
  -19.2560  -29.7400   23.7650 C   0  0  0  0  0  3  0  0  0  0  0  0
  -17.9710  -30.2630   24.0070 C   0  0  0  0  0  3  0  0  0  0  0  0
  -16.8340  -29.5530   23.5860 C   0  0  0  0  0  3  0  0  0  0  0  0
  -16.9820  -28.3240   22.9200 C   0  0  0  0  0  3  0  0  0  0  0  0
  -25.9140  -32.3190   23.6960 C   0  0  0  0  0  3  0  0  0  0  0  0
  -26.4390  -31.5450   24.9690 C   0  0  1  0  0  0  0  0  0  0  0  0
  -25.3280  -31.1980   25.9880 C   0  0  0  0  0  1  0  0  0  0  0  0
  -27.1330  -30.2240   24.5620 C   0  0  0  0  0  1  0  0  0  0  0  0
  -27.5070  -32.3950   25.6970 C   0  0  0  0  0  1  0  0  0  0  0  0
  -25.4930  -33.6800   24.0640 N   0  0  0  0  0  0  0  0  0  0  0  0
  -25.7690  -34.7830   23.3560 C   0  0  0  0  0  0  0  0  0  0  0  0
  -26.4700  -34.7660   22.3420 O   0  0  0  0  0  0  0  0  0  0  0  0
  -24.8660  -33.7610   24.8520 H   0  0  0  0  0  0  0  0  0  0  0  0
  -23.9210  -36.4600   23.0240 C   0  0  0  0  0  1  0  0  0  0  0  0
  -25.1710  -36.1160   23.8480 C   0  0  0  0  0  3  0  0  0  0  0  0
  -27.2110  -37.1310   24.7660 C   0  0  0  0  0  1  0  0  0  0  0  0
  -26.1260  -37.2450   23.7960 N   0  0  0  0  0  0  0  0  0  0  0  0
  -25.6500  -38.1280   23.9550 H   0  0  0  0  0  0  0  0  0  0  0  0
  1  5  1  0
  3  1  2  0
  3  4  1  0
  4  2  2  0
  5  6  2  0
  6  2  1  0
  6  7  1  0
  8 16  1  0
  9 14  1  0
 10 11  1  0
 10  9  1  0
 12 11  1  0
 12 21  1  0
 12 13  1  0
 14  8  1  0
 14 13  1  0
 15  8  2  0
 16  4  1  0
 16 17  1  0
 18 19  2  0
 19 38  1  0
 20 19  1  0
 20 23  1  0
 21 22  1  0
 21 18  1  0
 22 20  2  0
 23 24  1  0
 24 25  2  0
 26 29  1  0
 26 25  1  0
 27 26  2  0
 28 27  1  0
 28 23  2  0
 29 30  1  0
 30 35  2  0
 30 31  1  0
 31 32  2  0
 32 33  1  0
 33 37  1  0
 34 33  2  0
 35 34  1  0
 36 35  1  0
 38 39  1  0
 39 42  1  0
 39 41  1  0
 40 38  2  0
 43 44  1  0
 43 18  1  0
 45 43  1  0
 49 46  1  6
 48 49  1  0
 49 47  1  0
 49  3  1  0
 50  5  1  0
 50 51  1  0
 52 53  1  0
 52 51  1  0
 54 65  2  0
 55 53  1  0
 55 60  1  0
 56 64  1  0
 56 66  1  0
 57 59  1  0
 58 64  1  0
 59 60  2  0
 59 58  1  0
 61 55  2  0
 62 61  1  0
 62 57  2  0
 63 57  1  0
 63 56  1  0
 64 54  1  0
 66 68  2  0
 67 66  1  0
 69 67  1  0
 70 79  2  0
 70 75  1  0
 71 67  1  0
 71 75  1  0
 72 71  1  0
 73 74  1  0
 73 72  1  0
 74 70  1  0
 75 76  2  0
 76 77  1  0
 78 77  2  0
 79 78  1  0
 80 54  1  0
 80 85  1  0
 80 81  1  0
 81 84  1  1
 81 82  1  0
 83 81  1  0
 85 88  1  0
 86 90  1  0
 86 85  1  0
 87 86  2  0
 90 89  1  0
 92 90  1  0
 92 93  1  0
 92 91  1  0
M  ISO  4   8 100  16 100  52 101  53 101
M  END
>  <TORSDO>  (45) 
F 20

>  <SCORE>  (45) 
-13.239

>  <name>  (45) 
44

>  <ligand_id>  (45) 
44

>  <original_smiles>  (45) 
[H]c1c([H])c([H])c2c(c1[H])C([H])([H])C([H])([H])C([H])([H])C2([H])N([H])C(=O)C1([H])N(C(=O)C([H])(N([H])C(=O)C([H])(N([H])C([H])([H])[H])C([H])([H])[H])C(C([H])([H])[H])(C([H])([H])[H])C([H])([H])[H])C([H])([H])c2c([H])c(OC([H])([H])C([H])([H])Oc3c([H])c(C(C([H])([H])[H])(C([H])([H])[H])C([H])([H])[H])c(N([H])C(=O)N4C([H])([H])C([H])([H])C([H])([H])C([H])(n5nc(-c6c([H])c([H])c(Oc7c([H])c([H])c(F)c([H])c7F)c([H])c6[H])c(C(=O)N([H])[H])c5N([H])[H])C4([H])[H])c([H])c3F)c([H])c([H])c2C1([H])[H]

>  <smiles>  (45) 
[H]c1c([H])c([H])c2c(c1[H])C([H])([H])C([H])([H])C([H])([H])C2([H])N([H])C(=O)C1([H])N(C(=O)C([H])(N([H])C(=O)C([H])(N([H])C([H])([H])[H])C([H])([H])[H])C(C([H])([H])[H])(C([H])([H])[H])C([H])([H])[H])C([H])([H])c2c([H])c(OC([H])([H])C([H])([H])Oc3c([H])c(C(C([H])([H])[H])(C([H])([H])[H])C([H])([H])[H])c(N([H])C(=O)N4C([H])([H])C([H])([H])C([H])([H])C([H])(n5nc(-c6c([H])c([H])c(Oc7c([H])c([H])c(F)c([H])c7F)c([H])c6[H])c(C(=O)N([H])[H])c5N([H])[H])C4([H])[H])c([H])c3F)c([H])c([H])c2C1([H])[H]

$$$$
45:0:0
     RDKit          3D

 98106  0  0  1  0  0  0  0  0999 V2000
  -29.7730  -17.3080   18.8460 C   0  0  0  0  0  3  0  0  0  0  0  0
  -29.7470  -19.7580   18.9140 C   0  0  0  0  0  3  0  0  0  0  0  0
  -30.3490  -18.4650   20.9130 C   0  0  0  0  0  0  0  0  0  0  0  0
  -29.5420  -18.5500   18.2150 C   0  0  0  0  0  0  0  0  0  0  0  0
  -30.1780  -17.2200   20.1980 C   0  0  0  0  0  0  0  0  0  0  0  0
  -30.1430  -19.7450   20.2640 C   0  0  0  0  0  0  0  0  0  0  0  0
  -30.7530  -18.4150   22.3780 C   0  0  0  0  0  1  0  0  0  0  0  0
  -30.9760  -14.8000   20.3960 C   0  0  0  0  0  0  0  0  0  0  0  0
  -30.7400  -12.5440   19.3910 C   0  0  0  0  0  2  0  0  0  0  0  0
  -29.8340  -12.6730   18.1470 C   0  0  0  0  0  2  0  0  0  0  0  0
  -28.3500  -12.5410   18.5440 C   0  0  0  0  0  2  0  0  0  0  0  0
  -27.9750  -13.4330   19.7600 C   0  0  0  0  0  3  0  0  0  0  0  0
  -29.0060  -13.2930   20.9060 C   0  0  0  0  0  2  0  0  0  0  0  0
  -30.3350  -13.5890   20.3540 N   0  0  0  0  0  0  0  0  0  0  0  0
  -32.1270  -14.9270   19.9680 O   0  0  0  0  0  0  0  0  0  0  0  0
  -30.2590  -15.8920   20.8180 N   0  0  0  0  0  0  0  0  0  0  0  0
  -29.4800  -15.6660   21.4190 H   0  0  0  0  0  0  0  0  0  0  0  0
  -25.5810  -14.0740   20.4370 C   0  0  0  0  0  0  0  0  0  0  0  0
  -24.4920  -13.3230   20.7900 C   0  0  0  0  0  0  0  0  0  0  0  0
  -24.9280  -11.9620   20.7670 C   0  0  0  0  0  0  0  0  0  0  0  0
  -26.6120  -13.1740   20.2220 N   0  0  0  0  0  0  0  0  0  0  0  0
  -26.2230  -11.8990   20.4810 N   0  0  0  0  0  0  0  0  0  0  0  0
  -24.1720  -10.7140   20.9470 C   0  0  0  0  0  0  0  0  0  0  0  0
  -24.5580   -9.7510   21.9050 C   0  0  0  0  0  3  0  0  0  0  0  0
  -23.8070   -8.5690   22.0730 C   0  0  0  0  0  3  0  0  0  0  0  0
  -22.6560   -8.3410   21.2810 C   0  0  0  0  0  0  0  0  0  0  0  0
  -22.2880   -9.2940   20.3150 C   0  0  0  0  0  3  0  0  0  0  0  0
  -23.0410  -10.4680   20.1450 C   0  0  0  0  0  3  0  0  0  0  0  0
  -21.8770   -7.2120   21.3570 O   0  0  0  0  0  0  0  0  0  0  0  0
  -21.7570   -6.4970   22.5210 C   0  0  0  0  0  0  0  0  0  0  0  0
  -21.2550   -7.0800   23.7060 C   0  0  0  0  0  3  0  0  0  0  0  0
  -21.0830   -6.2900   24.8610 C   0  0  0  0  0  3  0  0  0  0  0  0
  -21.4030   -4.9190   24.8320 C   0  0  0  0  0  0  0  0  0  0  0  0
  -21.8960   -4.3360   23.6520 C   0  0  0  0  0  3  0  0  0  0  0  0
  -22.0710   -5.1230   22.5000 C   0  0  0  0  0  0  0  0  0  0  0  0
  -22.5280   -4.5510   21.3600 F   0  0  0  0  0  0  0  0  0  0  0  0
  -21.2300   -4.1600   25.9390 F   0  0  0  0  0  0  0  0  0  0  0  0
  -23.1000  -13.8290   21.0360 C   0  0  0  0  0  0  0  0  0  0  0  0
  -22.3430  -13.1570   21.8970 N   0  0  0  0  0  0  0  0  0  0  0  0
  -22.6900  -14.8590   20.5010 O   0  0  0  0  0  0  0  0  0  0  0  0
  -22.6870  -12.3290   22.3610 H   0  0  0  0  0  0  0  0  0  0  0  0
  -21.4080  -13.4800   22.1000 H   0  0  0  0  0  0  0  0  0  0  0  0
  -25.7740  -15.4410   20.2600 N   0  0  0  0  0  0  0  0  0  0  0  0
  -25.0130  -16.1040   20.3590 H   0  0  0  0  0  0  0  0  0  0  0  0
  -26.6390  -15.8660   19.9480 H   0  0  0  0  0  0  0  0  0  0  0  0
  -29.5880  -21.3900   22.3570 O   0  0  0  0  0  0  0  0  0  0  0  0
  -31.8070  -21.6690   21.1770 O   0  0  0  0  0  0  0  0  0  0  0  0
  -30.3620  -21.3980   21.1060 S   0  0  1  0  0  0  0  0  0  0  0  0
  -29.6860  -22.7280   20.1460 N   0  0  0  0  0  0  0  0  0  0  0  0
  -28.7180  -22.5050   19.9030 H   0  0  0  0  0  0  0  0  0  0  0  0
  -29.8220  -24.1680   20.6190 C   0  0  0  0  0  3  0  0  0  0  0  0
  -28.7950  -25.2050   19.9920 C   0  0  0  0  0  3  0  0  0  0  0  0
  -28.8550  -26.6290   20.4020 O   0  0  0  0  0  0  0  0  0  0  0  0
  -24.6990  -31.7630   23.3010 C   0  0  0  0  0  0  0  0  0  0  0  0
  -27.7000  -27.4200   20.2860 C   0  0  0  0  0  0  0  0  0  0  0  0
  -23.6560  -30.3410   21.5710 C   0  0  0  0  0  3  0  0  0  0  0  0
  -25.2580  -28.9070   20.1870 C   0  0  0  0  0  0  0  0  0  0  0  0
  -26.1840  -30.7870   21.5410 C   0  0  0  0  0  2  0  0  0  0  0  0
  -26.3640  -29.4350   20.8630 C   0  0  0  0  0  0  0  0  0  0  0  0
  -27.5850  -28.7000   20.9110 C   0  0  0  0  0  3  0  0  0  0  0  0
  -26.5760  -26.9580   19.5600 C   0  0  0  0  0  3  0  0  0  0  0  0
  -25.3670  -27.6750   19.5240 C   0  0  0  0  0  3  0  0  0  0  0  0
  -23.9730  -29.7070   20.1920 C   0  0  0  0  0  2  0  0  0  0  0  0
  -24.8610  -30.9820   22.1940 N   0  0  0  0  0  0  0  0  0  0  0  0
  -23.5750  -31.9750   23.7800 O   0  0  0  0  0  0  0  0  0  0  0  0
  -22.9990  -29.2710   22.4750 C   0  0  0  0  0  0  0  0  0  0  0  0
  -21.6890  -29.0420   22.2860 N   0  0  0  0  0  0  0  0  0  0  0  0
  -23.6690  -28.6470   23.3020 O   0  0  0  0  0  0  0  0  0  0  0  0
  -21.2050  -29.6000   21.5960 H   0  0  0  0  0  0  0  0  0  0  0  0
  -18.3410  -27.7230   22.6400 C   0  0  0  0  0  0  0  0  0  0  0  0
  -20.8780  -28.0510   22.9950 C   0  0  0  0  0  3  0  0  0  0  0  0
  -21.0420  -26.6450   22.3720 C   0  0  0  0  0  2  0  0  0  0  0  0
  -19.9840  -26.3270   21.3120 C   0  0  0  0  0  2  0  0  0  0  0  0
  -18.5800  -26.4050   21.9190 C   0  0  0  0  0  2  0  0  0  0  0  0
  -19.4200  -28.5020   23.1310 C   0  0  0  0  0  0  0  0  0  0  0  0
  -19.1450  -29.7340   23.7640 C   0  0  0  0  0  3  0  0  0  0  0  0
  -17.8210  -30.1900   23.9060 C   0  0  0  0  0  3  0  0  0  0  0  0
  -16.7540  -29.4070   23.4320 C   0  0  0  0  0  3  0  0  0  0  0  0
  -17.0140  -28.1730   22.8080 C   0  0  0  0  0  3  0  0  0  0  0  0
  -25.9140  -32.4440   24.0040 C   0  0  0  0  0  3  0  0  0  0  0  0
  -25.5430  -33.8390   24.2770 N   0  0  0  0  0  0  0  0  0  0  0  0
  -25.8800  -34.8810   23.5070 C   0  0  0  0  0  0  0  0  0  0  0  0
  -26.6040  -34.7730   22.5130 O   0  0  0  0  0  0  0  0  0  0  0  0
  -24.9020  -33.9980   25.0420 H   0  0  0  0  0  0  0  0  0  0  0  0
  -24.0980  -36.5930   23.0360 C   0  0  0  0  0  1  0  0  0  0  0  0
  -25.3250  -36.2640   23.9010 C   0  0  0  0  0  3  0  0  0  0  0  0
  -27.3910  -37.2600   24.7780 C   0  0  0  0  0  1  0  0  0  0  0  0
  -26.3220  -37.3520   23.7880 N   0  0  0  0  0  0  0  0  0  0  0  0
  -25.8760  -38.2600   23.8850 H   0  0  0  0  0  0  0  0  0  0  0  0
  -26.3550  -31.7180   25.3340 C   0  0  1  0  0  0  0  0  0  0  0  0
  -25.1900  -31.4710   26.3200 C   0  0  0  0  0  1  0  0  0  0  0  0
  -27.0080  -30.3510   25.0270 C   0  0  0  0  0  1  0  0  0  0  0  0
  -27.4290  -32.5620   26.0610 C   0  0  0  0  0  1  0  0  0  0  0  0
  -29.0620  -18.5500   16.8950 N   0  0  0  0  0  0  0  0  0  0  0  0
  -27.1660  -20.1970   16.9150 C   0  0  0  0  0  1  0  0  0  0  0  0
  -27.6120  -18.7310   16.7840 C   0  0  0  0  0  2  0  0  0  0  0  0
  -29.7520  -18.5040   14.5110 C   0  0  0  0  0  1  0  0  0  0  0  0
  -29.9650  -19.1220   15.8980 C   0  0  0  0  0  2  0  0  0  0  0  0
  1  5  1  0
  2  6  2  0
  3  7  1  0
  4  1  2  0
  4  2  1  0
  5 16  1  0
  5  3  2  0
  6  3  1  0
  6 48  1  0
  8 16  1  0
  9 14  1  0
 10 11  1  0
 10  9  1  0
 12 11  1  0
 12 21  1  0
 12 13  1  0
 14  8  1  0
 14 13  1  0
 15  8  2  0
 16 17  1  0
 18 19  2  0
 19 38  1  0
 20 19  1  0
 20 23  1  0
 21 18  1  0
 21 22  1  0
 22 20  2  0
 23 24  1  0
 24 25  2  0
 26 29  1  0
 26 25  1  0
 27 26  2  0
 28 27  1  0
 28 23  2  0
 29 30  1  0
 30 31  1  0
 31 32  2  0
 33 32  1  0
 33 37  1  0
 34 33  2  0
 35 30  2  0
 35 34  1  0
 36 35  1  0
 38 39  1  0
 39 42  1  0
 39 41  1  0
 40 38  2  0
 43 44  1  0
 43 18  1  0
 45 43  1  0
 48 47  2  0
 48 46  2  0
 49 51  1  0
 48 49  1  6
 50 49  1  0
 52 53  1  0
 52 51  2  0
 54 65  2  0
 55 53  1  0
 55 60  1  0
 56 64  1  0
 56 66  1  0
 57 63  1  0
 57 59  1  0
 58 64  1  0
 59 60  2  0
 59 58  1  0
 61 55  2  0
 62 61  1  0
 62 57  2  0
 63 56  1  0
 64 54  1  0
 66 68  2  0
 67 66  1  0
 69 67  1  0
 70 79  2  0
 70 75  1  0
 71 67  1  0
 71 75  1  0
 72 71  1  0
 73 74  1  0
 73 72  1  0
 74 70  1  0
 75 76  2  0
 76 77  1  0
 78 77  2  0
 79 78  1  0
 80 54  1  0
 80 81  1  0
 80 90  1  0
 81 84  1  0
 82 86  1  0
 82 81  1  0
 83 82  2  0
 86 85  1  0
 88 89  1  0
 88 86  1  0
 88 87  1  0
 90 93  1  1
 90 91  1  0
 92 90  1  0
 94  4  1  0
 96 94  1  0
 96 95  1  0
 97 98  1  0
 98 94  1  0
M  ISO  4   8 100  16 100  52 101  53 101
M  END
>  <TORSDO>  (46) 
F 23

>  <SCORE>  (46) 
-12.534

>  <name>  (46) 
45

>  <ligand_id>  (46) 
45

>  <original_smiles>  (46) 
[H]c1c([H])c([H])c2c(c1[H])C([H])([H])C([H])([H])C([H])([H])C2([H])N([H])C(=O)C1([H])N(C(=O)C([H])(N([H])C(=O)C([H])(N([H])C([H])([H])[H])C([H])([H])[H])C(C([H])([H])[H])(C([H])([H])[H])C([H])([H])[H])C([H])([H])c2c([H])c(OC([H])([H])C([H])([H])N([H])S(=O)(=O)c3c([H])c(N(C([H])([H])C([H])([H])[H])C([H])([H])C([H])([H])[H])c([H])c(N([H])C(=O)N4C([H])([H])C([H])([H])C([H])([H])C([H])(n5nc(-c6c([H])c([H])c(Oc7c([H])c([H])c(F)c([H])c7F)c([H])c6[H])c(C(=O)N([H])[H])c5N([H])[H])C4([H])[H])c3C([H])([H])[H])c([H])c([H])c2C1([H])[H]

>  <smiles>  (46) 
[H]c1c([H])c([H])c2c(c1[H])C([H])([H])C([H])([H])C([H])([H])C2([H])N([H])C(=O)C1([H])N(C(=O)C([H])(N([H])C(=O)C([H])(N([H])C([H])([H])[H])C([H])([H])[H])C(C([H])([H])[H])(C([H])([H])[H])C([H])([H])[H])C([H])([H])c2c([H])c(OC([H])([H])C([H])([H])N([H])S(=O)(=O)c3c([H])c(N(C([H])([H])C([H])([H])[H])C([H])([H])C([H])([H])[H])c([H])c(N([H])C(=O)N4C([H])([H])C([H])([H])C([H])([H])C([H])(n5nc(-c6c([H])c([H])c(Oc7c([H])c([H])c(F)c([H])c7F)c([H])c6[H])c(C(=O)N([H])[H])c5N([H])[H])C4([H])[H])c3C([H])([H])[H])c([H])c([H])c2C1([H])[H]

$$$$
46:0:0
     RDKit          3D

 91 99  0  0  1  0  0  0  0  0999 V2000
  -30.4790  -21.4990   22.4940 C   0  0  0  0  0  2  0  0  0  0  0  0
  -30.7980  -22.8520   21.8520 C   0  0  0  0  0  2  0  0  0  0  0  0
  -29.5280  -23.7060   21.7460 C   0  0  0  0  0  2  0  0  0  0  0  0
  -29.6900  -24.9870   20.9180 C   0  0  0  0  0  2  0  0  0  0  0  0
  -28.3310  -25.6700   20.7510 C   0  0  0  0  0  2  0  0  0  0  0  0
  -28.4600  -26.9240   20.0940 O   0  0  0  0  0  0  0  0  0  0  0  0
  -24.6520  -31.9510   23.3390 C   0  0  0  0  0  0  0  0  0  0  0  0
  -27.2890  -27.6360   20.1110 C   0  0  0  0  0  0  0  0  0  0  0  0
  -23.4330  -30.5740   21.6850 C   0  0  0  0  0  3  0  0  0  0  0  0
  -24.8770  -29.0880   20.2030 C   0  0  0  0  0  0  0  0  0  0  0  0
  -25.9480  -30.9700   21.4550 C   0  0  0  0  0  2  0  0  0  0  0  0
  -26.0370  -29.6180   20.7820 C   0  0  0  0  0  0  0  0  0  0  0  0
  -27.2500  -28.9000   20.7330 C   0  0  0  0  0  3  0  0  0  0  0  0
  -26.1150  -27.1110   19.5290 C   0  0  0  0  0  3  0  0  0  0  0  0
  -24.9070  -27.8310   19.5760 C   0  0  0  0  0  3  0  0  0  0  0  0
  -23.6240  -29.9300   20.2880 C   0  0  0  0  0  2  0  0  0  0  0  0
  -24.6960  -31.1780   22.2180 N   0  0  0  0  0  0  0  0  0  0  0  0
  -23.5770  -32.2020   23.9010 O   0  0  0  0  0  0  0  0  0  0  0  0
  -22.8060  -29.5260   22.6330 C   0  0  0  0  0  0  0  0  0  0  0  0
  -21.4850  -29.3230   22.5060 N   0  0  0  0  0  0  0  0  0  0  0  0
  -23.5050  -28.8980   23.4330 O   0  0  0  0  0  0  0  0  0  0  0  0
  -20.9840  -29.8810   21.8300 H   0  0  0  0  0  0  0  0  0  0  0  0
  -18.1350  -28.0600   22.9880 C   0  0  0  0  0  0  0  0  0  0  0  0
  -20.6870  -28.3620   23.2660 C   0  0  0  0  0  3  0  0  0  0  0  0
  -20.8170  -26.9400   22.6730 C   0  0  0  0  0  2  0  0  0  0  0  0
  -19.7230  -26.6090   21.6530 C   0  0  0  0  0  2  0  0  0  0  0  0
  -18.3380  -26.7220   22.2970 C   0  0  0  0  0  2  0  0  0  0  0  0
  -19.2390  -28.8380   23.4290 C   0  0  0  0  0  0  0  0  0  0  0  0
  -18.9970  -30.0900   24.0340 C   0  0  0  0  0  3  0  0  0  0  0  0
  -17.6840  -30.5670   24.2020 C   0  0  0  0  0  3  0  0  0  0  0  0
  -16.5950  -29.7870   23.7780 C   0  0  0  0  0  3  0  0  0  0  0  0
  -16.8210  -28.5350   23.1770 C   0  0  0  0  0  3  0  0  0  0  0  0
  -25.9440  -32.5780   23.9510 C   0  0  0  0  0  3  0  0  0  0  0  0
  -25.6370  -33.9730   24.2920 N   0  0  0  0  0  0  0  0  0  0  0  0
  -25.9970  -35.0320   23.5550 C   0  0  0  0  0  0  0  0  0  0  0  0
  -26.6940  -34.9370   22.5400 O   0  0  0  0  0  0  0  0  0  0  0  0
  -25.0250  -34.1210   25.0800 H   0  0  0  0  0  0  0  0  0  0  0  0
  -24.3130  -36.8540   23.1510 C   0  0  0  0  0  1  0  0  0  0  0  0
  -25.5060  -36.4170   24.0160 C   0  0  0  0  0  3  0  0  0  0  0  0
  -27.6090  -37.2480   24.9730 C   0  0  0  0  0  1  0  0  0  0  0  0
  -26.5570  -37.4570   23.9810 N   0  0  0  0  0  0  0  0  0  0  0  0
  -26.1560  -38.3780   24.1330 H   0  0  0  0  0  0  0  0  0  0  0  0
  -26.4760  -31.7960   25.2160 C   0  0  1  0  0  0  0  0  0  0  0  0
  -25.3930  -31.5460   26.2910 C   0  0  0  0  0  1  0  0  0  0  0  0
  -27.0550  -30.4230   24.8030 C   0  0  0  0  0  1  0  0  0  0  0  0
  -27.6310  -32.5870   25.8740 C   0  0  0  0  0  1  0  0  0  0  0  0
  -31.5950  -20.6240   22.3580 O   0  0  0  0  0  0  0  0  0  0  0  0
  -29.9200  -17.2870   22.2450 C   0  0  0  0  0  3  0  0  0  0  0  0
  -32.0580  -17.2030   21.0860 C   0  0  0  0  0  3  0  0  0  0  0  0
  -30.1640  -18.6280   22.5940 C   0  0  0  0  0  3  0  0  0  0  0  0
  -32.2940  -18.5490   21.4270 C   0  0  0  0  0  3  0  0  0  0  0  0
  -30.8430  -16.5780   21.4530 C   0  0  0  0  0  0  0  0  0  0  0  0
  -31.3340  -19.2880   22.1440 C   0  0  0  0  0  0  0  0  0  0  0  0
  -30.7920  -14.6180   19.9380 C   0  0  0  0  0  0  0  0  0  0  0  0
  -30.2870  -12.6540   18.5340 C   0  0  0  0  0  2  0  0  0  0  0  0
  -29.2140  -12.9730   17.4770 C   0  0  0  0  0  2  0  0  0  0  0  0
  -27.8010  -12.7750   18.0550 C   0  0  0  0  0  2  0  0  0  0  0  0
  -27.6110  -13.4940   19.4150 C   0  0  0  0  0  3  0  0  0  0  0  0
  -28.7760  -13.1610   20.3740 C   0  0  0  0  0  2  0  0  0  0  0  0
  -30.0500  -13.5030   19.7100 N   0  0  0  0  0  0  0  0  0  0  0  0
  -31.7010  -14.9830   19.1860 O   0  0  0  0  0  0  0  0  0  0  0  0
  -30.5030  -15.2520   21.0850 N   0  0  0  0  0  0  0  0  0  0  0  0
  -29.7600  -14.8210   21.6130 H   0  0  0  0  0  0  0  0  0  0  0  0
  -25.2740  -14.0140   20.3700 C   0  0  0  0  0  0  0  0  0  0  0  0
  -24.2660  -13.2000   20.8150 C   0  0  0  0  0  0  0  0  0  0  0  0
  -24.7540  -11.8640   20.6900 C   0  0  0  0  0  0  0  0  0  0  0  0
  -26.3130  -13.1710   20.0090 N   0  0  0  0  0  0  0  0  0  0  0  0
  -26.0070  -11.8710   20.2550 N   0  0  0  0  0  0  0  0  0  0  0  0
  -24.0820  -10.5760   20.9050 C   0  0  0  0  0  0  0  0  0  0  0  0
  -24.5750   -9.6320   21.8320 C   0  0  0  0  0  3  0  0  0  0  0  0
  -23.9010   -8.4080   22.0360 C   0  0  0  0  0  3  0  0  0  0  0  0
  -22.7210   -8.1200   21.3100 C   0  0  0  0  0  0  0  0  0  0  0  0
  -22.2480   -9.0530   20.3720 C   0  0  0  0  0  3  0  0  0  0  0  0
  -22.9210  -10.2690   20.1680 C   0  0  0  0  0  3  0  0  0  0  0  0
  -22.0140   -6.9470   21.4230 O   0  0  0  0  0  0  0  0  0  0  0  0
  -21.9630   -6.2470   22.6020 C   0  0  0  0  0  0  0  0  0  0  0  0
  -21.4760   -6.8280   23.7930 C   0  0  0  0  0  3  0  0  0  0  0  0
  -21.3760   -6.0530   24.9650 C   0  0  0  0  0  3  0  0  0  0  0  0
  -21.7520   -4.6970   24.9480 C   0  0  0  0  0  0  0  0  0  0  0  0
  -22.2320   -4.1140   23.7610 C   0  0  0  0  0  3  0  0  0  0  0  0
  -22.3340   -4.8870   22.5910 C   0  0  0  0  0  0  0  0  0  0  0  0
  -22.7780   -4.3160   21.4450 F   0  0  0  0  0  0  0  0  0  0  0  0
  -21.6480   -3.9500   26.0710 F   0  0  0  0  0  0  0  0  0  0  0  0
  -22.8910  -13.6290   21.2420 C   0  0  0  0  0  0  0  0  0  0  0  0
  -22.2780  -12.8920   22.1620 N   0  0  0  0  0  0  0  0  0  0  0  0
  -22.3710  -14.6500   20.7950 O   0  0  0  0  0  0  0  0  0  0  0  0
  -22.7130  -12.0670   22.5450 H   0  0  0  0  0  0  0  0  0  0  0  0
  -21.3590  -13.1590   22.4880 H   0  0  0  0  0  0  0  0  0  0  0  0
  -25.3860  -15.3940   20.2270 N   0  0  0  0  0  0  0  0  0  0  0  0
  -24.6190  -16.0250   20.4340 H   0  0  0  0  0  0  0  0  0  0  0  0
  -26.1950  -15.8670   19.8450 H   0  0  0  0  0  0  0  0  0  0  0  0
  2  1  1  0
  3  2  1  0
  4  3  1  0
  5  4  1  0
  6  8  1  0
  6  5  1  0
  7 18  2  0
  8 13  1  0
  9 17  1  0
  9 19  1  0
 10 16  1  0
 10 12  1  0
 11 17  1  0
 12 11  1  0
 13 12  2  0
 14 15  1  0
 14  8  2  0
 15 10  2  0
 16  9  1  0
 17  7  1  0
 19 21  2  0
 20 19  1  0
 22 20  1  0
 23 32  2  0
 23 28  1  0
 24 20  1  0
 24 28  1  0
 25 24  1  0
 26 27  1  0
 26 25  1  0
 27 23  1  0
 28 29  2  0
 29 30  1  0
 31 30  2  0
 32 31  1  0
 33  7  1  0
 33 34  1  0
 33 43  1  0
 34 37  1  0
 35 39  1  0
 35 34  1  0
 36 35  2  0
 39 38  1  0
 41 39  1  0
 41 42  1  0
 41 40  1  0
 43 46  1  1
 43 44  1  0
 45 43  1  0
 47  1  1  0
 48 50  1  0
 49 51  2  0
 49 52  1  0
 51 53  1  0
 52 48  2  0
 53 47  1  0
 53 50  2  0
 54 62  1  0
 55 60  1  0
 56 57  1  0
 56 55  1  0
 58 57  1  0
 58 67  1  0
 58 59  1  0
 60 54  1  0
 60 59  1  0
 61 54  2  0
 62 52  1  0
 62 63  1  0
 64 65  2  0
 65 84  1  0
 66 65  1  0
 66 69  1  0
 67 68  1  0
 67 64  1  0
 68 66  2  0
 69 70  1  0
 70 71  2  0
 72 75  1  0
 72 71  1  0
 73 72  2  0
 74 73  1  0
 74 69  2  0
 75 76  1  0
 76 77  1  0
 77 78  2  0
 79 78  1  0
 79 83  1  0
 80 79  2  0
 81 76  2  0
 81 80  1  0
 82 81  1  0
 84 85  1  0
 85 88  1  0
 85 87  1  0
 86 84  2  0
 89 64  1  0
 89 90  1  0
 91 89  1  0
M  ISO  4   5 101   6 101  54 100  62 100
M  END
>  <TORSDO>  (47) 
F 22

>  <SCORE>  (47) 
-11.119

>  <name>  (47) 
46

>  <ligand_id>  (47) 
46

>  <original_smiles>  (47) 
[H]c1c([H])c([H])c2c(c1[H])C([H])([H])C([H])([H])C([H])([H])C2([H])N([H])C(=O)C1([H])N(C(=O)C([H])(N([H])C(=O)C([H])(N([H])C([H])([H])[H])C([H])([H])[H])C(C([H])([H])[H])(C([H])([H])[H])C([H])([H])[H])C([H])([H])c2c([H])c(OC([H])([H])C([H])([H])C([H])([H])C([H])([H])C([H])([H])Oc3c([H])c([H])c(N([H])C(=O)N4C([H])([H])C([H])([H])C([H])([H])C([H])(n5nc(-c6c([H])c([H])c(Oc7c([H])c([H])c(F)c([H])c7F)c([H])c6[H])c(C(=O)N([H])[H])c5N([H])[H])C4([H])[H])c([H])c3[H])c([H])c([H])c2C1([H])[H]

>  <smiles>  (47) 
[H]c1c([H])c([H])c2c(c1[H])C([H])([H])C([H])([H])C([H])([H])C2([H])N([H])C(=O)C1([H])N(C(=O)C([H])(N([H])C(=O)C([H])(N([H])C([H])([H])[H])C([H])([H])[H])C(C([H])([H])[H])(C([H])([H])[H])C([H])([H])[H])C([H])([H])c2c([H])c(OC([H])([H])C([H])([H])C([H])([H])C([H])([H])C([H])([H])Oc3c([H])c([H])c(N([H])C(=O)N4C([H])([H])C([H])([H])C([H])([H])C([H])(n5nc(-c6c([H])c([H])c(Oc7c([H])c([H])c(F)c([H])c7F)c([H])c6[H])c(C(=O)N([H])[H])c5N([H])[H])C4([H])[H])c([H])c3[H])c([H])c([H])c2C1([H])[H]

$$$$
47:0:0
     RDKit          3D

 92100  0  0  1  0  0  0  0  0999 V2000
  -29.2050  -22.3760   19.9710 C   0  0  0  0  0  0  0  0  0  0  0  0
  -29.4770  -21.2170   20.6870 N   0  0  0  0  0  0  0  0  0  0  0  0
  -29.1430  -22.3320   18.7400 O   0  0  0  0  0  0  0  0  0  0  0  0
  -29.2860  -21.2770   21.6800 H   0  0  0  0  0  0  0  0  0  0  0  0
  -32.0820  -18.9030   19.1490 C   0  0  0  0  0  3  0  0  0  0  0  0
  -31.5730  -17.6150   19.3900 C   0  0  0  0  0  3  0  0  0  0  0  0
  -29.6950  -18.6140   20.5500 C   0  0  0  0  0  3  0  0  0  0  0  0
  -31.4300  -20.0610   19.6130 C   0  0  0  0  0  0  0  0  0  0  0  0
  -30.4010  -17.3960   20.1570 C   0  0  0  0  0  0  0  0  0  0  0  0
  -30.1590  -19.9690   20.2520 C   0  0  0  0  0  0  0  0  0  0  0  0
  -32.1860  -21.3770   19.4520 C   0  0  0  0  0  1  0  0  0  0  0  0
  -30.6450  -14.7840   20.3110 C   0  0  0  0  0  0  0  0  0  0  0  0
  -30.3410  -12.5210   19.3160 C   0  0  0  0  0  2  0  0  0  0  0  0
  -29.4000  -12.6130   18.0980 C   0  0  0  0  0  2  0  0  0  0  0  0
  -27.9340  -12.4550   18.5440 C   0  0  0  0  0  2  0  0  0  0  0  0
  -27.5800  -13.3440   19.7650 C   0  0  0  0  0  3  0  0  0  0  0  0
  -28.6550  -13.2780   20.8740 C   0  0  0  0  0  2  0  0  0  0  0  0
  -29.9470  -13.5970   20.2560 N   0  0  0  0  0  0  0  0  0  0  0  0
  -31.8460  -14.7670   20.0440 O   0  0  0  0  0  0  0  0  0  0  0  0
  -29.9640  -15.9940   20.4590 N   0  0  0  0  0  0  0  0  0  0  0  0
  -29.0010  -15.8940   20.7400 H   0  0  0  0  0  0  0  0  0  0  0  0
  -25.2020  -13.9360   20.5200 C   0  0  0  0  0  0  0  0  0  0  0  0
  -24.1360  -13.1640   20.8950 C   0  0  0  0  0  0  0  0  0  0  0  0
  -24.5960  -11.8110   20.8590 C   0  0  0  0  0  0  0  0  0  0  0  0
  -26.2420  -13.0550   20.2740 N   0  0  0  0  0  0  0  0  0  0  0  0
  -25.8860  -11.7720   20.5420 N   0  0  0  0  0  0  0  0  0  0  0  0
  -23.8640  -10.5490   21.0470 C   0  0  0  0  0  0  0  0  0  0  0  0
  -24.2940   -9.5780   21.9770 C   0  0  0  0  0  3  0  0  0  0  0  0
  -23.5620   -8.3830   22.1550 C   0  0  0  0  0  3  0  0  0  0  0  0
  -22.3840   -8.1540   21.4040 C   0  0  0  0  0  0  0  0  0  0  0  0
  -21.9740   -9.1150   20.4640 C   0  0  0  0  0  3  0  0  0  0  0  0
  -22.7060  -10.3000   20.2830 C   0  0  0  0  0  3  0  0  0  0  0  0
  -21.6240   -7.0130   21.4930 O   0  0  0  0  0  0  0  0  0  0  0  0
  -21.5760   -6.2680   22.6420 C   0  0  0  0  0  0  0  0  0  0  0  0
  -21.1490   -6.8200   23.8710 C   0  0  0  0  0  3  0  0  0  0  0  0
  -21.0480   -5.9990   25.0130 C   0  0  0  0  0  3  0  0  0  0  0  0
  -21.3630   -4.6290   24.9270 C   0  0  0  0  0  0  0  0  0  0  0  0
  -21.7840   -4.0790   23.7040 C   0  0  0  0  0  3  0  0  0  0  0  0
  -21.8860   -4.8950   22.5640 C   0  0  0  0  0  0  0  0  0  0  0  0
  -22.2700   -4.3540   21.3840 F   0  0  0  0  0  0  0  0  0  0  0  0
  -21.2590   -3.8400   26.0230 F   0  0  0  0  0  0  0  0  0  0  0  0
  -22.7420  -13.6450   21.1740 C   0  0  0  0  0  0  0  0  0  0  0  0
  -22.0140  -12.9460   22.0380 N   0  0  0  0  0  0  0  0  0  0  0  0
  -22.3070  -14.6750   20.6610 O   0  0  0  0  0  0  0  0  0  0  0  0
  -22.3780  -12.1120   22.4730 H   0  0  0  0  0  0  0  0  0  0  0  0
  -21.0790  -13.2500   22.2680 H   0  0  0  0  0  0  0  0  0  0  0  0
  -25.3690  -15.3060   20.3430 N   0  0  0  0  0  0  0  0  0  0  0  0
  -24.6020  -15.9600   20.4470 H   0  0  0  0  0  0  0  0  0  0  0  0
  -26.2120  -15.7390   19.9880 H   0  0  0  0  0  0  0  0  0  0  0  0
  -28.9520  -23.7940   20.6690 C   0  0  0  0  0  3  0  0  0  0  0  0
  -28.2140  -24.9770   19.8490 C   0  0  0  0  0  3  0  0  0  0  0  0
  -28.3060  -26.4270   20.2450 O   0  0  0  0  0  0  0  0  0  0  0  0
  -24.6060  -31.8890   23.2230 C   0  0  0  0  0  0  0  0  0  0  0  0
  -27.1950  -27.3010   20.1530 C   0  0  0  0  0  0  0  0  0  0  0  0
  -23.3940  -30.4940   21.5870 C   0  0  0  0  0  3  0  0  0  0  0  0
  -24.8370  -28.9480   20.1470 C   0  0  0  0  0  0  0  0  0  0  0  0
  -25.9370  -30.7990   21.3990 C   0  0  0  0  0  2  0  0  0  0  0  0
  -26.0090  -29.4200   20.7500 C   0  0  0  0  0  0  0  0  0  0  0  0
  -27.1860  -28.6060   20.7490 C   0  0  0  0  0  3  0  0  0  0  0  0
  -26.0040  -26.9080   19.4950 C   0  0  0  0  0  3  0  0  0  0  0  0
  -24.8400  -27.6990   19.5100 C   0  0  0  0  0  3  0  0  0  0  0  0
  -23.6030  -29.8250   20.2040 C   0  0  0  0  0  2  0  0  0  0  0  0
  -24.6650  -31.0800   22.1240 N   0  0  0  0  0  0  0  0  0  0  0  0
  -23.5240  -32.1670   23.7620 O   0  0  0  0  0  0  0  0  0  0  0  0
  -22.7360  -29.4750   22.5470 C   0  0  0  0  0  0  0  0  0  0  0  0
  -21.4080  -29.2990   22.4280 N   0  0  0  0  0  0  0  0  0  0  0  0
  -23.4170  -28.8480   23.3630 O   0  0  0  0  0  0  0  0  0  0  0  0
  -20.9180  -29.8580   21.7440 H   0  0  0  0  0  0  0  0  0  0  0  0
  -18.0320  -28.1010   22.9370 C   0  0  0  0  0  0  0  0  0  0  0  0
  -20.5910  -28.3600   23.2000 C   0  0  0  0  0  3  0  0  0  0  0  0
  -20.6910  -26.9290   22.6250 C   0  0  0  0  0  2  0  0  0  0  0  0
  -19.5850  -26.6080   21.6140 C   0  0  0  0  0  2  0  0  0  0  0  0
  -18.2050  -26.7530   22.2620 C   0  0  0  0  0  2  0  0  0  0  0  0
  -19.1520  -28.8630   23.3640 C   0  0  0  0  0  0  0  0  0  0  0  0
  -18.9360  -30.1260   23.9570 C   0  0  0  0  0  3  0  0  0  0  0  0
  -17.6290  -30.6250   24.1290 C   0  0  0  0  0  3  0  0  0  0  0  0
  -16.5240  -29.8600   23.7190 C   0  0  0  0  0  3  0  0  0  0  0  0
  -16.7270  -28.6000   23.1280 C   0  0  0  0  0  3  0  0  0  0  0  0
  -25.8890  -32.5210   23.8420 C   0  0  0  0  0  3  0  0  0  0  0  0
  -26.4090  -31.7500   25.1170 C   0  0  1  0  0  0  0  0  0  0  0  0
  -25.3190  -31.5150   26.1880 C   0  0  0  0  0  1  0  0  0  0  0  0
  -26.9900  -30.3710   24.7240 C   0  0  0  0  0  1  0  0  0  0  0  0
  -27.5600  -32.5460   25.7750 C   0  0  0  0  0  1  0  0  0  0  0  0
  -25.5800  -33.9200   24.1760 N   0  0  0  0  0  0  0  0  0  0  0  0
  -25.9060  -34.9750   23.4160 C   0  0  0  0  0  0  0  0  0  0  0  0
  -26.5670  -34.8720   22.3800 O   0  0  0  0  0  0  0  0  0  0  0  0
  -24.9940  -34.0730   24.9820 H   0  0  0  0  0  0  0  0  0  0  0  0
  -24.1770  -36.7720   23.0730 C   0  0  0  0  0  1  0  0  0  0  0  0
  -25.4200  -36.3630   23.8800 C   0  0  0  0  0  3  0  0  0  0  0  0
  -27.5580  -37.2450   24.7080 C   0  0  0  0  0  1  0  0  0  0  0  0
  -26.4530  -37.4150   23.7660 N   0  0  0  0  0  0  0  0  0  0  0  0
  -26.0480  -38.3360   23.9140 H   0  0  0  0  0  0  0  0  0  0  0  0
  1 50  1  0
  1  2  1  0
  2  4  1  0
  3  1  2  0
  5  6  2  0
  5  8  1  0
  6  9  1  0
  8 10  2  0
  9 20  1  0
  9  7  2  0
 10  7  1  0
 10  2  1  0
 11  8  1  0
 12 20  1  0
 13 18  1  0
 14 15  1  0
 14 13  1  0
 16 15  1  0
 16 25  1  0
 16 17  1  0
 18 12  1  0
 18 17  1  0
 19 12  2  0
 20 21  1  0
 22 23  2  0
 23 42  1  0
 24 23  1  0
 24 27  1  0
 25 22  1  0
 25 26  1  0
 26 24  2  0
 27 28  1  0
 28 29  2  0
 30 33  1  0
 30 29  1  0
 31 30  2  0
 32 31  1  0
 32 27  2  0
 33 34  1  0
 34 35  1  0
 35 36  2  0
 37 36  1  0
 37 41  1  0
 38 37  2  0
 39 34  2  0
 39 38  1  0
 40 39  1  0
 42 43  1  0
 43 46  1  0
 43 45  1  0
 44 42  2  0
 47 48  1  0
 47 22  1  0
 49 47  1  0
 51 52  1  0
 51 50  2  0
 53 64  2  0
 54 52  1  0
 54 59  1  0
 55 63  1  0
 55 65  1  0
 56 62  1  0
 56 58  1  0
 57 63  1  0
 58 57  1  0
 59 58  2  0
 60 61  1  0
 60 54  2  0
 61 56  2  0
 62 55  1  0
 63 53  1  0
 65 67  2  0
 66 65  1  0
 68 66  1  0
 69 78  2  0
 69 74  1  0
 70 66  1  0
 70 74  1  0
 71 70  1  0
 72 73  1  0
 72 71  1  0
 73 69  1  0
 74 75  2  0
 75 76  1  0
 77 76  2  0
 78 77  1  0
 79 53  1  0
 79 84  1  0
 79 80  1  0
 80 83  1  1
 80 81  1  0
 82 80  1  0
 84 87  1  0
 85 89  1  0
 85 84  1  0
 86 85  2  0
 89 88  1  0
 91 89  1  0
 91 92  1  0
 91 90  1  0
M  ISO  4  12 100  20 100  51 101  52 101
M  END
>  <TORSDO>  (48) 
F 19

>  <SCORE>  (48) 
-14.267

>  <name>  (48) 
47

>  <ligand_id>  (48) 
47

>  <original_smiles>  (48) 
[H]c1c([H])c([H])c2c(c1[H])C([H])([H])C([H])([H])C([H])([H])C2([H])N([H])C(=O)C1([H])N(C(=O)C([H])(N([H])C(=O)C([H])(N([H])C([H])([H])[H])C([H])([H])[H])C(C([H])([H])[H])(C([H])([H])[H])C([H])([H])[H])C([H])([H])c2c([H])c(OC([H])([H])C([H])([H])C(=O)N([H])c3c([H])c(N([H])C(=O)N4C([H])([H])C([H])([H])C([H])([H])C([H])(n5nc(-c6c([H])c([H])c(Oc7c([H])c([H])c(F)c([H])c7F)c([H])c6[H])c(C(=O)N([H])[H])c5N([H])[H])C4([H])[H])c([H])c([H])c3C([H])([H])[H])c([H])c([H])c2C1([H])[H]

>  <smiles>  (48) 
[H]c1c([H])c([H])c2c(c1[H])C([H])([H])C([H])([H])C([H])([H])C2([H])N([H])C(=O)C1([H])N(C(=O)C([H])(N([H])C(=O)C([H])(N([H])C([H])([H])[H])C([H])([H])[H])C(C([H])([H])[H])(C([H])([H])[H])C([H])([H])[H])C([H])([H])c2c([H])c(OC([H])([H])C([H])([H])C(=O)N([H])c3c([H])c(N([H])C(=O)N4C([H])([H])C([H])([H])C([H])([H])C([H])(n5nc(-c6c([H])c([H])c(Oc7c([H])c([H])c(F)c([H])c7F)c([H])c6[H])c(C(=O)N([H])[H])c5N([H])[H])C4([H])[H])c([H])c([H])c3C([H])([H])[H])c([H])c([H])c2C1([H])[H]

$$$$
48:0:0
     RDKit          3D

 92100  0  0  1  0  0  0  0  0999 V2000
  -28.5890  -21.1330   20.5330 C   0  0  0  0  0  2  0  0  0  0  0  0
  -31.7890  -19.1730   19.5220 C   0  0  0  0  0  3  0  0  0  0  0  0
  -30.8610  -20.1960   19.7860 C   0  0  0  0  0  3  0  0  0  0  0  0
  -31.4580  -17.8120   19.6880 C   0  0  0  0  0  3  0  0  0  0  0  0
  -29.5600  -19.8990   20.2300 C   0  0  0  0  0  0  0  0  0  0  0  0
  -29.2390  -18.4810   20.4210 C   0  0  0  0  0  0  0  0  0  0  0  0
  -30.1840  -17.3930   20.1470 C   0  0  0  0  0  0  0  0  0  0  0  0
  -27.8540  -18.1250   20.9410 C   0  0  0  0  0  1  0  0  0  0  0  0
  -30.6100  -14.7780   20.0270 C   0  0  0  0  0  0  0  0  0  0  0  0
  -30.3010  -12.5490   18.9480 C   0  0  0  0  0  2  0  0  0  0  0  0
  -29.2990  -12.6920   17.7830 C   0  0  0  0  0  2  0  0  0  0  0  0
  -27.8550  -12.5170   18.2880 C   0  0  0  0  0  2  0  0  0  0  0  0
  -27.5630  -13.3550   19.5620 C   0  0  0  0  0  3  0  0  0  0  0  0
  -28.6830  -13.2180   20.6160 C   0  0  0  0  0  2  0  0  0  0  0  0
  -29.9480  -13.5730   19.9600 N   0  0  0  0  0  0  0  0  0  0  0  0
  -31.7880  -14.8240   19.6690 O   0  0  0  0  0  0  0  0  0  0  0  0
  -29.8760  -15.9340   20.3030 N   0  0  0  0  0  0  0  0  0  0  0  0
  -28.9320  -15.7330   20.5940 H   0  0  0  0  0  0  0  0  0  0  0  0
  -25.2130  -13.9280   20.4110 C   0  0  0  0  0  0  0  0  0  0  0  0
  -24.1680  -13.1470   20.8210 C   0  0  0  0  0  0  0  0  0  0  0  0
  -24.6320  -11.7980   20.7490 C   0  0  0  0  0  0  0  0  0  0  0  0
  -26.2460  -13.0550   20.1150 N   0  0  0  0  0  0  0  0  0  0  0  0
  -25.9070  -11.7680   20.3820 N   0  0  0  0  0  0  0  0  0  0  0  0
  -23.9170  -10.5310   20.9540 C   0  0  0  0  0  0  0  0  0  0  0  0
  -24.3810   -9.5600   21.8690 C   0  0  0  0  0  3  0  0  0  0  0  0
  -23.6660   -8.3580   22.0620 C   0  0  0  0  0  3  0  0  0  0  0  0
  -22.4710   -8.1200   21.3420 C   0  0  0  0  0  0  0  0  0  0  0  0
  -22.0260   -9.0790   20.4160 C   0  0  0  0  0  3  0  0  0  0  0  0
  -22.7420  -10.2710   20.2200 C   0  0  0  0  0  3  0  0  0  0  0  0
  -21.7230   -6.9720   21.4470 O   0  0  0  0  0  0  0  0  0  0  0  0
  -21.6970   -6.2330   22.6020 C   0  0  0  0  0  0  0  0  0  0  0  0
  -21.2910   -6.7920   23.8330 C   0  0  0  0  0  3  0  0  0  0  0  0
  -21.2110   -5.9800   24.9830 C   0  0  0  0  0  3  0  0  0  0  0  0
  -21.5270   -4.6100   24.9010 C   0  0  0  0  0  0  0  0  0  0  0  0
  -21.9250   -4.0500   23.6740 C   0  0  0  0  0  3  0  0  0  0  0  0
  -22.0060   -4.8600   22.5280 C   0  0  0  0  0  0  0  0  0  0  0  0
  -22.3700   -4.3110   21.3440 F   0  0  0  0  0  0  0  0  0  0  0  0
  -21.4430   -3.8280   26.0020 F   0  0  0  0  0  0  0  0  0  0  0  0
  -22.7840  -13.6170   21.1610 C   0  0  0  0  0  0  0  0  0  0  0  0
  -22.0970  -12.9060   22.0480 N   0  0  0  0  0  0  0  0  0  0  0  0
  -22.3210  -14.6490   20.6750 O   0  0  0  0  0  0  0  0  0  0  0  0
  -22.4850  -12.0710   22.4600 H   0  0  0  0  0  0  0  0  0  0  0  0
  -21.1700  -13.2010   22.3210 H   0  0  0  0  0  0  0  0  0  0  0  0
  -25.3640  -15.3010   20.2380 N   0  0  0  0  0  0  0  0  0  0  0  0
  -24.5910  -15.9450   20.3700 H   0  0  0  0  0  0  0  0  0  0  0  0
  -26.1680  -15.7340   19.8020 H   0  0  0  0  0  0  0  0  0  0  0  0
  -28.3630  -23.7620   20.4330 C   0  0  0  0  0  0  0  0  0  0  0  0
  -28.8380  -22.5390   19.9770 N   0  0  0  0  0  0  0  0  0  0  0  0
  -27.7800  -23.8270   21.5180 O   0  0  0  0  0  0  0  0  0  0  0  0
  -29.3050  -22.5670   19.0800 H   0  0  0  0  0  0  0  0  0  0  0  0
  -28.4980  -25.1030   19.5620 C   0  0  0  0  0  2  0  0  0  0  0  0
  -28.3740  -26.4420   20.2370 O   0  0  0  0  0  0  0  0  0  0  0  0
  -24.6190  -31.8610   23.2360 C   0  0  0  0  0  0  0  0  0  0  0  0
  -27.2450  -27.2900   20.1550 C   0  0  0  0  0  0  0  0  0  0  0  0
  -23.4260  -30.4750   21.5780 C   0  0  0  0  0  3  0  0  0  0  0  0
  -24.8840  -28.9310   20.1440 C   0  0  0  0  0  0  0  0  0  0  0  0
  -25.9700  -30.7820   21.4170 C   0  0  0  0  0  2  0  0  0  0  0  0
  -26.0490  -29.4080   20.7540 C   0  0  0  0  0  0  0  0  0  0  0  0
  -27.2300  -28.5990   20.7480 C   0  0  0  0  0  3  0  0  0  0  0  0
  -26.0490  -26.8710   19.5300 C   0  0  0  0  0  3  0  0  0  0  0  0
  -24.8890  -27.6710   19.5230 C   0  0  0  0  0  3  0  0  0  0  0  0
  -23.6480  -29.8090   20.1940 C   0  0  0  0  0  2  0  0  0  0  0  0
  -24.6900  -31.0600   22.1320 N   0  0  0  0  0  0  0  0  0  0  0  0
  -23.5330  -32.1330   23.7680 O   0  0  0  0  0  0  0  0  0  0  0  0
  -22.7590  -29.4530   22.5300 C   0  0  0  0  0  0  0  0  0  0  0  0
  -21.4340  -29.2740   22.3950 N   0  0  0  0  0  0  0  0  0  0  0  0
  -23.4330  -28.8220   23.3470 O   0  0  0  0  0  0  0  0  0  0  0  0
  -20.9490  -29.8360   21.7100 H   0  0  0  0  0  0  0  0  0  0  0  0
  -18.0560  -28.0680   22.8790 C   0  0  0  0  0  0  0  0  0  0  0  0
  -20.6140  -28.3320   23.1580 C   0  0  0  0  0  3  0  0  0  0  0  0
  -20.7190  -26.9040   22.5740 C   0  0  0  0  0  2  0  0  0  0  0  0
  -19.6210  -26.5850   21.5540 C   0  0  0  0  0  2  0  0  0  0  0  0
  -18.2370  -26.7240   22.1940 C   0  0  0  0  0  2  0  0  0  0  0  0
  -19.1720  -28.8300   23.3180 C   0  0  0  0  0  0  0  0  0  0  0  0
  -18.9500  -30.0860   23.9200 C   0  0  0  0  0  3  0  0  0  0  0  0
  -17.6430  -30.5840   24.0890 C   0  0  0  0  0  3  0  0  0  0  0  0
  -16.5420  -29.8200   23.6650 C   0  0  0  0  0  3  0  0  0  0  0  0
  -16.7490  -28.5640   23.0670 C   0  0  0  0  0  3  0  0  0  0  0  0
  -25.8960  -32.4930   23.8690 C   0  0  0  0  0  3  0  0  0  0  0  0
  -26.4050  -31.7190   25.1480 C   0  0  1  0  0  0  0  0  0  0  0  0
  -25.3060  -31.4770   26.2100 C   0  0  0  0  0  1  0  0  0  0  0  0
  -26.9920  -30.3430   24.7570 C   0  0  0  0  0  1  0  0  0  0  0  0
  -27.5500  -32.5130   25.8190 C   0  0  0  0  0  1  0  0  0  0  0  0
  -25.5820  -33.8900   24.2060 N   0  0  0  0  0  0  0  0  0  0  0  0
  -25.9130  -34.9490   23.4550 C   0  0  0  0  0  0  0  0  0  0  0  0
  -26.5820  -34.8520   22.4230 O   0  0  0  0  0  0  0  0  0  0  0  0
  -24.9890  -34.0360   25.0090 H   0  0  0  0  0  0  0  0  0  0  0  0
  -24.1800  -36.7410   23.1130 C   0  0  0  0  0  1  0  0  0  0  0  0
  -25.4230  -36.3350   23.9210 C   0  0  0  0  0  3  0  0  0  0  0  0
  -27.5570  -37.2200   24.7520 C   0  0  0  0  0  1  0  0  0  0  0  0
  -26.4530  -37.3900   23.8110 N   0  0  0  0  0  0  0  0  0  0  0  0
  -26.0460  -38.3100   23.9620 H   0  0  0  0  0  0  0  0  0  0  0  0
  2  4  2  0
  2  3  1  0
  3  5  2  0
  4  7  1  0
  5  6  1  0
  5  1  1  0
  6  8  1  0
  7 17  1  0
  7  6  2  0
  9 17  1  0
 10 15  1  0
 11 12  1  0
 11 10  1  0
 13 12  1  0
 13 22  1  0
 13 14  1  0
 15  9  1  0
 15 14  1  0
 16  9  2  0
 17 18  1  0
 19 20  2  0
 20 39  1  0
 21 20  1  0
 21 24  1  0
 22 23  1  0
 22 19  1  0
 23 21  2  0
 24 25  1  0
 25 26  2  0
 27 30  1  0
 27 26  1  0
 28 27  2  0
 29 28  1  0
 29 24  2  0
 30 31  1  0
 31 32  1  0
 32 33  2  0
 34 33  1  0
 34 38  1  0
 35 34  2  0
 36 31  2  0
 36 35  1  0
 37 36  1  0
 39 40  1  0
 40 43  1  0
 40 42  1  0
 41 39  2  0
 44 45  1  0
 44 19  1  0
 46 44  1  0
 47 49  2  0
 48 47  1  0
 48  1  1  0
 50 48  1  0
 51 52  1  0
 51 47  1  0
 53 64  2  0
 54 52  1  0
 54 59  1  0
 55 63  1  0
 55 65  1  0
 56 62  1  0
 56 58  1  0
 57 63  1  0
 58 57  1  0
 59 58  2  0
 60 54  2  0
 61 60  1  0
 61 56  2  0
 62 55  1  0
 63 53  1  0
 65 67  2  0
 66 65  1  0
 68 66  1  0
 69 78  2  0
 69 74  1  0
 70 66  1  0
 70 74  1  0
 71 70  1  0
 72 73  1  0
 72 71  1  0
 73 69  1  0
 74 75  2  0
 75 76  1  0
 77 76  2  0
 78 77  1  0
 79 53  1  0
 79 84  1  0
 79 80  1  0
 80 83  1  1
 80 81  1  0
 82 80  1  0
 84 87  1  0
 85 89  1  0
 85 84  1  0
 86 85  2  0
 89 88  1  0
 91 89  1  0
 91 92  1  0
 91 90  1  0
M  ISO  4   9 100  17 100  51 101  52 101
M  END
>  <TORSDO>  (49) 
F 19

>  <SCORE>  (49) 
-13.664

>  <name>  (49) 
48

>  <ligand_id>  (49) 
48

>  <original_smiles>  (49) 
[H]c1c([H])c(N([H])C(=O)N2C([H])([H])C([H])([H])C([H])([H])C([H])(n3nc(-c4c([H])c([H])c(Oc5c([H])c([H])c(F)c([H])c5F)c([H])c4[H])c(C(=O)N([H])[H])c3N([H])[H])C2([H])[H])c(C([H])([H])[H])c(C([H])([H])N([H])C(=O)C([H])([H])Oc2c([H])c([H])c3c(c2[H])C([H])([H])N(C(=O)C([H])(N([H])C(=O)C([H])(N([H])C([H])([H])[H])C([H])([H])[H])C(C([H])([H])[H])(C([H])([H])[H])C([H])([H])[H])C([H])(C(=O)N([H])C2([H])c4c([H])c([H])c([H])c([H])c4C([H])([H])C([H])([H])C2([H])[H])C3([H])[H])c1[H]

>  <smiles>  (49) 
[H]c1c([H])c(N([H])C(=O)N2C([H])([H])C([H])([H])C([H])([H])C([H])(n3nc(-c4c([H])c([H])c(Oc5c([H])c([H])c(F)c([H])c5F)c([H])c4[H])c(C(=O)N([H])[H])c3N([H])[H])C2([H])[H])c(C([H])([H])[H])c(C([H])([H])N([H])C(=O)C([H])([H])Oc2c([H])c([H])c3c(c2[H])C([H])([H])N(C(=O)C([H])(N([H])C(=O)C([H])(N([H])C([H])([H])[H])C([H])([H])[H])C(C([H])([H])[H])(C([H])([H])[H])C([H])([H])[H])C([H])(C(=O)N([H])C2([H])c4c([H])c([H])c([H])c([H])c4C([H])([H])C([H])([H])C2([H])[H])C3([H])[H])c1[H]

$$$$
49:0:0
     RDKit          3D

103111  0  0  1  0  0  0  0  0999 V2000
  -30.1730  -18.6180   19.1930 C   0  0  0  0  0  3  0  0  0  0  0  0
  -30.4440  -20.0790   21.1220 C   0  0  0  0  0  3  0  0  0  0  0  0
  -31.0370  -17.6920   21.2690 C   0  0  0  0  0  3  0  0  0  0  0  0
  -30.0430  -19.9530   19.7760 C   0  0  0  0  0  0  0  0  0  0  0  0
  -30.6850  -17.4600   19.9230 C   0  0  0  0  0  0  0  0  0  0  0  0
  -30.9090  -18.9710   21.8650 C   0  0  0  0  0  0  0  0  0  0  0  0
  -31.4270  -14.9200   19.7170 C   0  0  0  0  0  0  0  0  0  0  0  0
  -31.1770  -12.5360   18.9750 C   0  0  0  0  0  2  0  0  0  0  0  0
  -30.2250  -12.4770   17.7590 C   0  0  0  0  0  2  0  0  0  0  0  0
  -28.7520  -12.4140   18.2160 C   0  0  0  0  0  2  0  0  0  0  0  0
  -28.4170  -13.4620   19.3100 C   0  0  0  0  0  3  0  0  0  0  0  0
  -29.4810  -13.4720   20.4280 C   0  0  0  0  0  2  0  0  0  0  0  0
  -30.7780  -13.7090   19.7820 N   0  0  0  0  0  0  0  0  0  0  0  0
  -32.6410  -14.9630   19.4970 O   0  0  0  0  0  0  0  0  0  0  0  0
  -30.6210  -16.0350   19.5090 N   0  0  0  0  0  0  0  0  0  0  0  0
  -29.6700  -15.7350   19.3640 H   0  0  0  0  0  0  0  0  0  0  0  0
  -26.1180  -14.2670   20.1150 C   0  0  0  0  0  0  0  0  0  0  0  0
  -24.9920  -13.5930   20.4960 C   0  0  0  0  0  0  0  0  0  0  0  0
  -25.3220  -12.2040   20.4290 C   0  0  0  0  0  0  0  0  0  0  0  0
  -27.0650  -13.2970   19.8360 N   0  0  0  0  0  0  0  0  0  0  0  0
  -26.5950  -12.0490   20.0890 N   0  0  0  0  0  0  0  0  0  0  0  0
  -24.4810  -11.0140   20.6100 C   0  0  0  0  0  0  0  0  0  0  0  0
  -24.8750   -9.9520   21.4550 C   0  0  0  0  0  3  0  0  0  0  0  0
  -24.0400   -8.8280   21.6280 C   0  0  0  0  0  3  0  0  0  0  0  0
  -22.7960   -8.7580   20.9570 C   0  0  0  0  0  0  0  0  0  0  0  0
  -22.4180   -9.8060   20.0990 C   0  0  0  0  0  3  0  0  0  0  0  0
  -23.2530  -10.9230   19.9240 C   0  0  0  0  0  3  0  0  0  0  0  0
  -21.9310   -7.6930   21.0440 O   0  0  0  0  0  0  0  0  0  0  0  0
  -21.9030   -6.8780   22.1470 C   0  0  0  0  0  0  0  0  0  0  0  0
  -21.6570   -7.3830   23.4420 C   0  0  0  0  0  3  0  0  0  0  0  0
  -21.5670   -6.5010   24.5370 C   0  0  0  0  0  3  0  0  0  0  0  0
  -21.7160   -5.1160   24.3400 C   0  0  0  0  0  0  0  0  0  0  0  0
  -21.9580   -4.6100   23.0500 C   0  0  0  0  0  3  0  0  0  0  0  0
  -22.0490   -5.4890   21.9570 C   0  0  0  0  0  0  0  0  0  0  0  0
  -22.2590   -4.9940   20.7140 F   0  0  0  0  0  0  0  0  0  0  0  0
  -21.6230   -4.2670   25.3900 F   0  0  0  0  0  0  0  0  0  0  0  0
  -23.6530  -14.1960   20.8080 C   0  0  0  0  0  0  0  0  0  0  0  0
  -22.9000  -13.5820   21.7130 N   0  0  0  0  0  0  0  0  0  0  0  0
  -23.2870  -15.2460   20.2820 O   0  0  0  0  0  0  0  0  0  0  0  0
  -23.2090  -12.7290   22.1580 H   0  0  0  0  0  0  0  0  0  0  0  0
  -22.0020  -13.9690   21.9660 H   0  0  0  0  0  0  0  0  0  0  0  0
  -26.4060  -15.6220   19.9580 N   0  0  0  0  0  0  0  0  0  0  0  0
  -25.7040  -16.3340   20.1190 H   0  0  0  0  0  0  0  0  0  0  0  0
  -27.2800  -16.0010   19.6240 H   0  0  0  0  0  0  0  0  0  0  0  0
  -29.5730  -21.2360   19.0170 C   0  0  0  0  0  0  0  0  0  0  0  0
  -29.3380  -22.4350   19.6750 N   0  0  0  0  0  0  0  0  0  0  0  0
  -29.4350  -21.1670   17.7950 O   0  0  0  0  0  0  0  0  0  0  0  0
  -29.4150  -22.4000   20.6800 H   0  0  0  0  0  0  0  0  0  0  0  0
  -29.2450  -23.8530   19.0880 C   0  0  0  0  0  3  0  0  0  0  0  0
  -30.6750  -24.4460   19.0370 C   0  0  1  0  0  0  0  0  0  0  0  0
  -31.5280  -23.6200   18.4310 F   0  0  0  0  0  0  0  0  0  0  0  0
  -30.6890  -25.5950   18.3640 F   0  0  0  0  0  0  0  0  0  0  0  0
  -31.1220  -24.6650   20.2760 F   0  0  0  0  0  0  0  0  0  0  0  0
  -28.2490  -24.9250   19.7970 C   0  0  0  0  0  2  0  0  0  0  0  0
  -28.4230  -26.4160   19.6390 O   0  0  0  0  0  0  0  0  0  0  0  0
  -24.5410  -31.5540   23.0280 C   0  0  0  0  0  0  0  0  0  0  0  0
  -27.2910  -27.2670   19.6720 C   0  0  0  0  0  0  0  0  0  0  0  0
  -23.3930  -30.2640   21.2650 C   0  0  0  0  0  3  0  0  0  0  0  0
  -24.8980  -28.8570   19.7450 C   0  0  0  0  0  0  0  0  0  0  0  0
  -25.9300  -30.6370   21.1510 C   0  0  0  0  0  2  0  0  0  0  0  0
  -26.0510  -29.3110   20.4000 C   0  0  0  0  0  0  0  0  0  0  0  0
  -27.2500  -28.5320   20.3500 C   0  0  0  0  0  3  0  0  0  0  0  0
  -26.1130  -26.8830   18.9900 C   0  0  0  0  0  3  0  0  0  0  0  0
  -24.9340  -27.6500   19.0310 C   0  0  0  0  0  3  0  0  0  0  0  0
  -23.6450  -29.7070   19.8390 C   0  0  0  0  0  2  0  0  0  0  0  0
  -24.6400  -30.8320   21.8730 N   0  0  0  0  0  0  0  0  0  0  0  0
  -23.4450  -31.7670   23.5650 O   0  0  0  0  0  0  0  0  0  0  0  0
  -22.7390  -29.1600   22.1310 C   0  0  0  0  0  0  0  0  0  0  0  0
  -21.4110  -28.9950   22.0040 N   0  0  0  0  0  0  0  0  0  0  0  0
  -23.4240  -28.4620   22.8820 O   0  0  0  0  0  0  0  0  0  0  0  0
  -20.9160  -29.6130   21.3760 H   0  0  0  0  0  0  0  0  0  0  0  0
  -18.0420  -27.7350   22.4120 C   0  0  0  0  0  0  0  0  0  0  0  0
  -20.6010  -27.9890   22.6950 C   0  0  0  0  0  3  0  0  0  0  0  0
  -20.7110  -26.6130   21.9990 C   0  0  0  0  0  2  0  0  0  0  0  0
  -19.6070  -26.3690   20.9640 C   0  0  0  0  0  2  0  0  0  0  0  0
  -18.2250  -26.4500   21.6210 C   0  0  0  0  0  2  0  0  0  0  0  0
  -19.1580  -28.4640   22.9020 C   0  0  0  0  0  0  0  0  0  0  0  0
  -18.9350  -29.6690   23.6030 C   0  0  0  0  0  3  0  0  0  0  0  0
  -17.6280  -30.1450   23.8190 C   0  0  0  0  0  3  0  0  0  0  0  0
  -16.5270  -29.4130   23.3440 C   0  0  0  0  0  3  0  0  0  0  0  0
  -16.7340  -28.2100   22.6460 C   0  0  0  0  0  3  0  0  0  0  0  0
  -25.8020  -32.1630   23.7140 C   0  0  0  0  0  3  0  0  0  0  0  0
  -26.2620  -31.3610   24.9930 C   0  0  1  0  0  0  0  0  0  0  0  0
  -25.1300  -31.1290   26.0210 C   0  0  0  0  0  1  0  0  0  0  0  0
  -26.8340  -29.9790   24.5970 C   0  0  0  0  0  1  0  0  0  0  0  0
  -27.4040  -32.1230   25.7050 C   0  0  0  0  0  1  0  0  0  0  0  0
  -25.4870  -33.5550   24.0650 N   0  0  0  0  0  0  0  0  0  0  0  0
  -25.9200  -34.6290   23.3920 C   0  0  0  0  0  0  0  0  0  0  0  0
  -26.6940  -34.5480   22.4350 O   0  0  0  0  0  0  0  0  0  0  0  0
  -24.8140  -33.6910   24.8050 H   0  0  0  0  0  0  0  0  0  0  0  0
  -24.3060  -36.4970   22.9050 C   0  0  0  0  0  1  0  0  0  0  0  0
  -25.4130  -36.0100   23.8520 C   0  0  0  0  0  3  0  0  0  0  0  0
  -27.4340  -36.7840   25.0110 C   0  0  0  0  0  1  0  0  0  0  0  0
  -26.4800  -37.0310   23.9330 N   0  0  0  0  0  0  0  0  0  0  0  0
  -26.0810  -37.9570   24.0700 H   0  0  0  0  0  0  0  0  0  0  0  0
  -30.5370  -18.4910   24.2010 C   0  0  0  0  0  0  0  0  0  0  0  0
  -31.2370  -19.1580   23.2400 N   0  0  0  0  0  0  0  0  0  0  0  0
  -29.6460  -17.6800   23.9230 O   0  0  0  0  0  0  0  0  0  0  0  0
  -29.8320  -18.1170   26.6570 C   0  0  0  0  0  1  0  0  0  0  0  0
  -30.8450  -18.7490   25.6850 C   0  0  0  0  0  2  0  0  0  0  0  0
  -32.2720  -20.1620   23.5310 C   0  0  0  0  0  2  0  0  0  0  0  0
  -34.5470  -21.0660   22.8410 C   0  0  0  0  0  1  0  0  0  0  0  0
  -33.5510  -19.9090   22.7140 C   0  0  0  0  0  2  0  0  0  0  0  0
  1  4  2  0
  1  5  1  0
  2  6  2  0
  3  6  1  0
  4  2  1  0
  5  3  2  0
  6 97  1  0
  7 13  1  0
  8 13  1  0
  9 10  1  0
  9  8  1  0
 11 10  1  0
 11 20  1  0
 11 12  1  0
 13 12  1  0
 14  7  2  0
 15  7  1  0
 15  5  1  0
 16 15  1  0
 17 18  2  0
 18 37  1  0
 19 18  1  0
 19 22  1  0
 20 21  1  0
 20 17  1  0
 21 19  2  0
 22 23  1  0
 23 24  2  0
 25 28  1  0
 25 24  1  0
 26 25  2  0
 27 26  1  0
 27 22  2  0
 28 29  1  0
 29 30  1  0
 30 31  2  0
 32 31  1  0
 32 36  1  0
 33 32  2  0
 34 29  2  0
 34 33  1  0
 35 34  1  0
 37 38  1  0
 38 41  1  0
 38 40  1  0
 39 37  2  0
 42 17  1  0
 42 43  1  0
 44 42  1  0
 45 46  1  0
 45  4  1  0
 46 48  1  0
 47 45  2  0
 49 46  1  0
 49 54  1  0
 50 49  1  0
 50 53  1  1
 51 50  1  0
 52 50  1  0
 55 57  1  0
 55 54  1  0
 56 67  2  0
 57 62  1  0
 58 66  1  0
 58 68  1  0
 59 65  1  0
 59 61  1  0
 60 66  1  0
 61 60  1  0
 62 61  2  0
 63 64  1  0
 63 57  2  0
 64 59  2  0
 65 58  1  0
 66 56  1  0
 68 70  2  0
 69 68  1  0
 71 69  1  0
 72 81  2  0
 72 77  1  0
 73 69  1  0
 73 77  1  0
 74 73  1  0
 75 76  1  0
 75 74  1  0
 76 72  1  0
 77 78  2  0
 78 79  1  0
 80 79  2  0
 81 80  1  0
 82 56  1  0
 82 87  1  0
 82 83  1  0
 83 86  1  1
 83 84  1  0
 85 83  1  0
 87 90  1  0
 88 92  1  0
 88 87  1  0
 89 88  2  0
 92 91  1  0
 92 94  1  0
 94 95  1  0
 94 93  1  0
 96100  1  0
 97101  1  0
 97 96  1  0
 98 96  2  0
100 99  1  0
103102  1  0
103101  1  0
M  ISO  4   7 100  15 100  54 101  55 101
M  END
>  <TORSDO>  (50) 
F 24

>  <SCORE>  (50) 
-3.765

>  <name>  (50) 
49

>  <ligand_id>  (50) 
49

>  <original_smiles>  (50) 
[H]c1c([H])c([H])c2c(c1[H])C([H])([H])C([H])([H])C([H])([H])C2([H])N([H])C(=O)C1([H])N(C(=O)C([H])(N([H])C(=O)C([H])(N([H])C([H])([H])[H])C([H])([H])[H])C(C([H])([H])[H])(C([H])([H])[H])C([H])([H])[H])C([H])([H])c2c([H])c(OC([H])([H])C([H])(N([H])C(=O)c3c([H])c(N([H])C(=O)N4C([H])([H])C([H])([H])C([H])([H])C([H])(n5nc(-c6c([H])c([H])c(Oc7c([H])c([H])c(F)c([H])c7F)c([H])c6[H])c(C(=O)N([H])[H])c5N([H])[H])C4([H])[H])c([H])c(N(C(=O)C([H])([H])C([H])([H])[H])C([H])([H])C([H])([H])C([H])([H])[H])c3[H])C(F)(F)F)c([H])c([H])c2C1([H])[H]

>  <smiles>  (50) 
[H]c1c([H])c([H])c2c(c1[H])C([H])([H])C([H])([H])C([H])([H])C2([H])N([H])C(=O)C1([H])N(C(=O)C([H])(N([H])C(=O)C([H])(N([H])C([H])([H])[H])C([H])([H])[H])C(C([H])([H])[H])(C([H])([H])[H])C([H])([H])[H])C([H])([H])c2c([H])c(OC([H])([H])C([H])(N([H])C(=O)c3c([H])c(N([H])C(=O)N4C([H])([H])C([H])([H])C([H])([H])C([H])(n5nc(-c6c([H])c([H])c(Oc7c([H])c([H])c(F)c([H])c7F)c([H])c6[H])c(C(=O)N([H])[H])c5N([H])[H])C4([H])[H])c([H])c(N(C(=O)C([H])([H])C([H])([H])[H])C([H])([H])C([H])([H])C([H])([H])[H])c3[H])C(F)(F)F)c([H])c([H])c2C1([H])[H]

$$$$
50:0:0
     RDKit          3D

112121  0  0  1  0  0  0  0  0999 V2000
  -35.2810  -14.7130   18.6240 C   0  0  0  0  0  2  0  0  0  0  0  0
  -36.3700  -13.6290   18.5930 C   0  0  0  0  0  2  0  0  0  0  0  0
  -37.6400  -14.0760   19.3210 C   0  0  0  0  0  2  0  0  0  0  0  0
  -38.3430  -15.7300   17.6080 C   0  0  0  0  0  0  0  0  0  0  0  0
  -38.5750  -14.6590   18.3700 N   0  0  0  0  0  0  0  0  0  0  0  0
  -37.2710  -16.3360   17.5990 O   0  0  0  0  0  0  0  0  0  0  0  0
  -39.4910  -14.2360   18.3030 H   0  0  0  0  0  0  0  0  0  0  0  0
  -39.5130  -16.2240   16.7660 C   0  0  0  0  0  2  0  0  0  0  0  0
  -40.7550  -15.3100   16.8520 C   0  0  0  0  0  2  0  0  0  0  0  0
  -41.8760  -15.9050   17.7250 C   0  0  0  0  0  2  0  0  0  0  0  0
  -42.6410  -18.0250   16.6540 C   0  0  0  0  0  3  0  0  0  0  0  0
  -42.7850  -16.7230   16.9240 N   0  0  0  0  0  0  0  0  0  0  0  0
  -41.7790  -18.7230   17.1900 O   0  0  0  0  0  0  0  0  0  0  0  0
  -43.5400  -16.2340   16.4610 H   0  0  0  0  0  0  0  0  0  0  0  0
  -43.6000  -18.6200   15.6090 C   0  0  0  0  0  2  0  0  0  0  0  0
  -43.4180  -18.0680   14.1780 C   0  0  0  0  0  2  0  0  0  0  0  0
  -42.0130  -18.3000   13.5800 C   0  0  0  0  0  2  0  0  0  0  0  0
  -41.3030  -16.9820   13.2400 C   0  0  0  0  0  2  0  0  0  0  0  0
  -39.9140  -17.1960   12.6180 C   0  0  0  0  0  2  0  0  0  0  0  0
  -38.3430  -19.0610   12.3950 C   0  0  0  0  0  0  0  0  0  0  0  0
  -36.3170  -19.0860   13.7950 C   0  0  0  0  0  2  0  0  0  0  0  0
  -35.8320  -20.4890   14.1900 C   0  0  0  0  0  2  0  0  0  0  0  0
  -36.5430  -20.9630   15.4690 C   0  0  0  0  0  2  0  0  0  0  0  0
  -38.0810  -20.8390   15.3660 C   0  0  0  0  0  3  0  0  0  0  0  0
  -38.4930  -19.4360   14.8730 C   0  0  0  0  0  2  0  0  0  0  0  0
  -37.7770  -19.1040   13.6250 N   0  0  0  0  0  0  0  0  0  0  0  0
  -37.7360  -19.2840   11.3470 O   0  0  0  0  0  0  0  0  0  0  0  0
  -39.6020  -18.6050   12.3590 N   0  0  0  0  0  0  0  0  0  0  0  0
  -40.0870  -18.9400   11.5400 H   0  0  0  0  0  0  0  0  0  0  0  0
  -39.8090  -20.5620   17.2600 C   0  0  0  0  0  0  0  0  0  0  0  0
  -40.0660  -21.3060   18.3820 C   0  0  0  0  0  0  0  0  0  0  0  0
  -39.1050  -22.3610   18.3810 C   0  0  0  0  0  0  0  0  0  0  0  0
  -38.7320  -21.1710   16.6350 N   0  0  0  0  0  0  0  0  0  0  0  0
  -38.2770  -22.2310   17.3530 N   0  0  0  0  0  0  0  0  0  0  0  0
  -38.9600  -23.5240   19.2650 C   0  0  0  0  0  0  0  0  0  0  0  0
  -39.2920  -23.4520   20.6350 C   0  0  0  0  0  3  0  0  0  0  0  0
  -39.1660  -24.5890   21.4610 C   0  0  0  0  0  3  0  0  0  0  0  0
  -38.6970  -25.8110   20.9200 C   0  0  0  0  0  0  0  0  0  0  0  0
  -38.3450  -25.8700   19.5590 C   0  0  0  0  0  3  0  0  0  0  0  0
  -38.4720  -24.7370   18.7390 C   0  0  0  0  0  3  0  0  0  0  0  0
  -38.5170  -26.9590   21.6550 O   0  0  0  0  0  0  0  0  0  0  0  0
  -39.1410  -28.1350   21.3200 C   0  0  0  0  0  0  0  0  0  0  0  0
  -38.9680  -28.7340   20.0530 C   0  0  0  0  0  3  0  0  0  0  0  0
  -39.5640  -29.9810   19.7780 C   0  0  0  0  0  3  0  0  0  0  0  0
  -40.3290  -30.6310   20.7650 C   0  0  0  0  0  0  0  0  0  0  0  0
  -40.5020  -30.0350   22.0290 C   0  0  0  0  0  3  0  0  0  0  0  0
  -39.9050  -28.7930   22.3060 C   0  0  0  0  0  0  0  0  0  0  0  0
  -40.0540  -28.2350   23.5330 F   0  0  0  0  0  0  0  0  0  0  0  0
  -40.8980  -31.8290   20.5010 F   0  0  0  0  0  0  0  0  0  0  0  0
  -41.1990  -21.1090   19.3460 C   0  0  0  0  0  0  0  0  0  0  0  0
  -40.9050  -21.0840   20.6430 N   0  0  0  0  0  0  0  0  0  0  0  0
  -42.3520  -20.9320   18.9530 O   0  0  0  0  0  0  0  0  0  0  0  0
  -39.9570  -21.2150   20.9600 H   0  0  0  0  0  0  0  0  0  0  0  0
  -41.6400  -20.9420   21.3220 H   0  0  0  0  0  0  0  0  0  0  0  0
  -40.4160  -19.4380   16.7140 N   0  0  0  0  0  2  0  0  0  0  0  0
  -41.2220  -19.0000   17.1430 H   0  0  0  0  0  0  0  0  0  0  0  0
  -40.1480  -19.0090   15.8350 H   0  0  0  0  0  0  0  0  0  0  0  0
  -34.7270  -14.9830   20.0270 C   0  0  0  0  0  2  0  0  0  0  0  0
  -33.2770  -14.5020   20.1910 C   0  0  0  0  0  2  0  0  0  0  0  0
  -32.3910  -14.9610   19.0360 C   0  0  0  0  0  2  0  0  0  0  0  0
  -32.7570  -16.3650   18.5520 C   0  0  0  0  0  2  0  0  0  0  0  0
  -33.8730  -16.9770   19.4010 C   0  0  0  0  0  2  0  0  0  0  0  0
  -33.4050  -17.3030   20.8210 C   0  0  0  0  0  2  0  0  0  0  0  0
  -33.0680  -18.7890   20.9810 C   0  0  0  0  0  2  0  0  0  0  0  0
  -32.0800  -19.0390   22.1300 C   0  0  0  0  0  2  0  0  0  0  0  0
  -31.1890  -20.2520   21.8680 C   0  0  0  0  0  0  0  0  0  0  0  0
  -30.4580  -20.6920   22.8950 N   0  0  0  0  0  0  0  0  0  0  0  0
  -31.1590  -20.7750   20.7530 O   0  0  0  0  0  0  0  0  0  0  0  0
  -30.5310  -20.1950   23.7740 H   0  0  0  0  0  0  0  0  0  0  0  0
  -29.5650  -21.8440   22.8580 C   0  0  0  0  0  2  0  0  0  0  0  0
  -29.9390  -22.8810   23.9240 C   0  0  0  0  0  2  0  0  0  0  0  0
  -28.7760  -23.5710   24.3760 O   0  0  0  0  0  0  0  0  0  0  0  0
  -29.7810  -30.1940   21.9700 C   0  0  0  0  0  0  0  0  0  0  0  0
  -28.4040  -24.5630   23.5140 C   0  0  0  0  0  0  0  0  0  0  0  0
  -27.8210  -28.9910   21.0540 C   0  0  0  0  0  3  0  0  0  0  0  0
  -27.6870  -26.5080   21.6140 C   0  0  0  0  0  0  0  0  0  0  0  0
  -29.8670  -27.7090   21.8860 C   0  0  0  0  0  3  0  0  0  0  0  0
  -28.9310  -26.5810   22.2550 C   0  0  0  0  0  0  0  0  0  0  0  0
  -29.2930  -25.6140   23.2120 C   0  0  0  0  0  3  0  0  0  0  0  0
  -27.1450  -24.5050   22.8840 C   0  0  0  0  0  3  0  0  0  0  0  0
  -26.7840  -25.4770   21.9310 C   0  0  0  0  0  3  0  0  0  0  0  0
  -27.3900  -27.5740   20.5860 C   0  0  0  0  0  2  0  0  0  0  0  0
  -29.1830  -29.0050   21.6770 N   0  0  0  0  0  0  0  0  0  0  0  0
  -29.2360  -31.2700   21.6900 O   0  0  0  0  0  0  0  0  0  0  0  0
  -26.7190  -29.5530   21.9800 C   0  0  0  0  0  0  0  0  0  0  0  0
  -26.8570  -29.2980   23.2920 N   0  0  0  0  0  0  0  0  0  0  0  0
  -25.7890  -30.2220   21.5250 O   0  0  0  0  0  0  0  0  0  0  0  0
  -27.6430  -28.7350   23.5850 H   0  0  0  0  0  0  0  0  0  0  0  0
  -26.7620  -30.4430   26.7160 C   0  0  0  0  0  0  0  0  0  0  0  0
  -25.9650  -29.7580   24.3540 C   0  0  0  0  0  3  0  0  0  0  0  0
  -25.5900  -31.2470   24.1610 C   0  0  0  0  0  2  0  0  0  0  0  0
  -26.5160  -32.2050   24.9160 C   0  0  0  0  0  2  0  0  0  0  0  0
  -26.4880  -31.9070   26.4170 C   0  0  0  0  0  2  0  0  0  0  0  0
  -26.5300  -29.4350   25.7420 C   0  0  0  0  0  0  0  0  0  0  0  0
  -26.8340  -28.0940   26.0570 C   0  0  0  0  0  3  0  0  0  0  0  0
  -27.3580  -27.7520   27.3180 C   0  0  0  0  0  3  0  0  0  0  0  0
  -27.5690  -28.7490   28.2850 C   0  0  0  0  0  3  0  0  0  0  0  0
  -27.2690  -30.0900   27.9850 C   0  0  0  0  0  3  0  0  0  0  0  0
  -31.1860  -30.2610   22.6500 C   0  0  0  0  0  3  0  0  0  0  0  0
  -31.0400  -31.0280   23.8940 N   0  0  0  0  0  0  0  0  0  0  0  0
  -31.0220  -30.4890   25.1200 C   0  0  0  0  0  3  0  0  0  0  0  0
  -31.0520  -29.2710   25.3180 O   0  0  0  0  0  0  0  0  0  0  0  0
  -31.0630  -32.0340   23.8110 H   0  0  0  0  0  0  0  0  0  0  0  0
  -32.1700  -31.2180   27.2340 C   0  0  0  0  0  1  0  0  0  0  0  0
  -30.9580  -31.4540   26.3200 C   0  0  0  0  0  3  0  0  0  0  0  0
  -28.9480  -32.5810   27.1700 C   0  0  0  0  0  1  0  0  0  0  0  0
  -29.7100  -31.3360   27.1040 N   0  0  0  0  0  0  0  0  0  0  0  0
  -29.9090  -31.0360   28.0560 H   0  0  0  0  0  0  0  0  0  0  0  0
  -31.8070  -28.8390   22.9390 C   0  0  1  0  0  0  0  0  0  0  0  0
  -31.0760  -28.0560   24.0540 C   0  0  0  0  0  2  0  0  0  0  0  0
  -31.7920  -27.9680   21.6610 C   0  0  0  0  0  2  0  0  0  0  0  0
  -33.2910  -28.9890   23.3520 C   0  0  0  0  0  1  0  0  0  0  0  0
  1 58  1  0
  2  1  1  0
  2  3  1  0
  4  5  1  0
  5  3  1  0
  6  4  2  0
  7  5  1  0
  8  9  1  0
  8  4  1  0
  9 10  1  0
 11 15  1  0
 11 12  1  0
 11 13  1  0
 12 10  1  0
 14 12  1  0
 16 15  1  0
 17 16  1  0
 18 17  1  0
 19 18  1  0
 20 26  1  0
 21 22  1  0
 22 23  1  0
 24 25  1  0
 24 23  1  0
 24 33  1  0
 26 21  1  0
 26 25  1  0
 27 20  2  0
 28 20  1  0
 28 19  1  0
 29 28  1  0
 30 31  2  0
 31 50  1  0
 32 31  1  0
 32 35  1  0
 33 30  1  0
 33 34  1  0
 34 32  2  0
 35 36  1  0
 36 37  2  0
 38 37  1  0
 38 41  1  0
 39 38  2  0
 40 35  2  0
 40 39  1  0
 42 41  1  0
 42 47  1  0
 43 42  2  0
 44 43  1  0
 44 45  2  0
 45 46  1  0
 46 47  2  0
 47 48  1  0
 49 45  1  0
 50 51  1  0
 51 53  1  0
 51 54  1  0
 52 50  2  0
 55 30  1  0
 56 13  1  0
 57 55  1  0
 58 59  1  0
 60 59  1  0
 61 60  1  0
 61 62  1  0
 62 63  1  0
 63 64  1  0
 64 65  1  0
 66 65  1  0
 66 67  1  0
 67 69  1  0
 68 66  2  0
 70 67  1  0
 70 71  1  0
 71 72  1  0
 74 72  1  0
 75 83  1  0
 75 85  1  0
 76 81  2  0
 76 78  1  0
 77111  1  0
 77 78  1  0
 78 79  2  0
 79 74  1  0
 80 74  2  0
 81 80  1  0
 82 75  1  0
 82 76  1  0
 83 77  1  0
 83 73  1  0
 84 73  2  0
 85 86  1  0
 86 88  1  0
 87 85  2  0
 89 98  1  0
 90 86  1  0
 90 94  1  0
 91 90  1  0
 91 92  1  0
 92 93  1  0
 93 89  1  0
 94 95  1  0
 94 89  2  0
 95 96  2  0
 96 97  1  0
 98 97  2  0
 99 73  1  0
 99109  1  0
 99100  1  0
100101  1  0
101102  1  0
101105  1  0
103100  1  0
105107  1  0
105104  1  0
107106  1  0
107108  1  0
109112  1  1
109110  1  0
110102  1  0
111109  1  0
M  ISO  4  20 100  28 100  71 101  72 101
M  END
>  <TORSDO>  (51) 
F 39

>  <SCORE>  (51) 
2.789

>  <name>  (51) 
50

>  <ligand_id>  (51) 
50

>  <original_smiles>  (51) 
[H]c1c([H])c([H])c2c(c1[H])C([H])([H])C([H])([H])C([H])([H])C2([H])N([H])C(=O)C1([H])N(C(=O)C([H])(N([H])C(=O)C([H])(N([H])C([H])([H])[H])C([H])([H])[H])C(C([H])([H])[H])(C([H])([H])[H])C([H])([H])[H])C([H])([H])c2c([H])c(OC([H])([H])C([H])([H])N([H])C(=O)C([H])([H])C([H])([H])C([H])([H])C([H])([H])C([H])([H])C([H])([H])C([H])([H])C([H])([H])C([H])([H])C([H])([H])C([H])([H])N([H])C(=O)C([H])([H])C([H])([H])C([H])([H])N([H])C(=O)C([H])([H])C([H])([H])C([H])([H])C([H])([H])C([H])([H])N([H])C(=O)N3C([H])([H])C([H])([H])C([H])([H])C([H])(n4nc(-c5c([H])c([H])c(Oc6c([H])c([H])c(F)c([H])c6F)c([H])c5[H])c(C(=O)N([H])[H])c4N([H])[H])C3([H])[H])c([H])c([H])c2C1([H])[H]

>  <smiles>  (51) 
[H]c1c([H])c([H])c2c(c1[H])C([H])([H])C([H])([H])C([H])([H])C2([H])N([H])C(=O)C1([H])N(C(=O)C([H])(N([H])C(=O)C([H])(N([H])C([H])([H])[H])C([H])([H])[H])C(C([H])([H])[H])(C([H])([H])[H])C([H])([H])[H])C([H])([H])c2c([H])c(OC([H])([H])C([H])([H])N([H])C(=O)C([H])([H])C([H])([H])C([H])([H])C([H])([H])C([H])([H])C([H])([H])C([H])([H])C([H])([H])C([H])([H])C([H])([H])C([H])([H])N([H])C(=O)C([H])([H])C([H])([H])C([H])([H])N([H])C(=O)C([H])([H])C([H])([H])C([H])([H])C([H])([H])C([H])([H])N([H])C(=O)N3C([H])([H])C([H])([H])C([H])([H])C([H])(n4nc(-c5c([H])c([H])c(Oc6c([H])c([H])c(F)c([H])c6F)c([H])c5[H])c(C(=O)N([H])[H])c4N([H])[H])C3([H])[H])c([H])c([H])c2C1([H])[H]

$$$$
51:0:0
     RDKit          3D

105113  0  0  1  0  0  0  0  0999 V2000
  -25.3370  -24.6810   16.0560 C   0  0  0  0  0  0  0  0  0  0  0  0
  -25.3310  -26.0210   15.9370 N   0  0  0  0  0  0  0  0  0  0  0  0
  -26.3570  -23.9930   16.1490 O   0  0  0  0  0  0  0  0  0  0  0  0
  -24.4160  -26.4330   15.8070 H   0  0  0  0  0  0  0  0  0  0  0  0
  -27.2210  -29.1450   15.1900 C   0  0  0  0  0  3  0  0  0  0  0  0
  -26.1850  -28.1970   15.2980 C   0  0  0  0  0  3  0  0  0  0  0  0
  -28.5070  -28.8410   15.6700 C   0  0  0  0  0  3  0  0  0  0  0  0
  -27.7200  -26.6560   16.3900 C   0  0  0  0  0  3  0  0  0  0  0  0
  -26.4240  -26.9360   15.8830 C   0  0  0  0  0  0  0  0  0  0  0  0
  -28.7670  -27.6030   16.2870 C   0  0  0  0  0  0  0  0  0  0  0  0
  -30.0550  -27.3640   16.7200 O   0  0  0  0  0  0  0  0  0  0  0  0
  -30.2320  -26.6740   17.9580 C   0  0  0  0  0  2  0  0  0  0  0  0
  -30.0400  -27.6460   19.1330 C   0  0  0  0  0  2  0  0  0  0  0  0
  -29.7620  -26.9290   20.4690 C   0  0  0  0  0  2  0  0  0  0  0  0
  -28.4890  -26.2800   20.4400 O   0  0  0  0  0  0  0  0  0  0  0  0
  -24.5850  -31.5980   23.2200 C   0  0  0  0  0  0  0  0  0  0  0  0
  -27.3530  -27.0620   20.4260 C   0  0  0  0  0  0  0  0  0  0  0  0
  -23.4550  -30.1800   21.5310 C   0  0  0  0  0  3  0  0  0  0  0  0
  -24.9680  -28.5700   20.2520 C   0  0  0  0  0  0  0  0  0  0  0  0
  -25.9900  -30.4920   21.4880 C   0  0  0  0  0  2  0  0  0  0  0  0
  -26.0890  -29.1020   20.9020 C   0  0  0  0  0  0  0  0  0  0  0  0
  -27.2800  -28.3560   20.9940 C   0  0  0  0  0  3  0  0  0  0  0  0
  -26.2100  -26.5300   19.7960 C   0  0  0  0  0  3  0  0  0  0  0  0
  -25.0200  -27.2770   19.6980 C   0  0  0  0  0  3  0  0  0  0  0  0
  -23.7390  -29.4500   20.1880 C   0  0  0  0  0  2  0  0  0  0  0  0
  -24.6920  -30.7720   22.1410 N   0  0  0  0  0  0  0  0  0  0  0  0
  -23.4780  -31.9090   23.6820 O   0  0  0  0  0  0  0  0  0  0  0  0
  -22.7180  -29.2020   22.4730 C   0  0  0  0  0  0  0  0  0  0  0  0
  -21.3860  -29.1170   22.3250 N   0  0  0  0  0  0  0  0  0  0  0  0
  -23.3410  -28.5210   23.2910 O   0  0  0  0  0  0  0  0  0  0  0  0
  -20.9470  -29.7140   21.6380 H   0  0  0  0  0  0  0  0  0  0  0  0
  -17.9170  -28.2650   22.8460 C   0  0  0  0  0  0  0  0  0  0  0  0
  -20.4920  -28.2350   23.0720 C   0  0  0  0  0  3  0  0  0  0  0  0
  -20.4300  -26.8300   22.4270 C   0  0  0  0  0  2  0  0  0  0  0  0
  -19.2820  -26.6780   21.4230 C   0  0  0  0  0  2  0  0  0  0  0  0
  -17.9350  -26.9390   22.1050 C   0  0  0  0  0  2  0  0  0  0  0  0
  -19.1190  -28.8820   23.2860 C   0  0  0  0  0  0  0  0  0  0  0  0
  -19.0490  -30.1330   23.9350 C   0  0  0  0  0  3  0  0  0  0  0  0
  -17.8090  -30.7640   24.1520 C   0  0  0  0  0  3  0  0  0  0  0  0
  -16.6210  -30.1420   23.7300 C   0  0  0  0  0  3  0  0  0  0  0  0
  -16.6770  -28.8950   23.0810 C   0  0  0  0  0  3  0  0  0  0  0  0
  -25.8440  -32.2140   23.9090 C   0  0  0  0  0  3  0  0  0  0  0  0
  -25.5440  -33.6220   24.2020 N   0  0  0  0  0  0  0  0  0  0  0  0
  -25.9330  -34.6570   23.4460 C   0  0  0  0  0  0  0  0  0  0  0  0
  -26.6520  -34.5280   22.4500 O   0  0  0  0  0  0  0  0  0  0  0  0
  -24.9010  -33.7990   24.9610 H   0  0  0  0  0  0  0  0  0  0  0  0
  -24.2500  -36.4700   22.9870 C   0  0  0  0  0  1  0  0  0  0  0  0
  -25.4460  -36.0590   23.8600 C   0  0  0  0  0  3  0  0  0  0  0  0
  -27.5500  -36.9270   24.7800 C   0  0  0  0  0  1  0  0  0  0  0  0
  -26.4990  -37.0960   23.7820 N   0  0  0  0  0  0  0  0  0  0  0  0
  -26.0990  -38.0240   23.8930 H   0  0  0  0  0  0  0  0  0  0  0  0
  -26.2760  -31.4490   25.2200 C   0  0  1  0  0  0  0  0  0  0  0  0
  -25.1210  -31.2440   26.2290 C   0  0  0  0  0  1  0  0  0  0  0  0
  -26.8470  -30.0550   24.8700 C   0  0  0  0  0  1  0  0  0  0  0  0
  -27.4080  -32.2230   25.9340 C   0  0  0  0  0  1  0  0  0  0  0  0
  -23.9760  -23.9710   16.0590 C   0  0  0  0  0  2  0  0  0  0  0  0
  -23.8810  -22.7950   17.0630 C   0  0  0  0  0  2  0  0  0  0  0  0
  -24.9510  -21.7790   16.8990 N   0  0  0  0  0  4  0  0  0  0  0  0
  -25.7790  -22.2830   16.6040 H   0  0  0  0  0  0  0  0  0  0  0  0
  -24.7030  -21.1420   16.1580 H   0  0  0  0  0  0  0  0  0  0  0  0
  -25.2620  -21.0180   18.1280 C   0  0  0  0  0  2  0  0  0  0  0  0
  -26.6380  -20.3270   18.0620 C   0  0  0  0  0  2  0  0  0  0  0  0
  -26.9950  -19.6060   19.3760 C   0  0  0  0  0  2  0  0  0  0  0  0
  -28.4360  -19.0730   19.3980 C   0  0  0  0  0  2  0  0  0  0  0  0
  -28.7670  -18.3030   20.6870 C   0  0  0  0  0  2  0  0  0  0  0  0
  -30.2720  -18.0280   20.8440 C   0  0  0  0  0  2  0  0  0  0  0  0
  -30.6000  -16.9580   21.9030 C   0  0  0  0  0  2  0  0  0  0  0  0
  -30.6750  -14.8060   20.6470 C   0  0  0  0  0  0  0  0  0  0  0  0
  -30.4060  -12.7300   19.3460 C   0  0  0  0  0  2  0  0  0  0  0  0
  -29.4660  -12.9560   18.1460 C   0  0  0  0  0  2  0  0  0  0  0  0
  -27.9930  -12.7680   18.5600 C   0  0  0  0  0  2  0  0  0  0  0  0
  -27.6280  -13.5560   19.8450 C   0  0  0  0  0  3  0  0  0  0  0  0
  -28.6730  -13.3020   20.9530 C   0  0  0  0  0  2  0  0  0  0  0  0
  -30.0040  -13.6500   20.4200 N   0  0  0  0  0  0  0  0  0  0  0  0
  -31.7260  -15.1050   20.0730 O   0  0  0  0  0  0  0  0  0  0  0  0
  -30.1010  -15.6370   21.5270 N   0  0  0  0  0  0  0  0  0  0  0  0
  -29.2460  -15.3190   21.9600 H   0  0  0  0  0  0  0  0  0  0  0  0
  -25.1960  -14.0860   20.5130 C   0  0  0  0  0  0  0  0  0  0  0  0
  -24.1480  -13.2770   20.8620 C   0  0  0  0  0  0  0  0  0  0  0  0
  -24.6530  -11.9420   20.8340 C   0  0  0  0  0  0  0  0  0  0  0  0
  -26.2740  -13.2390   20.2970 N   0  0  0  0  0  0  0  0  0  0  0  0
  -25.9490  -11.9450   20.5450 N   0  0  0  0  0  0  0  0  0  0  0  0
  -23.9680  -10.6540   21.0080 C   0  0  0  0  0  0  0  0  0  0  0  0
  -24.3910   -9.7170   21.9760 C   0  0  0  0  0  3  0  0  0  0  0  0
  -23.7050   -8.4940   22.1370 C   0  0  0  0  0  3  0  0  0  0  0  0
  -22.5810   -8.2000   21.3290 C   0  0  0  0  0  0  0  0  0  0  0  0
  -22.1760   -9.1270   20.3520 C   0  0  0  0  0  3  0  0  0  0  0  0
  -22.8650  -10.3420   20.1890 C   0  0  0  0  0  3  0  0  0  0  0  0
  -21.8680   -7.0270   21.3970 O   0  0  0  0  0  0  0  0  0  0  0  0
  -21.7660   -6.3130   22.5640 C   0  0  0  0  0  0  0  0  0  0  0  0
  -21.1930   -6.8670   23.7280 C   0  0  0  0  0  3  0  0  0  0  0  0
  -21.0440   -6.0750   24.8850 C   0  0  0  0  0  3  0  0  0  0  0  0
  -21.4610   -4.7310   24.8770 C   0  0  0  0  0  0  0  0  0  0  0  0
  -22.0270   -4.1750   23.7160 C   0  0  0  0  0  3  0  0  0  0  0  0
  -22.1770   -4.9650   22.5610 C   0  0  0  0  0  0  0  0  0  0  0  0
  -22.7040   -4.4200   21.4380 F   0  0  0  0  0  0  0  0  0  0  0  0
  -21.3120   -3.9670   25.9840 F   0  0  0  0  0  0  0  0  0  0  0  0
  -22.7320  -13.7070   21.1190 C   0  0  0  0  0  0  0  0  0  0  0  0
  -22.0160  -12.9840   21.9730 N   0  0  0  0  0  0  0  0  0  0  0  0
  -22.2660  -14.7180   20.5940 O   0  0  0  0  0  0  0  0  0  0  0  0
  -22.4030  -12.1670   22.4200 H   0  0  0  0  0  0  0  0  0  0  0  0
  -21.0650  -13.2540   22.1830 H   0  0  0  0  0  0  0  0  0  0  0  0
  -25.3200  -15.4610   20.3410 N   0  0  0  0  0  0  0  0  0  0  0  0
  -24.5350  -16.0940   20.4410 H   0  0  0  0  0  0  0  0  0  0  0  0
  -26.1670  -15.9250   20.0360 H   0  0  0  0  0  0  0  0  0  0  0  0
  1 56  1  0
  1  3  2  0
  2  1  1  0
  4  2  1  0
  5  6  2  0
  5  7  1  0
  6  9  1  0
  7 10  2  0
  9  2  1  0
  9  8  2  0
 10  8  1  0
 10 11  1  0
 11 12  1  0
 12 13  1  0
 13 14  1  0
 15 14  1  0
 16 27  2  0
 17 15  1  0
 17 22  1  0
 18 26  1  0
 18 28  1  0
 19 21  1  0
 20 26  1  0
 21 22  2  0
 21 20  1  0
 23 17  2  0
 24 23  1  0
 24 19  2  0
 25 19  1  0
 25 18  1  0
 26 16  1  0
 28 30  2  0
 29 28  1  0
 31 29  1  0
 32 41  2  0
 32 37  1  0
 33 29  1  0
 33 37  1  0
 34 33  1  0
 35 36  1  0
 35 34  1  0
 36 32  1  0
 37 38  2  0
 38 39  1  0
 40 39  2  0
 41 40  1  0
 42 16  1  0
 42 43  1  0
 42 52  1  0
 43 46  1  0
 44 48  1  0
 44 43  1  0
 45 44  2  0
 48 47  1  0
 50 48  1  0
 50 51  1  0
 50 49  1  0
 52 55  1  1
 52 53  1  0
 54 52  1  0
 56 57  1  0
 58 57  1  0
 58 61  1  0
 59 58  1  0
 60 58  1  0
 62 61  1  0
 62 63  1  0
 63 64  1  0
 64 65  1  0
 65 66  1  0
 66 67  1  0
 68 76  1  0
 69 74  1  0
 70 71  1  0
 70 69  1  0
 72 71  1  0
 72 81  1  0
 72 73  1  0
 74 68  1  0
 74 73  1  0
 75 68  2  0
 76 67  1  0
 76 77  1  0
 78 79  2  0
 79 98  1  0
 80 79  1  0
 80 83  1  0
 81 78  1  0
 81 82  1  0
 82 80  2  0
 83 84  1  0
 84 85  2  0
 86 89  1  0
 86 85  1  0
 87 86  2  0
 88 87  1  0
 88 83  2  0
 89 90  1  0
 90 91  1  0
 91 92  2  0
 93 92  1  0
 93 97  1  0
 94 93  2  0
 95 90  2  0
 95 94  1  0
 96 95  1  0
 98 99  1  0
 99102  1  0
 99101  1  0
100 98  2  0
103104  1  0
103 78  1  0
105103  1  0
M  ISO  4  14 101  15 101  68 100  76 100
M  END
>  <TORSDO>  (52) 
F 31

>  <SCORE>  (52) 
-10.558

>  <name>  (52) 
51

>  <ligand_id>  (52) 
51

>  <original_smiles>  (52) 
[H]c1c([H])c(OC([H])([H])C([H])([H])C([H])([H])Oc2c([H])c([H])c3c(c2[H])C([H])([H])N(C(=O)C([H])(N([H])C(=O)C([H])(N([H])C([H])([H])[H])C([H])([H])[H])C(C([H])([H])[H])(C([H])([H])[H])C([H])([H])[H])C([H])(C(=O)N([H])C2([H])c4c([H])c([H])c([H])c([H])c4C([H])([H])C([H])([H])C2([H])[H])C3([H])[H])c([H])c(N([H])C(=O)C([H])([H])C([H])([H])[N+]([H])([H])C([H])([H])C([H])([H])C([H])([H])C([H])([H])C([H])([H])C([H])([H])C([H])([H])N([H])C(=O)N2C([H])([H])C([H])([H])C([H])([H])C([H])(n3nc(-c4c([H])c([H])c(Oc5c([H])c([H])c(F)c([H])c5F)c([H])c4[H])c(C(=O)N([H])[H])c3N([H])[H])C2([H])[H])c1[H]

>  <smiles>  (52) 
[H]c1c([H])c(OC([H])([H])C([H])([H])C([H])([H])Oc2c([H])c([H])c3c(c2[H])C([H])([H])N(C(=O)C([H])(N([H])C(=O)C([H])(N([H])C([H])([H])[H])C([H])([H])[H])C(C([H])([H])[H])(C([H])([H])[H])C([H])([H])[H])C([H])(C(=O)N([H])C2([H])c4c([H])c([H])c([H])c([H])c4C([H])([H])C([H])([H])C2([H])[H])C3([H])[H])c([H])c(N([H])C(=O)C([H])([H])C([H])([H])[N+]([H])([H])C([H])([H])C([H])([H])C([H])([H])C([H])([H])C([H])([H])C([H])([H])C([H])([H])N([H])C(=O)N2C([H])([H])C([H])([H])C([H])([H])C([H])(n3nc(-c4c([H])c([H])c(Oc5c([H])c([H])c(F)c([H])c5F)c([H])c4[H])c(C(=O)N([H])[H])c3N([H])[H])C2([H])[H])c1[H]

$$$$
52:0:0
     RDKit          3D

 89 97  0  0  1  0  0  0  0  0999 V2000
  -29.2950  -21.0210   20.6670 O   0  0  0  0  0  0  0  0  0  0  0  0
  -29.9360  -18.4520   17.9800 C   0  0  0  0  0  3  0  0  0  0  0  0
  -30.0500  -17.2450   18.6970 C   0  0  0  0  0  3  0  0  0  0  0  0
  -29.6640  -19.6750   18.6240 C   0  0  0  0  0  3  0  0  0  0  0  0
  -29.6110  -18.4860   20.7420 C   0  0  0  0  0  3  0  0  0  0  0  0
  -29.8800  -17.2050   20.0990 C   0  0  0  0  0  0  0  0  0  0  0  0
  -29.5100  -19.7580   20.0290 C   0  0  0  0  0  0  0  0  0  0  0  0
  -30.6010  -14.7370   20.4170 C   0  0  0  0  0  0  0  0  0  0  0  0
  -30.3770  -12.4630   19.4240 C   0  0  0  0  0  2  0  0  0  0  0  0
  -29.4550  -12.5730   18.1880 C   0  0  0  0  0  2  0  0  0  0  0  0
  -27.9790  -12.4180   18.5990 C   0  0  0  0  0  2  0  0  0  0  0  0
  -27.6070  -13.2920   19.8260 C   0  0  0  0  0  3  0  0  0  0  0  0
  -28.6550  -13.1820   20.9580 C   0  0  0  0  0  2  0  0  0  0  0  0
  -29.9670  -13.5140   20.3850 N   0  0  0  0  0  0  0  0  0  0  0  0
  -31.7670  -14.8330   20.0240 O   0  0  0  0  0  0  0  0  0  0  0  0
  -29.8780  -15.8700   20.7530 N   0  0  0  0  0  0  0  0  0  0  0  0
  -29.0650  -15.6850   21.3230 H   0  0  0  0  0  0  0  0  0  0  0  0
  -25.2110  -13.8880   20.5220 C   0  0  0  0  0  0  0  0  0  0  0  0
  -24.1410  -13.1180   20.8890 C   0  0  0  0  0  0  0  0  0  0  0  0
  -24.6030  -11.7650   20.8710 C   0  0  0  0  0  0  0  0  0  0  0  0
  -26.2560  -13.0060   20.3030 N   0  0  0  0  0  0  0  0  0  0  0  0
  -25.8960  -11.7250   20.5750 N   0  0  0  0  0  0  0  0  0  0  0  0
  -23.8720  -10.5060   21.0630 C   0  0  0  0  0  0  0  0  0  0  0  0
  -24.3070   -9.5330   21.9900 C   0  0  0  0  0  3  0  0  0  0  0  0
  -23.5760   -8.3390   22.1720 C   0  0  0  0  0  3  0  0  0  0  0  0
  -22.3950   -8.1100   21.4260 C   0  0  0  0  0  0  0  0  0  0  0  0
  -21.9790   -9.0710   20.4880 C   0  0  0  0  0  3  0  0  0  0  0  0
  -22.7110  -10.2550   20.3040 C   0  0  0  0  0  3  0  0  0  0  0  0
  -21.6360   -6.9680   21.5170 O   0  0  0  0  0  0  0  0  0  0  0  0
  -21.6070   -6.2110   22.6600 C   0  0  0  0  0  0  0  0  0  0  0  0
  -21.2230   -6.7560   23.9050 C   0  0  0  0  0  3  0  0  0  0  0  0
  -21.1400   -5.9270   25.0420 C   0  0  0  0  0  3  0  0  0  0  0  0
  -21.4290   -4.5530   24.9340 C   0  0  0  0  0  0  0  0  0  0  0  0
  -21.8060   -4.0080   23.6940 C   0  0  0  0  0  3  0  0  0  0  0  0
  -21.8920   -4.8340   22.5600 C   0  0  0  0  0  0  0  0  0  0  0  0
  -22.2340   -4.2990   21.3640 F   0  0  0  0  0  0  0  0  0  0  0  0
  -21.3430   -3.7540   26.0230 F   0  0  0  0  0  0  0  0  0  0  0  0
  -22.7420  -13.5990   21.1430 C   0  0  0  0  0  0  0  0  0  0  0  0
  -22.0050  -12.9120   22.0090 N   0  0  0  0  0  0  0  0  0  0  0  0
  -22.3110  -14.6210   20.6110 O   0  0  0  0  0  0  0  0  0  0  0  0
  -22.3650  -12.0850   22.4620 H   0  0  0  0  0  0  0  0  0  0  0  0
  -21.0670  -13.2170   22.2210 H   0  0  0  0  0  0  0  0  0  0  0  0
  -25.3780  -15.2570   20.3340 N   0  0  0  0  0  0  0  0  0  0  0  0
  -24.6100  -15.9130   20.4280 H   0  0  0  0  0  0  0  0  0  0  0  0
  -26.2290  -15.6900   19.9960 H   0  0  0  0  0  0  0  0  0  0  0  0
  -28.9080  -22.2590   19.9150 C   0  0  0  0  0  3  0  0  0  0  0  0
  -28.9510  -23.7300   20.5960 C   0  0  0  0  0  3  0  0  0  0  0  0
  -28.1250  -24.9400   19.9070 C   0  0  0  0  0  2  0  0  0  0  0  0
  -28.2870  -26.3920   20.2760 O   0  0  0  0  0  0  0  0  0  0  0  0
  -24.6020  -31.8830   23.2620 C   0  0  0  0  0  0  0  0  0  0  0  0
  -27.1880  -27.2840   20.1920 C   0  0  0  0  0  0  0  0  0  0  0  0
  -23.3890  -30.4870   21.6280 C   0  0  0  0  0  3  0  0  0  0  0  0
  -24.8330  -28.9380   20.1890 C   0  0  0  0  0  0  0  0  0  0  0  0
  -25.9320  -30.7900   21.4390 C   0  0  0  0  0  2  0  0  0  0  0  0
  -26.0060  -29.4090   20.7890 C   0  0  0  0  0  0  0  0  0  0  0  0
  -27.1820  -28.5920   20.7870 C   0  0  0  0  0  3  0  0  0  0  0  0
  -25.9950  -26.8960   19.5370 C   0  0  0  0  0  3  0  0  0  0  0  0
  -24.8330  -27.6880   19.5520 C   0  0  0  0  0  3  0  0  0  0  0  0
  -23.5980  -29.8170   20.2450 C   0  0  0  0  0  2  0  0  0  0  0  0
  -24.6600  -31.0720   22.1650 N   0  0  0  0  0  0  0  0  0  0  0  0
  -23.5200  -32.1630   23.8010 O   0  0  0  0  0  0  0  0  0  0  0  0
  -22.7280  -29.4710   22.5900 C   0  0  0  0  0  0  0  0  0  0  0  0
  -21.4020  -29.2910   22.4650 N   0  0  0  0  0  0  0  0  0  0  0  0
  -23.4080  -28.8490   23.4100 O   0  0  0  0  0  0  0  0  0  0  0  0
  -20.9100  -29.8450   21.7780 H   0  0  0  0  0  0  0  0  0  0  0  0
  -18.0310  -28.0740   22.9630 C   0  0  0  0  0  0  0  0  0  0  0  0
  -20.5860  -28.3530   23.2400 C   0  0  0  0  0  3  0  0  0  0  0  0
  -20.7000  -26.9170   22.6750 C   0  0  0  0  0  2  0  0  0  0  0  0
  -19.6040  -26.5800   21.6590 C   0  0  0  0  0  2  0  0  0  0  0  0
  -18.2190  -26.7210   22.2970 C   0  0  0  0  0  2  0  0  0  0  0  0
  -19.1430  -28.8470   23.3920 C   0  0  0  0  0  0  0  0  0  0  0  0
  -18.9130  -30.1120   23.9750 C   0  0  0  0  0  3  0  0  0  0  0  0
  -17.6040  -30.6050   24.1340 C   0  0  0  0  0  3  0  0  0  0  0  0
  -16.5070  -29.8300   23.7210 C   0  0  0  0  0  3  0  0  0  0  0  0
  -16.7200  -28.5660   23.1410 C   0  0  0  0  0  3  0  0  0  0  0  0
  -25.8860  -32.5160   23.8780 C   0  0  0  0  0  3  0  0  0  0  0  0
  -26.4050  -31.7460   25.1540 C   0  0  1  0  0  0  0  0  0  0  0  0
  -25.3140  -31.5150   26.2270 C   0  0  0  0  0  1  0  0  0  0  0  0
  -26.9810  -30.3650   24.7650 C   0  0  0  0  0  1  0  0  0  0  0  0
  -27.5610  -32.5370   25.8080 C   0  0  0  0  0  1  0  0  0  0  0  0
  -25.5810  -33.9160   24.2080 N   0  0  0  0  0  0  0  0  0  0  0  0
  -25.9070  -34.9680   23.4450 C   0  0  0  0  0  0  0  0  0  0  0  0
  -26.5670  -34.8610   22.4080 O   0  0  0  0  0  0  0  0  0  0  0  0
  -24.9960  -34.0710   25.0160 H   0  0  0  0  0  0  0  0  0  0  0  0
  -24.1760  -36.7610   23.1060 C   0  0  0  0  0  1  0  0  0  0  0  0
  -25.4260  -36.3570   23.9050 C   0  0  0  0  0  3  0  0  0  0  0  0
  -27.5730  -37.2410   24.7060 C   0  0  0  0  0  1  0  0  0  0  0  0
  -26.4580  -37.4100   23.7790 N   0  0  0  0  0  0  0  0  0  0  0  0
  -26.0550  -38.3300   23.9340 H   0  0  0  0  0  0  0  0  0  0  0  0
  2  4  2  0
  2  3  1  0
  3  6  2  0
  4  7  1  0
  6  5  1  0
  6 16  1  0
  7  1  1  0
  7  5  2  0
  8 16  1  0
  9 14  1  0
 10 11  1  0
 10  9  1  0
 12 11  1  0
 12 21  1  0
 12 13  1  0
 14  8  1  0
 14 13  1  0
 15  8  2  0
 16 17  1  0
 18 19  2  0
 19 38  1  0
 20 19  1  0
 20 23  1  0
 21 18  1  0
 21 22  1  0
 22 20  2  0
 23 24  1  0
 24 25  2  0
 26 29  1  0
 26 25  1  0
 27 26  2  0
 28 27  1  0
 28 23  2  0
 29 30  1  0
 30 31  1  0
 31 32  2  0
 33 32  1  0
 33 37  1  0
 34 33  2  0
 35 30  2  0
 35 34  1  0
 36 35  1  0
 38 39  1  0
 39 42  1  0
 39 41  1  0
 40 38  2  0
 43 44  1  0
 43 18  1  0
 45 43  1  0
 46 47  2  0
 46  1  1  0
 48 49  1  0
 48 47  1  0
 50 61  2  0
 51 49  1  0
 51 56  1  0
 52 60  1  0
 52 62  1  0
 53 59  1  0
 53 55  1  0
 54 60  1  0
 55 54  1  0
 56 55  2  0
 57 58  1  0
 57 51  2  0
 58 53  2  0
 59 52  1  0
 60 50  1  0
 62 64  2  0
 63 62  1  0
 65 63  1  0
 66 75  2  0
 66 71  1  0
 67 63  1  0
 67 71  1  0
 68 67  1  0
 69 70  1  0
 69 68  1  0
 70 66  1  0
 71 72  2  0
 72 73  1  0
 74 73  2  0
 75 74  1  0
 76 50  1  0
 76 81  1  0
 76 77  1  0
 77 80  1  1
 77 78  1  0
 79 77  1  0
 81 84  1  0
 82 86  1  0
 82 81  1  0
 83 82  2  0
 86 85  1  0
 88 86  1  0
 88 89  1  0
 88 87  1  0
M  ISO  4   8 100  16 100  48 101  49 101
M  END
>  <TORSDO>  (53) 
F 20

>  <SCORE>  (53) 
-13.721

>  <name>  (53) 
52

>  <ligand_id>  (53) 
52

>  <original_smiles>  (53) 
[H]c1c([H])c(OC([H])([H])C([H])([H])C([H])([H])Oc2c([H])c([H])c3c(c2[H])C([H])([H])N(C(=O)C([H])(N([H])C(=O)C([H])(N([H])C([H])([H])[H])C([H])([H])[H])C(C([H])([H])[H])(C([H])([H])[H])C([H])([H])[H])C([H])(C(=O)N([H])C2([H])c4c([H])c([H])c([H])c([H])c4C([H])([H])C([H])([H])C2([H])[H])C3([H])[H])c([H])c(N([H])C(=O)N2C([H])([H])C([H])([H])C([H])([H])C([H])(n3nc(-c4c([H])c([H])c(Oc5c([H])c([H])c(F)c([H])c5F)c([H])c4[H])c(C(=O)N([H])[H])c3N([H])[H])C2([H])[H])c1[H]

>  <smiles>  (53) 
[H]c1c([H])c(OC([H])([H])C([H])([H])C([H])([H])Oc2c([H])c([H])c3c(c2[H])C([H])([H])N(C(=O)C([H])(N([H])C(=O)C([H])(N([H])C([H])([H])[H])C([H])([H])[H])C(C([H])([H])[H])(C([H])([H])[H])C([H])([H])[H])C([H])(C(=O)N([H])C2([H])c4c([H])c([H])c([H])c([H])c4C([H])([H])C([H])([H])C2([H])[H])C3([H])[H])c([H])c(N([H])C(=O)N2C([H])([H])C([H])([H])C([H])([H])C([H])(n3nc(-c4c([H])c([H])c(Oc5c([H])c([H])c(F)c([H])c5F)c([H])c4[H])c(C(=O)N([H])[H])c3N([H])[H])C2([H])[H])c1[H]

$$$$
53:0:0
     RDKit          3D

101109  0  0  1  0  0  0  0  0999 V2000
  -24.6330  -19.5950   18.6930 C   0  0  0  0  0  2  0  0  0  0  0  0
  -24.8610  -19.4560   17.1710 C   0  0  0  0  0  2  0  0  0  0  0  0
  -26.1810  -20.0520   16.6140 C   0  0  0  0  0  2  0  0  0  0  0  0
  -27.9840  -18.7380   17.6860 C   0  0  0  0  0  0  0  0  0  0  0  0
  -27.3280  -19.8840   17.5040 N   0  0  0  0  0  0  0  0  0  0  0  0
  -27.6790  -17.6880   17.1160 O   0  0  0  0  0  0  0  0  0  0  0  0
  -27.6170  -20.6850   18.0520 H   0  0  0  0  0  0  0  0  0  0  0  0
  -31.1420  -19.7010   19.6280 C   0  0  0  0  0  3  0  0  0  0  0  0
  -30.0620  -19.7830   18.7240 C   0  0  0  0  0  3  0  0  0  0  0  0
  -31.2820  -18.5820   20.4760 C   0  0  0  0  0  3  0  0  0  0  0  0
  -29.2120  -17.6770   19.5860 C   0  0  0  0  0  3  0  0  0  0  0  0
  -29.0910  -18.7590   18.6960 C   0  0  0  0  0  0  0  0  0  0  0  0
  -30.3250  -17.5430   20.4320 C   0  0  0  0  0  0  0  0  0  0  0  0
  -31.2500  -15.3490   20.7670 C   0  0  0  0  0  0  0  0  0  0  0  0
  -31.1050  -13.1590   19.6580 C   0  0  0  0  0  2  0  0  0  0  0  0
  -30.2340  -13.3050   18.3920 C   0  0  0  0  0  2  0  0  0  0  0  0
  -28.7400  -13.1080   18.7190 C   0  0  0  0  0  2  0  0  0  0  0  0
  -28.2910  -13.9620   19.9290 C   0  0  0  0  0  3  0  0  0  0  0  0
  -29.2730  -13.8140   21.1140 C   0  0  0  0  0  2  0  0  0  0  0  0
  -30.6290  -14.1450   20.6390 N   0  0  0  0  0  0  0  0  0  0  0  0
  -32.4050  -15.5600   20.3890 O   0  0  0  0  0  0  0  0  0  0  0  0
  -30.4550  -16.3470   21.1860 N   0  0  0  0  0  0  0  0  0  0  0  0
  -29.5880  -15.9950   21.5620 H   0  0  0  0  0  0  0  0  0  0  0  0
  -25.8470  -14.5520   20.4990 C   0  0  0  0  0  0  0  0  0  0  0  0
  -24.7680  -13.7650   20.7980 C   0  0  0  0  0  0  0  0  0  0  0  0
  -25.2450  -12.4200   20.7690 C   0  0  0  0  0  0  0  0  0  0  0  0
  -26.9130  -13.6820   20.3170 N   0  0  0  0  0  0  0  0  0  0  0  0
  -26.5500  -12.3950   20.5370 N   0  0  0  0  0  0  0  0  0  0  0  0
  -24.5260  -11.1480   20.8870 C   0  0  0  0  0  0  0  0  0  0  0  0
  -24.8880  -10.1860   21.8560 C   0  0  0  0  0  3  0  0  0  0  0  0
  -24.1710   -8.9740   21.9600 C   0  0  0  0  0  3  0  0  0  0  0  0
  -23.0810   -8.7200   21.0940 C   0  0  0  0  0  0  0  0  0  0  0  0
  -22.7430   -9.6710   20.1150 C   0  0  0  0  0  3  0  0  0  0  0  0
  -23.4600  -10.8730   20.0090 C   0  0  0  0  0  3  0  0  0  0  0  0
  -22.3410   -7.5630   21.1080 O   0  0  0  0  0  0  0  0  0  0  0  0
  -22.1100   -6.8720   22.2710 C   0  0  0  0  0  0  0  0  0  0  0  0
  -21.4790   -7.4720   23.3810 C   0  0  0  0  0  3  0  0  0  0  0  0
  -21.1970   -6.7060   24.5310 C   0  0  0  0  0  3  0  0  0  0  0  0
  -21.5350   -5.3400   24.5670 C   0  0  0  0  0  0  0  0  0  0  0  0
  -22.1600   -4.7390   23.4590 C   0  0  0  0  0  3  0  0  0  0  0  0
  -22.4440   -5.5030   22.3140 C   0  0  0  0  0  0  0  0  0  0  0  0
  -23.0260   -4.9140   21.2420 F   0  0  0  0  0  0  0  0  0  0  0  0
  -21.2580   -4.6010   25.6670 F   0  0  0  0  0  0  0  0  0  0  0  0
  -23.3530  -14.2240   20.9970 C   0  0  0  0  0  0  0  0  0  0  0  0
  -22.5900  -13.5180   21.8240 N   0  0  0  0  0  0  0  0  0  0  0  0
  -22.9310  -15.2460   20.4570 O   0  0  0  0  0  0  0  0  0  0  0  0
  -22.9410  -12.6940   22.2860 H   0  0  0  0  0  0  0  0  0  0  0  0
  -21.6360  -13.8050   21.9940 H   0  0  0  0  0  0  0  0  0  0  0  0
  -25.9930  -15.9260   20.3400 N   0  0  0  0  0  0  0  0  0  0  0  0
  -25.1660  -16.5110   20.3030 H   0  0  0  0  0  0  0  0  0  0  0  0
  -26.7720  -16.3330   19.8430 H   0  0  0  0  0  0  0  0  0  0  0  0
  -24.7930  -21.0330   19.2230 C   0  0  0  0  0  2  0  0  0  0  0  0
  -25.9900  -21.1980   20.1810 C   0  0  0  0  0  2  0  0  0  0  0  0
  -27.0480  -23.3460   19.5230 C   0  0  0  0  0  0  0  0  0  0  0  0
  -26.3270  -22.6060   20.3760 N   0  0  0  0  0  0  0  0  0  0  0  0
  -27.4900  -22.8940   18.4620 O   0  0  0  0  0  0  0  0  0  0  0  0
  -26.0000  -23.0470   21.2270 H   0  0  0  0  0  0  0  0  0  0  0  0
  -27.2960  -24.8040   19.9230 C   0  0  0  0  0  2  0  0  0  0  0  0
  -28.4110  -25.4960   19.1090 C   0  0  0  0  0  2  0  0  0  0  0  0
  -28.7760  -26.8960   19.6340 C   0  0  0  0  0  2  0  0  0  0  0  0
  -28.3230  -27.9160   18.7500 O   0  0  0  0  0  0  0  0  0  0  0  0
  -24.5710  -31.9260   23.2810 C   0  0  0  0  0  0  0  0  0  0  0  0
  -27.1200  -28.4850   19.0750 C   0  0  0  0  0  0  0  0  0  0  0  0
  -23.2740  -30.8030   21.4970 C   0  0  0  0  0  3  0  0  0  0  0  0
  -24.6520  -29.7170   19.6480 C   0  0  0  0  0  0  0  0  0  0  0  0
  -25.7320  -31.4110   21.1380 C   0  0  0  0  0  2  0  0  0  0  0  0
  -25.8300  -30.2120   20.2200 C   0  0  0  0  0  0  0  0  0  0  0  0
  -27.0700  -29.6030   19.9340 C   0  0  0  0  0  3  0  0  0  0  0  0
  -25.9310  -27.9910   18.5030 C   0  0  0  0  0  3  0  0  0  0  0  0
  -24.6950  -28.6020   18.7910 C   0  0  0  0  0  3  0  0  0  0  0  0
  -23.3680  -30.4400   19.9920 C   0  0  0  0  0  2  0  0  0  0  0  0
  -24.5490  -31.3840   22.0310 N   0  0  0  0  0  0  0  0  0  0  0  0
  -23.5440  -31.9870   23.9690 O   0  0  0  0  0  0  0  0  0  0  0  0
  -22.8000  -29.5520   22.2720 C   0  0  0  0  0  0  0  0  0  0  0  0
  -21.4960  -29.2450   22.1690 N   0  0  0  0  0  0  0  0  0  0  0  0
  -23.5970  -28.8690   22.9200 O   0  0  0  0  0  0  0  0  0  0  0  0
  -20.9110  -29.8600   21.6200 H   0  0  0  0  0  0  0  0  0  0  0  0
  -18.3330  -27.5240   22.4480 C   0  0  0  0  0  0  0  0  0  0  0  0
  -20.8320  -28.0940   22.7780 C   0  0  0  0  0  3  0  0  0  0  0  0
  -21.1280  -26.7990   21.9850 C   0  0  0  0  0  2  0  0  0  0  0  0
  -20.0680  -26.4860   20.9250 C   0  0  0  0  0  2  0  0  0  0  0  0
  -18.6890  -26.3340   21.5720 C   0  0  0  0  0  2  0  0  0  0  0  0
  -19.3390  -28.3610   23.0000 C   0  0  0  0  0  0  0  0  0  0  0  0
  -18.9530  -29.4760   23.7750 C   0  0  0  0  0  3  0  0  0  0  0  0
  -17.5930  -29.7580   24.0030 C   0  0  0  0  0  3  0  0  0  0  0  0
  -16.6020  -28.9170   23.4680 C   0  0  0  0  0  3  0  0  0  0  0  0
  -16.9720  -27.8020   22.6960 C   0  0  0  0  0  3  0  0  0  0  0  0
  -25.8790  -32.5160   23.8960 C   0  0  0  0  0  3  0  0  0  0  0  0
  -26.4730  -31.6310   25.0590 C   0  0  1  0  0  0  0  0  0  0  0  0
  -25.4440  -31.2740   26.1560 C   0  0  0  0  0  1  0  0  0  0  0  0
  -27.0410  -30.3070   24.4960 C   0  0  0  0  0  1  0  0  0  0  0  0
  -27.6540  -32.3710   25.7310 C   0  0  0  0  0  1  0  0  0  0  0  0
  -25.5720  -33.8680   24.3790 N   0  0  0  0  0  0  0  0  0  0  0  0
  -25.9070  -34.9980   23.7440 C   0  0  0  0  0  0  0  0  0  0  0  0
  -26.5810  -35.0090   22.7100 O   0  0  0  0  0  0  0  0  0  0  0  0
  -24.9760  -33.9330   25.1920 H   0  0  0  0  0  0  0  0  0  0  0  0
  -24.2080  -36.8410   23.5480 C   0  0  0  0  0  1  0  0  0  0  0  0
  -25.4150  -36.3270   24.3480 C   0  0  0  0  0  3  0  0  0  0  0  0
  -27.5290  -37.0670   25.3540 C   0  0  0  0  0  1  0  0  0  0  0  0
  -26.4620  -37.3720   24.4040 N   0  0  0  0  0  0  0  0  0  0  0  0
  -26.0610  -38.2730   24.6550 H   0  0  0  0  0  0  0  0  0  0  0  0
  1 52  1  0
  2  1  1  0
  3  2  1  0
  3  5  1  0
  4 12  1  0
  5  4  1  0
  5  7  1  0
  6  4  2  0
  8 10  1  0
  9  8  2  0
 11 13  1  0
 12  9  1  0
 12 11  2  0
 13 10  2  0
 13 22  1  0
 14 22  1  0
 15 20  1  0
 16 17  1  0
 16 15  1  0
 18 17  1  0
 18 27  1  0
 18 19  1  0
 20 14  1  0
 20 19  1  0
 21 14  2  0
 22 23  1  0
 24 25  2  0
 25 44  1  0
 26 25  1  0
 26 29  1  0
 27 24  1  0
 27 28  1  0
 28 26  2  0
 29 30  1  0
 30 31  2  0
 32 35  1  0
 32 31  1  0
 33 32  2  0
 34 33  1  0
 34 29  2  0
 35 36  1  0
 36 41  2  0
 36 37  1  0
 37 38  2  0
 38 39  1  0
 39 43  1  0
 40 39  2  0
 41 40  1  0
 42 41  1  0
 44 45  1  0
 45 48  1  0
 45 47  1  0
 46 44  2  0
 49 24  1  0
 50 49  1  0
 51 49  1  0
 52 53  1  0
 53 55  1  0
 54 58  1  0
 54 55  1  0
 55 57  1  0
 56 54  2  0
 59 60  1  0
 59 58  1  0
 61 63  1  0
 61 60  1  0
 62 73  2  0
 63 68  1  0
 64 72  1  0
 64 74  1  0
 65 71  1  0
 65 67  1  0
 66 72  1  0
 67 66  1  0
 68 67  2  0
 69 70  1  0
 69 63  2  0
 70 65  2  0
 71 64  1  0
 72 62  1  0
 74 76  2  0
 75 74  1  0
 77 75  1  0
 78 87  2  0
 78 83  1  0
 79 75  1  0
 79 83  1  0
 80 79  1  0
 81 82  1  0
 81 80  1  0
 82 78  1  0
 83 84  2  0
 84 85  1  0
 86 85  2  0
 87 86  1  0
 88 62  1  0
 88 93  1  0
 88 89  1  0
 89 92  1  1
 89 90  1  0
 91 89  1  0
 93 96  1  0
 94 98  1  0
 94 93  1  0
 95 94  2  0
 98 97  1  0
 98100  1  0
100101  1  0
100 99  1  0
M  ISO  4  14 100  22 100  60 101  61 101
M  END
>  <TORSDO>  (54) 
F 26

>  <SCORE>  (54) 
-4.617

>  <name>  (54) 
53

>  <ligand_id>  (54) 
53

>  <original_smiles>  (54) 
[H]c1c([H])c(C(=O)N([H])C([H])([H])C([H])([H])C([H])([H])C([H])([H])C([H])([H])N([H])C(=O)C([H])([H])C([H])([H])C([H])([H])Oc2c([H])c([H])c3c(c2[H])C([H])([H])N(C(=O)C([H])(N([H])C(=O)C([H])(N([H])C([H])([H])[H])C([H])([H])[H])C(C([H])([H])[H])(C([H])([H])[H])C([H])([H])[H])C([H])(C(=O)N([H])C2([H])c4c([H])c([H])c([H])c([H])c4C([H])([H])C([H])([H])C2([H])[H])C3([H])[H])c([H])c(N([H])C(=O)N2C([H])([H])C([H])([H])C([H])([H])C([H])(n3nc(-c4c([H])c([H])c(Oc5c([H])c([H])c(F)c([H])c5F)c([H])c4[H])c(C(=O)N([H])[H])c3N([H])[H])C2([H])[H])c1[H]

>  <smiles>  (54) 
[H]c1c([H])c(C(=O)N([H])C([H])([H])C([H])([H])C([H])([H])C([H])([H])C([H])([H])N([H])C(=O)C([H])([H])C([H])([H])C([H])([H])Oc2c([H])c([H])c3c(c2[H])C([H])([H])N(C(=O)C([H])(N([H])C(=O)C([H])(N([H])C([H])([H])[H])C([H])([H])[H])C(C([H])([H])[H])(C([H])([H])[H])C([H])([H])[H])C([H])(C(=O)N([H])C2([H])c4c([H])c([H])c([H])c([H])c4C([H])([H])C([H])([H])C2([H])[H])C3([H])[H])c([H])c(N([H])C(=O)N2C([H])([H])C([H])([H])C([H])([H])C([H])(n3nc(-c4c([H])c([H])c(Oc5c([H])c([H])c(F)c([H])c5F)c([H])c4[H])c(C(=O)N([H])[H])c3N([H])[H])C2([H])[H])c1[H]

$$$$
54:0:0
     RDKit          3D

105112  0  0  1  0  0  0  0  0999 V2000
  -31.6400  -19.7670   23.9280 C   0  0  0  0  0  2  0  0  0  0  0  0
  -31.3340  -21.2660   23.8140 C   0  0  0  0  0  0  0  0  0  0  0  0
  -30.0550  -21.6630   23.8410 N   0  0  0  0  0  0  0  0  0  0  0  0
  -32.2420  -22.0820   23.6750 O   0  0  0  0  0  0  0  0  0  0  0  0
  -29.3330  -20.9650   23.9550 H   0  0  0  0  0  0  0  0  0  0  0  0
  -29.6460  -23.0610   23.7120 C   0  0  0  0  0  2  0  0  0  0  0  0
  -29.6620  -23.5380   22.2490 C   0  0  0  0  0  2  0  0  0  0  0  0
  -27.5790  -24.5430   21.2070 C   0  0  0  0  0  0  0  0  0  0  0  0
  -28.3060  -23.5400   21.7100 N   0  0  0  0  0  0  0  0  0  0  0  0
  -26.3990  -24.3280   20.9200 O   0  0  0  0  0  0  0  0  0  0  0  0
  -27.8250  -22.6520   21.7580 H   0  0  0  0  0  0  0  0  0  0  0  0
  -28.1950  -25.9400   20.9570 C   0  0  0  0  0  2  0  0  0  0  0  0
  -27.5950  -26.5610   19.8180 O   0  0  0  0  0  0  0  0  0  0  0  0
  -24.3070  -31.9480   23.2180 C   0  0  0  0  0  0  0  0  0  0  0  0
  -26.4860  -27.3540   20.0160 C   0  0  0  0  0  0  0  0  0  0  0  0
  -22.9300  -30.6460   21.6290 C   0  0  0  0  0  3  0  0  0  0  0  0
  -24.2020  -29.0110   20.1540 C   0  0  0  0  0  0  0  0  0  0  0  0
  -25.4640  -30.8110   21.3250 C   0  0  0  0  0  2  0  0  0  0  0  0
  -25.4170  -29.4360   20.7020 C   0  0  0  0  0  0  0  0  0  0  0  0
  -26.5660  -28.6140   20.6500 C   0  0  0  0  0  3  0  0  0  0  0  0
  -25.2630  -26.9390   19.4600 C   0  0  0  0  0  3  0  0  0  0  0  0
  -24.1160  -27.7520   19.5350 C   0  0  0  0  0  3  0  0  0  0  0  0
  -23.0270  -29.9580   20.2430 C   0  0  0  0  0  2  0  0  0  0  0  0
  -24.2560  -31.1500   22.1110 N   0  0  0  0  0  0  0  0  0  0  0  0
  -23.2750  -32.2920   23.8100 O   0  0  0  0  0  0  0  0  0  0  0  0
  -22.2510  -29.6610   22.6140 C   0  0  0  0  0  0  0  0  0  0  0  0
  -20.9160  -29.5390   22.5190 N   0  0  0  0  0  0  0  0  0  0  0  0
  -22.9250  -29.0100   23.4180 O   0  0  0  0  0  0  0  0  0  0  0  0
  -20.4390  -30.1010   21.8290 H   0  0  0  0  0  0  0  0  0  0  0  0
  -17.5090  -28.4840   23.0580 C   0  0  0  0  0  0  0  0  0  0  0  0
  -20.0740  -28.6580   23.3250 C   0  0  0  0  0  3  0  0  0  0  0  0
  -20.1310  -27.2070   22.7940 C   0  0  0  0  0  2  0  0  0  0  0  0
  -19.0160  -26.8920   21.7920 C   0  0  0  0  0  2  0  0  0  0  0  0
  -17.6400  -27.1080   22.4290 C   0  0  0  0  0  2  0  0  0  0  0  0
  -18.6540  -29.2200   23.4650 C   0  0  0  0  0  0  0  0  0  0  0  0
  -18.4780  -30.5120   24.0100 C   0  0  0  0  0  3  0  0  0  0  0  0
  -17.1930  -31.0640   24.1590 C   0  0  0  0  0  3  0  0  0  0  0  0
  -16.0610  -30.3240   23.7690 C   0  0  0  0  0  3  0  0  0  0  0  0
  -16.2220  -29.0360   23.2250 C   0  0  0  0  0  3  0  0  0  0  0  0
  -25.6620  -32.4840   23.7710 C   0  0  0  0  0  3  0  0  0  0  0  0
  -26.1940  -31.6620   25.0090 C   0  0  1  0  0  0  0  0  0  0  0  0
  -25.1430  -31.4810   26.1290 C   0  0  0  0  0  1  0  0  0  0  0  0
  -26.6620  -30.2550   24.5680 C   0  0  0  0  0  1  0  0  0  0  0  0
  -27.4210  -32.3730   25.6270 C   0  0  0  0  0  1  0  0  0  0  0  0
  -25.4670  -33.8970   24.1310 N   0  0  0  0  0  0  0  0  0  0  0  0
  -25.8430  -34.9330   23.3740 C   0  0  0  0  0  0  0  0  0  0  0  0
  -26.4710  -34.7990   22.3180 O   0  0  0  0  0  0  0  0  0  0  0  0
  -24.9110  -34.0730   24.9550 H   0  0  0  0  0  0  0  0  0  0  0  0
  -24.2250  -36.8420   23.1130 C   0  0  0  0  0  1  0  0  0  0  0  0
  -25.4670  -36.3440   23.8670 C   0  0  0  0  0  3  0  0  0  0  0  0
  -27.6910  -37.0660   24.6190 C   0  0  0  0  0  1  0  0  0  0  0  0
  -26.5610  -37.3280   23.7320 N   0  0  0  0  0  0  0  0  0  0  0  0
  -26.2240  -38.2670   23.9260 H   0  0  0  0  0  0  0  0  0  0  0  0
  -32.5700  -19.2390   22.8160 C   0  0  0  0  0  2  0  0  0  0  0  0
  -34.0150  -19.8030   22.7760 C   0  0  0  0  0  2  0  0  0  0  0  0
  -34.7240  -19.5360   21.4350 C   0  0  0  0  0  2  0  0  0  0  0  0
  -34.7900  -20.7020   20.4130 C   0  0  0  0  0  2  0  0  0  0  0  0
  -32.8070  -21.1810   19.0070 C   0  0  0  0  0  0  0  0  0  0  0  0
  -33.5090  -21.3470   20.1370 N   0  0  0  0  0  0  0  0  0  0  0  0
  -33.2800  -20.6430   18.0140 O   0  0  0  0  0  0  0  0  0  0  0  0
  -33.1110  -21.8870   20.8880 H   0  0  0  0  0  0  0  0  0  0  0  0
  -31.3390  -21.5730   18.9960 C   0  0  0  0  0  2  0  0  0  0  0  0
  -30.4670  -20.3030   19.1480 C   0  0  0  0  0  2  0  0  0  0  0  0
  -29.2650  -20.4540   20.0890 C   0  0  0  0  0  2  0  0  0  0  0  0
  -28.3610  -19.2010   20.1190 C   0  0  0  0  0  2  0  0  0  0  0  0
  -28.8320  -18.0560   21.0520 C   0  0  0  0  0  2  0  0  0  0  0  0
  -29.7320  -16.9890   20.4120 C   0  0  0  0  0  2  0  0  0  0  0  0
  -30.5610  -14.7450   20.6830 C   0  0  0  0  0  0  0  0  0  0  0  0
  -30.3630  -12.5920   19.5270 C   0  0  0  0  0  2  0  0  0  0  0  0
  -29.4740  -12.8210   18.2890 C   0  0  0  0  0  2  0  0  0  0  0  0
  -27.9850  -12.6400   18.6420 C   0  0  0  0  0  2  0  0  0  0  0  0
  -27.5710  -13.4370   19.9090 C   0  0  0  0  0  3  0  0  0  0  0  0
  -28.5850  -13.2250   21.0640 C   0  0  0  0  0  2  0  0  0  0  0  0
  -29.9390  -13.5470   20.5690 N   0  0  0  0  0  0  0  0  0  0  0  0
  -31.6570  -14.9810   20.1560 O   0  0  0  0  0  0  0  0  0  0  0  0
  -29.8460  -15.7520   21.1860 N   0  0  0  0  0  0  0  0  0  0  0  0
  -29.2090  -15.5650   21.9380 H   0  0  0  0  0  0  0  0  0  0  0  0
  -25.1120  -13.9500   20.4880 C   0  0  0  0  0  0  0  0  0  0  0  0
  -24.0540  -13.1330   20.8130 C   0  0  0  0  0  0  0  0  0  0  0  0
  -24.5760  -11.8040   20.8180 C   0  0  0  0  0  0  0  0  0  0  0  0
  -26.2020  -13.1140   20.3190 N   0  0  0  0  0  0  0  0  0  0  0  0
  -25.8790  -11.8190   20.5690 N   0  0  0  0  0  0  0  0  0  0  0  0
  -23.8900  -10.5170   20.9910 C   0  0  0  0  0  0  0  0  0  0  0  0
  -24.3150   -9.5830   21.9590 C   0  0  0  0  0  3  0  0  0  0  0  0
  -23.6310   -8.3610   22.1210 C   0  0  0  0  0  3  0  0  0  0  0  0
  -22.5120   -8.0600   21.3080 C   0  0  0  0  0  0  0  0  0  0  0  0
  -22.1070   -8.9840   20.3290 C   0  0  0  0  0  3  0  0  0  0  0  0
  -22.7940  -10.2010   20.1660 C   0  0  0  0  0  3  0  0  0  0  0  0
  -21.8050   -6.8790   21.3740 O   0  0  0  0  0  0  0  0  0  0  0  0
  -21.7090   -6.1600   22.5370 C   0  0  0  0  0  0  0  0  0  0  0  0
  -21.2030   -6.7300   23.7280 C   0  0  0  0  0  3  0  0  0  0  0  0
  -21.0540   -5.9360   24.8800 C   0  0  0  0  0  3  0  0  0  0  0  0
  -21.4120   -4.5740   24.8520 C   0  0  0  0  0  0  0  0  0  0  0  0
  -21.9100   -4.0040   23.6660 C   0  0  0  0  0  3  0  0  0  0  0  0
  -22.0630   -4.7950   22.5160 C   0  0  0  0  0  0  0  0  0  0  0  0
  -22.5260   -4.2350   21.3720 F   0  0  0  0  0  0  0  0  0  0  0  0
  -21.2630   -3.8100   25.9570 F   0  0  0  0  0  0  0  0  0  0  0  0
  -22.6320  -13.5640   21.0140 C   0  0  0  0  0  0  0  0  0  0  0  0
  -21.8950  -12.8500   21.8600 N   0  0  0  0  0  0  0  0  0  0  0  0
  -22.1720  -14.5630   20.4600 O   0  0  0  0  0  0  0  0  0  0  0  0
  -22.2790  -12.0460   22.3340 H   0  0  0  0  0  0  0  0  0  0  0  0
  -20.9380  -13.1170   22.0450 H   0  0  0  0  0  0  0  0  0  0  0  0
  -25.2260  -15.3210   20.3060 N   0  0  0  0  0  0  0  0  0  0  0  0
  -24.4310  -15.9480   20.3750 H   0  0  0  0  0  0  0  0  0  0  0  0
  -26.0840  -15.7910   20.0360 H   0  0  0  0  0  0  0  0  0  0  0  0
  2  3  1  0
  2  1  1  0
  3  5  1  0
  4  2  2  0
  6  3  1  0
  7  6  1  0
  8  9  1  0
  9 11  1  0
  9  7  1  0
 10  8  2  0
 12  8  1  0
 13 15  1  0
 13 12  1  0
 14 25  2  0
 15 20  1  0
 16 24  1  0
 16 26  1  0
 17 23  1  0
 17 19  1  0
 18 24  1  0
 19 18  1  0
 20 19  2  0
 21 22  1  0
 21 15  2  0
 22 17  2  0
 23 16  1  0
 24 14  1  0
 26 28  2  0
 27 26  1  0
 29 27  1  0
 30 39  2  0
 30 35  1  0
 31 27  1  0
 31 35  1  0
 32 31  1  0
 33 34  1  0
 33 32  1  0
 34 30  1  0
 35 36  2  0
 36 37  1  0
 38 37  2  0
 39 38  1  0
 40 14  1  0
 40 45  1  0
 40 41  1  0
 41 44  1  1
 41 42  1  0
 43 41  1  0
 45 48  1  0
 46 50  1  0
 46 45  1  0
 47 46  2  0
 50 49  1  0
 52 50  1  0
 52 53  1  0
 52 51  1  0
 54  1  1  0
 55 54  1  0
 56 55  1  0
 57 56  1  0
 58 59  1  0
 59 57  1  0
 59 61  1  0
 60 58  2  0
 62 58  1  0
 62 63  1  0
 63 64  1  0
 64 65  1  0
 65 66  1  0
 67 66  1  0
 67 76  1  0
 68 76  1  0
 69 74  1  0
 70 71  1  0
 70 69  1  0
 72 71  1  0
 72 81  1  0
 72 73  1  0
 74 68  1  0
 74 73  1  0
 75 68  2  0
 76 77  1  0
 78 79  2  0
 79 80  1  0
 79 98  1  0
 80 83  1  0
 81 78  1  0
 81 82  1  0
 82 80  2  0
 83 84  1  0
 84 85  2  0
 86 89  1  0
 86 85  1  0
 87 86  2  0
 88 87  1  0
 88 83  2  0
 89 90  1  0
 90 91  1  0
 91 92  2  0
 93 92  1  0
 93 97  1  0
 94 93  2  0
 95 90  2  0
 95 94  1  0
 96 95  1  0
 98 99  1  0
 99102  1  0
 99101  1  0
100 98  2  0
103104  1  0
103 78  1  0
105103  1  0
M  ISO  4  12 101  13 101  68 100  76 100
M  END
>  <TORSDO>  (55) 
F 32

>  <SCORE>  (55) 
-9.185

>  <name>  (55) 
54

>  <ligand_id>  (55) 
54

>  <original_smiles>  (55) 
[H]c1c([H])c([H])c2c(c1[H])C([H])([H])C([H])([H])C([H])([H])C2([H])N([H])C(=O)C1([H])N(C(=O)C([H])(N([H])C(=O)C([H])(N([H])C([H])([H])[H])C([H])([H])[H])C(C([H])([H])[H])(C([H])([H])[H])C([H])([H])[H])C([H])([H])c2c([H])c(OC([H])([H])C(=O)N([H])C([H])([H])C([H])([H])N([H])C(=O)C([H])([H])C([H])([H])C([H])([H])C([H])([H])C([H])([H])N([H])C(=O)C([H])([H])C([H])([H])C([H])([H])C([H])([H])C([H])([H])C([H])([H])N([H])C(=O)N3C([H])([H])C([H])([H])C([H])([H])C([H])(n4nc(-c5c([H])c([H])c(Oc6c([H])c([H])c(F)c([H])c6F)c([H])c5[H])c(C(=O)N([H])[H])c4N([H])[H])C3([H])[H])c([H])c([H])c2C1([H])[H]

>  <smiles>  (55) 
[H]c1c([H])c([H])c2c(c1[H])C([H])([H])C([H])([H])C([H])([H])C2([H])N([H])C(=O)C1([H])N(C(=O)C([H])(N([H])C(=O)C([H])(N([H])C([H])([H])[H])C([H])([H])[H])C(C([H])([H])[H])(C([H])([H])[H])C([H])([H])[H])C([H])([H])c2c([H])c(OC([H])([H])C(=O)N([H])C([H])([H])C([H])([H])N([H])C(=O)C([H])([H])C([H])([H])C([H])([H])C([H])([H])C([H])([H])N([H])C(=O)C([H])([H])C([H])([H])C([H])([H])C([H])([H])C([H])([H])C([H])([H])N([H])C(=O)N3C([H])([H])C([H])([H])C([H])([H])C([H])(n4nc(-c5c([H])c([H])c(Oc6c([H])c([H])c(F)c([H])c6F)c([H])c5[H])c(C(=O)N([H])[H])c4N([H])[H])C3([H])[H])c([H])c([H])c2C1([H])[H]

$$$$
55:0:0
     RDKit          3D

 91 99  0  0  1  0  0  0  0  0999 V2000
  -27.4830  -20.5560   19.6550 C   0  0  0  0  0  1  0  0  0  0  0  0
  -28.7590  -20.9880   20.2190 N   0  0  0  0  0  0  0  0  0  0  0  0
  -32.0460  -19.1220   20.5950 C   0  0  0  0  0  3  0  0  0  0  0  0
  -31.6580  -17.7680   20.6380 C   0  0  0  0  0  3  0  0  0  0  0  0
  -29.3640  -18.4770   20.4010 C   0  0  0  0  0  3  0  0  0  0  0  0
  -31.1150  -20.1780   20.4500 C   0  0  0  0  0  0  0  0  0  0  0  0
  -30.3060  -17.3760   20.5190 C   0  0  0  0  0  0  0  0  0  0  0  0
  -29.7200  -19.9000   20.3850 C   0  0  0  0  0  0  0  0  0  0  0  0
  -31.6870  -21.5850   20.3040 C   0  0  0  0  0  1  0  0  0  0  0  0
  -30.6350  -14.7640   20.3640 C   0  0  0  0  0  0  0  0  0  0  0  0
  -30.3470  -12.5180   19.3140 C   0  0  0  0  0  2  0  0  0  0  0  0
  -29.4000  -12.6390   18.1050 C   0  0  0  0  0  2  0  0  0  0  0  0
  -27.9300  -12.4970   18.5420 C   0  0  0  0  0  2  0  0  0  0  0  0
  -27.5850  -13.3310   19.8070 C   0  0  0  0  0  3  0  0  0  0  0  0
  -28.6710  -13.2230   20.9010 C   0  0  0  0  0  2  0  0  0  0  0  0
  -29.9580  -13.5660   20.2850 N   0  0  0  0  0  0  0  0  0  0  0  0
  -31.8260  -14.7990   20.0590 O   0  0  0  0  0  0  0  0  0  0  0  0
  -29.9040  -15.9380   20.5350 N   0  0  0  0  0  0  0  0  0  0  0  0
  -28.9140  -15.7760   20.6290 H   0  0  0  0  0  0  0  0  0  0  0  0
  -25.2000  -13.8890   20.5680 C   0  0  0  0  0  0  0  0  0  0  0  0
  -24.1450  -13.1030   20.9370 C   0  0  0  0  0  0  0  0  0  0  0  0
  -24.6170  -11.7560   20.8840 C   0  0  0  0  0  0  0  0  0  0  0  0
  -26.2510  -13.0200   20.3120 N   0  0  0  0  0  0  0  0  0  0  0  0
  -25.9060  -11.7300   20.5680 N   0  0  0  0  0  0  0  0  0  0  0  0
  -23.8950  -10.4890   21.0590 C   0  0  0  0  0  0  0  0  0  0  0  0
  -24.3160   -9.5200   21.9980 C   0  0  0  0  0  3  0  0  0  0  0  0
  -23.5910   -8.3200   22.1640 C   0  0  0  0  0  3  0  0  0  0  0  0
  -22.4300   -8.0760   21.3920 C   0  0  0  0  0  0  0  0  0  0  0  0
  -22.0270   -9.0340   20.4460 C   0  0  0  0  0  3  0  0  0  0  0  0
  -22.7530  -10.2250   20.2780 C   0  0  0  0  0  3  0  0  0  0  0  0
  -21.6790   -6.9290   21.4700 O   0  0  0  0  0  0  0  0  0  0  0  0
  -21.5950   -6.1980   22.6270 C   0  0  0  0  0  0  0  0  0  0  0  0
  -21.0840   -6.7500   23.8220 C   0  0  0  0  0  3  0  0  0  0  0  0
  -20.9510   -5.9430   24.9710 C   0  0  0  0  0  3  0  0  0  0  0  0
  -21.3190   -4.5860   24.9230 C   0  0  0  0  0  0  0  0  0  0  0  0
  -21.8230   -4.0320   23.7340 C   0  0  0  0  0  3  0  0  0  0  0  0
  -21.9570   -4.8350   22.5880 C   0  0  0  0  0  0  0  0  0  0  0  0
  -22.4230   -4.2940   21.4370 F   0  0  0  0  0  0  0  0  0  0  0  0
  -21.1850   -3.8070   26.0230 F   0  0  0  0  0  0  0  0  0  0  0  0
  -22.7450  -13.5690   21.2200 C   0  0  0  0  0  0  0  0  0  0  0  0
  -22.0230  -12.8570   22.0770 N   0  0  0  0  0  0  0  0  0  0  0  0
  -22.3030  -14.6000   20.7180 O   0  0  0  0  0  0  0  0  0  0  0  0
  -22.3950  -12.0270   22.5140 H   0  0  0  0  0  0  0  0  0  0  0  0
  -21.0830  -13.1500   22.3020 H   0  0  0  0  0  0  0  0  0  0  0  0
  -25.3440  -15.2640   20.4020 N   0  0  0  0  0  0  0  0  0  0  0  0
  -24.5510  -15.8870   20.5150 H   0  0  0  0  0  0  0  0  0  0  0  0
  -26.1610  -15.7260   20.0210 H   0  0  0  0  0  0  0  0  0  0  0  0
  -28.7330  -22.3150   20.9650 C   0  0  0  0  0  2  0  0  0  0  0  0
  -28.5300  -23.7080   20.1580 C   0  0  0  0  0  3  0  0  0  0  0  0
  -28.1390  -25.0560   20.9630 C   0  0  0  0  0  3  0  0  0  0  0  0
  -28.3510  -26.4340   20.4030 O   0  0  0  0  0  0  0  0  0  0  0  0
  -24.5710  -31.9150   23.2710 C   0  0  0  0  0  0  0  0  0  0  0  0
  -27.2590  -27.3150   20.3430 C   0  0  0  0  0  0  0  0  0  0  0  0
  -23.4150  -30.5000   21.6110 C   0  0  0  0  0  3  0  0  0  0  0  0
  -24.9090  -28.9440   20.2310 C   0  0  0  0  0  0  0  0  0  0  0  0
  -25.9590  -30.8250   21.4920 C   0  0  0  0  0  2  0  0  0  0  0  0
  -26.0610  -29.4380   20.8590 C   0  0  0  0  0  0  0  0  0  0  0  0
  -27.2450  -28.6360   20.9000 C   0  0  0  0  0  3  0  0  0  0  0  0
  -26.0940  -26.8840   19.6790 C   0  0  0  0  0  3  0  0  0  0  0  0
  -24.9300  -27.6770   19.6270 C   0  0  0  0  0  3  0  0  0  0  0  0
  -23.6720  -29.8200   20.2390 C   0  0  0  0  0  2  0  0  0  0  0  0
  -24.6640  -31.0970   22.1810 N   0  0  0  0  0  0  0  0  0  0  0  0
  -23.4740  -32.1940   23.7770 O   0  0  0  0  0  0  0  0  0  0  0  0
  -22.7330  -29.4860   22.5610 C   0  0  0  0  0  0  0  0  0  0  0  0
  -21.4090  -29.3090   22.4110 N   0  0  0  0  0  0  0  0  0  0  0  0
  -23.3940  -28.8630   23.3940 O   0  0  0  0  0  0  0  0  0  0  0  0
  -20.9340  -29.8640   21.7130 H   0  0  0  0  0  0  0  0  0  0  0  0
  -18.0130  -28.1550   22.8810 C   0  0  0  0  0  0  0  0  0  0  0  0
  -20.5740  -28.3780   23.1700 C   0  0  0  0  0  3  0  0  0  0  0  0
  -20.6610  -26.9490   22.5870 C   0  0  0  0  0  2  0  0  0  0  0  0
  -19.5610  -26.6480   21.5630 C   0  0  0  0  0  2  0  0  0  0  0  0
  -18.1770  -26.8080   22.1970 C   0  0  0  0  0  2  0  0  0  0  0  0
  -19.1380  -28.8990   23.3250 C   0  0  0  0  0  0  0  0  0  0  0  0
  -18.9320  -30.1610   23.9240 C   0  0  0  0  0  3  0  0  0  0  0  0
  -17.6310  -30.6770   24.0830 C   0  0  0  0  0  3  0  0  0  0  0  0
  -16.5200  -29.9300   23.6550 C   0  0  0  0  0  3  0  0  0  0  0  0
  -16.7120  -28.6700   23.0590 C   0  0  0  0  0  3  0  0  0  0  0  0
  -25.8350  -32.5570   23.9200 C   0  0  0  0  0  3  0  0  0  0  0  0
  -26.3110  -31.8110   25.2280 C   0  0  1  0  0  0  0  0  0  0  0  0
  -25.1800  -31.5990   26.2610 C   0  0  0  0  0  1  0  0  0  0  0  0
  -26.9030  -30.4230   24.8850 C   0  0  0  0  0  1  0  0  0  0  0  0
  -27.4380  -32.6190   25.9120 C   0  0  0  0  0  1  0  0  0  0  0  0
  -25.5240  -33.9620   24.2120 N   0  0  0  0  0  0  0  0  0  0  0  0
  -25.8850  -34.9990   23.4430 C   0  0  0  0  0  0  0  0  0  0  0  0
  -26.5850  -34.8730   22.4350 O   0  0  0  0  0  0  0  0  0  0  0  0
  -24.9040  -34.1370   24.9900 H   0  0  0  0  0  0  0  0  0  0  0  0
  -24.1880  -36.7990   22.9880 C   0  0  0  0  0  1  0  0  0  0  0  0
  -25.3900  -36.3960   23.8590 C   0  0  0  0  0  3  0  0  0  0  0  0
  -27.4880  -37.2830   24.7750 C   0  0  0  0  0  1  0  0  0  0  0  0
  -26.4340  -37.4400   23.7770 N   0  0  0  0  0  0  0  0  0  0  0  0
  -26.0260  -38.3640   23.8920 H   0  0  0  0  0  0  0  0  0  0  0  0
  1  2  1  0
  2  8  1  0
  2 48  1  0
  3  4  1  0
  5  7  1  0
  6  3  2  0
  7 18  1  0
  7  4  2  0
  8  5  2  0
  8  6  1  0
  9  6  1  0
 10 18  1  0
 11 16  1  0
 12 13  1  0
 12 11  1  0
 14 13  1  0
 14 23  1  0
 14 15  1  0
 16 10  1  0
 16 15  1  0
 17 10  2  0
 18 19  1  0
 20 21  2  0
 21 40  1  0
 22 21  1  0
 22 25  1  0
 23 24  1  0
 23 20  1  0
 24 22  2  0
 25 26  1  0
 26 27  2  0
 28 31  1  0
 28 27  1  0
 29 28  2  0
 30 29  1  0
 30 25  2  0
 31 32  1  0
 32 33  1  0
 33 34  2  0
 35 34  1  0
 35 39  1  0
 36 35  2  0
 37 32  2  0
 37 36  1  0
 38 37  1  0
 40 41  1  0
 41 44  1  0
 41 43  1  0
 42 40  2  0
 45 46  1  0
 45 20  1  0
 47 45  1  0
 49 50  2  0
 49 48  1  0
 51 50  1  0
 52 63  2  0
 53 51  1  0
 53 58  1  0
 54 62  1  0
 54 64  1  0
 55 61  1  0
 55 57  1  0
 56 62  1  0
 57 58  2  0
 57 56  1  0
 59 53  2  0
 60 59  1  0
 60 55  2  0
 61 54  1  0
 62 52  1  0
 64 66  2  0
 65 64  1  0
 67 65  1  0
 68 77  2  0
 68 73  1  0
 69 65  1  0
 69 73  1  0
 70 69  1  0
 71 72  1  0
 71 70  1  0
 72 68  1  0
 73 74  2  0
 74 75  1  0
 76 75  2  0
 77 76  1  0
 78 52  1  0
 78 83  1  0
 78 79  1  0
 79 82  1  1
 79 80  1  0
 81 79  1  0
 83 86  1  0
 84 88  1  0
 84 83  1  0
 85 84  2  0
 88 87  1  0
 90 88  1  0
 90 91  1  0
 90 89  1  0
M  ISO  4  10 100  18 100  50 101  51 101
M  END
>  <TORSDO>  (56) 
F 20

>  <SCORE>  (56) 
-13.963

>  <name>  (56) 
55

>  <ligand_id>  (56) 
55

>  <original_smiles>  (56) 
[H]c1c([H])c([H])c2c(c1[H])C([H])([H])C([H])([H])C([H])([H])C2([H])N([H])C(=O)C1([H])N(C(=O)C([H])(N([H])C(=O)C([H])(N([H])C([H])([H])[H])C([H])([H])[H])C(C([H])([H])[H])(C([H])([H])[H])C([H])([H])[H])C([H])([H])c2c([H])c(OC([H])([H])C([H])([H])C([H])([H])N(c3c([H])c(N([H])C(=O)N4C([H])([H])C([H])([H])C([H])([H])C([H])(n5nc(-c6c([H])c([H])c(Oc7c([H])c([H])c(F)c([H])c7F)c([H])c6[H])c(C(=O)N([H])[H])c5N([H])[H])C4([H])[H])c([H])c([H])c3C([H])([H])[H])C([H])([H])[H])c([H])c([H])c2C1([H])[H]

>  <smiles>  (56) 
[H]c1c([H])c([H])c2c(c1[H])C([H])([H])C([H])([H])C([H])([H])C2([H])N([H])C(=O)C1([H])N(C(=O)C([H])(N([H])C(=O)C([H])(N([H])C([H])([H])[H])C([H])([H])[H])C(C([H])([H])[H])(C([H])([H])[H])C([H])([H])[H])C([H])([H])c2c([H])c(OC([H])([H])C([H])([H])C([H])([H])N(c3c([H])c(N([H])C(=O)N4C([H])([H])C([H])([H])C([H])([H])C([H])(n5nc(-c6c([H])c([H])c(Oc7c([H])c([H])c(F)c([H])c7F)c([H])c6[H])c(C(=O)N([H])[H])c5N([H])[H])C4([H])[H])c([H])c([H])c3C([H])([H])[H])C([H])([H])[H])c([H])c([H])c2C1([H])[H]

$$$$
56:0:0
     RDKit          3D

 90 98  0  0  1  0  0  0  0  0999 V2000
  -28.6110  -17.9390   20.7180 C   0  0  0  0  0  3  0  0  0  0  0  0
  -28.5950  -19.3640   20.7270 C   0  0  0  0  0  3  0  0  0  0  0  0
  -31.0190  -17.9310   20.7120 C   0  0  0  0  0  3  0  0  0  0  0  0
  -29.8160  -17.1790   20.6950 C   0  0  0  0  0  0  0  0  0  0  0  0
  -29.7990  -20.1170   20.7340 C   0  0  0  0  0  0  0  0  0  0  0  0
  -31.0090  -19.3590   20.7350 C   0  0  0  0  0  0  0  0  0  0  0  0
  -32.5230  -20.1940   20.7680 Cl  0  0  0  0  0  0  0  0  0  0  0  0
  -30.5740  -14.6890   20.3840 C   0  0  0  0  0  0  0  0  0  0  0  0
  -30.3940  -12.4450   19.3070 C   0  0  0  0  0  2  0  0  0  0  0  0
  -29.4500  -12.5500   18.0840 C   0  0  0  0  0  2  0  0  0  0  0  0
  -27.9760  -12.3870   18.5130 C   0  0  0  0  0  2  0  0  0  0  0  0
  -27.6050  -13.2700   19.7360 C   0  0  0  0  0  3  0  0  0  0  0  0
  -28.6540  -13.1180   20.8590 C   0  0  0  0  0  2  0  0  0  0  0  0
  -29.9690  -13.4600   20.2910 N   0  0  0  0  0  0  0  0  0  0  0  0
  -31.7460  -14.8620   20.0300 O   0  0  0  0  0  0  0  0  0  0  0  0
  -29.7190  -15.7180   20.6880 N   0  0  0  0  0  0  0  0  0  0  0  0
  -28.7840  -15.3710   20.8290 H   0  0  0  0  0  0  0  0  0  0  0  0
  -25.2220  -13.8910   20.4620 C   0  0  0  0  0  0  0  0  0  0  0  0
  -24.1490  -13.1270   20.8410 C   0  0  0  0  0  0  0  0  0  0  0  0
  -24.6000  -11.7720   20.8040 C   0  0  0  0  0  0  0  0  0  0  0  0
  -26.2560  -13.0000   20.2210 N   0  0  0  0  0  0  0  0  0  0  0  0
  -25.8890  -11.7210   20.4910 N   0  0  0  0  0  0  0  0  0  0  0  0
  -23.8660  -10.5140   20.9960 C   0  0  0  0  0  0  0  0  0  0  0  0
  -24.2910   -9.5480   21.9350 C   0  0  0  0  0  3  0  0  0  0  0  0
  -23.5600   -8.3520   22.1120 C   0  0  0  0  0  3  0  0  0  0  0  0
  -22.3930   -8.1180   21.3490 C   0  0  0  0  0  0  0  0  0  0  0  0
  -21.9850   -9.0740   20.4040 C   0  0  0  0  0  3  0  0  0  0  0  0
  -22.7120  -10.2620   20.2260 C   0  0  0  0  0  3  0  0  0  0  0  0
  -21.6320   -6.9760   21.4380 O   0  0  0  0  0  0  0  0  0  0  0  0
  -21.5660   -6.2430   22.5940 C   0  0  0  0  0  0  0  0  0  0  0  0
  -21.1140   -6.8060   23.8100 C   0  0  0  0  0  3  0  0  0  0  0  0
  -20.9950   -6.0000   24.9580 C   0  0  0  0  0  3  0  0  0  0  0  0
  -21.3140   -4.6310   24.8950 C   0  0  0  0  0  0  0  0  0  0  0  0
  -21.7580   -4.0670   23.6850 C   0  0  0  0  0  3  0  0  0  0  0  0
  -21.8790   -4.8690   22.5380 C   0  0  0  0  0  0  0  0  0  0  0  0
  -22.2870   -4.3160   21.3710 F   0  0  0  0  0  0  0  0  0  0  0  0
  -21.1920   -3.8550   25.9970 F   0  0  0  0  0  0  0  0  0  0  0  0
  -22.7550  -13.6140   21.1110 C   0  0  0  0  0  0  0  0  0  0  0  0
  -22.0200  -12.9310   21.9830 N   0  0  0  0  0  0  0  0  0  0  0  0
  -22.3210  -14.6360   20.5810 O   0  0  0  0  0  0  0  0  0  0  0  0
  -22.3800  -12.1040   22.4330 H   0  0  0  0  0  0  0  0  0  0  0  0
  -21.0830  -13.2390   22.1990 H   0  0  0  0  0  0  0  0  0  0  0  0
  -25.3940  -15.2600   20.2780 N   0  0  0  0  0  0  0  0  0  0  0  0
  -24.6200  -15.9100   20.3620 H   0  0  0  0  0  0  0  0  0  0  0  0
  -26.2110  -15.6700   19.8400 H   0  0  0  0  0  0  0  0  0  0  0  0
  -29.8820  -21.5240   20.7670 O   0  0  0  0  0  0  0  0  0  0  0  0
  -28.7430  -22.4150   20.5370 C   0  0  0  0  0  2  0  0  0  0  0  0
  -29.1180  -23.9640   20.6120 C   0  0  0  0  0  3  0  0  0  0  0  0
  -28.0940  -25.0420   20.0470 C   0  0  0  0  0  3  0  0  0  0  0  0
  -28.3400  -26.4910   20.2650 O   0  0  0  0  0  0  0  0  0  0  0  0
  -24.6280  -31.8950   23.2630 C   0  0  0  0  0  0  0  0  0  0  0  0
  -27.2380  -27.3590   20.1850 C   0  0  0  0  0  0  0  0  0  0  0  0
  -23.4310  -30.5200   21.6020 C   0  0  0  0  0  3  0  0  0  0  0  0
  -24.8850  -28.9890   20.1630 C   0  0  0  0  0  0  0  0  0  0  0  0
  -25.9710  -30.8400   21.4320 C   0  0  0  0  0  2  0  0  0  0  0  0
  -26.0510  -29.4640   20.7780 C   0  0  0  0  0  0  0  0  0  0  0  0
  -27.2290  -28.6570   20.7840 C   0  0  0  0  0  3  0  0  0  0  0  0
  -26.0530  -26.9530   19.5250 C   0  0  0  0  0  3  0  0  0  0  0  0
  -24.8890  -27.7400   19.5270 C   0  0  0  0  0  3  0  0  0  0  0  0
  -23.6520  -29.8640   20.2140 C   0  0  0  0  0  2  0  0  0  0  0  0
  -24.6960  -31.1000   22.1560 N   0  0  0  0  0  0  0  0  0  0  0  0
  -23.5430  -32.1660   23.7960 O   0  0  0  0  0  0  0  0  0  0  0  0
  -22.7620  -29.4890   22.5420 C   0  0  0  0  0  0  0  0  0  0  0  0
  -21.4350  -29.3230   22.4100 N   0  0  0  0  0  0  0  0  0  0  0  0
  -23.4320  -28.8440   23.3500 O   0  0  0  0  0  0  0  0  0  0  0  0
  -20.9510  -29.8850   21.7230 H   0  0  0  0  0  0  0  0  0  0  0  0
  -18.0470  -28.1560   22.8980 C   0  0  0  0  0  0  0  0  0  0  0  0
  -20.6080  -28.3840   23.1700 C   0  0  0  0  0  3  0  0  0  0  0  0
  -20.6940  -26.9620   22.5700 C   0  0  0  0  0  2  0  0  0  0  0  0
  -19.5880  -26.6670   21.5520 C   0  0  0  0  0  2  0  0  0  0  0  0
  -18.2080  -26.8160   22.1980 C   0  0  0  0  0  2  0  0  0  0  0  0
  -19.1740  -28.8990   23.3390 C   0  0  0  0  0  0  0  0  0  0  0  0
  -18.9670  -30.1530   23.9520 C   0  0  0  0  0  3  0  0  0  0  0  0
  -17.6680  -30.6670   24.1250 C   0  0  0  0  0  3  0  0  0  0  0  0
  -16.5550  -29.9210   23.7000 C   0  0  0  0  0  3  0  0  0  0  0  0
  -16.7460  -28.6650   23.0940 C   0  0  0  0  0  3  0  0  0  0  0  0
  -25.9100  -32.5200   23.8950 C   0  0  0  0  0  3  0  0  0  0  0  0
  -26.4140  -31.7410   25.1720 C   0  0  1  0  0  0  0  0  0  0  0  0
  -25.3060  -31.5020   26.2240 C   0  0  0  0  0  1  0  0  0  0  0  0
  -26.9920  -30.3620   24.7810 C   0  0  0  0  0  1  0  0  0  0  0  0
  -27.5700  -32.5190   25.8420 C   0  0  0  0  0  1  0  0  0  0  0  0
  -25.6030  -33.9190   24.2260 N   0  0  0  0  0  0  0  0  0  0  0  0
  -25.9290  -34.9690   23.4620 C   0  0  0  0  0  0  0  0  0  0  0  0
  -26.5840  -34.8620   22.4220 O   0  0  0  0  0  0  0  0  0  0  0  0
  -25.0240  -34.0770   25.0360 H   0  0  0  0  0  0  0  0  0  0  0  0
  -24.1860  -36.7510   23.1360 C   0  0  0  0  0  1  0  0  0  0  0  0
  -25.4510  -36.3620   23.9180 C   0  0  0  0  0  3  0  0  0  0  0  0
  -27.6020  -37.2580   24.6960 C   0  0  0  0  0  1  0  0  0  0  0  0
  -26.4810  -37.4150   23.7720 N   0  0  0  0  0  0  0  0  0  0  0  0
  -26.0780  -38.3360   23.9190 H   0  0  0  0  0  0  0  0  0  0  0  0
  1  2  1  0
  2  5  2  0
  3  6  2  0
  4  3  1  0
  4  1  2  0
  5  6  1  0
  5 46  1  0
  6  7  1  0
  8 16  1  0
  9 14  1  0
 10 11  1  0
 10  9  1  0
 12 11  1  0
 12 21  1  0
 12 13  1  0
 14  8  1  0
 14 13  1  0
 15  8  2  0
 16  4  1  0
 16 17  1  0
 18 19  2  0
 19 38  1  0
 20 19  1  0
 20 23  1  0
 21 18  1  0
 21 22  1  0
 22 20  2  0
 23 24  1  0
 24 25  2  0
 26 29  1  0
 26 25  1  0
 27 26  2  0
 28 27  1  0
 28 23  2  0
 29 30  1  0
 30 31  1  0
 31 32  2  0
 33 32  1  0
 33 37  1  0
 34 33  2  0
 35 30  2  0
 35 34  1  0
 36 35  1  0
 38 39  1  0
 39 42  1  0
 39 41  1  0
 40 38  2  0
 43 44  1  0
 43 18  1  0
 45 43  1  0
 47 48  1  0
 47 46  1  0
 49 50  1  0
 49 48  2  0
 51 62  2  0
 52 50  1  0
 52 57  1  0
 53 61  1  0
 53 63  1  0
 54 60  1  0
 54 56  1  0
 55 61  1  0
 56 57  2  0
 56 55  1  0
 58 59  1  0
 58 52  2  0
 59 54  2  0
 60 53  1  0
 61 51  1  0
 63 65  2  0
 64 63  1  0
 66 64  1  0
 67 76  2  0
 67 72  1  0
 68 64  1  0
 68 72  1  0
 69 68  1  0
 70 71  1  0
 70 69  1  0
 71 67  1  0
 72 73  2  0
 73 74  1  0
 75 74  2  0
 76 75  1  0
 77 51  1  0
 77 82  1  0
 77 78  1  0
 78 81  1  1
 78 79  1  0
 80 78  1  0
 82 85  1  0
 83 87  1  0
 83 82  1  0
 84 83  2  0
 87 86  1  0
 89 87  1  0
 89 90  1  0
 89 88  1  0
M  ISO  4   8 100  16 100  49 101  50 101
M  END
>  <TORSDO>  (57) 
F 20

>  <SCORE>  (57) 
-13.848

>  <name>  (57) 
56

>  <ligand_id>  (57) 
56

>  <original_smiles>  (57) 
[H]c1c([H])c([H])c2c(c1[H])C([H])([H])C([H])([H])C([H])([H])C2([H])N([H])C(=O)C1([H])N(C(=O)C([H])(N([H])C(=O)C([H])(N([H])C([H])([H])[H])C([H])([H])[H])C(C([H])([H])[H])(C([H])([H])[H])C([H])([H])[H])C([H])([H])c2c([H])c(OC([H])([H])C([H])([H])C([H])([H])Oc3c([H])c([H])c(N([H])C(=O)N4C([H])([H])C([H])([H])C([H])([H])C([H])(n5nc(-c6c([H])c([H])c(Oc7c([H])c([H])c(F)c([H])c7F)c([H])c6[H])c(C(=O)N([H])[H])c5N([H])[H])C4([H])[H])c([H])c3Cl)c([H])c([H])c2C1([H])[H]

>  <smiles>  (57) 
[H]c1c([H])c([H])c2c(c1[H])C([H])([H])C([H])([H])C([H])([H])C2([H])N([H])C(=O)C1([H])N(C(=O)C([H])(N([H])C(=O)C([H])(N([H])C([H])([H])[H])C([H])([H])[H])C(C([H])([H])[H])(C([H])([H])[H])C([H])([H])[H])C([H])([H])c2c([H])c(OC([H])([H])C([H])([H])C([H])([H])Oc3c([H])c([H])c(N([H])C(=O)N4C([H])([H])C([H])([H])C([H])([H])C([H])(n5nc(-c6c([H])c([H])c(Oc7c([H])c([H])c(F)c([H])c7F)c([H])c6[H])c(C(=O)N([H])[H])c5N([H])[H])C4([H])[H])c([H])c3Cl)c([H])c([H])c2C1([H])[H]

$$$$
57:0:0
     RDKit          3D

108116  0  0  1  0  0  0  0  0999 V2000
  -33.5270  -25.0290   18.4010 C   0  0  0  0  0  2  0  0  0  0  0  0
  -34.4530  -24.5930   19.5590 C   0  0  0  0  0  2  0  0  0  0  0  0
  -33.9110  -24.8320   20.9850 C   0  0  0  0  0  2  0  0  0  0  0  0
  -31.8090  -23.4580   20.7200 C   0  0  0  0  0  0  0  0  0  0  0  0
  -32.4880  -24.5300   21.1580 N   0  0  0  0  0  0  0  0  0  0  0  0
  -32.3330  -22.5160   20.1270 O   0  0  0  0  0  0  0  0  0  0  0  0
  -31.9570  -25.2210   21.6710 H   0  0  0  0  0  0  0  0  0  0  0  0
  -30.3050  -23.4490   20.9890 C   0  0  0  0  0  2  0  0  0  0  0  0
  -29.4810  -24.0380   19.8180 C   0  0  0  0  0  2  0  0  0  0  0  0
  -28.3860  -25.0190   20.3010 C   0  0  0  0  0  2  0  0  0  0  0  0
  -28.6710  -26.4500   20.1300 N   0  0  0  0  0  0  0  0  0  0  0  0
  -30.4750  -27.9480   19.1450 C   0  0  0  0  0  1  0  0  0  0  0  0
  -30.3600  -27.3620   21.6140 C   0  0  0  0  0  1  0  0  0  0  0  0
  -30.0820  -26.8770   20.1830 C   0  0  0  0  0  3  0  0  0  0  0  0
  -28.0640  -26.8770   18.8810 O   0  0  0  0  0  0  0  0  0  0  0  0
  -24.9150  -31.5720   23.1890 C   0  0  0  0  0  0  0  0  0  0  0  0
  -26.9370  -27.6250   19.1550 C   0  0  0  0  0  0  0  0  0  0  0  0
  -23.4300  -30.4760   21.5380 C   0  0  0  0  0  3  0  0  0  0  0  0
  -24.6080  -29.1340   19.7100 C   0  0  0  0  0  0  0  0  0  0  0  0
  -25.9120  -30.8030   21.0460 C   0  0  0  0  0  2  0  0  0  0  0  0
  -25.8470  -29.5490   20.2060 C   0  0  0  0  0  0  0  0  0  0  0  0
  -27.0060  -28.8060   19.9280 C   0  0  0  0  0  3  0  0  0  0  0  0
  -25.6830  -27.2120   18.6590 C   0  0  0  0  0  3  0  0  0  0  0  0
  -24.5180  -27.9620   18.9340 C   0  0  0  0  0  3  0  0  0  0  0  0
  -23.4190  -30.0040   20.0560 C   0  0  0  0  0  2  0  0  0  0  0  0
  -24.7780  -30.9560   21.9820 N   0  0  0  0  0  0  0  0  0  0  0  0
  -23.9330  -31.7890   23.9130 O   0  0  0  0  0  0  0  0  0  0  0  0
  -22.8660  -29.3410   22.4190 C   0  0  0  0  0  0  0  0  0  0  0  0
  -21.5460  -29.1200   22.3310 N   0  0  0  0  0  0  0  0  0  0  0  0
  -23.6110  -28.6650   23.1360 O   0  0  0  0  0  0  0  0  0  0  0  0
  -21.0030  -29.7220   21.7260 H   0  0  0  0  0  0  0  0  0  0  0  0
  -18.2880  -27.6040   22.6540 C   0  0  0  0  0  0  0  0  0  0  0  0
  -20.8000  -28.0770   23.0320 C   0  0  0  0  0  3  0  0  0  0  0  0
  -21.0540  -26.6900   22.3980 C   0  0  0  0  0  2  0  0  0  0  0  0
  -20.0200  -26.3170   21.3320 C   0  0  0  0  0  2  0  0  0  0  0  0
  -18.6110  -26.3070   21.9310 C   0  0  0  0  0  2  0  0  0  0  0  0
  -19.3170  -28.4430   23.1580 C   0  0  0  0  0  0  0  0  0  0  0  0
  -18.9620  -29.6560   23.7880 C   0  0  0  0  0  3  0  0  0  0  0  0
  -17.6130  -30.0290   23.9260 C   0  0  0  0  0  3  0  0  0  0  0  0
  -16.5980  -29.1860   23.4410 C   0  0  0  0  0  3  0  0  0  0  0  0
  -16.9360  -27.9770   22.8090 C   0  0  0  0  0  3  0  0  0  0  0  0
  -26.3060  -32.0580   23.7070 C   0  0  0  0  0  3  0  0  0  0  0  0
  -26.8960  -31.1510   24.8550 C   0  0  1  0  0  0  0  0  0  0  0  0
  -25.9130  -30.9290   26.0280 C   0  0  0  0  0  1  0  0  0  0  0  0
  -27.3030  -29.7630   24.3080 C   0  0  0  0  0  1  0  0  0  0  0  0
  -28.1800  -31.8010   25.4220 C   0  0  0  0  0  1  0  0  0  0  0  0
  -26.1420  -33.4410   24.1700 N   0  0  0  0  0  0  0  0  0  0  0  0
  -26.4760  -34.5250   23.4580 C   0  0  0  0  0  0  0  0  0  0  0  0
  -27.0260  -34.4590   22.3550 O   0  0  0  0  0  0  0  0  0  0  0  0
  -25.6350  -33.5720   25.0320 H   0  0  0  0  0  0  0  0  0  0  0  0
  -24.8590  -36.4510   23.4400 C   0  0  0  0  0  1  0  0  0  0  0  0
  -26.1480  -35.9010   24.0680 C   0  0  0  0  0  3  0  0  0  0  0  0
  -28.4210  -36.5800   24.7100 C   0  0  0  0  0  1  0  0  0  0  0  0
  -27.2380  -36.8880   23.9100 N   0  0  0  0  0  0  0  0  0  0  0  0
  -26.9180  -37.8190   24.1610 H   0  0  0  0  0  0  0  0  0  0  0  0
  -33.3690  -23.9090   17.3620 C   0  0  0  0  0  2  0  0  0  0  0  0
  -32.2440  -24.1670   16.3490 C   0  0  0  0  0  2  0  0  0  0  0  0
  -31.9480  -22.9650   15.4310 C   0  0  0  0  0  2  0  0  0  0  0  0
  -31.4790  -21.8590   16.1940 O   0  0  0  0  0  0  0  0  0  0  0  0
  -32.4080  -20.7810   16.3020 C   0  0  0  0  0  2  0  0  0  0  0  0
  -32.0530  -19.9240   17.5250 C   0  0  0  0  0  2  0  0  0  0  0  0
  -31.0130  -19.0110   17.1950 O   0  0  0  0  0  0  0  0  0  0  0  0
  -28.7710  -17.6010   20.4340 C   0  0  0  0  0  3  0  0  0  0  0  0
  -28.4280  -18.8240   19.8260 C   0  0  0  0  0  3  0  0  0  0  0  0
  -30.6290  -17.3540   18.8850 C   0  0  0  0  0  3  0  0  0  0  0  0
  -29.8680  -16.8470   19.9680 C   0  0  0  0  0  0  0  0  0  0  0  0
  -29.1770  -19.3200   18.7310 C   0  0  0  0  0  0  0  0  0  0  0  0
  -30.2900  -18.5790   18.2760 C   0  0  0  0  0  0  0  0  0  0  0  0
  -30.8100  -14.5540   20.0880 C   0  0  0  0  0  0  0  0  0  0  0  0
  -30.6030  -12.2220   19.3410 C   0  0  0  0  0  2  0  0  0  0  0  0
  -29.6440  -12.1880   18.1330 C   0  0  0  0  0  2  0  0  0  0  0  0
  -28.1770  -12.0780   18.5960 C   0  0  0  0  0  2  0  0  0  0  0  0
  -27.8190  -13.1100   19.6990 C   0  0  0  0  0  3  0  0  0  0  0  0
  -28.8860  -13.1000   20.8190 C   0  0  0  0  0  2  0  0  0  0  0  0
  -30.2040  -13.3440   20.2010 N   0  0  0  0  0  0  0  0  0  0  0  0
  -31.8980  -14.7170   19.5280 O   0  0  0  0  0  0  0  0  0  0  0  0
  -30.0930  -15.5780   20.5750 N   0  0  0  0  0  0  0  0  0  0  0  0
  -29.3830  -15.2930   21.2320 H   0  0  0  0  0  0  0  0  0  0  0  0
  -25.4790  -13.7940   20.5350 C   0  0  0  0  0  0  0  0  0  0  0  0
  -24.3980  -13.0530   20.9340 C   0  0  0  0  0  0  0  0  0  0  0  0
  -24.8040  -11.6860   20.8450 C   0  0  0  0  0  0  0  0  0  0  0  0
  -26.4760  -12.8800   20.2320 N   0  0  0  0  0  0  0  0  0  0  0  0
  -26.0740  -11.6060   20.4730 N   0  0  0  0  0  0  0  0  0  0  0  0
  -24.0390  -10.4470   21.0380 C   0  0  0  0  0  0  0  0  0  0  0  0
  -24.4670   -9.4490   21.9410 C   0  0  0  0  0  3  0  0  0  0  0  0
  -23.7060   -8.2740   22.1220 C   0  0  0  0  0  3  0  0  0  0  0  0
  -22.5030   -8.0900   21.4000 C   0  0  0  0  0  0  0  0  0  0  0  0
  -22.0940   -9.0760   20.4850 C   0  0  0  0  0  3  0  0  0  0  0  0
  -22.8540  -10.2430   20.3020 C   0  0  0  0  0  3  0  0  0  0  0  0
  -21.7120   -6.9700   21.4920 O   0  0  0  0  0  0  0  0  0  0  0  0
  -21.6320   -6.2390   22.6500 C   0  0  0  0  0  0  0  0  0  0  0  0
  -21.2070   -6.8150   23.8670 C   0  0  0  0  0  3  0  0  0  0  0  0
  -21.0720   -6.0110   25.0170 C   0  0  0  0  0  3  0  0  0  0  0  0
  -21.3520   -4.6330   24.9510 C   0  0  0  0  0  0  0  0  0  0  0  0
  -21.7700   -4.0570   23.7370 C   0  0  0  0  0  3  0  0  0  0  0  0
  -21.9060   -4.8570   22.5900 C   0  0  0  0  0  0  0  0  0  0  0  0
  -22.2880   -4.2930   21.4190 F   0  0  0  0  0  0  0  0  0  0  0  0
  -21.2150   -3.8590   26.0530 F   0  0  0  0  0  0  0  0  0  0  0  0
  -23.0360  -13.5750   21.2890 C   0  0  0  0  0  0  0  0  0  0  0  0
  -22.3390  -12.8990   22.1980 N   0  0  0  0  0  0  0  0  0  0  0  0
  -22.6000  -14.6160   20.7980 O   0  0  0  0  0  0  0  0  0  0  0  0
  -22.7040  -12.0560   22.6150 H   0  0  0  0  0  0  0  0  0  0  0  0
  -21.4260  -13.2290   22.4770 H   0  0  0  0  0  0  0  0  0  0  0  0
  -25.6910  -15.1620   20.3870 N   0  0  0  0  0  0  0  0  0  0  0  0
  -24.9610  -15.8460   20.5560 H   0  0  0  0  0  0  0  0  0  0  0  0
  -26.5490  -15.5760   20.0450 H   0  0  0  0  0  0  0  0  0  0  0  0
  -27.5800  -21.0440   18.2360 C   0  0  0  0  0  1  0  0  0  0  0  0
  -28.8770  -20.4880   18.0630 O   0  0  0  0  0  0  0  0  0  0  0  0
  1  2  1  0
  2  3  1  0
  3  5  1  0
  4  8  1  0
  4  5  1  0
  5  7  1  0
  6  4  2  0
  9 10  1  0
  9  8  1  0
 11 14  1  0
 11 10  1  0
 12 14  1  0
 14 13  1  0
 15 17  1  0
 15 11  1  0
 16 27  2  0
 17 22  1  0
 18 26  1  0
 18 28  1  0
 19 25  1  0
 19 21  1  0
 20 26  1  0
 21 20  1  0
 22 21  2  0
 23 24  1  0
 23 17  2  0
 24 19  2  0
 25 18  1  0
 26 16  1  0
 28 30  2  0
 29 28  1  0
 31 29  1  0
 32 41  2  0
 32 37  1  0
 33 29  1  0
 33 37  1  0
 34 33  1  0
 35 36  1  0
 35 34  1  0
 36 32  1  0
 37 38  2  0
 38 39  1  0
 40 39  2  0
 41 40  1  0
 42 16  1  0
 42 47  1  0
 42 43  1  0
 43 46  1  1
 43 44  1  0
 45 43  1  0
 47 50  1  0
 48 52  1  0
 48 47  1  0
 49 48  2  0
 52 51  1  0
 54 52  1  0
 54 55  1  0
 54 53  1  0
 56  1  1  0
 57 56  1  0
 58 59  1  0
 58 57  1  0
 59 60  1  0
 60 61  1  0
 62 61  1  0
 62 68  1  0
 64 63  2  0
 65 66  2  0
 66 63  1  0
 66 77  1  0
 67 64  1  0
 68 67  2  0
 68 65  1  0
 69 75  1  0
 69 77  1  0
 70 75  1  0
 71 72  1  0
 71 70  1  0
 73 72  1  0
 73 82  1  0
 73 74  1  0
 75 74  1  0
 76 69  2  0
 77 78  1  0
 79 80  2  0
 80 99  1  0
 81 80  1  0
 81 84  1  0
 82 83  1  0
 82 79  1  0
 83 81  2  0
 84 85  1  0
 85 86  2  0
 87 90  1  0
 87 86  1  0
 88 87  2  0
 89 88  1  0
 89 84  2  0
 90 91  1  0
 91 92  1  0
 92 93  2  0
 94 93  1  0
 94 98  1  0
 95 94  2  0
 96 91  2  0
 96 95  1  0
 97 96  1  0
 99100  1  0
100103  1  0
100102  1  0
101 99  2  0
104 79  1  0
104105  1  0
106104  1  0
108107  1  0
108 67  1  0
M  ISO  4  11 101  15 101  69 100  77 100
M  END
>  <TORSDO>  (58) 
F 33

>  <SCORE>  (58) 
-8.504

>  <name>  (58) 
57

>  <ligand_id>  (58) 
57

>  <original_smiles>  (58) 
[H]c1c([H])c([H])c2c(c1[H])C([H])([H])C([H])([H])C([H])([H])C2([H])N([H])C(=O)C1([H])N(C(=O)C([H])(N([H])C(=O)C([H])(N([H])C([H])([H])[H])C([H])([H])[H])C(C([H])([H])[H])(C([H])([H])[H])C([H])([H])[H])C([H])([H])c2c([H])c(ON(C([H])([H])C([H])([H])C([H])([H])C(=O)N([H])C([H])([H])C([H])([H])C([H])([H])C([H])([H])C([H])([H])C([H])([H])OC([H])([H])C([H])([H])Oc3c([H])c(N([H])C(=O)N4C([H])([H])C([H])([H])C([H])([H])C([H])(n5nc(-c6c([H])c([H])c(Oc7c([H])c([H])c(F)c([H])c7F)c([H])c6[H])c(C(=O)N([H])[H])c5N([H])[H])C4([H])[H])c([H])c([H])c3OC([H])([H])[H])C([H])(C([H])([H])[H])C([H])([H])[H])c([H])c([H])c2C1([H])[H]

>  <smiles>  (58) 
[H]c1c([H])c([H])c2c(c1[H])C([H])([H])C([H])([H])C([H])([H])C2([H])N([H])C(=O)C1([H])N(C(=O)C([H])(N([H])C(=O)C([H])(N([H])C([H])([H])[H])C([H])([H])[H])C(C([H])([H])[H])(C([H])([H])[H])C([H])([H])[H])C([H])([H])c2c([H])c(ON(C([H])([H])C([H])([H])C([H])([H])C(=O)N([H])C([H])([H])C([H])([H])C([H])([H])C([H])([H])C([H])([H])C([H])([H])OC([H])([H])C([H])([H])Oc3c([H])c(N([H])C(=O)N4C([H])([H])C([H])([H])C([H])([H])C([H])(n5nc(-c6c([H])c([H])c(Oc7c([H])c([H])c(F)c([H])c7F)c([H])c6[H])c(C(=O)N([H])[H])c5N([H])[H])C4([H])[H])c([H])c([H])c3OC([H])([H])[H])C([H])(C([H])([H])[H])C([H])([H])[H])c([H])c([H])c2C1([H])[H]

$$$$
58:0:0
     RDKit          3D

 95103  0  0  1  0  0  0  0  0999 V2000
  -31.6920  -23.1380   20.9800 C   0  0  0  0  0  0  0  0  0  0  0  0
  -32.2280  -22.0720   20.3670 N   0  0  0  0  0  0  0  0  0  0  0  0
  -32.3540  -23.8740   21.7140 O   0  0  0  0  0  0  0  0  0  0  0  0
  -31.6250  -21.5080   19.7830 H   0  0  0  0  0  0  0  0  0  0  0  0
  -30.2050  -23.4270   20.7260 C   0  0  0  0  0  2  0  0  0  0  0  0
  -29.8770  -24.9400   20.7030 C   0  0  0  0  0  2  0  0  0  0  0  0
  -28.4160  -25.2900   20.3590 C   0  0  0  0  0  2  0  0  0  0  0  0
  -28.3710  -26.7080   20.2280 O   0  0  0  0  0  0  0  0  0  0  0  0
  -24.5370  -31.8580   23.2250 C   0  0  0  0  0  0  0  0  0  0  0  0
  -27.1580  -27.3600   20.2270 C   0  0  0  0  0  0  0  0  0  0  0  0
  -23.3160  -30.4320   21.6080 C   0  0  0  0  0  3  0  0  0  0  0  0
  -24.7540  -28.8490   20.2190 C   0  0  0  0  0  0  0  0  0  0  0  0
  -25.8350  -30.7800   21.3910 C   0  0  0  0  0  2  0  0  0  0  0  0
  -25.9130  -29.3950   20.7830 C   0  0  0  0  0  0  0  0  0  0  0  0
  -27.1140  -28.6570   20.7810 C   0  0  0  0  0  3  0  0  0  0  0  0
  -25.9800  -26.8130   19.6710 C   0  0  0  0  0  3  0  0  0  0  0  0
  -24.7800  -27.5590   19.6600 C   0  0  0  0  0  3  0  0  0  0  0  0
  -23.5160  -29.7180   20.2430 C   0  0  0  0  0  2  0  0  0  0  0  0
  -24.5810  -31.0400   22.1360 N   0  0  0  0  0  0  0  0  0  0  0  0
  -23.4600  -32.1500   23.7630 O   0  0  0  0  0  0  0  0  0  0  0  0
  -22.6620  -29.4380   22.5920 C   0  0  0  0  0  0  0  0  0  0  0  0
  -21.3380  -29.2560   22.4630 N   0  0  0  0  0  0  0  0  0  0  0  0
  -23.3410  -28.8320   23.4250 O   0  0  0  0  0  0  0  0  0  0  0  0
  -20.8520  -29.8040   21.7690 H   0  0  0  0  0  0  0  0  0  0  0  0
  -17.9660  -28.0540   22.9460 C   0  0  0  0  0  0  0  0  0  0  0  0
  -20.5150  -28.3350   23.2490 C   0  0  0  0  0  3  0  0  0  0  0  0
  -20.6320  -26.8880   22.7190 C   0  0  0  0  0  2  0  0  0  0  0  0
  -19.5500  -26.5270   21.6970 C   0  0  0  0  0  2  0  0  0  0  0  0
  -18.1590  -26.6840   22.3150 C   0  0  0  0  0  2  0  0  0  0  0  0
  -19.0730  -28.8360   23.3690 C   0  0  0  0  0  0  0  0  0  0  0  0
  -18.8400  -30.1160   23.9140 C   0  0  0  0  0  3  0  0  0  0  0  0
  -17.5320  -30.6180   24.0410 C   0  0  0  0  0  3  0  0  0  0  0  0
  -16.4380  -29.8330   23.6350 C   0  0  0  0  0  3  0  0  0  0  0  0
  -16.6550  -28.5540   23.0920 C   0  0  0  0  0  3  0  0  0  0  0  0
  -25.8310  -32.4870   23.8290 C   0  0  0  0  0  3  0  0  0  0  0  0
  -25.5250  -33.8810   24.1750 N   0  0  0  0  0  0  0  0  0  0  0  0
  -25.8670  -34.9420   23.4330 C   0  0  0  0  0  0  0  0  0  0  0  0
  -26.5450  -34.8490   22.4040 O   0  0  0  0  0  0  0  0  0  0  0  0
  -24.9250  -34.0300   24.9750 H   0  0  0  0  0  0  0  0  0  0  0  0
  -24.1550  -36.7460   23.0780 C   0  0  0  0  0  1  0  0  0  0  0  0
  -25.3800  -36.3250   23.9040 C   0  0  0  0  0  3  0  0  0  0  0  0
  -27.5050  -37.1850   24.7830 C   0  0  0  0  0  1  0  0  0  0  0  0
  -26.4190  -37.3740   23.8240 N   0  0  0  0  0  0  0  0  0  0  0  0
  -26.0140  -38.2920   23.9850 H   0  0  0  0  0  0  0  0  0  0  0  0
  -26.3790  -31.7040   25.0850 C   0  0  1  0  0  0  0  0  0  0  0  0
  -25.3110  -31.4470   26.1710 C   0  0  0  0  0  1  0  0  0  0  0  0
  -26.9620  -30.3370   24.6580 C   0  0  0  0  0  1  0  0  0  0  0  0
  -27.5380  -32.4990   25.7350 C   0  0  0  0  0  1  0  0  0  0  0  0
  -33.6410  -21.6870   20.4060 C   0  0  0  0  0  2  0  0  0  0  0  0
  -33.8910  -20.3790   21.1790 C   0  0  0  0  0  2  0  0  0  0  0  0
  -33.2790  -19.2640   20.5250 O   0  0  0  0  0  0  0  0  0  0  0  0
  -30.1200  -18.6950   22.4340 C   0  0  0  0  0  3  0  0  0  0  0  0
  -29.8900  -17.3430   22.1160 C   0  0  0  0  0  3  0  0  0  0  0  0
  -31.2400  -19.3670   21.9140 C   0  0  0  0  0  3  0  0  0  0  0  0
  -31.8960  -17.3360   20.7400 C   0  0  0  0  0  3  0  0  0  0  0  0
  -30.7660  -16.6500   21.2550 C   0  0  0  0  0  0  0  0  0  0  0  0
  -32.1500  -18.6870   21.0700 C   0  0  0  0  0  0  0  0  0  0  0  0
  -30.9860  -14.4090   20.1130 C   0  0  0  0  0  0  0  0  0  0  0  0
  -30.6160  -12.2510   18.9630 C   0  0  0  0  0  2  0  0  0  0  0  0
  -29.6390  -12.4330   17.7840 C   0  0  0  0  0  2  0  0  0  0  0  0
  -28.1750  -12.3280   18.2560 C   0  0  0  0  0  2  0  0  0  0  0  0
  -27.8880  -13.2040   19.5050 C   0  0  0  0  0  3  0  0  0  0  0  0
  -28.9640  -12.9700   20.5880 C   0  0  0  0  0  2  0  0  0  0  0  0
  -30.2840  -13.2490   19.9910 N   0  0  0  0  0  0  0  0  0  0  0  0
  -32.0170  -14.6300   19.4700 O   0  0  0  0  0  0  0  0  0  0  0  0
  -30.4500  -15.2860   20.9810 N   0  0  0  0  0  0  0  0  0  0  0  0
  -29.6210  -14.9400   21.4360 H   0  0  0  0  0  0  0  0  0  0  0  0
  -25.5100  -13.8780   20.2340 C   0  0  0  0  0  0  0  0  0  0  0  0
  -24.4430  -13.1370   20.6690 C   0  0  0  0  0  0  0  0  0  0  0  0
  -24.8900  -11.7800   20.6920 C   0  0  0  0  0  0  0  0  0  0  0  0
  -26.5410  -12.9740   20.0240 N   0  0  0  0  0  0  0  0  0  0  0  0
  -26.1700  -11.7090   20.3500 N   0  0  0  0  0  0  0  0  0  0  0  0
  -24.1570  -10.5360   20.9620 C   0  0  0  0  0  0  0  0  0  0  0  0
  -24.5860   -9.6280   21.9550 C   0  0  0  0  0  3  0  0  0  0  0  0
  -23.8540   -8.4480   22.2100 C   0  0  0  0  0  3  0  0  0  0  0  0
  -22.6810   -8.1680   21.4710 C   0  0  0  0  0  0  0  0  0  0  0  0
  -22.2710   -9.0650   20.4680 C   0  0  0  0  0  3  0  0  0  0  0  0
  -23.0030  -10.2360   20.2120 C   0  0  0  0  0  3  0  0  0  0  0  0
  -21.9220   -7.0340   21.6300 O   0  0  0  0  0  0  0  0  0  0  0  0
  -21.8400   -6.3860   22.8370 C   0  0  0  0  0  0  0  0  0  0  0  0
  -21.3910   -7.0400   24.0060 C   0  0  0  0  0  3  0  0  0  0  0  0
  -21.2560   -6.3190   25.2080 C   0  0  0  0  0  3  0  0  0  0  0  0
  -21.5600   -4.9450   25.2450 C   0  0  0  0  0  0  0  0  0  0  0  0
  -22.0020   -4.2900   24.0820 C   0  0  0  0  0  3  0  0  0  0  0  0
  -22.1380   -5.0080   22.8810 C   0  0  0  0  0  0  0  0  0  0  0  0
  -22.5430   -4.3680   21.7580 F   0  0  0  0  0  0  0  0  0  0  0  0
  -21.4240   -4.2510   26.3990 F   0  0  0  0  0  0  0  0  0  0  0  0
  -23.0580  -13.6430   20.9550 C   0  0  0  0  0  0  0  0  0  0  0  0
  -22.3560  -13.0080   21.8880 N   0  0  0  0  0  0  0  0  0  0  0  0
  -22.6090  -14.6370   20.3870 O   0  0  0  0  0  0  0  0  0  0  0  0
  -22.7310  -12.2060   22.3700 H   0  0  0  0  0  0  0  0  0  0  0  0
  -21.4280  -13.3290   22.1210 H   0  0  0  0  0  0  0  0  0  0  0  0
  -25.6840  -15.2370   19.9860 N   0  0  0  0  0  0  0  0  0  0  0  0
  -24.9340  -15.9110   20.0900 H   0  0  0  0  0  0  0  0  0  0  0  0
  -26.5380  -15.6490   19.6290 H   0  0  0  0  0  0  0  0  0  0  0  0
  1  3  2  0
  2 49  1  0
  2  1  1  0
  4  2  1  0
  5  1  1  0
  6  5  1  0
  7  6  1  0
  8  7  1  0
  9 20  2  0
 10  8  1  0
 10 15  1  0
 11 19  1  0
 11 21  1  0
 12 18  1  0
 12 14  1  0
 13 19  1  0
 14 13  1  0
 15 14  2  0
 16 10  2  0
 17 16  1  0
 17 12  2  0
 18 11  1  0
 19  9  1  0
 21 23  2  0
 22 21  1  0
 24 22  1  0
 25 34  2  0
 25 30  1  0
 26 22  1  0
 26 30  1  0
 27 26  1  0
 28 29  1  0
 28 27  1  0
 29 25  1  0
 30 31  2  0
 31 32  1  0
 33 32  2  0
 34 33  1  0
 35  9  1  0
 35 36  1  0
 35 45  1  0
 36 39  1  0
 37 41  1  0
 37 36  1  0
 38 37  2  0
 41 40  1  0
 43 41  1  0
 43 44  1  0
 43 42  1  0
 45 48  1  1
 45 46  1  0
 47 45  1  0
 49 50  1  0
 51 57  1  0
 51 50  1  0
 53 52  1  0
 54 52  2  0
 55 57  2  0
 55 56  1  0
 56 53  2  0
 57 54  1  0
 58 66  1  0
 59 64  1  0
 60 61  1  0
 60 59  1  0
 62 61  1  0
 62 71  1  0
 62 63  1  0
 64 58  1  0
 64 63  1  0
 65 58  2  0
 66 56  1  0
 66 67  1  0
 68 69  2  0
 69 70  1  0
 69 88  1  0
 70 73  1  0
 71 68  1  0
 71 72  1  0
 72 70  2  0
 73 74  1  0
 74 75  2  0
 76 79  1  0
 76 75  1  0
 77 76  2  0
 78 77  1  0
 78 73  2  0
 79 80  1  0
 80 85  2  0
 80 81  1  0
 81 82  2  0
 82 83  1  0
 83 87  1  0
 84 83  2  0
 85 84  1  0
 86 85  1  0
 88 89  1  0
 89 92  1  0
 89 91  1  0
 90 88  2  0
 93 94  1  0
 93 68  1  0
 95 93  1  0
M  ISO  4   7 101   8 101  58 100  66 100
M  END
>  <TORSDO>  (59) 
F 23

>  <SCORE>  (59) 
-10.198

>  <name>  (59) 
58

>  <ligand_id>  (59) 
58

>  <original_smiles>  (59) 
[H]c1c([H])c(OC([H])([H])C([H])([H])N([H])C(=O)C([H])([H])C([H])([H])C([H])([H])Oc2c([H])c([H])c3c(c2[H])C([H])([H])N(C(=O)C([H])(N([H])C(=O)C([H])(N([H])C([H])([H])[H])C([H])([H])[H])C(C([H])([H])[H])(C([H])([H])[H])C([H])([H])[H])C([H])(C(=O)N([H])C2([H])c4c([H])c([H])c([H])c([H])c4C([H])([H])C([H])([H])C2([H])[H])C3([H])[H])c([H])c(N([H])C(=O)N2C([H])([H])C([H])([H])C([H])([H])C([H])(n3nc(-c4c([H])c([H])c(Oc5c([H])c([H])c(F)c([H])c5F)c([H])c4[H])c(C(=O)N([H])[H])c3N([H])[H])C2([H])[H])c1[H]

>  <smiles>  (59) 
[H]c1c([H])c(OC([H])([H])C([H])([H])N([H])C(=O)C([H])([H])C([H])([H])C([H])([H])Oc2c([H])c([H])c3c(c2[H])C([H])([H])N(C(=O)C([H])(N([H])C(=O)C([H])(N([H])C([H])([H])[H])C([H])([H])[H])C(C([H])([H])[H])(C([H])([H])[H])C([H])([H])[H])C([H])(C(=O)N([H])C2([H])c4c([H])c([H])c([H])c([H])c4C([H])([H])C([H])([H])C2([H])[H])C3([H])[H])c([H])c(N([H])C(=O)N2C([H])([H])C([H])([H])C([H])([H])C([H])(n3nc(-c4c([H])c([H])c(Oc5c([H])c([H])c(F)c([H])c5F)c([H])c4[H])c(C(=O)N([H])[H])c3N([H])[H])C2([H])[H])c1[H]

$$$$
59:0:0
     RDKit          3D

 94102  0  0  1  0  0  0  0  0999 V2000
  -28.7330  -19.4070   20.3600 C   0  0  0  0  0  3  0  0  0  0  0  0
  -30.9920  -17.9450   21.1300 C   0  0  0  0  0  3  0  0  0  0  0  0
  -29.8300  -20.1520   20.8610 C   0  0  0  0  0  0  0  0  0  0  0  0
  -30.9830  -19.3730   21.2210 C   0  0  0  0  0  0  0  0  0  0  0  0
  -29.8680  -17.2130   20.6790 C   0  0  0  0  0  0  0  0  0  0  0  0
  -28.7440  -17.9750   20.2530 C   0  0  0  0  0  0  0  0  0  0  0  0
  -32.2490  -20.0370   21.7450 C   0  0  0  0  0  1  0  0  0  0  0  0
  -30.6150  -14.7150   20.5070 C   0  0  0  0  0  0  0  0  0  0  0  0
  -30.4560  -12.4760   19.4400 C   0  0  0  0  0  2  0  0  0  0  0  0
  -29.5200  -12.5980   18.2170 C   0  0  0  0  0  2  0  0  0  0  0  0
  -28.0430  -12.4260   18.6300 C   0  0  0  0  0  2  0  0  0  0  0  0
  -27.6600  -13.2800   19.8690 C   0  0  0  0  0  3  0  0  0  0  0  0
  -28.7110  -13.1250   20.9920 C   0  0  0  0  0  2  0  0  0  0  0  0
  -30.0220  -13.4830   20.4250 N   0  0  0  0  0  0  0  0  0  0  0  0
  -31.7980  -14.8840   20.1960 O   0  0  0  0  0  0  0  0  0  0  0  0
  -29.7490  -15.7540   20.7160 N   0  0  0  0  0  0  0  0  0  0  0  0
  -28.7950  -15.4390   20.7970 H   0  0  0  0  0  0  0  0  0  0  0  0
  -25.2530  -13.8540   20.5640 C   0  0  0  0  0  0  0  0  0  0  0  0
  -24.1870  -13.0720   20.9100 C   0  0  0  0  0  0  0  0  0  0  0  0
  -24.6610  -11.7260   20.8800 C   0  0  0  0  0  0  0  0  0  0  0  0
  -26.3080  -12.9850   20.3360 N   0  0  0  0  0  0  0  0  0  0  0  0
  -25.9560  -11.6980   20.5880 N   0  0  0  0  0  0  0  0  0  0  0  0
  -23.9420  -10.4580   21.0550 C   0  0  0  0  0  0  0  0  0  0  0  0
  -24.3540   -9.4990   22.0060 C   0  0  0  0  0  3  0  0  0  0  0  0
  -23.6340   -8.2960   22.1670 C   0  0  0  0  0  3  0  0  0  0  0  0
  -22.4860   -8.0440   21.3770 C   0  0  0  0  0  0  0  0  0  0  0  0
  -22.0940   -8.9920   20.4170 C   0  0  0  0  0  3  0  0  0  0  0  0
  -22.8160  -10.1860   20.2520 C   0  0  0  0  0  3  0  0  0  0  0  0
  -21.7400   -6.8920   21.4480 O   0  0  0  0  0  0  0  0  0  0  0  0
  -21.6380   -6.1720   22.6110 C   0  0  0  0  0  0  0  0  0  0  0  0
  -21.1060   -6.7350   23.7920 C   0  0  0  0  0  3  0  0  0  0  0  0
  -20.9540   -5.9380   24.9440 C   0  0  0  0  0  3  0  0  0  0  0  0
  -21.3230   -4.5810   24.9170 C   0  0  0  0  0  0  0  0  0  0  0  0
  -21.8490   -4.0170   23.7400 C   0  0  0  0  0  3  0  0  0  0  0  0
  -22.0030   -4.8110   22.5900 C   0  0  0  0  0  0  0  0  0  0  0  0
  -22.4880   -4.2570   21.4520 F   0  0  0  0  0  0  0  0  0  0  0  0
  -21.1700   -3.8130   26.0210 F   0  0  0  0  0  0  0  0  0  0  0  0
  -22.7830  -13.5400   21.1630 C   0  0  0  0  0  0  0  0  0  0  0  0
  -22.0440  -12.8340   22.0110 N   0  0  0  0  0  0  0  0  0  0  0  0
  -22.3480  -14.5680   20.6440 O   0  0  0  0  0  0  0  0  0  0  0  0
  -22.4070  -12.0040   22.4570 H   0  0  0  0  0  0  0  0  0  0  0  0
  -21.1020  -13.1320   22.2230 H   0  0  0  0  0  0  0  0  0  0  0  0
  -25.4000  -15.2280   20.4070 N   0  0  0  0  0  0  0  0  0  0  0  0
  -24.6150  -15.8550   20.5300 H   0  0  0  0  0  0  0  0  0  0  0  0
  -26.2490  -15.7070   20.1240 H   0  0  0  0  0  0  0  0  0  0  0  0
  -29.7160  -21.6740   21.1710 C   0  0  0  0  0  0  0  0  0  0  0  0
  -29.0450  -22.2810   18.8600 C   0  0  0  0  0  1  0  0  0  0  0  0
  -29.3090  -22.6320   20.2580 N   0  0  0  0  0  0  0  0  0  0  0  0
  -30.0380  -22.0210   22.3110 O   0  0  0  0  0  0  0  0  0  0  0  0
  -29.4010  -24.1290   20.5350 C   0  0  0  0  0  3  0  0  0  0  0  0
  -28.2130  -25.0910   20.0930 C   0  0  0  0  0  3  0  0  0  0  0  0
  -28.3680  -26.5420   20.3490 O   0  0  0  0  0  0  0  0  0  0  0  0
  -24.5930  -31.9250   23.3170 C   0  0  0  0  0  0  0  0  0  0  0  0
  -27.2340  -27.3680   20.2900 C   0  0  0  0  0  0  0  0  0  0  0  0
  -23.3980  -30.5180   21.6760 C   0  0  0  0  0  3  0  0  0  0  0  0
  -24.8580  -28.9660   20.2640 C   0  0  0  0  0  0  0  0  0  0  0  0
  -25.9360  -30.8440   21.5020 C   0  0  0  0  0  2  0  0  0  0  0  0
  -26.0220  -29.4630   20.8630 C   0  0  0  0  0  0  0  0  0  0  0  0
  -27.2120  -28.6760   20.8660 C   0  0  0  0  0  3  0  0  0  0  0  0
  -26.0430  -26.9210   19.6700 C   0  0  0  0  0  3  0  0  0  0  0  0
  -24.8710  -27.7000   19.6580 C   0  0  0  0  0  3  0  0  0  0  0  0
  -23.6190  -29.8380   20.3000 C   0  0  0  0  0  2  0  0  0  0  0  0
  -24.6620  -31.1130   22.2220 N   0  0  0  0  0  0  0  0  0  0  0  0
  -23.5080  -32.2040   23.8450 O   0  0  0  0  0  0  0  0  0  0  0  0
  -22.7350  -29.5040   22.6370 C   0  0  0  0  0  0  0  0  0  0  0  0
  -21.4160  -29.2980   22.4810 N   0  0  0  0  0  0  0  0  0  0  0  0
  -23.4040  -28.9060   23.4820 O   0  0  0  0  0  0  0  0  0  0  0  0
  -20.9340  -29.8350   21.7730 H   0  0  0  0  0  0  0  0  0  0  0  0
  -18.0530  -28.0340   22.9040 C   0  0  0  0  0  0  0  0  0  0  0  0
  -20.5950  -28.3570   23.2460 C   0  0  0  0  0  3  0  0  0  0  0  0
  -20.7470  -26.9170   22.7060 C   0  0  0  0  0  2  0  0  0  0  0  0
  -19.6830  -26.5460   21.6670 C   0  0  0  0  0  2  0  0  0  0  0  0
  -18.2800  -26.6740   22.2650 C   0  0  0  0  0  2  0  0  0  0  0  0
  -19.1410  -28.8310   23.3510 C   0  0  0  0  0  0  0  0  0  0  0  0
  -18.8750  -30.1010   23.9070 C   0  0  0  0  0  3  0  0  0  0  0  0
  -17.5550  -30.5760   24.0220 C   0  0  0  0  0  3  0  0  0  0  0  0
  -16.4810  -29.7760   23.5930 C   0  0  0  0  0  3  0  0  0  0  0  0
  -16.7310  -28.5080   23.0400 C   0  0  0  0  0  3  0  0  0  0  0  0
  -25.8740  -32.5610   23.9410 C   0  0  0  0  0  3  0  0  0  0  0  0
  -26.3710  -31.8120   25.2390 C   0  0  1  0  0  0  0  0  0  0  0  0
  -25.2620  -31.5990   26.2970 C   0  0  0  0  0  1  0  0  0  0  0  0
  -26.9540  -30.4250   24.8820 C   0  0  0  0  0  1  0  0  0  0  0  0
  -27.5140  -32.6150   25.9030 C   0  0  0  0  0  1  0  0  0  0  0  0
  -25.5690  -33.9690   24.2400 N   0  0  0  0  0  0  0  0  0  0  0  0
  -25.9000  -35.0020   23.4550 C   0  0  0  0  0  0  0  0  0  0  0  0
  -26.5640  -34.8730   22.4240 O   0  0  0  0  0  0  0  0  0  0  0  0
  -24.9800  -34.1430   25.0410 H   0  0  0  0  0  0  0  0  0  0  0  0
  -24.1760  -36.7930   23.0690 C   0  0  0  0  0  1  0  0  0  0  0  0
  -25.4200  -36.4020   23.8830 C   0  0  0  0  0  3  0  0  0  0  0  0
  -27.5550  -37.3060   24.6910 C   0  0  0  0  0  1  0  0  0  0  0  0
  -26.4560  -37.4490   23.7410 N   0  0  0  0  0  0  0  0  0  0  0  0
  -26.0510  -38.3740   23.8610 H   0  0  0  0  0  0  0  0  0  0  0  0
  -26.6660  -17.9800   19.0540 C   0  0  0  0  0  1  0  0  0  0  0  0
  -27.6740  -17.2590   19.7560 O   0  0  0  0  0  0  0  0  0  0  0  0
  1  3  1  0
  2  4  1  0
  3 46  1  0
  3  4  2  0
  4  7  1  0
  5 16  1  0
  5  2  2  0
  6  1  2  0
  6  5  1  0
  8 16  1  0
  9 14  1  0
 10 11  1  0
 10  9  1  0
 12 11  1  0
 12 21  1  0
 12 13  1  0
 14  8  1  0
 14 13  1  0
 15  8  2  0
 16 17  1  0
 18 19  2  0
 19 38  1  0
 20 19  1  0
 20 23  1  0
 21 18  1  0
 21 22  1  0
 22 20  2  0
 23 24  1  0
 24 25  2  0
 26 29  1  0
 26 25  1  0
 27 26  2  0
 28 27  1  0
 28 23  2  0
 29 30  1  0
 30 31  1  0
 31 32  2  0
 33 32  1  0
 33 37  1  0
 34 33  2  0
 35 30  2  0
 35 34  1  0
 36 35  1  0
 38 39  1  0
 39 42  1  0
 39 41  1  0
 40 38  2  0
 43 44  1  0
 43 18  1  0
 45 43  1  0
 46 49  2  0
 47 48  1  0
 48 50  1  0
 48 46  1  0
 51 52  1  0
 51 50  2  0
 53 64  2  0
 54 52  1  0
 54 59  1  0
 55 63  1  0
 55 65  1  0
 56 62  1  0
 56 58  1  0
 57 63  1  0
 58 59  2  0
 58 57  1  0
 60 54  2  0
 61 60  1  0
 61 56  2  0
 62 55  1  0
 63 53  1  0
 65 67  2  0
 66 65  1  0
 68 66  1  0
 69 78  2  0
 69 74  1  0
 70 66  1  0
 70 74  1  0
 71 70  1  0
 72 73  1  0
 72 71  1  0
 73 69  1  0
 74 75  2  0
 75 76  1  0
 77 76  2  0
 78 77  1  0
 79 53  1  0
 79 84  1  0
 79 80  1  0
 80 83  1  1
 80 81  1  0
 82 80  1  0
 84 87  1  0
 85 89  1  0
 85 84  1  0
 86 85  2  0
 89 88  1  0
 91 92  1  0
 91 89  1  0
 91 90  1  0
 93 94  1  0
 94  6  1  0
M  ISO  4   8 100  16 100  51 101  52 101
M  END
>  <TORSDO>  (60) 
F 20

>  <SCORE>  (60) 
-14.216

>  <name>  (60) 
59

>  <ligand_id>  (60) 
59

>  <original_smiles>  (60) 
[H]c1c([H])c([H])c2c(c1[H])C([H])([H])C([H])([H])C([H])([H])C2([H])N([H])C(=O)C1([H])N(C(=O)C([H])(N([H])C(=O)C([H])(N([H])C([H])([H])[H])C([H])([H])[H])C(C([H])([H])[H])(C([H])([H])[H])C([H])([H])[H])C([H])([H])c2c([H])c(OC([H])([H])C([H])([H])N(C(=O)c3c([H])c(OC([H])([H])[H])c(N([H])C(=O)N4C([H])([H])C([H])([H])C([H])([H])C([H])(n5nc(-c6c([H])c([H])c(Oc7c([H])c([H])c(F)c([H])c7F)c([H])c6[H])c(C(=O)N([H])[H])c5N([H])[H])C4([H])[H])c([H])c3C([H])([H])[H])C([H])([H])[H])c([H])c([H])c2C1([H])[H]

>  <smiles>  (60) 
[H]c1c([H])c([H])c2c(c1[H])C([H])([H])C([H])([H])C([H])([H])C2([H])N([H])C(=O)C1([H])N(C(=O)C([H])(N([H])C(=O)C([H])(N([H])C([H])([H])[H])C([H])([H])[H])C(C([H])([H])[H])(C([H])([H])[H])C([H])([H])[H])C([H])([H])c2c([H])c(OC([H])([H])C([H])([H])N(C(=O)c3c([H])c(OC([H])([H])[H])c(N([H])C(=O)N4C([H])([H])C([H])([H])C([H])([H])C([H])(n5nc(-c6c([H])c([H])c(Oc7c([H])c([H])c(F)c([H])c7F)c([H])c6[H])c(C(=O)N([H])[H])c5N([H])[H])C4([H])[H])c([H])c3C([H])([H])[H])C([H])([H])[H])c([H])c([H])c2C1([H])[H]

$$$$
60:0:0
     RDKit          3D

 97 99  0  0  1  0  0  0  0  0999 V2000
  -27.7070  -16.0030   21.6380 C   0  0  0  0  0  3  0  0  0  0  0  0
  -26.9490  -14.7810   21.6040 C   0  0  0  0  0  3  0  0  0  0  0  0
  -27.9660  -16.9220   20.5620 C   0  0  0  0  0  3  0  0  0  0  0  0
  -26.6540  -15.3630   19.2970 C   0  0  0  0  0  3  0  0  0  0  0  0
  -26.3240  -14.2420   20.4510 C   0  0  0  0  0  0  0  0  0  0  0  0
  -27.4890  -16.7750   19.2350 C   0  0  0  0  0  0  0  0  0  0  0  0
  -25.5480  -11.3130   21.4960 C   0  0  0  0  0  2  0  0  0  0  0  0
  -24.1870  -12.7930   20.0060 C   0  0  0  0  0  1  0  0  0  0  0  0
  -25.4890  -12.6960   20.6720 N   0  0  0  0  0  0  0  0  0  0  0  0
  -25.8150  -11.5620   22.6730 O   0  0  0  0  0  1  0  0  0  0  0  0
  -25.3590   -9.3210   21.2840 C   0  0  0  0  0  2  0  0  0  0  0  0
  -27.6360   -7.0470   22.2740 C   0  0  0  0  0  1  0  0  0  0  0  0
  -29.3210   -7.3050   22.1120 C   0  0  0  0  0  2  0  0  0  0  0  0
  -30.3090   -8.3610   22.9310 C   0  0  0  0  0  3  0  0  0  0  0  0
  -31.9390   -8.2680   22.8470 C   0  0  0  0  0  3  0  0  0  0  0  0
  -34.2810  -10.3260   22.9260 C   0  0  2  0  0  0  0  0  0  0  0  0
  -35.0530   -9.0810   23.5710 C   0  0  0  0  0  1  0  0  0  0  0  0
  -34.7390   -8.2660   21.8760 C   0  0  0  0  0  1  0  0  0  0  0  0
  -33.7240   -9.1300   20.6970 C   0  0  0  0  0  2  0  0  0  0  0  0
  -33.0740  -10.7550   20.9530 C   0  0  0  0  0  2  0  0  0  0  0  0
  -33.3460  -11.5910   22.6120 C   0  0  0  0  0  1  0  0  0  0  0  0
  -34.3050  -10.7070   23.8210 N   0  0  0  0  0  1  0  0  0  0  0  0
  -35.4030  -10.7520   22.1890 O   0  0  0  0  0  1  0  0  0  0  0  0
  -32.8710   -9.4760   23.2250 N   0  0  0  0  0  2  0  0  0  0  0  0
  -32.5690   -9.8120   24.1270 H   0  0  0  0  0  0  0  0  0  0  0  0
  -31.2190  -11.6800   19.4920 C   0  0  0  0  0  0  0  0  0  0  0  0
  -29.9310  -11.3190   19.2830 C   0  0  0  0  0  0  0  0  0  0  0  0
  -29.8190  -10.3040   20.2640 C   0  0  0  0  0  0  0  0  0  0  0  0
  -31.7280  -10.8720   20.4840 N   0  0  0  0  0  0  0  0  0  0  0  0
  -30.8290  -10.0780   21.0040 N   0  0  0  0  0  0  0  0  0  0  0  0
  -28.7530   -9.6440   20.6460 C   0  0  0  0  0  0  0  0  0  0  0  0
  -28.1020   -9.5470   22.2660 C   0  0  0  0  0  1  0  0  0  0  0  0
  -26.5100   -9.0150   22.3830 C   0  0  0  0  0  1  0  0  0  0  0  0
  -25.6760   -8.5770   21.0530 C   0  0  0  0  0  3  0  0  0  0  0  0
  -26.2900   -8.7530   19.6170 C   0  0  0  0  0  2  0  0  0  0  0  0
  -27.7850   -9.2290   19.3710 C   0  0  0  0  0  3  0  0  0  0  0  0
  -24.7170   -7.5350   21.0270 O   0  0  0  0  0  0  0  0  0  0  0  0
  -23.6980   -7.4050   21.9430 C   0  0  0  0  0  0  0  0  0  0  0  0
  -23.0850   -8.5840   22.3950 C   0  0  0  0  0  3  0  0  0  0  0  0
  -22.0510   -8.5360   23.3400 C   0  0  0  0  0  3  0  0  0  0  0  0
  -21.6020   -7.3030   23.8360 C   0  0  0  0  0  0  0  0  0  0  0  0
  -22.1670   -6.1070   23.3590 C   0  0  0  0  0  3  0  0  0  0  0  0
  -23.2040   -6.1460   22.4030 C   0  0  0  0  0  0  0  0  0  0  0  0
  -23.7020   -4.9680   21.9450 F   0  0  0  0  0  0  0  0  0  0  0  0
  -20.6260   -7.2800   24.7710 F   0  0  0  0  0  0  0  0  0  0  0  0
  -28.9250  -11.9550   18.3030 C   0  0  0  0  0  0  0  0  0  0  0  0
  -27.6040  -11.9080   18.4700 N   0  0  0  0  0  0  0  0  0  0  0  0
  -29.3060  -12.7240   17.4440 O   0  0  0  0  0  0  0  0  0  0  0  0
  -27.1940  -11.2560   19.1240 H   0  0  0  0  0  0  0  0  0  0  0  0
  -27.0060  -12.4080   17.8270 H   0  0  0  0  0  0  0  0  0  0  0  0
  -32.0280  -12.6230   18.9120 N   0  0  0  0  0  0  0  0  0  0  0  0
  -31.6430  -13.3400   18.3090 H   0  0  0  0  0  0  0  0  0  0  0  0
  -32.9140  -12.8930   19.3190 H   0  0  0  0  0  0  0  0  0  0  0  0
  -27.9060  -17.9520   18.1550 O   0  0  0  0  0  0  0  0  0  0  0  0
  -28.8140  -19.5150   17.9880 C   0  0  0  0  0  1  0  0  0  0  0  0
  -28.6940  -21.4190   17.3490 C   0  0  0  0  0  1  0  0  0  0  0  0
  -29.4590  -23.0680   17.3010 O   0  0  0  0  0  0  0  0  0  0  0  0
  -26.4810  -27.7960   22.3520 C   0  0  0  0  0  0  0  0  0  0  0  0
  -28.8800  -24.4640   17.6130 C   0  0  0  0  0  0  0  0  0  0  0  0
  -25.3650  -27.2460   20.2360 C   0  0  0  0  0  3  0  0  0  0  0  0
  -26.8610  -26.5280   18.2490 C   0  0  0  0  0  0  0  0  0  0  0  0
  -27.9270  -27.5010   20.2600 C   0  0  0  0  0  2  0  0  0  0  0  0
  -28.0090  -26.5030   19.0470 C   0  0  0  0  0  0  0  0  0  0  0  0
  -29.0440  -25.4960   18.7060 C   0  0  0  0  0  3  0  0  0  0  0  0
  -27.8520  -24.8490   16.7440 C   0  0  0  0  0  3  0  0  0  0  0  0
  -26.8460  -25.7830   17.0660 C   0  0  0  0  0  3  0  0  0  0  0  0
  -25.6370  -27.3190   18.7060 C   0  0  0  0  0  2  0  0  0  0  0  0
  -26.6130  -27.5300   21.0100 N   0  0  0  0  0  0  0  0  0  0  0  0
  -25.3750  -27.7720   22.9190 O   0  0  0  0  0  0  0  0  0  0  0  0
  -24.7340  -25.8780   20.6160 C   0  0  0  0  0  0  0  0  0  0  0  0
  -23.4170  -25.7110   20.3980 N   0  0  0  0  0  0  0  0  0  0  0  0
  -25.4360  -24.9830   21.0930 O   0  0  0  0  0  0  0  0  0  0  0  0
  -22.8940  -26.4920   20.0250 H   0  0  0  0  0  0  0  0  0  0  0  0
  -20.1240  -24.1970   20.1920 C   0  0  0  0  0  0  0  0  0  0  0  0
  -22.6560  -24.4800   20.6460 C   0  0  0  0  0  3  0  0  0  0  0  0
  -22.8660  -23.4580   19.5040 C   0  0  0  0  0  2  0  0  0  0  0  0
  -21.8000  -23.5520   18.4080 C   0  0  0  0  0  2  0  0  0  0  0  0
  -20.4060  -23.3070   18.9930 C   0  0  0  0  0  2  0  0  0  0  0  0
  -21.1800  -24.7590   20.9600 C   0  0  0  0  0  0  0  0  0  0  0  0
  -20.8610  -25.6020   22.0460 C   0  0  0  0  0  3  0  0  0  0  0  0
  -19.5200  -25.8850   22.3680 C   0  0  0  0  0  3  0  0  0  0  0  0
  -18.4800  -25.3160   21.6120 C   0  0  0  0  0  3  0  0  0  0  0  0
  -18.7830  -24.4700   20.5310 C   0  0  0  0  0  3  0  0  0  0  0  0
  -27.7100  -28.1570   23.2380 C   0  0  0  0  0  3  0  0  0  0  0  0
  -28.4420  -26.8870   23.8280 C   0  0  1  0  0  0  0  0  0  0  0  0
  -27.4920  -25.9060   24.5550 C   0  0  0  0  0  1  0  0  0  0  0  0
  -29.1700  -26.0920   22.7210 C   0  0  0  0  0  1  0  0  0  0  0  0
  -29.5310  -27.3290   24.8340 C   0  0  0  0  0  1  0  0  0  0  0  0
  -27.2380  -29.0190   24.3380 N   0  0  0  0  0  0  0  0  0  0  0  0
  -27.4390  -30.3400   24.4280 C   0  0  0  0  0  0  0  0  0  0  0  0
  -28.1060  -30.9670   23.6000 O   0  0  0  0  0  0  0  0  0  0  0  0
  -26.6340  -28.5830   25.0210 H   0  0  0  0  0  0  0  0  0  0  0  0
  -25.5190  -31.7950   25.1710 C   0  0  0  0  0  1  0  0  0  0  0  0
  -26.8070  -31.0850   25.6220 C   0  0  0  0  0  3  0  0  0  0  0  0
  -28.8290  -31.4520   26.9680 C   0  0  0  0  0  1  0  0  0  0  0  0
  -27.7130  -32.0670   26.2560 N   0  0  0  0  0  0  0  0  0  0  0  0
  -27.2050  -32.6530   26.9130 H   0  0  0  0  0  0  0  0  0  0  0  0
  2  1  1  0
  3  1  2  0
  4  5  1  0
  5  9  1  0
  5  2  2  0
  6  4  2  0
  6  3  1  0
  7 10  1  0
  8  9  1  0
  9  7  1  0
 11 33  1  0
 13 12  1  0
 13 14  1  0
 15 14  2  0
 15 24  1  0
 16 17  1  1
 16 22  1  0
 19 20  1  0
 19 18  1  0
 21 16  1  0
 23 16  1  0
 24 25  1  0
 26 29  1  0
 27 26  2  0
 27 28  1  0
 28 31  1  0
 28 30  2  0
 29 20  1  0
 29 30  1  0
 31 32  1  0
 34 35  1  0
 34 11  1  0
 36 35  1  0
 36 31  2  0
 37 34  1  0
 37 38  1  0
 38 39  2  0
 38 43  1  0
 39 40  1  0
 40 41  2  0
 41 45  1  0
 42 41  1  0
 43 42  2  0
 44 43  1  0
 46 47  1  0
 46 27  1  0
 47 49  1  0
 48 46  2  0
 50 47  1  0
 51 53  1  0
 51 26  1  0
 52 51  1  0
 54  6  1  0
 55 54  1  0
 57 56  1  0
 57 59  1  0
 58 69  2  0
 59 64  1  0
 60 70  1  0
 60 68  1  0
 61 67  1  0
 61 63  1  0
 62 68  1  0
 63 62  1  0
 64 63  2  0
 65 66  1  0
 65 59  2  0
 66 61  2  0
 67 60  1  0
 68 58  1  0
 70 72  2  0
 71 70  1  0
 73 71  1  0
 74 83  2  0
 74 79  1  0
 75 71  1  0
 75 79  1  0
 76 75  1  0
 77 78  1  0
 77 76  1  0
 78 74  1  0
 79 80  2  0
 80 81  1  0
 82 81  2  0
 83 82  1  0
 84 58  1  0
 84 85  1  0
 84 89  1  0
 85 86  1  1
 85 88  1  0
 87 85  1  0
 89 90  1  0
 89 92  1  0
 90 94  1  0
 91 90  2  0
 94 93  1  0
 94 96  1  0
 96 97  1  0
 96 95  1  0
M  ISO  4  16 100  24 100  56 101  57 101
M  END
>  <TORSDO>  (61) 
F 25

>  <SCORE>  (61) 
-2.413

>  <name>  (61) 
60

>  <ligand_id>  (61) 
60

>  <original_smiles>  (61) 
[H]c1c([H])c(OC([H])([H])C([H])([H])Oc2c([H])c([H])c3c(c2[H])C([H])([H])N(C(=O)C([H])(N([H])C(=O)C([H])(N([H])C([H])([H])[H])C([H])([H])[H])C(C([H])([H])[H])(C([H])([H])[H])C([H])([H])[H])C([H])(C(=O)N([H])C2([H])c4c([H])c([H])c([H])c([H])c4C([H])([H])C([H])([H])C2([H])[H])C3([H])[H])c([H])c(N(C(=O)C([H])([H])C([H])([H])C([H])([H])C([H])([H])C([H])([H])N([H])C(=O)N2C([H])([H])C([H])([H])C([H])([H])C([H])(n3nc(-c4c([H])c([H])c(Oc5c([H])c([H])c(F)c([H])c5F)c([H])c4[H])c(C(=O)N([H])[H])c3N([H])[H])C2([H])[H])C([H])([H])[H])c1[H]

>  <smiles>  (61) 
[H]c1c([H])c(OC([H])([H])C([H])([H])Oc2c([H])c([H])c3c(c2[H])C([H])([H])N(C(=O)C([H])(N([H])C(=O)C([H])(N([H])C([H])([H])[H])C([H])([H])[H])C(C([H])([H])[H])(C([H])([H])[H])C([H])([H])[H])C([H])(C(=O)N([H])C2([H])c4c([H])c([H])c([H])c([H])c4C([H])([H])C([H])([H])C2([H])[H])C3([H])[H])c([H])c(N(C(=O)C([H])([H])C([H])([H])C([H])([H])C([H])([H])C([H])([H])N([H])C(=O)N2C([H])([H])C([H])([H])C([H])([H])C([H])(n3nc(-c4c([H])c([H])c(Oc5c([H])c([H])c(F)c([H])c5F)c([H])c4[H])c(C(=O)N([H])[H])c3N([H])[H])C2([H])[H])C([H])([H])[H])c1[H]

$$$$
61:0:0
     RDKit          3D

 98 98  0  0  1  0  0  0  0  0999 V2000
  -28.2350  -17.6900   21.1570 C   0  0  0  0  0  3  0  0  0  0  0  0
  -30.3630  -19.0740   20.0530 O   0  0  0  0  0  0  0  0  0  0  0  0
  -28.4580  -18.4920   18.5190 O   0  0  0  0  0  0  0  0  0  0  0  0
  -28.9090  -18.9900   19.8210 S   0  0  1  0  0  0  0  0  0  0  0  0
  -28.3000  -20.7370   19.8680 N   0  0  0  0  0  0  0  0  0  0  0  0
  -27.9370  -20.9040   18.9260 H   0  0  0  0  0  0  0  0  0  0  0  0
  -29.1810  -21.9980   20.2150 C   0  0  0  0  0  2  0  0  0  0  0  0
  -28.9780  -23.4170   19.3900 C   0  0  0  0  0  2  0  0  0  0  0  0
  -30.2880  -24.4020   19.1860 C   0  0  0  0  0  2  0  0  0  0  0  0
  -30.6890  -25.7970   19.6700 O   0  0  0  0  0  0  0  0  0  0  0  0
  -25.9460  -27.8540   24.4810 C   0  0  0  0  0  0  0  0  0  0  0  0
  -29.7780  -26.7970   19.9820 C   0  0  0  0  0  0  0  0  0  0  0  0
  -25.5500  -28.5410   22.1510 C   0  0  0  0  0  3  0  0  0  0  0  0
  -27.5490  -28.4270   20.5760 C   0  0  0  0  0  0  0  0  0  0  0  0
  -27.9530  -28.3570   23.0380 C   0  0  0  0  0  2  0  0  0  0  0  0
  -28.3930  -28.0160   21.6180 C   0  0  0  0  0  0  0  0  0  0  0  0
  -29.5510  -27.2410   21.3200 C   0  0  0  0  0  3  0  0  0  0  0  0
  -28.9980  -27.3340   18.9540 C   0  0  0  0  0  3  0  0  0  0  0  0
  -27.8810  -28.1330   19.2410 C   0  0  0  0  0  3  0  0  0  0  0  0
  -26.2840  -29.1670   20.9380 C   0  0  0  0  0  2  0  0  0  0  0  0
  -26.4850  -28.2120   23.2740 N   0  0  0  0  0  0  0  0  0  0  0  0
  -24.7190  -27.8250   24.6630 O   0  0  0  0  0  0  0  0  0  0  0  0
  -24.7320  -27.3200   21.6610 C   0  0  0  0  0  0  0  0  0  0  0  0
  -23.8700  -27.5360   20.6530 N   0  0  0  0  0  0  0  0  0  0  0  0
  -24.8870  -26.2080   22.1690 O   0  0  0  0  0  0  0  0  0  0  0  0
  -23.7830  -28.4810   20.3080 H   0  0  0  0  0  0  0  0  0  0  0  0
  -21.9640  -26.8020   17.6600 C   0  0  0  0  0  0  0  0  0  0  0  0
  -23.0340  -26.5260   20.0000 C   0  0  0  0  0  3  0  0  0  0  0  0
  -23.8890  -25.4120   19.3630 C   0  0  0  0  0  2  0  0  0  0  0  0
  -24.2120  -25.6670   17.8910 C   0  0  0  0  0  2  0  0  0  0  0  0
  -22.9280  -25.7900   17.0670 C   0  0  0  0  0  2  0  0  0  0  0  0
  -22.0240  -27.1580   19.0330 C   0  0  0  0  0  0  0  0  0  0  0  0
  -21.1260  -28.1280   19.5260 C   0  0  0  0  0  3  0  0  0  0  0  0
  -20.1770  -28.7310   18.6810 C   0  0  0  0  0  3  0  0  0  0  0  0
  -20.1160  -28.3660   17.3250 C   0  0  0  0  0  3  0  0  0  0  0  0
  -21.0030  -27.3990   16.8180 C   0  0  0  0  0  3  0  0  0  0  0  0
  -26.8550  -27.4820   25.6940 C   0  0  0  0  0  3  0  0  0  0  0  0
  -26.3540  -28.2210   26.8650 N   0  0  0  0  0  0  0  0  0  0  0  0
  -27.0450  -29.1610   27.5250 C   0  0  0  0  0  0  0  0  0  0  0  0
  -28.2140  -29.4480   27.2470 O   0  0  0  0  0  0  0  0  0  0  0  0
  -25.3880  -28.0740   27.1190 H   0  0  0  0  0  0  0  0  0  0  0  0
  -25.9560  -31.3170   28.2230 C   0  0  0  0  0  1  0  0  0  0  0  0
  -26.3290  -29.8970   28.6760 C   0  0  0  0  0  3  0  0  0  0  0  0
  -27.2990  -28.6670   30.5670 C   0  0  0  0  0  1  0  0  0  0  0  0
  -27.1300  -29.9650   29.9180 N   0  0  0  0  0  0  0  0  0  0  0  0
  -26.7050  -30.6010   30.5880 H   0  0  0  0  0  0  0  0  0  0  0  0
  -26.8930  -25.9330   26.0000 C   0  0  1  0  0  0  0  0  0  0  0  0
  -25.4950  -25.2870   26.1350 C   0  0  0  0  0  1  0  0  0  0  0  0
  -27.6530  -25.1800   24.8840 C   0  0  0  0  0  1  0  0  0  0  0  0
  -27.6620  -25.6740   27.3190 C   0  0  0  0  0  1  0  0  0  0  0  0
  -28.8680  -16.1430   21.0670 C   0  0  0  0  0  3  0  0  0  0  0  0
  -28.7960  -14.8370   22.1360 C   0  0  0  0  0  2  0  0  0  0  0  0
  -28.9810  -13.2300   21.6780 C   0  0  0  0  0  2  0  0  0  0  0  0
  -30.0940  -11.9070   21.3640 C   0  0  0  0  0  2  0  0  0  0  0  0
  -30.7060  -11.1640   19.8410 C   0  0  0  0  0  2  0  0  0  0  0  0
  -32.0070  -11.5090   18.5940 C   0  0  0  0  0  3  0  0  0  0  0  0
  -33.8180  -11.3980   18.4340 C   0  0  0  0  0  3  0  0  0  0  0  0
  -35.4230  -10.4570   20.6590 C   0  0  0  0  0  1  0  0  0  0  0  0
  -35.0560  -10.6630   19.2530 N   0  0  0  0  0  0  0  0  0  0  0  0
  -33.9210  -11.1700   22.6020 O   0  0  0  0  0 15  0  0  0  0  0  0
  -35.7990  -10.3720   18.6310 H   0  0  0  0  0  0  0  0  0  0  0  0
  -37.3730  -10.1150   21.0280 C   0  0  0  0  0 15  0  0  0  0  0  0
  -38.5510   -9.6620   22.5640 C   0  0  0  0  0  2  0  0  0  0  0  0
  -38.4190   -7.3590   23.2430 C   0  0  0  0  0  2  0  0  0  0  0  0
  -37.7520   -7.1150   21.8960 C   0  0  0  0  0  2  0  0  0  0  0  0
  -36.3670   -7.8000   21.9790 C   0  0  0  0  0  2  0  0  0  0  0  0
  -36.1800   -8.9760   23.1480 C   0  0  0  0  0  0  0  0  0  0  0  0
  -37.0140   -8.9810   24.2910 C   0  0  0  0  0  2  0  0  0  0  0  0
  -38.2020   -8.7710   23.5480 N   0  0  0  0  0  0  0  0  0  0  0  0
  -39.7340   -9.8950   22.9220 O   0  0  0  0  0  1  0  0  0  0  0  0
  -35.5720  -12.0880   21.8870 C   0  0  0  0  0  3  0  0  0  0  0  0
  -34.0040  -12.1750   20.7520 C   0  0  0  0  0  3  0  0  0  0  0  0
  -32.9370  -10.2900   20.9110 C   0  0  0  0  0  1  0  0  0  0  0  0
  -35.5120  -10.0270   22.8650 N   0  0  0  0  0  2  0  0  0  0  0  0
  -33.8830   -9.0940   22.1070 N   0  0  0  0  0 15  0  0  0  0  0  0
  -31.6530   -9.6930   20.8850 C   0  0  0  0  0  0  0  0  0  0  0  0
  -30.7760   -9.8870   21.9690 C   0  0  0  0  0  3  0  0  0  0  0  0
  -29.4940   -9.3360   21.8800 C   0  0  0  0  0  3  0  0  0  0  0  0
  -29.0900   -8.7360   20.6610 C   0  0  0  0  0  0  0  0  0  0  0  0
  -30.0040   -8.5020   19.6420 C   0  0  0  0  0  3  0  0  0  0  0  0
  -31.3180   -8.8210   19.8690 C   0  0  0  0  0  3  0  0  0  0  0  0
  -27.8620   -8.2390   20.3770 O   0  0  0  0  0  0  0  0  0  0  0  0
  -26.7660   -8.7390   20.9870 C   0  0  0  0  0  0  0  0  0  0  0  0
  -26.2010   -9.9710   20.5980 C   0  0  0  0  0  3  0  0  0  0  0  0
  -25.0150  -10.4020   21.2100 C   0  0  0  0  0  3  0  0  0  0  0  0
  -24.3910   -9.5920   22.1770 C   0  0  0  0  0  0  0  0  0  0  0  0
  -24.9590   -8.3600   22.5490 C   0  0  0  0  0  3  0  0  0  0  0  0
  -26.1520   -7.9360   21.9590 C   0  0  0  0  0  0  0  0  0  0  0  0
  -26.7050   -6.7420   22.2950 F   0  0  0  0  0  0  0  0  0  0  0  0
  -23.2360   -9.9960   22.7450 F   0  0  0  0  0  0  0  0  0  0  0  0
  -33.9320  -13.2770   19.7230 C   0  0  0  0  0  0  0  0  0  0  0  0
  -32.8660  -13.8450   19.2160 N   0  0  0  0  0  0  0  0  0  0  0  0
  -34.9200  -13.7150   19.2530 O   0  0  0  0  0  0  0  0  0  0  0  0
  -31.9570  -13.5350   19.5320 H   0  0  0  0  0  0  0  0  0  0  0  0
  -32.9760  -14.5980   18.5590 H   0  0  0  0  0  0  0  0  0  0  0  0
  -36.7120  -12.7870   21.5950 N   0  0  0  0  0  0  0  0  0  0  0  0
  -36.7160  -13.6190   21.0190 H   0  0  0  0  0  0  0  0  0  0  0  0
  -37.5890  -12.6410   22.0780 H   0  0  0  0  0  0  0  0  0  0  0  0
  3  4  2  0
  4  5  1  1
  4  2  2  0
  4  1  1  0
  5  7  1  0
  6  5  1  0
  8  7  1  0
  9  8  1  0
  9 10  1  0
 10 12  1  0
 11 22  2  0
 12 17  1  0
 13 23  1  0
 13 21  1  0
 14 20  1  0
 14 16  1  0
 15 21  1  0
 16 15  1  0
 17 16  2  0
 18 19  1  0
 18 12  2  0
 19 14  2  0
 20 13  1  0
 21 11  1  0
 23 25  2  0
 24 23  1  0
 26 24  1  0
 27 32  1  0
 28 24  1  0
 29 28  1  0
 30 29  1  0
 31 27  1  0
 31 30  1  0
 32 33  2  0
 32 28  1  0
 34 33  1  0
 35 34  2  0
 36 35  1  0
 36 27  2  0
 37 11  1  0
 37 47  1  0
 37 38  1  0
 38 41  1  0
 38 39  1  0
 39 43  1  0
 40 39  2  0
 43 42  1  0
 43 45  1  0
 45 44  1  0
 45 46  1  0
 47 48  1  1
 47 50  1  0
 49 47  1  0
 51  1  2  0
 51 52  1  0
 53 52  1  0
 54 53  1  0
 55 54  1  0
 56 55  1  0
 57 56  2  0
 57 59  1  0
 59 58  1  0
 61 59  1  0
 63 70  1  0
 63 69  1  0
 64 69  1  0
 65 66  1  0
 65 64  1  0
 66 67  1  0
 67 68  1  0
 69 68  1  0
 72 71  2  0
 74 67  2  0
 76 73  1  0
 76 77  1  0
 78 77  2  0
 79 78  1  0
 80 81  1  0
 80 79  2  0
 81 76  2  0
 82 79  1  0
 82 83  1  0
 83 88  1  0
 84 83  2  0
 84 85  1  0
 85 86  2  0
 86 87  1  0
 86 90  1  0
 88 89  1  0
 88 87  2  0
 91 72  1  0
 92 94  1  0
 92 91  1  0
 93 91  2  0
 95 92  1  0
 96 71  1  0
 96 98  1  0
 97 96  1  0
M  ISO  4   9 101  10 101  62 100  63 100
M  END
>  <TORSDO>  (62) 
F 30

>  <SCORE>  (62) 
3.451

>  <name>  (62) 
61

>  <ligand_id>  (62) 
61

>  <original_smiles>  (62) 
[H]c1c([H])c([H])c2c(c1[H])C([H])([H])C([H])([H])C([H])([H])C2([H])N([H])C(=O)C1([H])N(C(=O)C([H])(N([H])C(=O)C([H])(N([H])C([H])([H])[H])C([H])([H])[H])C(C([H])([H])[H])(C([H])([H])[H])C([H])([H])[H])C([H])([H])c2c([H])c(OC([H])([H])C([H])([H])C([H])([H])N([H])S(=O)(=O)C([H])([H])C([H])([H])C([H])([H])C([H])([H])C([H])([H])C([H])([H])C([H])([H])C([H])([H])N([H])C(=O)C([H])([H])C(=O)N3C([H])([H])C([H])([H])C([H])([H])C([H])(n4nc(-c5c([H])c([H])c(Oc6c([H])c([H])c(F)c([H])c6F)c([H])c5[H])c(C(=O)N([H])[H])c4N([H])[H])C3([H])[H])c([H])c([H])c2C1([H])[H]

>  <smiles>  (62) 
[H]c1c([H])c([H])c2c(c1[H])C([H])([H])C([H])([H])C([H])([H])C2([H])N([H])C(=O)C1([H])N(C(=O)C([H])(N([H])C(=O)C([H])(N([H])C([H])([H])[H])C([H])([H])[H])C(C([H])([H])[H])(C([H])([H])[H])C([H])([H])[H])C([H])([H])c2c([H])c(OC([H])([H])C([H])([H])C([H])([H])N([H])S(=O)(=O)C([H])([H])C([H])([H])C([H])([H])C([H])([H])C([H])([H])C([H])([H])C([H])([H])C([H])([H])N([H])C(=O)C([H])([H])C(=O)N3C([H])([H])C([H])([H])C([H])([H])C([H])(n4nc(-c5c([H])c([H])c(Oc6c([H])c([H])c(F)c([H])c6F)c([H])c5[H])c(C(=O)N([H])[H])c4N([H])[H])C3([H])[H])c([H])c([H])c2C1([H])[H]

$$$$
62:0:0
     RDKit          3D

 94101  0  0  1  0  0  0  0  0999 V2000
  -27.1070  -22.2610   18.6220 C   0  0  0  0  0  0  0  0  0  0  0  0
  -24.8130  -21.6070   19.2980 C   0  0  0  0  0  1  0  0  0  0  0  0
  -26.1080  -21.3490   18.6610 N   0  0  0  0  0  0  0  0  0  0  0  0
  -28.0640  -22.1700   17.8460 O   0  0  0  0  0  0  0  0  0  0  0  0
  -27.0940  -23.3870   19.6650 C   0  0  0  0  0  2  0  0  0  0  0  0
  -28.2240  -24.4250   19.5000 C   0  0  0  0  0  2  0  0  0  0  0  0
  -28.2710  -25.4150   20.6780 C   0  0  0  0  0  2  0  0  0  0  0  0
  -28.3440  -26.7750   20.2610 O   0  0  0  0  0  0  0  0  0  0  0  0
  -24.5160  -31.8700   23.4060 C   0  0  0  0  0  0  0  0  0  0  0  0
  -27.1610  -27.4750   20.2800 C   0  0  0  0  0  0  0  0  0  0  0  0
  -23.3160  -30.5060   21.7270 C   0  0  0  0  0  3  0  0  0  0  0  0
  -24.7700  -28.9740   20.3050 C   0  0  0  0  0  0  0  0  0  0  0  0
  -25.8450  -30.8480   21.5650 C   0  0  0  0  0  2  0  0  0  0  0  0
  -25.9250  -29.4870   20.9090 C   0  0  0  0  0  0  0  0  0  0  0  0
  -27.1240  -28.7450   20.8920 C   0  0  0  0  0  3  0  0  0  0  0  0
  -25.9890  -26.9680   19.6760 C   0  0  0  0  0  3  0  0  0  0  0  0
  -24.7950  -27.7110   19.6900 C   0  0  0  0  0  3  0  0  0  0  0  0
  -23.5350  -29.8420   20.3420 C   0  0  0  0  0  2  0  0  0  0  0  0
  -24.5760  -31.0870   22.2920 N   0  0  0  0  0  0  0  0  0  0  0  0
  -23.4300  -32.1440   23.9380 O   0  0  0  0  0  0  0  0  0  0  0  0
  -22.6420  -29.4770   22.6630 C   0  0  0  0  0  0  0  0  0  0  0  0
  -21.3170  -29.3130   22.5140 N   0  0  0  0  0  0  0  0  0  0  0  0
  -23.3080  -28.8320   23.4770 O   0  0  0  0  0  0  0  0  0  0  0  0
  -20.8460  -29.8810   21.8240 H   0  0  0  0  0  0  0  0  0  0  0  0
  -17.9200  -28.1590   22.9490 C   0  0  0  0  0  0  0  0  0  0  0  0
  -20.4780  -28.3740   23.2600 C   0  0  0  0  0  3  0  0  0  0  0  0
  -20.5690  -26.9510   22.6620 C   0  0  0  0  0  2  0  0  0  0  0  0
  -19.4770  -26.6610   21.6290 C   0  0  0  0  0  2  0  0  0  0  0  0
  -18.0870  -26.8190   22.2540 C   0  0  0  0  0  2  0  0  0  0  0  0
  -19.0440  -28.8970   23.4080 C   0  0  0  0  0  0  0  0  0  0  0  0
  -18.8380  -30.1540   24.0160 C   0  0  0  0  0  3  0  0  0  0  0  0
  -17.5400  -30.6740   24.1700 C   0  0  0  0  0  3  0  0  0  0  0  0
  -16.4290  -29.9320   23.7320 C   0  0  0  0  0  3  0  0  0  0  0  0
  -16.6200  -28.6770   23.1280 C   0  0  0  0  0  3  0  0  0  0  0  0
  -25.8010  -32.4770   24.0510 C   0  0  0  0  0  3  0  0  0  0  0  0
  -26.2920  -31.6830   25.3220 C   0  0  1  0  0  0  0  0  0  0  0  0
  -25.1820  -31.4400   26.3700 C   0  0  0  0  0  1  0  0  0  0  0  0
  -26.8680  -30.3080   24.9160 C   0  0  0  0  0  1  0  0  0  0  0  0
  -27.4430  -32.4560   26.0100 C   0  0  0  0  0  1  0  0  0  0  0  0
  -25.5070  -33.8750   24.3930 N   0  0  0  0  0  0  0  0  0  0  0  0
  -25.8640  -34.9310   23.6520 C   0  0  0  0  0  0  0  0  0  0  0  0
  -26.5520  -34.8320   22.6310 O   0  0  0  0  0  0  0  0  0  0  0  0
  -24.9060  -34.0280   25.1900 H   0  0  0  0  0  0  0  0  0  0  0  0
  -24.1690  -36.7490   23.2800 C   0  0  0  0  0  1  0  0  0  0  0  0
  -25.3850  -36.3200   24.1160 C   0  0  0  0  0  3  0  0  0  0  0  0
  -27.5130  -37.1610   25.0050 C   0  0  0  0  0  1  0  0  0  0  0  0
  -26.4350  -37.3600   24.0400 N   0  0  0  0  0  0  0  0  0  0  0  0
  -26.0370  -38.2830   24.1940 H   0  0  0  0  0  0  0  0  0  0  0  0
  -26.2350  -20.0140   18.0660 C   0  0  0  0  0  2  0  0  0  0  0  0
  -26.6350  -18.9690   19.1260 C   0  0  0  0  0  2  0  0  0  0  0  0
  -28.0390  -19.1670   19.7370 C   0  0  0  0  0  2  0  0  0  0  0  0
  -28.3240  -18.1370   20.8460 C   0  0  0  0  0  2  0  0  0  0  0  0
  -29.8190  -17.8620   21.1440 C   0  0  0  0  0  2  0  0  0  0  0  0
  -30.1280  -16.3510   21.3440 C   0  0  0  0  0  2  0  0  0  0  0  0
  -31.6290  -14.5870   20.5590 C   0  0  0  0  0  0  0  0  0  0  0  0
  -31.3890  -12.2810   19.7350 C   0  0  0  0  0  2  0  0  0  0  0  0
  -30.5220  -12.2840   18.4560 C   0  0  0  0  0  2  0  0  0  0  0  0
  -29.0130  -12.2690   18.7790 C   0  0  0  0  0  2  0  0  0  0  0  0
  -28.6070  -13.2870   19.8770 C   0  0  0  0  0  3  0  0  0  0  0  0
  -29.5830  -13.1780   21.0730 C   0  0  0  0  0  2  0  0  0  0  0  0
  -30.9450  -13.4070   20.5630 N   0  0  0  0  0  0  0  0  0  0  0  0
  -32.8520  -14.6330   20.3900 O   0  0  0  0  0  0  0  0  0  0  0  0
  -30.7300  -16.0390   18.9390 C   0  0  0  0  0  0  0  0  0  0  0  0
  -31.8910  -15.9050   17.9410 C   0  0  0  0  0  1  0  0  0  0  0  0
  -30.8640  -15.6650   20.2460 N   0  0  0  0  0  0  0  0  0  0  0  0
  -29.6820  -16.5120   18.4960 O   0  0  0  0  0  0  0  0  0  0  0  0
  -26.2110  -14.0780   20.3710 C   0  0  0  0  0  0  0  0  0  0  0  0
  -25.0690  -13.3920   20.6830 C   0  0  0  0  0  0  0  0  0  0  0  0
  -25.4440  -12.0170   20.7440 C   0  0  0  0  0  0  0  0  0  0  0  0
  -27.2130  -13.1250   20.2710 N   0  0  0  0  0  0  0  0  0  0  0  0
  -26.7490  -11.8830   20.5480 N   0  0  0  0  0  0  0  0  0  0  0  0
  -24.6280  -10.8110   20.9160 C   0  0  0  0  0  0  0  0  0  0  0  0
  -24.9310   -9.8500   21.9040 C   0  0  0  0  0  3  0  0  0  0  0  0
  -24.1190   -8.7070   22.0640 C   0  0  0  0  0  3  0  0  0  0  0  0
  -22.9890   -8.5200   21.2320 C   0  0  0  0  0  0  0  0  0  0  0  0
  -22.7070   -9.4660   20.2320 C   0  0  0  0  0  3  0  0  0  0  0  0
  -23.5210  -10.6010   20.0700 C   0  0  0  0  0  3  0  0  0  0  0  0
  -22.1560   -7.4310   21.3000 O   0  0  0  0  0  0  0  0  0  0  0  0
  -21.9650   -6.7440   22.4720 C   0  0  0  0  0  0  0  0  0  0  0  0
  -21.4910   -7.3820   23.6380 C   0  0  0  0  0  3  0  0  0  0  0  0
  -21.2420   -6.6260   24.8000 C   0  0  0  0  0  3  0  0  0  0  0  0
  -21.4560   -5.2350   24.7970 C   0  0  0  0  0  0  0  0  0  0  0  0
  -21.9250   -4.5970   23.6350 C   0  0  0  0  0  3  0  0  0  0  0  0
  -22.1770   -5.3500   22.4750 C   0  0  0  0  0  0  0  0  0  0  0  0
  -22.6070   -4.7290   21.3510 F   0  0  0  0  0  0  0  0  0  0  0  0
  -21.2080   -4.5070   25.9120 F   0  0  0  0  0  0  0  0  0  0  0  0
  -23.6900  -13.9690   20.8260 C   0  0  0  0  0  0  0  0  0  0  0  0
  -22.8590  -13.3660   21.6720 N   0  0  0  0  0  0  0  0  0  0  0  0
  -23.3580  -14.9910   20.2270 O   0  0  0  0  0  0  0  0  0  0  0  0
  -23.1370  -12.5390   22.1780 H   0  0  0  0  0  0  0  0  0  0  0  0
  -21.9320  -13.7390   21.8220 H   0  0  0  0  0  0  0  0  0  0  0  0
  -26.4680  -15.4220   20.1370 N   0  0  0  0  0  0  0  0  0  0  0  0
  -25.7270  -16.1130   20.1430 H   0  0  0  0  0  0  0  0  0  0  0  0
  -27.3590  -15.7960   19.8280 H   0  0  0  0  0  0  0  0  0  0  0  0
  1  3  1  0
  1  5  1  0
  3  2  1  0
  4  1  2  0
  6  5  1  0
  6  7  1  0
  8 10  1  0
  8  7  1  0
  9 20  2  0
 10 15  1  0
 11 19  1  0
 11 21  1  0
 12 18  1  0
 12 14  1  0
 13 19  1  0
 14 13  1  0
 15 14  2  0
 16 17  1  0
 16 10  2  0
 17 12  2  0
 18 11  1  0
 19  9  1  0
 21 23  2  0
 22 21  1  0
 24 22  1  0
 25 34  2  0
 25 30  1  0
 26 22  1  0
 26 30  1  0
 27 26  1  0
 28 29  1  0
 28 27  1  0
 29 25  1  0
 30 31  2  0
 31 32  1  0
 33 32  2  0
 34 33  1  0
 35  9  1  0
 35 40  1  0
 35 36  1  0
 36 39  1  1
 36 37  1  0
 38 36  1  0
 40 43  1  0
 41 45  1  0
 41 40  1  0
 42 41  2  0
 45 44  1  0
 47 45  1  0
 47 48  1  0
 47 46  1  0
 49  3  1  0
 49 50  1  0
 50 51  1  0
 51 52  1  0
 52 53  1  0
 53 54  1  0
 55 61  1  0
 56 61  1  0
 57 58  1  0
 57 56  1  0
 59 58  1  0
 59 70  1  0
 59 60  1  0
 61 60  1  0
 62 55  2  0
 63 65  1  0
 64 63  1  0
 65 55  1  0
 65 54  1  0
 66 63  2  0
 67 68  2  0
 68 69  1  0
 68 87  1  0
 69 72  1  0
 70 67  1  0
 70 71  1  0
 71 69  2  0
 72 73  1  0
 73 74  2  0
 75 78  1  0
 75 74  1  0
 76 75  2  0
 77 76  1  0
 77 72  2  0
 78 79  1  0
 79 84  2  0
 79 80  1  0
 80 81  2  0
 82 81  1  0
 82 86  1  0
 83 82  2  0
 84 83  1  0
 85 84  1  0
 87 88  1  0
 88 91  1  0
 88 90  1  0
 89 87  2  0
 92 93  1  0
 92 67  1  0
 94 92  1  0
M  ISO  4   7 101   8 101  55 100  65 100
M  END
>  <TORSDO>  (63) 
F 25

>  <SCORE>  (63) 
-10.392

>  <name>  (63) 
62

>  <ligand_id>  (63) 
62

>  <original_smiles>  (63) 
[H]c1c([H])c([H])c2c(c1[H])C([H])([H])C([H])([H])C([H])([H])C2([H])N([H])C(=O)C1([H])N(C(=O)C([H])(N([H])C(=O)C([H])(N([H])C([H])([H])[H])C([H])([H])[H])C(C([H])([H])[H])(C([H])([H])[H])C([H])([H])[H])C([H])([H])c2c([H])c(OC([H])([H])C([H])([H])C([H])([H])C(=O)N(C([H])([H])[H])C([H])([H])C([H])([H])C([H])([H])C([H])([H])C([H])([H])C([H])([H])N(C(=O)N3C([H])([H])C([H])([H])C([H])([H])C([H])(n4nc(-c5c([H])c([H])c(Oc6c([H])c([H])c(F)c([H])c6F)c([H])c5[H])c(C(=O)N([H])[H])c4N([H])[H])C3([H])[H])C(=O)C([H])([H])[H])c([H])c([H])c2C1([H])[H]

>  <smiles>  (63) 
[H]c1c([H])c([H])c2c(c1[H])C([H])([H])C([H])([H])C([H])([H])C2([H])N([H])C(=O)C1([H])N(C(=O)C([H])(N([H])C(=O)C([H])(N([H])C([H])([H])[H])C([H])([H])[H])C(C([H])([H])[H])(C([H])([H])[H])C([H])([H])[H])C([H])([H])c2c([H])c(OC([H])([H])C([H])([H])C([H])([H])C(=O)N(C([H])([H])[H])C([H])([H])C([H])([H])C([H])([H])C([H])([H])C([H])([H])C([H])([H])N(C(=O)N3C([H])([H])C([H])([H])C([H])([H])C([H])(n4nc(-c5c([H])c([H])c(Oc6c([H])c([H])c(F)c([H])c6F)c([H])c5[H])c(C(=O)N([H])[H])c4N([H])[H])C3([H])[H])C(=O)C([H])([H])[H])c([H])c([H])c2C1([H])[H]

$$$$
63:0:0
     RDKit          3D

109111  0  0  1  0  0  0  0  0999 V2000
  -24.7240  -15.8590   25.3060 C   0  0  0  0  0  3  0  0  0  0  0  0
  -26.2220  -16.2060   25.0290 C   0  0  0  0  0  2  0  0  0  0  0  0
  -26.7730  -17.4120   25.8460 C   0  0  0  0  0  2  0  0  0  0  0  0
  -28.1270  -18.0020   25.3540 C   0  0  0  0  0  2  0  0  0  0  0  0
  -28.5120  -19.3730   25.9840 C   0  0  0  0  0  2  0  0  0  0  0  0
  -29.4580  -20.2120   25.0960 C   0  0  0  0  0  2  0  0  0  0  0  0
  -29.5510  -21.7130   25.4590 C   0  0  0  0  0  2  0  0  0  0  0  0
  -30.4270  -22.5100   24.4610 C   0  0  0  0  0  2  0  0  0  0  0  0
  -30.2290  -24.0490   24.4930 C   0  0  0  0  0  2  0  0  0  0  0  0
  -29.2360  -25.1070   22.4300 C   0  0  0  0  0  0  0  0  0  0  0  0
  -29.1350  -24.4440   23.5960 N   0  0  0  0  0  0  0  0  0  0  0  0
  -30.2820  -25.6500   22.0520 O   0  0  0  0  0  0  0  0  0  0  0  0
  -28.2190  -24.0930   23.8400 H   0  0  0  0  0  0  0  0  0  0  0  0
  -27.9720  -25.1310   21.5470 C   0  0  0  0  0  2  0  0  0  0  0  0
  -28.0440  -26.1730   20.5520 O   0  0  0  0  0  0  0  0  0  0  0  0
  -24.4000  -31.6790   23.0680 C   0  0  0  0  0  0  0  0  0  0  0  0
  -26.9030  -26.9350   20.4250 C   0  0  0  0  0  0  0  0  0  0  0  0
  -23.1480  -30.2100   21.5180 C   0  0  0  0  0  3  0  0  0  0  0  0
  -24.5580  -28.5040   20.2380 C   0  0  0  0  0  0  0  0  0  0  0  0
  -25.6810  -30.4640   21.3140 C   0  0  0  0  0  2  0  0  0  0  0  0
  -25.7200  -29.0410   20.7990 C   0  0  0  0  0  0  0  0  0  0  0  0
  -26.9000  -28.2670   20.8800 C   0  0  0  0  0  3  0  0  0  0  0  0
  -25.7300  -26.3990   19.8580 C   0  0  0  0  0  3  0  0  0  0  0  0
  -24.5590  -27.1730   19.7660 C   0  0  0  0  0  3  0  0  0  0  0  0
  -23.3370  -29.4000   20.2010 C   0  0  0  0  0  2  0  0  0  0  0  0
  -24.4280  -30.8030   22.0240 N   0  0  0  0  0  0  0  0  0  0  0  0
  -23.3280  -32.0360   23.5790 O   0  0  0  0  0  0  0  0  0  0  0  0
  -22.4420  -29.3050   22.5530 C   0  0  0  0  0  0  0  0  0  0  0  0
  -21.1100  -29.1830   22.4250 N   0  0  0  0  0  0  0  0  0  0  0  0
  -23.0840  -28.7080   23.4200 O   0  0  0  0  0  0  0  0  0  0  0  0
  -20.6550  -29.7050   21.6890 H   0  0  0  0  0  0  0  0  0  0  0  0
  -17.6770  -28.2130   22.9850 C   0  0  0  0  0  0  0  0  0  0  0  0
  -20.2430  -28.3480   23.2550 C   0  0  0  0  0  3  0  0  0  0  0  0
  -20.2700  -26.8760   22.7820 C   0  0  0  0  0  2  0  0  0  0  0  0
  -19.1540  -26.5430   21.7860 C   0  0  0  0  0  2  0  0  0  0  0  0
  -17.7810  -26.8110   22.4080 C   0  0  0  0  0  2  0  0  0  0  0  0
  -18.8340  -28.9390   23.3690 C   0  0  0  0  0  0  0  0  0  0  0  0
  -18.6840  -30.2520   23.8670 C   0  0  0  0  0  3  0  0  0  0  0  0
  -17.4080  -30.8340   23.9890 C   0  0  0  0  0  3  0  0  0  0  0  0
  -16.2650  -30.1050   23.6190 C   0  0  0  0  0  3  0  0  0  0  0  0
  -16.4000  -28.7980   23.1210 C   0  0  0  0  0  3  0  0  0  0  0  0
  -25.7110  -32.2910   23.6590 C   0  0  0  0  0  3  0  0  0  0  0  0
  -26.2790  -31.4850   24.8960 C   0  0  1  0  0  0  0  0  0  0  0  0
  -25.2360  -31.2280   26.0090 C   0  0  0  0  0  1  0  0  0  0  0  0
  -26.8340  -30.1120   24.4440 C   0  0  0  0  0  1  0  0  0  0  0  0
  -27.4610  -32.2590   25.5300 C   0  0  0  0  0  1  0  0  0  0  0  0
  -25.4150  -33.6780   24.0380 N   0  0  0  0  0  0  0  0  0  0  0  0
  -25.7500  -34.7530   23.3100 C   0  0  0  0  0  0  0  0  0  0  0  0
  -26.4150  -34.6780   22.2730 O   0  0  0  0  0  0  0  0  0  0  0  0
  -24.8250  -33.8100   24.8470 H   0  0  0  0  0  0  0  0  0  0  0  0
  -24.0340  -36.5730   23.0240 C   0  0  0  0  0  1  0  0  0  0  0  0
  -25.2730  -36.1290   23.8140 C   0  0  0  0  0  3  0  0  0  0  0  0
  -27.4210  -36.9760   24.6540 C   0  0  0  0  0  1  0  0  0  0  0  0
  -26.3110  -37.1800   23.7270 N   0  0  0  0  0  0  0  0  0  0  0  0
  -25.9090  -38.0960   23.9120 H   0  0  0  0  0  0  0  0  0  0  0  0
  -24.2370  -14.4550   24.8330 C   0  0  0  0  0  3  0  0  0  0  0  0
  -22.6760  -14.1590   24.8280 C   0  0  0  0  0  2  0  0  0  0  0  0
  -22.3470  -12.6070   24.7600 C   0  0  0  0  0  2  0  0  0  0  0  0
  -21.0490  -11.9280   24.0420 C   0  0  0  0  0  2  0  0  0  0  0  0
  -20.7100  -10.7720   22.9200 C   0  0  0  0  0  0  0  0  0  0  0  0
  -21.3000  -10.0990   21.8420 N   0  0  0  0  0  0  0  0  0  0  0  0
  -19.5500  -10.3830   23.0580 O   0  0  0  0  0  0  0  0  0  0  0  0
  -20.5510   -9.5810   21.4100 H   0  0  0  0  0  0  0  0  0  0  0  0
  -25.8250   -8.9670   19.3080 C   0  0  0  0  0  2  0  0  0  0  0  0
  -24.1790   -8.3900   18.8030 C   0  0  0  0  0  3  0  0  0  0  0  0
  -25.2720  -10.1780   21.5300 C   0  0  0  0  0  1  0  0  0  0  0  0
  -26.4930  -10.0890   20.4980 C   0  0  0  0  0  2  0  0  0  0  0  0
  -22.5650   -9.7850   21.1010 C   0  0  0  0  0  2  0  0  0  0  0  0
  -22.5490   -8.8330   19.5080 C   0  0  0  0  0  0  0  0  0  0  0  0
  -29.2730  -12.5020   21.2690 C   0  0  2  0  0  0  0  0  0  0  0  0
  -30.4610  -11.7580   20.5610 C   0  0  0  0  0  1  0  0  0  0  0  0
  -29.8200  -12.6230   18.9960 C   0  0  0  0  0  1  0  0  0  0  0  0
  -28.2830  -13.5080   19.1560 C   0  0  0  0  0  2  0  0  0  0  0  0
  -27.6490  -14.0470   20.7500 C   0  0  0  0  0  2  0  0  0  0  0  0
  -28.3450  -13.1730   22.2760 C   0  0  0  0  0  1  0  0  0  0  0  0
  -29.7430  -12.1960   22.1020 N   0  0  0  0  0  1  0  0  0  0  0  0
  -30.0880  -13.8020   21.1440 O   0  0  0  0  0  1  0  0  0  0  0  0
  -28.0510  -11.2870   20.6230 N   0  0  0  0  0  1  0  0  0  0  0  0
  -28.2090  -11.5310   19.6560 H   0  0  0  0  0  0  0  0  0  0  0  0
  -25.2710  -14.8420   20.7700 C   0  0  0  0  0  0  0  0  0  0  0  0
  -24.1200  -14.2380   21.1630 C   0  0  0  0  0  0  0  0  0  0  0  0
  -24.4860  -13.0600   21.7890 C   0  0  0  0  0  0  0  0  0  0  0  0
  -26.2580  -13.9470   20.9510 N   0  0  0  0  0  0  0  0  0  0  0  0
  -25.7960  -12.9000   21.5970 N   0  0  0  0  0  0  0  0  0  0  0  0
  -23.5580  -11.9700   22.0260 C   0  0  0  0  0  3  0  0  0  0  0  0
  -23.5690  -10.8470   23.3360 C   0  0  0  0  0  3  0  0  0  0  0  0
  -23.8280   -9.2150   23.2680 C   0  0  0  0  0  3  0  0  0  0  0  0
  -24.1320   -8.4860   21.8130 C   0  0  0  0  0  2  0  0  0  0  0  0
  -24.1020  -10.2960   19.9370 C   0  0  0  0  0  1  0  0  0  0  0  0
  -23.6500  -11.7000   20.4390 C   0  0  0  0  0  2  0  0  0  0  0  0
  -23.0580   -7.3910   21.9900 O   0  0  0  0  0  0  0  0  0  0  0  0
  -22.1120   -6.9360   23.0110 C   0  0  0  0  0  0  0  0  0  0  0  0
  -21.4900   -7.5950   24.1400 C   0  0  0  0  0  3  0  0  0  0  0  0
  -21.0150   -6.8400   25.2540 C   0  0  0  0  0  3  0  0  0  0  0  0
  -21.0860   -5.4300   25.2360 C   0  0  0  0  0  0  0  0  0  0  0  0
  -21.4150   -4.7930   24.0410 C   0  0  0  0  0  3  0  0  0  0  0  0
  -21.8360   -5.5570   22.9280 C   0  0  0  0  0  0  0  0  0  0  0  0
  -22.0980   -4.9090   21.7720 F   0  0  0  0  0  0  0  0  0  0  0  0
  -20.8600   -4.6990   26.3570 F   0  0  0  0  0  0  0  0  0  0  0  0
  -22.7260  -14.6030   20.8240 C   0  0  0  0  0  0  0  0  0  0  0  0
  -21.7320  -13.9330   21.3790 N   0  0  0  0  0  0  0  0  0  0  0  0
  -22.4980  -15.4780   20.0160 O   0  0  0  0  0  0  0  0  0  0  0  0
  -21.9060  -13.2570   22.1000 H   0  0  0  0  0  0  0  0  0  0  0  0
  -20.7840  -14.1870   21.1470 H   0  0  0  0  0  0  0  0  0  0  0  0
  -25.5550  -16.0860   20.2620 N   0  0  0  0  0  0  0  0  0  0  0  0
  -24.8180  -16.7610   20.0930 H   0  0  0  0  0  0  0  0  0  0  0  0
  -26.4720  -16.4190   19.9990 H   0  0  0  0  0  0  0  0  0  0  0  0
  -20.2650   -9.1540   19.0060 C   0  0  0  0  0  1  0  0  0  0  0  0
  -21.4120   -8.3340   18.9320 O   0  0  0  0  0  0  0  0  0  0  0  0
  2  1  1  0
  2  3  1  0
  4  3  1  0
  4  5  1  0
  6  7  1  0
  6  5  1  0
  8  9  1  0
  8  7  1  0
 10 11  1  0
 11 13  1  0
 11  9  1  0
 12 10  2  0
 14 10  1  0
 15 14  1  0
 16 27  2  0
 17 15  1  0
 17 22  1  0
 18 26  1  0
 18 28  1  0
 19 21  1  0
 20 26  1  0
 21 22  2  0
 21 20  1  0
 23 17  2  0
 24 23  1  0
 24 19  2  0
 25 19  1  0
 25 18  1  0
 26 16  1  0
 28 30  2  0
 29 28  1  0
 31 29  1  0
 32 41  2  0
 32 37  1  0
 33 29  1  0
 33 37  1  0
 34 33  1  0
 35 36  1  0
 35 34  1  0
 36 32  1  0
 37 38  2  0
 38 39  1  0
 40 39  2  0
 41 40  1  0
 42 16  1  0
 42 47  1  0
 42 43  1  0
 43 46  1  1
 43 44  1  0
 45 43  1  0
 47 50  1  0
 48 52  1  0
 48 47  1  0
 49 48  2  0
 52 51  1  0
 54 52  1  0
 54 55  1  0
 54 53  1  0
 56  1  2  0
 57 56  1  0
 58 57  1  0
 59 58  1  0
 60 62  2  0
 60 59  1  0
 61 60  1  0
 63 61  1  0
 64 67  1  0
 65 64  1  0
 65 69  2  0
 67 66  1  0
 68 61  1  0
 69 68  1  0
 70 76  1  0
 70 75  1  1
 71 70  1  0
 72 73  1  0
 73 74  1  0
 74 83  1  0
 77 70  1  0
 79 78  1  0
 80 83  1  0
 80 81  2  0
 81 82  1  0
 82 85  1  0
 83 84  1  0
 84 82  2  0
 85 90  1  0
 85 86  1  0
 87 86  2  0
 88 91  1  0
 88 87  1  0
 89 90  1  0
 91 92  1  0
 92 93  1  0
 93 94  2  0
 95 94  1  0
 95 99  1  0
 96 95  2  0
 97 92  2  0
 97 96  1  0
 98 97  1  0
100 81  1  0
100101  1  0
101103  1  0
102100  2  0
104101  1  0
105 80  1  0
106105  1  0
107105  1  0
109108  1  0
109 69  1  0
M  ISO  4  14 101  15 101  70 100  78 100
M  END
>  <TORSDO>  (64) 
F 33

>  <SCORE>  (64) 
34.324

>  <name>  (64) 
63

>  <ligand_id>  (64) 
63

>  <original_smiles>  (64) 
[H]c1c([H])c([H])c2c(c1[H])C([H])([H])C([H])([H])C([H])([H])C2([H])N([H])C(=O)C1([H])N(C(=O)C([H])(N([H])C(=O)C([H])(N([H])C([H])([H])[H])C([H])([H])[H])C(C([H])([H])[H])(C([H])([H])[H])C([H])([H])[H])C([H])([H])c2c([H])c(OC([H])([H])C(=O)N([H])C([H])([H])C([H])([H])C([H])([H])C([H])([H])C([H])([H])C([H])([H])C([H])([H])C([H])([H])C([H])([H])C([H])([H])C([H])([H])C([H])([H])C([H])([H])C(=O)N([H])c3c([H])c(N([H])C(=O)N4C([H])([H])C([H])([H])C([H])([H])C([H])(n5nc(-c6c([H])c([H])c(Oc7c([H])c([H])c(F)c([H])c7F)c([H])c6[H])c(C(=O)N([H])[H])c5N([H])[H])C4([H])[H])c([H])c([H])c3OC([H])([H])[H])c([H])c([H])c2C1([H])[H]

>  <smiles>  (64) 
[H]c1c([H])c([H])c2c(c1[H])C([H])([H])C([H])([H])C([H])([H])C2([H])N([H])C(=O)C1([H])N(C(=O)C([H])(N([H])C(=O)C([H])(N([H])C([H])([H])[H])C([H])([H])[H])C(C([H])([H])[H])(C([H])([H])[H])C([H])([H])[H])C([H])([H])c2c([H])c(OC([H])([H])C(=O)N([H])C([H])([H])C([H])([H])C([H])([H])C([H])([H])C([H])([H])C([H])([H])C([H])([H])C([H])([H])C([H])([H])C([H])([H])C([H])([H])C([H])([H])C([H])([H])C(=O)N([H])c3c([H])c(N([H])C(=O)N4C([H])([H])C([H])([H])C([H])([H])C([H])(n5nc(-c6c([H])c([H])c(Oc7c([H])c([H])c(F)c([H])c7F)c([H])c6[H])c(C(=O)N([H])[H])c5N([H])[H])C4([H])[H])c([H])c([H])c3OC([H])([H])[H])c([H])c([H])c2C1([H])[H]

$$$$
64:0:0
     RDKit          3D

 90 98  0  0  1  0  0  0  0  0999 V2000
  -27.9590  -19.5900   20.4260 C   0  0  0  0  0  3  0  0  0  0  0  0
  -30.2410  -20.1070   20.1860 C   0  0  0  0  0  3  0  0  0  0  0  0
  -29.5730  -17.6270   20.3250 C   0  0  0  0  0  0  0  0  0  0  0  0
  -28.9080  -20.6500   20.2970 C   0  0  0  0  0  0  0  0  0  0  0  0
  -28.2650  -18.1830   20.4450 C   0  0  0  0  0  0  0  0  0  0  0  0
  -30.5630  -18.6710   20.1940 C   0  0  0  0  0  0  0  0  0  0  0  0
  -27.2360  -17.3130   20.5820 F   0  0  0  0  0  0  0  0  0  0  0  0
  -31.8640  -18.3110   20.0830 F   0  0  0  0  0  0  0  0  0  0  0  0
  -30.5220  -15.0220   20.0730 C   0  0  0  0  0  0  0  0  0  0  0  0
  -30.3880  -12.7040   19.0560 C   0  0  0  0  0  2  0  0  0  0  0  0
  -29.3830  -12.7150   17.8770 C   0  0  0  0  0  2  0  0  0  0  0  0
  -27.9420  -12.4950   18.3760 C   0  0  0  0  0  2  0  0  0  0  0  0
  -27.6010  -13.3710   19.6110 C   0  0  0  0  0  3  0  0  0  0  0  0
  -28.7160  -13.3120   20.6770 C   0  0  0  0  0  2  0  0  0  0  0  0
  -29.9630  -13.7470   20.0290 N   0  0  0  0  0  0  0  0  0  0  0  0
  -31.6900  -15.1580   19.6980 O   0  0  0  0  0  0  0  0  0  0  0  0
  -29.6650  -16.0990   20.3820 N   0  0  0  0  0  0  0  0  0  0  0  0
  -28.7700  -15.7250   20.6540 H   0  0  0  0  0  0  0  0  0  0  0  0
  -25.2510  -13.9190   20.4740 C   0  0  0  0  0  0  0  0  0  0  0  0
  -24.2070  -13.1310   20.8690 C   0  0  0  0  0  0  0  0  0  0  0  0
  -24.6750  -11.7840   20.7770 C   0  0  0  0  0  0  0  0  0  0  0  0
  -26.2880  -13.0550   20.1630 N   0  0  0  0  0  0  0  0  0  0  0  0
  -25.9500  -11.7610   20.4070 N   0  0  0  0  0  0  0  0  0  0  0  0
  -23.9600  -10.5150   20.9640 C   0  0  0  0  0  0  0  0  0  0  0  0
  -24.3980   -9.5510   21.8990 C   0  0  0  0  0  3  0  0  0  0  0  0
  -23.6800   -8.3480   22.0760 C   0  0  0  0  0  3  0  0  0  0  0  0
  -22.5110   -8.1010   21.3160 C   0  0  0  0  0  0  0  0  0  0  0  0
  -22.0920   -9.0540   20.3710 C   0  0  0  0  0  3  0  0  0  0  0  0
  -22.8110  -10.2480   20.1940 C   0  0  0  0  0  3  0  0  0  0  0  0
  -21.7650   -6.9500   21.4010 O   0  0  0  0  0  0  0  0  0  0  0  0
  -21.6570   -6.2480   22.5750 C   0  0  0  0  0  0  0  0  0  0  0  0
  -21.1100   -6.8250   23.7410 C   0  0  0  0  0  3  0  0  0  0  0  0
  -20.9530   -6.0470   24.9050 C   0  0  0  0  0  3  0  0  0  0  0  0
  -21.3340   -4.6920   24.9040 C   0  0  0  0  0  0  0  0  0  0  0  0
  -21.8730   -4.1130   23.7410 C   0  0  0  0  0  3  0  0  0  0  0  0
  -22.0320   -4.8890   22.5790 C   0  0  0  0  0  0  0  0  0  0  0  0
  -22.5330   -4.3210   21.4560 F   0  0  0  0  0  0  0  0  0  0  0  0
  -21.1750   -3.9420   26.0190 F   0  0  0  0  0  0  0  0  0  0  0  0
  -22.8250  -13.5960   21.2230 C   0  0  0  0  0  0  0  0  0  0  0  0
  -22.1450  -12.8770   22.1090 N   0  0  0  0  0  0  0  0  0  0  0  0
  -22.3590  -14.6330   20.7530 O   0  0  0  0  0  0  0  0  0  0  0  0
  -22.5360  -12.0380   22.5110 H   0  0  0  0  0  0  0  0  0  0  0  0
  -21.2190  -13.1700   22.3890 H   0  0  0  0  0  0  0  0  0  0  0  0
  -25.3880  -15.2940   20.3340 N   0  0  0  0  0  0  0  0  0  0  0  0
  -24.6220  -15.9230   20.5450 H   0  0  0  0  0  0  0  0  0  0  0  0
  -26.2440  -15.7950   20.1240 H   0  0  0  0  0  0  0  0  0  0  0  0
  -28.3740  -22.0150   20.2700 O   0  0  0  0  0  0  0  0  0  0  0  0
  -28.9860  -23.4180   20.2990 C   0  0  0  0  0  3  0  0  0  0  0  0
  -27.9870  -24.7600   20.0990 C   0  0  0  0  0  3  0  0  0  0  0  0
  -28.2730  -26.2790   20.2660 O   0  0  0  0  0  0  0  0  0  0  0  0
  -24.6340  -31.9400   23.2590 C   0  0  0  0  0  0  0  0  0  0  0  0
  -27.2090  -27.2510   20.2060 C   0  0  0  0  0  0  0  0  0  0  0  0
  -23.4300  -30.5530   21.6150 C   0  0  0  0  0  3  0  0  0  0  0  0
  -24.8750  -28.9860   20.1830 C   0  0  0  0  0  0  0  0  0  0  0  0
  -25.9840  -30.8200   21.4490 C   0  0  0  0  0  2  0  0  0  0  0  0
  -26.0570  -29.4330   20.7900 C   0  0  0  0  0  0  0  0  0  0  0  0
  -27.2240  -28.5820   20.7840 C   0  0  0  0  0  3  0  0  0  0  0  0
  -25.9990  -26.9030   19.5640 C   0  0  0  0  0  3  0  0  0  0  0  0
  -24.8590  -27.7340   19.5550 C   0  0  0  0  0  3  0  0  0  0  0  0
  -23.6490  -29.8820   20.2330 C   0  0  0  0  0  2  0  0  0  0  0  0
  -24.7030  -31.1250   22.1620 N   0  0  0  0  0  0  0  0  0  0  0  0
  -23.5480  -32.2240   23.7880 O   0  0  0  0  0  0  0  0  0  0  0  0
  -22.7500  -29.5420   22.5720 C   0  0  0  0  0  0  0  0  0  0  0  0
  -21.4240  -29.3700   22.4380 N   0  0  0  0  0  0  0  0  0  0  0  0
  -23.4200  -28.9150   23.3970 O   0  0  0  0  0  0  0  0  0  0  0  0
  -20.9410  -29.9270   21.7480 H   0  0  0  0  0  0  0  0  0  0  0  0
  -18.0380  -28.1810   22.9380 C   0  0  0  0  0  0  0  0  0  0  0  0
  -20.5980  -28.4320   23.2040 C   0  0  0  0  0  3  0  0  0  0  0  0
  -20.6940  -27.0020   22.6210 C   0  0  0  0  0  2  0  0  0  0  0  0
  -19.5890  -26.6900   21.6070 C   0  0  0  0  0  2  0  0  0  0  0  0
  -18.2080  -26.8360   22.2530 C   0  0  0  0  0  2  0  0  0  0  0  0
  -19.1610  -28.9370   23.3700 C   0  0  0  0  0  0  0  0  0  0  0  0
  -18.9460  -30.1960   23.9730 C   0  0  0  0  0  3  0  0  0  0  0  0
  -17.6440  -30.6990   24.1470 C   0  0  0  0  0  3  0  0  0  0  0  0
  -16.5360  -29.9400   23.7310 C   0  0  0  0  0  3  0  0  0  0  0  0
  -16.7340  -28.6830   23.1320 C   0  0  0  0  0  3  0  0  0  0  0  0
  -25.9130  -32.5690   23.8890 C   0  0  0  0  0  3  0  0  0  0  0  0
  -26.4150  -31.8010   25.1730 C   0  0  1  0  0  0  0  0  0  0  0  0
  -25.3110  -31.5700   26.2310 C   0  0  0  0  0  1  0  0  0  0  0  0
  -26.9980  -30.4190   24.7940 C   0  0  0  0  0  1  0  0  0  0  0  0
  -27.5620  -32.5940   25.8420 C   0  0  0  0  0  1  0  0  0  0  0  0
  -25.6070  -33.9700   24.2180 N   0  0  0  0  0  0  0  0  0  0  0  0
  -25.9140  -35.0210   23.4450 C   0  0  0  0  0  0  0  0  0  0  0  0
  -26.5520  -34.9130   22.3950 O   0  0  0  0  0  0  0  0  0  0  0  0
  -25.0370  -34.1270   25.0360 H   0  0  0  0  0  0  0  0  0  0  0  0
  -24.1600  -36.8030   23.1550 C   0  0  0  0  0  1  0  0  0  0  0  0
  -25.4390  -36.4120   23.9120 C   0  0  0  0  0  3  0  0  0  0  0  0
  -27.5980  -37.3260   24.6440 C   0  0  0  0  0  1  0  0  0  0  0  0
  -26.4600  -37.4710   23.7410 N   0  0  0  0  0  0  0  0  0  0  0  0
  -26.0520  -38.3900   23.8880 H   0  0  0  0  0  0  0  0  0  0  0  0
  1  5  1  0
  2  6  2  0
  2  4  1  0
  3 17  1  0
  3  5  2  0
  4  1  2  0
  5  7  1  0
  6  3  1  0
  8  6  1  0
  9 17  1  0
 10 15  1  0
 11 12  1  0
 11 10  1  0
 13 12  1  0
 13 22  1  0
 13 14  1  0
 15  9  1  0
 15 14  1  0
 16  9  2  0
 17 18  1  0
 19 20  2  0
 20 39  1  0
 21 20  1  0
 21 24  1  0
 22 23  1  0
 22 19  1  0
 23 21  2  0
 24 25  1  0
 25 26  2  0
 27 30  1  0
 27 26  1  0
 28 27  2  0
 29 28  1  0
 29 24  2  0
 30 31  1  0
 31 36  2  0
 31 32  1  0
 32 33  2  0
 34 33  1  0
 34 38  1  0
 35 34  2  0
 36 35  1  0
 37 36  1  0
 39 40  1  0
 40 43  1  0
 40 42  1  0
 41 39  2  0
 44 19  1  0
 44 45  1  0
 46 44  1  0
 47  4  1  0
 47 48  1  0
 49 50  1  0
 49 48  2  0
 51 62  2  0
 52 50  1  0
 52 57  1  0
 53 61  1  0
 53 63  1  0
 54 60  1  0
 54 56  1  0
 55 61  1  0
 56 55  1  0
 57 56  2  0
 58 52  2  0
 59 58  1  0
 59 54  2  0
 60 53  1  0
 61 51  1  0
 63 65  2  0
 64 63  1  0
 66 64  1  0
 67 76  2  0
 67 72  1  0
 68 64  1  0
 68 72  1  0
 69 68  1  0
 70 71  1  0
 70 69  1  0
 71 67  1  0
 72 73  2  0
 73 74  1  0
 75 74  2  0
 76 75  1  0
 77 51  1  0
 77 82  1  0
 77 78  1  0
 78 81  1  1
 78 79  1  0
 80 78  1  0
 82 85  1  0
 83 87  1  0
 83 82  1  0
 84 83  2  0
 87 86  1  0
 89 90  1  0
 89 87  1  0
 89 88  1  0
M  ISO  4   9 100  17 100  49 101  50 101
M  END
>  <TORSDO>  (65) 
F 19

>  <SCORE>  (65) 
-14.290

>  <name>  (65) 
64

>  <ligand_id>  (65) 
64

>  <original_smiles>  (65) 
[H]c1c([H])c([H])c2c(c1[H])C([H])([H])C([H])([H])C([H])([H])C2([H])N([H])C(=O)C1([H])N(C(=O)C([H])(N([H])C(=O)C([H])(N([H])C([H])([H])[H])C([H])([H])[H])C(C([H])([H])[H])(C([H])([H])[H])C([H])([H])[H])C([H])([H])c2c([H])c(OC([H])([H])C([H])([H])Oc3c([H])c(F)c(N([H])C(=O)N4C([H])([H])C([H])([H])C([H])([H])C([H])(n5nc(-c6c([H])c([H])c(Oc7c([H])c([H])c(F)c([H])c7F)c([H])c6[H])c(C(=O)N([H])[H])c5N([H])[H])C4([H])[H])c(F)c3[H])c([H])c([H])c2C1([H])[H]

>  <smiles>  (65) 
[H]c1c([H])c([H])c2c(c1[H])C([H])([H])C([H])([H])C([H])([H])C2([H])N([H])C(=O)C1([H])N(C(=O)C([H])(N([H])C(=O)C([H])(N([H])C([H])([H])[H])C([H])([H])[H])C(C([H])([H])[H])(C([H])([H])[H])C([H])([H])[H])C([H])([H])c2c([H])c(OC([H])([H])C([H])([H])Oc3c([H])c(F)c(N([H])C(=O)N4C([H])([H])C([H])([H])C([H])([H])C([H])(n5nc(-c6c([H])c([H])c(Oc7c([H])c([H])c(F)c([H])c7F)c([H])c6[H])c(C(=O)N([H])[H])c5N([H])[H])C4([H])[H])c(F)c3[H])c([H])c([H])c2C1([H])[H]

$$$$
65:0:0
     RDKit          3D

 90 98  0  0  1  0  0  0  0  0999 V2000
  -29.6470  -22.0000   20.6810 C   0  0  0  0  0  2  0  0  0  0  0  0
  -28.8430  -23.3070   20.4230 C   0  0  0  0  0  2  0  0  0  0  0  0
  -29.4090  -24.5650   21.1330 C   0  0  0  0  0  2  0  0  0  0  0  0
  -28.4280  -25.7610   21.2880 C   0  0  0  0  0  2  0  0  0  0  0  0
  -28.3950  -26.6750   20.1820 O   0  0  0  0  0  0  0  0  0  0  0  0
  -24.6030  -31.8870   23.2550 C   0  0  0  0  0  0  0  0  0  0  0  0
  -27.2580  -27.4510   20.1750 C   0  0  0  0  0  0  0  0  0  0  0  0
  -23.4000  -30.4840   21.6100 C   0  0  0  0  0  3  0  0  0  0  0  0
  -24.8610  -28.9510   20.1840 C   0  0  0  0  0  0  0  0  0  0  0  0
  -25.9260  -30.8480   21.4150 C   0  0  0  0  0  2  0  0  0  0  0  0
  -26.0170  -29.4770   20.7750 C   0  0  0  0  0  0  0  0  0  0  0  0
  -27.2210  -28.7340   20.7710 C   0  0  0  0  0  3  0  0  0  0  0  0
  -26.0900  -26.9400   19.5750 C   0  0  0  0  0  3  0  0  0  0  0  0
  -24.8920  -27.6800   19.5810 C   0  0  0  0  0  3  0  0  0  0  0  0
  -23.6130  -29.8050   20.2300 C   0  0  0  0  0  2  0  0  0  0  0  0
  -24.6610  -31.0880   22.1520 N   0  0  0  0  0  0  0  0  0  0  0  0
  -23.5210  -32.1570   23.7950 O   0  0  0  0  0  0  0  0  0  0  0  0
  -22.7500  -29.4620   22.5700 C   0  0  0  0  0  0  0  0  0  0  0  0
  -21.4250  -29.2810   22.4440 N   0  0  0  0  0  0  0  0  0  0  0  0
  -23.4330  -28.8350   23.3830 O   0  0  0  0  0  0  0  0  0  0  0  0
  -20.9340  -29.8390   21.7590 H   0  0  0  0  0  0  0  0  0  0  0  0
  -18.0480  -28.0940   22.9460 C   0  0  0  0  0  0  0  0  0  0  0  0
  -20.6080  -28.3420   23.2120 C   0  0  0  0  0  3  0  0  0  0  0  0
  -20.7040  -26.9130   22.6290 C   0  0  0  0  0  2  0  0  0  0  0  0
  -19.5980  -26.5980   21.6170 C   0  0  0  0  0  2  0  0  0  0  0  0
  -18.2190  -26.7450   22.2650 C   0  0  0  0  0  2  0  0  0  0  0  0
  -19.1710  -28.8500   23.3770 C   0  0  0  0  0  0  0  0  0  0  0  0
  -18.9580  -30.1110   23.9730 C   0  0  0  0  0  3  0  0  0  0  0  0
  -17.6550  -30.6170   24.1430 C   0  0  0  0  0  3  0  0  0  0  0  0
  -16.5470  -29.8580   23.7300 C   0  0  0  0  0  3  0  0  0  0  0  0
  -16.7450  -28.5970   23.1380 C   0  0  0  0  0  3  0  0  0  0  0  0
  -25.8880  -32.5190   23.8760 C   0  0  0  0  0  3  0  0  0  0  0  0
  -25.5820  -33.9190   24.1980 N   0  0  0  0  0  0  0  0  0  0  0  0
  -25.9200  -34.9670   23.4350 C   0  0  0  0  0  0  0  0  0  0  0  0
  -26.5950  -34.8560   22.4080 O   0  0  0  0  0  0  0  0  0  0  0  0
  -24.9840  -34.0790   24.9950 H   0  0  0  0  0  0  0  0  0  0  0  0
  -24.1980  -36.7610   23.0600 C   0  0  0  0  0  1  0  0  0  0  0  0
  -25.4320  -36.3580   23.8820 C   0  0  0  0  0  3  0  0  0  0  0  0
  -27.5650  -37.2390   24.7230 C   0  0  0  0  0  1  0  0  0  0  0  0
  -26.4680  -37.4080   23.7730 N   0  0  0  0  0  0  0  0  0  0  0  0
  -26.0630  -38.3290   23.9180 H   0  0  0  0  0  0  0  0  0  0  0  0
  -26.4030  -31.7510   25.1540 C   0  0  1  0  0  0  0  0  0  0  0  0
  -25.3110  -31.5170   26.2230 C   0  0  0  0  0  1  0  0  0  0  0  0
  -26.9860  -30.3720   24.7650 C   0  0  0  0  0  1  0  0  0  0  0  0
  -27.5550  -32.5450   25.8150 C   0  0  0  0  0  1  0  0  0  0  0  0
  -29.0300  -20.9170   19.9790 O   0  0  0  0  0  0  0  0  0  0  0  0
  -28.8060  -17.2360   19.9120 C   0  0  0  0  0  3  0  0  0  0  0  0
  -30.6640  -17.8150   21.3650 C   0  0  0  0  0  3  0  0  0  0  0  0
  -28.5840  -18.6040   19.6560 C   0  0  0  0  0  3  0  0  0  0  0  0
  -30.4340  -19.1910   21.1090 C   0  0  0  0  0  3  0  0  0  0  0  0
  -29.8440  -16.8240   20.7750 C   0  0  0  0  0  0  0  0  0  0  0  0
  -29.3730  -19.6040   20.2610 C   0  0  0  0  0  0  0  0  0  0  0  0
  -30.6440  -14.5020   20.4870 C   0  0  0  0  0  0  0  0  0  0  0  0
  -30.3760  -12.3470   19.3070 C   0  0  0  0  0  2  0  0  0  0  0  0
  -29.4250  -12.5620   18.1100 C   0  0  0  0  0  2  0  0  0  0  0  0
  -27.9510  -12.4190   18.5390 C   0  0  0  0  0  2  0  0  0  0  0  0
  -27.6180  -13.2380   19.8150 C   0  0  0  0  0  3  0  0  0  0  0  0
  -28.6750  -12.9850   20.9140 C   0  0  0  0  0  2  0  0  0  0  0  0
  -30.0010  -13.3070   20.3570 N   0  0  0  0  0  0  0  0  0  0  0  0
  -31.7510  -14.7300   19.9870 O   0  0  0  0  0  0  0  0  0  0  0  0
  -29.9400  -15.4470   21.1360 N   0  0  0  0  0  0  0  0  0  0  0  0
  -29.0990  -15.0650   21.5410 H   0  0  0  0  0  0  0  0  0  0  0  0
  -25.2150  -13.8540   20.5080 C   0  0  0  0  0  0  0  0  0  0  0  0
  -24.1460  -13.0850   20.8810 C   0  0  0  0  0  0  0  0  0  0  0  0
  -24.6070  -11.7330   20.8590 C   0  0  0  0  0  0  0  0  0  0  0  0
  -26.2620  -12.9700   20.2890 N   0  0  0  0  0  0  0  0  0  0  0  0
  -25.8970  -11.6900   20.5550 N   0  0  0  0  0  0  0  0  0  0  0  0
  -23.8800  -10.4720   21.0550 C   0  0  0  0  0  0  0  0  0  0  0  0
  -24.3150   -9.5080   21.9910 C   0  0  0  0  0  3  0  0  0  0  0  0
  -23.5900   -8.3120   22.1750 C   0  0  0  0  0  3  0  0  0  0  0  0
  -22.4170   -8.0700   21.4220 C   0  0  0  0  0  0  0  0  0  0  0  0
  -22.0000   -9.0230   20.4760 C   0  0  0  0  0  3  0  0  0  0  0  0
  -22.7250  -10.2120   20.2900 C   0  0  0  0  0  3  0  0  0  0  0  0
  -21.6630   -6.9250   21.5150 O   0  0  0  0  0  0  0  0  0  0  0  0
  -21.6230   -6.1820   22.6680 C   0  0  0  0  0  0  0  0  0  0  0  0
  -21.2060   -6.7360   23.8980 C   0  0  0  0  0  3  0  0  0  0  0  0
  -21.1130   -5.9190   25.0420 C   0  0  0  0  0  3  0  0  0  0  0  0
  -21.4270   -4.5480   24.9580 C   0  0  0  0  0  0  0  0  0  0  0  0
  -21.8360   -3.9950   23.7320 C   0  0  0  0  0  3  0  0  0  0  0  0
  -21.9310   -4.8090   22.5890 C   0  0  0  0  0  0  0  0  0  0  0  0
  -22.3070   -4.2660   21.4070 F   0  0  0  0  0  0  0  0  0  0  0  0
  -21.3300   -3.7620   26.0540 F   0  0  0  0  0  0  0  0  0  0  0  0
  -22.7480  -13.5650   21.1490 C   0  0  0  0  0  0  0  0  0  0  0  0
  -22.0180  -12.8730   22.0170 N   0  0  0  0  0  0  0  0  0  0  0  0
  -22.3110  -14.5880   20.6230 O   0  0  0  0  0  0  0  0  0  0  0  0
  -22.3840  -12.0450   22.4640 H   0  0  0  0  0  0  0  0  0  0  0  0
  -21.0810  -13.1780   22.2390 H   0  0  0  0  0  0  0  0  0  0  0  0
  -25.3780  -15.2240   20.3220 N   0  0  0  0  0  0  0  0  0  0  0  0
  -24.6070  -15.8740   20.4240 H   0  0  0  0  0  0  0  0  0  0  0  0
  -26.2270  -15.6660   19.9960 H   0  0  0  0  0  0  0  0  0  0  0  0
  2  1  1  0
  2  3  1  0
  3  4  1  0
  5  4  1  0
  6 17  2  0
  7  5  1  0
  7 12  1  0
  8 16  1  0
  8 18  1  0
  9 15  1  0
  9 11  1  0
 10 16  1  0
 11 10  1  0
 12 11  2  0
 13 14  1  0
 13  7  2  0
 14  9  2  0
 15  8  1  0
 16  6  1  0
 18 20  2  0
 19 18  1  0
 21 19  1  0
 22 31  2  0
 22 27  1  0
 23 19  1  0
 23 27  1  0
 24 23  1  0
 25 26  1  0
 25 24  1  0
 26 22  1  0
 27 28  2  0
 28 29  1  0
 30 29  2  0
 31 30  1  0
 32  6  1  0
 32 33  1  0
 32 42  1  0
 33 36  1  0
 34 38  1  0
 34 33  1  0
 35 34  2  0
 38 37  1  0
 40 38  1  0
 40 41  1  0
 40 39  1  0
 42 45  1  1
 42 43  1  0
 44 42  1  0
 46 52  1  0
 46  1  1  0
 47 51  1  0
 49 47  2  0
 49 52  1  0
 50 48  1  0
 51 61  1  0
 51 48  2  0
 52 50  2  0
 53 61  1  0
 54 59  1  0
 55 56  1  0
 55 54  1  0
 57 56  1  0
 57 66  1  0
 57 58  1  0
 59 53  1  0
 59 58  1  0
 60 53  2  0
 61 62  1  0
 63 64  2  0
 64 83  1  0
 65 64  1  0
 65 68  1  0
 66 63  1  0
 66 67  1  0
 67 65  2  0
 68 69  1  0
 69 70  2  0
 71 74  1  0
 71 70  1  0
 72 71  2  0
 73 72  1  0
 73 68  2  0
 74 75  1  0
 75 76  1  0
 76 77  2  0
 78 77  1  0
 78 82  1  0
 79 78  2  0
 80 75  2  0
 80 79  1  0
 81 80  1  0
 83 84  1  0
 84 87  1  0
 84 86  1  0
 85 83  2  0
 88 89  1  0
 88 63  1  0
 90 88  1  0
M  ISO  4   4 101   5 101  53 100  61 100
M  END
>  <TORSDO>  (66) 
F 21

>  <SCORE>  (66) 
-13.693

>  <name>  (66) 
65

>  <ligand_id>  (66) 
65

>  <original_smiles>  (66) 
[H]c1c([H])c([H])c2c(c1[H])C([H])([H])C([H])([H])C([H])([H])C2([H])N([H])C(=O)C1([H])N(C(=O)C([H])(N([H])C(=O)C([H])(N([H])C([H])([H])[H])C([H])([H])[H])C(C([H])([H])[H])(C([H])([H])[H])C([H])([H])[H])C([H])([H])c2c([H])c(OC([H])([H])C([H])([H])C([H])([H])C([H])([H])Oc3c([H])c([H])c(N([H])C(=O)N4C([H])([H])C([H])([H])C([H])([H])C([H])(n5nc(-c6c([H])c([H])c(Oc7c([H])c([H])c(F)c([H])c7F)c([H])c6[H])c(C(=O)N([H])[H])c5N([H])[H])C4([H])[H])c([H])c3[H])c([H])c([H])c2C1([H])[H]

>  <smiles>  (66) 
[H]c1c([H])c([H])c2c(c1[H])C([H])([H])C([H])([H])C([H])([H])C2([H])N([H])C(=O)C1([H])N(C(=O)C([H])(N([H])C(=O)C([H])(N([H])C([H])([H])[H])C([H])([H])[H])C(C([H])([H])[H])(C([H])([H])[H])C([H])([H])[H])C([H])([H])c2c([H])c(OC([H])([H])C([H])([H])C([H])([H])C([H])([H])Oc3c([H])c([H])c(N([H])C(=O)N4C([H])([H])C([H])([H])C([H])([H])C([H])(n5nc(-c6c([H])c([H])c(Oc7c([H])c([H])c(F)c([H])c7F)c([H])c6[H])c(C(=O)N([H])[H])c5N([H])[H])C4([H])[H])c([H])c3[H])c([H])c([H])c2C1([H])[H]

$$$$
66:0:0
     RDKit          3D

 92100  0  0  1  0  0  0  0  0999 V2000
  -29.6650  -20.6980   19.7410 C   0  0  0  0  0  0  0  0  0  0  0  0
  -29.6860  -21.9990   20.3540 N   0  0  0  0  0  0  0  0  0  0  0  0
  -29.4720  -20.6400   18.5240 O   0  0  0  0  0  0  0  0  0  0  0  0
  -30.9170  -22.0260   24.4020 C   0  0  0  0  0  3  0  0  0  0  0  0
  -29.5440  -22.0740   24.0870 C   0  0  0  0  0  3  0  0  0  0  0  0
  -31.8770  -22.0090   23.3730 C   0  0  0  0  0  3  0  0  0  0  0  0
  -29.1280  -22.0840   22.7410 C   0  0  0  0  0  3  0  0  0  0  0  0
  -31.4650  -22.0260   22.0260 C   0  0  0  0  0  3  0  0  0  0  0  0
  -30.0890  -22.0450   21.7090 C   0  0  0  0  0  0  0  0  0  0  0  0
  -29.8840  -19.2160   20.4850 C   0  0  0  0  0  2  0  0  0  0  0  0
  -30.4800  -17.8080   19.7400 C   0  0  0  0  0  2  0  0  0  0  0  0
  -30.8660  -15.0820   19.8910 C   0  0  0  0  0  0  0  0  0  0  0  0
  -30.6320  -12.7270   18.9840 C   0  0  0  0  0  2  0  0  0  0  0  0
  -29.6600  -12.7220   17.7820 C   0  0  0  0  0  2  0  0  0  0  0  0
  -28.2040  -12.5690   18.2620 C   0  0  0  0  0  2  0  0  0  0  0  0
  -27.8770  -13.4990   19.4610 C   0  0  0  0  0  3  0  0  0  0  0  0
  -28.9720  -13.4700   20.5480 C   0  0  0  0  0  2  0  0  0  0  0  0
  -30.2320  -13.8400   19.8940 N   0  0  0  0  0  0  0  0  0  0  0  0
  -32.0400  -15.1110   19.5100 O   0  0  0  0  0  0  0  0  0  0  0  0
  -30.1450  -16.2940   20.1050 N   0  0  0  0  0  0  0  0  0  0  0  0
  -29.2020  -16.1410   20.4340 H   0  0  0  0  0  0  0  0  0  0  0  0
  -25.5890  -14.1640   20.3880 C   0  0  0  0  0  0  0  0  0  0  0  0
  -24.4960  -13.4310   20.7600 C   0  0  0  0  0  0  0  0  0  0  0  0
  -24.8610  -12.0600   20.5870 C   0  0  0  0  0  0  0  0  0  0  0  0
  -26.5500  -13.2440   20.0100 N   0  0  0  0  0  0  0  0  0  0  0  0
  -26.1260  -11.9670   20.1940 N   0  0  0  0  0  0  0  0  0  0  0  0
  -24.0580  -10.8360   20.7200 C   0  0  0  0  0  0  0  0  0  0  0  0
  -24.4700   -9.7680   21.5450 C   0  0  0  0  0  3  0  0  0  0  0  0
  -23.6720   -8.6100   21.6690 C   0  0  0  0  0  3  0  0  0  0  0  0
  -22.4470   -8.5150   20.9670 C   0  0  0  0  0  0  0  0  0  0  0  0
  -22.0540   -9.5710   20.1270 C   0  0  0  0  0  3  0  0  0  0  0  0
  -22.8520  -10.7200   20.0020 C   0  0  0  0  0  3  0  0  0  0  0  0
  -21.6190   -7.4200   21.0060 O   0  0  0  0  0  0  0  0  0  0  0  0
  -21.5580   -6.6020   22.1060 C   0  0  0  0  0  0  0  0  0  0  0  0
  -21.2140   -7.0970   23.3820 C   0  0  0  0  0  3  0  0  0  0  0  0
  -21.0960   -6.2110   24.4720 C   0  0  0  0  0  3  0  0  0  0  0  0
  -21.3110   -4.8310   24.2850 C   0  0  0  0  0  0  0  0  0  0  0  0
  -21.6450   -4.3360   23.0120 C   0  0  0  0  0  3  0  0  0  0  0  0
  -21.7650   -5.2200   21.9250 C   0  0  0  0  0  0  0  0  0  0  0  0
  -22.0690   -4.7350   20.6980 F   0  0  0  0  0  0  0  0  0  0  0  0
  -21.1880   -3.9780   25.3290 F   0  0  0  0  0  0  0  0  0  0  0  0
  -23.1550  -13.9740   21.1540 C   0  0  0  0  0  0  0  0  0  0  0  0
  -22.4350  -13.2630   22.0150 N   0  0  0  0  0  0  0  0  0  0  0  0
  -22.7570  -15.0610   20.7370 O   0  0  0  0  0  0  0  0  0  0  0  0
  -22.7700  -12.3830   22.3760 H   0  0  0  0  0  0  0  0  0  0  0  0
  -21.5350  -13.6070   22.3210 H   0  0  0  0  0  0  0  0  0  0  0  0
  -25.8380  -15.5320   20.3130 N   0  0  0  0  0  0  0  0  0  0  0  0
  -25.1260  -16.2230   20.5210 H   0  0  0  0  0  0  0  0  0  0  0  0
  -26.6820  -15.9390   19.9300 H   0  0  0  0  0  0  0  0  0  0  0  0
  -29.4980  -23.4240   19.6660 C   0  0  0  0  0  3  0  0  0  0  0  0
  -28.7540  -24.7880   20.3510 C   0  0  0  0  0  3  0  0  0  0  0  0
  -28.8100  -26.2850   19.8880 O   0  0  0  0  0  0  0  0  0  0  0  0
  -24.6330  -31.4890   23.0740 C   0  0  0  0  0  0  0  0  0  0  0  0
  -27.6580  -27.1580   19.8920 C   0  0  0  0  0  0  0  0  0  0  0  0
  -23.5810  -30.0590   21.3650 C   0  0  0  0  0  3  0  0  0  0  0  0
  -25.1780  -28.6830   19.8960 C   0  0  0  0  0  0  0  0  0  0  0  0
  -26.0990  -30.5680   21.2370 C   0  0  0  0  0  2  0  0  0  0  0  0
  -26.3070  -29.2150   20.5320 C   0  0  0  0  0  0  0  0  0  0  0  0
  -27.5490  -28.4730   20.5040 C   0  0  0  0  0  3  0  0  0  0  0  0
  -26.4920  -26.7260   19.2230 C   0  0  0  0  0  3  0  0  0  0  0  0
  -25.2820  -27.4550   19.2260 C   0  0  0  0  0  3  0  0  0  0  0  0
  -23.8700  -29.4580   19.9650 C   0  0  0  0  0  2  0  0  0  0  0  0
  -24.7880  -30.7270   21.9480 N   0  0  0  0  0  0  0  0  0  0  0  0
  -23.5200  -31.6490   23.6000 O   0  0  0  0  0  0  0  0  0  0  0  0
  -22.9890  -28.9560   22.2800 C   0  0  0  0  0  0  0  0  0  0  0  0
  -21.6990  -28.6260   22.0850 N   0  0  0  0  0  0  0  0  0  0  0  0
  -23.6950  -28.3960   23.1220 O   0  0  0  0  0  0  0  0  0  0  0  0
  -21.1840  -29.1320   21.3790 H   0  0  0  0  0  0  0  0  0  0  0  0
  -18.4990  -26.9450   22.3370 C   0  0  0  0  0  0  0  0  0  0  0  0
  -20.9640  -27.5800   22.8000 C   0  0  0  0  0  3  0  0  0  0  0  0
  -21.3190  -26.1800   22.2490 C   0  0  0  0  0  2  0  0  0  0  0  0
  -20.3590  -25.7010   21.1560 C   0  0  0  0  0  2  0  0  0  0  0  0
  -18.9240  -25.6390   21.6890 C   0  0  0  0  0  2  0  0  0  0  0  0
  -19.4580  -27.8640   22.8440 C   0  0  0  0  0  0  0  0  0  0  0  0
  -19.0080  -29.0770   23.4090 C   0  0  0  0  0  3  0  0  0  0  0  0
  -17.6350  -29.3780   23.4720 C   0  0  0  0  0  3  0  0  0  0  0  0
  -16.6910  -28.4600   22.9800 C   0  0  0  0  0  3  0  0  0  0  0  0
  -17.1230  -27.2450   22.4200 C   0  0  0  0  0  3  0  0  0  0  0  0
  -25.8390  -32.2130   23.7470 C   0  0  0  0  0  3  0  0  0  0  0  0
  -25.4230  -33.5910   24.0520 N   0  0  0  0  0  0  0  0  0  0  0  0
  -25.7110  -34.6610   23.2990 C   0  0  0  0  0  0  0  0  0  0  0  0
  -26.4200  -34.5940   22.2930 O   0  0  0  0  0  0  0  0  0  0  0  0
  -24.7910  -33.7100   24.8300 H   0  0  0  0  0  0  0  0  0  0  0  0
  -23.8730  -36.3310   22.8900 C   0  0  0  0  0  1  0  0  0  0  0  0
  -25.1220  -36.0200   23.7300 C   0  0  0  0  0  3  0  0  0  0  0  0
  -27.1740  -37.0580   24.5930 C   0  0  0  0  0  1  0  0  0  0  0  0
  -26.0840  -37.1390   23.6240 N   0  0  0  0  0  0  0  0  0  0  0  0
  -25.6150  -38.0340   23.7470 H   0  0  0  0  0  0  0  0  0  0  0  0
  -26.3420  -31.4870   25.0570 C   0  0  1  0  0  0  0  0  0  0  0  0
  -25.2180  -31.2080   26.0840 C   0  0  0  0  0  1  0  0  0  0  0  0
  -27.0100  -30.1370   24.7140 C   0  0  0  0  0  1  0  0  0  0  0  0
  -27.4220  -32.3520   25.7510 C   0  0  0  0  0  1  0  0  0  0  0  0
  1  2  1  0
  1 10  1  0
  2  9  1  0
  3  1  2  0
  5  4  1  0
  6  4  2  0
  7  5  2  0
  8  6  1  0
  9  8  2  0
  9  7  1  0
 11 20  1  0
 11 10  1  0
 12 18  1  0
 12 20  1  0
 13 18  1  0
 14 15  1  0
 14 13  1  0
 16 15  1  0
 16 25  1  0
 16 17  1  0
 18 17  1  0
 19 12  2  0
 20 21  1  0
 22 23  2  0
 23 42  1  0
 24 27  1  0
 24 23  1  0
 25 26  1  0
 25 22  1  0
 26 24  2  0
 27 28  1  0
 28 29  2  0
 30 33  1  0
 30 29  1  0
 31 30  2  0
 32 31  1  0
 32 27  2  0
 33 34  1  0
 34 35  1  0
 35 36  2  0
 37 36  1  0
 37 41  1  0
 38 37  2  0
 39 34  2  0
 39 38  1  0
 40 39  1  0
 42 43  1  0
 43 46  1  0
 43 45  1  0
 44 42  2  0
 47 22  1  0
 47 48  1  0
 49 47  1  0
 50 51  2  0
 50  2  1  0
 52 54  1  0
 52 51  1  0
 53 64  2  0
 54 59  1  0
 55 63  1  0
 55 65  1  0
 56 62  1  0
 56 58  1  0
 57 63  1  0
 58 57  1  0
 59 58  2  0
 60 61  1  0
 60 54  2  0
 61 56  2  0
 62 55  1  0
 63 53  1  0
 65 67  2  0
 66 65  1  0
 68 66  1  0
 69 78  2  0
 69 74  1  0
 70 66  1  0
 70 74  1  0
 71 70  1  0
 72 73  1  0
 72 71  1  0
 73 69  1  0
 74 75  2  0
 75 76  1  0
 77 76  2  0
 78 77  1  0
 79 53  1  0
 79 80  1  0
 79 89  1  0
 80 83  1  0
 81 85  1  0
 81 80  1  0
 82 81  2  0
 85 84  1  0
 87 85  1  0
 87 88  1  0
 87 86  1  0
 89 92  1  1
 89 90  1  0
 91 89  1  0
M  ISO  4  12 100  20 100  51 101  52 101
M  END
>  <TORSDO>  (67) 
F 21

>  <SCORE>  (67) 
-12.681

>  <name>  (67) 
66

>  <ligand_id>  (67) 
66

>  <original_smiles>  (67) 
[H]c1c([H])c([H])c(N(C(=O)C([H])([H])C([H])([H])N([H])C(=O)N2C([H])([H])C([H])([H])C([H])([H])C([H])(n3nc(-c4c([H])c([H])c(Oc5c([H])c([H])c(F)c([H])c5F)c([H])c4[H])c(C(=O)N([H])[H])c3N([H])[H])C2([H])[H])C([H])([H])C([H])([H])Oc2c([H])c([H])c3c(c2[H])C([H])([H])N(C(=O)C([H])(N([H])C(=O)C([H])(N([H])C([H])([H])[H])C([H])([H])[H])C(C([H])([H])[H])(C([H])([H])[H])C([H])([H])[H])C([H])(C(=O)N([H])C2([H])c4c([H])c([H])c([H])c([H])c4C([H])([H])C([H])([H])C2([H])[H])C3([H])[H])c([H])c1[H]

>  <smiles>  (67) 
[H]c1c([H])c([H])c(N(C(=O)C([H])([H])C([H])([H])N([H])C(=O)N2C([H])([H])C([H])([H])C([H])([H])C([H])(n3nc(-c4c([H])c([H])c(Oc5c([H])c([H])c(F)c([H])c5F)c([H])c4[H])c(C(=O)N([H])[H])c3N([H])[H])C2([H])[H])C([H])([H])C([H])([H])Oc2c([H])c([H])c3c(c2[H])C([H])([H])N(C(=O)C([H])(N([H])C(=O)C([H])(N([H])C([H])([H])[H])C([H])([H])[H])C(C([H])([H])[H])(C([H])([H])[H])C([H])([H])[H])C([H])(C(=O)N([H])C2([H])c4c([H])c([H])c([H])c([H])c4C([H])([H])C([H])([H])C2([H])[H])C3([H])[H])c([H])c1[H]

$$$$
67:0:0
     RDKit          3D

 96104  0  0  1  0  0  0  0  0999 V2000
  -31.5430  -20.5630   22.0810 N   0  0  0  0  0  0  0  0  0  0  0  0
  -32.5150  -20.8320   21.9260 H   0  0  0  0  0  0  0  0  0  0  0  0
  -32.3500  -18.2770   21.9930 C   0  0  0  0  0  3  0  0  0  0  0  0
  -32.1290  -16.9120   21.7340 C   0  0  0  0  0  3  0  0  0  0  0  0
  -29.9910  -18.7350   21.5890 C   0  0  0  0  0  3  0  0  0  0  0  0
  -31.2900  -19.1990   21.8940 C   0  0  0  0  0  0  0  0  0  0  0  0
  -30.8390  -16.4580   21.3740 C   0  0  0  0  0  0  0  0  0  0  0  0
  -29.7580  -17.3620   21.3260 C   0  0  0  0  0  0  0  0  0  0  0  0
  -30.7850  -14.4370   19.9430 C   0  0  0  0  0  0  0  0  0  0  0  0
  -30.2620  -12.4180   18.6300 C   0  0  0  0  0  2  0  0  0  0  0  0
  -29.2190  -12.7080   17.5340 C   0  0  0  0  0  2  0  0  0  0  0  0
  -27.7940  -12.5490   18.0910 C   0  0  0  0  0  2  0  0  0  0  0  0
  -27.5840  -13.3310   19.4140 C   0  0  0  0  0  3  0  0  0  0  0  0
  -28.7290  -13.0450   20.4140 C   0  0  0  0  0  2  0  0  0  0  0  0
  -30.0220  -13.3290   19.7580 N   0  0  0  0  0  0  0  0  0  0  0  0
  -31.7030  -14.7560   19.1820 O   0  0  0  0  0  0  0  0  0  0  0  0
  -30.5330  -15.1060   21.0740 N   0  0  0  0  0  0  0  0  0  0  0  0
  -29.7790  -14.7190   21.6210 H   0  0  0  0  0  0  0  0  0  0  0  0
  -25.2560  -13.9180   20.3530 C   0  0  0  0  0  0  0  0  0  0  0  0
  -24.2170  -13.1350   20.7780 C   0  0  0  0  0  0  0  0  0  0  0  0
  -24.6620  -11.7830   20.6470 C   0  0  0  0  0  0  0  0  0  0  0  0
  -26.2720  -13.0440   19.9960 N   0  0  0  0  0  0  0  0  0  0  0  0
  -25.9200  -11.7520   20.2260 N   0  0  0  0  0  0  0  0  0  0  0  0
  -23.9430  -10.5180   20.8440 C   0  0  0  0  0  0  0  0  0  0  0  0
  -24.3920   -9.5520   21.7710 C   0  0  0  0  0  3  0  0  0  0  0  0
  -23.6760   -8.3490   21.9560 C   0  0  0  0  0  3  0  0  0  0  0  0
  -22.4960   -8.1050   21.2140 C   0  0  0  0  0  0  0  0  0  0  0  0
  -22.0670   -9.0600   20.2760 C   0  0  0  0  0  3  0  0  0  0  0  0
  -22.7830  -10.2540   20.0890 C   0  0  0  0  0  3  0  0  0  0  0  0
  -21.7490   -6.9560   21.3090 O   0  0  0  0  0  0  0  0  0  0  0  0
  -21.5930   -6.2940   22.5010 C   0  0  0  0  0  0  0  0  0  0  0  0
  -21.0890   -6.9390   23.6510 C   0  0  0  0  0  3  0  0  0  0  0  0
  -20.8800   -6.2060   24.8360 C   0  0  0  0  0  3  0  0  0  0  0  0
  -21.1660   -4.8280   24.8710 C   0  0  0  0  0  0  0  0  0  0  0  0
  -21.6620   -4.1820   23.7260 C   0  0  0  0  0  3  0  0  0  0  0  0
  -21.8740   -4.9130   22.5430 C   0  0  0  0  0  0  0  0  0  0  0  0
  -22.3330   -4.2820   21.4350 F   0  0  0  0  0  0  0  0  0  0  0  0
  -20.9590   -4.1200   26.0070 F   0  0  0  0  0  0  0  0  0  0  0  0
  -22.8530  -13.6050   21.1960 C   0  0  0  0  0  0  0  0  0  0  0  0
  -22.2130  -12.8920   22.1160 N   0  0  0  0  0  0  0  0  0  0  0  0
  -22.3650  -14.6390   20.7400 O   0  0  0  0  0  0  0  0  0  0  0  0
  -22.6220  -12.0550   22.5030 H   0  0  0  0  0  0  0  0  0  0  0  0
  -21.3030  -13.1880   22.4380 H   0  0  0  0  0  0  0  0  0  0  0  0
  -25.4180  -15.2950   20.2210 N   0  0  0  0  0  0  0  0  0  0  0  0
  -24.6720  -15.9530   20.4200 H   0  0  0  0  0  0  0  0  0  0  0  0
  -26.2530  -15.7380   19.8620 H   0  0  0  0  0  0  0  0  0  0  0  0
  -27.5490  -17.6800   20.4260 C   0  0  0  0  0  1  0  0  0  0  0  0
  -28.5280  -16.8250   20.9950 O   0  0  0  0  0  0  0  0  0  0  0  0
  -31.0190  -22.3770   20.5980 C   0  0  0  0  0  0  0  0  0  0  0  0
  -30.6380  -21.4710   21.5120 N   0  0  0  0  0  0  0  0  0  0  0  0
  -32.2020  -22.5510   20.2970 O   0  0  0  0  0  0  0  0  0  0  0  0
  -29.6630  -21.3430   21.7520 H   0  0  0  0  0  0  0  0  0  0  0  0
  -29.9040  -23.1650   19.9030 C   0  0  0  0  0  2  0  0  0  0  0  0
  -30.0710  -24.6990   19.9600 C   0  0  0  0  0  2  0  0  0  0  0  0
  -28.8800  -25.4270   19.3130 C   0  0  0  0  0  2  0  0  0  0  0  0
  -28.8670  -26.8140   19.6620 O   0  0  0  0  0  0  0  0  0  0  0  0
  -24.7340  -31.3080   23.2830 C   0  0  0  0  0  0  0  0  0  0  0  0
  -27.6350  -27.4350   19.7150 C   0  0  0  0  0  0  0  0  0  0  0  0
  -23.6010  -30.0080   21.5120 C   0  0  0  0  0  3  0  0  0  0  0  0
  -25.1340  -28.7480   19.9090 C   0  0  0  0  0  0  0  0  0  0  0  0
  -26.0880  -30.5740   21.3250 C   0  0  0  0  0  2  0  0  0  0  0  0
  -26.2610  -29.2910   20.5380 C   0  0  0  0  0  0  0  0  0  0  0  0
  -27.5130  -28.6430   20.4360 C   0  0  0  0  0  3  0  0  0  0  0  0
  -26.4870  -26.9040   19.0790 C   0  0  0  0  0  3  0  0  0  0  0  0
  -25.2410  -27.5540   19.1760 C   0  0  0  0  0  3  0  0  0  0  0  0
  -23.8320  -29.5000   20.0620 C   0  0  0  0  0  2  0  0  0  0  0  0
  -24.8260  -30.6380   22.1000 N   0  0  0  0  0  0  0  0  0  0  0  0
  -23.6470  -31.4460   23.8600 O   0  0  0  0  0  0  0  0  0  0  0  0
  -23.0430  -28.8430   22.3600 C   0  0  0  0  0  0  0  0  0  0  0  0
  -21.7440  -28.5490   22.1920 N   0  0  0  0  0  0  0  0  0  0  0  0
  -23.7750  -28.2120   23.1260 O   0  0  0  0  0  0  0  0  0  0  0  0
  -21.2110  -29.1200   21.5530 H   0  0  0  0  0  0  0  0  0  0  0  0
  -18.4910  -27.0090   22.5130 C   0  0  0  0  0  0  0  0  0  0  0  0
  -21.0110  -27.4700   22.8550 C   0  0  0  0  0  3  0  0  0  0  0  0
  -21.2510  -26.1180   22.1460 C   0  0  0  0  0  2  0  0  0  0  0  0
  -20.1930  -25.7950   21.0860 C   0  0  0  0  0  2  0  0  0  0  0  0
  -18.7970  -25.7510   21.7170 C   0  0  0  0  0  2  0  0  0  0  0  0
  -19.5310  -27.8250   23.0320 C   0  0  0  0  0  0  0  0  0  0  0  0
  -19.1920  -29.0020   23.7350 C   0  0  0  0  0  3  0  0  0  0  0  0
  -17.8450  -29.3640   23.9230 C   0  0  0  0  0  3  0  0  0  0  0  0
  -16.8200  -28.5450   23.4200 C   0  0  0  0  0  3  0  0  0  0  0  0
  -17.1430  -27.3690   22.7220 C   0  0  0  0  0  3  0  0  0  0  0  0
  -25.9840  -31.9600   23.9550 C   0  0  0  0  0  3  0  0  0  0  0  0
  -25.6330  -33.3440   24.2950 N   0  0  0  0  0  0  0  0  0  0  0  0
  -25.9290  -34.4110   23.5390 C   0  0  0  0  0  0  0  0  0  0  0  0
  -26.5980  -34.3340   22.5050 O   0  0  0  0  0  0  0  0  0  0  0  0
  -25.0370  -33.4760   25.0990 H   0  0  0  0  0  0  0  0  0  0  0  0
  -24.1270  -36.1340   23.2160 C   0  0  0  0  0  1  0  0  0  0  0  0
  -25.3970  -35.7790   24.0050 C   0  0  0  0  0  3  0  0  0  0  0  0
  -27.5090  -36.7480   24.8020 C   0  0  0  0  0  1  0  0  0  0  0  0
  -26.3870  -36.8690   23.8730 N   0  0  0  0  0  0  0  0  0  0  0  0
  -25.9490  -37.7730   24.0230 H   0  0  0  0  0  0  0  0  0  0  0  0
  -26.4810  -31.1790   25.2340 C   0  0  1  0  0  0  0  0  0  0  0  0
  -25.3590  -30.8790   26.2540 C   0  0  0  0  0  1  0  0  0  0  0  0
  -27.1250  -29.8320   24.8300 C   0  0  0  0  0  1  0  0  0  0  0  0
  -27.5760  -31.9980   25.9570 C   0  0  0  0  0  1  0  0  0  0  0  0
  2  1  1  0
  4  3  2  0
  5  6  2  0
  6  3  1  0
  6  1  1  0
  7  4  1  0
  8  7  2  0
  8  5  1  0
  9 17  1  0
 10 15  1  0
 11 12  1  0
 11 10  1  0
 13 12  1  0
 13 22  1  0
 13 14  1  0
 15  9  1  0
 15 14  1  0
 16  9  2  0
 17  7  1  0
 17 18  1  0
 19 20  2  0
 20 39  1  0
 21 20  1  0
 21 24  1  0
 22 23  1  0
 22 19  1  0
 23 21  2  0
 24 25  1  0
 25 26  2  0
 27 30  1  0
 27 26  1  0
 28 27  2  0
 29 28  1  0
 29 24  2  0
 30 31  1  0
 31 36  2  0
 31 32  1  0
 32 33  2  0
 33 34  1  0
 34 38  1  0
 35 34  2  0
 36 35  1  0
 37 36  1  0
 39 40  1  0
 40 43  1  0
 40 42  1  0
 41 39  2  0
 44 19  1  0
 44 45  1  0
 46 44  1  0
 47 48  1  0
 48  8  1  0
 49 50  1  0
 50 52  1  0
 50  1  1  0
 51 49  2  0
 53 54  1  0
 53 49  1  0
 55 56  1  0
 55 54  1  0
 56 58  1  0
 57 68  2  0
 58 63  1  0
 59 67  1  0
 59 69  1  0
 60 66  1  0
 60 62  1  0
 61 67  1  0
 62 61  1  0
 63 62  2  0
 64 65  1  0
 64 58  2  0
 65 60  2  0
 66 59  1  0
 67 57  1  0
 69 71  2  0
 70 69  1  0
 72 70  1  0
 73 82  2  0
 73 78  1  0
 74 70  1  0
 74 78  1  0
 75 74  1  0
 76 77  1  0
 76 75  1  0
 77 73  1  0
 78 79  2  0
 79 80  1  0
 81 80  2  0
 82 81  1  0
 83 57  1  0
 83 84  1  0
 83 93  1  0
 84 87  1  0
 85 89  1  0
 85 84  1  0
 86 85  2  0
 89 88  1  0
 91 89  1  0
 91 92  1  0
 91 90  1  0
 93 96  1  1
 93 94  1  0
 95 93  1  0
M  ISO  4   9 100  17 100  55 101  56 101
M  END
>  <TORSDO>  (68) 
F 22

>  <SCORE>  (68) 
-9.601

>  <name>  (68) 
67

>  <ligand_id>  (68) 
67

>  <original_smiles>  (68) 
[H]c1c([H])c([H])c2c(c1[H])C([H])([H])C([H])([H])C([H])([H])C2([H])N([H])C(=O)C1([H])N(C(=O)C([H])(N([H])C(=O)C([H])(N([H])C([H])([H])[H])C([H])([H])[H])C(C([H])([H])[H])(C([H])([H])[H])C([H])([H])[H])C([H])([H])c2c([H])c(OC([H])([H])C([H])([H])C([H])([H])C(=O)N([H])N([H])c3c([H])c([H])c(N([H])C(=O)N4C([H])([H])C([H])([H])C([H])([H])C([H])(n5nc(-c6c([H])c([H])c(Oc7c([H])c([H])c(F)c([H])c7F)c([H])c6[H])c(C(=O)N([H])[H])c5N([H])[H])C4([H])[H])c(OC([H])([H])[H])c3[H])c([H])c([H])c2C1([H])[H]

>  <smiles>  (68) 
[H]c1c([H])c([H])c2c(c1[H])C([H])([H])C([H])([H])C([H])([H])C2([H])N([H])C(=O)C1([H])N(C(=O)C([H])(N([H])C(=O)C([H])(N([H])C([H])([H])[H])C([H])([H])[H])C(C([H])([H])[H])(C([H])([H])[H])C([H])([H])[H])C([H])([H])c2c([H])c(OC([H])([H])C([H])([H])C([H])([H])C(=O)N([H])N([H])c3c([H])c([H])c(N([H])C(=O)N4C([H])([H])C([H])([H])C([H])([H])C([H])(n5nc(-c6c([H])c([H])c(Oc7c([H])c([H])c(F)c([H])c7F)c([H])c6[H])c(C(=O)N([H])[H])c5N([H])[H])C4([H])[H])c(OC([H])([H])[H])c3[H])c([H])c([H])c2C1([H])[H]

$$$$
68:0:0
     RDKit          3D

106114  0  0  1  0  0  0  0  0999 V2000
  -33.1040  -21.6730   20.4690 C   0  0  0  0  0  2  0  0  0  0  0  0
  -33.2250  -20.1420   20.5680 C   0  0  0  0  0  2  0  0  0  0  0  0
  -33.1530  -19.4060   18.2190 C   0  0  0  0  0  0  0  0  0  0  0  0
  -32.5760  -19.4400   19.4510 N   0  0  0  0  0  0  0  0  0  0  0  0
  -34.2870  -19.8520   18.0140 O   0  0  0  0  0  0  0  0  0  0  0  0
  -28.9900  -18.4820   19.7810 C   0  0  0  0  0  3  0  0  0  0  0  0
  -29.0980  -17.1610   20.2500 C   0  0  0  0  0  3  0  0  0  0  0  0
  -30.1500  -19.2260   19.5040 C   0  0  0  0  0  3  0  0  0  0  0  0
  -31.5340  -17.3760   20.3370 C   0  0  0  0  0  0  0  0  0  0  0  0
  -30.3610  -16.5740   20.4800 C   0  0  0  0  0  0  0  0  0  0  0  0
  -31.4200  -18.6720   19.7620 C   0  0  0  0  0  0  0  0  0  0  0  0
  -32.9070  -16.8790   20.7820 C   0  0  0  0  0  1  0  0  0  0  0  0
  -30.8260  -14.2150   20.0280 C   0  0  0  0  0  0  0  0  0  0  0  0
  -30.3620  -12.0530   18.9550 C   0  0  0  0  0  2  0  0  0  0  0  0
  -29.3780  -12.2940   17.7940 C   0  0  0  0  0  2  0  0  0  0  0  0
  -27.9260  -12.2130   18.2940 C   0  0  0  0  0  2  0  0  0  0  0  0
  -27.6840  -13.0820   19.5570 C   0  0  0  0  0  3  0  0  0  0  0  0
  -28.7860  -12.8550   20.6190 C   0  0  0  0  0  2  0  0  0  0  0  0
  -30.0960  -13.0720   19.9850 N   0  0  0  0  0  0  0  0  0  0  0  0
  -31.8440  -14.3540   19.3480 O   0  0  0  0  0  0  0  0  0  0  0  0
  -30.3630  -15.1900   20.8270 N   0  0  0  0  0  0  0  0  0  0  0  0
  -29.5710  -14.8890   21.3760 H   0  0  0  0  0  0  0  0  0  0  0  0
  -25.3620  -13.7650   20.4280 C   0  0  0  0  0  0  0  0  0  0  0  0
  -24.2860  -13.0250   20.8420 C   0  0  0  0  0  0  0  0  0  0  0  0
  -24.6860  -11.6560   20.7430 C   0  0  0  0  0  0  0  0  0  0  0  0
  -26.3520  -12.8490   20.1080 N   0  0  0  0  0  0  0  0  0  0  0  0
  -25.9520  -11.5750   20.3530 N   0  0  0  0  0  0  0  0  0  0  0  0
  -23.9210  -10.4180   20.9400 C   0  0  0  0  0  0  0  0  0  0  0  0
  -24.3160   -9.4480   21.8880 C   0  0  0  0  0  3  0  0  0  0  0  0
  -23.5520   -8.2760   22.0740 C   0  0  0  0  0  3  0  0  0  0  0  0
  -22.3780   -8.0660   21.3120 C   0  0  0  0  0  0  0  0  0  0  0  0
  -22.0030   -9.0250   20.3540 C   0  0  0  0  0  3  0  0  0  0  0  0
  -22.7680  -10.1870   20.1640 C   0  0  0  0  0  3  0  0  0  0  0  0
  -21.5870   -6.9460   21.4070 O   0  0  0  0  0  0  0  0  0  0  0  0
  -21.4610   -6.2500   22.5810 C   0  0  0  0  0  0  0  0  0  0  0  0
  -20.9340   -6.8480   23.7460 C   0  0  0  0  0  3  0  0  0  0  0  0
  -20.7540   -6.0780   24.9130 C   0  0  0  0  0  3  0  0  0  0  0  0
  -21.0940   -4.7120   24.9150 C   0  0  0  0  0  0  0  0  0  0  0  0
  -21.6130   -4.1140   23.7540 C   0  0  0  0  0  3  0  0  0  0  0  0
  -21.7930   -4.8800   22.5890 C   0  0  0  0  0  0  0  0  0  0  0  0
  -22.2740   -4.2910   21.4670 F   0  0  0  0  0  0  0  0  0  0  0  0
  -20.9160   -3.9720   26.0350 F   0  0  0  0  0  0  0  0  0  0  0  0
  -22.9300  -13.5470   21.2160 C   0  0  0  0  0  0  0  0  0  0  0  0
  -22.2290  -12.8650   22.1130 N   0  0  0  0  0  0  0  0  0  0  0  0
  -22.5010  -14.6000   20.7450 O   0  0  0  0  0  0  0  0  0  0  0  0
  -22.5840  -12.0090   22.5150 H   0  0  0  0  0  0  0  0  0  0  0  0
  -21.3230  -13.2020   22.4030 H   0  0  0  0  0  0  0  0  0  0  0  0
  -25.5760  -15.1320   20.2760 N   0  0  0  0  0  0  0  0  0  0  0  0
  -24.8490  -15.8200   20.4430 H   0  0  0  0  0  0  0  0  0  0  0  0
  -26.4130  -15.5420   19.8820 H   0  0  0  0  0  0  0  0  0  0  0  0
  -32.4000  -18.8000   17.0200 C   0  0  0  0  0  2  0  0  0  0  0  0
  -32.8880  -17.3870   16.6450 C   0  0  0  0  0  2  0  0  0  0  0  0
  -32.8130  -15.4860   14.9550 C   0  0  0  0  0  1  0  0  0  0  0  0
  -32.3790  -16.9210   15.2710 C   0  0  0  0  0  2  0  0  0  0  0  0
  -34.2030  -22.3850   21.2760 C   0  0  0  0  0  2  0  0  0  0  0  0
  -34.8570  -24.2500   19.7180 C   0  0  0  0  0  3  0  0  0  0  0  0
  -35.9330  -24.8380   18.8530 C   0  0  0  0  0  1  0  0  0  0  0  0
  -33.6500  -24.8480   19.8200 N   0  0  0  0  0  0  0  0  0  0  0  0
  -35.1270  -23.1160   20.3970 N   0  0  0  0  0  0  0  0  0  0  0  0
  -32.9250  -24.3960   20.3580 H   0  0  0  0  0  0  0  0  0  0  0  0
  -36.0470  -22.7030   20.2990 H   0  0  0  0  0  0  0  0  0  0  0  0
  -33.2440  -26.0790   19.1260 C   0  0  0  0  0  2  0  0  0  0  0  0
  -32.1330  -26.8320   19.8720 C   0  0  0  0  0  2  0  0  0  0  0  0
  -30.7440  -26.1860   19.7420 C   0  0  0  0  0  2  0  0  0  0  0  0
  -29.6280  -27.0970   20.2740 C   0  0  0  0  0  2  0  0  0  0  0  0
  -28.3650  -26.5110   19.9780 O   0  0  0  0  0  0  0  0  0  0  0  0
  -24.6680  -31.7130   23.2240 C   0  0  0  0  0  0  0  0  0  0  0  0
  -27.2420  -27.3050   20.0630 C   0  0  0  0  0  0  0  0  0  0  0  0
  -23.4390  -30.3900   21.5290 C   0  0  0  0  0  3  0  0  0  0  0  0
  -24.8670  -28.8420   20.0910 C   0  0  0  0  0  0  0  0  0  0  0  0
  -25.9700  -30.6880   21.3670 C   0  0  0  0  0  2  0  0  0  0  0  0
  -26.0260  -29.3300   20.7040 C   0  0  0  0  0  0  0  0  0  0  0  0
  -27.2110  -28.5700   20.6980 C   0  0  0  0  0  3  0  0  0  0  0  0
  -26.0630  -26.8190   19.4620 C   0  0  0  0  0  3  0  0  0  0  0  0
  -24.8770  -27.5810   19.4690 C   0  0  0  0  0  3  0  0  0  0  0  0
  -23.6450  -29.7310   20.1370 C   0  0  0  0  0  2  0  0  0  0  0  0
  -24.7100  -30.9430   22.1000 N   0  0  0  0  0  0  0  0  0  0  0  0
  -23.5890  -32.0050   23.7590 O   0  0  0  0  0  0  0  0  0  0  0  0
  -22.7460  -29.3670   22.4560 C   0  0  0  0  0  0  0  0  0  0  0  0
  -21.4190  -29.2320   22.3080 N   0  0  0  0  0  0  0  0  0  0  0  0
  -23.4000  -28.6990   23.2620 O   0  0  0  0  0  0  0  0  0  0  0  0
  -20.9560  -29.8210   21.6300 H   0  0  0  0  0  0  0  0  0  0  0  0
  -18.0010  -28.1460   22.7370 C   0  0  0  0  0  0  0  0  0  0  0  0
  -20.5630  -28.3020   23.0440 C   0  0  0  0  0  3  0  0  0  0  0  0
  -20.6190  -26.8850   22.4270 C   0  0  0  0  0  2  0  0  0  0  0  0
  -19.5190  -26.6330   21.3930 C   0  0  0  0  0  2  0  0  0  0  0  0
  -18.1370  -26.8100   22.0260 C   0  0  0  0  0  2  0  0  0  0  0  0
  -19.1400  -28.8550   23.2000 C   0  0  0  0  0  0  0  0  0  0  0  0
  -18.9620  -30.1080   23.8230 C   0  0  0  0  0  3  0  0  0  0  0  0
  -17.6750  -30.6540   23.9880 C   0  0  0  0  0  3  0  0  0  0  0  0
  -16.5490  -29.9410   23.5400 C   0  0  0  0  0  3  0  0  0  0  0  0
  -16.7120  -28.6900   22.9210 C   0  0  0  0  0  3  0  0  0  0  0  0
  -25.9670  -32.2850   23.8750 C   0  0  0  0  0  3  0  0  0  0  0  0
  -25.6950  -33.6780   24.2540 N   0  0  0  0  0  0  0  0  0  0  0  0
  -26.0590  -34.7470   23.5310 C   0  0  0  0  0  0  0  0  0  0  0  0
  -26.7310  -34.6600   22.4990 O   0  0  0  0  0  0  0  0  0  0  0  0
  -25.0990  -33.8210   25.0560 H   0  0  0  0  0  0  0  0  0  0  0  0
  -24.3890  -36.5990   23.2180 C   0  0  0  0  0  1  0  0  0  0  0  0
  -25.6060  -36.1300   24.0320 C   0  0  0  0  0  3  0  0  0  0  0  0
  -27.7470  -36.9260   24.9330 C   0  0  0  0  0  1  0  0  0  0  0  0
  -26.6700  -37.1550   23.9730 N   0  0  0  0  0  0  0  0  0  0  0  0
  -26.2880  -38.0820   24.1420 H   0  0  0  0  0  0  0  0  0  0  0  0
  -26.4570  -31.4520   25.1220 C   0  0  1  0  0  0  0  0  0  0  0  0
  -25.3530  -31.2050   26.1780 C   0  0  0  0  0  1  0  0  0  0  0  0
  -27.0010  -30.0750   24.6750 C   0  0  0  0  0  1  0  0  0  0  0  0
  -27.6290  -32.1850   25.8150 C   0  0  0  0  0  1  0  0  0  0  0  0
  1  2  1  0
  1 55  1  0
  3  4  1  0
  4 11  1  0
  4  2  1  0
  5  3  2  0
  6  7  1  0
  7 10  2  0
  8 11  1  0
  8  6  2  0
  9 10  1  0
  9 12  1  0
 10 21  1  0
 11  9  2  0
 13 21  1  0
 14 19  1  0
 15 16  1  0
 15 14  1  0
 17 16  1  0
 17 26  1  0
 17 18  1  0
 19 13  1  0
 19 18  1  0
 20 13  2  0
 21 22  1  0
 23 24  2  0
 24 43  1  0
 25 24  1  0
 25 28  1  0
 26 27  1  0
 26 23  1  0
 27 25  2  0
 28 29  1  0
 29 30  2  0
 31 34  1  0
 31 30  1  0
 32 31  2  0
 33 32  1  0
 33 28  2  0
 34 35  1  0
 35 40  2  0
 35 36  1  0
 36 37  2  0
 37 38  1  0
 38 42  1  0
 39 38  2  0
 40 39  1  0
 41 40  1  0
 43 44  1  0
 44 47  1  0
 44 46  1  0
 45 43  2  0
 48 23  1  0
 48 49  1  0
 50 48  1  0
 51  3  1  0
 52 51  1  0
 53 54  1  0
 54 52  1  0
 56 57  1  0
 56 58  1  0
 56 59  1  0
 58 60  1  0
 59 55  1  0
 61 59  1  0
 62 58  1  0
 62 63  1  0
 64 63  1  0
 64 65  1  0
 66 68  1  0
 66 65  1  0
 67 78  2  0
 68 73  1  0
 69 77  1  0
 69 79  1  0
 70 76  1  0
 70 72  1  0
 71 77  1  0
 72 71  1  0
 73 72  2  0
 74 75  1  0
 74 68  2  0
 75 70  2  0
 76 69  1  0
 77 67  1  0
 79 81  2  0
 80 79  1  0
 82 80  1  0
 83 92  2  0
 83 88  1  0
 84 80  1  0
 84 88  1  0
 85 84  1  0
 86 87  1  0
 86 85  1  0
 87 83  1  0
 88 89  2  0
 89 90  1  0
 91 90  2  0
 92 91  1  0
 93 67  1  0
 93 94  1  0
 93103  1  0
 94 97  1  0
 95 99  1  0
 95 94  1  0
 96 95  2  0
 99 98  1  0
101 99  1  0
101102  1  0
101100  1  0
103106  1  1
103104  1  0
105103  1  0
M  ISO  4  13 100  21 100  65 101  66 101
M  END
>  <TORSDO>  (69) 
F 28

>  <SCORE>  (69) 
-10.338

>  <name>  (69) 
68

>  <ligand_id>  (69) 
68

>  <original_smiles>  (69) 
[H]c1c([H])c(N([H])C(=O)N2C([H])([H])C([H])([H])C([H])([H])C([H])(n3nc(-c4c([H])c([H])c(Oc5c([H])c([H])c(F)c([H])c5F)c([H])c4[H])c(C(=O)N([H])[H])c3N([H])[H])C2([H])[H])c(C([H])([H])[H])c(N(C(=O)C([H])([H])C([H])([H])C([H])([H])C([H])([H])[H])C([H])([H])C([H])([H])C([H])([H])[N+]([H])=C(N([H])C([H])([H])C([H])([H])C([H])([H])C([H])([H])Oc2c([H])c([H])c3c(c2[H])C([H])([H])N(C(=O)C([H])(N([H])C(=O)C([H])(N([H])C([H])([H])[H])C([H])([H])[H])C(C([H])([H])[H])(C([H])([H])[H])C([H])([H])[H])C([H])(C(=O)N([H])C2([H])c4c([H])c([H])c([H])c([H])c4C([H])([H])C([H])([H])C2([H])[H])C3([H])[H])C([H])([H])[H])c1[H]

>  <smiles>  (69) 
[H]c1c([H])c(N([H])C(=O)N2C([H])([H])C([H])([H])C([H])([H])C([H])(n3nc(-c4c([H])c([H])c(Oc5c([H])c([H])c(F)c([H])c5F)c([H])c4[H])c(C(=O)N([H])[H])c3N([H])[H])C2([H])[H])c(C([H])([H])[H])c(N(C(=O)C([H])([H])C([H])([H])C([H])([H])C([H])([H])[H])C([H])([H])C([H])([H])C([H])([H])[N+]([H])=C(N([H])C([H])([H])C([H])([H])C([H])([H])C([H])([H])Oc2c([H])c([H])c3c(c2[H])C([H])([H])N(C(=O)C([H])(N([H])C(=O)C([H])(N([H])C([H])([H])[H])C([H])([H])[H])C(C([H])([H])[H])(C([H])([H])[H])C([H])([H])[H])C([H])(C(=O)N([H])C2([H])c4c([H])c([H])c([H])c([H])c4C([H])([H])C([H])([H])C2([H])[H])C3([H])[H])C([H])([H])[H])c1[H]

$$$$
69:0:0
     RDKit          3D

 98106  0  0  1  0  0  0  0  0999 V2000
  -25.4140  -21.5080   18.7130 C   0  0  0  0  0  2  0  0  0  0  0  0
  -26.4270  -20.9000   19.7050 C   0  0  0  0  0  2  0  0  0  0  0  0
  -27.4680  -19.9500   19.0960 C   0  0  0  0  0  2  0  0  0  0  0  0
  -28.6190  -20.0040   19.9340 O   0  0  0  0  0  0  0  0  0  0  0  0
  -31.2680  -17.7680   21.1770 C   0  0  0  0  0  3  0  0  0  0  0  0
  -29.6590  -18.0170   18.8850 C   0  0  0  0  0  3  0  0  0  0  0  0
  -31.4330  -16.8540   20.1170 C   0  0  0  0  0  0  0  0  0  0  0  0
  -29.5060  -18.9440   19.9450 C   0  0  0  0  0  0  0  0  0  0  0  0
  -30.3090  -18.7960   21.0950 C   0  0  0  0  0  0  0  0  0  0  0  0
  -30.6120  -16.9790   18.9680 C   0  0  0  0  0  0  0  0  0  0  0  0
  -30.1800  -19.6680   22.1260 F   0  0  0  0  0  0  0  0  0  0  0  0
  -30.7450  -16.1300   17.9220 F   0  0  0  0  0  0  0  0  0  0  0  0
  -32.7710  -14.9380   19.3410 C   0  0  0  0  0  0  0  0  0  0  0  0
  -32.2540  -12.6660   18.5350 C   0  0  0  0  0  2  0  0  0  0  0  0
  -31.1940  -12.6730   17.4210 C   0  0  0  0  0  2  0  0  0  0  0  0
  -29.7770  -12.6420   18.0240 C   0  0  0  0  0  2  0  0  0  0  0  0
  -29.5790  -13.7130   19.1290 C   0  0  0  0  0  3  0  0  0  0  0  0
  -30.7370  -13.6650   20.1490 C   0  0  0  0  0  2  0  0  0  0  0  0
  -32.0020  -13.8210   19.4090 N   0  0  0  0  0  0  0  0  0  0  0  0
  -33.7460  -15.0440   18.5930 O   0  0  0  0  0  0  0  0  0  0  0  0
  -32.4970  -15.9140   20.2150 N   0  0  0  0  0  0  0  0  0  0  0  0
  -33.3480  -16.3590   20.5220 H   0  0  0  0  0  0  0  0  0  0  0  0
  -27.4070  -14.5610   20.2240 C   0  0  0  0  0  0  0  0  0  0  0  0
  -26.3050  -13.9020   20.6940 C   0  0  0  0  0  0  0  0  0  0  0  0
  -26.5630  -12.5100   20.4980 C   0  0  0  0  0  0  0  0  0  0  0  0
  -28.2780  -13.5770   19.7800 N   0  0  0  0  0  0  0  0  0  0  0  0
  -27.7780  -12.3340   19.9970 N   0  0  0  0  0  0  0  0  0  0  0  0
  -25.7010  -11.3400   20.7030 C   0  0  0  0  0  0  0  0  0  0  0  0
  -25.9460  -10.4170   21.7450 C   0  0  0  0  0  3  0  0  0  0  0  0
  -25.0940   -9.3090   21.9360 C   0  0  0  0  0  3  0  0  0  0  0  0
  -23.9820   -9.1140   21.0810 C   0  0  0  0  0  0  0  0  0  0  0  0
  -23.7560  -10.0220   20.0310 C   0  0  0  0  0  3  0  0  0  0  0  0
  -24.6090  -11.1220   19.8410 C   0  0  0  0  0  3  0  0  0  0  0  0
  -23.1170   -8.0500   21.1730 O   0  0  0  0  0  0  0  0  0  0  0  0
  -22.6230   -7.6270   22.3810 C   0  0  0  0  0  0  0  0  0  0  0  0
  -21.9530   -8.5060   23.2610 C   0  0  0  0  0  3  0  0  0  0  0  0
  -21.4000   -8.0150   24.4610 C   0  0  0  0  0  3  0  0  0  0  0  0
  -21.5050   -6.6470   24.7770 C   0  0  0  0  0  0  0  0  0  0  0  0
  -22.1670   -5.7690   23.9000 C   0  0  0  0  0  3  0  0  0  0  0  0
  -22.7220   -6.2590   22.7030 C   0  0  0  0  0  0  0  0  0  0  0  0
  -23.3400   -5.4050   21.8520 F   0  0  0  0  0  0  0  0  0  0  0  0
  -20.9670   -6.1730   25.9250 F   0  0  0  0  0  0  0  0  0  0  0  0
  -25.0390  -14.5260   21.2040 C   0  0  0  0  0  0  0  0  0  0  0  0
  -24.3260  -13.8370   22.0880 N   0  0  0  0  0  0  0  0  0  0  0  0
  -24.6970  -15.6560   20.8540 O   0  0  0  0  0  0  0  0  0  0  0  0
  -24.6180  -12.9210   22.3960 H   0  0  0  0  0  0  0  0  0  0  0  0
  -23.4760  -14.2340   22.4660 H   0  0  0  0  0  0  0  0  0  0  0  0
  -27.7330  -15.9100   20.1200 N   0  0  0  0  0  0  0  0  0  0  0  0
  -27.0710  -16.6360   20.3730 H   0  0  0  0  0  0  0  0  0  0  0  0
  -28.5500  -16.2640   19.6430 H   0  0  0  0  0  0  0  0  0  0  0  0
  -25.4700  -23.0420   18.5870 C   0  0  0  0  0  2  0  0  0  0  0  0
  -27.6040  -23.7540   19.6660 C   0  0  0  0  0  0  0  0  0  0  0  0
  -26.8390  -23.5470   18.5870 N   0  0  0  0  0  0  0  0  0  0  0  0
  -27.2530  -23.4470   20.8060 O   0  0  0  0  0  0  0  0  0  0  0  0
  -27.2120  -23.8440   17.6950 H   0  0  0  0  0  0  0  0  0  0  0  0
  -28.9780  -24.3850   19.4120 C   0  0  0  0  0  2  0  0  0  0  0  0
  -29.4510  -25.3460   20.5270 C   0  0  0  0  0  2  0  0  0  0  0  0
  -29.4780  -26.7180   20.1250 O   0  0  0  0  0  0  0  0  0  0  0  0
  -25.9100  -30.4970   25.0020 C   0  0  0  0  0  0  0  0  0  0  0  0
  -28.3700  -27.4670   20.4330 C   0  0  0  0  0  0  0  0  0  0  0  0
  -24.7210  -30.0820   22.8720 C   0  0  0  0  0  3  0  0  0  0  0  0
  -26.1360  -29.1000   20.9920 C   0  0  0  0  0  0  0  0  0  0  0  0
  -27.2780  -30.1650   22.9480 C   0  0  0  0  0  2  0  0  0  0  0  0
  -27.2830  -29.1840   21.7940 C   0  0  0  0  0  0  0  0  0  0  0  0
  -28.4040  -28.3690   21.5180 C   0  0  0  0  0  3  0  0  0  0  0  0
  -27.2160  -27.4030   19.6270 C   0  0  0  0  0  3  0  0  0  0  0  0
  -26.0930  -28.2030   19.9110 C   0  0  0  0  0  3  0  0  0  0  0  0
  -24.9840  -30.0150   21.3450 C   0  0  0  0  0  2  0  0  0  0  0  0
  -25.9840  -30.2350   23.6660 N   0  0  0  0  0  0  0  0  0  0  0  0
  -24.8170  -30.6530   25.5650 O   0  0  0  0  0  0  0  0  0  0  0  0
  -23.8910  -28.8440   23.2780 C   0  0  0  0  0  0  0  0  0  0  0  0
  -22.6070  -28.8280   22.8840 N   0  0  0  0  0  0  0  0  0  0  0  0
  -24.4090  -27.9150   23.9060 O   0  0  0  0  0  0  0  0  0  0  0  0
  -22.2590  -29.6310   22.3790 H   0  0  0  0  0  0  0  0  0  0  0  0
  -19.2850  -27.6680   22.0740 C   0  0  0  0  0  0  0  0  0  0  0  0
  -21.6480  -27.7520   23.1200 C   0  0  0  0  0  3  0  0  0  0  0  0
  -21.9680  -26.5230   22.2380 C   0  0  0  0  0  2  0  0  0  0  0  0
  -21.2150  -26.5280   20.9050 C   0  0  0  0  0  2  0  0  0  0  0  0
  -19.7030  -26.5400   21.1480 C   0  0  0  0  0  2  0  0  0  0  0  0
  -20.2050  -28.2480   22.9890 C   0  0  0  0  0  0  0  0  0  0  0  0
  -19.7760  -29.3190   23.8020 C   0  0  0  0  0  3  0  0  0  0  0  0
  -18.4600  -29.8140   23.7110 C   0  0  0  0  0  3  0  0  0  0  0  0
  -17.5510  -29.2210   22.8180 C   0  0  0  0  0  3  0  0  0  0  0  0
  -17.9610  -28.1500   22.0060 C   0  0  0  0  0  3  0  0  0  0  0  0
  -27.1920  -30.6380   25.8810 C   0  0  0  0  0  3  0  0  0  0  0  0
  -27.2700  -32.0340   26.3270 N   0  0  0  0  0  0  0  0  0  0  0  0
  -28.0700  -32.9630   25.7850 C   0  0  0  0  0  0  0  0  0  0  0  0
  -28.8840  -32.7080   24.8940 O   0  0  0  0  0  0  0  0  0  0  0  0
  -26.5950  -32.3230   27.0200 H   0  0  0  0  0  0  0  0  0  0  0  0
  -27.1320  -35.2530   25.3320 C   0  0  0  0  0  1  0  0  0  0  0  0
  -27.9490  -34.4030   26.3190 C   0  0  0  0  0  3  0  0  0  0  0  0
  -29.9810  -34.4670   27.6950 C   0  0  0  0  0  1  0  0  0  0  0  0
  -29.2560  -35.0500   26.5700 N   0  0  0  0  0  0  0  0  0  0  0  0
  -29.1390  -36.0440   26.7470 H   0  0  0  0  0  0  0  0  0  0  0  0
  -27.2120  -29.6540   27.1160 C   0  0  1  0  0  0  0  0  0  0  0  0
  -25.9410  -29.7300   27.9930 C   0  0  0  0  0  1  0  0  0  0  0  0
  -27.3740  -28.1910   26.6420 C   0  0  0  0  0  1  0  0  0  0  0  0
  -28.4330  -29.9650   28.0140 C   0  0  0  0  0  1  0  0  0  0  0  0
  1  2  1  0
  3  2  1  0
  3  4  1  0
  4  8  1  0
  6 10  2  0
  6  8  1  0
  7 21  1  0
  7  5  2  0
  8  9  2  0
  9  5  1  0
  9 11  1  0
 10  7  1  0
 12 10  1  0
 13 19  1  0
 13 21  1  0
 14 19  1  0
 15 16  1  0
 15 14  1  0
 17 16  1  0
 17 26  1  0
 17 18  1  0
 19 18  1  0
 20 13  2  0
 21 22  1  0
 23 24  2  0
 24 43  1  0
 25 24  1  0
 25 28  1  0
 26 27  1  0
 26 23  1  0
 27 25  2  0
 28 29  1  0
 29 30  2  0
 31 34  1  0
 31 30  1  0
 32 31  2  0
 33 32  1  0
 33 28  2  0
 34 35  1  0
 35 40  2  0
 35 36  1  0
 36 37  2  0
 37 38  1  0
 38 42  1  0
 39 38  2  0
 40 39  1  0
 41 40  1  0
 43 44  1  0
 44 46  1  0
 44 47  1  0
 45 43  2  0
 48 23  1  0
 48 49  1  0
 50 48  1  0
 51 53  1  0
 51  1  1  0
 52 54  2  0
 53 52  1  0
 55 53  1  0
 56 52  1  0
 56 57  1  0
 58 60  1  0
 58 57  1  0
 59 70  2  0
 60 65  1  0
 61 71  1  0
 61 69  1  0
 62 68  1  0
 62 64  1  0
 63 69  1  0
 64 63  1  0
 65 64  2  0
 66 67  1  0
 66 60  2  0
 67 62  2  0
 68 61  1  0
 69 59  1  0
 71 73  2  0
 72 71  1  0
 74 72  1  0
 75 80  1  0
 76 72  1  0
 77 76  1  0
 78 79  1  0
 78 77  1  0
 79 75  1  0
 80 76  1  0
 80 81  2  0
 82 81  1  0
 83 82  2  0
 84 75  2  0
 84 83  1  0
 85 59  1  0
 85 86  1  0
 85 95  1  0
 86 89  1  0
 87 91  1  0
 87 86  1  0
 88 87  2  0
 91 90  1  0
 91 93  1  0
 93 94  1  0
 93 92  1  0
 95 96  1  1
 95 98  1  0
 97 95  1  0
M  ISO  4  13 100  21 100  57 101  58 101
M  END
>  <TORSDO>  (70) 
F 24

>  <SCORE>  (70) 
-6.954

>  <name>  (70) 
69

>  <ligand_id>  (70) 
69

>  <original_smiles>  (70) 
[H]c1c([H])c([H])c2c(c1[H])C([H])([H])C([H])([H])C([H])([H])C2([H])N([H])C(=O)C1([H])N(C(=O)C([H])(N([H])C(=O)C([H])(N([H])C([H])([H])[H])C([H])([H])[H])C(C([H])([H])[H])(C([H])([H])[H])C([H])([H])[H])C([H])([H])c2c([H])c(OC([H])([H])C([H])([H])C(=O)N([H])C([H])([H])C([H])([H])C([H])([H])C([H])([H])Oc3c([H])c(F)c(N([H])C(=O)N4C([H])([H])C([H])([H])C([H])([H])C([H])(n5nc(-c6c([H])c([H])c(Oc7c([H])c([H])c(F)c([H])c7F)c([H])c6[H])c(C(=O)N([H])[H])c5N([H])[H])C4([H])[H])c([H])c3F)c([H])c([H])c2C1([H])[H]

>  <smiles>  (70) 
[H]c1c([H])c([H])c2c(c1[H])C([H])([H])C([H])([H])C([H])([H])C2([H])N([H])C(=O)C1([H])N(C(=O)C([H])(N([H])C(=O)C([H])(N([H])C([H])([H])[H])C([H])([H])[H])C(C([H])([H])[H])(C([H])([H])[H])C([H])([H])[H])C([H])([H])c2c([H])c(OC([H])([H])C([H])([H])C(=O)N([H])C([H])([H])C([H])([H])C([H])([H])C([H])([H])Oc3c([H])c(F)c(N([H])C(=O)N4C([H])([H])C([H])([H])C([H])([H])C([H])(n5nc(-c6c([H])c([H])c(Oc7c([H])c([H])c(F)c([H])c7F)c([H])c6[H])c(C(=O)N([H])[H])c5N([H])[H])C4([H])[H])c([H])c3F)c([H])c([H])c2C1([H])[H]

$$$$
70:0:0
     RDKit          3D

 90 98  0  0  1  0  0  0  0  0999 V2000
  -31.0370  -17.8480   19.7940 C   0  0  0  0  0  3  0  0  0  0  0  0
  -31.0560  -19.2630   19.6190 C   0  0  0  0  0  3  0  0  0  0  0  0
  -28.7190  -19.3840   20.1310 C   0  0  0  0  0  3  0  0  0  0  0  0
  -28.6910  -17.9660   20.3360 C   0  0  0  0  0  0  0  0  0  0  0  0
  -29.8560  -17.1490   20.1620 C   0  0  0  0  0  0  0  0  0  0  0  0
  -29.9050  -20.0780   19.7770 C   0  0  0  0  0  0  0  0  0  0  0  0
  -27.3620  -17.3680   20.7740 C   0  0  0  0  0  1  0  0  0  0  0  0
  -30.5430  -14.6380   19.8960 C   0  0  0  0  0  0  0  0  0  0  0  0
  -30.2480  -12.4020   18.8490 C   0  0  0  0  0  2  0  0  0  0  0  0
  -29.2180  -12.5400   17.7050 C   0  0  0  0  0  2  0  0  0  0  0  0
  -27.7780  -12.3880   18.2380 C   0  0  0  0  0  2  0  0  0  0  0  0
  -27.5170  -13.2470   19.5040 C   0  0  0  0  0  3  0  0  0  0  0  0
  -28.6530  -13.0760   20.5380 C   0  0  0  0  0  2  0  0  0  0  0  0
  -29.9200  -13.4160   19.8710 N   0  0  0  0  0  0  0  0  0  0  0  0
  -31.6730  -14.7830   19.4200 O   0  0  0  0  0  0  0  0  0  0  0  0
  -29.7780  -15.6910   20.3340 N   0  0  0  0  0  0  0  0  0  0  0  0
  -28.9180  -15.3800   20.7590 H   0  0  0  0  0  0  0  0  0  0  0  0
  -25.1920  -13.8620   20.4110 C   0  0  0  0  0  0  0  0  0  0  0  0
  -24.1470  -13.0950   20.8510 C   0  0  0  0  0  0  0  0  0  0  0  0
  -24.5860  -11.7390   20.7570 C   0  0  0  0  0  0  0  0  0  0  0  0
  -26.2050  -12.9730   20.0830 N   0  0  0  0  0  0  0  0  0  0  0  0
  -25.8480  -11.6900   20.3500 N   0  0  0  0  0  0  0  0  0  0  0  0
  -23.8570  -10.4830   20.9760 C   0  0  0  0  0  0  0  0  0  0  0  0
  -24.3380   -9.4940   21.8630 C   0  0  0  0  0  3  0  0  0  0  0  0
  -23.6100   -8.3030   22.0710 C   0  0  0  0  0  3  0  0  0  0  0  0
  -22.3870   -8.0920   21.3910 C   0  0  0  0  0  0  0  0  0  0  0  0
  -21.9250   -9.0680   20.4900 C   0  0  0  0  0  3  0  0  0  0  0  0
  -22.6530  -10.2510   20.2820 C   0  0  0  0  0  3  0  0  0  0  0  0
  -21.6250   -6.9560   21.5110 O   0  0  0  0  0  0  0  0  0  0  0  0
  -21.6280   -6.2050   22.6580 C   0  0  0  0  0  0  0  0  0  0  0  0
  -21.2620   -6.7520   23.9080 C   0  0  0  0  0  3  0  0  0  0  0  0
  -21.2140   -5.9270   25.0490 C   0  0  0  0  0  3  0  0  0  0  0  0
  -21.5200   -4.5580   24.9440 C   0  0  0  0  0  0  0  0  0  0  0  0
  -21.8770   -4.0100   23.6990 C   0  0  0  0  0  3  0  0  0  0  0  0
  -21.9280   -4.8310   22.5590 C   0  0  0  0  0  0  0  0  0  0  0  0
  -22.2540   -4.2940   21.3590 F   0  0  0  0  0  0  0  0  0  0  0  0
  -21.4640   -3.7630   26.0380 F   0  0  0  0  0  0  0  0  0  0  0  0
  -22.7830  -13.5870   21.2390 C   0  0  0  0  0  0  0  0  0  0  0  0
  -22.1180  -12.8870   22.1520 N   0  0  0  0  0  0  0  0  0  0  0  0
  -22.3170  -14.6230   20.7670 O   0  0  0  0  0  0  0  0  0  0  0  0
  -22.5090  -12.0480   22.5530 H   0  0  0  0  0  0  0  0  0  0  0  0
  -21.2040  -13.1970   22.4560 H   0  0  0  0  0  0  0  0  0  0  0  0
  -25.3540  -15.2320   20.2370 N   0  0  0  0  0  0  0  0  0  0  0  0
  -24.5800  -15.8720   20.3680 H   0  0  0  0  0  0  0  0  0  0  0  0
  -26.1440  -15.6580   19.7700 H   0  0  0  0  0  0  0  0  0  0  0  0
  -30.0280  -21.4740   19.6030 O   0  0  0  0  0  0  0  0  0  0  0  0
  -28.8980  -22.4040   19.6820 C   0  0  0  0  0  3  0  0  0  0  0  0
  -29.2650  -23.9570   19.5920 C   0  0  0  0  0  3  0  0  0  0  0  0
  -28.0590  -24.9850   19.4690 C   0  0  0  0  0  2  0  0  0  0  0  0
  -28.2720  -26.4470   19.6110 O   0  0  0  0  0  0  0  0  0  0  0  0
  -24.5500  -31.6070   23.0560 C   0  0  0  0  0  0  0  0  0  0  0  0
  -27.1330  -27.2730   19.6600 C   0  0  0  0  0  0  0  0  0  0  0  0
  -23.3190  -30.2970   21.3660 C   0  0  0  0  0  3  0  0  0  0  0  0
  -24.7470  -28.8510   19.8190 C   0  0  0  0  0  0  0  0  0  0  0  0
  -25.8510  -30.6530   21.1410 C   0  0  0  0  0  2  0  0  0  0  0  0
  -25.9280  -29.3190   20.4090 C   0  0  0  0  0  0  0  0  0  0  0  0
  -27.1240  -28.5430   20.3170 C   0  0  0  0  0  3  0  0  0  0  0  0
  -25.9190  -26.8590   19.0610 C   0  0  0  0  0  3  0  0  0  0  0  0
  -24.7440  -27.6260   19.1390 C   0  0  0  0  0  3  0  0  0  0  0  0
  -23.5030  -29.7050   19.9460 C   0  0  0  0  0  2  0  0  0  0  0  0
  -24.5930  -30.8660   21.9110 N   0  0  0  0  0  0  0  0  0  0  0  0
  -23.4770  -31.8420   23.6320 O   0  0  0  0  0  0  0  0  0  0  0  0
  -22.6880  -29.2180   22.2800 C   0  0  0  0  0  0  0  0  0  0  0  0
  -21.3630  -29.0260   22.1630 N   0  0  0  0  0  0  0  0  0  0  0  0
  -23.3900  -28.5600   23.0520 O   0  0  0  0  0  0  0  0  0  0  0  0
  -20.8550  -29.6110   21.5140 H   0  0  0  0  0  0  0  0  0  0  0  0
  -18.0120  -27.7560   22.6540 C   0  0  0  0  0  0  0  0  0  0  0  0
  -20.5710  -28.0350   22.8950 C   0  0  0  0  0  3  0  0  0  0  0  0
  -20.6810  -26.6400   22.2380 C   0  0  0  0  0  2  0  0  0  0  0  0
  -19.5650  -26.3580   21.2270 C   0  0  0  0  0  2  0  0  0  0  0  0
  -18.1930  -26.4490   21.9020 C   0  0  0  0  0  2  0  0  0  0  0  0
  -19.1280  -28.5090   23.1060 C   0  0  0  0  0  0  0  0  0  0  0  0
  -18.9040  -29.7350   23.7700 C   0  0  0  0  0  3  0  0  0  0  0  0
  -17.5960  -30.2070   23.9870 C   0  0  0  0  0  3  0  0  0  0  0  0
  -16.4940  -29.4510   23.5510 C   0  0  0  0  0  3  0  0  0  0  0  0
  -16.7030  -28.2270   22.8910 C   0  0  0  0  0  3  0  0  0  0  0  0
  -25.8420  -32.2150   23.6840 C   0  0  0  0  0  3  0  0  0  0  0  0
  -26.3720  -31.3960   24.9260 C   0  0  1  0  0  0  0  0  0  0  0  0
  -25.2940  -31.1280   26.0010 C   0  0  0  0  0  1  0  0  0  0  0  0
  -26.9420  -30.0300   24.4790 C   0  0  0  0  0  1  0  0  0  0  0  0
  -27.5370  -32.1610   25.5990 C   0  0  0  0  0  1  0  0  0  0  0  0
  -25.5400  -33.6010   24.0680 N   0  0  0  0  0  0  0  0  0  0  0  0
  -25.8530  -34.6790   23.3380 C   0  0  0  0  0  0  0  0  0  0  0  0
  -26.4970  -34.6110   22.2870 O   0  0  0  0  0  0  0  0  0  0  0  0
  -24.9650  -33.7270   24.8900 H   0  0  0  0  0  0  0  0  0  0  0  0
  -24.1080  -36.4750   23.0970 C   0  0  0  0  0  1  0  0  0  0  0  0
  -25.3770  -36.0510   23.8550 C   0  0  0  0  0  3  0  0  0  0  0  0
  -27.5300  -36.9220   24.6490 C   0  0  0  0  0  1  0  0  0  0  0  0
  -26.4030  -37.1100   23.7400 N   0  0  0  0  0  0  0  0  0  0  0  0
  -25.9990  -38.0250   23.9220 H   0  0  0  0  0  0  0  0  0  0  0  0
  1  5  1  0
  2  6  1  0
  2  1  2  0
  3  4  1  0
  4  7  1  0
  5 16  1  0
  5  4  2  0
  6  3  2  0
  8 16  1  0
  9 14  1  0
 10 11  1  0
 10  9  1  0
 12 11  1  0
 12 21  1  0
 12 13  1  0
 14  8  1  0
 14 13  1  0
 15  8  2  0
 16 17  1  0
 18 19  2  0
 19 38  1  0
 20 19  1  0
 20 23  1  0
 21 22  1  0
 21 18  1  0
 22 20  2  0
 23 24  1  0
 24 25  2  0
 26 29  1  0
 26 25  1  0
 27 26  2  0
 28 27  1  0
 28 23  2  0
 29 30  1  0
 30 31  1  0
 31 32  2  0
 33 32  1  0
 33 37  1  0
 34 33  2  0
 35 30  2  0
 35 34  1  0
 36 35  1  0
 38 39  1  0
 39 42  1  0
 39 41  1  0
 40 38  2  0
 43 44  1  0
 43 18  1  0
 45 43  1  0
 46 47  1  0
 46  6  1  0
 48 47  2  0
 49 48  1  0
 49 50  1  0
 50 52  1  0
 51 62  2  0
 52 57  1  0
 53 61  1  0
 53 63  1  0
 54 60  1  0
 54 56  1  0
 55 61  1  0
 56 55  1  0
 57 56  2  0
 58 59  1  0
 58 52  2  0
 59 54  2  0
 60 53  1  0
 61 51  1  0
 63 65  2  0
 64 63  1  0
 66 64  1  0
 67 76  2  0
 67 72  1  0
 68 64  1  0
 68 72  1  0
 69 68  1  0
 70 71  1  0
 70 69  1  0
 71 67  1  0
 72 73  2  0
 73 74  1  0
 75 74  2  0
 76 75  1  0
 77 51  1  0
 77 82  1  0
 77 78  1  0
 78 81  1  1
 78 79  1  0
 80 78  1  0
 82 85  1  0
 83 87  1  0
 83 82  1  0
 84 83  2  0
 87 86  1  0
 89 87  1  0
 89 90  1  0
 89 88  1  0
M  ISO  4   8 100  16 100  49 101  50 101
M  END
>  <TORSDO>  (71) 
F 20

>  <SCORE>  (71) 
-12.755

>  <name>  (71) 
70

>  <ligand_id>  (71) 
70

>  <original_smiles>  (71) 
[H]c1c([H])c([H])c2c(c1[H])C([H])([H])C([H])([H])C([H])([H])C2([H])N([H])C(=O)C1([H])N(C(=O)C([H])(N([H])C(=O)C([H])(N([H])C([H])([H])[H])C([H])([H])[H])C(C([H])([H])[H])(C([H])([H])[H])C([H])([H])[H])C([H])([H])c2c([H])c(OC([H])([H])C([H])([H])C([H])([H])Oc3c([H])c([H])c(N([H])C(=O)N4C([H])([H])C([H])([H])C([H])([H])C([H])(n5nc(-c6c([H])c([H])c(Oc7c([H])c([H])c(F)c([H])c7F)c([H])c6[H])c(C(=O)N([H])[H])c5N([H])[H])C4([H])[H])c(C([H])([H])[H])c3[H])c([H])c([H])c2C1([H])[H]

>  <smiles>  (71) 
[H]c1c([H])c([H])c2c(c1[H])C([H])([H])C([H])([H])C([H])([H])C2([H])N([H])C(=O)C1([H])N(C(=O)C([H])(N([H])C(=O)C([H])(N([H])C([H])([H])[H])C([H])([H])[H])C(C([H])([H])[H])(C([H])([H])[H])C([H])([H])[H])C([H])([H])c2c([H])c(OC([H])([H])C([H])([H])C([H])([H])Oc3c([H])c([H])c(N([H])C(=O)N4C([H])([H])C([H])([H])C([H])([H])C([H])(n5nc(-c6c([H])c([H])c(Oc7c([H])c([H])c(F)c([H])c7F)c([H])c6[H])c(C(=O)N([H])[H])c5N([H])[H])C4([H])[H])c(C([H])([H])[H])c3[H])c([H])c([H])c2C1([H])[H]

$$$$
71:0:0
     RDKit          3D

 88 95  0  0  1  0  0  0  0  0999 V2000
  -29.3680  -23.5970   21.9680 C   0  0  0  0  0  1  0  0  0  0  0  0
  -29.0560  -23.4340   20.4700 C   0  0  0  0  0  3  0  0  0  0  0  0
  -29.5850  -20.7320   20.4120 C   0  0  0  0  0  0  0  0  0  0  0  0
  -27.4330  -21.6170   19.6300 C   0  0  0  0  0  1  0  0  0  0  0  0
  -28.7540  -21.8840   20.1980 N   0  0  0  0  0  0  0  0  0  0  0  0
  -30.7450  -20.9170   20.7870 O   0  0  0  0  0  0  0  0  0  0  0  0
  -29.1650  -19.1290   20.2300 C   0  0  0  0  0  3  0  0  0  0  0  0
  -30.2120  -17.8080   20.4260 C   0  0  0  0  0  3  0  0  0  0  0  0
  -30.5750  -15.0730   20.3320 C   0  0  0  0  0  0  0  0  0  0  0  0
  -30.4490  -12.7210   19.3940 C   0  0  0  0  0  2  0  0  0  0  0  0
  -29.5220  -12.6700   18.1580 C   0  0  0  0  0  2  0  0  0  0  0  0
  -28.0580  -12.4590   18.5880 C   0  0  0  0  0  2  0  0  0  0  0  0
  -27.6440  -13.3940   19.7550 C   0  0  0  0  0  3  0  0  0  0  0  0
  -28.6940  -13.4130   20.8870 C   0  0  0  0  0  2  0  0  0  0  0  0
  -29.9670  -13.8190   20.2800 N   0  0  0  0  0  0  0  0  0  0  0  0
  -31.7820  -15.1250   20.0740 O   0  0  0  0  0  0  0  0  0  0  0  0
  -29.8130  -16.2700   20.4660 N   0  0  0  0  0  0  0  0  0  0  0  0
  -28.8300  -16.1000   20.6190 H   0  0  0  0  0  0  0  0  0  0  0  0
  -25.2610  -13.9750   20.4810 C   0  0  0  0  0  0  0  0  0  0  0  0
  -24.1930  -13.2010   20.8450 C   0  0  0  0  0  0  0  0  0  0  0  0
  -24.6570  -11.8500   20.8200 C   0  0  0  0  0  0  0  0  0  0  0  0
  -26.3040  -13.0970   20.2480 N   0  0  0  0  0  0  0  0  0  0  0  0
  -25.9500  -11.8130   20.5200 N   0  0  0  0  0  0  0  0  0  0  0  0
  -23.9280  -10.5880   21.0060 C   0  0  0  0  0  0  0  0  0  0  0  0
  -24.3380   -9.6310   21.9600 C   0  0  0  0  0  3  0  0  0  0  0  0
  -23.6070   -8.4350   22.1330 C   0  0  0  0  0  3  0  0  0  0  0  0
  -22.4540   -8.1880   21.3520 C   0  0  0  0  0  0  0  0  0  0  0  0
  -22.0640   -9.1340   20.3870 C   0  0  0  0  0  3  0  0  0  0  0  0
  -22.7940  -10.3210   20.2120 C   0  0  0  0  0  3  0  0  0  0  0  0
  -21.6980   -7.0440   21.4330 O   0  0  0  0  0  0  0  0  0  0  0  0
  -21.6050   -6.3250   22.5970 C   0  0  0  0  0  0  0  0  0  0  0  0
  -21.0950   -6.8920   23.7850 C   0  0  0  0  0  3  0  0  0  0  0  0
  -20.9520   -6.0970   24.9400 C   0  0  0  0  0  3  0  0  0  0  0  0
  -21.3090   -4.7350   24.9070 C   0  0  0  0  0  0  0  0  0  0  0  0
  -21.8110   -4.1680   23.7230 C   0  0  0  0  0  3  0  0  0  0  0  0
  -21.9550   -4.9590   22.5710 C   0  0  0  0  0  0  0  0  0  0  0  0
  -22.4200   -4.4020   21.4270 F   0  0  0  0  0  0  0  0  0  0  0  0
  -21.1640   -3.9700   26.0130 F   0  0  0  0  0  0  0  0  0  0  0  0
  -22.7940  -13.6790   21.1020 C   0  0  0  0  0  0  0  0  0  0  0  0
  -22.0570  -12.9870   21.9630 N   0  0  0  0  0  0  0  0  0  0  0  0
  -22.3630  -14.7030   20.5730 O   0  0  0  0  0  0  0  0  0  0  0  0
  -22.4170  -12.1600   22.4160 H   0  0  0  0  0  0  0  0  0  0  0  0
  -21.1170  -13.2910   22.1740 H   0  0  0  0  0  0  0  0  0  0  0  0
  -25.4240  -15.3460   20.3010 N   0  0  0  0  0  0  0  0  0  0  0  0
  -24.6520  -15.9960   20.4000 H   0  0  0  0  0  0  0  0  0  0  0  0
  -26.2620  -15.7810   19.9390 H   0  0  0  0  0  0  0  0  0  0  0  0
  -28.0510  -24.7400   20.0570 C   0  0  0  0  0  2  0  0  0  0  0  0
  -28.3020  -26.2660   20.2930 O   0  0  0  0  0  0  0  0  0  0  0  0
  -24.6370  -31.9420   23.2610 C   0  0  0  0  0  0  0  0  0  0  0  0
  -27.2430  -27.2480   20.2200 C   0  0  0  0  0  0  0  0  0  0  0  0
  -23.4500  -30.5510   21.6070 C   0  0  0  0  0  3  0  0  0  0  0  0
  -24.9100  -28.9870   20.1820 C   0  0  0  0  0  0  0  0  0  0  0  0
  -26.0040  -30.8230   21.4580 C   0  0  0  0  0  2  0  0  0  0  0  0
  -26.0850  -29.4340   20.8000 C   0  0  0  0  0  0  0  0  0  0  0  0
  -27.2520  -28.5810   20.8000 C   0  0  0  0  0  3  0  0  0  0  0  0
  -26.0430  -26.9040   19.5620 C   0  0  0  0  0  3  0  0  0  0  0  0
  -24.9020  -27.7360   19.5470 C   0  0  0  0  0  3  0  0  0  0  0  0
  -23.6800  -29.8800   20.2280 C   0  0  0  0  0  2  0  0  0  0  0  0
  -24.7170  -31.1270   22.1640 N   0  0  0  0  0  0  0  0  0  0  0  0
  -23.5480  -32.2220   23.7840 O   0  0  0  0  0  0  0  0  0  0  0  0
  -22.7690  -29.5390   22.5620 C   0  0  0  0  0  0  0  0  0  0  0  0
  -21.4400  -29.3680   22.4280 N   0  0  0  0  0  0  0  0  0  0  0  0
  -23.4360  -28.9110   23.3870 O   0  0  0  0  0  0  0  0  0  0  0  0
  -20.9580  -29.9280   21.7390 H   0  0  0  0  0  0  0  0  0  0  0  0
  -18.0540  -28.1770   22.9220 C   0  0  0  0  0  0  0  0  0  0  0  0
  -20.6150  -28.4260   23.1890 C   0  0  0  0  0  3  0  0  0  0  0  0
  -20.7100  -27.0000   22.6000 C   0  0  0  0  0  2  0  0  0  0  0  0
  -19.6060  -26.6920   21.5830 C   0  0  0  0  0  2  0  0  0  0  0  0
  -18.2250  -26.8350   22.2290 C   0  0  0  0  0  2  0  0  0  0  0  0
  -19.1770  -28.9310   23.3570 C   0  0  0  0  0  0  0  0  0  0  0  0
  -18.9620  -30.1870   23.9650 C   0  0  0  0  0  3  0  0  0  0  0  0
  -17.6590  -30.6890   24.1410 C   0  0  0  0  0  3  0  0  0  0  0  0
  -16.5510  -29.9320   23.7210 C   0  0  0  0  0  3  0  0  0  0  0  0
  -16.7500  -28.6780   23.1170 C   0  0  0  0  0  3  0  0  0  0  0  0
  -25.9110  -32.5780   23.8980 C   0  0  0  0  0  3  0  0  0  0  0  0
  -26.4050  -31.8140   25.1880 C   0  0  1  0  0  0  0  0  0  0  0  0
  -25.2960  -31.5850   26.2410 C   0  0  0  0  0  1  0  0  0  0  0  0
  -26.9950  -30.4340   24.8190 C   0  0  0  0  0  1  0  0  0  0  0  0
  -27.5450  -32.6120   25.8640 C   0  0  0  0  0  1  0  0  0  0  0  0
  -25.5990  -33.9790   24.2220 N   0  0  0  0  0  0  0  0  0  0  0  0
  -25.9200  -35.0310   23.4560 C   0  0  0  0  0  0  0  0  0  0  0  0
  -26.5760  -34.9240   22.4180 O   0  0  0  0  0  0  0  0  0  0  0  0
  -25.0150  -34.1360   25.0300 H   0  0  0  0  0  0  0  0  0  0  0  0
  -24.1770  -36.8180   23.1300 C   0  0  0  0  0  1  0  0  0  0  0  0
  -25.4380  -36.4220   23.9150 C   0  0  0  0  0  3  0  0  0  0  0  0
  -27.5800  -37.3300   24.6990 C   0  0  0  0  0  1  0  0  0  0  0  0
  -26.4630  -37.4790   23.7720 N   0  0  0  0  0  0  0  0  0  0  0  0
  -26.0550  -38.3990   23.9130 H   0  0  0  0  0  0  0  0  0  0  0  0
  2  1  1  0
  3  6  2  0
  4  5  1  0
  5  3  1  0
  5  2  1  0
  7  3  1  0
  7  8  2  0
  8 17  1  0
  9 17  1  0
 10 15  1  0
 11 12  1  0
 11 10  1  0
 13 12  1  0
 13 22  1  0
 13 14  1  0
 15  9  1  0
 15 14  1  0
 16  9  2  0
 17 18  1  0
 19 20  2  0
 20 39  1  0
 21 20  1  0
 21 24  1  0
 22 19  1  0
 22 23  1  0
 23 21  2  0
 24 25  1  0
 25 26  2  0
 27 30  1  0
 27 26  1  0
 28 27  2  0
 29 28  1  0
 29 24  2  0
 30 31  1  0
 31 32  1  0
 32 33  2  0
 34 33  1  0
 34 38  1  0
 35 34  2  0
 36 31  2  0
 36 35  1  0
 37 36  1  0
 39 40  1  0
 40 43  1  0
 40 42  1  0
 41 39  2  0
 44 45  1  0
 44 19  1  0
 46 44  1  0
 47 48  1  0
 47  2  1  0
 49 60  2  0
 50 48  1  0
 50 55  1  0
 51 59  1  0
 51 61  1  0
 52 58  1  0
 52 54  1  0
 53 59  1  0
 54 53  1  0
 55 54  2  0
 56 50  2  0
 57 56  1  0
 57 52  2  0
 58 51  1  0
 59 49  1  0
 61 63  2  0
 62 61  1  0
 64 62  1  0
 65 74  2  0
 65 70  1  0
 66 62  1  0
 66 70  1  0
 67 66  1  0
 68 69  1  0
 68 67  1  0
 69 65  1  0
 70 71  2  0
 71 72  1  0
 73 72  2  0
 74 73  1  0
 75 49  1  0
 75 80  1  0
 75 76  1  0
 76 79  1  1
 76 77  1  0
 78 76  1  0
 80 83  1  0
 81 85  1  0
 81 80  1  0
 82 81  2  0
 85 84  1  0
 87 88  1  0
 87 85  1  0
 87 86  1  0
M  ISO  4   9 100  17 100  47 101  48 101
M  END
>  <TORSDO>  (72) 
F 20

>  <SCORE>  (72) 
-15.182

>  <name>  (72) 
71

>  <ligand_id>  (72) 
71

>  <original_smiles>  (72) 
[H]c1c([H])c([H])c2c(c1[H])C([H])([H])C([H])([H])C([H])([H])C2([H])N([H])C(=O)C1([H])N(C(=O)C([H])(N([H])C(=O)C([H])(N([H])C([H])([H])[H])C([H])([H])[H])C(C([H])([H])[H])(C([H])([H])[H])C([H])([H])[H])C([H])([H])c2c([H])c(OC([H])([H])C([H])(N(C(=O)C([H])([H])C([H])([H])N([H])C(=O)N3C([H])([H])C([H])([H])C([H])([H])C([H])(n4nc(-c5c([H])c([H])c(Oc6c([H])c([H])c(F)c([H])c6F)c([H])c5[H])c(C(=O)N([H])[H])c4N([H])[H])C3([H])[H])C([H])([H])[H])C([H])([H])[H])c([H])c([H])c2C1([H])[H]

>  <smiles>  (72) 
[H]c1c([H])c([H])c2c(c1[H])C([H])([H])C([H])([H])C([H])([H])C2([H])N([H])C(=O)C1([H])N(C(=O)C([H])(N([H])C(=O)C([H])(N([H])C([H])([H])[H])C([H])([H])[H])C(C([H])([H])[H])(C([H])([H])[H])C([H])([H])[H])C([H])([H])c2c([H])c(OC([H])([H])C([H])(N(C(=O)C([H])([H])C([H])([H])N([H])C(=O)N3C([H])([H])C([H])([H])C([H])([H])C([H])(n4nc(-c5c([H])c([H])c(Oc6c([H])c([H])c(F)c([H])c6F)c([H])c5[H])c(C(=O)N([H])[H])c4N([H])[H])C3([H])[H])C([H])([H])[H])C([H])([H])[H])c([H])c([H])c2C1([H])[H]

$$$$
72:0:0
     RDKit          3D

103110  0  0  1  0  0  0  0  0999 V2000
  -26.1670  -23.6530   22.1770 C   0  0  0  0  0  0  0  0  0  0  0  0
  -27.3690  -22.7390   22.1520 N   0  0  0  0  0  0  0  0  0  0  0  0
  -25.2380  -23.2920   21.4530 O   0  0  0  0  0  0  0  0  0  0  0  0
  -28.0410  -23.1590   22.7820 H   0  0  0  0  0  0  0  0  0  0  0  0
  -29.2270  -20.6420   22.0380 C   0  0  0  0  0  3  0  0  0  0  0  0
  -29.8950  -19.3670   21.5960 C   0  0  0  0  0  3  0  0  0  0  0  0
  -27.6850  -20.4300   20.4120 C   0  0  0  0  0  3  0  0  0  0  0  0
  -28.3390  -19.1350   19.9510 C   0  0  0  0  0  0  0  0  0  0  0  0
  -28.0320  -21.3370   21.5200 C   0  0  0  0  0  0  0  0  0  0  0  0
  -29.5500  -18.4510   20.4990 C   0  0  0  0  0  0  0  0  0  0  0  0
  -31.1760  -15.9480   19.7070 C   0  0  0  0  0  0  0  0  0  0  0  0
  -31.5740  -13.4840   18.7780 C   0  0  0  0  0  2  0  0  0  0  0  0
  -30.5920  -13.0540   17.6420 C   0  0  0  0  0  2  0  0  0  0  0  0
  -29.2040  -12.6890   18.2010 C   0  0  0  0  0  2  0  0  0  0  0  0
  -28.7680  -13.7040   19.2820 C   0  0  0  0  0  3  0  0  0  0  0  0
  -29.8440  -13.8970   20.3560 C   0  0  0  0  0  2  0  0  0  0  0  0
  -30.9420  -14.5460   19.6680 N   0  0  0  0  0  0  0  0  0  0  0  0
  -32.2870  -16.2200   19.1930 O   0  0  0  0  0  0  0  0  0  0  0  0
  -30.1160  -16.9000   20.2350 N   0  0  0  0  0  0  0  0  0  0  0  0
  -29.3720  -16.2730   20.5040 H   0  0  0  0  0  0  0  0  0  0  0  0
  -26.5660  -14.2590   20.4090 C   0  0  0  0  0  0  0  0  0  0  0  0
  -25.5440  -13.4730   20.8580 C   0  0  0  0  0  0  0  0  0  0  0  0
  -25.9430  -12.1240   20.6070 C   0  0  0  0  0  0  0  0  0  0  0  0
  -27.5060  -13.3840   19.9020 N   0  0  0  0  0  0  0  0  0  0  0  0
  -27.1610  -12.0880   20.0870 N   0  0  0  0  0  0  0  0  0  0  0  0
  -25.2110  -10.8670   20.7730 C   0  0  0  0  0  0  0  0  0  0  0  0
  -25.6040   -9.9000   21.7240 C   0  0  0  0  0  3  0  0  0  0  0  0
  -24.8680   -8.7050   21.8720 C   0  0  0  0  0  3  0  0  0  0  0  0
  -23.7260   -8.4710   21.0690 C   0  0  0  0  0  0  0  0  0  0  0  0
  -23.3550   -9.4280   20.1070 C   0  0  0  0  0  3  0  0  0  0  0  0
  -24.0910  -10.6130   19.9560 C   0  0  0  0  0  3  0  0  0  0  0  0
  -22.9650   -7.3300   21.1270 O   0  0  0  0  0  0  0  0  0  0  0  0
  -22.5710   -6.7880   22.3230 C   0  0  0  0  0  0  0  0  0  0  0  0
  -21.8880   -7.5490   23.2980 C   0  0  0  0  0  3  0  0  0  0  0  0
  -21.4380   -6.9320   24.4820 C   0  0  0  0  0  3  0  0  0  0  0  0
  -21.6640   -5.5590   24.6920 C   0  0  0  0  0  0  0  0  0  0  0  0
  -22.3410   -4.8000   23.7200 C   0  0  0  0  0  3  0  0  0  0  0  0
  -22.7900   -5.4130   22.5380 C   0  0  0  0  0  0  0  0  0  0  0  0
  -23.4230   -4.6730   21.5960 F   0  0  0  0  0  0  0  0  0  0  0  0
  -21.2270   -4.9650   25.8260 F   0  0  0  0  0  0  0  0  0  0  0  0
  -24.2290  -13.9530   21.3930 C   0  0  0  0  0  0  0  0  0  0  0  0
  -23.6400  -13.2080   22.3200 N   0  0  0  0  0  0  0  0  0  0  0  0
  -23.7400  -15.0190   21.0210 O   0  0  0  0  0  0  0  0  0  0  0  0
  -24.0540  -12.3430   22.6360 H   0  0  0  0  0  0  0  0  0  0  0  0
  -22.7620  -13.5060   22.7210 H   0  0  0  0  0  0  0  0  0  0  0  0
  -26.7650  -15.6360   20.3660 N   0  0  0  0  0  0  0  0  0  0  0  0
  -26.0170  -16.2680   20.6280 H   0  0  0  0  0  0  0  0  0  0  0  0
  -27.4660  -16.0830   19.7880 H   0  0  0  0  0  0  0  0  0  0  0  0
  -27.6300  -18.4920   18.7570 C   0  0  1  0  0  0  0  0  0  0  0  0
  -26.3060  -18.5300   18.9190 F   0  0  0  0  0  0  0  0  0  0  0  0
  -27.9350  -19.1800   17.6580 F   0  0  0  0  0  0  0  0  0  0  0  0
  -27.9680  -17.2190   18.5580 F   0  0  0  0  0  0  0  0  0  0  0  0
  -25.7980  -25.1900   23.0610 C   0  0  0  0  0  2  0  0  0  0  0  0
  -24.3640  -26.3790   23.1250 C   0  0  0  0  0  3  0  0  0  0  0  0
  -23.7570  -28.0660   23.8510 C   0  0  0  0  0  1  0  0  0  0  0  0
  -22.4490  -29.5210   23.3770 C   0  0  0  0  0 15  0  0  0  0  0  0
  -21.1670  -29.8480   21.7750 C   0  0  0  0  0  1  0  0  0  0  0  0
  -21.4970  -27.7740   19.2840 C   0  0  0  0  0  0  0  0  0  0  0  0
  -20.8570  -28.8440   20.2550 N   0  0  0  0  0  0  0  0  0  0  0  0
  -20.7250  -27.4490   18.3860 O   0  0  0  0  0  0  0  0  0  0  0  0
  -19.9250  -29.0550   19.9160 H   0  0  0  0  0  0  0  0  0  0  0  0
  -23.1270  -26.8330   19.1690 C   0  0  0  0  0  2  0  0  0  0  0  0
  -24.8600  -27.1400   19.1950 O   0  0  0  0  0  0  0  0  0  0  0  0
  -25.8300  -30.8550   23.0330 C   0  0  0  0  0  0  0  0  0  0  0  0
  -25.8220  -27.6030   18.2700 C   0  0  0  0  0  3  0  0  0  0  0  0
  -24.2020  -29.8530   21.4850 C   0  0  0  0  0  3  0  0  0  0  0  0
  -24.6530  -29.7630   19.0530 C   0  0  0  0  0  3  0  0  0  0  0  0
  -26.4450  -30.4500   20.6430 C   0  0  0  0  0  2  0  0  0  0  0  0
  -25.9680  -29.6000   19.4780 C   0  0  0  0  0  3  0  0  0  0  0  0
  -26.6790  -28.5340   18.9190 C   0  0  0  0  0  2  0  0  0  0  0  0
  -24.9810  -28.0990   17.3170 C   0  0  0  0  0  2  0  0  0  0  0  0
  -24.2050  -29.1470   17.8510 C   0  0  0  0  0  2  0  0  0  0  0  0
  -23.8310  -30.4450   20.0650 C   0  0  0  0  0  2  0  0  0  0  0  0
  -25.5170  -30.4060   21.7920 N   0  0  0  0  0  0  0  0  0  0  0  0
  -25.0140  -30.9220   23.9630 O   0  0  0  0  0  0  0  0  0  0  0  0
  -24.1860  -28.1860   21.8620 C   0  0  0  0  0  3  0  0  0  0  0  0
  -23.0680  -27.1410   21.7550 N   0  0  0  0  0  0  0  0  0  0  0  0
  -25.1700  -27.8760   22.4690 O   0  0  0  0  0  0  0  0  0  0  0  0
  -22.5550  -27.7410   21.1150 H   0  0  0  0  0  0  0  0  0  0  0  0
  -18.8420  -26.4260   22.0720 C   0  0  0  0  0  0  0  0  0  0  0  0
  -21.5660  -26.5460   22.3130 C   0  0  0  0  0  3  0  0  0  0  0  0
  -21.5040  -25.2750   21.5380 C   0  0  0  0  0  2  0  0  0  0  0  0
  -20.4020  -25.2670   20.5120 C   0  0  0  0  0  2  0  0  0  0  0  0
  -19.0690  -25.2050   21.2290 C   0  0  0  0  0  2  0  0  0  0  0  0
  -19.9650  -27.1350   22.6090 C   0  0  0  0  0  0  0  0  0  0  0  0
  -19.4720  -28.2100   23.4780 C   0  0  0  0  0  3  0  0  0  0  0  0
  -18.1310  -28.6520   23.6000 C   0  0  0  0  0  3  0  0  0  0  0  0
  -17.1070  -27.9070   23.0200 C   0  0  0  0  0  3  0  0  0  0  0  0
  -17.4800  -26.7720   22.2910 C   0  0  0  0  0  3  0  0  0  0  0  0
  -27.2790  -31.3060   23.3110 C   0  0  0  0  0  3  0  0  0  0  0  0
  -28.1390  -30.1650   23.9720 C   0  0  1  0  0  0  0  0  0  0  0  0
  -27.4760  -29.5190   25.2100 C   0  0  0  0  0  1  0  0  0  0  0  0
  -28.4640  -29.0280   22.9760 C   0  0  0  0  0  1  0  0  0  0  0  0
  -29.5010  -30.7490   24.3970 C   0  0  0  0  0  1  0  0  0  0  0  0
  -27.2160  -32.4930   24.1720 N   0  0  0  0  0  0  0  0  0  0  0  0
  -27.3290  -33.7520   23.7330 C   0  0  0  0  0  0  0  0  0  0  0  0
  -27.5500  -34.0300   22.5500 O   0  0  0  0  0  0  0  0  0  0  0  0
  -26.9810  -32.3390   25.1410 H   0  0  0  0  0  0  0  0  0  0  0  0
  -25.7860  -35.5060   24.6690 C   0  0  0  0  0  1  0  0  0  0  0  0
  -27.1860  -34.8810   24.7710 C   0  0  0  0  0  3  0  0  0  0  0  0
  -29.5580  -35.4770   24.9830 C   0  0  0  0  0  1  0  0  0  0  0  0
  -28.2150  -35.9340   24.6370 N   0  0  0  0  0  0  0  0  0  0  0  0
  -27.9910  -36.7330   25.2240 H   0  0  0  0  0  0  0  0  0  0  0  0
  1 53  1  0
  2  1  1  0
  2  4  1  0
  3  1  2  0
  6  5  1  0
  7  9  1  0
  8  7  2  0
  8 10  1  0
  9  5  2  0
  9  2  1  0
 10  6  2  0
 11 19  1  0
 12 17  1  0
 13 14  1  0
 13 12  1  0
 15 14  1  0
 15 24  1  0
 15 16  1  0
 17 11  1  0
 17 16  1  0
 18 11  2  0
 19 10  1  0
 19 20  1  0
 21 22  2  0
 22 41  1  0
 23 26  1  0
 23 22  1  0
 24 25  1  0
 24 21  1  0
 25 23  2  0
 26 27  1  0
 27 28  2  0
 29 32  1  0
 29 28  1  0
 30 29  2  0
 31 30  1  0
 31 26  2  0
 32 33  1  0
 33 38  2  0
 33 34  1  0
 34 35  2  0
 35 36  1  0
 36 40  1  0
 37 36  2  0
 38 37  1  0
 39 38  1  0
 41 42  1  0
 42 44  1  0
 42 45  1  0
 43 41  2  0
 46 21  1  0
 46 47  1  0
 48 46  1  0
 49 50  1  1
 49  8  1  0
 51 49  1  0
 52 49  1  0
 53 54  1  0
 54 55  1  0
 58 59  1  0
 59 57  1  0
 60 58  2  0
 61 59  1  0
 62 63  1  0
 62 58  1  0
 64 75  2  0
 65 70  1  0
 65 63  1  0
 66 74  1  0
 66 76  1  0
 67 72  1  0
 67 69  1  0
 67 73  1  0
 68 74  1  0
 69 70  1  0
 69 68  1  0
 71 72  1  0
 71 65  1  0
 73 66  1  0
 74 64  1  0
 76 78  1  0
 77 76  1  0
 78 54  1  0
 79 77  1  0
 80 89  2  0
 80 85  1  0
 81 77  1  0
 81 85  1  0
 82 81  1  0
 83 84  1  0
 83 82  1  0
 84 80  1  0
 85 86  2  0
 86 87  1  0
 88 87  2  0
 89 88  1  0
 90 64  1  0
 90 91  1  0
 90 95  1  0
 91 94  1  1
 91 92  1  0
 93 91  1  0
 95 98  1  0
 96 95  1  0
 96100  1  0
 97 96  2  0
100 99  1  0
102100  1  0
102101  1  0
102103  1  0
M  ISO  4  11 100  19 100  62 101  63 101
M  END
>  <TORSDO>  (73) 
F 25

>  <SCORE>  (73) 
-7.954

>  <name>  (73) 
72

>  <ligand_id>  (73) 
72

>  <original_smiles>  (73) 
[H]c1c([H])c([H])c2c(c1[H])C([H])([H])C([H])([H])C([H])([H])C2([H])N([H])C(=O)C1([H])N(C(=O)C([H])(N([H])C(=O)C([H])(N([H])C([H])([H])[H])C([H])([H])[H])C(C([H])([H])[H])(C([H])([H])[H])C([H])([H])[H])C([H])([H])c2c([H])c(OC([H])([H])C(=O)N([H])C([H])([H])C([H])([H])C([H])([H])C([H])([H])C([H])([H])C(=O)N([H])c3c([H])c([H])c(N([H])C(=O)N4C([H])([H])C([H])([H])C([H])([H])C([H])(n5nc(-c6c([H])c([H])c(Oc7c([H])c([H])c(F)c([H])c7F)c([H])c6[H])c(C(=O)N([H])[H])c5N([H])[H])C4([H])[H])c(C(F)(F)F)c3[H])c([H])c([H])c2C1([H])[H]

>  <smiles>  (73) 
[H]c1c([H])c([H])c2c(c1[H])C([H])([H])C([H])([H])C([H])([H])C2([H])N([H])C(=O)C1([H])N(C(=O)C([H])(N([H])C(=O)C([H])(N([H])C([H])([H])[H])C([H])([H])[H])C(C([H])([H])[H])(C([H])([H])[H])C([H])([H])[H])C([H])([H])c2c([H])c(OC([H])([H])C(=O)N([H])C([H])([H])C([H])([H])C([H])([H])C([H])([H])C([H])([H])C(=O)N([H])c3c([H])c([H])c(N([H])C(=O)N4C([H])([H])C([H])([H])C([H])([H])C([H])(n5nc(-c6c([H])c([H])c(Oc7c([H])c([H])c(F)c([H])c7F)c([H])c6[H])c(C(=O)N([H])[H])c5N([H])[H])C4([H])[H])c(C(F)(F)F)c3[H])c([H])c([H])c2C1([H])[H]

$$$$
73:0:0
     RDKit          3D

 89 97  0  0  1  0  0  0  0  0999 V2000
  -31.0430  -18.0840   18.9590 C   0  0  0  0  0  3  0  0  0  0  0  0
  -31.2630  -19.4090   18.5100 C   0  0  0  0  0  3  0  0  0  0  0  0
  -29.4310  -19.0160   20.4970 C   0  0  0  0  0  3  0  0  0  0  0  0
  -30.1400  -17.7780   20.0020 C   0  0  0  0  0  0  0  0  0  0  0  0
  -29.6150  -20.4410   20.0470 C   0  0  0  0  0  0  0  0  0  0  0  0
  -30.5970  -20.5450   19.0310 C   0  0  0  0  0  0  0  0  0  0  0  0
  -30.9250  -21.7540   18.5180 F   0  0  0  0  0  0  0  0  0  0  0  0
  -30.6920  -15.0630   20.0460 C   0  0  0  0  0  0  0  0  0  0  0  0
  -30.5130  -12.7480   18.9630 C   0  0  0  0  0  2  0  0  0  0  0  0
  -29.5070  -12.7300   17.7860 C   0  0  0  0  0  2  0  0  0  0  0  0
  -28.0690  -12.4950   18.2850 C   0  0  0  0  0  2  0  0  0  0  0  0
  -27.7380  -13.3530   19.5320 C   0  0  0  0  0  3  0  0  0  0  0  0
  -28.8560  -13.2660   20.5860 C   0  0  0  0  0  2  0  0  0  0  0  0
  -30.0790  -13.7930   19.9500 N   0  0  0  0  0  0  0  0  0  0  0  0
  -31.8490  -15.1030   19.6070 O   0  0  0  0  0  0  0  0  0  0  0  0
  -29.3350  -16.1810   21.7660 C   0  0  0  0  0  1  0  0  0  0  0  0
  -30.0160  -16.2850   20.4710 N   0  0  0  0  0  0  0  0  0  0  0  0
  -25.3930  -13.9060   20.3880 C   0  0  0  0  0  0  0  0  0  0  0  0
  -24.3530  -13.1200   20.8020 C   0  0  0  0  0  0  0  0  0  0  0  0
  -24.8260  -11.7740   20.7380 C   0  0  0  0  0  0  0  0  0  0  0  0
  -26.4280  -13.0380   20.0900 N   0  0  0  0  0  0  0  0  0  0  0  0
  -26.1010  -11.7480   20.3650 N   0  0  0  0  0  0  0  0  0  0  0  0
  -24.1180  -10.5050   20.9520 C   0  0  0  0  0  0  0  0  0  0  0  0
  -24.5640   -9.5580   21.9010 C   0  0  0  0  0  3  0  0  0  0  0  0
  -23.8530   -8.3550   22.1010 C   0  0  0  0  0  3  0  0  0  0  0  0
  -22.6820   -8.0900   21.3520 C   0  0  0  0  0  0  0  0  0  0  0  0
  -22.2550   -9.0250   20.3940 C   0  0  0  0  0  3  0  0  0  0  0  0
  -22.9660  -10.2190   20.1920 C   0  0  0  0  0  3  0  0  0  0  0  0
  -21.9410   -6.9370   21.4610 O   0  0  0  0  0  0  0  0  0  0  0  0
  -21.8700   -6.2350   22.6380 C   0  0  0  0  0  0  0  0  0  0  0  0
  -21.3590   -6.8150   23.8200 C   0  0  0  0  0  3  0  0  0  0  0  0
  -21.2390   -6.0370   24.9900 C   0  0  0  0  0  3  0  0  0  0  0  0
  -21.6200   -4.6830   24.9770 C   0  0  0  0  0  0  0  0  0  0  0  0
  -22.1260   -4.1040   23.8000 C   0  0  0  0  0  3  0  0  0  0  0  0
  -22.2470   -4.8780   22.6330 C   0  0  0  0  0  0  0  0  0  0  0  0
  -22.7140   -4.3090   21.4950 F   0  0  0  0  0  0  0  0  0  0  0  0
  -21.4990   -3.9330   26.0980 F   0  0  0  0  0  0  0  0  0  0  0  0
  -22.9670  -13.5850   21.1420 C   0  0  0  0  0  0  0  0  0  0  0  0
  -22.2820  -12.8720   22.0280 N   0  0  0  0  0  0  0  0  0  0  0  0
  -22.5020  -14.6170   20.6570 O   0  0  0  0  0  0  0  0  0  0  0  0
  -22.6730  -12.0380   22.4410 H   0  0  0  0  0  0  0  0  0  0  0  0
  -21.3540  -13.1650   22.2980 H   0  0  0  0  0  0  0  0  0  0  0  0
  -25.5380  -15.2800   20.2150 N   0  0  0  0  0  0  0  0  0  0  0  0
  -24.7740  -15.9280   20.3680 H   0  0  0  0  0  0  0  0  0  0  0  0
  -26.3710  -15.7270   19.8560 H   0  0  0  0  0  0  0  0  0  0  0  0
  -28.9090  -21.6590   20.5290 O   0  0  0  0  0  0  0  0  0  0  0  0
  -29.1370  -23.1730   20.1410 C   0  0  0  0  0  3  0  0  0  0  0  0
  -28.1760  -24.5390   20.5590 C   0  0  0  0  0  3  0  0  0  0  0  0
  -28.4320  -26.0970   20.4040 O   0  0  0  0  0  0  0  0  0  0  0  0
  -24.7070  -31.8630   23.2620 C   0  0  0  0  0  0  0  0  0  0  0  0
  -27.3700  -27.0910   20.3470 C   0  0  0  0  0  0  0  0  0  0  0  0
  -23.5460  -30.4320   21.6280 C   0  0  0  0  0  3  0  0  0  0  0  0
  -25.0310  -28.8430   20.2500 C   0  0  0  0  0  0  0  0  0  0  0  0
  -26.1040  -30.7080   21.5000 C   0  0  0  0  0  2  0  0  0  0  0  0
  -26.2000  -29.3020   20.8710 C   0  0  0  0  0  0  0  0  0  0  0  0
  -27.3710  -28.4440   20.8950 C   0  0  0  0  0  3  0  0  0  0  0  0
  -26.1730  -26.7490   19.6810 C   0  0  0  0  0  3  0  0  0  0  0  0
  -25.0330  -27.5820   19.6390 C   0  0  0  0  0  3  0  0  0  0  0  0
  -23.7960  -29.7340   20.2650 C   0  0  0  0  0  2  0  0  0  0  0  0
  -24.8050  -31.0250   22.1850 N   0  0  0  0  0  0  0  0  0  0  0  0
  -23.6090  -32.1470   23.7670 O   0  0  0  0  0  0  0  0  0  0  0  0
  -22.8600  -29.4340   22.5960 C   0  0  0  0  0  0  0  0  0  0  0  0
  -21.5330  -29.2590   22.4610 N   0  0  0  0  0  0  0  0  0  0  0  0
  -23.5250  -28.8190   23.4340 O   0  0  0  0  0  0  0  0  0  0  0  0
  -21.0520  -29.8050   21.7610 H   0  0  0  0  0  0  0  0  0  0  0  0
  -18.1490  -28.0630   22.9640 C   0  0  0  0  0  0  0  0  0  0  0  0
  -20.7080  -28.3270   23.2350 C   0  0  0  0  0  3  0  0  0  0  0  0
  -20.8100  -26.8910   22.6710 C   0  0  0  0  0  2  0  0  0  0  0  0
  -19.7110  -26.5630   21.6550 C   0  0  0  0  0  2  0  0  0  0  0  0
  -18.3270  -26.7100   22.2950 C   0  0  0  0  0  2  0  0  0  0  0  0
  -19.2670  -28.8280   23.3920 C   0  0  0  0  0  0  0  0  0  0  0  0
  -19.0460  -30.0920   23.9800 C   0  0  0  0  0  3  0  0  0  0  0  0
  -17.7410  -30.5930   24.1440 C   0  0  0  0  0  3  0  0  0  0  0  0
  -16.6380  -29.8250   23.7330 C   0  0  0  0  0  3  0  0  0  0  0  0
  -16.8420  -28.5620   23.1490 C   0  0  0  0  0  3  0  0  0  0  0  0
  -25.9660  -32.5240   23.8990 C   0  0  0  0  0  3  0  0  0  0  0  0
  -26.4600  -31.7840   25.2040 C   0  0  1  0  0  0  0  0  0  0  0  0
  -25.3440  -31.5570   26.2500 C   0  0  0  0  0  1  0  0  0  0  0  0
  -27.0690  -30.4060   24.8600 C   0  0  0  0  0  1  0  0  0  0  0  0
  -27.5860  -32.6060   25.8760 C   0  0  0  0  0  1  0  0  0  0  0  0
  -25.6350  -33.9270   24.2020 N   0  0  0  0  0  0  0  0  0  0  0  0
  -25.9700  -34.9740   23.4380 C   0  0  0  0  0  0  0  0  0  0  0  0
  -26.6570  -34.8640   22.4190 O   0  0  0  0  0  0  0  0  0  0  0  0
  -25.0240  -34.0840   24.9900 H   0  0  0  0  0  0  0  0  0  0  0  0
  -24.2400  -36.7600   23.0320 C   0  0  0  0  0  1  0  0  0  0  0  0
  -25.4660  -36.3660   23.8730 C   0  0  0  0  0  3  0  0  0  0  0  0
  -27.5710  -37.2770   24.7490 C   0  0  0  0  0  1  0  0  0  0  0  0
  -26.4950  -37.4240   23.7720 N   0  0  0  0  0  0  0  0  0  0  0  0
  -26.0790  -38.3440   23.8940 H   0  0  0  0  0  0  0  0  0  0  0  0
  1  4  1  0
  2  1  2  0
  2  6  1  0
  4 17  1  0
  4  3  2  0
  5  3  1  0
  5 46  1  0
  6  5  2  0
  7  6  1  0
  8 17  1  0
  9 14  1  0
 10 11  1  0
 10  9  1  0
 12 11  1  0
 12 21  1  0
 12 13  1  0
 14  8  1  0
 14 13  1  0
 15  8  2  0
 17 16  1  0
 18 19  2  0
 19 38  1  0
 20 19  1  0
 20 23  1  0
 21 22  1  0
 21 18  1  0
 22 20  2  0
 23 24  1  0
 24 25  2  0
 26 29  1  0
 26 25  1  0
 27 26  2  0
 28 27  1  0
 28 23  2  0
 29 30  1  0
 30 31  1  0
 31 32  2  0
 33 32  1  0
 33 37  1  0
 34 33  2  0
 35 30  2  0
 35 34  1  0
 36 35  1  0
 38 39  1  0
 39 42  1  0
 39 41  1  0
 40 38  2  0
 43 44  1  0
 43 18  1  0
 45 43  1  0
 47 46  1  0
 47 48  2  0
 49 48  1  0
 50 61  2  0
 51 49  1  0
 51 56  1  0
 52 60  1  0
 52 62  1  0
 53 59  1  0
 53 55  1  0
 54 60  1  0
 55 56  2  0
 55 54  1  0
 57 51  2  0
 58 57  1  0
 58 53  2  0
 59 52  1  0
 60 50  1  0
 62 64  2  0
 63 62  1  0
 65 63  1  0
 66 75  2  0
 66 71  1  0
 67 63  1  0
 67 71  1  0
 68 67  1  0
 69 70  1  0
 69 68  1  0
 70 66  1  0
 71 72  2  0
 72 73  1  0
 74 73  2  0
 75 74  1  0
 76 50  1  0
 76 81  1  0
 76 77  1  0
 77 80  1  1
 77 78  1  0
 79 77  1  0
 81 84  1  0
 82 86  1  0
 82 81  1  0
 83 82  2  0
 86 85  1  0
 88 86  1  0
 88 89  1  0
 88 87  1  0
M  ISO  4   8 100  17 100  48 101  49 101
M  END
>  <TORSDO>  (74) 
F 19

>  <SCORE>  (74) 
-14.271

>  <name>  (74) 
73

>  <ligand_id>  (74) 
73

>  <original_smiles>  (74) 
[H]c1c([H])c([H])c2c(c1[H])C([H])([H])C([H])([H])C([H])([H])C2([H])N([H])C(=O)C1([H])N(C(=O)C([H])(N([H])C(=O)C([H])(N([H])C([H])([H])[H])C([H])([H])[H])C(C([H])([H])[H])(C([H])([H])[H])C([H])([H])[H])C([H])([H])c2c([H])c(OC([H])([H])C([H])([H])Oc3c([H])c(N(C(=O)N4C([H])([H])C([H])([H])C([H])([H])C([H])(n5nc(-c6c([H])c([H])c(Oc7c([H])c([H])c(F)c([H])c7F)c([H])c6[H])c(C(=O)N([H])[H])c5N([H])[H])C4([H])[H])C([H])([H])[H])c([H])c([H])c3F)c([H])c([H])c2C1([H])[H]

>  <smiles>  (74) 
[H]c1c([H])c([H])c2c(c1[H])C([H])([H])C([H])([H])C([H])([H])C2([H])N([H])C(=O)C1([H])N(C(=O)C([H])(N([H])C(=O)C([H])(N([H])C([H])([H])[H])C([H])([H])[H])C(C([H])([H])[H])(C([H])([H])[H])C([H])([H])[H])C([H])([H])c2c([H])c(OC([H])([H])C([H])([H])Oc3c([H])c(N(C(=O)N4C([H])([H])C([H])([H])C([H])([H])C([H])(n5nc(-c6c([H])c([H])c(Oc7c([H])c([H])c(F)c([H])c7F)c([H])c6[H])c(C(=O)N([H])[H])c5N([H])[H])C4([H])[H])C([H])([H])[H])c([H])c([H])c3F)c([H])c([H])c2C1([H])[H]

$$$$
74:0:0
     RDKit          3D

113117  0  0  1  0  0  0  0  0999 V2000
  -20.0680  -18.1000   25.8200 C   0  0  0  0  0  2  0  0  0  0  0  0
  -20.9050  -16.8250   25.6510 C   0  0  0  0  0  2  0  0  0  0  0  0
  -22.3140  -17.0720   25.0870 C   0  0  0  0  0  2  0  0  0  0  0  0
  -23.1960  -15.8270   25.2080 C   0  0  0  0  0  2  0  0  0  0  0  0
  -24.2950  -15.0000   23.1530 C   0  0  0  0  0  0  0  0  0  0  0  0
  -24.2680  -15.8110   24.2180 N   0  0  0  0  0  0  0  0  0  0  0  0
  -23.3130  -14.3610   22.7730 O   0  0  0  0  0  0  0  0  0  0  0  0
  -25.1100  -16.3280   24.4380 H   0  0  0  0  0  0  0  0  0  0  0  0
  -25.6340  -14.8350   22.4370 C   0  0  0  0  0  2  0  0  0  0  0  0
  -26.4650  -13.6240   22.9390 C   0  0  0  0  0  2  0  0  0  0  0  0
  -25.9660  -12.2240   22.4980 C   0  0  0  0  0  2  0  0  0  0  0  0
  -25.5480  -11.3020   23.6710 C   0  0  0  0  0  2  0  0  0  0  0  0
  -26.4530  -10.0760   23.8540 C   0  0  0  0  0  2  0  0  0  0  0  0
  -28.1370   -8.8940   22.4590 C   0  0  0  0  0  0  0  0  0  0  0  0
  -27.1170   -9.7410   22.6020 N   0  0  0  0  0  0  0  0  0  0  0  0
  -28.6540   -8.2990   23.4070 O   0  0  0  0  0  0  0  0  0  0  0  0
  -26.7270  -10.1280   21.7500 H   0  0  0  0  0  0  0  0  0  0  0  0
  -28.6370   -8.6680   21.0290 C   0  0  0  0  0  2  0  0  0  0  0  0
  -29.9000   -9.4860   20.7030 C   0  0  0  0  0  2  0  0  0  0  0  0
  -30.3770  -12.2050   20.0010 C   0  0  2  0  0  0  0  0  0  0  0  0
  -31.5090  -11.5050   19.0940 C   0  0  0  0  0  1  0  0  0  0  0  0
  -30.2420  -11.6920   17.6850 C   0  0  0  0  0  1  0  0  0  0  0  0
  -28.5710  -12.1120   18.0740 C   0  0  0  0  0  2  0  0  0  0  0  0
  -28.0740  -12.7570   19.6350 C   0  0  0  0  0  2  0  0  0  0  0  0
  -29.2640  -12.6460   21.1050 C   0  0  0  0  0  1  0  0  0  0  0  0
  -30.9110  -11.9790   20.7560 N   0  0  0  0  0  1  0  0  0  0  0  0
  -30.6720  -13.4840   19.5560 O   0  0  0  0  0  1  0  0  0  0  0  0
  -29.6120  -10.7540   19.9830 N   0  0  0  0  0  2  0  0  0  0  0  0
  -28.9050  -10.6940   19.2620 H   0  0  0  0  0  0  0  0  0  0  0  0
  -25.5940  -13.2760   19.9560 C   0  0  0  0  0  0  0  0  0  0  0  0
  -24.4850  -12.5330   20.2450 C   0  0  0  0  0  0  0  0  0  0  0  0
  -24.9240  -11.1760   20.3470 C   0  0  0  0  0  0  0  0  0  0  0  0
  -26.6680  -12.4060   19.9390 N   0  0  0  0  0  0  0  0  0  0  0  0
  -26.2600  -11.1230   20.2020 N   0  0  0  0  0  0  0  0  0  0  0  0
  -24.1190   -9.9460   20.5380 C   0  0  0  0  0  0  0  0  0  0  0  0
  -24.4970   -8.9360   21.4510 C   0  0  0  0  0  3  0  0  0  0  0  0
  -23.6930   -7.7910   21.6450 C   0  0  0  0  0  3  0  0  0  0  0  0
  -22.4850   -7.6410   20.9280 C   0  0  0  0  0  0  0  0  0  0  0  0
  -22.1100   -8.6390   20.0110 C   0  0  0  0  0  3  0  0  0  0  0  0
  -22.9170   -9.7770   19.8160 C   0  0  0  0  0  3  0  0  0  0  0  0
  -21.6580   -6.5460   21.0280 O   0  0  0  0  0  0  0  0  0  0  0  0
  -21.6150   -5.7700   22.1590 C   0  0  0  0  0  0  0  0  0  0  0  0
  -21.1860   -6.2890   23.4000 C   0  0  0  0  0  3  0  0  0  0  0  0
  -21.0900   -5.4450   24.5250 C   0  0  0  0  0  3  0  0  0  0  0  0
  -21.4140   -4.0810   24.4120 C   0  0  0  0  0  0  0  0  0  0  0  0
  -21.8340   -3.5570   23.1750 C   0  0  0  0  0  3  0  0  0  0  0  0
  -21.9300   -4.3980   22.0530 C   0  0  0  0  0  0  0  0  0  0  0  0
  -22.3150   -3.8820   20.8610 F   0  0  0  0  0  0  0  0  0  0  0  0
  -21.3140   -3.2690   25.4890 F   0  0  0  0  0  0  0  0  0  0  0  0
  -23.0760  -13.0550   20.3320 C   0  0  0  0  0  0  0  0  0  0  0  0
  -22.2500  -12.4720   21.1950 N   0  0  0  0  0  0  0  0  0  0  0  0
  -22.7190  -14.0330   19.6770 O   0  0  0  0  0  0  0  0  0  0  0  0
  -22.5440  -11.6860   21.7550 H   0  0  0  0  0  0  0  0  0  0  0  0
  -21.3060  -12.8150   21.2940 H   0  0  0  0  0  0  0  0  0  0  0  0
  -25.7820  -14.6310   19.6970 N   0  0  0  0  0  0  0  0  0  0  0  0
  -25.0110  -15.2890   19.6650 H   0  0  0  0  0  0  0  0  0  0  0  0
  -26.6760  -15.0680   19.5060 H   0  0  0  0  0  0  0  0  0  0  0  0
  -20.2360  -19.0850   24.6580 C   0  0  0  0  0  2  0  0  0  0  0  0
  -18.9990  -19.9500   24.4070 C   0  0  0  0  0  2  0  0  0  0  0  0
  -18.3400  -19.6380   23.0480 C   0  0  0  0  0  2  0  0  0  0  0  0
  -17.1620  -20.5600   22.7010 C   0  0  0  0  0  2  0  0  0  0  0  0
  -17.5730  -22.0430   22.7100 C   0  0  0  0  0  2  0  0  0  0  0  0
  -16.4260  -23.0240   22.4260 C   0  0  0  0  0  2  0  0  0  0  0  0
  -16.5820  -23.7090   21.0580 C   0  0  0  0  0  2  0  0  0  0  0  0
  -17.7900  -24.6610   21.0060 C   0  0  0  0  0  2  0  0  0  0  0  0
  -18.2600  -24.9320   19.5770 C   0  0  0  0  0  2  0  0  0  0  0  0
  -19.7400  -25.3290   19.5000 C   0  0  0  0  0  2  0  0  0  0  0  0
  -21.4400  -24.5660   17.8600 C   0  0  0  0  0  0  0  0  0  0  0  0
  -20.2230  -25.0140   18.1690 N   0  0  0  0  0  0  0  0  0  0  0  0
  -22.2490  -24.1880   18.7120 O   0  0  0  0  0  0  0  0  0  0  0  0
  -19.6480  -25.3170   17.3950 H   0  0  0  0  0  0  0  0  0  0  0  0
  -21.8060  -24.6160   16.3700 C   0  0  0  0  0  2  0  0  0  0  0  0
  -23.1900  -24.9590   16.2210 O   0  0  0  0  0  0  0  0  0  0  0  0
  -29.3500  -26.7780   19.2460 C   0  0  0  0  0  0  0  0  0  0  0  0
  -23.8030  -25.7810   17.1450 C   0  0  0  0  0  0  0  0  0  0  0  0
  -27.3300  -27.7960   20.2530 C   0  0  0  0  0  3  0  0  0  0  0  0
  -25.1690  -27.4920   18.9380 C   0  0  0  0  0  0  0  0  0  0  0  0
  -27.3560  -27.1170   17.7860 C   0  0  0  0  0  2  0  0  0  0  0  0
  -25.8690  -26.8550   17.9070 C   0  0  0  0  0  0  0  0  0  0  0  0
  -25.1910  -26.0030   17.0100 C   0  0  0  0  0  3  0  0  0  0  0  0
  -23.1100  -26.4230   18.1990 C   0  0  0  0  0  3  0  0  0  0  0  0
  -23.7890  -27.2720   19.0960 C   0  0  0  0  0  3  0  0  0  0  0  0
  -25.9640  -28.4080   19.8420 C   0  0  0  0  0  2  0  0  0  0  0  0
  -28.0580  -27.1870   19.0920 N   0  0  0  0  0  0  0  0  0  0  0  0
  -29.9490  -26.9450   20.3180 O   0  0  0  0  0  0  0  0  0  0  0  0
  -27.0990  -26.8060   21.4170 C   0  0  0  0  0  0  0  0  0  0  0  0
  -26.7560  -27.3440   22.5990 N   0  0  0  0  0  0  0  0  0  0  0  0
  -27.2000  -25.5890   21.2450 O   0  0  0  0  0  0  0  0  0  0  0  0
  -26.6840  -28.3500   22.6590 H   0  0  0  0  0  0  0  0  0  0  0  0
  -25.7220  -27.7090   26.0420 C   0  0  0  0  0  0  0  0  0  0  0  0
  -26.4520  -26.6040   23.8220 C   0  0  0  0  0  3  0  0  0  0  0  0
  -25.0290  -26.0130   23.7650 C   0  0  0  0  0  2  0  0  0  0  0  0
  -23.9680  -26.9160   24.3990 C   0  0  0  0  0  2  0  0  0  0  0  0
  -24.3060  -27.1890   25.8680 C   0  0  0  0  0  2  0  0  0  0  0  0
  -26.7270  -27.4440   25.0730 C   0  0  0  0  0  0  0  0  0  0  0  0
  -28.0230  -27.9720   25.2660 C   0  0  0  0  0  3  0  0  0  0  0  0
  -28.3210  -28.7500   26.3990 C   0  0  0  0  0  3  0  0  0  0  0  0
  -27.3290  -28.9950   27.3640 C   0  0  0  0  0  3  0  0  0  0  0  0
  -26.0360  -28.4720   27.1870 C   0  0  0  0  0  3  0  0  0  0  0  0
  -30.1460  -26.1150   18.0780 C   0  0  0  0  0  3  0  0  0  0  0  0
  -31.2850  -26.9890   17.7640 N   0  0  0  0  0  0  0  0  0  0  0  0
  -31.3760  -27.7510   16.6680 C   0  0  0  0  0  0  0  0  0  0  0  0
  -30.5280  -27.7340   15.7700 O   0  0  0  0  0  0  0  0  0  0  0  0
  -31.9900  -27.0950   18.4800 H   0  0  0  0  0  0  0  0  0  0  0  0
  -32.1710  -30.1320   16.7950 C   0  0  0  0  0  1  0  0  0  0  0  0
  -32.6020  -28.6770   16.5470 C   0  0  0  0  0  3  0  0  0  0  0  0
  -33.9640  -27.2950   15.0420 C   0  0  0  0  0  1  0  0  0  0  0  0
  -33.2890  -28.5750   15.2410 N   0  0  0  0  0  0  0  0  0  0  0  0
  -33.9790  -29.3150   15.1410 H   0  0  0  0  0  0  0  0  0  0  0  0
  -30.6350  -24.6520   18.4100 C   0  0  1  0  0  0  0  0  0  0  0  0
  -31.4670  -24.5540   19.7100 C   0  0  0  0  0  1  0  0  0  0  0  0
  -29.4300  -23.6930   18.5510 C   0  0  0  0  0  1  0  0  0  0  0  0
  -31.4990  -24.1070   17.2460 C   0  0  0  0  0  1  0  0  0  0  0  0
  2  1  1  0
  3  4  1  0
  3  2  1  0
  5  6  1  0
  6  8  1  0
  6  4  1  0
  7  5  2  0
  9 10  1  0
  9  5  1  0
 11 10  1  0
 11 12  1  0
 12 13  1  0
 14 15  1  0
 14 16  2  0
 15 13  1  0
 17 15  1  0
 18 14  1  0
 19 18  1  0
 20 26  1  0
 20 25  1  1
 21 20  1  0
 22 23  1  0
 23 24  1  0
 24 33  1  0
 27 20  1  0
 28 19  1  0
 29 28  1  0
 30 31  2  0
 31 50  1  0
 31 32  1  0
 32 35  1  0
 33 30  1  0
 33 34  1  0
 34 32  2  0
 35 36  1  0
 36 37  2  0
 38 41  1  0
 38 37  1  0
 39 38  2  0
 40 39  1  0
 40 35  2  0
 41 42  1  0
 42 43  1  0
 43 44  2  0
 45 44  1  0
 45 49  1  0
 46 45  2  0
 47 42  2  0
 47 46  1  0
 48 47  1  0
 50 51  1  0
 51 54  1  0
 51 53  1  0
 52 50  2  0
 55 30  1  0
 56 55  1  0
 57 55  1  0
 58  1  1  0
 59 58  1  0
 60 59  1  0
 61 62  1  0
 61 60  1  0
 63 62  1  0
 64 63  1  0
 65 64  1  0
 66 65  1  0
 67 66  1  0
 68 69  1  0
 68 70  2  0
 69 67  1  0
 71 69  1  0
 72 68  1  0
 73 72  1  0
 73 75  1  0
 74 85  2  0
 75 81  1  0
 76 86  1  0
 77 82  1  0
 77 83  1  0
 78 79  1  0
 78 84  1  0
 79 77  2  0
 80 75  2  0
 80 79  1  0
 81 82  2  0
 83 76  1  0
 84 74  1  0
 84 76  1  0
 86 87  1  0
 87 89  1  0
 88 86  2  0
 90 99  1  0
 91 87  1  0
 91 95  1  0
 92 91  1  0
 92 93  1  0
 93 94  1  0
 94 90  1  0
 95 96  1  0
 95 90  2  0
 96 97  2  0
 97 98  1  0
 99 98  2  0
100110  1  0
100 74  1  0
101100  1  0
101104  1  0
102101  1  0
103102  2  0
106102  1  0
106105  1  0
107108  1  0
108106  1  0
109108  1  0
110112  1  1
110111  1  0
113110  1  0
M  ISO  4  20 100  28 100  72 101  73 101
M  END
>  <TORSDO>  (75) 
F 40

>  <SCORE>  (75) 
19.147

>  <name>  (75) 
74

>  <ligand_id>  (75) 
74

>  <original_smiles>  (75) 
[H]c1c([H])c([H])c2c(c1[H])C([H])([H])C([H])([H])C([H])([H])C2([H])N([H])C(=O)C1([H])N(C(=O)C([H])(N([H])C(=O)C([H])(N([H])C([H])([H])[H])C([H])([H])[H])C(C([H])([H])[H])(C([H])([H])[H])C([H])([H])[H])C([H])([H])c2c([H])c(OC([H])([H])C(=O)N([H])C([H])([H])C([H])([H])C([H])([H])C([H])([H])C([H])([H])C([H])([H])C([H])([H])C([H])([H])C([H])([H])C([H])([H])C([H])([H])C([H])([H])C([H])([H])C([H])([H])N([H])C(=O)C([H])([H])C([H])([H])C([H])([H])C([H])([H])C([H])([H])N([H])C(=O)C([H])([H])C([H])([H])N([H])C(=O)N3C([H])([H])C([H])([H])C([H])([H])C([H])(n4nc(-c5c([H])c([H])c(Oc6c([H])c([H])c(F)c([H])c6F)c([H])c5[H])c(C(=O)N([H])[H])c4N([H])[H])C3([H])[H])c([H])c([H])c2C1([H])[H]

>  <smiles>  (75) 
[H]c1c([H])c([H])c2c(c1[H])C([H])([H])C([H])([H])C([H])([H])C2([H])N([H])C(=O)C1([H])N(C(=O)C([H])(N([H])C(=O)C([H])(N([H])C([H])([H])[H])C([H])([H])[H])C(C([H])([H])[H])(C([H])([H])[H])C([H])([H])[H])C([H])([H])c2c([H])c(OC([H])([H])C(=O)N([H])C([H])([H])C([H])([H])C([H])([H])C([H])([H])C([H])([H])C([H])([H])C([H])([H])C([H])([H])C([H])([H])C([H])([H])C([H])([H])C([H])([H])C([H])([H])C([H])([H])N([H])C(=O)C([H])([H])C([H])([H])C([H])([H])C([H])([H])C([H])([H])N([H])C(=O)C([H])([H])C([H])([H])N([H])C(=O)N3C([H])([H])C([H])([H])C([H])([H])C([H])(n4nc(-c5c([H])c([H])c(Oc6c([H])c([H])c(F)c([H])c6F)c([H])c5[H])c(C(=O)N([H])[H])c4N([H])[H])C3([H])[H])c([H])c([H])c2C1([H])[H]

$$$$
75:0:0
     RDKit          3D

 89 97  0  0  1  0  0  0  0  0999 V2000
  -29.2950  -21.0210   20.6670 O   0  0  0  0  0  0  0  0  0  0  0  0
  -29.9360  -18.4520   17.9800 C   0  0  0  0  0  3  0  0  0  0  0  0
  -30.0500  -17.2450   18.6970 C   0  0  0  0  0  3  0  0  0  0  0  0
  -29.6640  -19.6750   18.6240 C   0  0  0  0  0  3  0  0  0  0  0  0
  -29.6110  -18.4860   20.7420 C   0  0  0  0  0  3  0  0  0  0  0  0
  -29.8800  -17.2050   20.0990 C   0  0  0  0  0  0  0  0  0  0  0  0
  -29.5100  -19.7580   20.0290 C   0  0  0  0  0  0  0  0  0  0  0  0
  -30.6010  -14.7370   20.4170 C   0  0  0  0  0  0  0  0  0  0  0  0
  -30.3770  -12.4630   19.4240 C   0  0  0  0  0  2  0  0  0  0  0  0
  -29.4550  -12.5730   18.1880 C   0  0  0  0  0  2  0  0  0  0  0  0
  -27.9790  -12.4180   18.5990 C   0  0  0  0  0  2  0  0  0  0  0  0
  -27.6070  -13.2920   19.8260 C   0  0  0  0  0  3  0  0  0  0  0  0
  -28.6550  -13.1820   20.9580 C   0  0  0  0  0  2  0  0  0  0  0  0
  -29.9670  -13.5140   20.3850 N   0  0  0  0  0  0  0  0  0  0  0  0
  -31.7670  -14.8330   20.0240 O   0  0  0  0  0  0  0  0  0  0  0  0
  -29.8780  -15.8700   20.7530 N   0  0  0  0  0  0  0  0  0  0  0  0
  -29.0650  -15.6850   21.3230 H   0  0  0  0  0  0  0  0  0  0  0  0
  -25.2110  -13.8880   20.5220 C   0  0  0  0  0  0  0  0  0  0  0  0
  -24.1410  -13.1180   20.8890 C   0  0  0  0  0  0  0  0  0  0  0  0
  -24.6030  -11.7650   20.8710 C   0  0  0  0  0  0  0  0  0  0  0  0
  -26.2560  -13.0060   20.3030 N   0  0  0  0  0  0  0  0  0  0  0  0
  -25.8960  -11.7250   20.5750 N   0  0  0  0  0  0  0  0  0  0  0  0
  -23.8720  -10.5060   21.0630 C   0  0  0  0  0  0  0  0  0  0  0  0
  -24.3070   -9.5330   21.9900 C   0  0  0  0  0  3  0  0  0  0  0  0
  -23.5760   -8.3390   22.1720 C   0  0  0  0  0  3  0  0  0  0  0  0
  -22.3950   -8.1100   21.4260 C   0  0  0  0  0  0  0  0  0  0  0  0
  -21.9790   -9.0710   20.4880 C   0  0  0  0  0  3  0  0  0  0  0  0
  -22.7110  -10.2550   20.3040 C   0  0  0  0  0  3  0  0  0  0  0  0
  -21.6360   -6.9680   21.5170 O   0  0  0  0  0  0  0  0  0  0  0  0
  -21.6070   -6.2110   22.6600 C   0  0  0  0  0  0  0  0  0  0  0  0
  -21.2230   -6.7560   23.9050 C   0  0  0  0  0  3  0  0  0  0  0  0
  -21.1400   -5.9270   25.0420 C   0  0  0  0  0  3  0  0  0  0  0  0
  -21.4290   -4.5530   24.9340 C   0  0  0  0  0  0  0  0  0  0  0  0
  -21.8060   -4.0080   23.6940 C   0  0  0  0  0  3  0  0  0  0  0  0
  -21.8920   -4.8340   22.5600 C   0  0  0  0  0  0  0  0  0  0  0  0
  -22.2340   -4.2990   21.3640 F   0  0  0  0  0  0  0  0  0  0  0  0
  -21.3430   -3.7540   26.0230 F   0  0  0  0  0  0  0  0  0  0  0  0
  -22.7420  -13.5990   21.1430 C   0  0  0  0  0  0  0  0  0  0  0  0
  -22.0050  -12.9120   22.0090 N   0  0  0  0  0  0  0  0  0  0  0  0
  -22.3110  -14.6210   20.6110 O   0  0  0  0  0  0  0  0  0  0  0  0
  -22.3650  -12.0850   22.4620 H   0  0  0  0  0  0  0  0  0  0  0  0
  -21.0670  -13.2170   22.2210 H   0  0  0  0  0  0  0  0  0  0  0  0
  -25.3780  -15.2570   20.3340 N   0  0  0  0  0  0  0  0  0  0  0  0
  -24.6100  -15.9130   20.4280 H   0  0  0  0  0  0  0  0  0  0  0  0
  -26.2290  -15.6900   19.9960 H   0  0  0  0  0  0  0  0  0  0  0  0
  -28.9080  -22.2590   19.9150 C   0  0  0  0  0  3  0  0  0  0  0  0
  -28.9510  -23.7300   20.5960 C   0  0  0  0  0  3  0  0  0  0  0  0
  -28.1250  -24.9400   19.9070 C   0  0  0  0  0  2  0  0  0  0  0  0
  -28.2870  -26.3920   20.2760 O   0  0  0  0  0  0  0  0  0  0  0  0
  -24.6020  -31.8830   23.2620 C   0  0  0  0  0  0  0  0  0  0  0  0
  -27.1880  -27.2840   20.1920 C   0  0  0  0  0  0  0  0  0  0  0  0
  -23.3890  -30.4870   21.6280 C   0  0  0  0  0  3  0  0  0  0  0  0
  -24.8330  -28.9380   20.1890 C   0  0  0  0  0  0  0  0  0  0  0  0
  -25.9320  -30.7900   21.4390 C   0  0  0  0  0  2  0  0  0  0  0  0
  -26.0060  -29.4090   20.7890 C   0  0  0  0  0  0  0  0  0  0  0  0
  -27.1820  -28.5920   20.7870 C   0  0  0  0  0  3  0  0  0  0  0  0
  -25.9950  -26.8960   19.5370 C   0  0  0  0  0  3  0  0  0  0  0  0
  -24.8330  -27.6880   19.5520 C   0  0  0  0  0  3  0  0  0  0  0  0
  -23.5980  -29.8170   20.2450 C   0  0  0  0  0  2  0  0  0  0  0  0
  -24.6600  -31.0720   22.1650 N   0  0  0  0  0  0  0  0  0  0  0  0
  -23.5200  -32.1630   23.8010 O   0  0  0  0  0  0  0  0  0  0  0  0
  -22.7280  -29.4710   22.5900 C   0  0  0  0  0  0  0  0  0  0  0  0
  -21.4020  -29.2910   22.4650 N   0  0  0  0  0  0  0  0  0  0  0  0
  -23.4080  -28.8490   23.4100 O   0  0  0  0  0  0  0  0  0  0  0  0
  -20.9100  -29.8450   21.7780 H   0  0  0  0  0  0  0  0  0  0  0  0
  -18.0310  -28.0740   22.9630 C   0  0  0  0  0  0  0  0  0  0  0  0
  -20.5860  -28.3530   23.2400 C   0  0  0  0  0  3  0  0  0  0  0  0
  -20.7000  -26.9170   22.6750 C   0  0  0  0  0  2  0  0  0  0  0  0
  -19.6040  -26.5800   21.6590 C   0  0  0  0  0  2  0  0  0  0  0  0
  -18.2190  -26.7210   22.2970 C   0  0  0  0  0  2  0  0  0  0  0  0
  -19.1430  -28.8470   23.3920 C   0  0  0  0  0  0  0  0  0  0  0  0
  -18.9130  -30.1120   23.9750 C   0  0  0  0  0  3  0  0  0  0  0  0
  -17.6040  -30.6050   24.1340 C   0  0  0  0  0  3  0  0  0  0  0  0
  -16.5070  -29.8300   23.7210 C   0  0  0  0  0  3  0  0  0  0  0  0
  -16.7200  -28.5660   23.1410 C   0  0  0  0  0  3  0  0  0  0  0  0
  -25.8860  -32.5160   23.8780 C   0  0  0  0  0  3  0  0  0  0  0  0
  -26.4050  -31.7460   25.1540 C   0  0  1  0  0  0  0  0  0  0  0  0
  -25.3140  -31.5150   26.2270 C   0  0  0  0  0  1  0  0  0  0  0  0
  -26.9810  -30.3650   24.7650 C   0  0  0  0  0  1  0  0  0  0  0  0
  -27.5610  -32.5370   25.8080 C   0  0  0  0  0  1  0  0  0  0  0  0
  -25.5810  -33.9160   24.2080 N   0  0  0  0  0  0  0  0  0  0  0  0
  -25.9070  -34.9680   23.4450 C   0  0  0  0  0  0  0  0  0  0  0  0
  -26.5670  -34.8610   22.4080 O   0  0  0  0  0  0  0  0  0  0  0  0
  -24.9960  -34.0710   25.0160 H   0  0  0  0  0  0  0  0  0  0  0  0
  -24.1760  -36.7610   23.1060 C   0  0  0  0  0  1  0  0  0  0  0  0
  -25.4260  -36.3570   23.9050 C   0  0  0  0  0  3  0  0  0  0  0  0
  -27.5730  -37.2410   24.7060 C   0  0  0  0  0  1  0  0  0  0  0  0
  -26.4580  -37.4100   23.7790 N   0  0  0  0  0  0  0  0  0  0  0  0
  -26.0550  -38.3300   23.9340 H   0  0  0  0  0  0  0  0  0  0  0  0
  2  4  2  0
  2  3  1  0
  3  6  2  0
  4  7  1  0
  6  5  1  0
  6 16  1  0
  7  1  1  0
  7  5  2  0
  8 16  1  0
  9 14  1  0
 10 11  1  0
 10  9  1  0
 12 11  1  0
 12 21  1  0
 12 13  1  0
 14  8  1  0
 14 13  1  0
 15  8  2  0
 16 17  1  0
 18 19  2  0
 19 38  1  0
 20 19  1  0
 20 23  1  0
 21 18  1  0
 21 22  1  0
 22 20  2  0
 23 24  1  0
 24 25  2  0
 26 29  1  0
 26 25  1  0
 27 26  2  0
 28 27  1  0
 28 23  2  0
 29 30  1  0
 30 31  1  0
 31 32  2  0
 33 32  1  0
 33 37  1  0
 34 33  2  0
 35 30  2  0
 35 34  1  0
 36 35  1  0
 38 39  1  0
 39 42  1  0
 39 41  1  0
 40 38  2  0
 43 44  1  0
 43 18  1  0
 45 43  1  0
 46 47  2  0
 46  1  1  0
 48 49  1  0
 48 47  1  0
 50 61  2  0
 51 49  1  0
 51 56  1  0
 52 60  1  0
 52 62  1  0
 53 59  1  0
 53 55  1  0
 54 60  1  0
 55 54  1  0
 56 55  2  0
 57 58  1  0
 57 51  2  0
 58 53  2  0
 59 52  1  0
 60 50  1  0
 62 64  2  0
 63 62  1  0
 65 63  1  0
 66 75  2  0
 66 71  1  0
 67 63  1  0
 67 71  1  0
 68 67  1  0
 69 70  1  0
 69 68  1  0
 70 66  1  0
 71 72  2  0
 72 73  1  0
 74 73  2  0
 75 74  1  0
 76 50  1  0
 76 81  1  0
 76 77  1  0
 77 80  1  1
 77 78  1  0
 79 77  1  0
 81 84  1  0
 82 86  1  0
 82 81  1  0
 83 82  2  0
 86 85  1  0
 88 86  1  0
 88 89  1  0
 88 87  1  0
M  ISO  4   8 100  16 100  48 101  49 101
M  END
>  <TORSDO>  (76) 
F 20

>  <SCORE>  (76) 
-13.721

>  <name>  (76) 
75

>  <ligand_id>  (76) 
75

>  <original_smiles>  (76) 
[H]c1c([H])c(OC([H])([H])C([H])([H])C([H])([H])Oc2c([H])c([H])c3c(c2[H])C([H])([H])N(C(=O)C([H])(N([H])C(=O)C([H])(N([H])C([H])([H])[H])C([H])([H])[H])C(C([H])([H])[H])(C([H])([H])[H])C([H])([H])[H])C([H])(C(=O)N([H])C2([H])c4c([H])c([H])c([H])c([H])c4C([H])([H])C([H])([H])C2([H])[H])C3([H])[H])c([H])c(N([H])C(=O)N2C([H])([H])C([H])([H])C([H])([H])C([H])(n3nc(-c4c([H])c([H])c(Oc5c([H])c([H])c(F)c([H])c5F)c([H])c4[H])c(C(=O)N([H])[H])c3N([H])[H])C2([H])[H])c1[H]

>  <smiles>  (76) 
[H]c1c([H])c(OC([H])([H])C([H])([H])C([H])([H])Oc2c([H])c([H])c3c(c2[H])C([H])([H])N(C(=O)C([H])(N([H])C(=O)C([H])(N([H])C([H])([H])[H])C([H])([H])[H])C(C([H])([H])[H])(C([H])([H])[H])C([H])([H])[H])C([H])(C(=O)N([H])C2([H])c4c([H])c([H])c([H])c([H])c4C([H])([H])C([H])([H])C2([H])[H])C3([H])[H])c([H])c(N([H])C(=O)N2C([H])([H])C([H])([H])C([H])([H])C([H])(n3nc(-c4c([H])c([H])c(Oc5c([H])c([H])c(F)c([H])c5F)c([H])c4[H])c(C(=O)N([H])[H])c3N([H])[H])C2([H])[H])c1[H]

$$$$
76:0:0
     RDKit          3D

 99107  0  0  1  0  0  0  0  0999 V2000
  -29.7850  -18.3400   20.4370 C   0  0  0  0  0  3  0  0  0  0  0  0
  -32.0930  -17.5590   20.3550 C   0  0  0  0  0  3  0  0  0  0  0  0
  -31.6040  -19.9560   20.4790 C   0  0  0  0  0  3  0  0  0  0  0  0
  -30.7120  -17.2630   20.3640 C   0  0  0  0  0  0  0  0  0  0  0  0
  -30.2120  -19.6960   20.4740 C   0  0  0  0  0  0  0  0  0  0  0  0
  -32.5270  -18.8960   20.4140 C   0  0  0  0  0  0  0  0  0  0  0  0
  -30.9910  -14.8090   20.0380 C   0  0  0  0  0  0  0  0  0  0  0  0
  -30.7440  -12.4790   19.2580 C   0  0  0  0  0  2  0  0  0  0  0  0
  -29.8080  -12.4480   18.0330 C   0  0  0  0  0  2  0  0  0  0  0  0
  -28.3340  -12.3470   18.4770 C   0  0  0  0  0  2  0  0  0  0  0  0
  -27.9650  -13.3790   19.5760 C   0  0  0  0  0  3  0  0  0  0  0  0
  -29.0180  -13.3820   20.7070 C   0  0  0  0  0  2  0  0  0  0  0  0
  -30.3340  -13.6170   20.0950 N   0  0  0  0  0  0  0  0  0  0  0  0
  -32.1270  -14.9170   19.5680 O   0  0  0  0  0  0  0  0  0  0  0  0
  -30.2590  -15.9020   20.3500 N   0  0  0  0  0  0  0  0  0  0  0  0
  -29.2800  -15.7390   20.5280 H   0  0  0  0  0  0  0  0  0  0  0  0
  -25.6140  -14.0740   20.3550 C   0  0  0  0  0  0  0  0  0  0  0  0
  -24.5260  -13.3420   20.7480 C   0  0  0  0  0  0  0  0  0  0  0  0
  -24.9310  -11.9730   20.6930 C   0  0  0  0  0  0  0  0  0  0  0  0
  -26.6160  -13.1540   20.0900 N   0  0  0  0  0  0  0  0  0  0  0  0
  -26.2110  -11.8850   20.3500 N   0  0  0  0  0  0  0  0  0  0  0  0
  -24.1600  -10.7390   20.8930 C   0  0  0  0  0  0  0  0  0  0  0  0
  -24.5650   -9.7560   21.8230 C   0  0  0  0  0  3  0  0  0  0  0  0
  -23.7970   -8.5880   22.0080 C   0  0  0  0  0  3  0  0  0  0  0  0
  -22.6090   -8.3920   21.2630 C   0  0  0  0  0  0  0  0  0  0  0  0
  -22.2250   -9.3630   20.3200 C   0  0  0  0  0  3  0  0  0  0  0  0
  -22.9940  -10.5240   20.1330 C   0  0  0  0  0  3  0  0  0  0  0  0
  -21.8120   -7.2780   21.3590 O   0  0  0  0  0  0  0  0  0  0  0  0
  -21.7270   -6.5510   22.5210 C   0  0  0  0  0  0  0  0  0  0  0  0
  -21.3310   -7.1410   23.7400 C   0  0  0  0  0  3  0  0  0  0  0  0
  -21.1880   -6.3450   24.8940 C   0  0  0  0  0  3  0  0  0  0  0  0
  -21.4340   -4.9600   24.8290 C   0  0  0  0  0  0  0  0  0  0  0  0
  -21.8220   -4.3710   23.6130 C   0  0  0  0  0  3  0  0  0  0  0  0
  -21.9660   -5.1640   22.4610 C   0  0  0  0  0  0  0  0  0  0  0  0
  -22.3210   -4.5880   21.2880 F   0  0  0  0  0  0  0  0  0  0  0  0
  -21.2900   -4.1930   25.9340 F   0  0  0  0  0  0  0  0  0  0  0  0
  -23.1570  -13.8730   21.0590 C   0  0  0  0  0  0  0  0  0  0  0  0
  -22.4350  -13.2160   21.9610 N   0  0  0  0  0  0  0  0  0  0  0  0
  -22.7380  -14.9050   20.5380 O   0  0  0  0  0  0  0  0  0  0  0  0
  -22.7860  -12.3810   22.4050 H   0  0  0  0  0  0  0  0  0  0  0  0
  -21.5150  -13.5540   22.2100 H   0  0  0  0  0  0  0  0  0  0  0  0
  -25.8290  -15.4380   20.1820 N   0  0  0  0  0  0  0  0  0  0  0  0
  -25.0870  -16.1190   20.3000 H   0  0  0  0  0  0  0  0  0  0  0  0
  -26.6810  -15.8430   19.8170 H   0  0  0  0  0  0  0  0  0  0  0  0
  -34.6020  -20.1690   21.5040 O   0  0  0  0  0  0  0  0  0  0  0  0
  -35.0420  -18.0100   20.2320 O   0  0  0  0  0  0  0  0  0  0  0  0
  -34.2830  -19.2610   20.3890 S   0  0  1  0  0  0  0  0  0  0  0  0
  -34.1360  -21.5940   18.9160 C   0  0  0  0  0  1  0  0  0  0  0  0
  -34.4800  -20.1610   18.9210 N   0  0  0  0  0  0  0  0  0  0  0  0
  -34.2410  -19.4590   17.6440 C   0  0  0  0  0  2  0  0  0  0  0  0
  -35.3310  -19.7680   16.6010 C   0  0  0  0  0  2  0  0  0  0  0  0
  -37.7730  -19.4850   15.9140 C   0  0  0  0  0  1  0  0  0  0  0  0
  -36.7200  -19.2480   17.0040 C   0  0  0  0  0  2  0  0  0  0  0  0
  -29.2520  -20.7020   20.5010 O   0  0  0  0  0  0  0  0  0  0  0  0
  -29.6780  -22.0790   20.4710 C   0  0  0  0  0  2  0  0  0  0  0  0
  -28.4870  -23.0260   20.1880 C   0  0  0  0  0  2  0  0  0  0  0  0
  -28.8400  -24.5320   19.9970 C   0  0  0  0  0  2  0  0  0  0  0  0
  -27.5830  -25.3760   19.6780 C   0  0  0  0  0  2  0  0  0  0  0  0
  -27.7880  -26.7950   19.4710 O   0  0  0  0  0  0  0  0  0  0  0  0
  -24.4550  -31.9220   23.1580 C   0  0  0  0  0  0  0  0  0  0  0  0
  -26.6560  -27.5920   19.5820 C   0  0  0  0  0  0  0  0  0  0  0  0
  -23.0540  -30.6280   21.5890 C   0  0  0  0  0  3  0  0  0  0  0  0
  -24.3150  -29.1620   19.9270 C   0  0  0  0  0  0  0  0  0  0  0  0
  -25.5540  -30.9580   21.1350 C   0  0  0  0  0  2  0  0  0  0  0  0
  -25.5440  -29.6210   20.4160 C   0  0  0  0  0  0  0  0  0  0  0  0
  -26.7170  -28.8450   20.2440 C   0  0  0  0  0  3  0  0  0  0  0  0
  -25.4040  -27.1730   19.0650 C   0  0  0  0  0  3  0  0  0  0  0  0
  -24.2410  -27.9390   19.2460 C   0  0  0  0  0  3  0  0  0  0  0  0
  -23.1000  -30.0300   20.1600 C   0  0  0  0  0  2  0  0  0  0  0  0
  -24.3800  -31.1800   22.0170 N   0  0  0  0  0  0  0  0  0  0  0  0
  -23.4430  -32.1780   23.8270 O   0  0  0  0  0  0  0  0  0  0  0  0
  -22.4930  -29.5600   22.5580 C   0  0  0  0  0  0  0  0  0  0  0  0
  -21.1830  -29.2850   22.4540 N   0  0  0  0  0  0  0  0  0  0  0  0
  -23.2330  -28.9840   23.3610 O   0  0  0  0  0  0  0  0  0  0  0  0
  -20.6420  -29.8050   21.7770 H   0  0  0  0  0  0  0  0  0  0  0  0
  -17.9640  -27.6890   22.8420 C   0  0  0  0  0  0  0  0  0  0  0  0
  -20.4450  -28.2930   23.2380 C   0  0  0  0  0  3  0  0  0  0  0  0
  -20.7660  -26.8570   22.7610 C   0  0  0  0  0  2  0  0  0  0  0  0
  -19.7790  -26.3380   21.7110 C   0  0  0  0  0  2  0  0  0  0  0  0
  -18.3530  -26.3380   22.2690 C   0  0  0  0  0  2  0  0  0  0  0  0
  -18.9470  -28.6130   23.2830 C   0  0  0  0  0  0  0  0  0  0  0  0
  -18.5310  -29.8700   23.7750 C   0  0  0  0  0  3  0  0  0  0  0  0
  -17.1660  -30.2060   23.8370 C   0  0  0  0  0  3  0  0  0  0  0  0
  -16.1970  -29.2800   23.4150 C   0  0  0  0  0  3  0  0  0  0  0  0
  -16.5960  -28.0240   22.9210 C   0  0  0  0  0  3  0  0  0  0  0  0
  -25.8110  -32.5040   23.6640 C   0  0  0  0  0  3  0  0  0  0  0  0
  -26.4410  -31.6700   24.8470 C   0  0  1  0  0  0  0  0  0  0  0  0
  -25.4640  -31.4160   26.0190 C   0  0  0  0  0  1  0  0  0  0  0  0
  -26.9370  -30.2970   24.3370 C   0  0  0  0  0  1  0  0  0  0  0  0
  -27.6800  -32.4060   25.4050 C   0  0  0  0  0  1  0  0  0  0  0  0
  -25.5680  -33.8930   24.0800 N   0  0  0  0  0  0  0  0  0  0  0  0
  -25.9380  -34.9700   23.3750 C   0  0  0  0  0  0  0  0  0  0  0  0
  -26.5890  -34.8960   22.3290 O   0  0  0  0  0  0  0  0  0  0  0  0
  -24.9920  -34.0270   24.8980 H   0  0  0  0  0  0  0  0  0  0  0  0
  -24.2920  -36.8540   23.1420 C   0  0  0  0  0  1  0  0  0  0  0  0
  -25.5200  -36.3490   23.9180 C   0  0  0  0  0  3  0  0  0  0  0  0
  -27.7010  -37.0800   24.7770 C   0  0  0  0  0  1  0  0  0  0  0  0
  -26.6000  -37.3590   23.8580 N   0  0  0  0  0  0  0  0  0  0  0  0
  -26.2360  -38.2850   24.0670 H   0  0  0  0  0  0  0  0  0  0  0  0
  1  5  1  0
  2  4  1  0
  2  6  2  0
  4  1  2  0
  5  3  2  0
  5 54  1  0
  6  3  1  0
  7 13  1  0
  7 15  1  0
  8 13  1  0
  9 10  1  0
  9  8  1  0
 11 10  1  0
 11 20  1  0
 11 12  1  0
 13 12  1  0
 14  7  2  0
 15  4  1  0
 15 16  1  0
 17 18  2  0
 18 37  1  0
 19 18  1  0
 19 22  1  0
 20 21  1  0
 20 17  1  0
 21 19  2  0
 22 23  1  0
 23 24  2  0
 25 28  1  0
 25 24  1  0
 26 25  2  0
 27 26  1  0
 27 22  2  0
 28 29  1  0
 29 30  1  0
 30 31  2  0
 32 31  1  0
 32 36  1  0
 33 32  2  0
 34 29  2  0
 34 33  1  0
 35 34  1  0
 37 38  1  0
 38 41  1  0
 38 40  1  0
 39 37  2  0
 42 43  1  0
 42 17  1  0
 44 42  1  0
 46 47  2  0
 47  6  1  0
 47 45  2  0
 48 49  1  0
 47 49  1  6
 50 49  1  0
 51 53  1  0
 51 50  1  0
 52 53  1  0
 55 54  1  0
 56 55  1  0
 57 56  1  0
 58 57  1  0
 59 61  1  0
 59 58  1  0
 60 71  2  0
 61 66  1  0
 62 70  1  0
 62 72  1  0
 63 69  1  0
 63 65  1  0
 64 70  1  0
 65 64  1  0
 66 65  2  0
 67 68  1  0
 67 61  2  0
 68 63  2  0
 69 62  1  0
 70 60  1  0
 72 74  2  0
 73 72  1  0
 75 73  1  0
 76 85  2  0
 76 81  1  0
 77 73  1  0
 77 81  1  0
 78 77  1  0
 79 80  1  0
 79 78  1  0
 80 76  1  0
 81 82  2  0
 82 83  1  0
 84 83  2  0
 85 84  1  0
 86 60  1  0
 86 91  1  0
 86 87  1  0
 87 90  1  1
 87 88  1  0
 89 87  1  0
 91 94  1  0
 92 96  1  0
 92 91  1  0
 93 92  2  0
 96 95  1  0
 98 96  1  0
 98 99  1  0
 98 97  1  0
M  ISO  4   7 100  15 100  58 101  59 101
M  END
>  <TORSDO>  (77) 
F 26

>  <SCORE>  (77) 
-11.646

>  <name>  (77) 
76

>  <ligand_id>  (77) 
76

>  <original_smiles>  (77) 
[H]c1c([H])c([H])c2c(c1[H])C([H])([H])C([H])([H])C([H])([H])C2([H])N([H])C(=O)C1([H])N(C(=O)C([H])(N([H])C(=O)C([H])(N([H])C([H])([H])[H])C([H])([H])[H])C(C([H])([H])[H])(C([H])([H])[H])C([H])([H])[H])C([H])([H])c2c([H])c(OC([H])([H])C([H])([H])C([H])([H])C([H])([H])Oc3c([H])c(N([H])C(=O)N4C([H])([H])C([H])([H])C([H])([H])C([H])(n5nc(-c6c([H])c([H])c(Oc7c([H])c([H])c(F)c([H])c7F)c([H])c6[H])c(C(=O)N([H])[H])c5N([H])[H])C4([H])[H])c([H])c(S(=O)(=O)N(C([H])([H])[H])C([H])([H])C([H])([H])C([H])([H])C([H])([H])[H])c3[H])c([H])c([H])c2C1([H])[H]

>  <smiles>  (77) 
[H]c1c([H])c([H])c2c(c1[H])C([H])([H])C([H])([H])C([H])([H])C2([H])N([H])C(=O)C1([H])N(C(=O)C([H])(N([H])C(=O)C([H])(N([H])C([H])([H])[H])C([H])([H])[H])C(C([H])([H])[H])(C([H])([H])[H])C([H])([H])[H])C([H])([H])c2c([H])c(OC([H])([H])C([H])([H])C([H])([H])C([H])([H])Oc3c([H])c(N([H])C(=O)N4C([H])([H])C([H])([H])C([H])([H])C([H])(n5nc(-c6c([H])c([H])c(Oc7c([H])c([H])c(F)c([H])c7F)c([H])c6[H])c(C(=O)N([H])[H])c5N([H])[H])C4([H])[H])c([H])c(S(=O)(=O)N(C([H])([H])[H])C([H])([H])C([H])([H])C([H])([H])C([H])([H])[H])c3[H])c([H])c([H])c2C1([H])[H]

$$$$
77:0:0
     RDKit          3D

 92100  0  0  1  0  0  0  0  0999 V2000
  -28.5560  -19.7120   20.6000 C   0  0  0  0  0  3  0  0  0  0  0  0
  -30.6210  -18.5850   19.1470 C   0  0  0  0  0  3  0  0  0  0  0  0
  -28.8320  -18.2900   20.6630 C   0  0  0  0  0  0  0  0  0  0  0  0
  -30.3510  -20.0300   19.0980 C   0  0  0  0  0  0  0  0  0  0  0  0
  -29.2730  -20.6730   19.8180 C   0  0  0  0  0  0  0  0  0  0  0  0
  -29.8600  -17.6260   19.9080 C   0  0  0  0  0  0  0  0  0  0  0  0
  -27.9630  -17.4560   21.5930 C   0  0  0  0  0  1  0  0  0  0  0  0
  -31.2250  -20.8860   18.2020 C   0  0  0  0  0  1  0  0  0  0  0  0
  -30.7230  -15.0130   19.4570 C   0  0  0  0  0  0  0  0  0  0  0  0
  -30.5030  -12.6890   18.4640 C   0  0  0  0  0  2  0  0  0  0  0  0
  -29.3930  -12.6860   17.3850 C   0  0  0  0  0  2  0  0  0  0  0  0
  -28.0080  -12.4550   18.0190 C   0  0  0  0  0  2  0  0  0  0  0  0
  -27.7810  -13.3400   19.2710 C   0  0  0  0  0  3  0  0  0  0  0  0
  -28.9900  -13.2960   20.2330 C   0  0  0  0  0  2  0  0  0  0  0  0
  -30.1700  -13.7350   19.4710 N   0  0  0  0  0  0  0  0  0  0  0  0
  -31.8300  -15.1610   18.9260 O   0  0  0  0  0  0  0  0  0  0  0  0
  -29.9390  -16.0900   19.9360 N   0  0  0  0  0  0  0  0  0  0  0  0
  -29.1490  -15.7010   20.4260 H   0  0  0  0  0  0  0  0  0  0  0  0
  -25.5630  -13.8960   20.4290 C   0  0  0  0  0  0  0  0  0  0  0  0
  -24.5470  -13.1130   20.8980 C   0  0  0  0  0  0  0  0  0  0  0  0
  -24.9500  -11.7620   20.6670 C   0  0  0  0  0  0  0  0  0  0  0  0
  -26.5260  -13.0260   19.9460 N   0  0  0  0  0  0  0  0  0  0  0  0
  -26.1730  -11.7280   20.1480 N   0  0  0  0  0  0  0  0  0  0  0  0
  -24.2170  -10.5040   20.8520 C   0  0  0  0  0  0  0  0  0  0  0  0
  -24.6490   -9.5250   21.7740 C   0  0  0  0  0  3  0  0  0  0  0  0
  -23.9140   -8.3320   21.9480 C   0  0  0  0  0  3  0  0  0  0  0  0
  -22.7340   -8.1100   21.2000 C   0  0  0  0  0  0  0  0  0  0  0  0
  -22.3210   -9.0770   20.2670 C   0  0  0  0  0  3  0  0  0  0  0  0
  -23.0560  -10.2600   20.0900 C   0  0  0  0  0  3  0  0  0  0  0  0
  -21.9710   -6.9710   21.2850 O   0  0  0  0  0  0  0  0  0  0  0  0
  -21.7520   -6.3380   22.4820 C   0  0  0  0  0  0  0  0  0  0  0  0
  -21.1220   -6.9890   23.5660 C   0  0  0  0  0  3  0  0  0  0  0  0
  -20.8540   -6.2810   24.7540 C   0  0  0  0  0  3  0  0  0  0  0  0
  -21.2060   -4.9230   24.8580 C   0  0  0  0  0  0  0  0  0  0  0  0
  -21.8290   -4.2700   23.7800 C   0  0  0  0  0  3  0  0  0  0  0  0
  -22.0980   -4.9760   22.5940 C   0  0  0  0  0  0  0  0  0  0  0  0
  -22.6780   -4.3380   21.5500 F   0  0  0  0  0  0  0  0  0  0  0  0
  -20.9420   -4.2400   25.9970 F   0  0  0  0  0  0  0  0  0  0  0  0
  -23.2290  -13.5920   21.4360 C   0  0  0  0  0  0  0  0  0  0  0  0
  -22.6320  -12.8400   22.3540 N   0  0  0  0  0  0  0  0  0  0  0  0
  -22.7460  -14.6640   21.0800 O   0  0  0  0  0  0  0  0  0  0  0  0
  -23.0390  -11.9710   22.6640 H   0  0  0  0  0  0  0  0  0  0  0  0
  -21.7550  -13.1410   22.7550 H   0  0  0  0  0  0  0  0  0  0  0  0
  -25.7380  -15.2750   20.3450 N   0  0  0  0  0  0  0  0  0  0  0  0
  -24.9960  -15.9170   20.6050 H   0  0  0  0  0  0  0  0  0  0  0  0
  -26.4930  -15.7260   19.8460 H   0  0  0  0  0  0  0  0  0  0  0  0
  -29.1680  -23.4520   19.7630 C   0  0  0  0  0  0  0  0  0  0  0  0
  -28.7250  -22.1050   19.6950 N   0  0  0  0  0  0  0  0  0  0  0  0
  -30.3490  -23.7040   20.0080 O   0  0  0  0  0  0  0  0  0  0  0  0
  -27.7190  -22.1000   19.5940 H   0  0  0  0  0  0  0  0  0  0  0  0
  -28.1340  -24.7250   19.5020 C   0  0  0  0  0  2  0  0  0  0  0  0
  -28.4420  -26.2210   19.8060 O   0  0  0  0  0  0  0  0  0  0  0  0
  -24.7340  -31.6590   23.1430 C   0  0  0  0  0  0  0  0  0  0  0  0
  -27.3710  -27.1930   19.8060 C   0  0  0  0  0  0  0  0  0  0  0  0
  -23.5420  -30.3400   21.4370 C   0  0  0  0  0  3  0  0  0  0  0  0
  -25.0050  -28.8860   19.9040 C   0  0  0  0  0  0  0  0  0  0  0  0
  -26.0880  -30.6700   21.2590 C   0  0  0  0  0  2  0  0  0  0  0  0
  -26.1830  -29.3200   20.5260 C   0  0  0  0  0  0  0  0  0  0  0  0
  -27.3660  -28.4910   20.4620 C   0  0  0  0  0  3  0  0  0  0  0  0
  -26.1620  -26.8680   19.1480 C   0  0  0  0  0  3  0  0  0  0  0  0
  -25.0060  -27.6740   19.2020 C   0  0  0  0  0  3  0  0  0  0  0  0
  -23.7600  -29.7500   20.0180 C   0  0  0  0  0  2  0  0  0  0  0  0
  -24.8090  -30.9080   22.0030 N   0  0  0  0  0  0  0  0  0  0  0  0
  -23.6490  -31.8890   23.6990 O   0  0  0  0  0  0  0  0  0  0  0  0
  -22.8950  -29.2620   22.3440 C   0  0  0  0  0  0  0  0  0  0  0  0
  -21.5740  -29.0550   22.2040 N   0  0  0  0  0  0  0  0  0  0  0  0
  -23.5860  -28.6180   23.1370 O   0  0  0  0  0  0  0  0  0  0  0  0
  -21.0710  -29.6320   21.5440 H   0  0  0  0  0  0  0  0  0  0  0  0
  -18.2290  -27.7340   22.6470 C   0  0  0  0  0  0  0  0  0  0  0  0
  -20.7810  -28.0540   22.9240 C   0  0  0  0  0  3  0  0  0  0  0  0
  -20.9210  -26.6580   22.2740 C   0  0  0  0  0  2  0  0  0  0  0  0
  -19.8260  -26.3580   21.2450 C   0  0  0  0  0  2  0  0  0  0  0  0
  -18.4420  -26.4290   21.8970 C   0  0  0  0  0  2  0  0  0  0  0  0
  -19.3260  -28.5050   23.1140 C   0  0  0  0  0  0  0  0  0  0  0  0
  -19.0720  -29.7260   23.7750 C   0  0  0  0  0  3  0  0  0  0  0  0
  -17.7520  -30.1770   23.9710 C   0  0  0  0  0  3  0  0  0  0  0  0
  -16.6700  -29.4030   23.5180 C   0  0  0  0  0  3  0  0  0  0  0  0
  -16.9090  -28.1830   22.8610 C   0  0  0  0  0  3  0  0  0  0  0  0
  -26.0070  -32.2820   23.7930 C   0  0  0  0  0  3  0  0  0  0  0  0
  -25.6850  -33.6650   24.1770 N   0  0  0  0  0  0  0  0  0  0  0  0
  -25.9580  -34.7470   23.4350 C   0  0  0  0  0  0  0  0  0  0  0  0
  -26.5770  -34.6880   22.3690 O   0  0  0  0  0  0  0  0  0  0  0  0
  -25.1320  -33.7850   25.0130 H   0  0  0  0  0  0  0  0  0  0  0  0
  -24.1580  -36.4960   23.2560 C   0  0  0  0  0  1  0  0  0  0  0  0
  -25.4700  -36.1130   23.9580 C   0  0  0  0  0  3  0  0  0  0  0  0
  -27.6290  -37.0570   24.6500 C   0  0  0  0  0  1  0  0  0  0  0  0
  -26.4600  -37.1990   23.7860 N   0  0  0  0  0  0  0  0  0  0  0  0
  -26.0370  -38.1040   23.9710 H   0  0  0  0  0  0  0  0  0  0  0  0
  -26.5250  -31.4710   25.0450 C   0  0  1  0  0  0  0  0  0  0  0  0
  -25.4280  -31.1770   26.0930 C   0  0  0  0  0  1  0  0  0  0  0  0
  -27.1330  -30.1170   24.6090 C   0  0  0  0  0  1  0  0  0  0  0  0
  -27.6560  -32.2580   25.7460 C   0  0  0  0  0  1  0  0  0  0  0  0
  1  3  1  0
  2  6  1  0
  3  7  1  0
  4  2  2  0
  4  5  1  0
  5  1  2  0
  6 17  1  0
  6  3  2  0
  8  4  1  0
  9 15  1  0
  9 17  1  0
 10 15  1  0
 11 12  1  0
 11 10  1  0
 13 12  1  0
 13 22  1  0
 13 14  1  0
 15 14  1  0
 16  9  2  0
 17 18  1  0
 19 20  2  0
 20 39  1  0
 21 24  1  0
 21 20  1  0
 22 23  1  0
 22 19  1  0
 23 21  2  0
 24 25  1  0
 25 26  2  0
 27 30  1  0
 27 26  1  0
 28 27  2  0
 29 28  1  0
 29 24  2  0
 30 31  1  0
 31 36  2  0
 31 32  1  0
 32 33  2  0
 33 34  1  0
 34 38  1  0
 35 34  2  0
 36 35  1  0
 37 36  1  0
 39 40  1  0
 40 42  1  0
 40 43  1  0
 41 39  2  0
 44 19  1  0
 44 45  1  0
 46 44  1  0
 47 49  2  0
 48 47  1  0
 48  5  1  0
 50 48  1  0
 51 47  1  0
 51 52  1  0
 52 54  1  0
 53 64  2  0
 54 59  1  0
 55 63  1  0
 55 65  1  0
 56 62  1  0
 56 58  1  0
 57 63  1  0
 58 57  1  0
 59 58  2  0
 60 61  1  0
 60 54  2  0
 61 56  2  0
 62 55  1  0
 63 53  1  0
 65 67  2  0
 66 65  1  0
 68 66  1  0
 69 78  2  0
 69 74  1  0
 70 66  1  0
 70 74  1  0
 71 70  1  0
 72 73  1  0
 72 71  1  0
 73 69  1  0
 74 75  2  0
 75 76  1  0
 77 76  2  0
 78 77  1  0
 79 53  1  0
 79 80  1  0
 79 89  1  0
 80 83  1  0
 81 85  1  0
 81 80  1  0
 82 81  2  0
 85 84  1  0
 87 85  1  0
 87 88  1  0
 87 86  1  0
 89 92  1  1
 89 90  1  0
 91 89  1  0
M  ISO  4   9 100  17 100  51 101  52 101
M  END
>  <TORSDO>  (78) 
F 18

>  <SCORE>  (78) 
-10.836

>  <name>  (78) 
77

>  <ligand_id>  (78) 
77

>  <original_smiles>  (78) 
[H]c1c([H])c([H])c2c(c1[H])C([H])([H])C([H])([H])C([H])([H])C2([H])N([H])C(=O)C1([H])N(C(=O)C([H])(N([H])C(=O)C([H])(N([H])C([H])([H])[H])C([H])([H])[H])C(C([H])([H])[H])(C([H])([H])[H])C([H])([H])[H])C([H])([H])c2c([H])c(OC([H])([H])C(=O)N([H])c3c([H])c(C([H])([H])[H])c(N([H])C(=O)N4C([H])([H])C([H])([H])C([H])([H])C([H])(n5nc(-c6c([H])c([H])c(Oc7c([H])c([H])c(F)c([H])c7F)c([H])c6[H])c(C(=O)N([H])[H])c5N([H])[H])C4([H])[H])c([H])c3C([H])([H])[H])c([H])c([H])c2C1([H])[H]

>  <smiles>  (78) 
[H]c1c([H])c([H])c2c(c1[H])C([H])([H])C([H])([H])C([H])([H])C2([H])N([H])C(=O)C1([H])N(C(=O)C([H])(N([H])C(=O)C([H])(N([H])C([H])([H])[H])C([H])([H])[H])C(C([H])([H])[H])(C([H])([H])[H])C([H])([H])[H])C([H])([H])c2c([H])c(OC([H])([H])C(=O)N([H])c3c([H])c(C([H])([H])[H])c(N([H])C(=O)N4C([H])([H])C([H])([H])C([H])([H])C([H])(n5nc(-c6c([H])c([H])c(Oc7c([H])c([H])c(F)c([H])c7F)c([H])c6[H])c(C(=O)N([H])[H])c5N([H])[H])C4([H])[H])c([H])c3C([H])([H])[H])c([H])c([H])c2C1([H])[H]

$$$$
78:0:0
     RDKit          3D

 90 98  0  0  1  0  0  0  0  0999 V2000
  -28.2710  -19.5860   20.4890 C   0  0  0  0  0  3  0  0  0  0  0  0
  -30.3190  -20.0590   19.4470 C   0  0  0  0  0  3  0  0  0  0  0  0
  -28.5690  -18.1730   20.4990 C   0  0  0  0  0  0  0  0  0  0  0  0
  -30.6370  -18.6230   19.4270 C   0  0  0  0  0  0  0  0  0  0  0  0
  -29.7630  -17.5890   19.9480 C   0  0  0  0  0  0  0  0  0  0  0  0
  -29.1000  -20.6220   19.9660 C   0  0  0  0  0  0  0  0  0  0  0  0
  -27.5190  -17.2910   21.1620 C   0  0  0  0  0  1  0  0  0  0  0  0
  -31.9520  -18.2130   18.7940 C   0  0  0  0  0  1  0  0  0  0  0  0
  -30.6910  -14.9830   19.5000 C   0  0  0  0  0  0  0  0  0  0  0  0
  -30.4740  -12.6730   18.4830 C   0  0  0  0  0  2  0  0  0  0  0  0
  -29.3650  -12.6890   17.4030 C   0  0  0  0  0  2  0  0  0  0  0  0
  -27.9770  -12.4560   18.0310 C   0  0  0  0  0  2  0  0  0  0  0  0
  -27.7490  -13.3230   19.2960 C   0  0  0  0  0  3  0  0  0  0  0  0
  -28.9560  -13.2600   20.2570 C   0  0  0  0  0  2  0  0  0  0  0  0
  -30.1380  -13.7050   19.5010 N   0  0  0  0  0  0  0  0  0  0  0  0
  -31.8160  -15.1230   19.0060 O   0  0  0  0  0  0  0  0  0  0  0  0
  -29.8760  -16.0550   19.9330 N   0  0  0  0  0  0  0  0  0  0  0  0
  -29.0580  -15.6460   20.3560 H   0  0  0  0  0  0  0  0  0  0  0  0
  -25.5140  -13.8650   20.4270 C   0  0  0  0  0  0  0  0  0  0  0  0
  -24.5040  -13.0740   20.8990 C   0  0  0  0  0  0  0  0  0  0  0  0
  -24.9260  -11.7260   20.6830 C   0  0  0  0  0  0  0  0  0  0  0  0
  -26.4910  -13.0010   19.9630 N   0  0  0  0  0  0  0  0  0  0  0  0
  -26.1530  -11.7020   20.1750 N   0  0  0  0  0  0  0  0  0  0  0  0
  -24.2050  -10.4610   20.8720 C   0  0  0  0  0  0  0  0  0  0  0  0
  -24.6540   -9.4830   21.7870 C   0  0  0  0  0  3  0  0  0  0  0  0
  -23.9300   -8.2840   21.9660 C   0  0  0  0  0  3  0  0  0  0  0  0
  -22.7440   -8.0540   21.2300 C   0  0  0  0  0  0  0  0  0  0  0  0
  -22.3140   -9.0200   20.3030 C   0  0  0  0  0  3  0  0  0  0  0  0
  -23.0380  -10.2110   20.1220 C   0  0  0  0  0  3  0  0  0  0  0  0
  -21.9920   -6.9070   21.3190 O   0  0  0  0  0  0  0  0  0  0  0  0
  -21.8230   -6.2490   22.5120 C   0  0  0  0  0  0  0  0  0  0  0  0
  -21.2300   -6.8730   23.6310 C   0  0  0  0  0  3  0  0  0  0  0  0
  -21.0130   -6.1390   24.8130 C   0  0  0  0  0  3  0  0  0  0  0  0
  -21.3780   -4.7800   24.8770 C   0  0  0  0  0  0  0  0  0  0  0  0
  -21.9640   -4.1560   23.7620 C   0  0  0  0  0  3  0  0  0  0  0  0
  -22.1830   -4.8880   22.5820 C   0  0  0  0  0  0  0  0  0  0  0  0
  -22.7280   -4.2760   21.5040 F   0  0  0  0  0  0  0  0  0  0  0  0
  -21.1620   -4.0730   26.0100 F   0  0  0  0  0  0  0  0  0  0  0  0
  -23.1780  -13.5430   21.4220 C   0  0  0  0  0  0  0  0  0  0  0  0
  -22.5820  -12.7930   22.3430 N   0  0  0  0  0  0  0  0  0  0  0  0
  -22.6850  -14.6070   21.0500 O   0  0  0  0  0  0  0  0  0  0  0  0
  -22.9980  -11.9310   22.6640 H   0  0  0  0  0  0  0  0  0  0  0  0
  -21.6980  -13.0880   22.7350 H   0  0  0  0  0  0  0  0  0  0  0  0
  -25.6670  -15.2430   20.3240 N   0  0  0  0  0  0  0  0  0  0  0  0
  -24.8990  -15.8660   20.5480 H   0  0  0  0  0  0  0  0  0  0  0  0
  -26.3900  -15.6930   19.7790 H   0  0  0  0  0  0  0  0  0  0  0  0
  -28.5640  -21.9840   19.9810 O   0  0  0  0  0  0  0  0  0  0  0  0
  -29.1670  -23.3750   19.7680 C   0  0  0  0  0  3  0  0  0  0  0  0
  -28.1510  -24.7030   19.5720 C   0  0  0  0  0  3  0  0  0  0  0  0
  -28.4280  -26.2260   19.7140 O   0  0  0  0  0  0  0  0  0  0  0  0
  -24.6950  -31.6620   22.9960 C   0  0  0  0  0  0  0  0  0  0  0  0
  -27.3470  -27.1800   19.7080 C   0  0  0  0  0  0  0  0  0  0  0  0
  -23.5120  -30.3350   21.2890 C   0  0  0  0  0  3  0  0  0  0  0  0
  -24.9830  -28.8700   19.7780 C   0  0  0  0  0  0  0  0  0  0  0  0
  -26.0600  -30.6600   21.1300 C   0  0  0  0  0  2  0  0  0  0  0  0
  -26.1560  -29.3080   20.4040 C   0  0  0  0  0  0  0  0  0  0  0  0
  -27.3400  -28.4810   20.3530 C   0  0  0  0  0  3  0  0  0  0  0  0
  -26.1400  -26.8420   19.0520 C   0  0  0  0  0  3  0  0  0  0  0  0
  -24.9860  -27.6510   19.0880 C   0  0  0  0  0  3  0  0  0  0  0  0
  -23.7390  -29.7400   19.8750 C   0  0  0  0  0  2  0  0  0  0  0  0
  -24.7760  -30.9040   21.8600 N   0  0  0  0  0  0  0  0  0  0  0  0
  -23.6060  -31.8980   23.5430 O   0  0  0  0  0  0  0  0  0  0  0  0
  -22.8570  -29.2640   22.1960 C   0  0  0  0  0  0  0  0  0  0  0  0
  -21.5310  -29.0830   22.0720 N   0  0  0  0  0  0  0  0  0  0  0  0
  -23.5440  -28.6010   22.9770 O   0  0  0  0  0  0  0  0  0  0  0  0
  -21.0310  -29.6730   21.4220 H   0  0  0  0  0  0  0  0  0  0  0  0
  -18.1600  -27.8610   22.5880 C   0  0  0  0  0  0  0  0  0  0  0  0
  -20.7270  -28.0940   22.7970 C   0  0  0  0  0  3  0  0  0  0  0  0
  -20.8020  -26.7070   22.1160 C   0  0  0  0  0  2  0  0  0  0  0  0
  -19.6690  -26.4640   21.1140 C   0  0  0  0  0  2  0  0  0  0  0  0
  -18.3080  -26.5650   21.8090 C   0  0  0  0  0  2  0  0  0  0  0  0
  -19.2940  -28.5860   23.0390 C   0  0  0  0  0  0  0  0  0  0  0  0
  -19.0990  -29.8010   23.7310 C   0  0  0  0  0  3  0  0  0  0  0  0
  -17.8020  -30.2910   23.9750 C   0  0  0  0  0  3  0  0  0  0  0  0
  -16.6820  -29.5610   23.5380 C   0  0  0  0  0  3  0  0  0  0  0  0
  -16.8620  -28.3480   22.8510 C   0  0  0  0  0  3  0  0  0  0  0  0
  -25.9640  -32.2860   23.6510 C   0  0  0  0  0  3  0  0  0  0  0  0
  -26.4940  -31.4590   24.8870 C   0  0  1  0  0  0  0  0  0  0  0  0
  -25.4010  -31.1250   25.9290 C   0  0  0  0  0  1  0  0  0  0  0  0
  -27.1250  -30.1240   24.4260 C   0  0  0  0  0  1  0  0  0  0  0  0
  -27.6130  -32.2480   25.6050 C   0  0  0  0  0  1  0  0  0  0  0  0
  -25.6270  -33.6590   24.0610 N   0  0  0  0  0  0  0  0  0  0  0  0
  -25.9080  -34.7590   23.3500 C   0  0  0  0  0  0  0  0  0  0  0  0
  -26.5450  -34.7250   22.2930 O   0  0  0  0  0  0  0  0  0  0  0  0
  -25.0560  -33.7550   24.8870 H   0  0  0  0  0  0  0  0  0  0  0  0
  -24.1150  -36.5150   23.1640 C   0  0  0  0  0  1  0  0  0  0  0  0
  -25.4050  -36.1090   23.8960 C   0  0  0  0  0  3  0  0  0  0  0  0
  -27.5420  -37.0300   24.6790 C   0  0  0  0  0  1  0  0  0  0  0  0
  -26.4000  -37.1990   23.7850 N   0  0  0  0  0  0  0  0  0  0  0  0
  -25.9730  -38.0990   23.9830 H   0  0  0  0  0  0  0  0  0  0  0  0
  1  3  1  0
  2  6  1  0
  3  7  1  0
  4  2  2  0
  4  5  1  0
  5  3  2  0
  6 47  1  0
  6  1  2  0
  8  4  1  0
  9 15  1  0
  9 17  1  0
 10 15  1  0
 11 12  1  0
 11 10  1  0
 13 12  1  0
 13 22  1  0
 13 14  1  0
 15 14  1  0
 16  9  2  0
 17  5  1  0
 17 18  1  0
 19 20  2  0
 20 39  1  0
 21 24  1  0
 21 20  1  0
 22 23  1  0
 22 19  1  0
 23 21  2  0
 24 25  1  0
 25 26  2  0
 27 30  1  0
 27 26  1  0
 28 27  2  0
 29 28  1  0
 29 24  2  0
 30 31  1  0
 31 36  2  0
 31 32  1  0
 32 33  2  0
 33 34  1  0
 34 38  1  0
 35 34  2  0
 36 35  1  0
 37 36  1  0
 39 40  1  0
 40 42  1  0
 40 43  1  0
 41 39  2  0
 44 19  1  0
 44 45  1  0
 46 44  1  0
 48 47  1  0
 49 50  1  0
 49 48  2  0
 51 62  2  0
 52 50  1  0
 52 57  1  0
 53 61  1  0
 53 63  1  0
 54 60  1  0
 54 56  1  0
 55 61  1  0
 56 55  1  0
 57 56  2  0
 58 59  1  0
 58 52  2  0
 59 54  2  0
 60 53  1  0
 61 51  1  0
 63 65  2  0
 64 63  1  0
 66 64  1  0
 67 76  2  0
 67 72  1  0
 68 64  1  0
 68 72  1  0
 69 68  1  0
 70 71  1  0
 70 69  1  0
 71 67  1  0
 72 73  2  0
 73 74  1  0
 75 74  2  0
 76 75  1  0
 77 51  1  0
 77 82  1  0
 77 78  1  0
 78 81  1  1
 78 79  1  0
 80 78  1  0
 82 85  1  0
 83 87  1  0
 83 82  1  0
 84 83  2  0
 87 86  1  0
 89 87  1  0
 89 90  1  0
 89 88  1  0
M  ISO  4   9 100  17 100  49 101  50 101
M  END
>  <TORSDO>  (79) 
F 19

>  <SCORE>  (79) 
-11.565

>  <name>  (79) 
78

>  <ligand_id>  (79) 
78

>  <original_smiles>  (79) 
[H]c1c([H])c([H])c2c(c1[H])C([H])([H])C([H])([H])C([H])([H])C2([H])N([H])C(=O)C1([H])N(C(=O)C([H])(N([H])C(=O)C([H])(N([H])C([H])([H])[H])C([H])([H])[H])C(C([H])([H])[H])(C([H])([H])[H])C([H])([H])[H])C([H])([H])c2c([H])c(OC([H])([H])C([H])([H])Oc3c([H])c(C([H])([H])[H])c(N([H])C(=O)N4C([H])([H])C([H])([H])C([H])([H])C([H])(n5nc(-c6c([H])c([H])c(Oc7c([H])c([H])c(F)c([H])c7F)c([H])c6[H])c(C(=O)N([H])[H])c5N([H])[H])C4([H])[H])c(C([H])([H])[H])c3[H])c([H])c([H])c2C1([H])[H]

>  <smiles>  (79) 
[H]c1c([H])c([H])c2c(c1[H])C([H])([H])C([H])([H])C([H])([H])C2([H])N([H])C(=O)C1([H])N(C(=O)C([H])(N([H])C(=O)C([H])(N([H])C([H])([H])[H])C([H])([H])[H])C(C([H])([H])[H])(C([H])([H])[H])C([H])([H])[H])C([H])([H])c2c([H])c(OC([H])([H])C([H])([H])Oc3c([H])c(C([H])([H])[H])c(N([H])C(=O)N4C([H])([H])C([H])([H])C([H])([H])C([H])(n5nc(-c6c([H])c([H])c(Oc7c([H])c([H])c(F)c([H])c7F)c([H])c6[H])c(C(=O)N([H])[H])c5N([H])[H])C4([H])[H])c(C([H])([H])[H])c3[H])c([H])c([H])c2C1([H])[H]

$$$$
79:0:0
     RDKit          3D

 95103  0  0  1  0  0  0  0  0999 V2000
  -31.0930  -21.1980   19.4330 C   0  0  0  0  0  2  0  0  0  0  0  0
  -29.8550  -18.9950   19.0530 C   0  0  0  0  0  3  0  0  0  0  0  0
  -31.1020  -19.2530   21.1130 C   0  0  0  0  0  3  0  0  0  0  0  0
  -30.6370  -19.8050   19.9000 C   0  0  0  0  0  0  0  0  0  0  0  0
  -29.5820  -17.6450   19.3780 C   0  0  0  0  0  0  0  0  0  0  0  0
  -30.8550  -17.8970   21.4510 C   0  0  0  0  0  0  0  0  0  0  0  0
  -30.1130  -17.0670   20.5630 C   0  0  0  0  0  0  0  0  0  0  0  0
  -28.7280  -16.8310   18.4230 C   0  0  0  0  0  1  0  0  0  0  0  0
  -30.6110  -14.6500   20.4420 C   0  0  0  0  0  0  0  0  0  0  0  0
  -30.3610  -12.4610   19.3340 C   0  0  0  0  0  2  0  0  0  0  0  0
  -29.4340  -12.6400   18.1150 C   0  0  0  0  0  2  0  0  0  0  0  0
  -27.9510  -12.5100   18.5210 C   0  0  0  0  0  2  0  0  0  0  0  0
  -27.5890  -13.3480   19.7760 C   0  0  0  0  0  3  0  0  0  0  0  0
  -28.6320  -13.1480   20.8970 C   0  0  0  0  0  2  0  0  0  0  0  0
  -29.9600  -13.4580   20.3410 N   0  0  0  0  0  0  0  0  0  0  0  0
  -31.7630  -14.8180   20.0330 O   0  0  0  0  0  0  0  0  0  0  0  0
  -29.8540  -15.6890   20.8590 N   0  0  0  0  0  0  0  0  0  0  0  0
  -28.9030  -15.4460   21.0940 H   0  0  0  0  0  0  0  0  0  0  0  0
  -25.1740  -13.9440   20.4350 C   0  0  0  0  0  0  0  0  0  0  0  0
  -24.1070  -13.1660   20.7940 C   0  0  0  0  0  0  0  0  0  0  0  0
  -24.5810  -11.8200   20.7890 C   0  0  0  0  0  0  0  0  0  0  0  0
  -26.2320  -13.0700   20.2360 N   0  0  0  0  0  0  0  0  0  0  0  0
  -25.8770  -11.7870   20.5040 N   0  0  0  0  0  0  0  0  0  0  0  0
  -23.8640  -10.5530   20.9800 C   0  0  0  0  0  0  0  0  0  0  0  0
  -24.2790   -9.6090   21.9450 C   0  0  0  0  0  3  0  0  0  0  0  0
  -23.5620   -8.4050   22.1220 C   0  0  0  0  0  3  0  0  0  0  0  0
  -22.4140   -8.1390   21.3390 C   0  0  0  0  0  0  0  0  0  0  0  0
  -22.0180   -9.0730   20.3670 C   0  0  0  0  0  3  0  0  0  0  0  0
  -22.7360  -10.2670   20.1840 C   0  0  0  0  0  3  0  0  0  0  0  0
  -21.6710   -6.9850   21.4290 O   0  0  0  0  0  0  0  0  0  0  0  0
  -21.5980   -6.2630   22.5940 C   0  0  0  0  0  0  0  0  0  0  0  0
  -21.1250   -6.8330   23.7970 C   0  0  0  0  0  3  0  0  0  0  0  0
  -20.9960   -6.0340   24.9510 C   0  0  0  0  0  3  0  0  0  0  0  0
  -21.3340   -4.6680   24.9040 C   0  0  0  0  0  0  0  0  0  0  0  0
  -21.8040   -4.1000   23.7080 C   0  0  0  0  0  3  0  0  0  0  0  0
  -21.9320   -4.8960   22.5550 C   0  0  0  0  0  0  0  0  0  0  0  0
  -22.3590   -4.3370   21.3980 F   0  0  0  0  0  0  0  0  0  0  0  0
  -21.2060   -3.8990   26.0100 F   0  0  0  0  0  0  0  0  0  0  0  0
  -22.7000  -13.6340   21.0320 C   0  0  0  0  0  0  0  0  0  0  0  0
  -21.9590  -12.9450   21.8940 N   0  0  0  0  0  0  0  0  0  0  0  0
  -22.2640  -14.6510   20.4930 O   0  0  0  0  0  0  0  0  0  0  0  0
  -22.3190  -12.1240   22.3590 H   0  0  0  0  0  0  0  0  0  0  0  0
  -21.0150  -13.2450   22.0930 H   0  0  0  0  0  0  0  0  0  0  0  0
  -25.3240  -15.3140   20.2480 N   0  0  0  0  0  0  0  0  0  0  0  0
  -24.5410  -15.9520   20.3420 H   0  0  0  0  0  0  0  0  0  0  0  0
  -26.1700  -15.7740   19.9420 H   0  0  0  0  0  0  0  0  0  0  0  0
  -30.6240  -17.9120   23.9750 C   0  0  0  0  0  1  0  0  0  0  0  0
  -31.4080  -17.3750   22.7720 C   0  0  0  0  0  2  0  0  0  0  0  0
  -29.8910  -23.3930   19.3510 C   0  0  0  0  0  0  0  0  0  0  0  0
  -30.4590  -22.3820   20.0430 N   0  0  0  0  0  0  0  0  0  0  0  0
  -29.5830  -23.2730   18.1630 O   0  0  0  0  0  0  0  0  0  0  0  0
  -30.6800  -22.5510   21.0160 H   0  0  0  0  0  0  0  0  0  0  0  0
  -29.7100  -24.7680   20.0420 C   0  0  0  0  0  2  0  0  0  0  0  0
  -28.3560  -25.4710   19.7450 C   0  0  0  0  0  2  0  0  0  0  0  0
  -28.3530  -26.8590   20.1280 O   0  0  0  0  0  0  0  0  0  0  0  0
  -24.5210  -31.9770   23.2650 C   0  0  0  0  0  0  0  0  0  0  0  0
  -27.1550  -27.5570   20.1200 C   0  0  0  0  0  0  0  0  0  0  0  0
  -23.2980  -30.5850   21.6250 C   0  0  0  0  0  3  0  0  0  0  0  0
  -24.7410  -29.0560   20.1750 C   0  0  0  0  0  0  0  0  0  0  0  0
  -25.8200  -30.9490   21.4010 C   0  0  0  0  0  2  0  0  0  0  0  0
  -25.9040  -29.5800   20.7520 C   0  0  0  0  0  0  0  0  0  0  0  0
  -27.1080  -28.8390   20.7220 C   0  0  0  0  0  3  0  0  0  0  0  0
  -25.9680  -27.0490   19.5380 C   0  0  0  0  0  3  0  0  0  0  0  0
  -24.7690  -27.7900   19.5650 C   0  0  0  0  0  3  0  0  0  0  0  0
  -23.4950  -29.9130   20.2390 C   0  0  0  0  0  2  0  0  0  0  0  0
  -24.5660  -31.1840   22.1560 N   0  0  0  0  0  0  0  0  0  0  0  0
  -23.4450  -32.2440   23.8180 O   0  0  0  0  0  0  0  0  0  0  0  0
  -22.6570  -29.5590   22.5850 C   0  0  0  0  0  0  0  0  0  0  0  0
  -21.3320  -29.3740   22.4640 N   0  0  0  0  0  0  0  0  0  0  0  0
  -23.3480  -28.9300   23.3920 O   0  0  0  0  0  0  0  0  0  0  0  0
  -20.8360  -29.9370   21.7870 H   0  0  0  0  0  0  0  0  0  0  0  0
  -17.9670  -28.1530   22.9610 C   0  0  0  0  0  0  0  0  0  0  0  0
  -20.5230  -28.4290   23.2330 C   0  0  0  0  0  3  0  0  0  0  0  0
  -20.6350  -26.9990   22.6560 C   0  0  0  0  0  2  0  0  0  0  0  0
  -19.5360  -26.6680   21.6420 C   0  0  0  0  0  2  0  0  0  0  0  0
  -18.1520  -26.8040   22.2870 C   0  0  0  0  0  2  0  0  0  0  0  0
  -19.0800  -28.9220   23.3910 C   0  0  0  0  0  0  0  0  0  0  0  0
  -18.8550  -30.1840   23.9830 C   0  0  0  0  0  3  0  0  0  0  0  0
  -17.5480  -30.6780   24.1500 C   0  0  0  0  0  3  0  0  0  0  0  0
  -16.4480  -29.9060   23.7350 C   0  0  0  0  0  3  0  0  0  0  0  0
  -16.6580  -28.6450   23.1480 C   0  0  0  0  0  3  0  0  0  0  0  0
  -25.8130  -32.6030   23.8780 C   0  0  0  0  0  3  0  0  0  0  0  0
  -25.5160  -34.0070   24.1950 N   0  0  0  0  0  0  0  0  0  0  0  0
  -25.8630  -35.0490   23.4280 C   0  0  0  0  0  0  0  0  0  0  0  0
  -26.5360  -34.9300   22.4010 O   0  0  0  0  0  0  0  0  0  0  0  0
  -24.9190  -34.1750   24.9920 H   0  0  0  0  0  0  0  0  0  0  0  0
  -24.1600  -36.8600   23.0380 C   0  0  0  0  0  1  0  0  0  0  0  0
  -25.3860  -36.4460   23.8690 C   0  0  0  0  0  3  0  0  0  0  0  0
  -27.5180  -37.3100   24.7270 C   0  0  0  0  0  1  0  0  0  0  0  0
  -26.4320  -37.4850   23.7660 N   0  0  0  0  0  0  0  0  0  0  0  0
  -26.0350  -38.4120   23.9030 H   0  0  0  0  0  0  0  0  0  0  0  0
  -26.3310  -31.8380   25.1570 C   0  0  1  0  0  0  0  0  0  0  0  0
  -25.2430  -31.6180   26.2340 C   0  0  0  0  0  1  0  0  0  0  0  0
  -26.8990  -30.4530   24.7700 C   0  0  0  0  0  1  0  0  0  0  0  0
  -27.4910  -32.6280   25.8090 C   0  0  0  0  0  1  0  0  0  0  0  0
  1  4  1  0
  1 50  1  0
  2  5  2  0
  2  4  1  0
  3  6  1  0
  4  3  2  0
  5  7  1  0
  6 48  1  0
  7 17  1  0
  7  6  2  0
  8  5  1  0
  9 17  1  0
 10 15  1  0
 11 12  1  0
 11 10  1  0
 13 12  1  0
 13 22  1  0
 13 14  1  0
 15  9  1  0
 15 14  1  0
 16  9  2  0
 17 18  1  0
 19 20  2  0
 20 39  1  0
 21 20  1  0
 21 24  1  0
 22 19  1  0
 22 23  1  0
 23 21  2  0
 24 25  1  0
 25 26  2  0
 27 30  1  0
 27 26  1  0
 28 27  2  0
 29 28  1  0
 29 24  2  0
 30 31  1  0
 31 32  1  0
 32 33  2  0
 34 33  1  0
 34 38  1  0
 35 34  2  0
 36 31  2  0
 36 35  1  0
 37 36  1  0
 39 40  1  0
 40 43  1  0
 40 42  1  0
 41 39  2  0
 44 45  1  0
 44 19  1  0
 46 44  1  0
 48 47  1  0
 49 53  1  0
 49 50  1  0
 50 52  1  0
 51 49  2  0
 54 53  1  0
 54 55  1  0
 56 67  2  0
 57 55  1  0
 57 62  1  0
 58 66  1  0
 58 68  1  0
 59 65  1  0
 59 61  1  0
 60 66  1  0
 61 60  1  0
 62 61  2  0
 63 64  1  0
 63 57  2  0
 64 59  2  0
 65 58  1  0
 66 56  1  0
 68 70  2  0
 69 68  1  0
 71 69  1  0
 72 81  2  0
 72 77  1  0
 73 69  1  0
 73 77  1  0
 74 73  1  0
 75 76  1  0
 75 74  1  0
 76 72  1  0
 77 78  2  0
 78 79  1  0
 80 79  2  0
 81 80  1  0
 82 56  1  0
 82 83  1  0
 82 92  1  0
 83 86  1  0
 84 88  1  0
 84 83  1  0
 85 84  2  0
 88 87  1  0
 90 88  1  0
 90 91  1  0
 90 89  1  0
 92 95  1  1
 92 93  1  0
 94 92  1  0
M  ISO  4   9 100  17 100  54 101  55 101
M  END
>  <TORSDO>  (80) 
F 21

>  <SCORE>  (80) 
-12.151

>  <name>  (80) 
79

>  <ligand_id>  (80) 
79

>  <original_smiles>  (80) 
[H]c1c([H])c([H])c2c(c1[H])C([H])([H])C([H])([H])C([H])([H])C2([H])N([H])C(=O)C1([H])N(C(=O)C([H])(N([H])C(=O)C([H])(N([H])C([H])([H])[H])C([H])([H])[H])C(C([H])([H])[H])(C([H])([H])[H])C([H])([H])[H])C([H])([H])c2c([H])c(OC([H])([H])C([H])([H])C(=O)N([H])C([H])([H])c3c([H])c(C([H])([H])[H])c(N([H])C(=O)N4C([H])([H])C([H])([H])C([H])([H])C([H])(n5nc(-c6c([H])c([H])c(Oc7c([H])c([H])c(F)c([H])c7F)c([H])c6[H])c(C(=O)N([H])[H])c5N([H])[H])C4([H])[H])c(C([H])([H])C([H])([H])[H])c3[H])c([H])c([H])c2C1([H])[H]

>  <smiles>  (80) 
[H]c1c([H])c([H])c2c(c1[H])C([H])([H])C([H])([H])C([H])([H])C2([H])N([H])C(=O)C1([H])N(C(=O)C([H])(N([H])C(=O)C([H])(N([H])C([H])([H])[H])C([H])([H])[H])C(C([H])([H])[H])(C([H])([H])[H])C([H])([H])[H])C([H])([H])c2c([H])c(OC([H])([H])C([H])([H])C(=O)N([H])C([H])([H])c3c([H])c(C([H])([H])[H])c(N([H])C(=O)N4C([H])([H])C([H])([H])C([H])([H])C([H])(n5nc(-c6c([H])c([H])c(Oc7c([H])c([H])c(F)c([H])c7F)c([H])c6[H])c(C(=O)N([H])[H])c5N([H])[H])C4([H])[H])c(C([H])([H])C([H])([H])[H])c3[H])c([H])c([H])c2C1([H])[H]

$$$$
80:0:0
     RDKit          3D

 97105  0  0  1  0  0  0  0  0999 V2000
  -29.1870  -23.1640   22.2190 C   0  0  0  0  0  3  0  0  0  0  0  0
  -29.5800  -21.8480   21.9210 C   0  0  0  0  0  3  0  0  0  0  0  0
  -27.6580  -23.1250   20.3360 C   0  0  0  0  0  3  0  0  0  0  0  0
  -28.0460  -21.8020   20.0250 C   0  0  0  0  0  0  0  0  0  0  0  0
  -28.2110  -23.8150   21.4330 C   0  0  0  0  0  0  0  0  0  0  0  0
  -29.0080  -21.1460   20.8310 C   0  0  0  0  0  0  0  0  0  0  0  0
  -27.4290  -21.0900   18.8200 C   0  0  1  0  0  0  0  0  0  0  0  0
  -26.5360  -21.8570   18.1910 F   0  0  0  0  0  0  0  0  0  0  0  0
  -28.3710  -20.7620   17.9320 F   0  0  0  0  0  0  0  0  0  0  0  0
  -26.8080  -19.9790   19.2140 F   0  0  0  0  0  0  0  0  0  0  0  0
  -27.7360  -25.0880   21.6650 O   0  0  0  0  0  0  0  0  0  0  0  0
  -28.5240  -26.0370   22.3870 C   0  0  0  0  0  2  0  0  0  0  0  0
  -29.5450  -26.7550   21.4720 C   0  0  0  0  0  2  0  0  0  0  0  0
  -29.0060  -27.0770   20.1860 O   0  0  0  0  0  0  0  0  0  0  0  0
  -24.6810  -31.8210   23.2880 C   0  0  0  0  0  0  0  0  0  0  0  0
  -27.8230  -27.7730   20.1670 C   0  0  0  0  0  0  0  0  0  0  0  0
  -23.6780  -30.4270   21.5060 C   0  0  0  0  0  3  0  0  0  0  0  0
  -25.3240  -29.0750   20.1040 C   0  0  0  0  0  0  0  0  0  0  0  0
  -26.1710  -30.9850   21.4810 C   0  0  0  0  0  2  0  0  0  0  0  0
  -26.3980  -29.6590   20.7870 C   0  0  0  0  0  0  0  0  0  0  0  0
  -27.6530  -29.0160   20.8200 C   0  0  0  0  0  3  0  0  0  0  0  0
  -26.7380  -27.2010   19.4750 C   0  0  0  0  0  3  0  0  0  0  0  0
  -25.4850  -27.8430   19.4470 C   0  0  0  0  0  3  0  0  0  0  0  0
  -24.0160  -29.8350   20.1120 C   0  0  0  0  0  2  0  0  0  0  0  0
  -24.8580  -31.0880   22.1530 N   0  0  0  0  0  0  0  0  0  0  0  0
  -23.5550  -31.9870   23.7740 O   0  0  0  0  0  0  0  0  0  0  0  0
  -23.0460  -29.3160   22.3710 C   0  0  0  0  0  0  0  0  0  0  0  0
  -21.7370  -29.0870   22.1820 N   0  0  0  0  0  0  0  0  0  0  0  0
  -23.7300  -28.6630   23.1640 O   0  0  0  0  0  0  0  0  0  0  0  0
  -21.2480  -29.6640   21.5120 H   0  0  0  0  0  0  0  0  0  0  0  0
  -18.3890  -27.7750   22.5310 C   0  0  0  0  0  0  0  0  0  0  0  0
  -20.9350  -28.0680   22.8590 C   0  0  0  0  0  3  0  0  0  0  0  0
  -21.0810  -26.6970   22.1610 C   0  0  0  0  0  2  0  0  0  0  0  0
  -19.9990  -26.4390   21.1080 C   0  0  0  0  0  2  0  0  0  0  0  0
  -18.6070  -26.4940   21.7420 C   0  0  0  0  0  2  0  0  0  0  0  0
  -19.4840  -28.5230   23.0400 C   0  0  0  0  0  0  0  0  0  0  0  0
  -19.2300  -29.7250   23.7360 C   0  0  0  0  0  3  0  0  0  0  0  0
  -17.9120  -30.1810   23.9270 C   0  0  0  0  0  3  0  0  0  0  0  0
  -16.8300  -29.4290   23.4370 C   0  0  0  0  0  3  0  0  0  0  0  0
  -17.0700  -28.2270   22.7460 C   0  0  0  0  0  3  0  0  0  0  0  0
  -25.8830  -32.5020   24.0160 C   0  0  0  0  0  3  0  0  0  0  0  0
  -26.2960  -31.7690   25.3530 C   0  0  1  0  0  0  0  0  0  0  0  0
  -25.1030  -31.4660   26.2870 C   0  0  0  0  0  1  0  0  0  0  0  0
  -27.0050  -30.4310   25.0450 C   0  0  0  0  0  1  0  0  0  0  0  0
  -27.3130  -32.6350   26.1330 C   0  0  0  0  0  1  0  0  0  0  0  0
  -25.5040  -33.8960   24.2830 N   0  0  0  0  0  0  0  0  0  0  0  0
  -25.8640  -34.9390   23.5220 C   0  0  0  0  0  0  0  0  0  0  0  0
  -26.6200  -34.8310   22.5530 O   0  0  0  0  0  0  0  0  0  0  0  0
  -24.8380  -34.0470   25.0260 H   0  0  0  0  0  0  0  0  0  0  0  0
  -24.0980  -36.6480   22.9880 C   0  0  0  0  0  1  0  0  0  0  0  0
  -25.2960  -36.3210   23.8950 C   0  0  0  0  0  3  0  0  0  0  0  0
  -27.3460  -37.3050   24.8200 C   0  0  0  0  0  1  0  0  0  0  0  0
  -26.2950  -37.4090   23.8110 N   0  0  0  0  0  0  0  0  0  0  0  0
  -25.8490  -38.3160   23.9170 H   0  0  0  0  0  0  0  0  0  0  0  0
  -29.3310  -19.8400   20.5210 O   0  0  0  0  0  0  0  0  0  0  0  0
  -30.6110  -19.3460   20.8930 C   0  0  0  0  0  2  0  0  0  0  0  0
  -30.5620  -17.8170   20.8100 C   0  0  0  0  0  2  0  0  0  0  0  0
  -31.9560  -17.1770   20.7170 C   0  0  0  0  0  2  0  0  0  0  0  0
  -32.0470  -15.7780   21.3560 C   0  0  0  0  0  2  0  0  0  0  0  0
  -31.1130  -14.1450   19.7210 C   0  0  0  0  0  0  0  0  0  0  0  0
  -30.5710  -11.9390   18.7650 C   0  0  0  0  0  2  0  0  0  0  0  0
  -29.5530  -11.9870   17.6150 C   0  0  0  0  0  2  0  0  0  0  0  0
  -28.1190  -11.9370   18.1670 C   0  0  0  0  0  2  0  0  0  0  0  0
  -27.8810  -12.9820   19.2850 C   0  0  0  0  0  3  0  0  0  0  0  0
  -28.9980  -12.9280   20.3520 C   0  0  0  0  0  2  0  0  0  0  0  0
  -30.3090  -13.0550   19.6840 N   0  0  0  0  0  0  0  0  0  0  0  0
  -31.9870  -14.3790   18.8820 O   0  0  0  0  0  0  0  0  0  0  0  0
  -31.0410  -14.8370   20.8640 N   0  0  0  0  0  0  0  0  0  0  0  0
  -30.3340  -14.5400   21.5200 H   0  0  0  0  0  0  0  0  0  0  0  0
  -25.6180  -13.7890   20.2170 C   0  0  0  0  0  0  0  0  0  0  0  0
  -24.5220  -13.1080   20.6760 C   0  0  0  0  0  0  0  0  0  0  0  0
  -24.8550  -11.7210   20.5890 C   0  0  0  0  0  0  0  0  0  0  0  0
  -26.5560  -12.8240   19.8850 N   0  0  0  0  0  0  0  0  0  0  0  0
  -26.1030  -11.5730   20.1620 N   0  0  0  0  0  0  0  0  0  0  0  0
  -24.0380  -10.5250   20.8320 C   0  0  0  0  0  0  0  0  0  0  0  0
  -24.4520   -9.5200   21.7340 C   0  0  0  0  0  3  0  0  0  0  0  0
  -23.6410   -8.3890   21.9670 C   0  0  0  0  0  3  0  0  0  0  0  0
  -22.4020   -8.2530   21.2960 C   0  0  0  0  0  0  0  0  0  0  0  0
  -22.0050   -9.2460   20.3820 C   0  0  0  0  0  3  0  0  0  0  0  0
  -22.8160  -10.3700   20.1490 C   0  0  0  0  0  3  0  0  0  0  0  0
  -21.5620   -7.1760   21.4390 O   0  0  0  0  0  0  0  0  0  0  0  0
  -21.5150   -6.4470   22.6010 C   0  0  0  0  0  0  0  0  0  0  0  0
  -21.2130   -7.0450   23.8440 C   0  0  0  0  0  3  0  0  0  0  0  0
  -21.1060   -6.2500   25.0010 C   0  0  0  0  0  3  0  0  0  0  0  0
  -21.2930   -4.8570   24.9190 C   0  0  0  0  0  0  0  0  0  0  0  0
  -21.5880   -4.2580   23.6810 C   0  0  0  0  0  3  0  0  0  0  0  0
  -21.6970   -5.0510   22.5260 C   0  0  0  0  0  0  0  0  0  0  0  0
  -21.9600   -4.4670   21.3320 F   0  0  0  0  0  0  0  0  0  0  0  0
  -21.1820   -4.0910   26.0290 F   0  0  0  0  0  0  0  0  0  0  0  0
  -23.2050  -13.7010   21.0830 C   0  0  0  0  0  0  0  0  0  0  0  0
  -22.5150  -13.0740   22.0290 N   0  0  0  0  0  0  0  0  0  0  0  0
  -22.8010  -14.7560   20.5950 O   0  0  0  0  0  0  0  0  0  0  0  0
  -22.8560  -12.2200   22.4450 H   0  0  0  0  0  0  0  0  0  0  0  0
  -21.6340  -13.4540   22.3430 H   0  0  0  0  0  0  0  0  0  0  0  0
  -25.8890  -15.1430   20.0400 N   0  0  0  0  0  0  0  0  0  0  0  0
  -25.2030  -15.8640   20.2340 H   0  0  0  0  0  0  0  0  0  0  0  0
  -26.7580  -15.5110   19.6710 H   0  0  0  0  0  0  0  0  0  0  0  0
  2  1  1  0
  3  5  1  0
  4  3  2  0
  4  6  1  0
  5 11  1  0
  5  1  2  0
  6  2  2  0
  7 10  1  1
  7  4  1  0
  8  7  1  0
  9  7  1  0
 11 12  1  0
 13 12  1  0
 14 13  1  0
 15 26  2  0
 16 14  1  0
 16 21  1  0
 17 25  1  0
 17 27  1  0
 18 24  1  0
 18 20  1  0
 19 25  1  0
 20 21  2  0
 20 19  1  0
 22 16  2  0
 23 22  1  0
 23 18  2  0
 24 17  1  0
 25 15  1  0
 27 29  2  0
 28 27  1  0
 30 28  1  0
 31 40  2  0
 31 36  1  0
 32 28  1  0
 32 36  1  0
 33 32  1  0
 34 35  1  0
 34 33  1  0
 35 31  1  0
 36 37  2  0
 37 38  1  0
 39 38  2  0
 40 39  1  0
 41 15  1  0
 41 46  1  0
 41 42  1  0
 42 45  1  1
 42 43  1  0
 44 42  1  0
 46 49  1  0
 47 51  1  0
 47 46  1  0
 48 47  2  0
 51 50  1  0
 53 51  1  0
 53 54  1  0
 53 52  1  0
 55  6  1  0
 55 56  1  0
 57 56  1  0
 58 57  1  0
 58 59  1  0
 60 68  1  0
 61 66  1  0
 62 63  1  0
 62 61  1  0
 64 63  1  0
 64 73  1  0
 64 65  1  0
 66 60  1  0
 66 65  1  0
 67 60  2  0
 68 59  1  0
 68 69  1  0
 70 71  2  0
 71 90  1  0
 72 71  1  0
 72 75  1  0
 73 74  1  0
 73 70  1  0
 74 72  2  0
 75 76  1  0
 76 77  2  0
 78 81  1  0
 78 77  1  0
 79 78  2  0
 80 79  1  0
 80 75  2  0
 81 82  1  0
 82 83  1  0
 83 84  2  0
 85 84  1  0
 85 89  1  0
 86 85  2  0
 87 82  2  0
 87 86  1  0
 88 87  1  0
 90 91  1  0
 91 94  1  0
 91 93  1  0
 92 90  2  0
 95 70  1  0
 95 96  1  0
 97 95  1  0
M  ISO  4  13 101  14 101  60 100  68 100
M  END
>  <TORSDO>  (81) 
F 25

>  <SCORE>  (81) 
-11.550

>  <name>  (81) 
80

>  <ligand_id>  (81) 
80

>  <original_smiles>  (81) 
[H]c1c([H])c([H])c2c(c1[H])C([H])([H])C([H])([H])C([H])([H])C2([H])N([H])C(=O)C1([H])N(C(=O)C([H])(N([H])C(=O)C([H])(N([H])C([H])([H])[H])C([H])([H])[H])C(C([H])([H])[H])(C([H])([H])[H])C([H])([H])[H])C([H])([H])c2c([H])c(OC([H])([H])C([H])([H])Oc3c([H])c([H])c(OC([H])([H])C([H])([H])C([H])([H])C([H])([H])N([H])C(=O)N4C([H])([H])C([H])([H])C([H])([H])C([H])(n5nc(-c6c([H])c([H])c(Oc7c([H])c([H])c(F)c([H])c7F)c([H])c6[H])c(C(=O)N([H])[H])c5N([H])[H])C4([H])[H])c(C(F)(F)F)c3[H])c([H])c([H])c2C1([H])[H]

>  <smiles>  (81) 
[H]c1c([H])c([H])c2c(c1[H])C([H])([H])C([H])([H])C([H])([H])C2([H])N([H])C(=O)C1([H])N(C(=O)C([H])(N([H])C(=O)C([H])(N([H])C([H])([H])[H])C([H])([H])[H])C(C([H])([H])[H])(C([H])([H])[H])C([H])([H])[H])C([H])([H])c2c([H])c(OC([H])([H])C([H])([H])Oc3c([H])c([H])c(OC([H])([H])C([H])([H])C([H])([H])C([H])([H])N([H])C(=O)N4C([H])([H])C([H])([H])C([H])([H])C([H])(n5nc(-c6c([H])c([H])c(Oc7c([H])c([H])c(F)c([H])c7F)c([H])c6[H])c(C(=O)N([H])[H])c5N([H])[H])C4([H])[H])c(C(F)(F)F)c3[H])c([H])c([H])c2C1([H])[H]

$$$$
81:0:0
     RDKit          3D

 90 97  0  0  1  0  0  0  0  0999 V2000
  -28.9340  -23.7120   20.1470 C   0  0  0  0  0  0  0  0  0  0  0  0
  -28.5890  -22.3730   20.2960 N   0  0  0  0  0  0  0  0  0  0  0  0
  -30.1240  -24.0410   20.0980 O   0  0  0  0  0  0  0  0  0  0  0  0
  -27.6020  -22.1810   20.4210 H   0  0  0  0  0  0  0  0  0  0  0  0
  -27.8380  -24.8640   19.9670 C   0  0  0  0  0  2  0  0  0  0  0  0
  -28.2140  -26.3110   20.2230 O   0  0  0  0  0  0  0  0  0  0  0  0
  -24.6490  -31.9110   23.2610 C   0  0  0  0  0  0  0  0  0  0  0  0
  -27.1680  -27.2690   20.1740 C   0  0  0  0  0  0  0  0  0  0  0  0
  -23.4240  -30.5280   21.6300 C   0  0  0  0  0  3  0  0  0  0  0  0
  -24.8490  -28.9680   20.1840 C   0  0  0  0  0  0  0  0  0  0  0  0
  -25.9740  -30.7920   21.4470 C   0  0  0  0  0  2  0  0  0  0  0  0
  -26.0300  -29.4110   20.7940 C   0  0  0  0  0  0  0  0  0  0  0  0
  -27.1950  -28.5720   20.7840 C   0  0  0  0  0  3  0  0  0  0  0  0
  -25.9730  -26.9220   19.5070 C   0  0  0  0  0  3  0  0  0  0  0  0
  -24.8280  -27.7320   19.5280 C   0  0  0  0  0  3  0  0  0  0  0  0
  -23.6260  -29.8600   20.2460 C   0  0  0  0  0  2  0  0  0  0  0  0
  -24.7030  -31.0950   22.1680 N   0  0  0  0  0  0  0  0  0  0  0  0
  -23.5720  -32.2050   23.7980 O   0  0  0  0  0  0  0  0  0  0  0  0
  -22.7520  -29.5170   22.5900 C   0  0  0  0  0  0  0  0  0  0  0  0
  -21.4240  -29.3540   22.4650 N   0  0  0  0  0  0  0  0  0  0  0  0
  -23.4250  -28.8870   23.4090 O   0  0  0  0  0  0  0  0  0  0  0  0
  -20.9410  -29.9080   21.7720 H   0  0  0  0  0  0  0  0  0  0  0  0
  -18.0390  -28.1740   22.9710 C   0  0  0  0  0  0  0  0  0  0  0  0
  -20.5990  -28.4250   23.2410 C   0  0  0  0  0  3  0  0  0  0  0  0
  -20.6960  -26.9910   22.6710 C   0  0  0  0  0  2  0  0  0  0  0  0
  -19.5920  -26.6650   21.6600 C   0  0  0  0  0  2  0  0  0  0  0  0
  -18.2100  -26.8210   22.3020 C   0  0  0  0  0  2  0  0  0  0  0  0
  -19.1620  -28.9350   23.3980 C   0  0  0  0  0  0  0  0  0  0  0  0
  -18.9480  -30.2000   23.9840 C   0  0  0  0  0  3  0  0  0  0  0  0
  -17.6460  -30.7070   24.1490 C   0  0  0  0  0  3  0  0  0  0  0  0
  -16.5380  -29.9460   23.7370 C   0  0  0  0  0  3  0  0  0  0  0  0
  -16.7350  -28.6820   23.1550 C   0  0  0  0  0  3  0  0  0  0  0  0
  -25.9420  -32.5330   23.8760 C   0  0  0  0  0  3  0  0  0  0  0  0
  -25.6480  -33.9330   24.2120 N   0  0  0  0  0  0  0  0  0  0  0  0
  -25.9680  -34.9850   23.4460 C   0  0  0  0  0  0  0  0  0  0  0  0
  -26.6150  -34.8770   22.4000 O   0  0  0  0  0  0  0  0  0  0  0  0
  -25.0800  -34.0930   25.0330 H   0  0  0  0  0  0  0  0  0  0  0  0
  -24.2400  -36.7830   23.1310 C   0  0  0  0  0  1  0  0  0  0  0  0
  -25.5000  -36.3760   23.9130 C   0  0  0  0  0  3  0  0  0  0  0  0
  -27.6580  -37.2460   24.6890 C   0  0  0  0  0  1  0  0  0  0  0  0
  -26.5340  -37.4240   23.7760 N   0  0  0  0  0  0  0  0  0  0  0  0
  -26.1370  -38.3460   23.9360 H   0  0  0  0  0  0  0  0  0  0  0  0
  -26.4560  -31.7560   25.1490 C   0  0  1  0  0  0  0  0  0  0  0  0
  -25.3640  -31.5320   26.2220 C   0  0  0  0  0  1  0  0  0  0  0  0
  -27.0240  -30.3730   24.7570 C   0  0  0  0  0  1  0  0  0  0  0  0
  -27.6200  -32.5390   25.8010 C   0  0  0  0  0  1  0  0  0  0  0  0
  -29.5030  -21.1570   20.4480 C   0  0  0  0  0  3  0  0  0  0  0  0
  -28.9870  -19.6770   20.0440 C   0  0  0  0  0  3  0  0  0  0  0  0
  -29.9890  -18.4080   20.2010 C   0  0  0  0  0  3  0  0  0  0  0  0
  -29.4390  -16.8860   20.1090 C   0  0  0  0  0  3  0  0  0  0  0  0
  -30.6730  -14.6610   19.7270 C   0  0  0  0  0  0  0  0  0  0  0  0
  -30.2720  -12.4200   18.7240 C   0  0  0  0  0  2  0  0  0  0  0  0
  -29.2540  -12.5560   17.5740 C   0  0  0  0  0  2  0  0  0  0  0  0
  -27.8170  -12.4200   18.1050 C   0  0  0  0  0  2  0  0  0  0  0  0
  -27.5690  -13.2980   19.3610 C   0  0  0  0  0  3  0  0  0  0  0  0
  -28.7040  -13.1980   20.4040 C   0  0  0  0  0  2  0  0  0  0  0  0
  -29.9830  -13.4690   19.7290 N   0  0  0  0  0  0  0  0  0  0  0  0
  -31.6890  -14.7830   19.0350 O   0  0  0  0  0  0  0  0  0  0  0  0
  -30.8340  -15.7100   21.8180 C   0  0  0  0  0  0  0  0  0  0  0  0
  -31.8300  -14.6190   22.2790 C   0  0  0  0  0  1  0  0  0  0  0  0
  -30.2980  -15.6930   20.5620 N   0  0  0  0  0  0  0  0  0  0  0  0
  -30.5530  -16.5890   22.6390 O   0  0  0  0  0  0  0  0  0  0  0  0
  -25.2670  -13.9310   20.2950 C   0  0  0  0  0  0  0  0  0  0  0  0
  -24.2180  -13.1810   20.7520 C   0  0  0  0  0  0  0  0  0  0  0  0
  -24.6440  -11.8170   20.6690 C   0  0  0  0  0  0  0  0  0  0  0  0
  -26.2630  -13.0320   19.9560 N   0  0  0  0  0  0  0  0  0  0  0  0
  -25.8990  -11.7530   20.2390 N   0  0  0  0  0  0  0  0  0  0  0  0
  -23.9020  -10.5710   20.9080 C   0  0  0  0  0  0  0  0  0  0  0  0
  -24.3790   -9.5860   21.7970 C   0  0  0  0  0  3  0  0  0  0  0  0
  -23.6420   -8.4030   22.0170 C   0  0  0  0  0  3  0  0  0  0  0  0
  -22.4100   -8.1980   21.3470 C   0  0  0  0  0  0  0  0  0  0  0  0
  -21.9510   -9.1720   20.4430 C   0  0  0  0  0  3  0  0  0  0  0  0
  -22.6910  -10.3470   20.2200 C   0  0  0  0  0  3  0  0  0  0  0  0
  -21.6360   -7.0720   21.4820 O   0  0  0  0  0  0  0  0  0  0  0  0
  -21.6470   -6.3230   22.6300 C   0  0  0  0  0  0  0  0  0  0  0  0
  -21.3400   -6.8840   23.8890 C   0  0  0  0  0  3  0  0  0  0  0  0
  -21.2980   -6.0650   25.0340 C   0  0  0  0  0  3  0  0  0  0  0  0
  -21.5460   -4.6840   24.9250 C   0  0  0  0  0  0  0  0  0  0  0  0
  -21.8500   -4.1210   23.6710 C   0  0  0  0  0  3  0  0  0  0  0  0
  -21.8960   -4.9370   22.5290 C   0  0  0  0  0  0  0  0  0  0  0  0
  -22.1650   -4.3880   21.3200 F   0  0  0  0  0  0  0  0  0  0  0  0
  -21.4980   -3.8950   26.0240 F   0  0  0  0  0  0  0  0  0  0  0  0
  -22.8650  -13.6890   21.1560 C   0  0  0  0  0  0  0  0  0  0  0  0
  -22.2030  -13.0180   22.0870 N   0  0  0  0  0  0  0  0  0  0  0  0
  -22.4070  -14.7260   20.6780 O   0  0  0  0  0  0  0  0  0  0  0  0
  -22.5740  -12.1730   22.4970 H   0  0  0  0  0  0  0  0  0  0  0  0
  -21.3040  -13.3540   22.4010 H   0  0  0  0  0  0  0  0  0  0  0  0
  -25.4480  -15.2990   20.1120 N   0  0  0  0  0  0  0  0  0  0  0  0
  -24.6830  -15.9570   20.1980 H   0  0  0  0  0  0  0  0  0  0  0  0
  -26.2500  -15.6980   19.6450 H   0  0  0  0  0  0  0  0  0  0  0  0
  1  2  1  0
  2  4  1  0
  2 47  1  0
  3  1  2  0
  5  1  1  0
  5  6  1  0
  7 18  2  0
  8  6  1  0
  8 13  1  0
  9 17  1  0
  9 19  1  0
 10 16  1  0
 10 12  1  0
 11 17  1  0
 12 11  1  0
 13 12  2  0
 14 15  1  0
 14  8  2  0
 15 10  2  0
 16  9  1  0
 17  7  1  0
 19 21  2  0
 20 19  1  0
 22 20  1  0
 23 32  2  0
 23 28  1  0
 24 20  1  0
 24 28  1  0
 25 24  1  0
 26 27  1  0
 26 25  1  0
 27 23  1  0
 28 29  2  0
 29 30  1  0
 31 30  2  0
 32 31  1  0
 33  7  1  0
 33 34  1  0
 33 43  1  0
 34 37  1  0
 35 39  1  0
 35 34  1  0
 36 35  2  0
 39 38  1  0
 41 39  1  0
 41 42  1  0
 41 40  1  0
 43 46  1  1
 43 44  1  0
 45 43  1  0
 48 49  1  0
 48 47  2  0
 50 49  2  0
 50 61  1  0
 51 57  1  0
 51 61  1  0
 52 57  1  0
 53 54  1  0
 53 52  1  0
 55 54  1  0
 55 66  1  0
 55 56  1  0
 57 56  1  0
 58 51  2  0
 59 60  1  0
 59 62  2  0
 61 59  1  0
 63 64  2  0
 64 83  1  0
 65 64  1  0
 65 68  1  0
 66 67  1  0
 66 63  1  0
 67 65  2  0
 68 69  1  0
 69 70  2  0
 71 74  1  0
 71 70  1  0
 72 71  2  0
 73 72  1  0
 73 68  2  0
 74 75  1  0
 75 76  1  0
 76 77  2  0
 78 77  1  0
 78 82  1  0
 79 78  2  0
 80 75  2  0
 80 79  1  0
 81 80  1  0
 83 84  1  0
 84 87  1  0
 84 86  1  0
 85 83  2  0
 88 89  1  0
 88 63  1  0
 90 88  1  0
M  ISO  4   5 101   6 101  51 100  61 100
M  END
>  <TORSDO>  (82) 
F 21

>  <SCORE>  (82) 
-12.301

>  <name>  (82) 
81

>  <ligand_id>  (82) 
81

>  <original_smiles>  (82) 
[H]c1c([H])c([H])c2c(c1[H])C([H])([H])C([H])([H])C([H])([H])C2([H])N([H])C(=O)C1([H])N(C(=O)C([H])(N([H])C(=O)C([H])(N([H])C([H])([H])[H])C([H])([H])[H])C(C([H])([H])[H])(C([H])([H])[H])C([H])([H])[H])C([H])([H])c2c([H])c(OC([H])([H])C(=O)N([H])C([H])([H])C([H])([H])C([H])([H])C([H])([H])N(C(=O)N3C([H])([H])C([H])([H])C([H])([H])C([H])(n4nc(-c5c([H])c([H])c(Oc6c([H])c([H])c(F)c([H])c6F)c([H])c5[H])c(C(=O)N([H])[H])c4N([H])[H])C3([H])[H])C(=O)C([H])([H])[H])c([H])c([H])c2C1([H])[H]

>  <smiles>  (82) 
[H]c1c([H])c([H])c2c(c1[H])C([H])([H])C([H])([H])C([H])([H])C2([H])N([H])C(=O)C1([H])N(C(=O)C([H])(N([H])C(=O)C([H])(N([H])C([H])([H])[H])C([H])([H])[H])C(C([H])([H])[H])(C([H])([H])[H])C([H])([H])[H])C([H])([H])c2c([H])c(OC([H])([H])C(=O)N([H])C([H])([H])C([H])([H])C([H])([H])C([H])([H])N(C(=O)N3C([H])([H])C([H])([H])C([H])([H])C([H])(n4nc(-c5c([H])c([H])c(Oc6c([H])c([H])c(F)c([H])c6F)c([H])c5[H])c(C(=O)N([H])[H])c4N([H])[H])C3([H])[H])C(=O)C([H])([H])[H])c([H])c([H])c2C1([H])[H]

$$$$
82:0:0
     RDKit          3D

 88 96  0  0  1  0  0  0  0  0999 V2000
  -31.7310  -19.5950   20.5760 C   0  0  0  0  0  3  0  0  0  0  0  0
  -31.3480  -18.2320   20.5430 C   0  0  0  0  0  3  0  0  0  0  0  0
  -30.8110  -20.6690   20.5080 C   0  0  0  0  0  3  0  0  0  0  0  0
  -29.0630  -18.9980   20.3710 C   0  0  0  0  0  3  0  0  0  0  0  0
  -29.9990  -17.8200   20.4400 C   0  0  0  0  0  0  0  0  0  0  0  0
  -29.4210  -20.4630   20.3980 C   0  0  0  0  0  0  0  0  0  0  0  0
  -30.4830  -15.0790   20.3150 C   0  0  0  0  0  0  0  0  0  0  0  0
  -30.3790  -12.7120   19.3690 C   0  0  0  0  0  2  0  0  0  0  0  0
  -29.4310  -12.6330   18.1500 C   0  0  0  0  0  2  0  0  0  0  0  0
  -27.9790  -12.3950   18.6060 C   0  0  0  0  0  2  0  0  0  0  0  0
  -27.5740  -13.3170   19.7860 C   0  0  0  0  0  3  0  0  0  0  0  0
  -28.6460  -13.3620   20.8950 C   0  0  0  0  0  2  0  0  0  0  0  0
  -29.8920  -13.8100   20.2600 N   0  0  0  0  0  0  0  0  0  0  0  0
  -31.6900  -15.1140   20.0460 O   0  0  0  0  0  0  0  0  0  0  0  0
  -29.7010  -16.2870   20.4420 N   0  0  0  0  0  0  0  0  0  0  0  0
  -28.7200  -16.0730   20.5450 H   0  0  0  0  0  0  0  0  0  0  0  0
  -25.2040  -13.8620   20.5740 C   0  0  0  0  0  0  0  0  0  0  0  0
  -24.1530  -13.0750   20.9510 C   0  0  0  0  0  0  0  0  0  0  0  0
  -24.6270  -11.7280   20.8970 C   0  0  0  0  0  0  0  0  0  0  0  0
  -26.2500  -12.9970   20.3060 N   0  0  0  0  0  0  0  0  0  0  0  0
  -25.9150  -11.7060   20.5680 N   0  0  0  0  0  0  0  0  0  0  0  0
  -23.9130  -10.4580   21.0810 C   0  0  0  0  0  0  0  0  0  0  0  0
  -24.3630   -9.4820   21.9980 C   0  0  0  0  0  3  0  0  0  0  0  0
  -23.6460   -8.2780   22.1710 C   0  0  0  0  0  3  0  0  0  0  0  0
  -22.4640   -8.0420   21.4290 C   0  0  0  0  0  0  0  0  0  0  0  0
  -22.0330   -9.0080   20.5020 C   0  0  0  0  0  3  0  0  0  0  0  0
  -22.7510  -10.2020   20.3260 C   0  0  0  0  0  3  0  0  0  0  0  0
  -21.7170   -6.8920   21.5140 O   0  0  0  0  0  0  0  0  0  0  0  0
  -21.6850   -6.1380   22.6590 C   0  0  0  0  0  0  0  0  0  0  0  0
  -21.2500   -6.6720   23.8910 C   0  0  0  0  0  3  0  0  0  0  0  0
  -21.1660   -5.8430   25.0270 C   0  0  0  0  0  3  0  0  0  0  0  0
  -21.5060   -4.4810   24.9320 C   0  0  0  0  0  0  0  0  0  0  0  0
  -21.9340   -3.9460   23.7060 C   0  0  0  0  0  3  0  0  0  0  0  0
  -22.0200   -4.7710   22.5710 C   0  0  0  0  0  0  0  0  0  0  0  0
  -22.4120   -4.2460   21.3850 F   0  0  0  0  0  0  0  0  0  0  0  0
  -21.4190   -3.6820   26.0230 F   0  0  0  0  0  0  0  0  0  0  0  0
  -22.7560  -13.5380   21.2440 C   0  0  0  0  0  0  0  0  0  0  0  0
  -22.0460  -12.8310   22.1160 N   0  0  0  0  0  0  0  0  0  0  0  0
  -22.3030  -14.5620   20.7350 O   0  0  0  0  0  0  0  0  0  0  0  0
  -22.4260  -12.0010   22.5480 H   0  0  0  0  0  0  0  0  0  0  0  0
  -21.1080  -13.1230   22.3550 H   0  0  0  0  0  0  0  0  0  0  0  0
  -25.3510  -15.2360   20.4080 N   0  0  0  0  0  0  0  0  0  0  0  0
  -24.5730  -15.8760   20.5280 H   0  0  0  0  0  0  0  0  0  0  0  0
  -26.1720  -15.6840   20.0220 H   0  0  0  0  0  0  0  0  0  0  0  0
  -28.5370  -21.6530   20.3190 O   0  0  0  0  0  0  0  0  0  0  0  0
  -28.9340  -23.1800   20.3950 C   0  0  0  0  0  3  0  0  0  0  0  0
  -27.9180  -24.5570   20.1850 C   0  0  0  0  0  3  0  0  0  0  0  0
  -28.2060  -26.1090   20.3330 O   0  0  0  0  0  0  0  0  0  0  0  0
  -24.6190  -31.9130   23.2590 C   0  0  0  0  0  0  0  0  0  0  0  0
  -27.1690  -27.1290   20.2600 C   0  0  0  0  0  0  0  0  0  0  0  0
  -23.4180  -30.5200   21.6220 C   0  0  0  0  0  3  0  0  0  0  0  0
  -24.8600  -28.9240   20.2080 C   0  0  0  0  0  0  0  0  0  0  0  0
  -25.9770  -30.7550   21.4690 C   0  0  0  0  0  2  0  0  0  0  0  0
  -26.0440  -29.3560   20.8210 C   0  0  0  0  0  0  0  0  0  0  0  0
  -27.1980  -28.4770   20.8260 C   0  0  0  0  0  3  0  0  0  0  0  0
  -25.9570  -26.8130   19.6070 C   0  0  0  0  0  3  0  0  0  0  0  0
  -24.8330  -27.6690   19.5840 C   0  0  0  0  0  3  0  0  0  0  0  0
  -23.6420  -29.8350   20.2470 C   0  0  0  0  0  2  0  0  0  0  0  0
  -24.6920  -31.0860   22.1710 N   0  0  0  0  0  0  0  0  0  0  0  0
  -23.5320  -32.2090   23.7810 O   0  0  0  0  0  0  0  0  0  0  0  0
  -22.7250  -29.5230   22.5860 C   0  0  0  0  0  0  0  0  0  0  0  0
  -21.3960  -29.3620   22.4560 N   0  0  0  0  0  0  0  0  0  0  0  0
  -23.3870  -28.8960   23.4160 O   0  0  0  0  0  0  0  0  0  0  0  0
  -20.9160  -29.9190   21.7610 H   0  0  0  0  0  0  0  0  0  0  0  0
  -18.0030  -28.1890   22.9570 C   0  0  0  0  0  0  0  0  0  0  0  0
  -20.5650  -28.4340   23.2280 C   0  0  0  0  0  3  0  0  0  0  0  0
  -20.6550  -26.9990   22.6580 C   0  0  0  0  0  2  0  0  0  0  0  0
  -19.5520  -26.6820   21.6420 C   0  0  0  0  0  2  0  0  0  0  0  0
  -18.1710  -26.8370   22.2830 C   0  0  0  0  0  2  0  0  0  0  0  0
  -19.1270  -28.9450   23.3870 C   0  0  0  0  0  0  0  0  0  0  0  0
  -18.9140  -30.2090   23.9790 C   0  0  0  0  0  3  0  0  0  0  0  0
  -17.6120  -30.7170   24.1450 C   0  0  0  0  0  3  0  0  0  0  0  0
  -16.5040  -29.9590   23.7300 C   0  0  0  0  0  3  0  0  0  0  0  0
  -16.7000  -28.6960   23.1430 C   0  0  0  0  0  3  0  0  0  0  0  0
  -25.8970  -32.5450   23.8900 C   0  0  0  0  0  3  0  0  0  0  0  0
  -26.3980  -31.7760   25.1750 C   0  0  1  0  0  0  0  0  0  0  0  0
  -25.2950  -31.5510   26.2360 C   0  0  0  0  0  1  0  0  0  0  0  0
  -26.9760  -30.3940   24.7990 C   0  0  0  0  0  1  0  0  0  0  0  0
  -27.5480  -32.5680   25.8420 C   0  0  0  0  0  1  0  0  0  0  0  0
  -25.5880  -33.9460   24.2210 N   0  0  0  0  0  0  0  0  0  0  0  0
  -25.9010  -35.0010   23.4570 C   0  0  0  0  0  0  0  0  0  0  0  0
  -26.5440  -34.8970   22.4100 O   0  0  0  0  0  0  0  0  0  0  0  0
  -25.0130  -34.1010   25.0360 H   0  0  0  0  0  0  0  0  0  0  0  0
  -24.1500  -36.7860   23.1660 C   0  0  0  0  0  1  0  0  0  0  0  0
  -25.4270  -36.3910   23.9270 C   0  0  0  0  0  3  0  0  0  0  0  0
  -27.5860  -37.2980   24.6650 C   0  0  0  0  0  1  0  0  0  0  0  0
  -26.4470  -37.4490   23.7630 N   0  0  0  0  0  0  0  0  0  0  0  0
  -26.0420  -38.3690   23.9170 H   0  0  0  0  0  0  0  0  0  0  0  0
  2  1  1  0
  3  1  2  0
  4  6  2  0
  4  5  1  0
  5 15  1  0
  5  2  2  0
  6  3  1  0
  7 15  1  0
  8 13  1  0
  9 10  1  0
  9  8  1  0
 11 10  1  0
 11 20  1  0
 11 12  1  0
 13  7  1  0
 13 12  1  0
 14  7  2  0
 15 16  1  0
 17 18  2  0
 18 37  1  0
 19 18  1  0
 19 22  1  0
 20 21  1  0
 20 17  1  0
 21 19  2  0
 22 23  1  0
 23 24  2  0
 25 28  1  0
 25 24  1  0
 26 25  2  0
 27 26  1  0
 27 22  2  0
 28 29  1  0
 29 30  1  0
 30 31  2  0
 32 31  1  0
 32 36  1  0
 33 32  2  0
 34 29  2  0
 34 33  1  0
 35 34  1  0
 37 38  1  0
 38 41  1  0
 38 40  1  0
 39 37  2  0
 42 43  1  0
 42 17  1  0
 44 42  1  0
 45 46  1  0
 45  6  1  0
 47 48  1  0
 47 46  2  0
 49 60  2  0
 50 48  1  0
 50 55  1  0
 51 59  1  0
 51 61  1  0
 52 58  1  0
 52 54  1  0
 53 59  1  0
 54 55  2  0
 54 53  1  0
 56 50  2  0
 57 56  1  0
 57 52  2  0
 58 51  1  0
 59 49  1  0
 61 63  2  0
 62 61  1  0
 64 62  1  0
 65 74  2  0
 65 70  1  0
 66 62  1  0
 66 70  1  0
 67 66  1  0
 68 69  1  0
 68 67  1  0
 69 65  1  0
 70 71  2  0
 71 72  1  0
 73 72  2  0
 74 73  1  0
 75 49  1  0
 75 80  1  0
 75 76  1  0
 76 79  1  1
 76 77  1  0
 78 76  1  0
 80 83  1  0
 81 85  1  0
 81 80  1  0
 82 81  2  0
 85 84  1  0
 87 88  1  0
 87 85  1  0
 87 86  1  0
M  ISO  4   7 100  15 100  47 101  48 101
M  END
>  <TORSDO>  (83) 
F 19

>  <SCORE>  (83) 
-15.046

>  <name>  (83) 
82

>  <ligand_id>  (83) 
82

>  <original_smiles>  (83) 
[H]c1c([H])c(OC([H])([H])C([H])([H])Oc2c([H])c([H])c3c(c2[H])C([H])([H])N(C(=O)C([H])(N([H])C(=O)C([H])(N([H])C([H])([H])[H])C([H])([H])[H])C(C([H])([H])[H])(C([H])([H])[H])C([H])([H])[H])C([H])(C(=O)N([H])C2([H])c4c([H])c([H])c([H])c([H])c4C([H])([H])C([H])([H])C2([H])[H])C3([H])[H])c([H])c(N([H])C(=O)N2C([H])([H])C([H])([H])C([H])([H])C([H])(n3nc(-c4c([H])c([H])c(Oc5c([H])c([H])c(F)c([H])c5F)c([H])c4[H])c(C(=O)N([H])[H])c3N([H])[H])C2([H])[H])c1[H]

>  <smiles>  (83) 
[H]c1c([H])c(OC([H])([H])C([H])([H])Oc2c([H])c([H])c3c(c2[H])C([H])([H])N(C(=O)C([H])(N([H])C(=O)C([H])(N([H])C([H])([H])[H])C([H])([H])[H])C(C([H])([H])[H])(C([H])([H])[H])C([H])([H])[H])C([H])(C(=O)N([H])C2([H])c4c([H])c([H])c([H])c([H])c4C([H])([H])C([H])([H])C2([H])[H])C3([H])[H])c([H])c(N([H])C(=O)N2C([H])([H])C([H])([H])C([H])([H])C([H])(n3nc(-c4c([H])c([H])c(Oc5c([H])c([H])c(F)c([H])c5F)c([H])c4[H])c(C(=O)N([H])[H])c3N([H])[H])C2([H])[H])c1[H]

$$$$
83:0:0
     RDKit          3D

107115  0  0  1  0  0  0  0  0999 V2000
  -34.1370  -23.6380   19.9390 C   0  0  0  0  0  2  0  0  0  0  0  0
  -35.0930  -24.8030   20.2500 C   0  0  0  0  0  2  0  0  0  0  0  0
  -34.4950  -26.1700   19.8760 C   0  0  0  0  0  2  0  0  0  0  0  0
  -33.3100  -26.5940   20.7780 C   0  0  0  0  0  2  0  0  0  0  0  0
  -32.3140  -27.5080   20.0430 C   0  0  0  0  0  0  0  0  0  0  0  0
  -30.3880  -26.4480   21.2010 C   0  0  0  0  0  1  0  0  0  0  0  0
  -30.9810  -27.2730   20.1400 N   0  0  0  0  0  0  0  0  0  0  0  0
  -32.7670  -28.4020   19.3240 O   0  0  0  0  0  0  0  0  0  0  0  0
  -30.0350  -27.8990   19.1990 C   0  0  0  0  0  2  0  0  0  0  0  0
  -29.9810  -27.1400   17.8650 C   0  0  0  0  0  0  0  0  0  0  0  0
  -30.1700  -27.7310   16.7990 O   0  0  0  0  0  0  0  0  0  0  0  0
  -29.6840  -25.6360   17.9070 C   0  0  0  0  0  2  0  0  0  0  0  0
  -28.1930  -25.2870   17.7640 C   0  0  0  0  0  2  0  0  0  0  0  0
  -27.5440  -26.0830   16.7700 O   0  0  0  0  0  0  0  0  0  0  0  0
  -24.5070  -29.4710   22.1940 C   0  0  0  0  0  0  0  0  0  0  0  0
  -26.4100  -26.6840   17.2450 C   0  0  0  0  0  0  0  0  0  0  0  0
  -22.9660  -28.6790   20.4260 C   0  0  0  0  0  3  0  0  0  0  0  0
  -24.0730  -27.8750   18.2720 C   0  0  0  0  0  0  0  0  0  0  0  0
  -25.3870  -29.2790   19.8740 C   0  0  0  0  0  2  0  0  0  0  0  0
  -25.3280  -28.2430   18.7740 C   0  0  0  0  0  0  0  0  0  0  0  0
  -26.5000  -27.6540   18.2630 C   0  0  0  0  0  3  0  0  0  0  0  0
  -25.1460  -26.3200   16.7380 C   0  0  0  0  0  3  0  0  0  0  0  0
  -23.9750  -26.9120   17.2500 C   0  0  0  0  0  3  0  0  0  0  0  0
  -22.8690  -28.5590   18.8810 C   0  0  0  0  0  2  0  0  0  0  0  0
  -24.3180  -29.1360   20.8860 N   0  0  0  0  0  0  0  0  0  0  0  0
  -23.5690  -29.4520   23.0020 O   0  0  0  0  0  0  0  0  0  0  0  0
  -22.5290  -27.3360   21.0530 C   0  0  0  0  0  0  0  0  0  0  0  0
  -21.2220  -27.0410   20.9780 N   0  0  0  0  0  0  0  0  0  0  0  0
  -23.3590  -26.5760   21.5620 O   0  0  0  0  0  0  0  0  0  0  0  0
  -20.6080  -27.7200   20.5510 H   0  0  0  0  0  0  0  0  0  0  0  0
  -18.1000  -25.2290   21.0870 C   0  0  0  0  0  0  0  0  0  0  0  0
  -20.5880  -25.8160   21.4630 C   0  0  0  0  0  3  0  0  0  0  0  0
  -20.9040  -24.6200   20.5330 C   0  0  0  0  0  2  0  0  0  0  0  0
  -19.8420  -24.4000   19.4510 C   0  0  0  0  0  2  0  0  0  0  0  0
  -18.4730  -24.1480   20.0860 C   0  0  0  0  0  2  0  0  0  0  0  0
  -19.0910  -26.0230   21.7210 C   0  0  0  0  0  0  0  0  0  0  0  0
  -18.6880  -27.0380   22.6150 C   0  0  0  0  0  3  0  0  0  0  0  0
  -17.3250  -27.2620   22.8820 C   0  0  0  0  0  3  0  0  0  0  0  0
  -16.3470  -26.4640   22.2630 C   0  0  0  0  0  3  0  0  0  0  0  0
  -16.7360  -25.4490   21.3700 C   0  0  0  0  0  3  0  0  0  0  0  0
  -25.9050  -29.9210   22.7280 C   0  0  0  0  0  3  0  0  0  0  0  0
  -25.6840  -31.0440   23.6460 N   0  0  0  0  0  0  0  0  0  0  0  0
  -26.0010  -32.3180   23.3770 C   0  0  0  0  0  0  0  0  0  0  0  0
  -26.5820  -32.6610   22.3430 O   0  0  0  0  0  0  0  0  0  0  0  0
  -25.1580  -30.8460   24.4840 H   0  0  0  0  0  0  0  0  0  0  0  0
  -24.3700  -34.1510   23.9340 C   0  0  0  0  0  1  0  0  0  0  0  0
  -25.6090  -33.3820   24.4210 C   0  0  0  0  0  3  0  0  0  0  0  0
  -27.8170  -33.7240   25.4380 C   0  0  0  0  0  1  0  0  0  0  0  0
  -26.6970  -34.3350   24.7280 N   0  0  0  0  0  0  0  0  0  0  0  0
  -26.3490  -35.1100   25.2840 H   0  0  0  0  0  0  0  0  0  0  0  0
  -26.7020  -28.7610   23.4450 C   0  0  1  0  0  0  0  0  0  0  0  0
  -25.8860  -28.0340   24.5410 C   0  0  0  0  0  1  0  0  0  0  0  0
  -27.1660  -27.7030   22.4160 C   0  0  0  0  0  1  0  0  0  0  0  0
  -27.9820  -29.3330   24.0970 C   0  0  0  0  0  1  0  0  0  0  0  0
  -34.8560  -22.2980   19.7230 C   0  0  0  0  0  2  0  0  0  0  0  0
  -33.6180  -20.1350   19.8140 C   0  0  0  0  0  0  0  0  0  0  0  0
  -33.9050  -21.3050   19.2280 N   0  0  0  0  0  0  0  0  0  0  0  0
  -34.2290  -19.7190   20.8010 O   0  0  0  0  0  0  0  0  0  0  0  0
  -33.3690  -21.5580   18.4090 H   0  0  0  0  0  0  0  0  0  0  0  0
  -32.4700  -19.3200   19.2060 C   0  0  0  0  0  2  0  0  0  0  0  0
  -31.4790  -13.9530   20.1860 C   0  0  0  0  0  0  0  0  0  0  0  0
  -30.9360  -11.9500   18.8500 C   0  0  0  0  0  2  0  0  0  0  0  0
  -29.9670  -12.3580   17.7180 C   0  0  0  0  0  2  0  0  0  0  0  0
  -28.5030  -12.3350   18.2060 C   0  0  0  0  0  2  0  0  0  0  0  0
  -28.3090  -13.0850   19.5500 C   0  0  0  0  0  3  0  0  0  0  0  0
  -29.3690  -12.6280   20.5750 C   0  0  0  0  0  2  0  0  0  0  0  0
  -30.7040  -12.8530   19.9850 N   0  0  0  0  0  0  0  0  0  0  0  0
  -32.5750  -14.1070   19.6360 O   0  0  0  0  0  0  0  0  0  0  0  0
  -31.4420  -18.9830   21.4880 C   0  0  0  0  0  0  0  0  0  0  0  0
  -31.0020  -18.1470   22.4570 C   0  0  0  0  0  0  0  0  0  0  0  0
  -31.1590  -16.2350   21.0890 C   0  0  0  0  0  0  0  0  0  0  0  0
  -31.6340  -17.1330   19.9260 C   0  0  0  0  0  0  0  0  0  0  0  0
  -31.5390  -20.4980   21.6900 C   0  0  0  0  0  1  0  0  0  0  0  0
  -30.8800  -16.7790   22.2350 N   0  0  0  0  0  0  0  0  0  0  0  0
  -31.8110  -18.4560   20.2140 N   0  0  0  0  0  0  0  0  0  0  0  0
  -30.8940  -14.8710   20.9730 N   0  0  0  0  0  0  0  0  0  0  0  0
  -31.7990  -16.6660   18.7920 O   0  0  0  0  0  0  0  0  0  0  0  0
  -30.5420  -18.7010   24.0290 Cl  0  0  0  0  0  0  0  0  0  0  0  0
  -30.1040  -14.5300   21.4930 H   0  0  0  0  0  0  0  0  0  0  0  0
  -25.9890  -13.8820   20.3390 C   0  0  0  0  0  0  0  0  0  0  0  0
  -24.8760  -13.1940   20.7420 C   0  0  0  0  0  0  0  0  0  0  0  0
  -25.2260  -11.8090   20.6860 C   0  0  0  0  0  0  0  0  0  0  0  0
  -26.9520  -12.9210   20.0670 N   0  0  0  0  0  0  0  0  0  0  0  0
  -26.4960  -11.6700   20.3300 N   0  0  0  0  0  0  0  0  0  0  0  0
  -24.4110  -10.6070   20.8980 C   0  0  0  0  0  0  0  0  0  0  0  0
  -24.7760   -9.6240   21.8450 C   0  0  0  0  0  3  0  0  0  0  0  0
  -23.9670   -8.4850   22.0430 C   0  0  0  0  0  3  0  0  0  0  0  0
  -22.7780   -8.3200   21.2930 C   0  0  0  0  0  0  0  0  0  0  0  0
  -22.4310   -9.2920   20.3370 C   0  0  0  0  0  3  0  0  0  0  0  0
  -23.2410  -10.4220   20.1370 C   0  0  0  0  0  3  0  0  0  0  0  0
  -21.9460   -7.2330   21.3960 O   0  0  0  0  0  0  0  0  0  0  0  0
  -21.8060   -6.5440   22.5740 C   0  0  0  0  0  0  0  0  0  0  0  0
  -21.3680   -7.1750   23.7580 C   0  0  0  0  0  3  0  0  0  0  0  0
  -21.1690   -6.4150   24.9290 C   0  0  0  0  0  3  0  0  0  0  0  0
  -21.4000   -5.0260   24.9150 C   0  0  0  0  0  0  0  0  0  0  0  0
  -21.8310   -4.3950   23.7350 C   0  0  0  0  0  3  0  0  0  0  0  0
  -22.0310   -5.1530   22.5680 C   0  0  0  0  0  0  0  0  0  0  0  0
  -22.4260   -4.5360   21.4280 F   0  0  0  0  0  0  0  0  0  0  0  0
  -21.2030   -4.2950   26.0380 F   0  0  0  0  0  0  0  0  0  0  0  0
  -23.5310  -13.7770   21.0690 C   0  0  0  0  0  0  0  0  0  0  0  0
  -22.7940  -13.1470   21.9780 N   0  0  0  0  0  0  0  0  0  0  0  0
  -23.1460  -14.8260   20.5540 O   0  0  0  0  0  0  0  0  0  0  0  0
  -23.1190  -12.2990   22.4180 H   0  0  0  0  0  0  0  0  0  0  0  0
  -21.8920  -13.5210   22.2380 H   0  0  0  0  0  0  0  0  0  0  0  0
  -26.2570  -15.2360   20.1670 N   0  0  0  0  0  0  0  0  0  0  0  0
  -25.5500  -15.9480   20.3130 H   0  0  0  0  0  0  0  0  0  0  0  0
  -27.1280  -15.6120   19.8140 H   0  0  0  0  0  0  0  0  0  0  0  0
  1  2  1  0
  3  2  1  0
  3  4  1  0
  5  7  1  0
  5  4  1  0
  7  6  1  0
  8  5  2  0
  9  7  1  0
 10 12  1  0
 10  9  1  0
 11 10  2  0
 13 12  1  0
 14 16  1  0
 14 13  1  0
 15 26  2  0
 16 21  1  0
 17 25  1  0
 17 27  1  0
 18 20  1  0
 18 24  1  0
 19 25  1  0
 20 19  1  0
 21 20  2  0
 22 16  2  0
 22 23  1  0
 23 18  2  0
 24 17  1  0
 25 15  1  0
 27 29  2  0
 28 27  1  0
 30 28  1  0
 31 40  2  0
 31 36  1  0
 32 28  1  0
 32 36  1  0
 33 32  1  0
 34 35  1  0
 34 33  1  0
 35 31  1  0
 36 37  2  0
 37 38  1  0
 39 38  2  0
 40 39  1  0
 41 15  1  0
 41 51  1  0
 41 42  1  0
 42 45  1  0
 43 42  1  0
 43 47  1  0
 44 43  2  0
 47 46  1  0
 47 49  1  0
 49 50  1  0
 49 48  1  0
 51 54  1  1
 51 52  1  0
 53 51  1  0
 55  1  1  0
 56 58  2  0
 57 55  1  0
 57 56  1  0
 59 57  1  0
 60 56  1  0
 60 75  1  0
 61 76  1  0
 62 67  1  0
 63 64  1  0
 63 62  1  0
 65 64  1  0
 65 83  1  0
 65 66  1  0
 67 61  1  0
 67 66  1  0
 68 61  2  0
 69 73  1  0
 69 70  2  0
 70 78  1  0
 71 74  2  0
 72 75  1  0
 72 71  1  0
 74 70  1  0
 75 69  1  0
 76 71  1  0
 76 79  1  0
 77 72  2  0
 80 81  2  0
 81100  1  0
 82 81  1  0
 82 85  1  0
 83 84  1  0
 83 80  1  0
 84 82  2  0
 85 86  1  0
 86 87  2  0
 88 91  1  0
 88 87  1  0
 89 88  2  0
 90 89  1  0
 90 85  2  0
 91 92  1  0
 92 93  1  0
 93 94  2  0
 95 94  1  0
 95 99  1  0
 96 95  2  0
 97 92  2  0
 97 96  1  0
 98 97  1  0
100101  1  0
101104  1  0
101103  1  0
102100  2  0
105106  1  0
105 80  1  0
107105  1  0
M  ISO  4  13 101  14 101  61 100  76 100
M  END
>  <TORSDO>  (84) 
F 27

>  <SCORE>  (84) 
-8.263

>  <name>  (84) 
83

>  <ligand_id>  (84) 
83

>  <original_smiles>  (84) 
[H]c1c([H])c([H])c2c(c1[H])C([H])([H])C([H])([H])C([H])([H])C2([H])N([H])C(=O)C1([H])N(C(=O)C([H])(N([H])C(=O)C([H])(N([H])C([H])([H])[H])C([H])([H])[H])C(C([H])([H])[H])(C([H])([H])[H])C([H])([H])[H])C([H])([H])c2c([H])c(OC([H])([H])C([H])([H])C(=O)C([H])([H])N(C(=O)C([H])([H])C([H])([H])C([H])([H])C([H])([H])C([H])([H])N([H])C(=O)C([H])([H])n3c(C([H])([H])[H])c(Cl)nc(N([H])C(=O)N4C([H])([H])C([H])([H])C([H])([H])C([H])(n5nc(-c6c([H])c([H])c(Oc7c([H])c([H])c(F)c([H])c7F)c([H])c6[H])c(C(=O)N([H])[H])c5N([H])[H])C4([H])[H])c3=O)C([H])([H])[H])c([H])c([H])c2C1([H])[H]

>  <smiles>  (84) 
[H]c1c([H])c([H])c2c(c1[H])C([H])([H])C([H])([H])C([H])([H])C2([H])N([H])C(=O)C1([H])N(C(=O)C([H])(N([H])C(=O)C([H])(N([H])C([H])([H])[H])C([H])([H])[H])C(C([H])([H])[H])(C([H])([H])[H])C([H])([H])[H])C([H])([H])c2c([H])c(OC([H])([H])C([H])([H])C(=O)C([H])([H])N(C(=O)C([H])([H])C([H])([H])C([H])([H])C([H])([H])C([H])([H])N([H])C(=O)C([H])([H])n3c(C([H])([H])[H])c(Cl)nc(N([H])C(=O)N4C([H])([H])C([H])([H])C([H])([H])C([H])(n5nc(-c6c([H])c([H])c(Oc7c([H])c([H])c(F)c([H])c7F)c([H])c6[H])c(C(=O)N([H])[H])c5N([H])[H])C4([H])[H])c3=O)C([H])([H])[H])c([H])c([H])c2C1([H])[H]

$$$$
84:0:0
     RDKit          3D

 90 98  0  0  1  0  0  0  0  0999 V2000
  -31.0370  -17.9100   19.9770 C   0  0  0  0  0  3  0  0  0  0  0  0
  -31.0130  -19.3290   19.8310 C   0  0  0  0  0  3  0  0  0  0  0  0
  -28.7300  -17.9770   20.6360 C   0  0  0  0  0  3  0  0  0  0  0  0
  -29.8880  -17.1860   20.3860 C   0  0  0  0  0  0  0  0  0  0  0  0
  -29.8590  -20.1220   20.0780 C   0  0  0  0  0  0  0  0  0  0  0  0
  -28.7050  -19.3980   20.4900 C   0  0  0  0  0  0  0  0  0  0  0  0
  -27.5490  -20.0520   20.7580 F   0  0  0  0  0  0  0  0  0  0  0  0
  -30.5980  -14.6850   20.1250 C   0  0  0  0  0  0  0  0  0  0  0  0
  -30.3560  -12.4480   19.0640 C   0  0  0  0  0  2  0  0  0  0  0  0
  -29.3690  -12.5900   17.8830 C   0  0  0  0  0  2  0  0  0  0  0  0
  -27.9110  -12.4310   18.3610 C   0  0  0  0  0  2  0  0  0  0  0  0
  -27.6000  -13.2790   19.6230 C   0  0  0  0  0  3  0  0  0  0  0  0
  -28.6980  -13.1110   20.6970 C   0  0  0  0  0  2  0  0  0  0  0  0
  -29.9860  -13.4590   20.0760 N   0  0  0  0  0  0  0  0  0  0  0  0
  -31.7390  -14.8470   19.6810 O   0  0  0  0  0  0  0  0  0  0  0  0
  -29.8100  -15.7270   20.5450 N   0  0  0  0  0  0  0  0  0  0  0  0
  -28.9370  -15.4010   20.9340 H   0  0  0  0  0  0  0  0  0  0  0  0
  -25.2380  -13.8750   20.4420 C   0  0  0  0  0  0  0  0  0  0  0  0
  -24.1830  -13.1000   20.8410 C   0  0  0  0  0  0  0  0  0  0  0  0
  -24.6380  -11.7470   20.7700 C   0  0  0  0  0  0  0  0  0  0  0  0
  -26.2690  -12.9940   20.1530 N   0  0  0  0  0  0  0  0  0  0  0  0
  -25.9140  -11.7080   20.4090 N   0  0  0  0  0  0  0  0  0  0  0  0
  -23.9120  -10.4850   20.9680 C   0  0  0  0  0  0  0  0  0  0  0  0
  -24.3650   -9.5090   21.8830 C   0  0  0  0  0  3  0  0  0  0  0  0
  -23.6420   -8.3110   22.0690 C   0  0  0  0  0  3  0  0  0  0  0  0
  -22.4500   -8.0820   21.3400 C   0  0  0  0  0  0  0  0  0  0  0  0
  -22.0150   -9.0480   20.4150 C   0  0  0  0  0  3  0  0  0  0  0  0
  -22.7400  -10.2360   20.2260 C   0  0  0  0  0  3  0  0  0  0  0  0
  -21.6950   -6.9380   21.4370 O   0  0  0  0  0  0  0  0  0  0  0  0
  -21.6530   -6.1990   22.5920 C   0  0  0  0  0  0  0  0  0  0  0  0
  -21.2070   -6.7480   23.8130 C   0  0  0  0  0  3  0  0  0  0  0  0
  -21.1150   -5.9340   24.9610 C   0  0  0  0  0  3  0  0  0  0  0  0
  -21.4580   -4.5710   24.8850 C   0  0  0  0  0  0  0  0  0  0  0  0
  -21.8970   -4.0200   23.6680 C   0  0  0  0  0  3  0  0  0  0  0  0
  -21.9910   -4.8310   22.5240 C   0  0  0  0  0  0  0  0  0  0  0  0
  -22.3940   -4.2910   21.3490 F   0  0  0  0  0  0  0  0  0  0  0  0
  -21.3620   -3.7860   25.9840 F   0  0  0  0  0  0  0  0  0  0  0  0
  -22.7990  -13.5780   21.1750 C   0  0  0  0  0  0  0  0  0  0  0  0
  -22.1060  -12.8780   22.0650 N   0  0  0  0  0  0  0  0  0  0  0  0
  -22.3450  -14.6100   20.6840 O   0  0  0  0  0  0  0  0  0  0  0  0
  -22.4870  -12.0440   22.4880 H   0  0  0  0  0  0  0  0  0  0  0  0
  -21.1790  -13.1820   22.3300 H   0  0  0  0  0  0  0  0  0  0  0  0
  -25.4000  -15.2470   20.2780 N   0  0  0  0  0  0  0  0  0  0  0  0
  -24.6340  -15.8960   20.4170 H   0  0  0  0  0  0  0  0  0  0  0  0
  -26.2220  -15.6840   19.8800 H   0  0  0  0  0  0  0  0  0  0  0  0
  -29.9680  -21.5220   19.9050 O   0  0  0  0  0  0  0  0  0  0  0  0
  -28.8750  -22.4670   20.1420 C   0  0  0  0  0  3  0  0  0  0  0  0
  -29.2270  -24.0020   19.8750 C   0  0  0  0  0  3  0  0  0  0  0  0
  -28.0550  -25.0580   20.0540 C   0  0  0  0  0  2  0  0  0  0  0  0
  -28.3030  -26.5080   19.8500 O   0  0  0  0  0  0  0  0  0  0  0  0
  -24.6700  -31.8010   23.1690 C   0  0  0  0  0  0  0  0  0  0  0  0
  -27.1900  -27.3650   19.8710 C   0  0  0  0  0  0  0  0  0  0  0  0
  -23.4280  -30.4940   21.4830 C   0  0  0  0  0  3  0  0  0  0  0  0
  -24.8410  -28.9990   19.9700 C   0  0  0  0  0  0  0  0  0  0  0  0
  -25.9690  -30.7950   21.2790 C   0  0  0  0  0  2  0  0  0  0  0  0
  -26.0250  -29.4470   20.5710 C   0  0  0  0  0  0  0  0  0  0  0  0
  -27.2020  -28.6430   20.5130 C   0  0  0  0  0  3  0  0  0  0  0  0
  -25.9840  -26.9800   19.2380 C   0  0  0  0  0  3  0  0  0  0  0  0
  -24.8230  -27.7710   19.2960 C   0  0  0  0  0  3  0  0  0  0  0  0
  -23.6170  -29.8840   20.0710 C   0  0  0  0  0  2  0  0  0  0  0  0
  -24.7090  -31.0450   22.0350 N   0  0  0  0  0  0  0  0  0  0  0  0
  -23.5980  -32.0660   23.7310 O   0  0  0  0  0  0  0  0  0  0  0  0
  -22.7670  -29.4390   22.4030 C   0  0  0  0  0  0  0  0  0  0  0  0
  -21.4370  -29.2880   22.2910 N   0  0  0  0  0  0  0  0  0  0  0  0
  -23.4500  -28.7630   23.1770 O   0  0  0  0  0  0  0  0  0  0  0  0
  -20.9460  -29.8860   21.6410 H   0  0  0  0  0  0  0  0  0  0  0  0
  -18.0450  -28.1480   22.8170 C   0  0  0  0  0  0  0  0  0  0  0  0
  -20.6160  -28.3280   23.0300 C   0  0  0  0  0  3  0  0  0  0  0  0
  -20.6640  -26.9300   22.3690 C   0  0  0  0  0  2  0  0  0  0  0  0
  -19.5260  -26.6940   21.3700 C   0  0  0  0  0  2  0  0  0  0  0  0
  -18.1670  -26.8370   22.0610 C   0  0  0  0  0  2  0  0  0  0  0  0
  -19.1950  -28.8560   23.2580 C   0  0  0  0  0  0  0  0  0  0  0  0
  -19.0250  -30.0880   23.9270 C   0  0  0  0  0  3  0  0  0  0  0  0
  -17.7390  -30.6110   24.1590 C   0  0  0  0  0  3  0  0  0  0  0  0
  -16.6040  -29.8990   23.7320 C   0  0  0  0  0  3  0  0  0  0  0  0
  -16.7580  -28.6700   23.0680 C   0  0  0  0  0  3  0  0  0  0  0  0
  -25.9690  -32.3900   23.8020 C   0  0  0  0  0  3  0  0  0  0  0  0
  -26.4820  -31.5600   25.0420 C   0  0  1  0  0  0  0  0  0  0  0  0
  -25.3960  -31.3020   26.1120 C   0  0  0  0  0  1  0  0  0  0  0  0
  -27.0380  -30.1900   24.5940 C   0  0  0  0  0  1  0  0  0  0  0  0
  -27.6520  -32.3110   25.7230 C   0  0  0  0  0  1  0  0  0  0  0  0
  -25.6830  -33.7790   24.1890 N   0  0  0  0  0  0  0  0  0  0  0  0
  -25.9950  -34.8530   23.4520 C   0  0  0  0  0  0  0  0  0  0  0  0
  -26.6230  -34.7770   22.3920 O   0  0  0  0  0  0  0  0  0  0  0  0
  -25.1190  -33.9120   25.0150 H   0  0  0  0  0  0  0  0  0  0  0  0
  -24.2570  -36.6600   23.2380 C   0  0  0  0  0  1  0  0  0  0  0  0
  -25.5380  -36.2290   23.9710 C   0  0  0  0  0  3  0  0  0  0  0  0
  -27.7130  -37.0900   24.7190 C   0  0  0  0  0  1  0  0  0  0  0  0
  -26.5670  -37.2830   23.8340 N   0  0  0  0  0  0  0  0  0  0  0  0
  -26.1720  -38.2000   24.0220 H   0  0  0  0  0  0  0  0  0  0  0  0
  1  4  1  0
  2  1  2  0
  2  5  1  0
  4 16  1  0
  4  3  2  0
  5  6  2  0
  6  3  1  0
  6  7  1  0
  8 16  1  0
  9 14  1  0
 10 11  1  0
 10  9  1  0
 12 11  1  0
 12 21  1  0
 12 13  1  0
 14  8  1  0
 14 13  1  0
 15  8  2  0
 16 17  1  0
 18 19  2  0
 19 38  1  0
 20 19  1  0
 20 23  1  0
 21 22  1  0
 21 18  1  0
 22 20  2  0
 23 24  1  0
 24 25  2  0
 26 29  1  0
 26 25  1  0
 27 26  2  0
 28 27  1  0
 28 23  2  0
 29 30  1  0
 30 31  1  0
 31 32  2  0
 33 32  1  0
 33 37  1  0
 34 33  2  0
 35 30  2  0
 35 34  1  0
 36 35  1  0
 38 39  1  0
 39 42  1  0
 39 41  1  0
 40 38  2  0
 43 44  1  0
 43 18  1  0
 45 43  1  0
 46  5  1  0
 46 47  1  0
 48 49  1  0
 48 47  2  0
 50 52  1  0
 50 49  1  0
 51 62  2  0
 52 57  1  0
 53 61  1  0
 53 63  1  0
 54 60  1  0
 54 56  1  0
 55 61  1  0
 56 55  1  0
 57 56  2  0
 58 59  1  0
 58 52  2  0
 59 54  2  0
 60 53  1  0
 61 51  1  0
 63 65  2  0
 64 63  1  0
 66 64  1  0
 67 76  2  0
 67 72  1  0
 68 64  1  0
 68 72  1  0
 69 68  1  0
 70 71  1  0
 70 69  1  0
 71 67  1  0
 72 73  2  0
 73 74  1  0
 75 74  2  0
 76 75  1  0
 77 51  1  0
 77 82  1  0
 77 78  1  0
 78 81  1  1
 78 79  1  0
 80 78  1  0
 82 85  1  0
 83 87  1  0
 83 82  1  0
 84 83  2  0
 87 86  1  0
 89 87  1  0
 89 90  1  0
 89 88  1  0
M  ISO  4   8 100  16 100  49 101  50 101
M  END
>  <TORSDO>  (85) 
F 20

>  <SCORE>  (85) 
-13.622

>  <name>  (85) 
84

>  <ligand_id>  (85) 
84

>  <original_smiles>  (85) 
[H]c1c([H])c([H])c2c(c1[H])C([H])([H])C([H])([H])C([H])([H])C2([H])N([H])C(=O)C1([H])N(C(=O)C([H])(N([H])C(=O)C([H])(N([H])C([H])([H])[H])C([H])([H])[H])C(C([H])([H])[H])(C([H])([H])[H])C([H])([H])[H])C([H])([H])c2c([H])c(OC([H])([H])C([H])([H])C([H])([H])Oc3c([H])c([H])c(N([H])C(=O)N4C([H])([H])C([H])([H])C([H])([H])C([H])(n5nc(-c6c([H])c([H])c(Oc7c([H])c([H])c(F)c([H])c7F)c([H])c6[H])c(C(=O)N([H])[H])c5N([H])[H])C4([H])[H])c([H])c3F)c([H])c([H])c2C1([H])[H]

>  <smiles>  (85) 
[H]c1c([H])c([H])c2c(c1[H])C([H])([H])C([H])([H])C([H])([H])C2([H])N([H])C(=O)C1([H])N(C(=O)C([H])(N([H])C(=O)C([H])(N([H])C([H])([H])[H])C([H])([H])[H])C(C([H])([H])[H])(C([H])([H])[H])C([H])([H])[H])C([H])([H])c2c([H])c(OC([H])([H])C([H])([H])C([H])([H])Oc3c([H])c([H])c(N([H])C(=O)N4C([H])([H])C([H])([H])C([H])([H])C([H])(n5nc(-c6c([H])c([H])c(Oc7c([H])c([H])c(F)c([H])c7F)c([H])c6[H])c(C(=O)N([H])[H])c5N([H])[H])C4([H])[H])c([H])c3F)c([H])c([H])c2C1([H])[H]

$$$$
85:0:0
     RDKit          3D

 94102  0  0  1  0  0  0  0  0999 V2000
  -26.7930  -20.0390   17.7620 C   0  0  0  0  0  0  0  0  0  0  0  0
  -27.4130  -20.8750   18.6070 N   0  0  0  0  0  0  0  0  0  0  0  0
  -26.4460  -20.3820   16.6280 O   0  0  0  0  0  0  0  0  0  0  0  0
  -27.7110  -20.4860   19.4920 H   0  0  0  0  0  0  0  0  0  0  0  0
  -26.3950  -18.6550   18.2790 C   0  0  0  0  0  2  0  0  0  0  0  0
  -28.4650  -17.1980   18.2480 C   0  0  0  0  0  3  0  0  0  0  0  0
  -27.5500  -17.8670   20.4060 C   0  0  0  0  0  3  0  0  0  0  0  0
  -29.4240  -16.4090   18.9010 C   0  0  0  0  0  3  0  0  0  0  0  0
  -28.5050  -17.0650   21.0630 C   0  0  0  0  0  3  0  0  0  0  0  0
  -27.5100  -17.9130   18.9950 C   0  0  0  0  0  0  0  0  0  0  0  0
  -29.4250  -16.3030   20.3150 C   0  0  0  0  0  0  0  0  0  0  0  0
  -30.9600  -14.4270   20.4170 C   0  0  0  0  0  0  0  0  0  0  0  0
  -30.5500  -12.3620   19.1350 C   0  0  0  0  0  2  0  0  0  0  0  0
  -29.5680  -12.6030   17.9730 C   0  0  0  0  0  2  0  0  0  0  0  0
  -28.1110  -12.4510   18.4510 C   0  0  0  0  0  2  0  0  0  0  0  0
  -27.8150  -13.2570   19.7440 C   0  0  0  0  0  3  0  0  0  0  0  0
  -28.9060  -13.0110   20.8100 C   0  0  0  0  0  2  0  0  0  0  0  0
  -30.2140  -13.3130   20.2020 N   0  0  0  0  0  0  0  0  0  0  0  0
  -32.0890  -14.5930   19.9530 O   0  0  0  0  0  0  0  0  0  0  0  0
  -30.3360  -15.4580   21.0030 N   0  0  0  0  0  0  0  0  0  0  0  0
  -30.9270  -15.9650   21.6460 H   0  0  0  0  0  0  0  0  0  0  0  0
  -25.4350  -13.8600   20.5110 C   0  0  0  0  0  0  0  0  0  0  0  0
  -24.3760  -13.0850   20.8990 C   0  0  0  0  0  0  0  0  0  0  0  0
  -24.8390  -11.7340   20.8520 C   0  0  0  0  0  0  0  0  0  0  0  0
  -26.4760  -12.9810   20.2570 N   0  0  0  0  0  0  0  0  0  0  0  0
  -26.1230  -11.6980   20.5180 N   0  0  0  0  0  0  0  0  0  0  0  0
  -24.1210  -10.4710   21.0490 C   0  0  0  0  0  0  0  0  0  0  0  0
  -24.5520   -9.5190   22.0000 C   0  0  0  0  0  3  0  0  0  0  0  0
  -23.8350   -8.3170   22.1840 C   0  0  0  0  0  3  0  0  0  0  0  0
  -22.6740   -8.0590   21.4170 C   0  0  0  0  0  0  0  0  0  0  0  0
  -22.2630   -9.0000   20.4570 C   0  0  0  0  0  3  0  0  0  0  0  0
  -22.9800  -10.1930   20.2710 C   0  0  0  0  0  3  0  0  0  0  0  0
  -21.9300   -6.9080   21.5090 O   0  0  0  0  0  0  0  0  0  0  0  0
  -21.8290   -6.2080   22.6850 C   0  0  0  0  0  0  0  0  0  0  0  0
  -21.3190   -6.7990   23.8620 C   0  0  0  0  0  3  0  0  0  0  0  0
  -21.1680   -6.0230   25.0290 C   0  0  0  0  0  3  0  0  0  0  0  0
  -21.5190   -4.6610   25.0190 C   0  0  0  0  0  0  0  0  0  0  0  0
  -22.0230   -4.0700   23.8480 C   0  0  0  0  0  3  0  0  0  0  0  0
  -22.1760   -4.8420   22.6830 C   0  0  0  0  0  0  0  0  0  0  0  0
  -22.6420   -4.2640   21.5500 F   0  0  0  0  0  0  0  0  0  0  0  0
  -21.3670   -3.9140   26.1380 F   0  0  0  0  0  0  0  0  0  0  0  0
  -22.9840  -13.5590   21.2010 C   0  0  0  0  0  0  0  0  0  0  0  0
  -22.2750  -12.8580   22.0800 N   0  0  0  0  0  0  0  0  0  0  0  0
  -22.5330  -14.5850   20.6960 O   0  0  0  0  0  0  0  0  0  0  0  0
  -22.6520  -12.0280   22.5130 H   0  0  0  0  0  0  0  0  0  0  0  0
  -21.3410  -13.1580   22.3240 H   0  0  0  0  0  0  0  0  0  0  0  0
  -25.5860  -15.2290   20.3360 N   0  0  0  0  0  0  0  0  0  0  0  0
  -24.8190  -15.8770   20.4760 H   0  0  0  0  0  0  0  0  0  0  0  0
  -26.4430  -15.6860   20.0440 H   0  0  0  0  0  0  0  0  0  0  0  0
  -27.2570  -22.3220   18.5200 C   0  0  0  0  0  2  0  0  0  0  0  0
  -28.4250  -23.1560   19.0880 C   0  0  0  0  0  2  0  0  0  0  0  0
  -27.8880  -24.5800   19.3060 C   0  0  0  0  0  2  0  0  0  0  0  0
  -28.8680  -25.7680   19.3950 C   0  0  0  0  0  2  0  0  0  0  0  0
  -28.5260  -26.8230   20.3150 O   0  0  0  0  0  0  0  0  0  0  0  0
  -24.6340  -31.9710   23.3160 C   0  0  0  0  0  0  0  0  0  0  0  0
  -27.3320  -27.5250   20.2530 C   0  0  0  0  0  0  0  0  0  0  0  0
  -23.4490  -30.5480   21.6820 C   0  0  0  0  0  3  0  0  0  0  0  0
  -24.9190  -29.0270   20.2730 C   0  0  0  0  0  0  0  0  0  0  0  0
  -25.9770  -30.9180   21.5030 C   0  0  0  0  0  2  0  0  0  0  0  0
  -26.0730  -29.5470   20.8700 C   0  0  0  0  0  0  0  0  0  0  0  0
  -27.2730  -28.7970   20.8720 C   0  0  0  0  0  3  0  0  0  0  0  0
  -26.1460  -27.0380   19.6520 C   0  0  0  0  0  3  0  0  0  0  0  0
  -24.9490  -27.7660   19.6710 C   0  0  0  0  0  3  0  0  0  0  0  0
  -23.6720  -29.8750   20.3060 C   0  0  0  0  0  2  0  0  0  0  0  0
  -24.7040  -31.1600   22.2230 N   0  0  0  0  0  0  0  0  0  0  0  0
  -23.5460  -32.2380   23.8470 O   0  0  0  0  0  0  0  0  0  0  0  0
  -22.8050  -29.5200   22.6410 C   0  0  0  0  0  0  0  0  0  0  0  0
  -21.4880  -29.3050   22.4900 N   0  0  0  0  0  0  0  0  0  0  0  0
  -23.4870  -28.9240   23.4780 O   0  0  0  0  0  0  0  0  0  0  0  0
  -21.0000  -29.8370   21.7840 H   0  0  0  0  0  0  0  0  0  0  0  0
  -18.1340  -28.0390   22.9320 C   0  0  0  0  0  0  0  0  0  0  0  0
  -20.6770  -28.3630   23.2610 C   0  0  0  0  0  3  0  0  0  0  0  0
  -20.8280  -26.9230   22.7190 C   0  0  0  0  0  2  0  0  0  0  0  0
  -19.7590  -26.5520   21.6870 C   0  0  0  0  0  2  0  0  0  0  0  0
  -18.3590  -26.6780   22.2930 C   0  0  0  0  0  2  0  0  0  0  0  0
  -19.2230  -28.8350   23.3730 C   0  0  0  0  0  0  0  0  0  0  0  0
  -18.9610  -30.1060   23.9290 C   0  0  0  0  0  3  0  0  0  0  0  0
  -17.6410  -30.5800   24.0510 C   0  0  0  0  0  3  0  0  0  0  0  0
  -16.5650  -29.7810   23.6280 C   0  0  0  0  0  3  0  0  0  0  0  0
  -16.8120  -28.5110   23.0730 C   0  0  0  0  0  3  0  0  0  0  0  0
  -25.9110  -32.6180   23.9340 C   0  0  0  0  0  3  0  0  0  0  0  0
  -25.5910  -34.0180   24.2420 N   0  0  0  0  0  0  0  0  0  0  0  0
  -25.9130  -35.0600   23.4630 C   0  0  0  0  0  0  0  0  0  0  0  0
  -26.5850  -34.9460   22.4330 O   0  0  0  0  0  0  0  0  0  0  0  0
  -24.9990  -34.1820   25.0420 H   0  0  0  0  0  0  0  0  0  0  0  0
  -24.1670  -36.8270   23.0730 C   0  0  0  0  0  1  0  0  0  0  0  0
  -25.4100  -36.4490   23.8950 C   0  0  0  0  0  3  0  0  0  0  0  0
  -27.5310  -37.3710   24.7180 C   0  0  0  0  0  1  0  0  0  0  0  0
  -26.4320  -37.5100   23.7670 N   0  0  0  0  0  0  0  0  0  0  0  0
  -26.0150  -38.4300   23.8960 H   0  0  0  0  0  0  0  0  0  0  0  0
  -26.4270  -31.8660   25.2220 C   0  0  1  0  0  0  0  0  0  0  0  0
  -25.3280  -31.6300   26.2840 C   0  0  0  0  0  1  0  0  0  0  0  0
  -27.0290  -30.4910   24.8490 C   0  0  0  0  0  1  0  0  0  0  0  0
  -27.5620  -32.6820   25.8840 C   0  0  0  0  0  1  0  0  0  0  0  0
  1  5  1  0
  1  2  1  0
  2  4  1  0
  3  1  2  0
  5 10  1  0
  6  8  2  0
  6 10  1  0
  7  9  1  0
  8 11  1  0
 10  7  2  0
 11 20  1  0
 11  9  2  0
 12 20  1  0
 13 18  1  0
 14 15  1  0
 14 13  1  0
 16 15  1  0
 16 25  1  0
 16 17  1  0
 18 12  1  0
 18 17  1  0
 19 12  2  0
 20 21  1  0
 22 23  2  0
 23 42  1  0
 24 23  1  0
 24 27  1  0
 25 22  1  0
 25 26  1  0
 26 24  2  0
 27 28  1  0
 28 29  2  0
 30 33  1  0
 30 29  1  0
 31 30  2  0
 32 31  1  0
 32 27  2  0
 33 34  1  0
 34 35  1  0
 35 36  2  0
 37 36  1  0
 37 41  1  0
 38 37  2  0
 39 34  2  0
 39 38  1  0
 40 39  1  0
 42 43  1  0
 43 46  1  0
 43 45  1  0
 44 42  2  0
 47 48  1  0
 47 22  1  0
 49 47  1  0
 50  2  1  0
 50 51  1  0
 51 52  1  0
 52 53  1  0
 53 54  1  0
 55 66  2  0
 56 54  1  0
 56 61  1  0
 57 65  1  0
 57 67  1  0
 58 64  1  0
 58 60  1  0
 59 65  1  0
 60 61  2  0
 60 59  1  0
 62 63  1  0
 62 56  2  0
 63 58  2  0
 64 57  1  0
 65 55  1  0
 67 69  2  0
 68 67  1  0
 70 68  1  0
 71 80  2  0
 71 76  1  0
 72 68  1  0
 72 76  1  0
 73 72  1  0
 74 75  1  0
 74 73  1  0
 75 71  1  0
 76 77  2  0
 77 78  1  0
 79 78  2  0
 80 79  1  0
 81 55  1  0
 81 82  1  0
 81 91  1  0
 82 85  1  0
 83 87  1  0
 83 82  1  0
 84 83  2  0
 87 86  1  0
 89 87  1  0
 89 90  1  0
 89 88  1  0
 91 94  1  1
 91 92  1  0
 93 91  1  0
M  ISO  4  12 100  20 100  53 101  54 101
M  END
>  <TORSDO>  (86) 
F 22

>  <SCORE>  (86) 
-12.078

>  <name>  (86) 
85

>  <ligand_id>  (86) 
85

>  <original_smiles>  (86) 
[H]c1c([H])c([H])c2c(c1[H])C([H])([H])C([H])([H])C([H])([H])C2([H])N([H])C(=O)C1([H])N(C(=O)C([H])(N([H])C(=O)C([H])(N([H])C([H])([H])[H])C([H])([H])[H])C(C([H])([H])[H])(C([H])([H])[H])C([H])([H])[H])C([H])([H])c2c([H])c(OC([H])([H])C([H])([H])C([H])([H])C([H])([H])N([H])C(=O)C([H])([H])c3c([H])c([H])c(N([H])C(=O)N4C([H])([H])C([H])([H])C([H])([H])C([H])(n5nc(-c6c([H])c([H])c(Oc7c([H])c([H])c(F)c([H])c7F)c([H])c6[H])c(C(=O)N([H])[H])c5N([H])[H])C4([H])[H])c([H])c3[H])c([H])c([H])c2C1([H])[H]

>  <smiles>  (86) 
[H]c1c([H])c([H])c2c(c1[H])C([H])([H])C([H])([H])C([H])([H])C2([H])N([H])C(=O)C1([H])N(C(=O)C([H])(N([H])C(=O)C([H])(N([H])C([H])([H])[H])C([H])([H])[H])C(C([H])([H])[H])(C([H])([H])[H])C([H])([H])[H])C([H])([H])c2c([H])c(OC([H])([H])C([H])([H])C([H])([H])C([H])([H])N([H])C(=O)C([H])([H])c3c([H])c([H])c(N([H])C(=O)N4C([H])([H])C([H])([H])C([H])([H])C([H])(n5nc(-c6c([H])c([H])c(Oc7c([H])c([H])c(F)c([H])c7F)c([H])c6[H])c(C(=O)N([H])[H])c5N([H])[H])C4([H])[H])c([H])c3[H])c([H])c([H])c2C1([H])[H]

$$$$
86:0:0
     RDKit          3D

109118  0  0  1  0  0  0  0  0999 V2000
  -29.0950  -21.8310   20.1130 C   0  0  0  0  0  0  0  0  0  0  0  0
  -29.1170  -23.0600   20.4790 N   0  0  0  0  0  0  0  0  0  0  0  0
  -29.0070  -24.1950   19.5760 C   0  0  0  0  0  2  0  0  0  0  0  0
  -28.6050  -25.4350   20.4040 C   0  0  0  0  0  2  0  0  0  0  0  0
  -28.5990  -26.6410   19.6360 O   0  0  0  0  0  0  0  0  0  0  0  0
  -24.5690  -31.5450   22.8670 C   0  0  0  0  0  0  0  0  0  0  0  0
  -27.4140  -27.3310   19.6620 C   0  0  0  0  0  0  0  0  0  0  0  0
  -23.4450  -30.1930   21.1260 C   0  0  0  0  0  3  0  0  0  0  0  0
  -24.9770  -28.7570   19.6760 C   0  0  0  0  0  0  0  0  0  0  0  0
  -25.9620  -30.6250   21.0190 C   0  0  0  0  0  2  0  0  0  0  0  0
  -26.1030  -29.2890   20.3180 C   0  0  0  0  0  0  0  0  0  0  0  0
  -27.3280  -28.5840   20.3070 C   0  0  0  0  0  3  0  0  0  0  0  0
  -26.2740  -26.8020   19.0240 C   0  0  0  0  0  3  0  0  0  0  0  0
  -25.0560  -27.5090   19.0280 C   0  0  0  0  0  3  0  0  0  0  0  0
  -23.7110  -29.5830   19.7220 C   0  0  0  0  0  2  0  0  0  0  0  0
  -24.6740  -30.8000   21.7300 N   0  0  0  0  0  0  0  0  0  0  0  0
  -23.4670  -31.7690   23.3870 O   0  0  0  0  0  0  0  0  0  0  0  0
  -22.7930  -29.1130   22.0160 C   0  0  0  0  0  0  0  0  0  0  0  0
  -21.4610  -28.9760   21.9080 N   0  0  0  0  0  0  0  0  0  0  0  0
  -23.4800  -28.4030   22.7540 O   0  0  0  0  0  0  0  0  0  0  0  0
  -20.9710  -29.6100   21.2930 H   0  0  0  0  0  0  0  0  0  0  0  0
  -18.0550  -27.9680   22.5500 C   0  0  0  0  0  0  0  0  0  0  0  0
  -20.6360  -27.9930   22.6060 C   0  0  0  0  0  3  0  0  0  0  0  0
  -20.5630  -26.6660   21.8170 C   0  0  0  0  0  2  0  0  0  0  0  0
  -19.3540  -26.5820   20.8810 C   0  0  0  0  0  2  0  0  0  0  0  0
  -18.0520  -26.7270   21.6720 C   0  0  0  0  0  2  0  0  0  0  0  0
  -19.2680  -28.5730   22.9730 C   0  0  0  0  0  0  0  0  0  0  0  0
  -19.2140  -29.7470   23.7530 C   0  0  0  0  0  3  0  0  0  0  0  0
  -17.9810  -30.3180   24.1110 C   0  0  0  0  0  3  0  0  0  0  0  0
  -16.7820  -29.7050   23.7080 C   0  0  0  0  0  3  0  0  0  0  0  0
  -16.8200  -28.5300   22.9360 C   0  0  0  0  0  3  0  0  0  0  0  0
  -25.8240  -32.1700   23.5550 C   0  0  0  0  0  3  0  0  0  0  0  0
  -25.4590  -33.5230   23.9990 N   0  0  0  0  0  0  0  0  0  0  0  0
  -25.7530  -34.6470   23.3340 C   0  0  0  0  0  0  0  0  0  0  0  0
  -26.4370  -34.6570   22.3050 O   0  0  0  0  0  0  0  0  0  0  0  0
  -24.8590  -33.5870   24.8070 H   0  0  0  0  0  0  0  0  0  0  0  0
  -23.9580  -36.3880   23.1020 C   0  0  0  0  0  1  0  0  0  0  0  0
  -25.2020  -35.9700   23.8990 C   0  0  0  0  0  3  0  0  0  0  0  0
  -27.2830  -36.8640   24.8450 C   0  0  0  0  0  1  0  0  0  0  0  0
  -26.1920  -37.0680   23.8970 N   0  0  0  0  0  0  0  0  0  0  0  0
  -25.7470  -37.9560   24.1130 H   0  0  0  0  0  0  0  0  0  0  0  0
  -26.3650  -31.3120   24.7650 C   0  0  1  0  0  0  0  0  0  0  0  0
  -25.2690  -30.9180   25.7820 C   0  0  0  0  0  1  0  0  0  0  0  0
  -27.0340  -30.0140   24.2550 C   0  0  0  0  0  1  0  0  0  0  0  0
  -27.4530  -32.1040   25.5290 C   0  0  0  0  0  1  0  0  0  0  0  0
  -29.1910  -20.7440   21.2190 C   0  0  0  0  0  3  0  0  0  0  0  0
  -29.3480  -21.2480   23.7160 C   0  0  0  0  0  3  0  0  0  0  0  0
  -31.4030  -21.3520   22.4140 C   0  0  0  0  0  3  0  0  0  0  0  0
  -30.0620  -21.6050   24.8760 C   0  0  0  0  0  3  0  0  0  0  0  0
  -32.1160  -21.7150   23.5760 C   0  0  0  0  0  3  0  0  0  0  0  0
  -30.0060  -21.1330   22.4680 C   0  0  0  0  0  0  0  0  0  0  0  0
  -31.4450  -21.8490   24.8050 C   0  0  0  0  0  0  0  0  0  0  0  0
  -32.1280  -22.2110   25.9160 F   0  0  0  0  0  0  0  0  0  0  0  0
  -28.4810  -18.3340   20.8570 C   0  0  0  0  0  3  0  0  0  0  0  0
  -30.8470  -18.8480   20.6140 C   0  0  0  0  0  3  0  0  0  0  0  0
  -28.7690  -16.9620   20.7520 C   0  0  0  0  0  3  0  0  0  0  0  0
  -31.1380  -17.4690   20.5070 C   0  0  0  0  0  3  0  0  0  0  0  0
  -29.5180  -19.2910   20.8320 C   0  0  0  0  0  0  0  0  0  0  0  0
  -30.0970  -16.5160   20.6090 C   0  0  0  0  0  0  0  0  0  0  0  0
  -30.7750  -14.3010   19.6910 C   0  0  0  0  0  0  0  0  0  0  0  0
  -30.3090  -12.2080   18.4660 C   0  0  0  0  0  2  0  0  0  0  0  0
  -29.2170  -12.4670   17.4060 C   0  0  0  0  0  2  0  0  0  0  0  0
  -27.8050  -12.3420   18.0130 C   0  0  0  0  0  2  0  0  0  0  0  0
  -27.6510  -13.1360   19.3370 C   0  0  0  0  0  3  0  0  0  0  0  0
  -28.8270  -12.8150   20.2890 C   0  0  0  0  0  2  0  0  0  0  0  0
  -30.0880  -13.1310   19.5860 N   0  0  0  0  0  0  0  0  0  0  0  0
  -31.7530  -14.5850   18.9910 O   0  0  0  0  0  0  0  0  0  0  0  0
  -30.2860  -15.1100   20.6380 N   0  0  0  0  0  0  0  0  0  0  0  0
  -29.6380  -14.6230   21.2370 H   0  0  0  0  0  0  0  0  0  0  0  0
  -25.3810  -13.7700   20.3820 C   0  0  0  0  0  0  0  0  0  0  0  0
  -24.3390  -13.0040   20.8400 C   0  0  0  0  0  0  0  0  0  0  0  0
  -24.7470  -11.6460   20.6710 C   0  0  0  0  0  0  0  0  0  0  0  0
  -26.3580  -12.8750   19.9680 N   0  0  0  0  0  0  0  0  0  0  0  0
  -25.9850  -11.5910   20.1960 N   0  0  0  0  0  0  0  0  0  0  0  0
  -24.0100  -10.3930   20.8790 C   0  0  0  0  0  0  0  0  0  0  0  0
  -24.4510   -9.4240   21.8080 C   0  0  0  0  0  3  0  0  0  0  0  0
  -23.7160   -8.2350   22.0040 C   0  0  0  0  0  3  0  0  0  0  0  0
  -22.5260   -8.0070   21.2730 C   0  0  0  0  0  0  0  0  0  0  0  0
  -22.1050   -8.9650   20.3330 C   0  0  0  0  0  3  0  0  0  0  0  0
  -22.8390  -10.1460   20.1350 C   0  0  0  0  0  3  0  0  0  0  0  0
  -21.7610   -6.8710   21.3790 O   0  0  0  0  0  0  0  0  0  0  0  0
  -21.6540   -6.1840   22.5610 C   0  0  0  0  0  0  0  0  0  0  0  0
  -21.1320   -6.7840   23.7270 C   0  0  0  0  0  3  0  0  0  0  0  0
  -20.9740   -6.0220   24.9010 C   0  0  0  0  0  3  0  0  0  0  0  0
  -21.3260   -4.6590   24.9100 C   0  0  0  0  0  0  0  0  0  0  0  0
  -21.8390   -4.0560   23.7480 C   0  0  0  0  0  3  0  0  0  0  0  0
  -21.9990   -4.8170   22.5750 C   0  0  0  0  0  0  0  0  0  0  0  0
  -22.4740   -4.2250   21.4530 F   0  0  0  0  0  0  0  0  0  0  0  0
  -21.1660   -3.9240   26.0360 F   0  0  0  0  0  0  0  0  0  0  0  0
  -23.0060  -13.4990   21.3210 C   0  0  0  0  0  0  0  0  0  0  0  0
  -22.3950  -12.7890   22.2650 N   0  0  0  0  0  0  0  0  0  0  0  0
  -22.5210  -14.5440   20.8970 O   0  0  0  0  0  0  0  0  0  0  0  0
  -22.8020  -11.9390   22.6240 H   0  0  0  0  0  0  0  0  0  0  0  0
  -21.5060  -13.0990   22.6310 H   0  0  0  0  0  0  0  0  0  0  0  0
  -25.5710  -15.1440   20.2700 N   0  0  0  0  0  0  0  0  0  0  0  0
  -24.8610  -15.8160   20.5370 H   0  0  0  0  0  0  0  0  0  0  0  0
  -26.4000  -15.5790   19.8840 H   0  0  0  0  0  0  0  0  0  0  0  0
  -28.8990  -21.3500   18.6640 C   0  0  0  0  0  2  0  0  0  0  0  0
  -27.4210  -21.1130   18.2630 C   0  0  0  0  0  2  0  0  0  0  0  0
  -26.5590  -22.3860   18.1880 C   0  0  0  0  0  2  0  0  0  0  0  0
  -25.0420  -22.1040   18.1550 C   0  0  0  0  0  2  0  0  0  0  0  0
  -24.2110  -23.2150   18.8240 C   0  0  0  0  0  2  0  0  0  0  0  0
  -24.4940  -23.3420   20.3340 C   0  0  0  0  0  2  0  0  0  0  0  0
  -24.0780  -24.7000   20.9250 C   0  0  0  0  0  2  0  0  0  0  0  0
  -24.6380  -24.9010   22.3360 C   0  0  0  0  0  0  0  0  0  0  0  0
  -25.5050  -25.8870   22.5300 N   0  0  0  0  0  0  0  0  0  0  0  0
  -24.2890  -24.1690   23.2610 O   0  0  0  0  0  0  0  0  0  0  0  0
  -25.7730  -26.5060   21.7750 H   0  0  0  0  0  0  0  0  0  0  0  0
  -25.8920  -26.0480   23.4460 H   0  0  0  0  0  0  0  0  0  0  0  0
  1  2  2  0
  3  4  1  0
  3  2  1  0
  5  7  1  0
  5  4  1  0
  6 17  2  0
  7 12  1  0
  8 16  1  0
  8 18  1  0
  9 15  1  0
  9 11  1  0
 10 16  1  0
 11 10  1  0
 12 11  2  0
 13 14  1  0
 13  7  2  0
 14  9  2  0
 15  8  1  0
 16  6  1  0
 18 20  2  0
 19 18  1  0
 21 19  1  0
 22 31  2  0
 22 27  1  0
 23 19  1  0
 23 27  1  0
 24 23  1  0
 25 26  1  0
 25 24  1  0
 26 22  1  0
 27 28  2  0
 28 29  1  0
 30 29  2  0
 31 30  1  0
 32  6  1  0
 32 33  1  0
 32 42  1  0
 33 36  1  0
 34 38  1  0
 34 33  1  0
 35 34  2  0
 38 37  1  0
 40 38  1  0
 40 41  1  0
 40 39  1  0
 42 45  1  1
 42 43  1  0
 44 42  1  0
 46  1  1  0
 46 51  1  0
 47 49  1  0
 48 51  1  0
 48 50  2  0
 50 52  1  0
 51 47  2  0
 52 49  2  0
 52 53  1  0
 55 58  2  0
 56 54  2  0
 57 59  2  0
 57 55  1  0
 58 54  1  0
 58 46  1  0
 59 68  1  0
 59 56  1  0
 60 68  1  0
 61 66  1  0
 62 63  1  0
 62 61  1  0
 64 63  1  0
 64 73  1  0
 64 65  1  0
 66 60  1  0
 66 65  1  0
 67 60  2  0
 68 69  1  0
 70 71  2  0
 71 90  1  0
 72 71  1  0
 72 75  1  0
 73 74  1  0
 73 70  1  0
 74 72  2  0
 75 76  1  0
 76 77  2  0
 78 81  1  0
 78 77  1  0
 79 78  2  0
 80 79  1  0
 80 75  2  0
 81 82  1  0
 82 87  2  0
 82 83  1  0
 83 84  2  0
 84 85  1  0
 85 89  1  0
 86 85  2  0
 87 86  1  0
 88 87  1  0
 90 91  1  0
 91 93  1  0
 91 94  1  0
 92 90  2  0
 95 70  1  0
 95 96  1  0
 97 95  1  0
 98  1  1  0
 99 98  1  0
100 99  1  0
101100  1  0
101102  1  0
102103  1  0
103104  1  0
104105  1  0
105106  1  0
105107  2  0
106109  1  0
108106  1  0
M  ISO  4   4 101   5 101  60 100  68 100
M  END
>  <TORSDO>  (87) 
F 29

>  <SCORE>  (87) 
-10.038

>  <name>  (87) 
86

>  <ligand_id>  (87) 
86

>  <original_smiles>  (87) 
[H]c1c([H])c([H])c2c(c1[H])C([H])([H])C([H])([H])C([H])([H])C2([H])N([H])C(=O)C1([H])N(C(=O)C([H])(N([H])C(=O)C([H])(N([H])C([H])([H])[H])C([H])([H])[H])C(C([H])([H])[H])(C([H])([H])[H])C([H])([H])[H])C([H])([H])c2c([H])c(OC([H])([H])C([H])([H])N=C(C([H])(c3c([H])c([H])c(F)c([H])c3[H])c3c([H])c([H])c(N([H])C(=O)N4C([H])([H])C([H])([H])C([H])([H])C([H])(n5nc(-c6c([H])c([H])c(Oc7c([H])c([H])c(F)c([H])c7F)c([H])c6[H])c(C(=O)N([H])[H])c5N([H])[H])C4([H])[H])c([H])c3[H])C([H])([H])C([H])([H])C([H])([H])C([H])([H])C([H])([H])C([H])([H])C([H])([H])C(=O)N([H])[H])c([H])c([H])c2C1([H])[H]

>  <smiles>  (87) 
[H]c1c([H])c([H])c2c(c1[H])C([H])([H])C([H])([H])C([H])([H])C2([H])N([H])C(=O)C1([H])N(C(=O)C([H])(N([H])C(=O)C([H])(N([H])C([H])([H])[H])C([H])([H])[H])C(C([H])([H])[H])(C([H])([H])[H])C([H])([H])[H])C([H])([H])c2c([H])c(OC([H])([H])C([H])([H])N=C(C([H])(c3c([H])c([H])c(F)c([H])c3[H])c3c([H])c([H])c(N([H])C(=O)N4C([H])([H])C([H])([H])C([H])([H])C([H])(n5nc(-c6c([H])c([H])c(Oc7c([H])c([H])c(F)c([H])c7F)c([H])c6[H])c(C(=O)N([H])[H])c5N([H])[H])C4([H])[H])c([H])c3[H])C([H])([H])C([H])([H])C([H])([H])C([H])([H])C([H])([H])C([H])([H])C([H])([H])C(=O)N([H])[H])c([H])c([H])c2C1([H])[H]

$$$$
87:0:0
     RDKit          3D

101109  0  0  1  0  0  0  0  0999 V2000
  -30.1940  -25.2120   24.2740 C   0  0  0  0  0  1  0  0  0  0  0  0
  -29.0610  -25.3650   23.2480 C   0  0  0  0  0  3  0  0  0  0  0  0
  -28.8360  -26.8350   22.8600 C   0  0  0  0  0  2  0  0  0  0  0  0
  -27.8790  -26.9920   21.6630 C   0  0  0  0  0  2  0  0  0  0  0  0
  -26.5120  -27.6010   22.0350 C   0  0  0  0  0  2  0  0  0  0  0  0
  -26.6270  -29.7020   20.7020 C   0  0  0  0  0  0  0  0  0  0  0  0
  -26.4750  -29.0500   21.8620 N   0  0  0  0  0  0  0  0  0  0  0  0
  -26.7890  -29.1190   19.6270 O   0  0  0  0  0  0  0  0  0  0  0  0
  -26.3250  -29.6110   22.6910 H   0  0  0  0  0  0  0  0  0  0  0  0
  -26.6000  -31.2370   20.7570 C   0  0  0  0  0  2  0  0  0  0  0  0
  -25.2650  -31.7020   20.9610 O   0  0  0  0  0  0  0  0  0  0  0  0
  -23.9030  -27.4390   26.5430 C   0  0  0  0  0  0  0  0  0  0  0  0
  -24.3870  -30.9300   21.6890 C   0  0  0  0  0  0  0  0  0  0  0  0
  -22.1490  -27.5510   24.7970 C   0  0  0  0  0  3  0  0  0  0  0  0
  -22.4490  -29.3840   23.0480 C   0  0  0  0  0  0  0  0  0  0  0  0
  -23.7200  -29.5220   25.1980 C   0  0  0  0  0  2  0  0  0  0  0  0
  -23.5780  -29.8510   23.7290 C   0  0  0  0  0  0  0  0  0  0  0  0
  -24.5540  -30.6140   23.0590 C   0  0  0  0  0  3  0  0  0  0  0  0
  -23.2410  -30.4610   21.0160 C   0  0  0  0  0  3  0  0  0  0  0  0
  -22.2750  -29.6820   21.6830 C   0  0  0  0  0  3  0  0  0  0  0  0
  -21.4580  -28.5710   23.8490 C   0  0  0  0  0  2  0  0  0  0  0  0
  -23.3070  -28.1440   25.5410 N   0  0  0  0  0  0  0  0  0  0  0  0
  -23.4740  -26.3300   26.8850 O   0  0  0  0  0  0  0  0  0  0  0  0
  -22.5260  -26.2990   23.9750 C   0  0  0  0  0  0  0  0  0  0  0  0
  -21.6150  -25.8710   23.0900 N   0  0  0  0  0  0  0  0  0  0  0  0
  -23.6250  -25.7560   24.1180 O   0  0  0  0  0  0  0  0  0  0  0  0
  -20.7360  -26.3660   23.0400 H   0  0  0  0  0  0  0  0  0  0  0  0
  -20.3780  -24.4280   20.0200 C   0  0  0  0  0  0  0  0  0  0  0  0
  -21.7640  -24.7380   22.1780 C   0  0  0  0  0  3  0  0  0  0  0  0
  -22.9820  -24.9320   21.2470 C   0  0  0  0  0  2  0  0  0  0  0  0
  -22.6230  -25.5910   19.9120 C   0  0  0  0  0  2  0  0  0  0  0  0
  -21.5890  -24.7480   19.1600 C   0  0  0  0  0  2  0  0  0  0  0  0
  -20.4570  -24.4400   21.4380 C   0  0  0  0  0  0  0  0  0  0  0  0
  -19.2940  -24.1720   22.1920 C   0  0  0  0  0  3  0  0  0  0  0  0
  -18.0710  -23.8920   21.5550 C   0  0  0  0  0  3  0  0  0  0  0  0
  -18.0020  -23.8660   20.1510 C   0  0  0  0  0  3  0  0  0  0  0  0
  -19.1520  -24.1290   19.3870 C   0  0  0  0  0  3  0  0  0  0  0  0
  -25.1350  -28.0020   27.3210 C   0  0  0  0  0  3  0  0  0  0  0  0
  -26.4600  -28.0070   26.4650 C   0  0  1  0  0  0  0  0  0  0  0  0
  -26.8490  -26.6170   25.9110 C   0  0  0  0  0  1  0  0  0  0  0  0
  -26.3290  -28.9780   25.2670 C   0  0  0  0  0  1  0  0  0  0  0  0
  -27.6380  -28.5200   27.3260 C   0  0  0  0  0  1  0  0  0  0  0  0
  -25.3000  -27.1900   28.5340 N   0  0  0  0  0  0  0  0  0  0  0  0
  -25.3500  -27.6830   29.7780 C   0  0  0  0  0  0  0  0  0  0  0  0
  -25.3350  -28.8930   30.0200 O   0  0  0  0  0  0  0  0  0  0  0  0
  -25.2610  -26.1880   28.4160 H   0  0  0  0  0  0  0  0  0  0  0  0
  -24.0710  -26.6150   31.6620 C   0  0  0  0  0  1  0  0  0  0  0  0
  -25.4270  -26.6730   30.9390 C   0  0  0  0  0  3  0  0  0  0  0  0
  -27.8400  -26.7450   31.3850 C   0  0  0  0  0  1  0  0  0  0  0  0
  -26.4980  -26.9750   31.9120 N   0  0  0  0  0  0  0  0  0  0  0  0
  -26.3870  -26.4150   32.7540 H   0  0  0  0  0  0  0  0  0  0  0  0
  -29.3800  -24.6640   22.0550 O   0  0  0  0  0  0  0  0  0  0  0  0
  -28.7820  -23.3740   21.9630 C   0  0  0  0  0  2  0  0  0  0  0  0
  -29.2330  -22.6760   20.6780 C   0  0  0  0  0  0  0  0  0  0  0  0
  -29.5240  -23.3080   19.6550 O   0  0  0  0  0  0  0  0  0  0  0  0
  -29.2490  -21.3320   20.8060 O   0  0  0  0  0  0  0  0  0  0  0  0
  -32.2880  -19.2750   20.3200 C   0  0  0  0  0  3  0  0  0  0  0  0
  -31.2820  -20.0330   20.9500 C   0  0  0  0  0  3  0  0  0  0  0  0
  -30.1860  -20.3810   18.8030 C   0  0  0  0  0  3  0  0  0  0  0  0
  -32.2500  -19.0710   18.9180 C   0  0  0  0  0  0  0  0  0  0  0  0
  -30.2390  -20.6060   20.1920 C   0  0  0  0  0  0  0  0  0  0  0  0
  -31.1900  -19.6240   18.1710 C   0  0  0  0  0  0  0  0  0  0  0  0
  -31.1410  -19.4200   16.8310 F   0  0  0  0  0  0  0  0  0  0  0  0
  -33.9690  -17.2770   18.5090 C   0  0  0  0  0  0  0  0  0  0  0  0
  -35.5160  -15.5600   17.6370 C   0  0  0  0  0  2  0  0  0  0  0  0
  -36.9900  -15.9890   17.7510 C   0  0  0  0  0  2  0  0  0  0  0  0
  -37.4140  -16.8300   16.5330 C   0  0  0  0  0  2  0  0  0  0  0  0
  -36.4160  -17.9760   16.2250 C   0  0  0  0  0  3  0  0  0  0  0  0
  -34.9670  -17.4420   16.1950 C   0  0  0  0  0  2  0  0  0  0  0  0
  -34.6880  -16.7650   17.4770 N   0  0  0  0  0  0  0  0  0  0  0  0
  -33.9790  -16.7830   19.6400 O   0  0  0  0  0  0  0  0  0  0  0  0
  -33.2050  -18.3270   18.1730 N   0  0  0  0  0  0  0  0  0  0  0  0
  -33.2980  -18.6230   17.2130 H   0  0  0  0  0  0  0  0  0  0  0  0
  -36.9900  -20.0160   14.7570 C   0  0  0  0  0  0  0  0  0  0  0  0
  -37.3480  -20.1210   13.4400 C   0  0  0  0  0  0  0  0  0  0  0  0
  -37.3300  -18.7910   12.9190 C   0  0  0  0  0  0  0  0  0  0  0  0
  -36.7640  -18.6660   14.9830 N   0  0  0  0  0  0  0  0  0  0  0  0
  -36.9240  -17.9370   13.8490 N   0  0  0  0  0  0  0  0  0  0  0  0
  -37.7310  -18.2730   11.6040 C   0  0  0  0  0  0  0  0  0  0  0  0
  -36.8210  -17.5870   10.7710 C   0  0  0  0  0  3  0  0  0  0  0  0
  -37.2250  -17.1150    9.5030 C   0  0  0  0  0  3  0  0  0  0  0  0
  -38.5510  -17.3300    9.0560 C   0  0  0  0  0  0  0  0  0  0  0  0
  -39.4600  -17.9940    9.9000 C   0  0  0  0  0  3  0  0  0  0  0  0
  -39.0570  -18.4580   11.1630 C   0  0  0  0  0  3  0  0  0  0  0  0
  -39.0400  -16.8850    7.8520 O   0  0  0  0  0  0  0  0  0  0  0  0
  -38.2160  -16.6630    6.7790 C   0  0  0  0  0  0  0  0  0  0  0  0
  -37.5580  -17.7190    6.1130 C   0  0  0  0  0  3  0  0  0  0  0  0
  -36.7760  -17.4530    4.9710 C   0  0  0  0  0  3  0  0  0  0  0  0
  -36.6570  -16.1370    4.4890 C   0  0  0  0  0  0  0  0  0  0  0  0
  -37.3160  -15.0830    5.1460 C   0  0  0  0  0  3  0  0  0  0  0  0
  -38.0960  -15.3460    6.2870 C   0  0  0  0  0  0  0  0  0  0  0  0
  -38.7460  -14.3310    6.9050 F   0  0  0  0  0  0  0  0  0  0  0  0
  -35.9120  -15.8820    3.3880 F   0  0  0  0  0  0  0  0  0  0  0  0
  -37.7780  -21.3700   12.7260 C   0  0  0  0  0  0  0  0  0  0  0  0
  -37.3320  -21.5530   11.4880 N   0  0  0  0  0  0  0  0  0  0  0  0
  -38.4740  -22.2180   13.2830 O   0  0  0  0  0  0  0  0  0  0  0  0
  -36.7430  -20.8680   11.0370 H   0  0  0  0  0  0  0  0  0  0  0  0
  -37.5830  -22.3910   10.9830 H   0  0  0  0  0  0  0  0  0  0  0  0
  -36.8540  -20.9470   15.7830 N   0  0  0  0  0  0  0  0  0  0  0  0
  -37.0550  -21.9320   15.6530 H   0  0  0  0  0  0  0  0  0  0  0  0
  -36.6020  -20.7170   16.7360 H   0  0  0  0  0  0  0  0  0  0  0  0
  2  1  1  0
  3  2  1  0
  4  5  1  0
  4  3  1  0
  6 10  1  0
  6  7  1  0
  7  5  1  0
  7  9  1  0
  8  6  2  0
 10 11  1  0
 11 13  1  0
 12 23  2  0
 13 18  1  0
 14 24  1  0
 14 22  1  0
 15 17  1  0
 15 21  1  0
 16 22  1  0
 17 16  1  0
 18 17  2  0
 19 20  1  0
 19 13  2  0
 20 15  2  0
 21 14  1  0
 22 12  1  0
 24 26  2  0
 25 24  1  0
 27 25  1  0
 28 33  1  0
 29 25  1  0
 30 29  1  0
 31 30  1  0
 32 31  1  0
 32 28  1  0
 33 29  1  0
 33 34  2  0
 35 34  1  0
 36 35  2  0
 37 28  2  0
 37 36  1  0
 38 12  1  0
 38 43  1  0
 39 38  1  0
 39 42  1  1
 40 39  1  0
 41 39  1  0
 43 44  1  0
 44 45  2  0
 44 48  1  0
 46 43  1  0
 48 47  1  0
 48 50  1  0
 49 50  1  0
 50 51  1  0
 52  2  1  0
 53 52  1  0
 54 56  1  0
 54 53  1  0
 55 54  2  0
 57 58  1  0
 59 61  1  0
 60 57  2  0
 61 56  1  0
 61 58  2  0
 62 59  2  0
 62 60  1  0
 63 62  1  0
 64 71  2  0
 65 66  1  0
 67 66  1  0
 68 77  1  0
 68 67  1  0
 69 68  1  0
 69 70  1  0
 70 65  1  0
 70 64  1  0
 72 64  1  0
 72 60  1  0
 73 72  1  0
 74 77  1  0
 74 99  1  0
 75 74  2  0
 76 75  1  0
 76 78  2  0
 78 77  1  0
 79 76  1  0
 80 79  2  0
 81 80  1  0
 82 81  2  0
 82 83  1  0
 83 84  2  0
 84 79  1  0
 85 82  1  0
 86 85  1  0
 87 86  2  0
 88 87  1  0
 89 88  2  0
 89 90  1  0
 90 91  2  0
 91 86  1  0
 91 92  1  0
 93 89  1  0
 94 96  2  0
 94 75  1  0
 95 94  1  0
 97 95  1  0
 98 95  1  0
 99101  1  0
100 99  1  0
M  ISO  4  10 101  11 101  64 100  72 100
M  END
>  <TORSDO>  (88) 
F 26

>  <SCORE>  (88) 
0.916

>  <name>  (88) 
87

>  <ligand_id>  (88) 
87

>  <original_smiles>  (88) 
[H]c1c([H])c([H])c2c(c1[H])C([H])([H])C([H])([H])C([H])([H])C2([H])N([H])C(=O)C1([H])N(C(=O)C([H])(N([H])C(=O)C([H])(N([H])C([H])([H])[H])C([H])([H])[H])C(C([H])([H])[H])(C([H])([H])[H])C([H])([H])[H])C([H])([H])c2c([H])c(OC([H])([H])C(=O)N([H])C([H])([H])C([H])([H])C([H])([H])C([H])(OC([H])([H])C(=O)Oc3c([H])c([H])c(N([H])C(=O)N4C([H])([H])C([H])([H])C([H])([H])C([H])(n5nc(-c6c([H])c([H])c(Oc7c([H])c([H])c(F)c([H])c7F)c([H])c6[H])c(C(=O)N([H])[H])c5N([H])[H])C4([H])[H])c(F)c3[H])C([H])([H])[H])c([H])c([H])c2C1([H])[H]

>  <smiles>  (88) 
[H]c1c([H])c([H])c2c(c1[H])C([H])([H])C([H])([H])C([H])([H])C2([H])N([H])C(=O)C1([H])N(C(=O)C([H])(N([H])C(=O)C([H])(N([H])C([H])([H])[H])C([H])([H])[H])C(C([H])([H])[H])(C([H])([H])[H])C([H])([H])[H])C([H])([H])c2c([H])c(OC([H])([H])C(=O)N([H])C([H])([H])C([H])([H])C([H])([H])C([H])(OC([H])([H])C(=O)Oc3c([H])c([H])c(N([H])C(=O)N4C([H])([H])C([H])([H])C([H])([H])C([H])(n5nc(-c6c([H])c([H])c(Oc7c([H])c([H])c(F)c([H])c7F)c([H])c6[H])c(C(=O)N([H])[H])c5N([H])[H])C4([H])[H])c(F)c3[H])C([H])([H])[H])c([H])c([H])c2C1([H])[H]

$$$$
88:0:0
     RDKit          3D

 97105  0  0  1  0  0  0  0  0999 V2000
  -30.8690  -19.5080   18.9700 C   0  0  0  0  0  3  0  0  0  0  0  0
  -31.2220  -17.1240   18.7950 C   0  0  0  0  0  3  0  0  0  0  0  0
  -31.5150  -18.4280   18.3410 C   0  0  0  0  0  0  0  0  0  0  0  0
  -29.6870  -17.9950   20.4900 C   0  0  0  0  0  0  0  0  0  0  0  0
  -29.9360  -19.3200   20.0150 C   0  0  0  0  0  0  0  0  0  0  0  0
  -30.3460  -16.8830   19.8860 C   0  0  0  0  0  0  0  0  0  0  0  0
  -28.7140  -17.7410   21.6350 C   0  0  0  0  0  1  0  0  0  0  0  0
  -30.7850  -14.4230   20.0380 C   0  0  0  0  0  0  0  0  0  0  0  0
  -30.3410  -12.3060   18.8880 C   0  0  0  0  0  2  0  0  0  0  0  0
  -29.3390  -12.5990   17.7520 C   0  0  0  0  0  2  0  0  0  0  0  0
  -27.8910  -12.4820   18.2690 C   0  0  0  0  0  2  0  0  0  0  0  0
  -27.6550  -13.2710   19.5870 C   0  0  0  0  0  3  0  0  0  0  0  0
  -28.7780  -13.0040   20.6160 C   0  0  0  0  0  2  0  0  0  0  0  0
  -30.0660  -13.2720   19.9620 N   0  0  0  0  0  0  0  0  0  0  0  0
  -31.9550  -14.4870   19.6580 O   0  0  0  0  0  0  0  0  0  0  0  0
  -30.0820  -15.5380   20.3400 N   0  0  0  0  0  0  0  0  0  0  0  0
  -29.1900  -15.3820   20.7830 H   0  0  0  0  0  0  0  0  0  0  0  0
  -25.3150  -13.8820   20.4600 C   0  0  0  0  0  0  0  0  0  0  0  0
  -24.2630  -13.1120   20.8770 C   0  0  0  0  0  0  0  0  0  0  0  0
  -24.7040  -11.7560   20.7850 C   0  0  0  0  0  0  0  0  0  0  0  0
  -26.3320  -12.9960   20.1450 N   0  0  0  0  0  0  0  0  0  0  0  0
  -25.9730  -11.7110   20.3990 N   0  0  0  0  0  0  0  0  0  0  0  0
  -23.9750  -10.4970   20.9860 C   0  0  0  0  0  0  0  0  0  0  0  0
  -24.4310   -9.5170   21.8960 C   0  0  0  0  0  3  0  0  0  0  0  0
  -23.7020   -8.3240   22.0860 C   0  0  0  0  0  3  0  0  0  0  0  0
  -22.5030   -8.1010   21.3680 C   0  0  0  0  0  0  0  0  0  0  0  0
  -22.0670   -9.0710   20.4470 C   0  0  0  0  0  3  0  0  0  0  0  0
  -22.7960  -10.2550   20.2540 C   0  0  0  0  0  3  0  0  0  0  0  0
  -21.7430   -6.9610   21.4700 O   0  0  0  0  0  0  0  0  0  0  0  0
  -21.7030   -6.2240   22.6250 C   0  0  0  0  0  0  0  0  0  0  0  0
  -21.2740   -6.7790   23.8500 C   0  0  0  0  0  3  0  0  0  0  0  0
  -21.1830   -5.9670   24.9980 C   0  0  0  0  0  3  0  0  0  0  0  0
  -21.5100   -4.6000   24.9220 C   0  0  0  0  0  0  0  0  0  0  0  0
  -21.9320   -4.0440   23.7020 C   0  0  0  0  0  3  0  0  0  0  0  0
  -22.0250   -4.8530   22.5560 C   0  0  0  0  0  0  0  0  0  0  0  0
  -22.4120   -4.3080   21.3790 F   0  0  0  0  0  0  0  0  0  0  0  0
  -21.4140   -3.8180   26.0220 F   0  0  0  0  0  0  0  0  0  0  0  0
  -22.8900  -13.5970   21.2440 C   0  0  0  0  0  0  0  0  0  0  0  0
  -22.2060  -12.8860   22.1340 N   0  0  0  0  0  0  0  0  0  0  0  0
  -22.4340  -14.6410   20.7780 O   0  0  0  0  0  0  0  0  0  0  0  0
  -22.5870  -12.0410   22.5320 H   0  0  0  0  0  0  0  0  0  0  0  0
  -21.2880  -13.1930   22.4220 H   0  0  0  0  0  0  0  0  0  0  0  0
  -25.4840  -15.2550   20.3050 N   0  0  0  0  0  0  0  0  0  0  0  0
  -24.7240  -15.9080   20.4670 H   0  0  0  0  0  0  0  0  0  0  0  0
  -26.2970  -15.6910   19.8910 H   0  0  0  0  0  0  0  0  0  0  0  0
  -28.9450  -21.6120   19.9870 C   0  0  0  0  0  0  0  0  0  0  0  0
  -29.3290  -20.4750   20.6130 N   0  0  0  0  0  0  0  0  0  0  0  0
  -28.8530  -21.7050   18.7610 O   0  0  0  0  0  0  0  0  0  0  0  0
  -29.2040  -20.4510   21.6150 H   0  0  0  0  0  0  0  0  0  0  0  0
  -28.5720  -22.8240   20.8590 C   0  0  0  0  0  2  0  0  0  0  0  0
  -28.6290  -24.1800   20.0990 C   0  0  0  0  0  2  0  0  0  0  0  0
  -28.3550  -25.4030   20.9980 C   0  0  0  0  0  2  0  0  0  0  0  0
  -28.4720  -26.6440   20.2850 O   0  0  0  0  0  0  0  0  0  0  0  0
  -24.5390  -31.8180   23.1700 C   0  0  0  0  0  0  0  0  0  0  0  0
  -27.3120  -27.3800   20.2240 C   0  0  0  0  0  0  0  0  0  0  0  0
  -23.3970  -30.3980   21.4960 C   0  0  0  0  0  3  0  0  0  0  0  0
  -24.9100  -28.8610   20.1320 C   0  0  0  0  0  0  0  0  0  0  0  0
  -25.9250  -30.7760   21.3820 C   0  0  0  0  0  2  0  0  0  0  0  0
  -26.0430  -29.4030   20.7530 C   0  0  0  0  0  0  0  0  0  0  0  0
  -27.2510  -28.6700   20.7910 C   0  0  0  0  0  3  0  0  0  0  0  0
  -26.1670  -26.8470   19.5960 C   0  0  0  0  0  3  0  0  0  0  0  0
  -24.9670  -27.5820   19.5470 C   0  0  0  0  0  3  0  0  0  0  0  0
  -23.6580  -29.7100   20.1280 C   0  0  0  0  0  2  0  0  0  0  0  0
  -24.6360  -31.0120   22.0750 N   0  0  0  0  0  0  0  0  0  0  0  0
  -23.4390  -32.0880   23.6720 O   0  0  0  0  0  0  0  0  0  0  0  0
  -22.7190  -29.3800   22.4400 C   0  0  0  0  0  0  0  0  0  0  0  0
  -21.3960  -29.2150   22.2880 N   0  0  0  0  0  0  0  0  0  0  0  0
  -23.3820  -28.7420   23.2620 O   0  0  0  0  0  0  0  0  0  0  0  0
  -20.9240  -29.7760   21.5920 H   0  0  0  0  0  0  0  0  0  0  0  0
  -17.9920  -28.0950   22.7540 C   0  0  0  0  0  0  0  0  0  0  0  0
  -20.5540  -28.2830   23.0380 C   0  0  0  0  0  3  0  0  0  0  0  0
  -20.6250  -26.8620   22.4340 C   0  0  0  0  0  2  0  0  0  0  0  0
  -19.5180  -26.5860   21.4120 C   0  0  0  0  0  2  0  0  0  0  0  0
  -18.1380  -26.7540   22.0540 C   0  0  0  0  0  2  0  0  0  0  0  0
  -19.1280  -28.8200   23.2030 C   0  0  0  0  0  0  0  0  0  0  0  0
  -18.9410  -30.0770   23.8170 C   0  0  0  0  0  3  0  0  0  0  0  0
  -17.6500  -30.6100   23.9880 C   0  0  0  0  0  3  0  0  0  0  0  0
  -16.5270  -29.8810   23.5590 C   0  0  0  0  0  3  0  0  0  0  0  0
  -16.6990  -28.6250   22.9480 C   0  0  0  0  0  3  0  0  0  0  0  0
  -25.8010  -32.4580   23.8290 C   0  0  0  0  0  3  0  0  0  0  0  0
  -25.4710  -33.8520   24.1550 N   0  0  0  0  0  0  0  0  0  0  0  0
  -25.8050  -34.9070   23.4000 C   0  0  0  0  0  0  0  0  0  0  0  0
  -26.4950  -34.8120   22.3810 O   0  0  0  0  0  0  0  0  0  0  0  0
  -24.8620  -34.0000   24.9460 H   0  0  0  0  0  0  0  0  0  0  0  0
  -24.0570  -36.6750   23.0150 C   0  0  0  0  0  1  0  0  0  0  0  0
  -25.2910  -36.2900   23.8470 C   0  0  0  0  0  3  0  0  0  0  0  0
  -27.3970  -37.2070   24.7140 C   0  0  0  0  0  1  0  0  0  0  0  0
  -26.3110  -37.3560   23.7490 N   0  0  0  0  0  0  0  0  0  0  0  0
  -25.8890  -38.2720   23.8850 H   0  0  0  0  0  0  0  0  0  0  0  0
  -26.2910  -31.6840   25.1150 C   0  0  1  0  0  0  0  0  0  0  0  0
  -25.1710  -31.4260   26.1480 C   0  0  0  0  0  1  0  0  0  0  0  0
  -26.9030  -30.3170   24.7290 C   0  0  0  0  0  1  0  0  0  0  0  0
  -27.4110  -32.4900   25.8150 C   0  0  0  0  0  1  0  0  0  0  0  0
  -33.6550  -19.6000   17.7180 C   0  0  0  0  0  1  0  0  0  0  0  0
  -31.7870  -19.4260   16.0440 C   0  0  0  0  0  1  0  0  0  0  0  0
  -33.1540  -17.4240   16.6260 C   0  0  0  0  0  1  0  0  0  0  0  0
  -32.5110  -18.7060   17.1990 C   0  0  2  0  0  0  0  0  0  0  0  0
  1  5  1  0
  2  6  2  0
  3  2  1  0
  3  1  2  0
  4  7  1  0
  5  4  2  0
  5 47  1  0
  6 16  1  0
  6  4  1  0
  8 16  1  0
  9 14  1  0
 10 11  1  0
 10  9  1  0
 12 11  1  0
 12 21  1  0
 12 13  1  0
 14  8  1  0
 14 13  1  0
 15  8  2  0
 16 17  1  0
 18 19  2  0
 19 38  1  0
 20 19  1  0
 20 23  1  0
 21 22  1  0
 21 18  1  0
 22 20  2  0
 23 24  1  0
 24 25  2  0
 26 29  1  0
 26 25  1  0
 27 26  2  0
 28 27  1  0
 28 23  2  0
 29 30  1  0
 30 31  1  0
 31 32  2  0
 33 32  1  0
 33 37  1  0
 34 33  2  0
 35 30  2  0
 35 34  1  0
 36 35  1  0
 38 39  1  0
 39 42  1  0
 39 41  1  0
 40 38  2  0
 43 18  1  0
 43 44  1  0
 45 43  1  0
 46 47  1  0
 46 50  1  0
 47 49  1  0
 48 46  2  0
 51 50  1  0
 51 52  1  0
 53 52  1  0
 54 65  2  0
 55 53  1  0
 55 60  1  0
 56 64  1  0
 56 66  1  0
 57 59  1  0
 58 64  1  0
 59 60  2  0
 59 58  1  0
 61 55  2  0
 62 61  1  0
 62 57  2  0
 63 57  1  0
 63 56  1  0
 64 54  1  0
 66 68  2  0
 67 66  1  0
 69 67  1  0
 70 79  2  0
 70 75  1  0
 71 67  1  0
 71 75  1  0
 72 71  1  0
 73 74  1  0
 73 72  1  0
 74 70  1  0
 75 76  2  0
 76 77  1  0
 78 77  2  0
 79 78  1  0
 80 54  1  0
 80 81  1  0
 80 90  1  0
 81 84  1  0
 82 86  1  0
 82 81  1  0
 83 82  2  0
 86 85  1  0
 88 86  1  0
 88 89  1  0
 88 87  1  0
 90 93  1  1
 90 91  1  0
 92 90  1  0
 97 95  1  6
 96 97  1  0
 97 94  1  0
 97  3  1  0
M  ISO  4   8 100  16 100  52 101  53 101
M  END
>  <TORSDO>  (89) 
F 21

>  <SCORE>  (89) 
-12.485

>  <name>  (89) 
88

>  <ligand_id>  (89) 
88

>  <original_smiles>  (89) 
[H]c1c([H])c([H])c2c(c1[H])C([H])([H])C([H])([H])C([H])([H])C2([H])N([H])C(=O)C1([H])N(C(=O)C([H])(N([H])C(=O)C([H])(N([H])C([H])([H])[H])C([H])([H])[H])C(C([H])([H])[H])(C([H])([H])[H])C([H])([H])[H])C([H])([H])c2c([H])c(OC([H])([H])C([H])([H])C([H])([H])C(=O)N([H])c3c([H])c(C(C([H])([H])[H])(C([H])([H])[H])C([H])([H])[H])c([H])c(N([H])C(=O)N4C([H])([H])C([H])([H])C([H])([H])C([H])(n5nc(-c6c([H])c([H])c(Oc7c([H])c([H])c(F)c([H])c7F)c([H])c6[H])c(C(=O)N([H])[H])c5N([H])[H])C4([H])[H])c3C([H])([H])[H])c([H])c([H])c2C1([H])[H]

>  <smiles>  (89) 
[H]c1c([H])c([H])c2c(c1[H])C([H])([H])C([H])([H])C([H])([H])C2([H])N([H])C(=O)C1([H])N(C(=O)C([H])(N([H])C(=O)C([H])(N([H])C([H])([H])[H])C([H])([H])[H])C(C([H])([H])[H])(C([H])([H])[H])C([H])([H])[H])C([H])([H])c2c([H])c(OC([H])([H])C([H])([H])C([H])([H])C(=O)N([H])c3c([H])c(C(C([H])([H])[H])(C([H])([H])[H])C([H])([H])[H])c([H])c(N([H])C(=O)N4C([H])([H])C([H])([H])C([H])([H])C([H])(n5nc(-c6c([H])c([H])c(Oc7c([H])c([H])c(F)c([H])c7F)c([H])c6[H])c(C(=O)N([H])[H])c5N([H])[H])C4([H])[H])c3C([H])([H])[H])c([H])c([H])c2C1([H])[H]

$$$$
89:0:0
     RDKit          3D

116124  0  0  1  0  0  0  0  0999 V2000
  -28.3930  -18.6820    7.8090 C   0  0  0  0  0  2  0  0  0  0  0  0
  -29.8970  -18.4990    7.5170 C   0  0  0  0  0  2  0  0  0  0  0  0
  -30.8130  -18.4550    8.7580 C   0  0  0  0  0  2  0  0  0  0  0  0
  -30.6380  -19.6620    9.6940 C   0  0  0  0  0  2  0  0  0  0  0  0
  -31.5030  -19.5970   10.9600 C   0  0  0  0  0  2  0  0  0  0  0  0
  -31.2030  -20.7860   11.8820 C   0  0  0  0  0  2  0  0  0  0  0  0
  -31.9700  -20.7490   13.2090 C   0  0  0  0  0  2  0  0  0  0  0  0
  -31.5740  -21.9330   14.1010 C   0  0  0  0  0  2  0  0  0  0  0  0
  -32.1960  -21.8760   15.5030 C   0  0  0  0  0  2  0  0  0  0  0  0
  -31.7010  -23.0380   16.3730 C   0  0  0  0  0  2  0  0  0  0  0  0
  -32.1930  -22.9610   17.8340 C   0  0  0  0  0  2  0  0  0  0  0  0
  -32.5710  -24.1910   19.9230 C   0  0  0  0  0  1  0  0  0  0  0  0
  -31.8050  -24.1420   18.6530 N   0  0  2  0  0  4  0  0  0  0  0  0
  -32.0970  -24.9490   18.1220 H   0  0  0  0  0  0  0  0  0  0  0  0
  -30.3360  -24.2650   18.8750 C   0  0  0  0  0  2  0  0  0  0  0  0
  -29.9130  -25.6570   19.3620 C   0  0  0  0  0  2  0  0  0  0  0  0
  -28.3990  -25.8940   19.2780 C   0  0  0  0  0  2  0  0  0  0  0  0
  -28.1930  -27.1450   19.9070 O   0  0  0  0  0  0  0  0  0  0  0  0
  -24.1770  -32.0620   22.9820 C   0  0  0  0  0  0  0  0  0  0  0  0
  -26.9560  -27.7400   19.8890 C   0  0  0  0  0  0  0  0  0  0  0  0
  -23.0070  -30.6360   21.3300 C   0  0  0  0  0  3  0  0  0  0  0  0
  -24.5040  -29.1390   19.9050 C   0  0  0  0  0  0  0  0  0  0  0  0
  -25.5170  -31.0710   21.1350 C   0  0  0  0  0  2  0  0  0  0  0  0
  -25.6380  -29.7050   20.4970 C   0  0  0  0  0  0  0  0  0  0  0  0
  -26.8610  -29.0070   20.4920 C   0  0  0  0  0  3  0  0  0  0  0  0
  -25.8030  -27.1670   19.3020 C   0  0  0  0  0  3  0  0  0  0  0  0
  -24.5780  -27.8660   19.3090 C   0  0  0  0  0  3  0  0  0  0  0  0
  -23.2350  -29.9610   19.9490 C   0  0  0  0  0  2  0  0  0  0  0  0
  -24.2510  -31.2720   21.8750 N   0  0  0  0  0  0  0  0  0  0  0  0
  -23.0890  -32.3050   23.5220 O   0  0  0  0  0  0  0  0  0  0  0  0
  -22.3830  -29.5960   22.2850 C   0  0  0  0  0  0  0  0  0  0  0  0
  -21.0630  -29.3860   22.1570 N   0  0  0  0  0  0  0  0  0  0  0  0
  -23.0820  -28.9790   23.0940 O   0  0  0  0  0  0  0  0  0  0  0  0
  -20.5620  -29.9380   21.4750 H   0  0  0  0  0  0  0  0  0  0  0  0
  -17.7180  -28.1140   22.6330 C   0  0  0  0  0  0  0  0  0  0  0  0
  -20.2670  -28.4280   22.9210 C   0  0  0  0  0  3  0  0  0  0  0  0
  -20.4060  -27.0020   22.3390 C   0  0  0  0  0  2  0  0  0  0  0  0
  -19.3180  -26.6580   21.3180 C   0  0  0  0  0  2  0  0  0  0  0  0
  -17.9290  -26.7710   21.9550 C   0  0  0  0  0  2  0  0  0  0  0  0
  -18.8160  -28.9000   23.0720 C   0  0  0  0  0  0  0  0  0  0  0  0
  -18.5670  -30.1580   23.6620 C   0  0  0  0  0  3  0  0  0  0  0  0
  -17.2510  -30.6310   23.8200 C   0  0  0  0  0  3  0  0  0  0  0  0
  -16.1670  -29.8420   23.3990 C   0  0  0  0  0  3  0  0  0  0  0  0
  -16.4010  -28.5870   22.8110 C   0  0  0  0  0  3  0  0  0  0  0  0
  -25.4480  -32.7180   23.6070 C   0  0  0  0  0  3  0  0  0  0  0  0
  -25.0920  -34.0880   23.9970 N   0  0  0  0  0  0  0  0  0  0  0  0
  -25.3720  -35.1820   23.2730 C   0  0  0  0  0  0  0  0  0  0  0  0
  -26.0300  -35.1450   22.2310 O   0  0  0  0  0  0  0  0  0  0  0  0
  -24.5020  -34.1890   24.8100 H   0  0  0  0  0  0  0  0  0  0  0  0
  -23.5600  -36.9060   23.0170 C   0  0  0  0  0  1  0  0  0  0  0  0
  -24.8340  -36.5300   23.7890 C   0  0  0  0  0  3  0  0  0  0  0  0
  -26.9500  -37.4710   24.6030 C   0  0  0  0  0  1  0  0  0  0  0  0
  -25.8170  -37.6300   23.6950 N   0  0  0  0  0  0  0  0  0  0  0  0
  -25.3780  -38.5250   23.8890 H   0  0  0  0  0  0  0  0  0  0  0  0
  -26.0220  -31.9180   24.8400 C   0  0  1  0  0  0  0  0  0  0  0  0
  -24.9600  -31.5940   25.9170 C   0  0  0  0  0  1  0  0  0  0  0  0
  -26.6490  -30.5810   24.3770 C   0  0  0  0  0  1  0  0  0  0  0  0
  -27.1550  -32.7280   25.5120 C   0  0  0  0  0  1  0  0  0  0  0  0
  -27.8000  -17.5860    8.7140 C   0  0  0  0  0  2  0  0  0  0  0  0
  -26.3320  -17.8280    9.1100 C   0  0  0  0  0  2  0  0  0  0  0  0
  -26.1220  -19.0070   10.0850 C   0  0  0  0  0  2  0  0  0  0  0  0
  -26.7100  -18.1400   12.3480 C   0  0  0  0  0  0  0  0  0  0  0  0
  -26.9570  -18.9070   11.2800 N   0  0  0  0  0  0  0  0  0  0  0  0
  -25.7340  -17.3920   12.4190 O   0  0  0  0  0  0  0  0  0  0  0  0
  -27.7950  -19.4720   11.2980 H   0  0  0  0  0  0  0  0  0  0  0  0
  -27.7040  -18.2310   13.5060 C   0  0  0  0  0  2  0  0  0  0  0  0
  -27.0190  -18.0970   14.8790 C   0  0  0  0  0  2  0  0  0  0  0  0
  -28.0230  -18.0440   16.0280 C   0  0  0  0  0  0  0  0  0  0  0  0
  -27.8740  -18.9590   16.9970 N   0  0  0  0  0  0  0  0  0  0  0  0
  -28.9210  -17.1970   16.0190 O   0  0  0  0  0  0  0  0  0  0  0  0
  -27.2070  -19.6960   16.8150 H   0  0  0  0  0  0  0  0  0  0  0  0
  -29.5490  -20.3950   20.0120 C   0  0  0  0  0  3  0  0  0  0  0  0
  -29.8360  -19.2320   20.7570 C   0  0  0  0  0  3  0  0  0  0  0  0
  -28.8820  -17.8740   18.9770 C   0  0  0  0  0  3  0  0  0  0  0  0
  -28.8990  -20.3080   18.7600 C   0  0  0  0  0  0  0  0  0  0  0  0
  -29.4960  -17.9620   20.2450 C   0  0  0  0  0  0  0  0  0  0  0  0
  -28.5810  -19.0380   18.2280 C   0  0  0  0  0  0  0  0  0  0  0  0
  -28.5410  -21.5770   18.0040 C   0  0  0  0  0  1  0  0  0  0  0  0
  -30.5650  -15.8370   20.7600 C   0  0  0  0  0  0  0  0  0  0  0  0
  -30.6090  -13.6010   19.7560 C   0  0  0  0  0  2  0  0  0  0  0  0
  -29.7570  -13.6860   18.4710 C   0  0  0  0  0  2  0  0  0  0  0  0
  -28.2700  -13.4100   18.7790 C   0  0  0  0  0  2  0  0  0  0  0  0
  -27.7470  -14.2350   19.9860 C   0  0  0  0  0  3  0  0  0  0  0  0
  -28.7270  -14.1620   21.1810 C   0  0  0  0  0  2  0  0  0  0  0  0
  -30.0600  -14.5770   20.7040 N   0  0  0  0  0  0  0  0  0  0  0  0
  -31.7170  -16.1260   20.4220 O   0  0  0  0  0  0  0  0  0  0  0  0
  -29.6590  -16.7880   21.0330 N   0  0  0  0  0  0  0  0  0  0  0  0
  -28.7930  -16.3930   21.3690 H   0  0  0  0  0  0  0  0  0  0  0  0
  -25.2550  -14.6210   20.4910 C   0  0  0  0  0  0  0  0  0  0  0  0
  -24.2400  -13.7520   20.7870 C   0  0  0  0  0  0  0  0  0  0  0  0
  -24.8290  -12.4500   20.8100 C   0  0  0  0  0  0  0  0  0  0  0  0
  -26.3940  -13.8390   20.3600 N   0  0  0  0  0  0  0  0  0  0  0  0
  -26.1360  -12.5300   20.6080 N   0  0  0  0  0  0  0  0  0  0  0  0
  -24.2120  -11.1260   20.9650 C   0  0  0  0  0  0  0  0  0  0  0  0
  -24.7040  -10.1930   21.9030 C   0  0  0  0  0  3  0  0  0  0  0  0
  -24.0910   -8.9300   22.0470 C   0  0  0  0  0  3  0  0  0  0  0  0
  -22.9690   -8.5920   21.2510 C   0  0  0  0  0  0  0  0  0  0  0  0
  -22.4950   -9.5170   20.3020 C   0  0  0  0  0  3  0  0  0  0  0  0
  -23.1110  -10.7730   20.1570 C   0  0  0  0  0  3  0  0  0  0  0  0
  -22.3200   -7.3830   21.3030 O   0  0  0  0  0  0  0  0  0  0  0  0
  -22.3420   -6.6020   22.4310 C   0  0  0  0  0  0  0  0  0  0  0  0
  -21.9140   -7.0920   23.6840 C   0  0  0  0  0  3  0  0  0  0  0  0
  -21.8850   -6.2350   24.8010 C   0  0  0  0  0  3  0  0  0  0  0  0
  -22.2750   -4.8890   24.6680 C   0  0  0  0  0  0  0  0  0  0  0  0
  -22.6970   -4.3990   23.4210 C   0  0  0  0  0  3  0  0  0  0  0  0
  -22.7270   -5.2520   22.3040 C   0  0  0  0  0  0  0  0  0  0  0  0
  -23.1130   -4.7680   21.0990 F   0  0  0  0  0  0  0  0  0  0  0  0
  -22.2410   -4.0650   25.7420 F   0  0  0  0  0  0  0  0  0  0  0  0
  -22.7870  -14.0940   20.9500 C   0  0  0  0  0  0  0  0  0  0  0  0
  -22.0710  -13.3380   21.7770 N   0  0  0  0  0  0  0  0  0  0  0  0
  -22.2880  -15.0650   20.3820 O   0  0  0  0  0  0  0  0  0  0  0  0
  -22.4830  -12.5500   22.2550 H   0  0  0  0  0  0  0  0  0  0  0  0
  -21.0970  -13.5530   21.9380 H   0  0  0  0  0  0  0  0  0  0  0  0
  -25.3020  -16.0000   20.3090 N   0  0  0  0  0  0  0  0  0  0  0  0
  -24.4720  -16.5810   20.3530 H   0  0  0  0  0  0  0  0  0  0  0  0
  -26.1350  -16.5230   20.0690 H   0  0  0  0  0  0  0  0  0  0  0  0
  1 59  1  0
  2  1  1  0
  2  3  1  0
  3  4  1  0
  4  5  1  0
  5  6  1  0
  6  7  1  0
  7  8  1  0
  8  9  1  0
  9 10  1  0
 10 11  1  0
 11 13  1  0
 13 15  1  0
 13 12  1  0
 13 14  1  6
 15 16  1  0
 17 16  1  0
 17 18  1  0
 19 30  2  0
 20 18  1  0
 20 25  1  0
 21 29  1  0
 21 31  1  0
 22 28  1  0
 22 24  1  0
 23 29  1  0
 24 23  1  0
 25 24  2  0
 26 27  1  0
 26 20  2  0
 27 22  2  0
 28 21  1  0
 29 19  1  0
 31 33  2  0
 32 31  1  0
 34 32  1  0
 35 44  2  0
 35 40  1  0
 36 32  1  0
 36 40  1  0
 37 36  1  0
 38 39  1  0
 38 37  1  0
 39 35  1  0
 40 41  2  0
 41 42  1  0
 43 42  2  0
 44 43  1  0
 45 19  1  0
 45 46  1  0
 45 55  1  0
 46 49  1  0
 47 51  1  0
 47 46  1  0
 48 47  2  0
 51 50  1  0
 53 51  1  0
 53 54  1  0
 53 52  1  0
 55 58  1  1
 55 56  1  0
 57 55  1  0
 59 60  1  0
 60 61  1  0
 61 63  1  0
 62 64  2  0
 62 66  1  0
 63 65  1  0
 63 62  1  0
 66 67  1  0
 67 68  1  0
 68 69  1  0
 69 77  1  0
 70 68  2  0
 71 69  1  0
 72 73  1  0
 74 76  1  0
 75 72  2  0
 76 73  2  0
 76 87  1  0
 77 75  1  0
 77 74  2  0
 78 75  1  0
 79 87  1  0
 80 85  1  0
 81 82  1  0
 81 80  1  0
 83 82  1  0
 83 92  1  0
 83 84  1  0
 85 79  1  0
 85 84  1  0
 86 79  2  0
 87 88  1  0
 89 90  2  0
 90 91  1  0
 90109  1  0
 91 94  1  0
 92 89  1  0
 92 93  1  0
 93 91  2  0
 94 95  1  0
 95 96  2  0
 97100  1  0
 97 96  1  0
 98 97  2  0
 99 98  1  0
 99 94  2  0
100101  1  0
101102  1  0
102103  2  0
104103  1  0
104108  1  0
105104  2  0
106101  2  0
106105  1  0
107106  1  0
109110  1  0
110113  1  0
110112  1  0
111109  2  0
114115  1  0
114 89  1  0
116114  1  0
M  ISO  4  17 101  18 101  79 100  87 100
M  END
>  <TORSDO>  (90) 
F 38

>  <SCORE>  (90) 
7.021

>  <name>  (90) 
89

>  <ligand_id>  (90) 
89

>  <original_smiles>  (90) 
[H]c1c([H])c([H])c2c(c1[H])C([H])([H])C([H])([H])C([H])([H])C2([H])N([H])C(=O)C1([H])N(C(=O)C([H])(N([H])C(=O)C([H])(N([H])C([H])([H])[H])C([H])([H])[H])C(C([H])([H])[H])(C([H])([H])[H])C([H])([H])[H])C([H])([H])c2c([H])c(OC([H])([H])C([H])([H])C([H])([H])[N+]([H])(C([H])([H])[H])C([H])([H])C([H])([H])C([H])([H])C([H])([H])C([H])([H])C([H])([H])C([H])([H])C([H])([H])C([H])([H])C([H])([H])C([H])([H])C([H])([H])C([H])([H])C([H])([H])N([H])C(=O)C([H])([H])C([H])([H])C(=O)N([H])c3c([H])c(N([H])C(=O)N4C([H])([H])C([H])([H])C([H])([H])C([H])(n5nc(-c6c([H])c([H])c(Oc7c([H])c([H])c(F)c([H])c7F)c([H])c6[H])c(C(=O)N([H])[H])c5N([H])[H])C4([H])[H])c([H])c([H])c3C([H])([H])[H])c([H])c([H])c2C1([H])[H]

>  <smiles>  (90) 
[H]c1c([H])c([H])c2c(c1[H])C([H])([H])C([H])([H])C([H])([H])C2([H])N([H])C(=O)C1([H])N(C(=O)C([H])(N([H])C(=O)C([H])(N([H])C([H])([H])[H])C([H])([H])[H])C(C([H])([H])[H])(C([H])([H])[H])C([H])([H])[H])C([H])([H])c2c([H])c(OC([H])([H])C([H])([H])C([H])([H])[N+]([H])(C([H])([H])[H])C([H])([H])C([H])([H])C([H])([H])C([H])([H])C([H])([H])C([H])([H])C([H])([H])C([H])([H])C([H])([H])C([H])([H])C([H])([H])C([H])([H])C([H])([H])C([H])([H])N([H])C(=O)C([H])([H])C([H])([H])C(=O)N([H])c3c([H])c(N([H])C(=O)N4C([H])([H])C([H])([H])C([H])([H])C([H])(n5nc(-c6c([H])c([H])c(Oc7c([H])c([H])c(F)c([H])c7F)c([H])c6[H])c(C(=O)N([H])[H])c5N([H])[H])C4([H])[H])c([H])c([H])c3C([H])([H])[H])c([H])c([H])c2C1([H])[H]

$$$$
90:0:0
     RDKit          3D

 96104  0  0  1  0  0  0  0  0999 V2000
  -31.4430  -19.8120   19.1670 C   0  0  0  0  0  3  0  0  0  0  0  0
  -31.5340  -18.7560   18.2440 C   0  0  0  0  0  3  0  0  0  0  0  0
  -31.1140  -19.5650   20.5140 C   0  0  0  0  0  0  0  0  0  0  0  0
  -31.2120  -17.4330   18.6130 C   0  0  0  0  0  0  0  0  0  0  0  0
  -30.9160  -18.2090   20.9270 C   0  0  0  0  0  0  0  0  0  0  0  0
  -30.8530  -17.1410   19.9630 C   0  0  0  0  0  0  0  0  0  0  0  0
  -31.1870  -16.3830   17.5110 C   0  0  0  0  0  1  0  0  0  0  0  0
  -30.6990  -17.9060   22.4070 C   0  0  0  0  0  1  0  0  0  0  0  0
  -30.7560  -14.6560   20.3020 C   0  0  0  0  0  0  0  0  0  0  0  0
  -30.4720  -12.4390   19.2270 C   0  0  0  0  0  2  0  0  0  0  0  0
  -29.5070  -12.5290   18.0280 C   0  0  0  0  0  2  0  0  0  0  0  0
  -28.0420  -12.3420   18.4740 C   0  0  0  0  0  2  0  0  0  0  0  0
  -27.6870  -13.2000   19.7120 C   0  0  0  0  0  3  0  0  0  0  0  0
  -28.7760  -13.0470   20.8070 C   0  0  0  0  0  2  0  0  0  0  0  0
  -30.0520  -13.4690   20.2020 N   0  0  0  0  0  0  0  0  0  0  0  0
  -31.9730  -14.6310   20.1030 O   0  0  0  0  0  0  0  0  0  0  0  0
  -28.8130  -16.1640   20.4560 C   0  0  0  0  0  0  0  0  0  0  0  0
  -28.1200  -17.1080   19.4550 C   0  0  0  0  0  1  0  0  0  0  0  0
  -30.1380  -15.9080   20.2890 N   0  0  0  0  0  0  0  0  0  0  0  0
  -28.1690  -15.8330   21.4510 O   0  0  0  0  0  0  0  0  0  0  0  0
  -25.2970  -13.8280   20.4330 C   0  0  0  0  0  0  0  0  0  0  0  0
  -24.2270  -13.0660   20.8020 C   0  0  0  0  0  0  0  0  0  0  0  0
  -24.6930  -11.7160   20.7910 C   0  0  0  0  0  0  0  0  0  0  0  0
  -26.3430  -12.9440   20.2140 N   0  0  0  0  0  0  0  0  0  0  0  0
  -25.9830  -11.6690   20.4930 N   0  0  0  0  0  0  0  0  0  0  0  0
  -23.9680  -10.4620   20.9940 C   0  0  0  0  0  0  0  0  0  0  0  0
  -24.4010   -9.5060   21.9380 C   0  0  0  0  0  3  0  0  0  0  0  0
  -23.6780   -8.3100   22.1230 C   0  0  0  0  0  3  0  0  0  0  0  0
  -22.5100   -8.0620   21.3640 C   0  0  0  0  0  0  0  0  0  0  0  0
  -22.0950   -9.0100   20.4110 C   0  0  0  0  0  3  0  0  0  0  0  0
  -22.8190  -10.1980   20.2240 C   0  0  0  0  0  3  0  0  0  0  0  0
  -21.7580   -6.9170   21.4600 O   0  0  0  0  0  0  0  0  0  0  0  0
  -21.7040   -6.1930   22.6220 C   0  0  0  0  0  0  0  0  0  0  0  0
  -21.2580   -6.7610   23.8350 C   0  0  0  0  0  3  0  0  0  0  0  0
  -21.1450   -5.9600   24.9880 C   0  0  0  0  0  3  0  0  0  0  0  0
  -21.4720   -4.5930   24.9310 C   0  0  0  0  0  0  0  0  0  0  0  0
  -21.9130   -4.0250   23.7220 C   0  0  0  0  0  3  0  0  0  0  0  0
  -22.0260   -4.8220   22.5700 C   0  0  0  0  0  0  0  0  0  0  0  0
  -22.4300   -4.2650   21.4040 F   0  0  0  0  0  0  0  0  0  0  0  0
  -21.3560   -3.8190   26.0360 F   0  0  0  0  0  0  0  0  0  0  0  0
  -22.8330  -13.5530   21.0690 C   0  0  0  0  0  0  0  0  0  0  0  0
  -22.1060  -12.8780   21.9500 N   0  0  0  0  0  0  0  0  0  0  0  0
  -22.3970  -14.5740   20.5350 O   0  0  0  0  0  0  0  0  0  0  0  0
  -22.4640  -12.0540   22.4090 H   0  0  0  0  0  0  0  0  0  0  0  0
  -21.1730  -13.1980   22.1700 H   0  0  0  0  0  0  0  0  0  0  0  0
  -25.4550  -15.1940   20.2550 N   0  0  0  0  0  0  0  0  0  0  0  0
  -24.6930  -15.8030   20.5280 H   0  0  0  0  0  0  0  0  0  0  0  0
  -26.3590  -15.5730   20.5170 H   0  0  0  0  0  0  0  0  0  0  0  0
  -30.9630  -20.7510   21.4980 C   0  0  0  0  0  2  0  0  0  0  0  0
  -29.6670  -22.8910   21.0550 C   0  0  0  0  0  0  0  0  0  0  0  0
  -30.7630  -22.1070   20.9300 N   0  0  0  0  0  0  0  0  0  0  0  0
  -28.6040  -22.4490   21.4980 O   0  0  0  0  0  0  0  0  0  0  0  0
  -31.5890  -22.5490   20.5510 H   0  0  0  0  0  0  0  0  0  0  0  0
  -29.7920  -24.3990   20.6880 C   0  0  0  0  0  2  0  0  0  0  0  0
  -28.4480  -25.1750   20.5130 C   0  0  0  0  0  2  0  0  0  0  0  0
  -28.5910  -26.6170   20.4180 O   0  0  0  0  0  0  0  0  0  0  0  0
  -24.6880  -31.8880   23.2710 C   0  0  0  0  0  0  0  0  0  0  0  0
  -27.4230  -27.3680   20.3500 C   0  0  0  0  0  0  0  0  0  0  0  0
  -23.5310  -30.4570   21.6200 C   0  0  0  0  0  3  0  0  0  0  0  0
  -25.0270  -28.8990   20.2620 C   0  0  0  0  0  0  0  0  0  0  0  0
  -26.0640  -30.8100   21.4910 C   0  0  0  0  0  2  0  0  0  0  0  0
  -26.1720  -29.4270   20.8730 C   0  0  0  0  0  0  0  0  0  0  0  0
  -27.3720  -28.6730   20.9060 C   0  0  0  0  0  3  0  0  0  0  0  0
  -26.2550  -26.8690   19.7260 C   0  0  0  0  0  3  0  0  0  0  0  0
  -25.0660  -27.6230   19.6810 C   0  0  0  0  0  3  0  0  0  0  0  0
  -23.7810  -29.7570   20.2580 C   0  0  0  0  0  2  0  0  0  0  0  0
  -24.7780  -31.0680   22.1850 N   0  0  0  0  0  0  0  0  0  0  0  0
  -23.5920  -32.1680   23.7750 O   0  0  0  0  0  0  0  0  0  0  0  0
  -22.8550  -29.4500   22.5790 C   0  0  0  0  0  0  0  0  0  0  0  0
  -21.5330  -29.2680   22.4240 N   0  0  0  0  0  0  0  0  0  0  0  0
  -23.5180  -28.8360   23.4200 O   0  0  0  0  0  0  0  0  0  0  0  0
  -21.0600  -29.8140   21.7170 H   0  0  0  0  0  0  0  0  0  0  0  0
  -18.1430  -28.0940   22.8710 C   0  0  0  0  0  0  0  0  0  0  0  0
  -20.6970  -28.3420   23.1890 C   0  0  0  0  0  3  0  0  0  0  0  0
  -20.8040  -26.9060   22.6270 C   0  0  0  0  0  2  0  0  0  0  0  0
  -19.7210  -26.5780   21.5950 C   0  0  0  0  0  2  0  0  0  0  0  0
  -18.3280  -26.7370   22.2110 C   0  0  0  0  0  2  0  0  0  0  0  0
  -19.2580  -28.8550   23.3140 C   0  0  0  0  0  0  0  0  0  0  0  0
  -19.0350  -30.1240   23.8900 C   0  0  0  0  0  3  0  0  0  0  0  0
  -17.7310  -30.6380   24.0210 C   0  0  0  0  0  3  0  0  0  0  0  0
  -16.6290  -29.8750   23.5950 C   0  0  0  0  0  3  0  0  0  0  0  0
  -16.8370  -28.6040   23.0280 C   0  0  0  0  0  3  0  0  0  0  0  0
  -25.9560  -32.5310   23.9160 C   0  0  0  0  0  3  0  0  0  0  0  0
  -26.4500  -31.7760   25.2110 C   0  0  1  0  0  0  0  0  0  0  0  0
  -25.3330  -31.5410   26.2540 C   0  0  0  0  0  1  0  0  0  0  0  0
  -27.0480  -30.3970   24.8440 C   0  0  0  0  0  1  0  0  0  0  0  0
  -27.5830  -32.5820   25.8900 C   0  0  0  0  0  1  0  0  0  0  0  0
  -25.6350  -33.9310   24.2220 N   0  0  0  0  0  0  0  0  0  0  0  0
  -25.9790  -34.9740   23.4540 C   0  0  0  0  0  0  0  0  0  0  0  0
  -26.6710  -34.8620   22.4390 O   0  0  0  0  0  0  0  0  0  0  0  0
  -25.0270  -34.0970   25.0100 H   0  0  0  0  0  0  0  0  0  0  0  0
  -24.2500  -36.7520   23.0360 C   0  0  0  0  0  1  0  0  0  0  0  0
  -25.4740  -36.3650   23.8820 C   0  0  0  0  0  3  0  0  0  0  0  0
  -27.5840  -37.2720   24.7510 C   0  0  0  0  0  1  0  0  0  0  0  0
  -26.5050  -37.4220   23.7790 N   0  0  0  0  0  0  0  0  0  0  0  0
  -26.0900  -38.3420   23.9030 H   0  0  0  0  0  0  0  0  0  0  0  0
  1  3  1  0
  2  4  1  0
  2  1  2  0
  3  5  2  0
  3 49  1  0
  4  6  2  0
  5  8  1  0
  6 19  1  0
  6  5  1  0
  7  4  1  0
 10 15  1  0
 11 12  1  0
 11 10  1  0
 13 12  1  0
 13 24  1  0
 13 14  1  0
 15  9  1  0
 15 14  1  0
 16  9  2  0
 17 20  2  0
 18 17  1  0
 19  9  1  0
 19 17  1  0
 21 22  2  0
 22 41  1  0
 23 22  1  0
 23 26  1  0
 24 21  1  0
 24 25  1  0
 25 23  2  0
 26 27  1  0
 27 28  2  0
 29 32  1  0
 29 28  1  0
 30 29  2  0
 31 30  1  0
 31 26  2  0
 32 33  1  0
 33 34  1  0
 34 35  2  0
 36 35  1  0
 36 40  1  0
 37 36  2  0
 38 33  2  0
 38 37  1  0
 39 38  1  0
 41 42  1  0
 42 45  1  0
 42 44  1  0
 43 41  2  0
 46 21  1  0
 46 48  1  0
 46 47  1  0
 50 52  2  0
 51 50  1  0
 51 49  1  0
 53 51  1  0
 54 50  1  0
 55 54  1  0
 56 55  1  0
 57 68  2  0
 58 56  1  0
 58 63  1  0
 59 67  1  0
 59 69  1  0
 60 62  1  0
 61 67  1  0
 62 63  2  0
 62 61  1  0
 64 58  2  0
 65 64  1  0
 65 60  2  0
 66 60  1  0
 66 59  1  0
 67 57  1  0
 69 71  2  0
 70 69  1  0
 72 70  1  0
 73 82  2  0
 73 78  1  0
 74 70  1  0
 74 78  1  0
 75 74  1  0
 76 77  1  0
 76 75  1  0
 77 73  1  0
 78 79  2  0
 79 80  1  0
 81 80  2  0
 82 81  1  0
 83 57  1  0
 83 88  1  0
 83 84  1  0
 84 87  1  1
 84 85  1  0
 86 84  1  0
 88 91  1  0
 89 93  1  0
 89 88  1  0
 90 89  2  0
 93 92  1  0
 95 93  1  0
 95 96  1  0
 95 94  1  0
M  ISO  4   9 100  19 100  55 101  56 101
M  END
>  <TORSDO>  (91) 
F 20

>  <SCORE>  (91) 
-13.634

>  <name>  (91) 
90

>  <ligand_id>  (91) 
90

>  <original_smiles>  (91) 
[H]c1c([H])c([H])c2c(c1[H])C([H])([H])C([H])([H])C([H])([H])C2([H])N([H])C(=O)C1([H])N(C(=O)C([H])(N([H])C(=O)C([H])(N([H])C([H])([H])[H])C([H])([H])[H])C(C([H])([H])[H])(C([H])([H])[H])C([H])([H])[H])C([H])([H])c2c([H])c(OC([H])([H])C([H])([H])C(=O)N([H])C([H])([H])c3c([H])c([H])c(C([H])([H])[H])c(N(C(=O)N4C([H])([H])C([H])([H])C([H])([H])C([H])(n5nc(-c6c([H])c([H])c(Oc7c([H])c([H])c(F)c([H])c7F)c([H])c6[H])c(C(=O)N([H])[H])c5N([H])[H])C4([H])[H])C(=O)C([H])([H])[H])c3C([H])([H])[H])c([H])c([H])c2C1([H])[H]

>  <smiles>  (91) 
[H]c1c([H])c([H])c2c(c1[H])C([H])([H])C([H])([H])C([H])([H])C2([H])N([H])C(=O)C1([H])N(C(=O)C([H])(N([H])C(=O)C([H])(N([H])C([H])([H])[H])C([H])([H])[H])C(C([H])([H])[H])(C([H])([H])[H])C([H])([H])[H])C([H])([H])c2c([H])c(OC([H])([H])C([H])([H])C(=O)N([H])C([H])([H])c3c([H])c([H])c(C([H])([H])[H])c(N(C(=O)N4C([H])([H])C([H])([H])C([H])([H])C([H])(n5nc(-c6c([H])c([H])c(Oc7c([H])c([H])c(F)c([H])c7F)c([H])c6[H])c(C(=O)N([H])[H])c5N([H])[H])C4([H])[H])C(=O)C([H])([H])[H])c3C([H])([H])[H])c([H])c([H])c2C1([H])[H]

$$$$
91:0:0
     RDKit          3D

 94102  0  0  1  0  0  0  0  0999 V2000
  -31.1770  -21.3000   20.6450 C   0  0  0  0  0  0  0  0  0  0  0  0
  -30.0610  -22.1260   22.7000 C   0  0  0  0  0  1  0  0  0  0  0  0
  -30.2560  -22.0930   21.2480 N   0  0  0  0  0  0  0  0  0  0  0  0
  -32.0390  -21.8070   19.9200 O   0  0  0  0  0  0  0  0  0  0  0  0
  -30.3970  -19.1010   21.7710 C   0  0  0  0  0  3  0  0  0  0  0  0
  -31.0850  -17.5970   19.5200 C   0  0  0  0  0  3  0  0  0  0  0  0
  -30.9680  -19.7850   20.6630 C   0  0  0  0  0  0  0  0  0  0  0  0
  -30.4910  -16.9360   20.6230 C   0  0  0  0  0  0  0  0  0  0  0  0
  -30.1380  -17.7160   21.7400 C   0  0  0  0  0  0  0  0  0  0  0  0
  -31.3160  -18.9920   19.5350 C   0  0  0  0  0  0  0  0  0  0  0  0
  -29.5340  -17.1280   22.8000 F   0  0  0  0  0  0  0  0  0  0  0  0
  -31.8590  -19.5470   18.4240 F   0  0  0  0  0  0  0  0  0  0  0  0
  -30.7900  -14.5260   20.0130 C   0  0  0  0  0  0  0  0  0  0  0  0
  -30.3680  -12.4230   18.8130 C   0  0  0  0  0  2  0  0  0  0  0  0
  -29.3440  -12.6830   17.6880 C   0  0  0  0  0  2  0  0  0  0  0  0
  -27.9050  -12.5370   18.2180 C   0  0  0  0  0  2  0  0  0  0  0  0
  -27.6690  -13.3190   19.5400 C   0  0  0  0  0  3  0  0  0  0  0  0
  -28.8030  -13.0540   20.5570 C   0  0  0  0  0  2  0  0  0  0  0  0
  -30.0850  -13.3660   19.9050 N   0  0  0  0  0  0  0  0  0  0  0  0
  -31.8800  -14.6870   19.4640 O   0  0  0  0  0  0  0  0  0  0  0  0
  -30.1730  -15.5360   20.6580 N   0  0  0  0  0  0  0  0  0  0  0  0
  -29.3610  -15.2930   21.2020 H   0  0  0  0  0  0  0  0  0  0  0  0
  -25.3300  -13.9040   20.4460 C   0  0  0  0  0  0  0  0  0  0  0  0
  -24.2870  -13.1210   20.8610 C   0  0  0  0  0  0  0  0  0  0  0  0
  -24.7360  -11.7690   20.7460 C   0  0  0  0  0  0  0  0  0  0  0  0
  -26.3520  -13.0300   20.1060 N   0  0  0  0  0  0  0  0  0  0  0  0
  -26.0010  -11.7380   20.3420 N   0  0  0  0  0  0  0  0  0  0  0  0
  -24.0170  -10.5030   20.9400 C   0  0  0  0  0  0  0  0  0  0  0  0
  -24.4660   -9.5340   21.8640 C   0  0  0  0  0  3  0  0  0  0  0  0
  -23.7490   -8.3330   22.0470 C   0  0  0  0  0  3  0  0  0  0  0  0
  -22.5680   -8.0910   21.3060 C   0  0  0  0  0  0  0  0  0  0  0  0
  -22.1360   -9.0500   20.3720 C   0  0  0  0  0  3  0  0  0  0  0  0
  -22.8540  -10.2440   20.1870 C   0  0  0  0  0  3  0  0  0  0  0  0
  -21.8200   -6.9410   21.4000 O   0  0  0  0  0  0  0  0  0  0  0  0
  -21.7180   -6.2410   22.5730 C   0  0  0  0  0  0  0  0  0  0  0  0
  -21.2120   -6.8330   23.7520 C   0  0  0  0  0  3  0  0  0  0  0  0
  -21.0600   -6.0580   24.9200 C   0  0  0  0  0  3  0  0  0  0  0  0
  -21.4010   -4.6930   24.9080 C   0  0  0  0  0  0  0  0  0  0  0  0
  -21.8980   -4.1000   23.7340 C   0  0  0  0  0  3  0  0  0  0  0  0
  -22.0520   -4.8710   22.5700 C   0  0  0  0  0  0  0  0  0  0  0  0
  -22.5130   -4.2910   21.4340 F   0  0  0  0  0  0  0  0  0  0  0  0
  -21.2450   -3.9460   26.0260 F   0  0  0  0  0  0  0  0  0  0  0  0
  -22.9160  -13.5940   21.2500 C   0  0  0  0  0  0  0  0  0  0  0  0
  -22.2530  -12.8840   22.1580 N   0  0  0  0  0  0  0  0  0  0  0  0
  -22.4380  -14.6260   20.7820 O   0  0  0  0  0  0  0  0  0  0  0  0
  -22.6520  -12.0540   22.5670 H   0  0  0  0  0  0  0  0  0  0  0  0
  -21.3340  -13.1830   22.4510 H   0  0  0  0  0  0  0  0  0  0  0  0
  -25.4850  -15.2790   20.3070 N   0  0  0  0  0  0  0  0  0  0  0  0
  -24.7200  -15.9210   20.4880 H   0  0  0  0  0  0  0  0  0  0  0  0
  -26.3000  -15.7320   19.9110 H   0  0  0  0  0  0  0  0  0  0  0  0
  -29.3900  -23.0010   20.4760 C   0  0  0  0  0  2  0  0  0  0  0  0
  -29.6290  -24.5210   20.7130 C   0  0  0  0  0  2  0  0  0  0  0  0
  -28.7020  -25.4030   19.8410 C   0  0  0  0  0  2  0  0  0  0  0  0
  -28.6230  -26.7620   20.3130 O   0  0  0  0  0  0  0  0  0  0  0  0
  -24.6380  -31.8580   23.3010 C   0  0  0  0  0  0  0  0  0  0  0  0
  -27.4190  -27.4510   20.2570 C   0  0  0  0  0  0  0  0  0  0  0  0
  -23.4910  -30.4530   21.6200 C   0  0  0  0  0  3  0  0  0  0  0  0
  -24.9960  -28.9390   20.2280 C   0  0  0  0  0  0  0  0  0  0  0  0
  -26.0200  -30.8300   21.4960 C   0  0  0  0  0  2  0  0  0  0  0  0
  -26.1330  -29.4650   20.8490 C   0  0  0  0  0  0  0  0  0  0  0  0
  -27.3410  -28.7270   20.8650 C   0  0  0  0  0  3  0  0  0  0  0  0
  -26.2580  -26.9500   19.6150 C   0  0  0  0  0  3  0  0  0  0  0  0
  -25.0520  -27.6770   19.6170 C   0  0  0  0  0  3  0  0  0  0  0  0
  -23.7440  -29.7850   20.2420 C   0  0  0  0  0  2  0  0  0  0  0  0
  -24.7320  -31.0640   22.1960 N   0  0  0  0  0  0  0  0  0  0  0  0
  -23.5390  -32.1160   23.8120 O   0  0  0  0  0  0  0  0  0  0  0  0
  -22.8260  -29.4180   22.5570 C   0  0  0  0  0  0  0  0  0  0  0  0
  -21.5100  -29.2120   22.3880 N   0  0  0  0  0  0  0  0  0  0  0  0
  -23.4950  -28.8040   23.3940 O   0  0  0  0  0  0  0  0  0  0  0  0
  -21.0280  -29.7680   21.6950 H   0  0  0  0  0  0  0  0  0  0  0  0
  -18.1450  -27.9530   22.7720 C   0  0  0  0  0  0  0  0  0  0  0  0
  -20.6870  -28.2560   23.1290 C   0  0  0  0  0  3  0  0  0  0  0  0
  -20.8310  -26.8270   22.5540 C   0  0  0  0  0  2  0  0  0  0  0  0
  -19.7690  -26.4870   21.5040 C   0  0  0  0  0  2  0  0  0  0  0  0
  -18.3660  -26.6080   22.1020 C   0  0  0  0  0  2  0  0  0  0  0  0
  -19.2350  -28.7340   23.2410 C   0  0  0  0  0  0  0  0  0  0  0  0
  -18.9750  -29.9930   23.8240 C   0  0  0  0  0  3  0  0  0  0  0  0
  -17.6570  -30.4730   23.9440 C   0  0  0  0  0  3  0  0  0  0  0  0
  -16.5810  -29.6890   23.4920 C   0  0  0  0  0  3  0  0  0  0  0  0
  -16.8250  -28.4310   22.9130 C   0  0  0  0  0  3  0  0  0  0  0  0
  -25.9020  -32.4970   23.9570 C   0  0  0  0  0  3  0  0  0  0  0  0
  -26.3790  -31.7460   25.2610 C   0  0  1  0  0  0  0  0  0  0  0  0
  -25.2490  -31.5200   26.2930 C   0  0  0  0  0  1  0  0  0  0  0  0
  -26.9850  -30.3660   24.9100 C   0  0  0  0  0  1  0  0  0  0  0  0
  -27.5020  -32.5570   25.9510 C   0  0  0  0  0  1  0  0  0  0  0  0
  -25.5820  -33.8990   24.2560 N   0  0  0  0  0  0  0  0  0  0  0  0
  -25.9200  -34.9390   23.4820 C   0  0  0  0  0  0  0  0  0  0  0  0
  -26.6060  -34.8210   22.4640 O   0  0  0  0  0  0  0  0  0  0  0  0
  -24.9710  -34.0650   25.0430 H   0  0  0  0  0  0  0  0  0  0  0  0
  -24.1720  -36.7020   23.0840 C   0  0  0  0  0  1  0  0  0  0  0  0
  -25.4170  -36.3320   23.9070 C   0  0  0  0  0  3  0  0  0  0  0  0
  -27.5390  -37.2590   24.7240 C   0  0  0  0  0  1  0  0  0  0  0  0
  -26.4390  -37.3930   23.7720 N   0  0  0  0  0  0  0  0  0  0  0  0
  -26.0220  -38.3120   23.8900 H   0  0  0  0  0  0  0  0  0  0  0  0
  1  7  1  0
  1  3  1  0
  3  2  1  0
  4  1  2  0
  6 10  2  0
  6  8  1  0
  7  5  2  0
  8 21  1  0
  8  9  2  0
  9  5  1  0
  9 11  1  0
 10  7  1  0
 12 10  1  0
 13 21  1  0
 14 19  1  0
 15 16  1  0
 15 14  1  0
 17 16  1  0
 17 26  1  0
 17 18  1  0
 19 13  1  0
 19 18  1  0
 20 13  2  0
 21 22  1  0
 23 24  2  0
 24 43  1  0
 25 24  1  0
 25 28  1  0
 26 27  1  0
 26 23  1  0
 27 25  2  0
 28 29  1  0
 29 30  2  0
 31 34  1  0
 31 30  1  0
 32 31  2  0
 33 32  1  0
 33 28  2  0
 34 35  1  0
 35 36  1  0
 36 37  2  0
 38 37  1  0
 38 42  1  0
 39 38  2  0
 40 35  2  0
 40 39  1  0
 41 40  1  0
 43 44  1  0
 44 47  1  0
 44 46  1  0
 45 43  2  0
 48 23  1  0
 48 49  1  0
 50 48  1  0
 51 52  1  0
 51  3  1  0
 53 54  1  0
 53 52  1  0
 55 66  2  0
 56 54  1  0
 56 61  1  0
 57 65  1  0
 57 67  1  0
 58 64  1  0
 58 60  1  0
 59 65  1  0
 60 61  2  0
 60 59  1  0
 62 63  1  0
 62 56  2  0
 63 58  2  0
 64 57  1  0
 65 55  1  0
 67 69  2  0
 68 67  1  0
 70 68  1  0
 71 80  2  0
 71 76  1  0
 72 68  1  0
 72 76  1  0
 73 72  1  0
 74 75  1  0
 74 73  1  0
 75 71  1  0
 76 77  2  0
 77 78  1  0
 79 78  2  0
 80 79  1  0
 81 55  1  0
 81 86  1  0
 81 82  1  0
 82 85  1  1
 82 83  1  0
 84 82  1  0
 86 89  1  0
 87 91  1  0
 87 86  1  0
 88 87  2  0
 91 90  1  0
 93 94  1  0
 93 91  1  0
 93 92  1  0
M  ISO  4  13 100  21 100  53 101  54 101
M  END
>  <TORSDO>  (92) 
F 20

>  <SCORE>  (92) 
-13.126

>  <name>  (92) 
91

>  <ligand_id>  (92) 
91

>  <original_smiles>  (92) 
[H]c1c([H])c([H])c2c(c1[H])C([H])([H])C([H])([H])C([H])([H])C2([H])N([H])C(=O)C1([H])N(C(=O)C([H])(N([H])C(=O)C([H])(N([H])C([H])([H])[H])C([H])([H])[H])C(C([H])([H])[H])(C([H])([H])[H])C([H])([H])[H])C([H])([H])c2c([H])c(OC([H])([H])C([H])([H])C([H])([H])N(C(=O)c3c([H])c(F)c(N([H])C(=O)N4C([H])([H])C([H])([H])C([H])([H])C([H])(n5nc(-c6c([H])c([H])c(Oc7c([H])c([H])c(F)c([H])c7F)c([H])c6[H])c(C(=O)N([H])[H])c5N([H])[H])C4([H])[H])c([H])c3F)C([H])([H])[H])c([H])c([H])c2C1([H])[H]

>  <smiles>  (92) 
[H]c1c([H])c([H])c2c(c1[H])C([H])([H])C([H])([H])C([H])([H])C2([H])N([H])C(=O)C1([H])N(C(=O)C([H])(N([H])C(=O)C([H])(N([H])C([H])([H])[H])C([H])([H])[H])C(C([H])([H])[H])(C([H])([H])[H])C([H])([H])[H])C([H])([H])c2c([H])c(OC([H])([H])C([H])([H])C([H])([H])N(C(=O)c3c([H])c(F)c(N([H])C(=O)N4C([H])([H])C([H])([H])C([H])([H])C([H])(n5nc(-c6c([H])c([H])c(Oc7c([H])c([H])c(F)c([H])c7F)c([H])c6[H])c(C(=O)N([H])[H])c5N([H])[H])C4([H])[H])c([H])c3F)C([H])([H])[H])c([H])c([H])c2C1([H])[H]

$$$$
92:0:0
     RDKit          3D

 93101  0  0  1  0  0  0  0  0999 V2000
  -30.2110  -18.5850   21.7200 C   0  0  0  0  0  3  0  0  0  0  0  0
  -30.0150  -20.0110   21.8730 C   0  0  0  0  0  3  0  0  0  0  0  0
  -29.4990  -20.2150   19.5960 C   0  0  0  0  0  3  0  0  0  0  0  0
  -29.6720  -18.7630   19.4010 C   0  0  0  0  0  0  0  0  0  0  0  0
  -30.0410  -17.8600   20.4990 C   0  0  0  0  0  0  0  0  0  0  0  0
  -29.6270  -20.9180   20.8350 C   0  0  0  0  0  0  0  0  0  0  0  0
  -30.8130  -15.1900   20.4220 C   0  0  0  0  0  0  0  0  0  0  0  0
  -30.7160  -12.8730   19.4010 C   0  0  0  0  0  2  0  0  0  0  0  0
  -29.7900  -12.8970   18.1610 C   0  0  0  0  0  2  0  0  0  0  0  0
  -28.3190  -12.6840   18.5700 C   0  0  0  0  0  2  0  0  0  0  0  0
  -27.9110  -13.5550   19.7860 C   0  0  0  0  0  3  0  0  0  0  0  0
  -28.9570  -13.4990   20.9190 C   0  0  0  0  0  2  0  0  0  0  0  0
  -30.2370  -13.9260   20.3380 N   0  0  0  0  0  0  0  0  0  0  0  0
  -32.0260  -15.2850   20.1970 O   0  0  0  0  0  0  0  0  0  0  0  0
  -29.9550  -16.3210   20.5080 N   0  0  0  0  0  0  0  0  0  0  0  0
  -29.0010  -16.0040   20.5740 H   0  0  0  0  0  0  0  0  0  0  0  0
  -25.5150  -14.1450   20.4760 C   0  0  0  0  0  0  0  0  0  0  0  0
  -24.4410  -13.3730   20.8200 C   0  0  0  0  0  0  0  0  0  0  0  0
  -24.9030  -12.0210   20.7940 C   0  0  0  0  0  0  0  0  0  0  0  0
  -26.5610  -13.2630   20.2550 N   0  0  0  0  0  0  0  0  0  0  0  0
  -26.2000  -11.9810   20.5110 N   0  0  0  0  0  0  0  0  0  0  0  0
  -24.1710  -10.7610   20.9650 C   0  0  0  0  0  0  0  0  0  0  0  0
  -24.5550   -9.8090   21.9350 C   0  0  0  0  0  3  0  0  0  0  0  0
  -23.8220   -8.6120   22.0920 C   0  0  0  0  0  3  0  0  0  0  0  0
  -22.6920   -8.3610   21.2790 C   0  0  0  0  0  0  0  0  0  0  0  0
  -22.3280   -9.3020   20.2990 C   0  0  0  0  0  3  0  0  0  0  0  0
  -23.0620  -10.4890   20.1410 C   0  0  0  0  0  3  0  0  0  0  0  0
  -21.9350   -7.2160   21.3430 O   0  0  0  0  0  0  0  0  0  0  0  0
  -21.7880   -6.5160   22.5130 C   0  0  0  0  0  0  0  0  0  0  0  0
  -21.2230   -7.1020   23.6660 C   0  0  0  0  0  3  0  0  0  0  0  0
  -21.0250   -6.3260   24.8260 C   0  0  0  0  0  3  0  0  0  0  0  0
  -21.3840   -4.9650   24.8330 C   0  0  0  0  0  0  0  0  0  0  0  0
  -21.9430   -4.3780   23.6840 C   0  0  0  0  0  3  0  0  0  0  0  0
  -22.1410   -5.1520   22.5260 C   0  0  0  0  0  0  0  0  0  0  0  0
  -22.6600   -4.5760   21.4150 F   0  0  0  0  0  0  0  0  0  0  0  0
  -21.1890   -4.2180   25.9450 F   0  0  0  0  0  0  0  0  0  0  0  0
  -23.0390  -13.8540   21.0620 C   0  0  0  0  0  0  0  0  0  0  0  0
  -22.2980  -13.1750   21.9290 N   0  0  0  0  0  0  0  0  0  0  0  0
  -22.6090  -14.8680   20.5150 O   0  0  0  0  0  0  0  0  0  0  0  0
  -22.6570  -12.3560   22.3980 H   0  0  0  0  0  0  0  0  0  0  0  0
  -21.3570  -13.4800   22.1310 H   0  0  0  0  0  0  0  0  0  0  0  0
  -25.6780  -15.5180   20.3100 N   0  0  0  0  0  0  0  0  0  0  0  0
  -24.8990  -16.1580   20.4130 H   0  0  0  0  0  0  0  0  0  0  0  0
  -26.5200  -15.9730   19.9870 H   0  0  0  0  0  0  0  0  0  0  0  0
  -29.0400  -19.2890   16.9250 C   0  0  0  0  0  1  0  0  0  0  0  0
  -28.1690  -17.2660   18.0260 C   0  0  0  0  0  1  0  0  0  0  0  0
  -30.6140  -17.4630   17.3980 C   0  0  0  0  0  1  0  0  0  0  0  0
  -29.3870  -18.2020   17.9750 C   0  0  2  0  0  0  0  0  0  0  0  0
  -29.3530  -22.3230   21.1560 O   0  0  0  0  0  0  0  0  0  0  0  0
  -30.6260  -23.9350   19.8330 C   0  0  0  0  0  1  0  0  0  0  0  0
  -29.2080  -23.5880   20.2950 C   0  0  0  0  0  3  0  0  0  0  0  0
  -28.4910  -24.9830   20.9160 C   0  0  0  0  0  2  0  0  0  0  0  0
  -28.6670  -26.4660   20.4970 O   0  0  0  0  0  0  0  0  0  0  0  0
  -24.7480  -32.0150   23.3620 C   0  0  0  0  0  0  0  0  0  0  0  0
  -27.5630  -27.3840   20.4520 C   0  0  0  0  0  0  0  0  0  0  0  0
  -23.6410  -30.5760   21.6920 C   0  0  0  0  0  3  0  0  0  0  0  0
  -25.1800  -29.0350   20.3290 C   0  0  0  0  0  0  0  0  0  0  0  0
  -26.1870  -30.9250   21.6000 C   0  0  0  0  0  2  0  0  0  0  0  0
  -26.3240  -29.5310   20.9680 C   0  0  0  0  0  0  0  0  0  0  0  0
  -27.5190  -28.7230   21.0090 C   0  0  0  0  0  3  0  0  0  0  0  0
  -26.3910  -26.9770   19.7820 C   0  0  0  0  0  3  0  0  0  0  0  0
  -25.2240  -27.7700   19.7210 C   0  0  0  0  0  3  0  0  0  0  0  0
  -23.9260  -29.8950   20.3280 C   0  0  0  0  0  2  0  0  0  0  0  0
  -24.8760  -31.1940   22.2750 N   0  0  0  0  0  0  0  0  0  0  0  0
  -23.6390  -32.2700   23.8550 O   0  0  0  0  0  0  0  0  0  0  0  0
  -22.9630  -29.5560   22.6400 C   0  0  0  0  0  0  0  0  0  0  0  0
  -21.6460  -29.3420   22.4680 N   0  0  0  0  0  0  0  0  0  0  0  0
  -23.6240  -28.9570   23.4920 O   0  0  0  0  0  0  0  0  0  0  0  0
  -21.1680  -29.8800   21.7570 H   0  0  0  0  0  0  0  0  0  0  0  0
  -18.2840  -28.0540   22.8690 C   0  0  0  0  0  0  0  0  0  0  0  0
  -20.8260  -28.3850   23.2150 C   0  0  0  0  0  3  0  0  0  0  0  0
  -20.9830  -26.9540   22.6490 C   0  0  0  0  0  2  0  0  0  0  0  0
  -19.9230  -26.6000   21.6010 C   0  0  0  0  0  2  0  0  0  0  0  0
  -18.5180  -26.7090   22.2020 C   0  0  0  0  0  2  0  0  0  0  0  0
  -19.3690  -28.8470   23.3310 C   0  0  0  0  0  0  0  0  0  0  0  0
  -19.0970  -30.1040   23.9140 C   0  0  0  0  0  3  0  0  0  0  0  0
  -17.7740  -30.5680   24.0420 C   0  0  0  0  0  3  0  0  0  0  0  0
  -16.7050  -29.7720   23.5960 C   0  0  0  0  0  3  0  0  0  0  0  0
  -16.9600  -28.5180   23.0150 C   0  0  0  0  0  3  0  0  0  0  0  0
  -25.9890  -32.6880   24.0270 C   0  0  0  0  0  3  0  0  0  0  0  0
  -26.4480  -31.9670   25.3540 C   0  0  1  0  0  0  0  0  0  0  0  0
  -25.2980  -31.7130   26.3560 C   0  0  0  0  0  1  0  0  0  0  0  0
  -27.1050  -30.6040   25.0380 C   0  0  0  0  0  1  0  0  0  0  0  0
  -27.5220  -32.8200   26.0690 C   0  0  0  0  0  1  0  0  0  0  0  0
  -25.6420  -34.0920   24.3000 N   0  0  0  0  0  0  0  0  0  0  0  0
  -25.9910  -35.1290   23.5280 C   0  0  0  0  0  0  0  0  0  0  0  0
  -26.7050  -35.0070   22.5290 O   0  0  0  0  0  0  0  0  0  0  0  0
  -25.0120  -34.2590   25.0710 H   0  0  0  0  0  0  0  0  0  0  0  0
  -24.2540  -36.8900   23.0570 C   0  0  0  0  0  1  0  0  0  0  0  0
  -25.4670  -36.5240   23.9260 C   0  0  0  0  0  3  0  0  0  0  0  0
  -27.5540  -37.4710   24.8140 C   0  0  0  0  0  1  0  0  0  0  0  0
  -26.4880  -37.5890   23.8200 N   0  0  0  0  0  0  0  0  0  0  0  0
  -26.0630  -38.5070   23.9190 H   0  0  0  0  0  0  0  0  0  0  0  0
  1  2  1  0
  3  6  1  0
  4  3  2  0
  4  5  1  0
  5 15  1  0
  5  1  2  0
  6 49  1  0
  6  2  2  0
  7 15  1  0
  8 13  1  0
  9 10  1  0
  9  8  1  0
 11 10  1  0
 11 20  1  0
 11 12  1  0
 13  7  1  0
 13 12  1  0
 14  7  2  0
 15 16  1  0
 17 18  2  0
 18 37  1  0
 19 18  1  0
 19 22  1  0
 20 17  1  0
 20 21  1  0
 21 19  2  0
 22 23  1  0
 23 24  2  0
 25 28  1  0
 25 24  1  0
 26 25  2  0
 27 26  1  0
 27 22  2  0
 28 29  1  0
 29 34  2  0
 29 30  1  0
 30 31  2  0
 31 32  1  0
 32 36  1  0
 33 32  2  0
 34 33  1  0
 35 34  1  0
 37 38  1  0
 38 41  1  0
 38 40  1  0
 39 37  2  0
 42 43  1  0
 42 17  1  0
 44 42  1  0
 48 45  1  6
 47 48  1  0
 48 46  1  0
 48  4  1  0
 51 50  1  0
 51 52  1  0
 51 49  1  0
 53 52  1  0
 54 65  2  0
 55 53  1  0
 55 60  1  0
 56 64  1  0
 56 66  1  0
 57 59  1  0
 58 64  1  0
 59 60  2  0
 59 58  1  0
 61 55  2  0
 62 61  1  0
 62 57  2  0
 63 57  1  0
 63 56  1  0
 64 54  1  0
 66 68  2  0
 67 66  1  0
 69 67  1  0
 70 79  2  0
 70 75  1  0
 71 67  1  0
 71 75  1  0
 72 71  1  0
 73 74  1  0
 73 72  1  0
 74 70  1  0
 75 76  2  0
 76 77  1  0
 78 77  2  0
 79 78  1  0
 80 54  1  0
 80 85  1  0
 80 81  1  0
 81 84  1  1
 81 82  1  0
 83 81  1  0
 85 88  1  0
 86 90  1  0
 86 85  1  0
 87 86  2  0
 90 89  1  0
 92 93  1  0
 92 90  1  0
 92 91  1  0
M  ISO  4   7 100  15 100  52 101  53 101
M  END
>  <TORSDO>  (93) 
F 20

>  <SCORE>  (93) 
-12.846

>  <name>  (93) 
92

>  <ligand_id>  (93) 
92

>  <original_smiles>  (93) 
[H]c1c([H])c([H])c2c(c1[H])C([H])([H])C([H])([H])C([H])([H])C2([H])N([H])C(=O)C1([H])N(C(=O)C([H])(N([H])C(=O)C([H])(N([H])C([H])([H])[H])C([H])([H])[H])C(C([H])([H])[H])(C([H])([H])[H])C([H])([H])[H])C([H])([H])c2c([H])c(OC([H])([H])C([H])(Oc3c([H])c([H])c(N([H])C(=O)N4C([H])([H])C([H])([H])C([H])([H])C([H])(n5nc(-c6c([H])c([H])c(Oc7c([H])c([H])c(F)c([H])c7F)c([H])c6[H])c(C(=O)N([H])[H])c5N([H])[H])C4([H])[H])c(C(C([H])([H])[H])(C([H])([H])[H])C([H])([H])[H])c3[H])C([H])([H])[H])c([H])c([H])c2C1([H])[H]

>  <smiles>  (93) 
[H]c1c([H])c([H])c2c(c1[H])C([H])([H])C([H])([H])C([H])([H])C2([H])N([H])C(=O)C1([H])N(C(=O)C([H])(N([H])C(=O)C([H])(N([H])C([H])([H])[H])C([H])([H])[H])C(C([H])([H])[H])(C([H])([H])[H])C([H])([H])[H])C([H])([H])c2c([H])c(OC([H])([H])C([H])(Oc3c([H])c([H])c(N([H])C(=O)N4C([H])([H])C([H])([H])C([H])([H])C([H])(n5nc(-c6c([H])c([H])c(Oc7c([H])c([H])c(F)c([H])c7F)c([H])c6[H])c(C(=O)N([H])[H])c5N([H])[H])C4([H])[H])c(C(C([H])([H])[H])(C([H])([H])[H])C([H])([H])[H])c3[H])C([H])([H])[H])c([H])c([H])c2C1([H])[H]

$$$$
93:0:0
     RDKit          3D

 90 98  0  0  1  0  0  0  0  0999 V2000
  -31.3500  -18.1490   21.3000 C   0  0  0  0  0  3  0  0  0  0  0  0
  -29.3010  -19.1050   20.4520 C   0  0  0  0  0  3  0  0  0  0  0  0
  -31.7290  -19.4520   21.7110 C   0  0  0  0  0  0  0  0  0  0  0  0
  -30.8860  -20.5970   21.5300 C   0  0  0  0  0  0  0  0  0  0  0  0
  -30.1060  -17.8580   20.7050 C   0  0  0  0  0  0  0  0  0  0  0  0
  -29.6490  -20.5300   20.7990 C   0  0  0  0  0  0  0  0  0  0  0  0
  -33.0870  -19.5790   22.4110 C   0  0  0  0  0  1  0  0  0  0  0  0
  -31.2980  -21.8780   22.2460 C   0  0  0  0  0  1  0  0  0  0  0  0
  -30.5050  -15.1250   20.3890 C   0  0  0  0  0  0  0  0  0  0  0  0
  -30.3780  -12.7510   19.4470 C   0  0  0  0  0  2  0  0  0  0  0  0
  -29.4470  -12.6600   18.2160 C   0  0  0  0  0  2  0  0  0  0  0  0
  -27.9940  -12.4150   18.6610 C   0  0  0  0  0  2  0  0  0  0  0  0
  -27.5650  -13.3600   19.8130 C   0  0  0  0  0  3  0  0  0  0  0  0
  -28.6220  -13.4380   20.9390 C   0  0  0  0  0  2  0  0  0  0  0  0
  -29.8840  -13.8690   20.3140 N   0  0  0  0  0  0  0  0  0  0  0  0
  -31.7140  -15.1440   20.1360 O   0  0  0  0  0  0  0  0  0  0  0  0
  -29.7560  -16.3550   20.4880 N   0  0  0  0  0  0  0  0  0  0  0  0
  -28.7640  -16.1790   20.4450 H   0  0  0  0  0  0  0  0  0  0  0  0
  -25.1770  -13.9220   20.5420 C   0  0  0  0  0  0  0  0  0  0  0  0
  -24.1140  -13.1380   20.9000 C   0  0  0  0  0  0  0  0  0  0  0  0
  -24.5860  -11.7900   20.8650 C   0  0  0  0  0  0  0  0  0  0  0  0
  -26.2270  -13.0490   20.3060 N   0  0  0  0  0  0  0  0  0  0  0  0
  -25.8820  -11.7620   20.5670 N   0  0  0  0  0  0  0  0  0  0  0  0
  -23.8610  -10.5230   21.0450 C   0  0  0  0  0  0  0  0  0  0  0  0
  -24.2920   -9.5520   21.9760 C   0  0  0  0  0  3  0  0  0  0  0  0
  -23.5680   -8.3520   22.1470 C   0  0  0  0  0  3  0  0  0  0  0  0
  -22.3960   -8.1160   21.3900 C   0  0  0  0  0  0  0  0  0  0  0  0
  -21.9820   -9.0770   20.4500 C   0  0  0  0  0  3  0  0  0  0  0  0
  -22.7080  -10.2670   20.2760 C   0  0  0  0  0  3  0  0  0  0  0  0
  -21.6420   -6.9700   21.4710 O   0  0  0  0  0  0  0  0  0  0  0  0
  -21.5920   -6.2230   22.6200 C   0  0  0  0  0  0  0  0  0  0  0  0
  -21.1620   -6.7720   23.8490 C   0  0  0  0  0  3  0  0  0  0  0  0
  -21.0590   -5.9490   24.9890 C   0  0  0  0  0  3  0  0  0  0  0  0
  -21.3780   -4.5810   24.9020 C   0  0  0  0  0  0  0  0  0  0  0  0
  -21.8000   -4.0320   23.6800 C   0  0  0  0  0  3  0  0  0  0  0  0
  -21.9060   -4.8510   22.5420 C   0  0  0  0  0  0  0  0  0  0  0  0
  -22.2930   -4.3120   21.3610 F   0  0  0  0  0  0  0  0  0  0  0  0
  -21.2690   -3.7910   25.9970 F   0  0  0  0  0  0  0  0  0  0  0  0
  -22.7120  -13.6090   21.1580 C   0  0  0  0  0  0  0  0  0  0  0  0
  -21.9840  -12.9100   22.0220 N   0  0  0  0  0  0  0  0  0  0  0  0
  -22.2740  -14.6340   20.6370 O   0  0  0  0  0  0  0  0  0  0  0  0
  -22.3530  -12.0800   22.4600 H   0  0  0  0  0  0  0  0  0  0  0  0
  -21.0470  -13.2080   22.2520 H   0  0  0  0  0  0  0  0  0  0  0  0
  -25.3340  -15.2950   20.3730 N   0  0  0  0  0  0  0  0  0  0  0  0
  -24.5700  -15.9440   20.5130 H   0  0  0  0  0  0  0  0  0  0  0  0
  -26.1770  -15.7430   20.0360 H   0  0  0  0  0  0  0  0  0  0  0  0
  -28.7920  -21.7310   20.5330 O   0  0  0  0  0  0  0  0  0  0  0  0
  -29.0860  -23.2930   20.4460 C   0  0  0  0  0  3  0  0  0  0  0  0
  -27.9730  -24.6050   20.3640 C   0  0  0  0  0  3  0  0  0  0  0  0
  -28.2190  -26.1720   20.3230 O   0  0  0  0  0  0  0  0  0  0  0  0
  -24.6080  -31.9420   23.2500 C   0  0  0  0  0  0  0  0  0  0  0  0
  -27.1590  -27.1690   20.2520 C   0  0  0  0  0  0  0  0  0  0  0  0
  -23.4020  -30.5460   21.6190 C   0  0  0  0  0  3  0  0  0  0  0  0
  -24.8330  -28.9480   20.2010 C   0  0  0  0  0  0  0  0  0  0  0  0
  -25.9560  -30.7920   21.4450 C   0  0  0  0  0  2  0  0  0  0  0  0
  -26.0200  -29.3910   20.8000 C   0  0  0  0  0  0  0  0  0  0  0  0
  -27.1800  -28.5210   20.8010 C   0  0  0  0  0  3  0  0  0  0  0  0
  -25.9440  -26.8400   19.6090 C   0  0  0  0  0  3  0  0  0  0  0  0
  -24.8120  -27.6870   19.5850 C   0  0  0  0  0  3  0  0  0  0  0  0
  -23.6100  -29.8540   20.2460 C   0  0  0  0  0  2  0  0  0  0  0  0
  -24.6780  -31.1140   22.1580 N   0  0  0  0  0  0  0  0  0  0  0  0
  -23.5240  -32.2350   23.7760 O   0  0  0  0  0  0  0  0  0  0  0  0
  -22.7130  -29.5540   22.5900 C   0  0  0  0  0  0  0  0  0  0  0  0
  -21.3850  -29.3840   22.4610 N   0  0  0  0  0  0  0  0  0  0  0  0
  -23.3810  -28.9330   23.4230 O   0  0  0  0  0  0  0  0  0  0  0  0
  -20.9020  -29.9340   21.7650 H   0  0  0  0  0  0  0  0  0  0  0  0
  -18.0050  -28.1710   22.9520 C   0  0  0  0  0  0  0  0  0  0  0  0
  -20.5610  -28.4480   23.2310 C   0  0  0  0  0  3  0  0  0  0  0  0
  -20.6720  -27.0110   22.6720 C   0  0  0  0  0  2  0  0  0  0  0  0
  -19.5810  -26.6710   21.6540 C   0  0  0  0  0  2  0  0  0  0  0  0
  -18.1930  -26.8150   22.2860 C   0  0  0  0  0  2  0  0  0  0  0  0
  -19.1170  -28.9440   23.3800 C   0  0  0  0  0  0  0  0  0  0  0  0
  -18.8890  -30.2090   23.9610 C   0  0  0  0  0  3  0  0  0  0  0  0
  -17.5800  -30.7040   24.1210 C   0  0  0  0  0  3  0  0  0  0  0  0
  -16.4830  -29.9280   23.7090 C   0  0  0  0  0  3  0  0  0  0  0  0
  -16.6940  -28.6650   23.1290 C   0  0  0  0  0  3  0  0  0  0  0  0
  -25.8890  -32.5760   23.8740 C   0  0  0  0  0  3  0  0  0  0  0  0
  -26.3920  -31.8120   25.1630 C   0  0  1  0  0  0  0  0  0  0  0  0
  -25.2880  -31.5980   26.2250 C   0  0  0  0  0  1  0  0  0  0  0  0
  -26.9670  -30.4260   24.7910 C   0  0  0  0  0  1  0  0  0  0  0  0
  -27.5420  -32.6080   25.8220 C   0  0  0  0  0  1  0  0  0  0  0  0
  -25.5830  -33.9780   24.2010 N   0  0  0  0  0  0  0  0  0  0  0  0
  -25.9120  -35.0340   23.4450 C   0  0  0  0  0  0  0  0  0  0  0  0
  -26.5710  -34.9300   22.4080 O   0  0  0  0  0  0  0  0  0  0  0  0
  -25.0040  -34.1330   25.0140 H   0  0  0  0  0  0  0  0  0  0  0  0
  -24.1880  -36.8420   23.1260 C   0  0  0  0  0  1  0  0  0  0  0  0
  -25.4390  -36.4250   23.9160 C   0  0  0  0  0  3  0  0  0  0  0  0
  -27.5890  -37.3110   24.7100 C   0  0  0  0  0  1  0  0  0  0  0  0
  -26.4730  -37.4730   23.7830 N   0  0  0  0  0  0  0  0  0  0  0  0
  -26.0750  -38.3970   23.9310 H   0  0  0  0  0  0  0  0  0  0  0  0
  1  3  1  0
  2  5  1  0
  2  6  2  0
  3  7  1  0
  4  3  2  0
  4  8  1  0
  5  1  2  0
  6  4  1  0
  9 17  1  0
 10 15  1  0
 11 12  1  0
 11 10  1  0
 13 12  1  0
 13 22  1  0
 13 14  1  0
 15  9  1  0
 15 14  1  0
 16  9  2  0
 17  5  1  0
 18 17  1  0
 19 20  2  0
 20 39  1  0
 21 20  1  0
 21 24  1  0
 22 19  1  0
 22 23  1  0
 23 21  2  0
 24 25  1  0
 25 26  2  0
 27 30  1  0
 27 26  1  0
 28 27  2  0
 29 28  1  0
 29 24  2  0
 30 31  1  0
 31 32  1  0
 32 33  2  0
 34 33  1  0
 34 38  1  0
 35 34  2  0
 36 31  2  0
 36 35  1  0
 37 36  1  0
 39 40  1  0
 40 43  1  0
 40 42  1  0
 41 39  2  0
 44 45  1  0
 44 19  1  0
 46 44  1  0
 47  6  1  0
 48 47  1  0
 49 48  2  0
 50 49  1  0
 51 62  2  0
 52 50  1  0
 52 57  1  0
 53 61  1  0
 53 63  1  0
 54 60  1  0
 54 56  1  0
 55 61  1  0
 56 57  2  0
 56 55  1  0
 58 52  2  0
 59 58  1  0
 59 54  2  0
 60 53  1  0
 61 51  1  0
 63 65  2  0
 64 63  1  0
 66 64  1  0
 67 76  2  0
 67 72  1  0
 68 64  1  0
 68 72  1  0
 69 68  1  0
 70 71  1  0
 70 69  1  0
 71 67  1  0
 72 73  2  0
 73 74  1  0
 75 74  2  0
 76 75  1  0
 77 51  1  0
 77 82  1  0
 77 78  1  0
 78 81  1  1
 78 79  1  0
 80 78  1  0
 82 85  1  0
 83 87  1  0
 83 82  1  0
 84 83  2  0
 87 86  1  0
 89 87  1  0
 89 90  1  0
 89 88  1  0
M  ISO  4   9 100  17 100  49 101  50 101
M  END
>  <TORSDO>  (94) 
F 19

>  <SCORE>  (94) 
-15.153

>  <name>  (94) 
93

>  <ligand_id>  (94) 
93

>  <original_smiles>  (94) 
[H]c1c([H])c([H])c2c(c1[H])C([H])([H])C([H])([H])C([H])([H])C2([H])N([H])C(=O)C1([H])N(C(=O)C([H])(N([H])C(=O)C([H])(N([H])C([H])([H])[H])C([H])([H])[H])C(C([H])([H])[H])(C([H])([H])[H])C([H])([H])[H])C([H])([H])c2c([H])c(OC([H])([H])C([H])([H])Oc3c([H])c(N([H])C(=O)N4C([H])([H])C([H])([H])C([H])([H])C([H])(n5nc(-c6c([H])c([H])c(Oc7c([H])c([H])c(F)c([H])c7F)c([H])c6[H])c(C(=O)N([H])[H])c5N([H])[H])C4([H])[H])c([H])c(C([H])([H])[H])c3C([H])([H])[H])c([H])c([H])c2C1([H])[H]

>  <smiles>  (94) 
[H]c1c([H])c([H])c2c(c1[H])C([H])([H])C([H])([H])C([H])([H])C2([H])N([H])C(=O)C1([H])N(C(=O)C([H])(N([H])C(=O)C([H])(N([H])C([H])([H])[H])C([H])([H])[H])C(C([H])([H])[H])(C([H])([H])[H])C([H])([H])[H])C([H])([H])c2c([H])c(OC([H])([H])C([H])([H])Oc3c([H])c(N([H])C(=O)N4C([H])([H])C([H])([H])C([H])([H])C([H])(n5nc(-c6c([H])c([H])c(Oc7c([H])c([H])c(F)c([H])c7F)c([H])c6[H])c(C(=O)N([H])[H])c5N([H])[H])C4([H])[H])c([H])c(C([H])([H])[H])c3C([H])([H])[H])c([H])c([H])c2C1([H])[H]

$$$$
94:0:0
     RDKit          3D

 89 97  0  0  1  0  0  0  0  0999 V2000
  -29.0680  -19.0290   20.3960 C   0  0  0  0  0  3  0  0  0  0  0  0
  -31.3520  -18.2610   20.5760 C   0  0  0  0  0  3  0  0  0  0  0  0
  -30.8190  -20.6940   20.5450 C   0  0  0  0  0  3  0  0  0  0  0  0
  -30.0040  -17.8490   20.4660 C   0  0  0  0  0  0  0  0  0  0  0  0
  -29.4280  -20.4920   20.4270 C   0  0  0  0  0  0  0  0  0  0  0  0
  -31.7410  -19.6230   20.6150 C   0  0  0  0  0  0  0  0  0  0  0  0
  -33.0590  -19.9140   20.7290 F   0  0  0  0  0  0  0  0  0  0  0  0
  -30.4800  -15.1080   20.3180 C   0  0  0  0  0  0  0  0  0  0  0  0
  -30.3710  -12.7470   19.3580 C   0  0  0  0  0  2  0  0  0  0  0  0
  -29.4240  -12.6760   18.1380 C   0  0  0  0  0  2  0  0  0  0  0  0
  -27.9710  -12.4380   18.5910 C   0  0  0  0  0  2  0  0  0  0  0  0
  -27.5660  -13.3520   19.7760 C   0  0  0  0  0  3  0  0  0  0  0  0
  -28.6380  -13.3910   20.8860 C   0  0  0  0  0  2  0  0  0  0  0  0
  -29.8860  -13.8400   20.2560 N   0  0  0  0  0  0  0  0  0  0  0  0
  -31.6850  -15.1440   20.0470 O   0  0  0  0  0  0  0  0  0  0  0  0
  -29.7000  -16.3160   20.4610 N   0  0  0  0  0  0  0  0  0  0  0  0
  -28.7200  -16.1040   20.5700 H   0  0  0  0  0  0  0  0  0  0  0  0
  -25.1950  -13.8950   20.5620 C   0  0  0  0  0  0  0  0  0  0  0  0
  -24.1440  -13.1070   20.9370 C   0  0  0  0  0  0  0  0  0  0  0  0
  -24.6200  -11.7610   20.8830 C   0  0  0  0  0  0  0  0  0  0  0  0
  -26.2420  -13.0310   20.2940 N   0  0  0  0  0  0  0  0  0  0  0  0
  -25.9080  -11.7400   20.5550 N   0  0  0  0  0  0  0  0  0  0  0  0
  -23.9060  -10.4890   21.0660 C   0  0  0  0  0  0  0  0  0  0  0  0
  -24.3510   -9.5180   21.9890 C   0  0  0  0  0  3  0  0  0  0  0  0
  -23.6340   -8.3130   22.1610 C   0  0  0  0  0  3  0  0  0  0  0  0
  -22.4590   -8.0720   21.4110 C   0  0  0  0  0  0  0  0  0  0  0  0
  -22.0340   -9.0330   20.4760 C   0  0  0  0  0  3  0  0  0  0  0  0
  -22.7510  -10.2280   20.3020 C   0  0  0  0  0  3  0  0  0  0  0  0
  -21.7130   -6.9210   21.4920 O   0  0  0  0  0  0  0  0  0  0  0  0
  -21.6640   -6.1770   22.6440 C   0  0  0  0  0  0  0  0  0  0  0  0
  -21.1930   -6.7160   23.8600 C   0  0  0  0  0  3  0  0  0  0  0  0
  -21.0930   -5.8960   25.0020 C   0  0  0  0  0  3  0  0  0  0  0  0
  -21.4540   -4.5380   24.9290 C   0  0  0  0  0  0  0  0  0  0  0  0
  -21.9190   -3.9980   23.7160 C   0  0  0  0  0  3  0  0  0  0  0  0
  -22.0200   -4.8140   22.5760 C   0  0  0  0  0  0  0  0  0  0  0  0
  -22.4470   -4.2840   21.4050 F   0  0  0  0  0  0  0  0  0  0  0  0
  -21.3520   -3.7480   26.0230 F   0  0  0  0  0  0  0  0  0  0  0  0
  -22.7460  -13.5680   21.2280 C   0  0  0  0  0  0  0  0  0  0  0  0
  -22.0360  -12.8610   22.1000 N   0  0  0  0  0  0  0  0  0  0  0  0
  -22.2920  -14.5920   20.7190 O   0  0  0  0  0  0  0  0  0  0  0  0
  -22.4170  -12.0330   22.5330 H   0  0  0  0  0  0  0  0  0  0  0  0
  -21.0980  -13.1520   22.3370 H   0  0  0  0  0  0  0  0  0  0  0  0
  -25.3410  -15.2700   20.3960 N   0  0  0  0  0  0  0  0  0  0  0  0
  -24.5610  -15.9080   20.5180 H   0  0  0  0  0  0  0  0  0  0  0  0
  -26.1620  -15.7190   20.0130 H   0  0  0  0  0  0  0  0  0  0  0  0
  -28.5450  -21.6830   20.3450 O   0  0  0  0  0  0  0  0  0  0  0  0
  -28.9410  -23.2110   20.4240 C   0  0  0  0  0  3  0  0  0  0  0  0
  -27.9280  -24.5880   20.2130 C   0  0  0  0  0  3  0  0  0  0  0  0
  -28.2160  -26.1400   20.3590 O   0  0  0  0  0  0  0  0  0  0  0  0
  -24.6360  -31.9540   23.2740 C   0  0  0  0  0  0  0  0  0  0  0  0
  -27.1800  -27.1620   20.2830 C   0  0  0  0  0  0  0  0  0  0  0  0
  -23.4330  -30.5600   21.6380 C   0  0  0  0  0  3  0  0  0  0  0  0
  -24.8740  -28.9600   20.2270 C   0  0  0  0  0  0  0  0  0  0  0  0
  -25.9930  -30.7910   21.4860 C   0  0  0  0  0  2  0  0  0  0  0  0
  -26.0570  -29.3910   20.8390 C   0  0  0  0  0  0  0  0  0  0  0  0
  -27.2110  -28.5100   20.8460 C   0  0  0  0  0  3  0  0  0  0  0  0
  -25.9690  -26.8470   19.6300 C   0  0  0  0  0  3  0  0  0  0  0  0
  -24.8460  -27.7040   19.6040 C   0  0  0  0  0  3  0  0  0  0  0  0
  -23.6560  -29.8730   20.2640 C   0  0  0  0  0  2  0  0  0  0  0  0
  -24.7080  -31.1250   22.1870 N   0  0  0  0  0  0  0  0  0  0  0  0
  -23.5490  -32.2510   23.7950 O   0  0  0  0  0  0  0  0  0  0  0  0
  -22.7390  -29.5660   22.6040 C   0  0  0  0  0  0  0  0  0  0  0  0
  -21.4100  -29.4040   22.4710 N   0  0  0  0  0  0  0  0  0  0  0  0
  -23.4000  -28.9410   23.4370 O   0  0  0  0  0  0  0  0  0  0  0  0
  -20.9320  -29.9570   21.7730 H   0  0  0  0  0  0  0  0  0  0  0  0
  -18.0170  -28.2300   22.9680 C   0  0  0  0  0  0  0  0  0  0  0  0
  -20.5770  -28.4770   23.2430 C   0  0  0  0  0  3  0  0  0  0  0  0
  -20.6700  -27.0410   22.6780 C   0  0  0  0  0  2  0  0  0  0  0  0
  -19.5700  -26.7200   21.6610 C   0  0  0  0  0  2  0  0  0  0  0  0
  -18.1870  -26.8780   22.2980 C   0  0  0  0  0  2  0  0  0  0  0  0
  -19.1390  -28.9880   23.3980 C   0  0  0  0  0  0  0  0  0  0  0  0
  -18.9240  -30.2540   23.9860 C   0  0  0  0  0  3  0  0  0  0  0  0
  -17.6220  -30.7610   24.1480 C   0  0  0  0  0  3  0  0  0  0  0  0
  -16.5150  -30.0020   23.7330 C   0  0  0  0  0  3  0  0  0  0  0  0
  -16.7120  -28.7370   23.1490 C   0  0  0  0  0  3  0  0  0  0  0  0
  -25.9150  -32.5860   23.9040 C   0  0  0  0  0  3  0  0  0  0  0  0
  -26.4120  -31.8200   25.1920 C   0  0  1  0  0  0  0  0  0  0  0  0
  -25.3080  -31.5970   26.2510 C   0  0  0  0  0  1  0  0  0  0  0  0
  -26.9920  -30.4350   24.8210 C   0  0  0  0  0  1  0  0  0  0  0  0
  -27.5620  -32.6110   25.8600 C   0  0  0  0  0  1  0  0  0  0  0  0
  -25.6090  -33.9870   24.2300 N   0  0  0  0  0  0  0  0  0  0  0  0
  -25.9270  -35.0390   23.4640 C   0  0  0  0  0  0  0  0  0  0  0  0
  -26.5730  -34.9300   22.4180 O   0  0  0  0  0  0  0  0  0  0  0  0
  -25.0320  -34.1460   25.0430 H   0  0  0  0  0  0  0  0  0  0  0  0
  -24.1850  -36.8310   23.1590 C   0  0  0  0  0  1  0  0  0  0  0  0
  -25.4550  -36.4320   23.9280 C   0  0  0  0  0  3  0  0  0  0  0  0
  -27.6120  -37.3320   24.6810 C   0  0  0  0  0  1  0  0  0  0  0  0
  -26.4810  -37.4850   23.7690 N   0  0  0  0  0  0  0  0  0  0  0  0
  -26.0790  -38.4070   23.9160 H   0  0  0  0  0  0  0  0  0  0  0  0
  1  5  2  0
  1  4  1  0
  2  6  1  0
  3  6  2  0
  4  2  2  0
  5  3  1  0
  6  7  1  0
  8 16  1  0
  9 14  1  0
 10 11  1  0
 10  9  1  0
 12 11  1  0
 12 21  1  0
 12 13  1  0
 14  8  1  0
 14 13  1  0
 15  8  2  0
 16  4  1  0
 16 17  1  0
 18 19  2  0
 19 38  1  0
 20 19  1  0
 20 23  1  0
 21 22  1  0
 21 18  1  0
 22 20  2  0
 23 24  1  0
 24 25  2  0
 26 29  1  0
 26 25  1  0
 27 26  2  0
 28 27  1  0
 28 23  2  0
 29 30  1  0
 30 31  1  0
 31 32  2  0
 33 32  1  0
 33 37  1  0
 34 33  2  0
 35 30  2  0
 35 34  1  0
 36 35  1  0
 38 39  1  0
 39 42  1  0
 39 41  1  0
 40 38  2  0
 43 44  1  0
 43 18  1  0
 45 43  1  0
 46 47  1  0
 46  5  1  0
 48 49  1  0
 48 47  2  0
 50 61  2  0
 51 49  1  0
 51 56  1  0
 52 60  1  0
 52 62  1  0
 53 59  1  0
 53 55  1  0
 54 60  1  0
 55 56  2  0
 55 54  1  0
 57 51  2  0
 58 57  1  0
 58 53  2  0
 59 52  1  0
 60 50  1  0
 62 64  2  0
 63 62  1  0
 65 63  1  0
 66 75  2  0
 66 71  1  0
 67 63  1  0
 67 71  1  0
 68 67  1  0
 69 70  1  0
 69 68  1  0
 70 66  1  0
 71 72  2  0
 72 73  1  0
 74 73  2  0
 75 74  1  0
 76 50  1  0
 76 81  1  0
 76 77  1  0
 77 80  1  1
 77 78  1  0
 79 77  1  0
 81 84  1  0
 82 86  1  0
 82 81  1  0
 83 82  2  0
 86 85  1  0
 88 89  1  0
 88 86  1  0
 88 87  1  0
M  ISO  4   8 100  16 100  48 101  49 101
M  END
>  <TORSDO>  (95) 
F 19

>  <SCORE>  (95) 
-15.120

>  <name>  (95) 
94

>  <ligand_id>  (95) 
94

>  <original_smiles>  (95) 
[H]c1c([H])c([H])c2c(c1[H])C([H])([H])C([H])([H])C([H])([H])C2([H])N([H])C(=O)C1([H])N(C(=O)C([H])(N([H])C(=O)C([H])(N([H])C([H])([H])[H])C([H])([H])[H])C(C([H])([H])[H])(C([H])([H])[H])C([H])([H])[H])C([H])([H])c2c([H])c(OC([H])([H])C([H])([H])Oc3c([H])c(F)c([H])c(N([H])C(=O)N4C([H])([H])C([H])([H])C([H])([H])C([H])(n5nc(-c6c([H])c([H])c(Oc7c([H])c([H])c(F)c([H])c7F)c([H])c6[H])c(C(=O)N([H])[H])c5N([H])[H])C4([H])[H])c3[H])c([H])c([H])c2C1([H])[H]

>  <smiles>  (95) 
[H]c1c([H])c([H])c2c(c1[H])C([H])([H])C([H])([H])C([H])([H])C2([H])N([H])C(=O)C1([H])N(C(=O)C([H])(N([H])C(=O)C([H])(N([H])C([H])([H])[H])C([H])([H])[H])C(C([H])([H])[H])(C([H])([H])[H])C([H])([H])[H])C([H])([H])c2c([H])c(OC([H])([H])C([H])([H])Oc3c([H])c(F)c([H])c(N([H])C(=O)N4C([H])([H])C([H])([H])C([H])([H])C([H])(n5nc(-c6c([H])c([H])c(Oc7c([H])c([H])c(F)c([H])c7F)c([H])c6[H])c(C(=O)N([H])[H])c5N([H])[H])C4([H])[H])c3[H])c([H])c([H])c2C1([H])[H]

$$$$
95:0:0
     RDKit          3D

 91 99  0  0  1  0  0  0  0  0999 V2000
  -29.5070  -17.3160   18.7050 C   0  0  0  0  0  3  0  0  0  0  0  0
  -29.2890  -19.7620   18.6400 C   0  0  0  0  0  3  0  0  0  0  0  0
  -29.1530  -18.4990   18.0260 C   0  0  0  0  0  0  0  0  0  0  0  0
  -30.1200  -18.6600   20.6460 C   0  0  0  0  0  0  0  0  0  0  0  0
  -29.9870  -17.3410   20.0310 C   0  0  0  0  0  0  0  0  0  0  0  0
  -29.7860  -19.9070   19.9570 C   0  0  0  0  0  0  0  0  0  0  0  0
  -28.6020  -18.4130   16.6150 C   0  0  0  0  0  1  0  0  0  0  0  0
  -30.6390  -18.7570   22.0690 C   0  0  0  0  0  1  0  0  0  0  0  0
  -30.8840  -14.9230   20.2810 C   0  0  0  0  0  0  0  0  0  0  0  0
  -30.6770  -12.6530   19.2720 C   0  0  0  0  0  2  0  0  0  0  0  0
  -29.7400  -12.7530   18.0480 C   0  0  0  0  0  2  0  0  0  0  0  0
  -28.2680  -12.5890   18.4740 C   0  0  0  0  0  2  0  0  0  0  0  0
  -27.9040  -13.4610   19.7060 C   0  0  0  0  0  3  0  0  0  0  0  0
  -28.9620  -13.3460   20.8250 C   0  0  0  0  0  2  0  0  0  0  0  0
  -30.2670  -13.6920   20.2460 N   0  0  0  0  0  0  0  0  0  0  0  0
  -32.0330  -15.0480   19.8480 O   0  0  0  0  0  0  0  0  0  0  0  0
  -30.1600  -16.0270   20.6980 N   0  0  0  0  0  0  0  0  0  0  0  0
  -29.3910  -15.7820   21.3050 H   0  0  0  0  0  0  0  0  0  0  0  0
  -25.5170  -14.0510   20.4380 C   0  0  0  0  0  0  0  0  0  0  0  0
  -24.4510  -13.2760   20.8070 C   0  0  0  0  0  0  0  0  0  0  0  0
  -24.9110  -11.9240   20.7650 C   0  0  0  0  0  0  0  0  0  0  0  0
  -26.5580  -13.1710   20.1930 N   0  0  0  0  0  0  0  0  0  0  0  0
  -26.2000  -11.8860   20.4510 N   0  0  0  0  0  0  0  0  0  0  0  0
  -24.1820  -10.6610   20.9500 C   0  0  0  0  0  0  0  0  0  0  0  0
  -24.5800   -9.7160   21.9220 C   0  0  0  0  0  3  0  0  0  0  0  0
  -23.8510   -8.5180   22.0950 C   0  0  0  0  0  3  0  0  0  0  0  0
  -22.7130   -8.2580   21.2950 C   0  0  0  0  0  0  0  0  0  0  0  0
  -22.3350   -9.1930   20.3140 C   0  0  0  0  0  3  0  0  0  0  0  0
  -23.0640  -10.3810   20.1410 C   0  0  0  0  0  3  0  0  0  0  0  0
  -21.9600   -7.1110   21.3750 O   0  0  0  0  0  0  0  0  0  0  0  0
  -21.8140   -6.4250   22.5530 C   0  0  0  0  0  0  0  0  0  0  0  0
  -21.1880   -7.0050   23.6790 C   0  0  0  0  0  3  0  0  0  0  0  0
  -20.9950   -6.2420   24.8480 C   0  0  0  0  0  3  0  0  0  0  0  0
  -21.4200   -4.9000   24.8910 C   0  0  0  0  0  0  0  0  0  0  0  0
  -22.0380   -4.3200   23.7700 C   0  0  0  0  0  3  0  0  0  0  0  0
  -22.2320   -5.0810   22.6040 C   0  0  0  0  0  0  0  0  0  0  0  0
  -22.8090   -4.5110   21.5180 F   0  0  0  0  0  0  0  0  0  0  0  0
  -21.2300   -4.1640   26.0120 F   0  0  0  0  0  0  0  0  0  0  0  0
  -23.0550  -13.7530   21.0860 C   0  0  0  0  0  0  0  0  0  0  0  0
  -22.3300  -13.0520   21.9510 N   0  0  0  0  0  0  0  0  0  0  0  0
  -22.6160  -14.7810   20.5740 O   0  0  0  0  0  0  0  0  0  0  0  0
  -22.6980  -12.2200   22.3880 H   0  0  0  0  0  0  0  0  0  0  0  0
  -21.3930  -13.3530   22.1800 H   0  0  0  0  0  0  0  0  0  0  0  0
  -25.6840  -15.4220   20.2690 N   0  0  0  0  0  0  0  0  0  0  0  0
  -24.9220  -16.0800   20.3930 H   0  0  0  0  0  0  0  0  0  0  0  0
  -26.5350  -15.8610   19.9420 H   0  0  0  0  0  0  0  0  0  0  0  0
  -29.9420  -21.2080   20.5330 O   0  0  0  0  0  0  0  0  0  0  0  0
  -29.3560  -22.4440   19.9200 C   0  0  0  0  0  3  0  0  0  0  0  0
  -29.4620  -23.8950   20.6380 C   0  0  0  0  0  3  0  0  0  0  0  0
  -28.5780  -25.1250   20.0650 C   0  0  0  0  0  2  0  0  0  0  0  0
  -28.6550  -26.5400   20.5820 O   0  0  0  0  0  0  0  0  0  0  0  0
  -24.7110  -31.9780   23.3350 C   0  0  0  0  0  0  0  0  0  0  0  0
  -27.5510  -27.4170   20.4340 C   0  0  0  0  0  0  0  0  0  0  0  0
  -23.6200  -30.5510   21.6440 C   0  0  0  0  0  3  0  0  0  0  0  0
  -25.1700  -29.0270   20.2920 C   0  0  0  0  0  0  0  0  0  0  0  0
  -26.1630  -30.9040   21.5950 C   0  0  0  0  0  2  0  0  0  0  0  0
  -26.3000  -29.5220   20.9560 C   0  0  0  0  0  0  0  0  0  0  0  0
  -27.4890  -28.7270   21.0230 C   0  0  0  0  0  3  0  0  0  0  0  0
  -26.4050  -27.0080   19.7130 C   0  0  0  0  0  3  0  0  0  0  0  0
  -25.2300  -27.7780   19.6580 C   0  0  0  0  0  3  0  0  0  0  0  0
  -23.9170  -29.8810   20.2780 C   0  0  0  0  0  2  0  0  0  0  0  0
  -24.8480  -31.1640   22.2480 N   0  0  0  0  0  0  0  0  0  0  0  0
  -23.5970  -32.2380   23.8120 O   0  0  0  0  0  0  0  0  0  0  0  0
  -22.9280  -29.5250   22.5740 C   0  0  0  0  0  0  0  0  0  0  0  0
  -21.6120  -29.3230   22.3850 N   0  0  0  0  0  0  0  0  0  0  0  0
  -23.5770  -28.9120   23.4270 O   0  0  0  0  0  0  0  0  0  0  0  0
  -21.1480  -29.8700   21.6740 H   0  0  0  0  0  0  0  0  0  0  0  0
  -18.2280  -28.1010   22.7610 C   0  0  0  0  0  0  0  0  0  0  0  0
  -20.7740  -28.3740   23.1200 C   0  0  0  0  0  3  0  0  0  0  0  0
  -20.9040  -26.9480   22.5350 C   0  0  0  0  0  2  0  0  0  0  0  0
  -19.8390  -26.6280   21.4810 C   0  0  0  0  0  2  0  0  0  0  0  0
  -18.4360  -26.7590   22.0790 C   0  0  0  0  0  2  0  0  0  0  0  0
  -19.3260  -28.8660   23.2350 C   0  0  0  0  0  0  0  0  0  0  0  0
  -19.0780  -30.1220   23.8300 C   0  0  0  0  0  3  0  0  0  0  0  0
  -17.7640  -30.6130   23.9570 C   0  0  0  0  0  3  0  0  0  0  0  0
  -16.6800  -29.8440   23.4990 C   0  0  0  0  0  3  0  0  0  0  0  0
  -16.9120  -28.5900   22.9060 C   0  0  0  0  0  3  0  0  0  0  0  0
  -25.9470  -32.6400   24.0180 C   0  0  0  0  0  3  0  0  0  0  0  0
  -26.4010  -31.8970   25.3340 C   0  0  1  0  0  0  0  0  0  0  0  0
  -25.2440  -31.6260   26.3250 C   0  0  0  0  0  1  0  0  0  0  0  0
  -27.0580  -30.5380   24.9970 C   0  0  0  0  0  1  0  0  0  0  0  0
  -27.4730  -32.7360   26.0660 C   0  0  0  0  0  1  0  0  0  0  0  0
  -25.5990  -34.0380   24.3090 N   0  0  0  0  0  0  0  0  0  0  0  0
  -25.9110  -35.0800   23.5260 C   0  0  0  0  0  0  0  0  0  0  0  0
  -26.5910  -34.9680   22.5030 O   0  0  0  0  0  0  0  0  0  0  0  0
  -24.9950  -34.1970   25.1010 H   0  0  0  0  0  0  0  0  0  0  0  0
  -24.1270  -36.8100   23.1360 C   0  0  0  0  0  1  0  0  0  0  0  0
  -25.3880  -36.4670   23.9470 C   0  0  0  0  0  3  0  0  0  0  0  0
  -27.4880  -37.4560   24.7450 C   0  0  0  0  0  1  0  0  0  0  0  0
  -26.3870  -37.5460   23.7910 N   0  0  0  0  0  0  0  0  0  0  0  0
  -25.9520  -38.4590   23.8940 H   0  0  0  0  0  0  0  0  0  0  0  0
  1  5  1  0
  2  6  2  0
  3  2  1  0
  3  1  2  0
  4  8  1  0
  5  4  2  0
  5 17  1  0
  6 47  1  0
  6  4  1  0
  7  3  1  0
  9 17  1  0
 10 15  1  0
 11 12  1  0
 11 10  1  0
 13 12  1  0
 13 22  1  0
 13 14  1  0
 15  9  1  0
 15 14  1  0
 16  9  2  0
 17 18  1  0
 19 20  2  0
 20 39  1  0
 21 20  1  0
 21 24  1  0
 22 19  1  0
 22 23  1  0
 23 21  2  0
 24 25  1  0
 25 26  2  0
 27 30  1  0
 27 26  1  0
 28 27  2  0
 29 28  1  0
 29 24  2  0
 30 31  1  0
 31 36  2  0
 31 32  1  0
 32 33  2  0
 33 34  1  0
 34 38  1  0
 35 34  2  0
 36 35  1  0
 37 36  1  0
 39 40  1  0
 40 43  1  0
 40 42  1  0
 41 39  2  0
 44 45  1  0
 44 19  1  0
 46 44  1  0
 48 47  1  0
 48 49  2  0
 50 51  1  0
 50 49  1  0
 52 63  2  0
 53 51  1  0
 53 58  1  0
 54 62  1  0
 54 64  1  0
 55 57  1  0
 56 62  1  0
 57 58  2  0
 57 56  1  0
 59 53  2  0
 60 59  1  0
 60 55  2  0
 61 55  1  0
 61 54  1  0
 62 52  1  0
 64 66  2  0
 65 64  1  0
 67 65  1  0
 68 77  2  0
 68 73  1  0
 69 65  1  0
 69 73  1  0
 70 69  1  0
 71 72  1  0
 71 70  1  0
 72 68  1  0
 73 74  2  0
 74 75  1  0
 76 75  2  0
 77 76  1  0
 78 52  1  0
 78 83  1  0
 78 79  1  0
 79 82  1  1
 79 80  1  0
 81 79  1  0
 83 86  1  0
 84 88  1  0
 84 83  1  0
 85 84  2  0
 88 87  1  0
 90 91  1  0
 90 88  1  0
 90 89  1  0
M  ISO  4   9 100  17 100  50 101  51 101
M  END
>  <TORSDO>  (96) 
F 20

>  <SCORE>  (96) 
-13.505

>  <name>  (96) 
95

>  <ligand_id>  (96) 
95

>  <original_smiles>  (96) 
[H]c1c([H])c([H])c2c(c1[H])C([H])([H])C([H])([H])C([H])([H])C2([H])N([H])C(=O)C1([H])N(C(=O)C([H])(N([H])C(=O)C([H])(N([H])C([H])([H])[H])C([H])([H])[H])C(C([H])([H])[H])(C([H])([H])[H])C([H])([H])[H])C([H])([H])c2c([H])c(OC([H])([H])C([H])([H])C([H])([H])Oc3c([H])c(C([H])([H])[H])c([H])c(N([H])C(=O)N4C([H])([H])C([H])([H])C([H])([H])C([H])(n5nc(-c6c([H])c([H])c(Oc7c([H])c([H])c(F)c([H])c7F)c([H])c6[H])c(C(=O)N([H])[H])c5N([H])[H])C4([H])[H])c3C([H])([H])[H])c([H])c([H])c2C1([H])[H]

>  <smiles>  (96) 
[H]c1c([H])c([H])c2c(c1[H])C([H])([H])C([H])([H])C([H])([H])C2([H])N([H])C(=O)C1([H])N(C(=O)C([H])(N([H])C(=O)C([H])(N([H])C([H])([H])[H])C([H])([H])[H])C(C([H])([H])[H])(C([H])([H])[H])C([H])([H])[H])C([H])([H])c2c([H])c(OC([H])([H])C([H])([H])C([H])([H])Oc3c([H])c(C([H])([H])[H])c([H])c(N([H])C(=O)N4C([H])([H])C([H])([H])C([H])([H])C([H])(n5nc(-c6c([H])c([H])c(Oc7c([H])c([H])c(F)c([H])c7F)c([H])c6[H])c(C(=O)N([H])[H])c5N([H])[H])C4([H])[H])c3C([H])([H])[H])c([H])c([H])c2C1([H])[H]

$$$$
96:0:0
     RDKit          3D

112120  0  0  1  0  0  0  0  0999 V2000
  -21.3530  -24.1540   27.0250 C   0  0  0  0  0  2  0  0  0  0  0  0
  -21.4400  -24.1450   25.4840 C   0  0  0  0  0  2  0  0  0  0  0  0
  -20.1530  -24.5720   24.7720 C   0  0  0  0  0  2  0  0  0  0  0  0
  -20.3590  -25.0440   23.3150 C   0  0  0  0  0  2  0  0  0  0  0  0
  -21.5370  -26.0130   23.0650 C   0  0  0  0  0  2  0  0  0  0  0  0
  -21.4300  -26.7650   21.7230 C   0  0  0  0  0  2  0  0  0  0  0  0
  -22.7820  -27.2280   21.1250 C   0  0  0  0  0  2  0  0  0  0  0  0
  -23.6170  -28.1570   22.0150 C   0  0  0  0  0  0  0  0  0  0  0  0
  -24.9490  -27.9980   21.9620 N   0  0  0  0  0  0  0  0  0  0  0  0
  -23.0730  -29.0160   22.7070 O   0  0  0  0  0  0  0  0  0  0  0  0
  -25.3050  -27.2740   21.3480 H   0  0  0  0  0  0  0  0  0  0  0  0
  -25.9660  -28.8020   22.6370 C   0  0  0  0  0  2  0  0  0  0  0  0
  -26.0650  -28.5030   24.1470 C   0  0  0  0  0  2  0  0  0  0  0  0
  -27.3570  -29.0420   24.7930 C   0  0  0  0  0  2  0  0  0  0  0  0
  -27.3000  -30.4820   25.3460 C   0  0  0  0  0  2  0  0  0  0  0  0
  -27.0700  -30.5070   26.7630 O   0  0  0  0  0  0  0  0  0  0  0  0
  -22.7210  -27.1140   31.2550 C   0  0  0  0  0  0  0  0  0  0  0  0
  -25.7830  -30.3960   27.2470 C   0  0  0  0  0  0  0  0  0  0  0  0
  -21.6220  -28.6060   29.6230 C   0  0  0  0  0  3  0  0  0  0  0  0
  -23.1740  -30.1580   28.3210 C   0  0  0  0  0  0  0  0  0  0  0  0
  -24.0200  -29.0550   30.3980 C   0  0  0  0  0  2  0  0  0  0  0  0
  -24.2760  -29.6880   29.0480 C   0  0  0  0  0  0  0  0  0  0  0  0
  -25.5790  -29.8070   28.5170 C   0  0  0  0  0  3  0  0  0  0  0  0
  -24.6590  -30.8790   26.5390 C   0  0  0  0  0  3  0  0  0  0  0  0
  -23.3600  -30.7480   27.0610 C   0  0  0  0  0  3  0  0  0  0  0  0
  -21.8080  -29.9950   28.9540 C   0  0  0  0  0  2  0  0  0  0  0  0
  -22.8080  -28.2030   30.4430 N   0  0  0  0  0  0  0  0  0  0  0  0
  -21.6670  -26.4720   31.3570 O   0  0  0  0  0  0  0  0  0  0  0  0
  -21.2580  -27.5790   28.5300 C   0  0  0  0  0  0  0  0  0  0  0  0
  -19.9900  -27.5990   28.0850 N   0  0  0  0  0  0  0  0  0  0  0  0
  -22.1080  -26.8050   28.0810 O   0  0  0  0  0  0  0  0  0  0  0  0
  -19.3560  -28.2780   28.4800 H   0  0  0  0  0  0  0  0  0  0  0  0
  -16.9680  -26.8050   26.2760 C   0  0  0  0  0  0  0  0  0  0  0  0
  -19.4360  -26.7420   27.0400 C   0  0  0  0  0  3  0  0  0  0  0  0
  -19.7820  -27.3070   25.6440 C   0  0  0  0  0  2  0  0  0  0  0  0
  -18.6860  -28.2080   25.0640 C   0  0  0  0  0  2  0  0  0  0  0  0
  -17.3690  -27.4310   24.9490 C   0  0  0  0  0  2  0  0  0  0  0  0
  -17.9390  -26.4870   27.2600 C   0  0  0  0  0  0  0  0  0  0  0  0
  -17.5170  -25.9250   28.4840 C   0  0  0  0  0  3  0  0  0  0  0  0
  -16.1550  -25.6760   28.7290 C   0  0  0  0  0  3  0  0  0  0  0  0
  -15.1970  -25.9790   27.7440 C   0  0  0  0  0  3  0  0  0  0  0  0
  -15.6030  -26.5400   26.5210 C   0  0  0  0  0  3  0  0  0  0  0  0
  -23.9330  -26.6420   32.1170 C   0  0  0  0  0  3  0  0  0  0  0  0
  -24.7330  -25.4490   31.4610 C   0  0  1  0  0  0  0  0  0  0  0  0
  -23.8340  -24.2660   31.0330 C   0  0  0  0  0  1  0  0  0  0  0  0
  -25.5130  -25.9310   30.2150 C   0  0  0  0  0  1  0  0  0  0  0  0
  -25.7860  -24.9160   32.4580 C   0  0  0  0  0  1  0  0  0  0  0  0
  -23.4130  -26.2580   33.4350 N   0  0  0  0  0  0  0  0  0  0  0  0
  -23.4690  -27.0290   34.5290 C   0  0  0  0  0  0  0  0  0  0  0  0
  -24.0450  -28.1210   34.5460 O   0  0  0  0  0  0  0  0  0  0  0  0
  -22.8890  -25.3970   33.4850 H   0  0  0  0  0  0  0  0  0  0  0  0
  -21.4240  -27.1940   35.9730 C   0  0  0  0  0  1  0  0  0  0  0  0
  -22.7850  -26.5040   35.8030 C   0  0  0  0  0  3  0  0  0  0  0  0
  -24.7930  -25.8540   37.0570 C   0  0  0  0  0  1  0  0  0  0  0  0
  -23.5940  -26.6880   37.0260 N   0  0  0  0  0  0  0  0  0  0  0  0
  -23.0440  -26.4880   37.8570 H   0  0  0  0  0  0  0  0  0  0  0  0
  -22.7090  -23.8890   27.7120 C   0  0  0  0  0  2  0  0  0  0  0  0
  -24.6290  -25.1510   26.7360 C   0  0  0  0  0  0  0  0  0  0  0  0
  -23.6050  -25.0460   27.5970 N   0  0  0  0  0  0  0  0  0  0  0  0
  -25.0740  -24.1810   26.1200 O   0  0  0  0  0  0  0  0  0  0  0  0
  -23.3180  -25.8880   28.0810 H   0  0  0  0  0  0  0  0  0  0  0  0
  -25.1800  -26.5640   26.4940 C   0  0  0  0  0  2  0  0  0  0  0  0
  -26.1510  -26.6890   25.2990 C   0  0  0  0  0  2  0  0  0  0  0  0
  -27.6060  -26.2850   25.6000 C   0  0  0  0  0  2  0  0  0  0  0  0
  -28.6380  -26.9180   24.6470 C   0  0  0  0  0  2  0  0  0  0  0  0
  -27.2770  -27.3920   22.3870 O   0  0  0  0  0  0  0  0  0  0  0  0
  -28.1860  -25.0570   22.7660 O   0  0  0  0  0  0  0  0  0  0  0  0
  -28.3560  -26.5140   22.8820 S   0  0  2  0  0  0  0  0  0  0  0  0
  -31.2860  -28.6640   20.9890 C   0  0  0  0  0  3  0  0  0  0  0  0
  -32.1760  -26.4280   21.4230 C   0  0  0  0  0  3  0  0  0  0  0  0
  -30.0690  -28.2930   21.5990 C   0  0  0  0  0  3  0  0  0  0  0  0
  -30.9590  -26.0580   22.0270 C   0  0  0  0  0  3  0  0  0  0  0  0
  -32.3360  -27.7200   20.8780 C   0  0  0  0  0  0  0  0  0  0  0  0
  -29.9000  -26.9850   22.0930 C   0  0  0  0  0  0  0  0  0  0  0  0
  -33.6960  -28.9500   19.2630 C   0  0  0  0  0  0  0  0  0  0  0  0
  -34.2350  -29.2520   16.8740 C   0  0  0  0  0  2  0  0  0  0  0  0
  -33.1220  -29.9900   16.1110 C   0  0  0  0  0  2  0  0  0  0  0  0
  -32.0530  -28.9990   15.6200 C   0  0  0  0  0  2  0  0  0  0  0  0
  -31.5410  -28.0790   16.7560 C   0  0  0  0  0  3  0  0  0  0  0  0
  -32.7290  -27.4430   17.5100 C   0  0  0  0  0  2  0  0  0  0  0  0
  -33.6410  -28.5030   17.9860 N   0  0  0  0  0  0  0  0  0  0  0  0
  -34.0800  -30.0740   19.6000 O   0  0  0  0  0  0  0  0  0  0  0  0
  -33.5310  -27.9720   20.1630 N   0  0  0  0  0  0  0  0  0  0  0  0
  -33.9640  -27.1150   19.8500 H   0  0  0  0  0  0  0  0  0  0  0  0
  -29.3160  -26.7750   16.6270 C   0  0  0  0  0  0  0  0  0  0  0  0
  -28.8910  -25.7730   15.7950 C   0  0  0  0  0  0  0  0  0  0  0  0
  -29.9870  -25.4960   14.9210 C   0  0  0  0  0  0  0  0  0  0  0  0
  -30.6210  -27.0590   16.2490 N   0  0  0  0  0  0  0  0  0  0  0  0
  -31.0360  -26.2410   15.2480 N   0  0  0  0  0  0  0  0  0  0  0  0
  -30.0800  -24.6080   13.7550 C   0  0  0  0  0  0  0  0  0  0  0  0
  -31.1310  -23.6750   13.6220 C   0  0  0  0  0  3  0  0  0  0  0  0
  -31.1910  -22.8190   12.5010 C   0  0  0  0  0  3  0  0  0  0  0  0
  -30.1910  -22.8890   11.5020 C   0  0  0  0  0  0  0  0  0  0  0  0
  -29.1610  -23.8370   11.6290 C   0  0  0  0  0  3  0  0  0  0  0  0
  -29.1060  -24.6900   12.7430 C   0  0  0  0  0  3  0  0  0  0  0  0
  -30.1790  -22.1130   10.3660 O   0  0  0  0  0  0  0  0  0  0  0  0
  -30.7910  -20.8860   10.3280 C   0  0  0  0  0  0  0  0  0  0  0  0
  -30.4730  -19.8640   11.2480 C   0  0  0  0  0  3  0  0  0  0  0  0
  -31.0740  -18.5950   11.1270 C   0  0  0  0  0  3  0  0  0  0  0  0
  -31.9860  -18.3440   10.0840 C   0  0  0  0  0  0  0  0  0  0  0  0
  -32.3000  -19.3590    9.1650 C   0  0  0  0  0  3  0  0  0  0  0  0
  -31.7030  -20.6250    9.2850 C   0  0  0  0  0  0  0  0  0  0  0  0
  -31.9920  -21.5930    8.3820 F   0  0  0  0  0  0  0  0  0  0  0  0
  -32.5590  -17.1250    9.9630 F   0  0  0  0  0  0  0  0  0  0  0  0
  -27.5160  -25.1690   15.7470 C   0  0  0  0  0  0  0  0  0  0  0  0
  -27.4160  -23.9010   15.3610 N   0  0  0  0  0  0  0  0  0  0  0  0
  -26.5250  -25.8060   16.0980 O   0  0  0  0  0  0  0  0  0  0  0  0
  -28.2290  -23.3700   15.0860 H   0  0  0  0  0  0  0  0  0  0  0  0
  -26.5110  -23.4560   15.3420 H   0  0  0  0  0  0  0  0  0  0  0  0
  -28.7020  -27.4820   17.6570 N   0  0  0  0  0  0  0  0  0  0  0  0
  -27.7410  -27.3200   17.9360 H   0  0  0  0  0  0  0  0  0  0  0  0
  -29.1460  -28.2220   18.1870 H   0  0  0  0  0  0  0  0  0  0  0  0
  1 57  1  0
  2  1  1  0
  3  2  1  0
  4  3  1  0
  5  4  1  0
  6  5  1  0
  7  6  1  0
  7  8  1  0
  8 10  2  0
  9  8  1  0
  9 12  1  0
 11  9  1  0
 12 13  1  0
 13 14  1  0
 14 15  1  0
 15 16  1  0
 16 18  1  0
 17 28  2  0
 18 23  1  0
 19 29  1  0
 19 27  1  0
 20 26  1  0
 20 22  1  0
 21 27  1  0
 22 21  1  0
 23 22  2  0
 24 25  1  0
 24 18  2  0
 25 20  2  0
 26 19  1  0
 27 17  1  0
 30 32  1  0
 30 29  1  0
 31 29  2  0
 33 42  2  0
 33 38  1  0
 34 38  1  0
 34 30  1  0
 35 34  1  0
 36 35  1  0
 37 36  1  0
 37 33  1  0
 38 39  2  0
 39 40  1  0
 41 40  2  0
 42 41  1  0
 43 17  1  0
 43 48  1  0
 44 43  1  0
 44 47  1  1
 45 44  1  0
 46 44  1  0
 48 51  1  0
 48 49  1  0
 49 50  2  0
 49 53  1  0
 53 52  1  0
 53 55  1  0
 55 54  1  0
 55 56  1  0
 58 59  1  0
 59 57  1  0
 59 61  1  0
 60 58  2  0
 62 58  1  0
 63 64  1  0
 63 62  1  0
 65 64  1  0
 66 68  2  0
 67 68  2  0
 68 65  1  1
 69 71  1  0
 70 72  2  0
 71 74  2  0
 72 74  1  0
 73 69  2  0
 73 70  1  0
 74 68  1  0
 75 82  2  0
 75 83  1  0
 76 81  1  0
 77 76  1  0
 78 77  1  0
 79 78  1  0
 79 80  1  0
 80 81  1  0
 81 75  1  0
 83 73  1  0
 84 83  1  0
 85110  1  0
 86 85  2  0
 87 89  2  0
 87 86  1  0
 88 85  1  0
 88 79  1  0
 89 88  1  0
 90 87  1  0
 91 90  1  0
 92 91  2  0
 93 94  2  0
 93 92  1  0
 94 95  1  0
 95 90  2  0
 96 93  1  0
 97 96  1  0
 97 98  1  0
 99 98  2  0
100 99  1  0
101102  1  0
101100  2  0
102 97  2  0
103102  1  0
104100  1  0
105 86  1  0
105107  2  0
106105  1  0
108106  1  0
109106  1  0
110111  1  0
110112  1  0
M  ISO  4  15 101  16 101  75 100  83 100
M  END
>  <TORSDO>  (97) 
F 35

>  <SCORE>  (97) 
67.764

>  <name>  (97) 
96

>  <ligand_id>  (97) 
96

>  <original_smiles>  (97) 
[H]c1c([H])c([H])c2c(c1[H])C([H])([H])C([H])([H])C([H])([H])C2([H])N([H])C(=O)C1([H])N(C(=O)C([H])(N([H])C(=O)C([H])(N([H])C([H])([H])[H])C([H])([H])[H])C(C([H])([H])[H])(C([H])([H])[H])C([H])([H])[H])C([H])([H])c2c([H])c(OC([H])([H])C([H])([H])C([H])([H])C([H])([H])N([H])C(=O)C([H])([H])C([H])([H])C([H])([H])C([H])([H])C([H])([H])C([H])([H])C([H])([H])C([H])([H])N([H])C(=O)C([H])([H])C([H])([H])C([H])([H])C([H])([H])S(=O)(=O)c3c([H])c([H])c(N([H])C(=O)N4C([H])([H])C([H])([H])C([H])([H])C([H])(n5nc(-c6c([H])c([H])c(Oc7c([H])c([H])c(F)c([H])c7F)c([H])c6[H])c(C(=O)N([H])[H])c5N([H])[H])C4([H])[H])c([H])c3[H])c([H])c([H])c2C1([H])[H]

>  <smiles>  (97) 
[H]c1c([H])c([H])c2c(c1[H])C([H])([H])C([H])([H])C([H])([H])C2([H])N([H])C(=O)C1([H])N(C(=O)C([H])(N([H])C(=O)C([H])(N([H])C([H])([H])[H])C([H])([H])[H])C(C([H])([H])[H])(C([H])([H])[H])C([H])([H])[H])C([H])([H])c2c([H])c(OC([H])([H])C([H])([H])C([H])([H])C([H])([H])N([H])C(=O)C([H])([H])C([H])([H])C([H])([H])C([H])([H])C([H])([H])C([H])([H])C([H])([H])C([H])([H])N([H])C(=O)C([H])([H])C([H])([H])C([H])([H])C([H])([H])S(=O)(=O)c3c([H])c([H])c(N([H])C(=O)N4C([H])([H])C([H])([H])C([H])([H])C([H])(n5nc(-c6c([H])c([H])c(Oc7c([H])c([H])c(F)c([H])c7F)c([H])c6[H])c(C(=O)N([H])[H])c5N([H])[H])C4([H])[H])c([H])c3[H])c([H])c([H])c2C1([H])[H]

$$$$
97:0:0
     RDKit          3D

 89 97  0  0  1  0  0  0  0  0999 V2000
  -30.5490  -18.6060   19.3770 C   0  0  0  0  0  3  0  0  0  0  0  0
  -30.2720  -20.0400   19.2110 C   0  0  0  0  0  3  0  0  0  0  0  0
  -28.0350  -19.6540   19.8210 C   0  0  0  0  0  3  0  0  0  0  0  0
  -28.2990  -18.2460   20.0110 C   0  0  0  0  0  0  0  0  0  0  0  0
  -29.5680  -17.6200   19.7690 C   0  0  0  0  0  0  0  0  0  0  0  0
  -28.9760  -20.6430   19.4030 C   0  0  0  0  0  0  0  0  0  0  0  0
  -27.1450  -17.3860   20.5030 C   0  0  0  0  0  1  0  0  0  0  0  0
  -30.4670  -14.9960   19.4830 C   0  0  0  0  0  0  0  0  0  0  0  0
  -30.2860  -12.6240   18.6070 C   0  0  0  0  0  2  0  0  0  0  0  0
  -29.2250  -12.5710   17.4800 C   0  0  0  0  0  2  0  0  0  0  0  0
  -27.8100  -12.3820   18.0610 C   0  0  0  0  0  2  0  0  0  0  0  0
  -27.5330  -13.3290   19.2570 C   0  0  0  0  0  3  0  0  0  0  0  0
  -28.6970  -13.3260   20.2720 C   0  0  0  0  0  2  0  0  0  0  0  0
  -29.9130  -13.7200   19.5430 N   0  0  0  0  0  0  0  0  0  0  0  0
  -31.5980  -15.1190   18.9970 O   0  0  0  0  0  0  0  0  0  0  0  0
  -29.6580  -16.0910   19.8650 N   0  0  0  0  0  0  0  0  0  0  0  0
  -28.8480  -15.7180   20.3320 H   0  0  0  0  0  0  0  0  0  0  0  0
  -25.2720  -13.9510   20.2910 C   0  0  0  0  0  0  0  0  0  0  0  0
  -24.2290  -13.1960   20.7520 C   0  0  0  0  0  0  0  0  0  0  0  0
  -24.6320  -11.8340   20.5970 C   0  0  0  0  0  0  0  0  0  0  0  0
  -26.2460  -13.0540   19.8890 N   0  0  0  0  0  0  0  0  0  0  0  0
  -25.8750  -11.7700   20.1340 N   0  0  0  0  0  0  0  0  0  0  0  0
  -23.8790  -10.5890   20.8050 C   0  0  0  0  0  0  0  0  0  0  0  0
  -24.3160   -9.6070   21.7190 C   0  0  0  0  0  3  0  0  0  0  0  0
  -23.5650   -8.4280   21.9160 C   0  0  0  0  0  3  0  0  0  0  0  0
  -22.3620   -8.2250   21.1990 C   0  0  0  0  0  0  0  0  0  0  0  0
  -21.9430   -9.1970   20.2720 C   0  0  0  0  0  3  0  0  0  0  0  0
  -22.6960  -10.3660   20.0730 C   0  0  0  0  0  3  0  0  0  0  0  0
  -21.5800   -7.1000   21.3060 O   0  0  0  0  0  0  0  0  0  0  0  0
  -21.4480   -6.4270   22.4940 C   0  0  0  0  0  0  0  0  0  0  0  0
  -20.9080   -7.0430   23.6440 C   0  0  0  0  0  3  0  0  0  0  0  0
  -20.7260   -6.2950   24.8250 C   0  0  0  0  0  3  0  0  0  0  0  0
  -21.0730   -4.9320   24.8560 C   0  0  0  0  0  0  0  0  0  0  0  0
  -21.6050   -4.3150   23.7100 C   0  0  0  0  0  3  0  0  0  0  0  0
  -21.7890   -5.0590   22.5320 C   0  0  0  0  0  0  0  0  0  0  0  0
  -22.2830   -4.4550   21.4250 F   0  0  0  0  0  0  0  0  0  0  0  0
  -20.8900   -4.2100   25.9860 F   0  0  0  0  0  0  0  0  0  0  0  0
  -22.8950  -13.7060   21.2130 C   0  0  0  0  0  0  0  0  0  0  0  0
  -22.2640  -13.0120   22.1520 N   0  0  0  0  0  0  0  0  0  0  0  0
  -22.4270  -14.7570   20.7730 O   0  0  0  0  0  0  0  0  0  0  0  0
  -22.6600  -12.1630   22.5280 H   0  0  0  0  0  0  0  0  0  0  0  0
  -21.3740  -13.3360   22.5030 H   0  0  0  0  0  0  0  0  0  0  0  0
  -25.4580  -15.3230   20.1510 N   0  0  0  0  0  0  0  0  0  0  0  0
  -24.7160  -15.9810   20.3580 H   0  0  0  0  0  0  0  0  0  0  0  0
  -26.2340  -15.7450   19.6590 H   0  0  0  0  0  0  0  0  0  0  0  0
  -28.4640  -21.9970   19.1700 O   0  0  0  0  0  0  0  0  0  0  0  0
  -29.0910  -23.3940   19.1400 C   0  0  0  0  0  2  0  0  0  0  0  0
  -28.1110  -24.7550   18.9630 C   0  0  0  0  0  2  0  0  0  0  0  0
  -28.3660  -26.2520   19.3030 O   0  0  0  0  0  0  0  0  0  0  0  0
  -24.6230  -31.4580   22.9420 C   0  0  0  0  0  0  0  0  0  0  0  0
  -27.2810  -27.2010   19.3650 C   0  0  0  0  0  0  0  0  0  0  0  0
  -23.4400  -30.2400   21.1550 C   0  0  0  0  0  3  0  0  0  0  0  0
  -24.9110  -28.8790   19.5500 C   0  0  0  0  0  0  0  0  0  0  0  0
  -25.9870  -30.5800   21.0110 C   0  0  0  0  0  2  0  0  0  0  0  0
  -26.0860  -29.2780   20.2000 C   0  0  0  0  0  0  0  0  0  0  0  0
  -27.2710  -28.4590   20.0910 C   0  0  0  0  0  3  0  0  0  0  0  0
  -26.0730  -26.9030   18.6930 C   0  0  0  0  0  3  0  0  0  0  0  0
  -24.9170  -27.7050   18.7840 C   0  0  0  0  0  3  0  0  0  0  0  0
  -23.6660  -29.7360   19.7050 C   0  0  0  0  0  2  0  0  0  0  0  0
  -24.7040  -30.7740   21.7600 N   0  0  0  0  0  0  0  0  0  0  0  0
  -23.5350  -31.6560   23.5040 O   0  0  0  0  0  0  0  0  0  0  0  0
  -22.7900  -29.1120   21.9930 C   0  0  0  0  0  0  0  0  0  0  0  0
  -21.4530  -28.9790   21.9110 N   0  0  0  0  0  0  0  0  0  0  0  0
  -23.4860  -28.3630   22.6830 O   0  0  0  0  0  0  0  0  0  0  0  0
  -20.9470  -29.6380   21.3350 H   0  0  0  0  0  0  0  0  0  0  0  0
  -18.0670  -27.8360   22.5000 C   0  0  0  0  0  0  0  0  0  0  0  0
  -20.6490  -27.9530   22.5790 C   0  0  0  0  0  3  0  0  0  0  0  0
  -20.6300  -26.6400   21.7620 C   0  0  0  0  0  2  0  0  0  0  0  0
  -19.4340  -26.5400   20.8100 C   0  0  0  0  0  2  0  0  0  0  0  0
  -18.1190  -26.6200   21.5890 C   0  0  0  0  0  2  0  0  0  0  0  0
  -19.2540  -28.4710   22.9520 C   0  0  0  0  0  0  0  0  0  0  0  0
  -19.1480  -29.6150   23.7700 C   0  0  0  0  0  3  0  0  0  0  0  0
  -17.8880  -30.1240   24.1370 C   0  0  0  0  0  3  0  0  0  0  0  0
  -16.7160  -29.4840   23.6980 C   0  0  0  0  0  3  0  0  0  0  0  0
  -16.8070  -28.3400   22.8850 C   0  0  0  0  0  3  0  0  0  0  0  0
  -25.8930  -32.0410   23.6330 C   0  0  0  0  0  3  0  0  0  0  0  0
  -26.3870  -31.1720   24.8560 C   0  0  1  0  0  0  0  0  0  0  0  0
  -25.2810  -30.8710   25.8940 C   0  0  0  0  0  1  0  0  0  0  0  0
  -26.9580  -29.8200   24.3740 C   0  0  0  0  0  1  0  0  0  0  0  0
  -27.5390  -31.9030   25.5850 C   0  0  0  0  0  1  0  0  0  0  0  0
  -25.5740  -33.4090   24.0730 N   0  0  0  0  0  0  0  0  0  0  0  0
  -25.8870  -34.5210   23.3960 C   0  0  0  0  0  0  0  0  0  0  0  0
  -26.5430  -34.5040   22.3510 O   0  0  0  0  0  0  0  0  0  0  0  0
  -24.9900  -33.4950   24.8920 H   0  0  0  0  0  0  0  0  0  0  0  0
  -24.1380  -36.3230   23.2160 C   0  0  0  0  0  1  0  0  0  0  0  0
  -25.3990  -35.8670   23.9690 C   0  0  0  0  0  3  0  0  0  0  0  0
  -27.5330  -36.7180   24.8380 C   0  0  0  0  0  1  0  0  0  0  0  0
  -26.4210  -36.9360   23.9160 N   0  0  0  0  0  0  0  0  0  0  0  0
  -26.0070  -37.8410   24.1260 H   0  0  0  0  0  0  0  0  0  0  0  0
  1  5  1  0
  2  1  2  0
  2  6  1  0
  3  4  1  0
  4  7  1  0
  5 16  1  0
  5  4  2  0
  6  3  2  0
  8 14  1  0
  8 16  1  0
  9 14  1  0
 10 11  1  0
 10  9  1  0
 12 11  1  0
 12 21  1  0
 12 13  1  0
 14 13  1  0
 15  8  2  0
 16 17  1  0
 18 19  2  0
 19 38  1  0
 20 19  1  0
 20 23  1  0
 21 22  1  0
 21 18  1  0
 22 20  2  0
 23 24  1  0
 24 25  2  0
 26 29  1  0
 26 25  1  0
 27 26  2  0
 28 27  1  0
 28 23  2  0
 29 30  1  0
 30 35  2  0
 30 31  1  0
 31 32  2  0
 32 33  1  0
 33 37  1  0
 34 33  2  0
 35 34  1  0
 36 35  1  0
 38 39  1  0
 39 42  1  0
 39 41  1  0
 40 38  2  0
 43 18  1  0
 43 44  1  0
 45 43  1  0
 46  6  1  0
 47 46  1  0
 48 47  1  0
 48 49  1  0
 49 51  1  0
 50 61  2  0
 51 56  1  0
 52 60  1  0
 52 62  1  0
 53 59  1  0
 53 55  1  0
 54 60  1  0
 55 54  1  0
 56 55  2  0
 57 58  1  0
 57 51  2  0
 58 53  2  0
 59 52  1  0
 60 50  1  0
 62 64  2  0
 63 62  1  0
 65 63  1  0
 66 75  2  0
 66 71  1  0
 67 63  1  0
 67 71  1  0
 68 67  1  0
 69 70  1  0
 69 68  1  0
 70 66  1  0
 71 72  2  0
 72 73  1  0
 74 73  2  0
 75 74  1  0
 76 50  1  0
 76 81  1  0
 76 77  1  0
 77 80  1  1
 77 78  1  0
 79 77  1  0
 81 84  1  0
 82 86  1  0
 82 81  1  0
 83 82  2  0
 86 85  1  0
 88 86  1  0
 88 89  1  0
 88 87  1  0
M  ISO  4   8 100  16 100  48 101  49 101
M  END
>  <TORSDO>  (98) 
F 19

>  <SCORE>  (98) 
-12.314

>  <name>  (98) 
97

>  <ligand_id>  (98) 
97

>  <original_smiles>  (98) 
[H]c1c([H])c([H])c2c(c1[H])C([H])([H])C([H])([H])C([H])([H])C2([H])N([H])C(=O)C1([H])N(C(=O)C([H])(N([H])C(=O)C([H])(N([H])C([H])([H])[H])C([H])([H])[H])C(C([H])([H])[H])(C([H])([H])[H])C([H])([H])[H])C([H])([H])c2c([H])c(OC([H])([H])C([H])([H])Oc3c([H])c([H])c(N([H])C(=O)N4C([H])([H])C([H])([H])C([H])([H])C([H])(n5nc(-c6c([H])c([H])c(Oc7c([H])c([H])c(F)c([H])c7F)c([H])c6[H])c(C(=O)N([H])[H])c5N([H])[H])C4([H])[H])c(C([H])([H])[H])c3[H])c([H])c([H])c2C1([H])[H]

>  <smiles>  (98) 
[H]c1c([H])c([H])c2c(c1[H])C([H])([H])C([H])([H])C([H])([H])C2([H])N([H])C(=O)C1([H])N(C(=O)C([H])(N([H])C(=O)C([H])(N([H])C([H])([H])[H])C([H])([H])[H])C(C([H])([H])[H])(C([H])([H])[H])C([H])([H])[H])C([H])([H])c2c([H])c(OC([H])([H])C([H])([H])Oc3c([H])c([H])c(N([H])C(=O)N4C([H])([H])C([H])([H])C([H])([H])C([H])(n5nc(-c6c([H])c([H])c(Oc7c([H])c([H])c(F)c([H])c7F)c([H])c6[H])c(C(=O)N([H])[H])c5N([H])[H])C4([H])[H])c(C([H])([H])[H])c3[H])c([H])c([H])c2C1([H])[H]

$$$$
98:0:0
     RDKit          3D

 92100  0  0  1  0  0  0  0  0999 V2000
  -31.3490  -18.2460   20.5580 C   0  0  0  0  0  3  0  0  0  0  0  0
  -30.8160  -20.6790   20.5320 C   0  0  0  0  0  3  0  0  0  0  0  0
  -29.0640  -19.0130   20.3950 C   0  0  0  0  0  3  0  0  0  0  0  0
  -31.7470  -19.6100   20.6030 C   0  0  0  0  0  0  0  0  0  0  0  0
  -30.0010  -17.8350   20.4580 C   0  0  0  0  0  0  0  0  0  0  0  0
  -29.4250  -20.4760   20.4230 C   0  0  0  0  0  0  0  0  0  0  0  0
  -30.4800  -15.0940   20.3240 C   0  0  0  0  0  0  0  0  0  0  0  0
  -30.3760  -12.7290   19.3720 C   0  0  0  0  0  2  0  0  0  0  0  0
  -29.4300  -12.6540   18.1500 C   0  0  0  0  0  2  0  0  0  0  0  0
  -27.9780  -12.4160   18.6030 C   0  0  0  0  0  2  0  0  0  0  0  0
  -27.5700  -13.3340   19.7840 C   0  0  0  0  0  3  0  0  0  0  0  0
  -28.6400  -13.3780   20.8950 C   0  0  0  0  0  2  0  0  0  0  0  0
  -29.8870  -13.8260   20.2650 N   0  0  0  0  0  0  0  0  0  0  0  0
  -31.6870  -15.1280   20.0570 O   0  0  0  0  0  0  0  0  0  0  0  0
  -29.6990  -16.3020   20.4550 N   0  0  0  0  0  0  0  0  0  0  0  0
  -28.7180  -16.0890   20.5540 H   0  0  0  0  0  0  0  0  0  0  0  0
  -25.1970  -13.8790   20.5630 C   0  0  0  0  0  0  0  0  0  0  0  0
  -24.1460  -13.0910   20.9390 C   0  0  0  0  0  0  0  0  0  0  0  0
  -24.6230  -11.7450   20.8900 C   0  0  0  0  0  0  0  0  0  0  0  0
  -26.2450  -13.0140   20.3010 N   0  0  0  0  0  0  0  0  0  0  0  0
  -25.9110  -11.7240   20.5660 N   0  0  0  0  0  0  0  0  0  0  0  0
  -23.9090  -10.4730   21.0760 C   0  0  0  0  0  0  0  0  0  0  0  0
  -24.3610   -9.4990   21.9930 C   0  0  0  0  0  3  0  0  0  0  0  0
  -23.6450   -8.2950   22.1680 C   0  0  0  0  0  3  0  0  0  0  0  0
  -22.4630   -8.0570   21.4270 C   0  0  0  0  0  0  0  0  0  0  0  0
  -22.0310   -9.0210   20.4980 C   0  0  0  0  0  3  0  0  0  0  0  0
  -22.7480  -10.2160   20.3210 C   0  0  0  0  0  3  0  0  0  0  0  0
  -21.7170   -6.9060   21.5120 O   0  0  0  0  0  0  0  0  0  0  0  0
  -21.6900   -6.1510   22.6560 C   0  0  0  0  0  0  0  0  0  0  0  0
  -21.2580   -6.6830   23.8910 C   0  0  0  0  0  3  0  0  0  0  0  0
  -21.1790   -5.8520   25.0270 C   0  0  0  0  0  3  0  0  0  0  0  0
  -21.5200   -4.4900   24.9290 C   0  0  0  0  0  0  0  0  0  0  0  0
  -21.9450   -3.9570   23.6990 C   0  0  0  0  0  3  0  0  0  0  0  0
  -22.0250   -4.7850   22.5650 C   0  0  0  0  0  0  0  0  0  0  0  0
  -22.4140   -4.2610   21.3780 F   0  0  0  0  0  0  0  0  0  0  0  0
  -21.4380   -3.6900   26.0180 F   0  0  0  0  0  0  0  0  0  0  0  0
  -22.7470  -13.5520   21.2260 C   0  0  0  0  0  0  0  0  0  0  0  0
  -22.0360  -12.8480   22.0980 N   0  0  0  0  0  0  0  0  0  0  0  0
  -22.2950  -14.5750   20.7130 O   0  0  0  0  0  0  0  0  0  0  0  0
  -22.4160  -12.0210   22.5340 H   0  0  0  0  0  0  0  0  0  0  0  0
  -21.0970  -13.1390   22.3330 H   0  0  0  0  0  0  0  0  0  0  0  0
  -25.3430  -15.2530   20.3930 N   0  0  0  0  0  0  0  0  0  0  0  0
  -24.5620  -15.8910   20.5080 H   0  0  0  0  0  0  0  0  0  0  0  0
  -26.1640  -15.7020   20.0080 H   0  0  0  0  0  0  0  0  0  0  0  0
  -33.2300  -19.9450   20.7120 C   0  0  1  0  0  0  0  0  0  0  0  0
  -33.9200  -18.9530   21.2760 F   0  0  0  0  0  0  0  0  0  0  0  0
  -33.7210  -20.1640   19.4930 F   0  0  0  0  0  0  0  0  0  0  0  0
  -33.4160  -21.0420   21.4480 F   0  0  0  0  0  0  0  0  0  0  0  0
  -28.5420  -21.6670   20.3460 O   0  0  0  0  0  0  0  0  0  0  0  0
  -28.9380  -23.1940   20.4210 C   0  0  0  0  0  3  0  0  0  0  0  0
  -27.9240  -24.5720   20.2070 C   0  0  0  0  0  3  0  0  0  0  0  0
  -28.2130  -26.1260   20.3490 O   0  0  0  0  0  0  0  0  0  0  0  0
  -24.6270  -31.9400   23.2560 C   0  0  0  0  0  0  0  0  0  0  0  0
  -27.1770  -27.1470   20.2720 C   0  0  0  0  0  0  0  0  0  0  0  0
  -23.4270  -30.5450   21.6190 C   0  0  0  0  0  3  0  0  0  0  0  0
  -24.8700  -28.9450   20.2110 C   0  0  0  0  0  0  0  0  0  0  0  0
  -25.9870  -30.7760   21.4710 C   0  0  0  0  0  2  0  0  0  0  0  0
  -26.0530  -29.3760   20.8250 C   0  0  0  0  0  0  0  0  0  0  0  0
  -27.2060  -28.4950   20.8340 C   0  0  0  0  0  3  0  0  0  0  0  0
  -25.9670  -26.8310   19.6170 C   0  0  0  0  0  3  0  0  0  0  0  0
  -24.8430  -27.6880   19.5900 C   0  0  0  0  0  3  0  0  0  0  0  0
  -23.6520  -29.8580   20.2460 C   0  0  0  0  0  2  0  0  0  0  0  0
  -24.7010  -31.1100   22.1700 N   0  0  0  0  0  0  0  0  0  0  0  0
  -23.5390  -32.2370   23.7750 O   0  0  0  0  0  0  0  0  0  0  0  0
  -22.7310  -29.5510   22.5840 C   0  0  0  0  0  0  0  0  0  0  0  0
  -21.4020  -29.3910   22.4500 N   0  0  0  0  0  0  0  0  0  0  0  0
  -23.3910  -28.9260   23.4180 O   0  0  0  0  0  0  0  0  0  0  0  0
  -20.9260  -29.9460   21.7530 H   0  0  0  0  0  0  0  0  0  0  0  0
  -18.0070  -28.2220   22.9460 C   0  0  0  0  0  0  0  0  0  0  0  0
  -20.5680  -28.4650   23.2220 C   0  0  0  0  0  3  0  0  0  0  0  0
  -20.6590  -27.0290   22.6560 C   0  0  0  0  0  2  0  0  0  0  0  0
  -19.5590  -26.7100   21.6390 C   0  0  0  0  0  2  0  0  0  0  0  0
  -18.1760  -26.8690   22.2760 C   0  0  0  0  0  2  0  0  0  0  0  0
  -19.1300  -28.9790   23.3760 C   0  0  0  0  0  0  0  0  0  0  0  0
  -18.9160  -30.2430   23.9650 C   0  0  0  0  0  3  0  0  0  0  0  0
  -17.6150  -30.7530   24.1260 C   0  0  0  0  0  3  0  0  0  0  0  0
  -16.5070  -29.9950   23.7100 C   0  0  0  0  0  3  0  0  0  0  0  0
  -16.7040  -28.7310   23.1260 C   0  0  0  0  0  3  0  0  0  0  0  0
  -25.9050  -32.5720   23.8890 C   0  0  0  0  0  3  0  0  0  0  0  0
  -26.4030  -31.8040   25.1750 C   0  0  1  0  0  0  0  0  0  0  0  0
  -25.2980  -31.5800   26.2350 C   0  0  0  0  0  1  0  0  0  0  0  0
  -26.9800  -30.4190   24.8020 C   0  0  0  0  0  1  0  0  0  0  0  0
  -27.5520  -32.5940   25.8430 C   0  0  0  0  0  1  0  0  0  0  0  0
  -25.5970  -33.9730   24.2180 N   0  0  0  0  0  0  0  0  0  0  0  0
  -25.9170  -35.0260   23.4550 C   0  0  0  0  0  0  0  0  0  0  0  0
  -26.5680  -34.9210   22.4120 O   0  0  0  0  0  0  0  0  0  0  0  0
  -25.0170  -34.1290   25.0290 H   0  0  0  0  0  0  0  0  0  0  0  0
  -24.1760  -36.8180   23.1490 C   0  0  0  0  0  1  0  0  0  0  0  0
  -25.4440  -36.4180   23.9210 C   0  0  0  0  0  3  0  0  0  0  0  0
  -27.5990  -37.3160   24.6830 C   0  0  0  0  0  1  0  0  0  0  0  0
  -26.4690  -37.4720   23.7690 N   0  0  0  0  0  0  0  0  0  0  0  0
  -26.0660  -38.3930   23.9190 H   0  0  0  0  0  0  0  0  0  0  0  0
  1  4  1  0
  2  4  2  0
  3  6  2  0
  3  5  1  0
  4 45  1  0
  5  1  2  0
  6  2  1  0
  7 15  1  0
  8 13  1  0
  9 10  1  0
  9  8  1  0
 11 10  1  0
 11 20  1  0
 11 12  1  0
 13  7  1  0
 13 12  1  0
 14  7  2  0
 15  5  1  0
 15 16  1  0
 17 18  2  0
 18 37  1  0
 19 18  1  0
 19 22  1  0
 20 17  1  0
 20 21  1  0
 21 19  2  0
 22 23  1  0
 23 24  2  0
 25 28  1  0
 25 24  1  0
 26 25  2  0
 27 26  1  0
 27 22  2  0
 28 29  1  0
 29 30  1  0
 30 31  2  0
 32 31  1  0
 32 36  1  0
 33 32  2  0
 34 29  2  0
 34 33  1  0
 35 34  1  0
 37 38  1  0
 38 41  1  0
 38 40  1  0
 39 37  2  0
 42 43  1  0
 42 17  1  0
 44 42  1  0
 45 46  1  1
 45 48  1  0
 47 45  1  0
 49 50  1  0
 49  6  1  0
 51 52  1  0
 51 50  2  0
 53 64  2  0
 54 52  1  0
 54 59  1  0
 55 63  1  0
 55 65  1  0
 56 62  1  0
 56 58  1  0
 57 63  1  0
 58 59  2  0
 58 57  1  0
 60 54  2  0
 61 60  1  0
 61 56  2  0
 62 55  1  0
 63 53  1  0
 65 67  2  0
 66 65  1  0
 68 66  1  0
 69 78  2  0
 69 74  1  0
 70 66  1  0
 70 74  1  0
 71 70  1  0
 72 73  1  0
 72 71  1  0
 73 69  1  0
 74 75  2  0
 75 76  1  0
 77 76  2  0
 78 77  1  0
 79 53  1  0
 79 84  1  0
 79 80  1  0
 80 83  1  1
 80 81  1  0
 82 80  1  0
 84 87  1  0
 85 89  1  0
 85 84  1  0
 86 85  2  0
 89 88  1  0
 91 92  1  0
 91 89  1  0
 91 90  1  0
M  ISO  4   7 100  15 100  51 101  52 101
M  END
>  <TORSDO>  (99) 
F 20

>  <SCORE>  (99) 
-14.910

>  <name>  (99) 
98

>  <ligand_id>  (99) 
98

>  <original_smiles>  (99) 
[H]c1c([H])c([H])c2c(c1[H])C([H])([H])C([H])([H])C([H])([H])C2([H])N([H])C(=O)C1([H])N(C(=O)C([H])(N([H])C(=O)C([H])(N([H])C([H])([H])[H])C([H])([H])[H])C(C([H])([H])[H])(C([H])([H])[H])C([H])([H])[H])C([H])([H])c2c([H])c(OC([H])([H])C([H])([H])Oc3c([H])c(N([H])C(=O)N4C([H])([H])C([H])([H])C([H])([H])C([H])(n5nc(-c6c([H])c([H])c(Oc7c([H])c([H])c(F)c([H])c7F)c([H])c6[H])c(C(=O)N([H])[H])c5N([H])[H])C4([H])[H])c([H])c(C(F)(F)F)c3[H])c([H])c([H])c2C1([H])[H]

>  <smiles>  (99) 
[H]c1c([H])c([H])c2c(c1[H])C([H])([H])C([H])([H])C([H])([H])C2([H])N([H])C(=O)C1([H])N(C(=O)C([H])(N([H])C(=O)C([H])(N([H])C([H])([H])[H])C([H])([H])[H])C(C([H])([H])[H])(C([H])([H])[H])C([H])([H])[H])C([H])([H])c2c([H])c(OC([H])([H])C([H])([H])Oc3c([H])c(N([H])C(=O)N4C([H])([H])C([H])([H])C([H])([H])C([H])(n5nc(-c6c([H])c([H])c(Oc7c([H])c([H])c(F)c([H])c7F)c([H])c6[H])c(C(=O)N([H])[H])c5N([H])[H])C4([H])[H])c([H])c(C(F)(F)F)c3[H])c([H])c([H])c2C1([H])[H]

$$$$
99:0:0
     RDKit          3D

106114  0  0  1  0  0  0  0  0999 V2000
  -31.2850  -22.2210   17.4020 C   0  0  0  0  0  3  0  0  0  0  0  0
  -31.8560  -21.7970   18.6090 C   0  0  0  0  0  3  0  0  0  0  0  0
  -29.2790  -20.9520   17.9120 C   0  0  0  0  0  3  0  0  0  0  0  0
  -29.9740  -21.8410   17.0730 C   0  0  0  0  0  0  0  0  0  0  0  0
  -31.1490  -20.9620   19.5110 C   0  0  0  0  0  0  0  0  0  0  0  0
  -29.8620  -20.4790   19.1150 C   0  0  0  0  0  0  0  0  0  0  0  0
  -33.1700  -21.2750   21.0940 C   0  0  0  0  0  1  0  0  0  0  0  0
  -32.0180  -19.0870   20.9570 C   0  0  0  0  0  1  0  0  0  0  0  0
  -30.9080  -21.0830   22.0530 C   0  0  0  0  0  1  0  0  0  0  0  0
  -31.7900  -20.6050   20.8760 C   0  0  2  0  0  0  0  0  0  0  0  0
  -29.2920  -22.5150   15.8970 C   0  0  0  0  0  2  0  0  0  0  0  0
  -29.1580  -24.9480   16.3380 C   0  0  0  0  0  0  0  0  0  0  0  0
  -29.7920  -23.8830   15.8410 N   0  0  0  0  0  0  0  0  0  0  0  0
  -27.9290  -25.0280   16.3770 O   0  0  0  0  0  0  0  0  0  0  0  0
  -30.7960  -23.9610   15.7650 H   0  0  0  0  0  0  0  0  0  0  0  0
  -30.0660  -26.0350   16.9270 C   0  0  0  0  0  2  0  0  0  0  0  0
  -29.3960  -26.9570   17.9620 C   0  0  0  0  0  2  0  0  0  0  0  0
  -28.6060  -26.2240   18.9040 O   0  0  0  0  0  0  0  0  0  0  0  0
  -25.8510  -30.4570   23.9430 C   0  0  0  0  0  0  0  0  0  0  0  0
  -27.5550  -26.9680   19.3740 C   0  0  0  0  0  0  0  0  0  0  0  0
  -24.3300  -29.8370   22.0890 C   0  0  0  0  0  3  0  0  0  0  0  0
  -25.4210  -28.6460   20.1210 C   0  0  0  0  0  0  0  0  0  0  0  0
  -26.8590  -29.9050   21.7360 C   0  0  0  0  0  2  0  0  0  0  0  0
  -26.6820  -28.8090   20.7110 C   0  0  0  0  0  0  0  0  0  0  0  0
  -27.7530  -27.9740   20.3420 C   0  0  0  0  0  3  0  0  0  0  0  0
  -26.2770  -26.7800   18.8150 C   0  0  0  0  0  3  0  0  0  0  0  0
  -25.2080  -27.6240   19.1780 C   0  0  0  0  0  3  0  0  0  0  0  0
  -24.3390  -29.6060   20.5540 C   0  0  0  0  0  2  0  0  0  0  0  0
  -25.7040  -30.0580   22.6480 N   0  0  0  0  0  0  0  0  0  0  0  0
  -24.8650  -30.6850   24.6570 O   0  0  0  0  0  0  0  0  0  0  0  0
  -23.5810  -28.6610   22.7540 C   0  0  0  0  0  0  0  0  0  0  0  0
  -22.2890  -28.5130   22.4210 N   0  0  0  0  0  0  0  0  0  0  0  0
  -24.1650  -27.8910   23.5220 O   0  0  0  0  0  0  0  0  0  0  0  0
  -21.8830  -29.1890   21.7890 H   0  0  0  0  0  0  0  0  0  0  0  0
  -18.9900  -27.1020   22.0160 C   0  0  0  0  0  0  0  0  0  0  0  0
  -21.3960  -27.4560   22.8910 C   0  0  0  0  0  3  0  0  0  0  0  0
  -21.7300  -26.1040   22.2170 C   0  0  0  0  0  2  0  0  0  0  0  0
  -20.9090  -25.8420   20.9510 C   0  0  0  0  0  2  0  0  0  0  0  0
  -19.4120  -25.8460   21.2720 C   0  0  0  0  0  2  0  0  0  0  0  0
  -19.9250  -27.8670   22.7620 C   0  0  0  0  0  0  0  0  0  0  0  0
  -19.4890  -29.0460   23.4040 C   0  0  0  0  0  3  0  0  0  0  0  0
  -18.1480  -29.4610   23.3130 C   0  0  0  0  0  3  0  0  0  0  0  0
  -17.2230  -28.6930   22.5850 C   0  0  0  0  0  3  0  0  0  0  0  0
  -17.6430  -27.5140   21.9420 C   0  0  0  0  0  3  0  0  0  0  0  0
  -27.2600  -30.6680   24.5800 C   0  0  0  0  0  3  0  0  0  0  0  0
  -27.2220  -31.9330   25.3240 N   0  0  0  0  0  0  0  0  0  0  0  0
  -27.8690  -33.0480   24.9600 C   0  0  0  0  0  0  0  0  0  0  0  0
  -28.6270  -33.0960   23.9870 O   0  0  0  0  0  0  0  0  0  0  0  0
  -26.5780  -31.9830   26.0990 H   0  0  0  0  0  0  0  0  0  0  0  0
  -26.7260  -35.2860   25.0460 C   0  0  0  0  0  1  0  0  0  0  0  0
  -27.6360  -34.3130   25.8100 C   0  0  0  0  0  3  0  0  0  0  0  0
  -29.6990  -34.2350   27.1380 C   0  0  0  0  0  1  0  0  0  0  0  0
  -28.8890  -35.0000   26.1950 N   0  0  0  0  0  0  0  0  0  0  0  0
  -28.6890  -35.9060   26.6090 H   0  0  0  0  0  0  0  0  0  0  0  0
  -27.7030  -29.4800   25.5190 C   0  0  1  0  0  0  0  0  0  0  0  0
  -26.6640  -29.1260   26.6070 C   0  0  0  0  0  1  0  0  0  0  0  0
  -27.9740  -28.2030   24.6890 C   0  0  0  0  0  1  0  0  0  0  0  0
  -29.0330  -29.8380   26.2250 C   0  0  0  0  0  1  0  0  0  0  0  0
  -29.1700  -19.6220   19.9470 O   0  0  0  0  0  0  0  0  0  0  0  0
  -28.0970  -18.8360   19.4200 C   0  0  0  0  0  2  0  0  0  0  0  0
  -28.7060  -17.6680   18.6210 C   0  0  0  0  0  2  0  0  0  0  0  0
  -29.4560  -16.6480   19.5010 C   0  0  0  0  0  2  0  0  0  0  0  0
  -31.7910  -15.7850   19.4150 C   0  0  0  0  0  0  0  0  0  0  0  0
  -30.6340  -16.1100   18.8180 N   0  0  0  0  0  0  0  0  0  0  0  0
  -31.9540  -15.8310   20.6340 O   0  0  0  0  0  0  0  0  0  0  0  0
  -30.5820  -16.0070   17.8090 H   0  0  0  0  0  0  0  0  0  0  0  0
  -32.9390  -15.3280   18.5150 C   0  0  0  0  0  2  0  0  0  0  0  0
  -34.2410  -16.1680   18.6300 C   0  0  0  0  0  2  0  0  0  0  0  0
  -35.3610  -18.1010   17.5070 C   0  0  0  0  0  0  0  0  0  0  0  0
  -37.2960  -18.3870   15.9980 C   0  0  0  0  0  2  0  0  0  0  0  0
  -36.8190  -18.5950   14.5450 C   0  0  0  0  0  2  0  0  0  0  0  0
  -36.5180  -17.2590   13.8340 C   0  0  0  0  0  2  0  0  0  0  0  0
  -35.6620  -16.2990   14.7040 C   0  0  0  0  0  3  0  0  0  0  0  0
  -36.2840  -16.2020   16.1110 C   0  0  0  0  0  2  0  0  0  0  0  0
  -36.3050  -17.5540   16.6930 N   0  0  0  0  0  0  0  0  0  0  0  0
  -35.3720  -19.2890   17.8420 O   0  0  0  0  0  0  0  0  0  0  0  0
  -34.2740  -17.3510   17.7560 N   0  0  0  0  0  0  0  0  0  0  0  0
  -33.4670  -17.9360   17.9110 H   0  0  0  0  0  0  0  0  0  0  0  0
  -34.3860  -14.2950   13.7030 C   0  0  0  0  0  0  0  0  0  0  0  0
  -34.8220  -13.1420   13.1040 C   0  0  0  0  0  0  0  0  0  0  0  0
  -36.2490  -13.1900   13.1440 C   0  0  0  0  0  0  0  0  0  0  0  0
  -35.5300  -14.9850   14.0790 N   0  0  0  0  0  0  0  0  0  0  0  0
  -36.6550  -14.2840   13.7780 N   0  0  0  0  0  0  0  0  0  0  0  0
  -37.2560  -12.2890   12.5630 C   0  0  0  0  0  0  0  0  0  0  0  0
  -38.2670  -11.6990   13.3560 C   0  0  0  0  0  3  0  0  0  0  0  0
  -39.2140  -10.8280   12.7760 C   0  0  0  0  0  3  0  0  0  0  0  0
  -39.1520  -10.5310   11.3940 C   0  0  0  0  0  0  0  0  0  0  0  0
  -38.1590  -11.1380   10.6050 C   0  0  0  0  0  3  0  0  0  0  0  0
  -37.2220  -12.0120   11.1810 C   0  0  0  0  0  3  0  0  0  0  0  0
  -40.0430   -9.7110   10.7420 O   0  0  0  0  0  0  0  0  0  0  0  0
  -40.6860   -8.6900   11.3940 C   0  0  0  0  0  0  0  0  0  0  0  0
  -39.9790   -7.6400   12.0230 C   0  0  0  0  0  3  0  0  0  0  0  0
  -40.6810   -6.5750   12.6200 C   0  0  0  0  0  3  0  0  0  0  0  0
  -42.0880   -6.5480   12.5790 C   0  0  0  0  0  0  0  0  0  0  0  0
  -42.7950   -7.5880   11.9490 C   0  0  0  0  0  3  0  0  0  0  0  0
  -42.0940   -8.6540   11.3570 C   0  0  0  0  0  0  0  0  0  0  0  0
  -42.7810   -9.6420   10.7340 F   0  0  0  0  0  0  0  0  0  0  0  0
  -42.7620   -5.5200   13.1440 F   0  0  0  0  0  0  0  0  0  0  0  0
  -33.9670  -12.1020   12.4430 C   0  0  0  0  0  0  0  0  0  0  0  0
  -34.3670  -10.8380   12.5360 N   0  0  0  0  0  0  0  0  0  0  0  0
  -32.9150  -12.3980   11.8760 O   0  0  0  0  0  0  0  0  0  0  0  0
  -35.2150  -10.6030   13.0260 H   0  0  0  0  0  0  0  0  0  0  0  0
  -33.8250  -10.0990   12.1120 H   0  0  0  0  0  0  0  0  0  0  0  0
  -33.1180  -14.8200   13.9400 N   0  0  0  0  0  0  0  0  0  0  0  0
  -32.3320  -14.3850   13.4680 H   0  0  0  0  0  0  0  0  0  0  0  0
  -33.0000  -15.8170   14.0580 H   0  0  0  0  0  0  0  0  0  0  0  0
  1  2  1  0
  2  5  2  0
  3  6  2  0
  4  1  2  0
  4  3  1  0
  5 10  1  0
  6  5  1  0
  6 59  1  0
 10  8  1  6
 10  7  1  0
 10  9  1  0
 11  4  1  0
 12 14  2  0
 12 16  1  0
 13 11  1  0
 13 12  1  0
 15 13  1  0
 16 17  1  0
 17 18  1  0
 18 20  1  0
 19 30  2  0
 20 25  1  0
 21 29  1  0
 21 31  1  0
 22 28  1  0
 22 24  1  0
 23 29  1  0
 24 23  1  0
 25 24  2  0
 26 27  1  0
 26 20  2  0
 27 22  2  0
 28 21  1  0
 29 19  1  0
 31 33  2  0
 32 31  1  0
 34 32  1  0
 35 40  1  0
 36 32  1  0
 37 36  1  0
 38 39  1  0
 38 37  1  0
 39 35  1  0
 40 36  1  0
 40 41  2  0
 42 41  1  0
 43 42  2  0
 44 35  2  0
 44 43  1  0
 45 19  1  0
 45 46  1  0
 45 55  1  0
 46 49  1  0
 47 46  1  0
 47 51  1  0
 48 47  2  0
 51 50  1  0
 51 53  1  0
 53 54  1  0
 53 52  1  0
 55 58  1  1
 55 56  1  0
 57 55  1  0
 60 59  1  0
 61 60  1  0
 61 62  1  0
 63 65  2  0
 64 63  1  0
 64 62  1  0
 66 64  1  0
 67 68  1  0
 67 63  1  0
 69 77  1  0
 69 76  2  0
 70 75  1  0
 71 70  1  0
 72 71  1  0
 73 72  1  0
 73 74  1  0
 74 75  1  0
 75 69  1  0
 77 78  1  0
 77 68  1  0
 79104  1  0
 79 82  1  0
 80 81  1  0
 80 79  2  0
 81 83  2  0
 82 73  1  0
 83 82  1  0
 84 81  1  0
 84 85  1  0
 86 85  2  0
 87 86  1  0
 88 89  1  0
 88 87  2  0
 89 84  2  0
 90 87  1  0
 90 91  1  0
 91 92  1  0
 92 93  2  0
 94 93  1  0
 94 98  1  0
 95 94  2  0
 96 91  2  0
 96 95  1  0
 97 96  1  0
 99100  1  0
 99 80  1  0
100102  1  0
101 99  2  0
103100  1  0
104106  1  0
105104  1  0
M  ISO  4  17 101  18 101  69 100  77 100
M  END
>  <TORSDO>  (100) 
F 28

>  <SCORE>  (100) 
-5.070

>  <name>  (100) 
99

>  <ligand_id>  (100) 
99

>  <original_smiles>  (100) 
[H]c1c([H])c([H])c2c(c1[H])C([H])([H])C([H])([H])C([H])([H])C2([H])N([H])C(=O)C1([H])N(C(=O)C([H])(N([H])C(=O)C([H])(N([H])C([H])([H])[H])C([H])([H])[H])C(C([H])([H])[H])(C([H])([H])[H])C([H])([H])[H])C([H])([H])c2c([H])c(OC([H])([H])C([H])([H])C(=O)N([H])C([H])([H])c3c([H])c([H])c(C(C([H])([H])[H])(C([H])([H])[H])C([H])([H])[H])c(OC([H])([H])C([H])([H])C([H])([H])N([H])C(=O)C([H])([H])C([H])([H])N([H])C(=O)N4C([H])([H])C([H])([H])C([H])([H])C([H])(n5nc(-c6c([H])c([H])c(Oc7c([H])c([H])c(F)c([H])c7F)c([H])c6[H])c(C(=O)N([H])[H])c5N([H])[H])C4([H])[H])c3[H])c([H])c([H])c2C1([H])[H]

>  <smiles>  (100) 
[H]c1c([H])c([H])c2c(c1[H])C([H])([H])C([H])([H])C([H])([H])C2([H])N([H])C(=O)C1([H])N(C(=O)C([H])(N([H])C(=O)C([H])(N([H])C([H])([H])[H])C([H])([H])[H])C(C([H])([H])[H])(C([H])([H])[H])C([H])([H])[H])C([H])([H])c2c([H])c(OC([H])([H])C([H])([H])C(=O)N([H])C([H])([H])c3c([H])c([H])c(C(C([H])([H])[H])(C([H])([H])[H])C([H])([H])[H])c(OC([H])([H])C([H])([H])C([H])([H])N([H])C(=O)C([H])([H])C([H])([H])N([H])C(=O)N4C([H])([H])C([H])([H])C([H])([H])C([H])(n5nc(-c6c([H])c([H])c(Oc7c([H])c([H])c(F)c([H])c7F)c([H])c6[H])c(C(=O)N([H])[H])c5N([H])[H])C4([H])[H])c3[H])c([H])c([H])c2C1([H])[H]

$$$$
