0:0:0
     RDKit          3D

 82 86  0  0  1  0  0  0  0  0999 V2000
  -28.2030  -25.2140   20.1870 O   0  0  0  0  0  1  0  0  0  0  0  0
  -24.6590  -31.8230   23.1160 C   0  0  0  0  0  0  0  0  0  0  0  0
  -27.2270  -26.5180   20.2190 C   0  0  0  0  0  0  0  0  0  0  0  0
  -23.5030  -30.4040   21.4840 C   0  0  0  0  0  3  0  0  0  0  0  0
  -24.9680  -28.6960   20.1210 C   0  0  0  0  0  0  0  0  0  0  0  0
  -26.0920  -30.4850   21.4080 C   0  0  0  0  0  2  0  0  0  0  0  0
  -26.1660  -29.0180   20.7700 C   0  0  0  0  0  0  0  0  0  0  0  0
  -27.2690  -27.9690   20.7710 C   0  0  0  0  0  3  0  0  0  0  0  0
  -25.9850  -26.4690   19.5130 C   0  0  0  0  0  3  0  0  0  0  0  0
  -24.9320  -27.4500   19.4670 C   0  0  0  0  0  3  0  0  0  0  0  0
  -23.7680  -29.6710   20.1330 C   0  0  0  0  0  2  0  0  0  0  0  0
  -24.7790  -30.9440   22.0540 N   0  0  0  0  0  0  0  0  0  0  0  0
  -23.5550  -32.1300   23.6020 O   0  0  0  0  0  0  0  0  0  0  0  0
  -22.7610  -29.4600   22.4680 C   0  0  0  0  0  0  0  0  0  0  0  0
  -21.4220  -29.3490   22.3610 N   0  0  0  0  0  0  0  0  0  0  0  0
  -23.4040  -28.8170   23.3000 O   0  0  0  0  0  0  0  0  0  0  0  0
  -20.9470  -29.9240   21.6780 H   0  0  0  0  0  0  0  0  0  0  0  0
  -18.0030  -28.1330   22.8590 C   0  0  0  0  0  0  0  0  0  0  0  0
  -20.5950  -28.3830   23.0970 C   0  0  0  0  0  0  0  0  0  0  0  0
  -20.7720  -26.9760   22.4620 C   0  0  0  0  0  3  0  0  0  0  0  0
  -19.5380  -26.4150   21.7220 C   0  0  0  0  0  3  0  0  0  0  0  0
  -18.0990  -26.8440   22.0560 C   0  0  0  0  0  3  0  0  0  0  0  0
  -19.1450  -28.8670   23.2920 C   0  0  0  0  0  0  0  0  0  0  0  0
  -18.9400  -30.1130   23.9270 C   0  0  0  0  0  3  0  0  0  0  0  0
  -17.6430  -30.6230   24.1300 C   0  0  0  0  0  3  0  0  0  0  0  0
  -16.5250  -29.8800   23.7210 C   0  0  0  0  0  3  0  0  0  0  0  0
  -16.7080  -28.6360   23.0960 C   0  0  0  0  0  3  0  0  0  0  0  0
  -25.9010  -32.4970   23.7720 C   0  0  0  0  0  3  0  0  0  0  0  0
  -25.5540  -33.8960   24.1020 N   0  0  0  0  0  0  0  0  0  0  0  0
  -25.8860  -34.9730   23.3740 C   0  0  0  0  0  0  0  0  0  0  0  0
  -26.5670  -34.8910   22.3500 O   0  0  0  0  0  0  0  0  0  0  0  0
  -24.9460  -34.0310   24.8960 H   0  0  0  0  0  0  0  0  0  0  0  0
  -24.1500  -36.7720   23.0460 C   0  0  0  0  0  1  0  0  0  0  0  0
  -25.3900  -36.3550   23.8530 C   0  0  0  0  0  3  0  0  0  0  0  0
  -27.5120  -37.2520   24.7100 C   0  0  0  0  0  1  0  0  0  0  0  0
  -26.4160  -37.4190   23.7590 N   0  0  0  0  0  0  0  0  0  0  0  0
  -26.0000  -38.3340   23.9110 H   0  0  0  0  0  0  0  0  0  0  0  0
  -26.3860  -31.7540   25.0790 C   0  0  1  0  0  0  0  0  0  0  0  0
  -25.2660  -31.5290   26.1240 C   0  0  0  0  0  1  0  0  0  0  0  0
  -26.9880  -30.3730   24.7440 C   0  0  0  0  0  1  0  0  0  0  0  0
  -27.5140  -32.5680   25.7560 C   0  0  0  0  0  1  0  0  0  0  0  0
  -28.2300  -23.3320   20.4390 C   0  0  0  0  0 15  0  0  0  0  0  0
  -28.7870  -21.3790   19.8640 C   0  0  0  0  0 15  0  0  0  0  0  0
  -29.3980  -19.4400   20.4120 C   0  0  0  0  0  1  0  0  0  0  0  0
  -30.1690  -16.0920   20.0360 C   0  0  0  0  0  0  0  0  0  0  0  0
  -30.3590  -13.4710   19.1990 C   0  0  0  0  0  2  0  0  0  0  0  0
  -29.4770  -12.8700   18.0550 C   0  0  0  0  0  2  0  0  0  0  0  0
  -28.1030  -12.4290   18.5740 C   0  0  0  0  0  2  0  0  0  0  0  0
  -27.5630  -13.4490   19.5940 C   0  0  0  0  0  3  0  0  0  0  0  0
  -28.6020  -13.9210   20.6470 C   0  0  0  0  0  2  0  0  0  0  0  0
  -29.6750  -14.6720   19.9180 N   0  0  0  0  0  0  0  0  0  0  0  0
  -31.4150  -15.9560   19.9590 O   0  0  0  0  0  0  0  0  0  0  0  0
  -29.4220  -17.5600   20.0550 N   0  0  0  0  0  0  0  0  0  0  0  0
  -28.4530  -17.3130   19.9040 H   0  0  0  0  0  0  0  0  0  0  0  0
  -25.2310  -13.9310   20.4500 C   0  0  0  0  0  0  0  0  0  0  0  0
  -24.1900  -13.1380   20.8360 C   0  0  0  0  0  0  0  0  0  0  0  0
  -24.6710  -11.7930   20.7770 C   0  0  0  0  0  0  0  0  0  0  0  0
  -26.2760  -13.0750   20.1660 N   0  0  0  0  0  0  0  0  0  0  0  0
  -25.9570  -11.7790   20.4270 N   0  0  0  0  0  0  0  0  0  0  0  0
  -23.9560  -10.5240   20.9740 C   0  0  0  0  0  0  0  0  0  0  0  0
  -24.4050   -9.5560   21.8990 C   0  0  0  0  0  3  0  0  0  0  0  0
  -23.6830   -8.3560   22.0890 C   0  0  0  0  0  3  0  0  0  0  0  0
  -22.4960   -8.1180   21.3550 C   0  0  0  0  0  0  0  0  0  0  0  0
  -22.0660   -9.0740   20.4200 C   0  0  0  0  0  3  0  0  0  0  0  0
  -22.7890  -10.2650   20.2280 C   0  0  0  0  0  3  0  0  0  0  0  0
  -21.7460   -6.9710   21.4550 O   0  0  0  0  0  0  0  0  0  0  0  0
  -21.7090   -6.2310   22.6100 C   0  0  0  0  0  0  0  0  0  0  0  0
  -21.2840   -6.7860   23.8360 C   0  0  0  0  0  3  0  0  0  0  0  0
  -21.1960   -5.9730   24.9840 C   0  0  0  0  0  3  0  0  0  0  0  0
  -21.5230   -4.6050   24.9060 C   0  0  0  0  0  0  0  0  0  0  0  0
  -21.9420   -4.0500   23.6840 C   0  0  0  0  0  3  0  0  0  0  0  0
  -22.0320   -4.8600   22.5390 C   0  0  0  0  0  0  0  0  0  0  0  0
  -22.4140   -4.3150   21.3590 F   0  0  0  0  0  0  0  0  0  0  0  0
  -21.4320   -3.8220   26.0060 F   0  0  0  0  0  0  0  0  0  0  0  0
  -22.7960  -13.6030   21.1400 C   0  0  0  0  0  0  0  0  0  0  0  0
  -22.0920  -12.8960   22.0160 N   0  0  0  0  0  0  0  0  0  0  0  0
  -22.3430  -14.6300   20.6380 O   0  0  0  0  0  0  0  0  0  0  0  0
  -22.4740  -12.0650   22.4440 H   0  0  0  0  0  0  0  0  0  0  0  0
  -21.1580  -13.1890   22.2630 H   0  0  0  0  0  0  0  0  0  0  0  0
  -25.3710  -15.3060   20.2780 N   0  0  0  0  0  0  0  0  0  0  0  0
  -24.5980  -15.9490   20.4140 H   0  0  0  0  0  0  0  0  0  0  0  0
  -26.2020  -15.7550   19.9170 H   0  0  0  0  0  0  0  0  0  0  0  0
  1  3  1  0
  2 13  2  0
  3  8  1  0
  4 12  1  0
  4 14  1  0
  5 11  1  0
  5  7  1  0
  6 12  1  0
  7  8  2  0
  7  6  1  0
  9  3  2  0
 10  9  1  0
 10  5  2  0
 11  4  1  0
 12  2  1  0
 14 16  2  0
 15 14  1  0
 15 19  1  0
 17 15  1  0
 18 27  2  0
 18 23  1  0
 19 23  1  0
 20 19  2  0
 21 22  2  0
 21 20  1  0
 22 18  1  0
 23 24  2  0
 24 25  1  0
 26 25  2  0
 27 26  1  0
 28  2  1  0
 28 29  1  0
 28 38  1  0
 29 32  1  0
 30 34  1  0
 30 29  1  0
 31 30  2  0
 34 33  1  0
 36 34  1  0
 36 37  1  0
 36 35  1  0
 38 41  1  1
 38 39  1  0
 40 38  1  0
 45 53  1  0
 46 51  1  0
 47 48  1  0
 47 46  1  0
 49 48  1  0
 49 58  1  0
 49 50  1  0
 51 45  1  0
 51 50  1  0
 52 45  2  0
 53 44  1  0
 54 53  1  0
 55 56  2  0
 56 75  1  0
 57 56  1  0
 57 60  1  0
 58 59  1  0
 58 55  1  0
 59 57  2  0
 60 61  1  0
 61 62  2  0
 63 66  1  0
 63 62  1  0
 64 63  2  0
 65 64  1  0
 65 60  2  0
 66 67  1  0
 67 68  1  0
 68 69  2  0
 70 69  1  0
 70 74  1  0
 71 70  2  0
 72 67  2  0
 72 71  1  0
 73 72  1  0
 75 76  1  0
 76 79  1  0
 76 78  1  0
 77 75  2  0
 80 81  1  0
 80 55  1  0
 82 80  1  0
M  ISO  4   1 101  42 101  45 100  53 100
M  END
>  <TORSDO>  (1) 
F 18

>  <SCORE>  (1) 
-16.165

>  <name>  (1) 
0

>  <ligand_id>  (1) 
0

>  <original_smiles>  (1) 
[H]c1c([H])c([H])c2c(c1[H])C([H])([H])C([H])([H])C([H])([H])C2([H])N([H])C(=O)C1([H])N(C(=O)C([H])(N([H])C(=O)C([H])(N([H])C([H])([H])[H])C([H])([H])[H])C(C([H])([H])[H])(C([H])([H])[H])C([H])([H])[H])C([H])([H])c2c([H])c(OC([H])([H])C([H])([H])C([H])([H])N([H])C(=O)N3C([H])([H])C([H])([H])C([H])([H])C([H])(n4nc(-c5c([H])c([H])c(Oc6c([H])c([H])c(F)c([H])c6F)c([H])c5[H])c(C(=O)N([H])[H])c4N([H])[H])C3([H])[H])c([H])c([H])c2C1([H])[H]

>  <smiles>  (1) 
[H]c1c([H])c([H])c2c(c1[H])C([H])([H])C([H])([H])C([H])([H])C2([H])N([H])C(=O)C1([H])N(C(=O)C([H])(N([H])C(=O)C([H])(N([H])C([H])([H])[H])C([H])([H])[H])C(C([H])([H])[H])(C([H])([H])[H])C([H])([H])[H])C([H])([H])c2c([H])c(OC([H])([H])C([H])([H])C([H])([H])N([H])C(=O)N3C([H])([H])C([H])([H])C([H])([H])C([H])(n4nc(-c5c([H])c([H])c(Oc6c([H])c([H])c(F)c([H])c6F)c([H])c5[H])c(C(=O)N([H])[H])c4N([H])[H])C3([H])[H])c([H])c([H])c2C1([H])[H]

$$$$
1:0:0
     RDKit          3D

 91 93  0  0  1  0  0  0  0  0999 V2000
  -20.5200  -27.2470   20.9300 C   0  0  0  0  0  2  0  0  0  0  0  0
  -21.4890  -27.3630   19.3940 C   0  0  0  0  0  2  0  0  0  0  0  0
  -21.3040  -25.2500   22.5150 C   0  0  0  0  0 15  0  0  0  0  0  0
  -22.8570  -26.2560   19.0210 C   0  0  0  0  0  2  0  0  0  0  0  0
  -23.0440  -24.1200   21.5240 C   0  0  0  0  0  1  0  0  0  0  0  0
  -23.5880  -24.9310   19.9810 C   0  0  0  0  0  3  0  0  0  0  0  0
  -24.5810  -22.6390   21.0920 C   0  0  0  0  0  2  0  0  0  0  0  0
  -26.2040  -25.2530   19.4370 C   0  0  0  0  0  0  0  0  0  0  0  0
  -25.2840  -23.2710   20.1880 N   0  0  0  0  0  0  0  0  0  0  0  0
  -24.9850  -24.5780   19.9460 N   0  0  0  0  0  0  0  0  0  0  0  0
  -26.4610  -25.0680   18.2400 O   0  0  0  0  0  0  0  0  0  0  0  0
  -26.1800  -20.7980   21.0460 C   0  0  0  0  0 15  0  0  0  0  0  0
  -27.3110  -18.9960   20.2240 O   0  0  0  0  0 15  0  0  0  0  0  0
  -29.1980  -17.1990   19.7960 C   0  0  0  0  0  2  0  0  0  0  0  0
  -30.3880  -14.5550   18.8140 C   0  0  0  0  0  2  0  0  0  0  0  0
  -29.7960  -13.4800   17.7730 C   0  0  0  0  0  2  0  0  0  0  0  0
  -28.5460  -12.7830   18.3180 C   0  0  0  0  0  2  0  0  0  0  0  0
  -27.8730  -13.8150   19.2210 C   0  0  0  0  0  3  0  0  0  0  0  0
  -28.7260  -14.4380   20.3240 C   0  0  0  0  0  2  0  0  0  0  0  0
  -29.3510  -15.5420   19.6150 N   0  0  0  0  0  0  0  0  0  0  0  0
  -30.4660  -17.3080   19.5090 O   0  0  0  0  0  1  0  0  0  0  0  0
  -25.8160  -14.3900   20.4040 C   0  0  0  0  0  0  0  0  0  0  0  0
  -24.7930  -13.6440   20.8760 C   0  0  0  0  0  0  0  0  0  0  0  0
  -25.1230  -12.2840   20.5780 C   0  0  0  0  0  0  0  0  0  0  0  0
  -26.6620  -13.4730   19.8300 N   0  0  0  0  0  0  0  0  0  0  0  0
  -26.3110  -12.1890   20.0070 N   0  0  0  0  0  0  0  0  0  0  0  0
  -24.3370  -11.0710   20.7240 C   0  0  0  0  0  0  0  0  0  0  0  0
  -24.8250   -9.9520   21.4290 C   0  0  0  0  0  3  0  0  0  0  0  0
  -24.0250   -8.7990   21.5640 C   0  0  0  0  0  3  0  0  0  0  0  0
  -22.7300   -8.7690   20.9930 C   0  0  0  0  0  0  0  0  0  0  0  0
  -22.2660   -9.8790   20.2680 C   0  0  0  0  0  3  0  0  0  0  0  0
  -23.0640  -11.0220   20.1280 C   0  0  0  0  0  3  0  0  0  0  0  0
  -21.8860   -7.6900   21.0590 O   0  0  0  0  0  0  0  0  0  0  0  0
  -21.9170   -6.8240   22.1190 C   0  0  0  0  0  0  0  0  0  0  0  0
  -21.7690   -7.2700   23.4510 C   0  0  0  0  0  3  0  0  0  0  0  0
  -21.7350   -6.3360   24.5050 C   0  0  0  0  0  3  0  0  0  0  0  0
  -21.8360   -4.9590   24.2290 C   0  0  0  0  0  0  0  0  0  0  0  0
  -21.9770   -4.5140   22.9030 C   0  0  0  0  0  3  0  0  0  0  0  0
  -22.0150   -5.4450   21.8500 C   0  0  0  0  0  0  0  0  0  0  0  0
  -22.1300   -5.0120   20.5720 F   0  0  0  0  0  0  0  0  0  0  0  0
  -21.7920   -4.0600   25.2390 F   0  0  0  0  0  0  0  0  0  0  0  0
  -23.5340  -14.1890   21.4610 C   0  0  0  0  0  0  0  0  0  0  0  0
  -22.9180  -13.4480   22.3700 N   0  0  0  0  0  0  0  0  0  0  0  0
  -23.1260  -15.3070   21.1470 O   0  0  0  0  0  0  0  0  0  0  0  0
  -23.2750  -12.5430   22.6360 H   0  0  0  0  0  0  0  0  0  0  0  0
  -22.0730  -13.7890   22.8060 H   0  0  0  0  0  0  0  0  0  0  0  0
  -26.0940  -15.7590   20.3880 N   0  0  0  0  0  0  0  0  0  0  0  0
  -25.4270  -16.4450   20.7270 H   0  0  0  0  0  0  0  0  0  0  0  0
  -26.8400  -16.1710   19.8450 H   0  0  0  0  0  0  0  0  0  0  0  0
  -27.2580  -25.9900   20.4010 C   0  0  0  0  0  2  0  0  0  0  0  0
  -28.1000  -27.1340   19.8920 O   0  0  0  0  0  0  0  0  0  0  0  0
  -24.6690  -32.3040   23.4210 C   0  0  0  0  0  0  0  0  0  0  0  0
  -27.3380  -28.2690   19.8130 C   0  0  0  0  0  0  0  0  0  0  0  0
  -23.5930  -31.1570   21.5540 C   0  0  0  0  0  3  0  0  0  0  0  0
  -25.1050  -29.9380   19.9310 C   0  0  0  0  0  0  0  0  0  0  0  0
  -26.1330  -31.4720   21.5850 C   0  0  0  0  0  2  0  0  0  0  0  0
  -26.2200  -30.2280   20.7280 C   0  0  0  0  0  0  0  0  0  0  0  0
  -27.3490  -29.3610   20.7180 C   0  0  0  0  0  3  0  0  0  0  0  0
  -26.3430  -28.2190   18.8370 C   0  0  0  0  0  3  0  0  0  0  0  0
  -25.1730  -28.9460   18.9650 C   0  0  0  0  0  3  0  0  0  0  0  0
  -23.8640  -30.7740   20.0810 C   0  0  0  0  0  2  0  0  0  0  0  0
  -24.8120  -31.6890   22.2190 N   0  0  0  0  0  0  0  0  0  0  0  0
  -23.5490  -32.5000   23.9140 O   0  0  0  0  0  0  0  0  0  0  0  0
  -23.1130  -29.9190   22.3270 C   0  0  0  0  0  0  0  0  0  0  0  0
  -21.8340  -29.6830   22.4240 N   0  0  0  0  0  0  0  0  0  0  0  0
  -23.8990  -29.1240   22.8290 O   0  0  0  0  0  0  0  0  0  0  0  0
  -21.1590  -30.3280   22.0400 H   0  0  0  0  0  0  0  0  0  0  0  0
  -18.3910  -28.2450   22.8850 C   0  0  0  0  0  0  0  0  0  0  0  0
  -21.3900  -28.3170   22.7630 C   0  0  0  0  0  2  0  0  0  0  0  0
  -21.8320  -27.1400   20.9770 C   0  0  0  0  0  2  0  0  0  0  0  0
  -19.9170  -26.3280   20.1020 C   0  0  0  0  0  1  0  0  0  0  0  0
  -18.2580  -26.8830   21.5510 C   0  0  0  0  0  1  0  0  0  0  0  0
  -19.7460  -28.8250   23.3940 C   0  0  0  0  0  0  0  0  0  0  0  0
  -19.6710  -30.0880   24.1760 C   0  0  0  0  0  3  0  0  0  0  0  0
  -18.4990  -30.8270   24.5330 C   0  0  0  0  0  3  0  0  0  0  0  0
  -17.2700  -30.3200   24.0900 C   0  0  0  0  0  3  0  0  0  0  0  0
  -17.2460  -29.1090   23.2960 C   0  0  0  0  0  3  0  0  0  0  0  0
  -25.9070  -32.7910   24.2200 C   0  0  0  0  0  3  0  0  0  0  0  0
  -26.3280  -31.8080   25.3790 C   0  0  1  0  0  0  0  0  0  0  0  0
  -25.1600  -31.4050   26.3090 C   0  0  0  0  0  1  0  0  0  0  0  0
  -26.9460  -30.5060   24.8120 C   0  0  0  0  0  1  0  0  0  0  0  0
  -27.4250  -32.4740   26.2410 C   0  0  0  0  0  1  0  0  0  0  0  0
  -25.5690  -34.1150   24.7500 N   0  0  0  0  0  0  0  0  0  0  0  0
  -25.9360  -35.2690   24.1790 C   0  0  0  0  0  0  0  0  0  0  0  0
  -26.6730  -35.3240   23.1910 O   0  0  0  0  0  0  0  0  0  0  0  0
  -24.9200  -34.1450   25.5220 H   0  0  0  0  0  0  0  0  0  0  0  0
  -24.2350  -37.1090   23.9730 C   0  0  0  0  0  1  0  0  0  0  0  0
  -25.4030  -36.5660   24.8120 C   0  0  0  0  0  3  0  0  0  0  0  0
  -27.4620  -37.2700   25.9460 C   0  0  0  0  0  1  0  0  0  0  0  0
  -26.4380  -37.6110   24.9630 N   0  0  0  0  0  0  0  0  0  0  0  0
  -26.0190  -38.4960   25.2350 H   0  0  0  0  0  0  0  0  0  0  0  0
  1 70  1  0
  2 70  1  0
  4  2  1  0
  4  6  1  0
  6  5  1  0
  8 10  1  0
  8 50  1  0
  9  7  2  0
 10  6  1  0
 10  9  1  0
 11  8  2  0
 15 20  1  0
 16 17  1  0
 16 15  1  0
 18 17  1  0
 18 25  1  0
 18 19  1  0
 20 14  1  0
 20 19  1  0
 21 14  1  0
 22 23  2  0
 23 42  1  0
 24 27  1  0
 24 23  1  0
 25 26  1  0
 25 22  1  0
 26 24  2  0
 27 28  1  0
 28 29  2  0
 30 33  1  0
 30 29  1  0
 31 30  2  0
 32 31  1  0
 32 27  2  0
 33 34  1  0
 34 35  1  0
 35 36  2  0
 37 36  1  0
 37 41  1  0
 38 37  2  0
 39 34  2  0
 39 38  1  0
 40 39  1  0
 42 43  1  0
 43 45  1  0
 43 46  1  0
 44 42  2  0
 47 22  1  0
 47 48  1  0
 49 47  1  0
 51 50  1  0
 52 63  2  0
 53 51  1  0
 53 58  1  0
 54 62  1  0
 54 64  1  0
 55 61  1  0
 55 57  1  0
 56 62  1  0
 57 56  1  0
 58 57  2  0
 59 60  1  0
 59 53  2  0
 60 55  2  0
 61 54  1  0
 62 52  1  0
 64 65  1  0
 64 66  2  0
 65 69  1  0
 67 65  1  0
 68 77  2  0
 68 73  1  0
 69 73  1  0
 71  1  1  0
 72 68  1  0
 73 74  2  0
 74 75  1  0
 76 75  2  0
 77 76  1  0
 78 52  1  0
 78 83  1  0
 78 79  1  0
 79 82  1  1
 79 80  1  0
 81 79  1  0
 83 86  1  0
 84 83  1  0
 84 88  1  0
 85 84  2  0
 88 87  1  0
 88 90  1  0
 90 91  1  0
 90 89  1  0
M  ISO  4  13 100  14 100  50 101  51 101
M  END
>  <TORSDO>  (2) 
F 19

>  <SCORE>  (2) 
-5.431

>  <name>  (2) 
1

>  <ligand_id>  (2) 
1

>  <original_smiles>  (2) 
[H]c1c([H])c([H])c2c(c1[H])C([H])([H])C([H])([H])C([H])([H])C2([H])N([H])C(=O)C1([H])N(C(=O)C([H])(N([H])C(=O)C([H])(N([H])C([H])([H])[H])C([H])([H])[H])C(C([H])([H])[H])(C([H])([H])[H])C([H])([H])[H])C([H])([H])c2c([H])c(OC([H])([H])C(=O)n3nc(C([H])([H])OC(=O)N4C([H])([H])C([H])([H])C([H])([H])C([H])(n5nc(-c6c([H])c([H])c(Oc7c([H])c([H])c(F)c([H])c7F)c([H])c6[H])c(C(=O)N([H])[H])c5N([H])[H])C4([H])[H])c4c([H])c([H])c([H])c([H])c43)c([H])c([H])c2C1([H])[H]

>  <smiles>  (2) 
[H]c1c([H])c([H])c2c(c1[H])C([H])([H])C([H])([H])C([H])([H])C2([H])N([H])C(=O)C1([H])N(C(=O)C([H])(N([H])C(=O)C([H])(N([H])C([H])([H])[H])C([H])([H])[H])C(C([H])([H])[H])(C([H])([H])[H])C([H])([H])[H])C([H])([H])c2c([H])c(OC([H])([H])C(=O)n3nc(C([H])([H])OC(=O)N4C([H])([H])C([H])([H])C([H])([H])C([H])(n5nc(-c6c([H])c([H])c(Oc7c([H])c([H])c(F)c([H])c7F)c([H])c6[H])c(C(=O)N([H])[H])c5N([H])[H])C4([H])[H])c4c([H])c([H])c([H])c([H])c43)c([H])c([H])c2C1([H])[H]

$$$$
2:0:0
     RDKit          3D

 83 90  0  0  1  0  0  0  0  0999 V2000
  -27.9490  -23.9120   20.2000 C   0  0  0  0  0  3  0  0  0  0  0  0
  -28.1500  -25.6420   20.2980 O   0  0  0  0  0  0  0  0  0  0  0  0
  -24.6720  -31.8880   23.2420 C   0  0  0  0  0  0  0  0  0  0  0  0
  -27.1710  -26.8340   20.2470 C   0  0  0  0  0  0  0  0  0  0  0  0
  -23.4710  -30.4970   21.6080 C   0  0  0  0  0  3  0  0  0  0  0  0
  -24.9060  -28.8480   20.1930 C   0  0  0  0  0  0  0  0  0  0  0  0
  -26.0490  -30.6390   21.4750 C   0  0  0  0  0  2  0  0  0  0  0  0
  -26.1040  -29.2100   20.8200 C   0  0  0  0  0  0  0  0  0  0  0  0
  -27.2230  -28.2300   20.8150 C   0  0  0  0  0  3  0  0  0  0  0  0
  -25.9390  -26.6690   19.5680 C   0  0  0  0  0  3  0  0  0  0  0  0
  -24.8600  -27.6020   19.5430 C   0  0  0  0  0  3  0  0  0  0  0  0
  -23.7020  -29.8000   20.2370 C   0  0  0  0  0  2  0  0  0  0  0  0
  -24.7550  -31.0400   22.1610 N   0  0  0  0  0  0  0  0  0  0  0  0
  -23.5830  -32.1920   23.7560 O   0  0  0  0  0  0  0  0  0  0  0  0
  -22.7560  -29.5220   22.5800 C   0  0  0  0  0  0  0  0  0  0  0  0
  -21.4230  -29.3690   22.4550 N   0  0  0  0  0  0  0  0  0  0  0  0
  -23.4110  -28.8980   23.4200 O   0  0  0  0  0  0  0  0  0  0  0  0
  -20.9460  -29.9220   21.7570 H   0  0  0  0  0  0  0  0  0  0  0  0
  -18.0330  -28.1690   22.9680 C   0  0  0  0  0  0  0  0  0  0  0  0
  -20.5930  -28.4390   23.2300 C   0  0  0  0  0  3  0  0  0  0  0  0
  -20.6940  -27.0020   22.6640 C   0  0  0  0  0  2  0  0  0  0  0  0
  -19.5940  -26.6750   21.6500 C   0  0  0  0  0  2  0  0  0  0  0  0
  -18.2110  -26.8200   22.2910 C   0  0  0  0  0  2  0  0  0  0  0  0
  -19.1500  -28.9350   23.3940 C   0  0  0  0  0  0  0  0  0  0  0  0
  -18.9270  -30.1950   23.9910 C   0  0  0  0  0  3  0  0  0  0  0  0
  -17.6200  -30.6890   24.1620 C   0  0  0  0  0  3  0  0  0  0  0  0
  -16.5170  -29.9210   23.7490 C   0  0  0  0  0  3  0  0  0  0  0  0
  -16.7250  -28.6620   23.1580 C   0  0  0  0  0  3  0  0  0  0  0  0
  -25.9420  -32.5310   23.8780 C   0  0  0  0  0  3  0  0  0  0  0  0
  -26.4400  -31.7670   25.1680 C   0  0  1  0  0  0  0  0  0  0  0  0
  -25.3350  -31.5460   26.2290 C   0  0  0  0  0  1  0  0  0  0  0  0
  -27.0170  -30.3800   24.8050 C   0  0  0  0  0  1  0  0  0  0  0  0
  -27.5910  -32.5580   25.8350 C   0  0  0  0  0  1  0  0  0  0  0  0
  -25.6270  -33.9320   24.2180 N   0  0  0  0  0  0  0  0  0  0  0  0
  -25.9330  -34.9970   23.4640 C   0  0  0  0  0  0  0  0  0  0  0  0
  -26.5690  -34.9020   22.4100 O   0  0  0  0  0  0  0  0  0  0  0  0
  -25.0570  -34.0770   25.0370 H   0  0  0  0  0  0  0  0  0  0  0  0
  -24.1800  -36.7890   23.2110 C   0  0  0  0  0  1  0  0  0  0  0  0
  -25.4650  -36.3850   23.9520 C   0  0  0  0  0  3  0  0  0  0  0  0
  -27.6320  -37.2910   24.6730 C   0  0  0  0  0  1  0  0  0  0  0  0
  -26.4840  -37.4450   23.7830 N   0  0  0  0  0  0  0  0  0  0  0  0
  -26.0790  -38.3630   23.9460 H   0  0  0  0  0  0  0  0  0  0  0  0
  -28.9470  -22.2690   20.2790 C   0  0  0  0  0  3  0  0  0  0  0  0
  -28.7110  -20.3580   20.2370 C   0  0  0  0  0  3  0  0  0  0  0  0
  -29.7530  -18.7430   20.2450 C   0  0  0  0  0  3  0  0  0  0  0  0
  -30.2820  -15.6460   20.1480 C   0  0  0  0  0  0  0  0  0  0  0  0
  -30.3500  -13.1330   19.2860 C   0  0  0  0  0  2  0  0  0  0  0  0
  -29.4300  -12.7740   18.0850 C   0  0  0  0  0  2  0  0  0  0  0  0
  -28.0130  -12.4240   18.5630 C   0  0  0  0  0  2  0  0  0  0  0  0
  -27.5300  -13.4030   19.6600 C   0  0  0  0  0  3  0  0  0  0  0  0
  -28.5860  -13.6800   20.7550 C   0  0  0  0  0  2  0  0  0  0  0  0
  -29.7510  -14.2930   20.0790 N   0  0  0  0  0  0  0  0  0  0  0  0
  -31.5110  -15.5990   19.9480 O   0  0  0  0  0  0  0  0  0  0  0  0
  -29.5270  -16.9940   20.2480 N   0  0  0  0  0  0  0  0  0  0  0  0
  -28.5450  -16.7820   20.3500 H   0  0  0  0  0  0  0  0  0  0  0  0
  -25.1770  -13.9060   20.4730 C   0  0  0  0  0  0  0  0  0  0  0  0
  -24.1340  -13.1120   20.8550 C   0  0  0  0  0  0  0  0  0  0  0  0
  -24.6200  -11.7680   20.8040 C   0  0  0  0  0  0  0  0  0  0  0  0
  -26.2270  -13.0500   20.2020 N   0  0  0  0  0  0  0  0  0  0  0  0
  -25.9070  -11.7560   20.4690 N   0  0  0  0  0  0  0  0  0  0  0  0
  -23.9110  -10.4960   20.9970 C   0  0  0  0  0  0  0  0  0  0  0  0
  -24.3510   -9.5380   21.9370 C   0  0  0  0  0  3  0  0  0  0  0  0
  -23.6360   -8.3340   22.1190 C   0  0  0  0  0  3  0  0  0  0  0  0
  -22.4690   -8.0770   21.3610 C   0  0  0  0  0  0  0  0  0  0  0  0
  -22.0480   -9.0240   20.4100 C   0  0  0  0  0  3  0  0  0  0  0  0
  -22.7630  -10.2200   20.2260 C   0  0  0  0  0  3  0  0  0  0  0  0
  -21.7270   -6.9240   21.4530 O   0  0  0  0  0  0  0  0  0  0  0  0
  -21.6590   -6.2030   22.6170 C   0  0  0  0  0  0  0  0  0  0  0  0
  -21.1670   -6.7650   23.8150 C   0  0  0  0  0  3  0  0  0  0  0  0
  -21.0490   -5.9670   24.9700 C   0  0  0  0  0  3  0  0  0  0  0  0
  -21.4130   -4.6090   24.9290 C   0  0  0  0  0  0  0  0  0  0  0  0
  -21.8990   -4.0450   23.7360 C   0  0  0  0  0  3  0  0  0  0  0  0
  -22.0180   -4.8400   22.5820 C   0  0  0  0  0  0  0  0  0  0  0  0
  -22.4660   -4.2870   21.4300 F   0  0  0  0  0  0  0  0  0  0  0  0
  -21.2940   -3.8400   26.0380 F   0  0  0  0  0  0  0  0  0  0  0  0
  -22.7360  -13.5700   21.1460 C   0  0  0  0  0  0  0  0  0  0  0  0
  -22.0320  -12.8660   22.0240 N   0  0  0  0  0  0  0  0  0  0  0  0
  -22.2780  -14.5880   20.6300 O   0  0  0  0  0  0  0  0  0  0  0  0
  -22.4170  -12.0420   22.4630 H   0  0  0  0  0  0  0  0  0  0  0  0
  -21.0930  -13.1550   22.2630 H   0  0  0  0  0  0  0  0  0  0  0  0
  -25.3150  -15.2810   20.3020 N   0  0  0  0  0  0  0  0  0  0  0  0
  -24.5370  -15.9190   20.4270 H   0  0  0  0  0  0  0  0  0  0  0  0
  -26.1390  -15.7310   19.9280 H   0  0  0  0  0  0  0  0  0  0  0  0
  1 43  2  0
  1  2  1  0
  3 14  2  0
  4  2  1  0
  4  9  1  0
  5 13  1  0
  5 15  1  0
  6 12  1  0
  6  8  1  0
  7 13  1  0
  8  7  1  0
  9  8  2  0
 10  4  2  0
 11 10  1  0
 11  6  2  0
 12  5  1  0
 13  3  1  0
 15 17  2  0
 16 15  1  0
 18 16  1  0
 19 28  2  0
 19 24  1  0
 20 16  1  0
 20 24  1  0
 21 20  1  0
 22 23  1  0
 22 21  1  0
 23 19  1  0
 24 25  2  0
 25 26  1  0
 27 26  2  0
 28 27  1  0
 29  3  1  0
 29 34  1  0
 29 30  1  0
 30 33  1  1
 30 31  1  0
 32 30  1  0
 34 37  1  0
 35 39  1  0
 35 34  1  0
 36 35  2  0
 39 38  1  0
 41 42  1  0
 41 39  1  0
 41 40  1  0
 44 45  2  0
 44 43  1  0
 45 54  1  0
 46 54  1  0
 47 52  1  0
 48 49  1  0
 48 47  1  0
 50 49  1  0
 50 59  1  0
 50 51  1  0
 52 46  1  0
 52 51  1  0
 53 46  2  0
 54 55  1  0
 56 57  2  0
 57 76  1  0
 58 57  1  0
 58 61  1  0
 59 60  1  0
 59 56  1  0
 60 58  2  0
 61 62  1  0
 62 63  2  0
 64 67  1  0
 64 63  1  0
 65 64  2  0
 66 65  1  0
 66 61  2  0
 67 68  1  0
 68 69  1  0
 69 70  2  0
 71 70  1  0
 71 75  1  0
 72 71  2  0
 73 68  2  0
 73 72  1  0
 74 73  1  0
 76 77  1  0
 77 80  1  0
 77 79  1  0
 78 76  2  0
 81 82  1  0
 81 56  1  0
 83 81  1  0
M  ISO  4   1 101   2 101  46 100  54 100
M  END
>  <TORSDO>  (3) 
F 19

>  <SCORE>  (3) 
-16.287

>  <name>  (3) 
2

>  <ligand_id>  (3) 
2

>  <original_smiles>  (3) 
[H]c1c([H])c([H])c2c(c1[H])C([H])([H])C([H])([H])C([H])([H])C2([H])N([H])C(=O)C1([H])N(C(=O)C([H])(N([H])C(=O)C([H])(N([H])C([H])([H])[H])C([H])([H])[H])C(C([H])([H])[H])(C([H])([H])[H])C([H])([H])[H])C([H])([H])c2c([H])c(OC([H])([H])C([H])([H])C([H])([H])C([H])([H])N([H])C(=O)N3C([H])([H])C([H])([H])C([H])([H])C([H])(n4nc(-c5c([H])c([H])c(Oc6c([H])c([H])c(F)c([H])c6F)c([H])c5[H])c(C(=O)N([H])[H])c4N([H])[H])C3([H])[H])c([H])c([H])c2C1([H])[H]

>  <smiles>  (3) 
[H]c1c([H])c([H])c2c(c1[H])C([H])([H])C([H])([H])C([H])([H])C2([H])N([H])C(=O)C1([H])N(C(=O)C([H])(N([H])C(=O)C([H])(N([H])C([H])([H])[H])C([H])([H])[H])C(C([H])([H])[H])(C([H])([H])[H])C([H])([H])[H])C([H])([H])c2c([H])c(OC([H])([H])C([H])([H])C([H])([H])C([H])([H])N([H])C(=O)N3C([H])([H])C([H])([H])C([H])([H])C([H])(n4nc(-c5c([H])c([H])c(Oc6c([H])c([H])c(F)c([H])c6F)c([H])c5[H])c(C(=O)N([H])[H])c4N([H])[H])C3([H])[H])c([H])c([H])c2C1([H])[H]

$$$$
3:0:0
     RDKit          3D

 87 94  0  0  1  0  0  0  0  0999 V2000
  -28.8490  -22.2600   20.0310 C   0  0  0  0  0  3  0  0  0  0  0  0
  -29.0100  -23.7700   20.5830 C   0  0  0  0  0  3  0  0  0  0  0  0
  -28.0790  -24.9250   19.9720 C   0  0  0  0  0  3  0  0  0  0  0  0
  -28.2800  -26.3750   20.2890 O   0  0  0  0  0  0  0  0  0  0  0  0
  -24.5970  -31.8630   23.2370 C   0  0  0  0  0  0  0  0  0  0  0  0
  -27.1830  -27.2620   20.1970 C   0  0  0  0  0  0  0  0  0  0  0  0
  -23.3890  -30.4650   21.6010 C   0  0  0  0  0  3  0  0  0  0  0  0
  -24.8330  -28.9090   20.1740 C   0  0  0  0  0  0  0  0  0  0  0  0
  -25.9320  -30.7650   21.4210 C   0  0  0  0  0  2  0  0  0  0  0  0
  -26.0040  -29.3840   20.7770 C   0  0  0  0  0  0  0  0  0  0  0  0
  -27.1810  -28.5700   20.7830 C   0  0  0  0  0  3  0  0  0  0  0  0
  -25.9940  -26.8630   19.5440 C   0  0  0  0  0  3  0  0  0  0  0  0
  -24.8320  -27.6550   19.5470 C   0  0  0  0  0  3  0  0  0  0  0  0
  -23.6010  -29.7900   20.2220 C   0  0  0  0  0  2  0  0  0  0  0  0
  -24.6590  -31.0490   22.1430 N   0  0  0  0  0  0  0  0  0  0  0  0
  -23.5150  -32.1460   23.7690 O   0  0  0  0  0  0  0  0  0  0  0  0
  -22.7220  -29.4520   22.5630 C   0  0  0  0  0  0  0  0  0  0  0  0
  -21.3960  -29.2720   22.4290 N   0  0  0  0  0  0  0  0  0  0  0  0
  -23.3960  -28.8320   23.3900 O   0  0  0  0  0  0  0  0  0  0  0  0
  -20.9110  -29.8240   21.7350 H   0  0  0  0  0  0  0  0  0  0  0  0
  -18.0190  -28.0660   22.9090 C   0  0  0  0  0  0  0  0  0  0  0  0
  -20.5730  -28.3400   23.2020 C   0  0  0  0  0  3  0  0  0  0  0  0
  -20.6880  -26.9020   22.6440 C   0  0  0  0  0  2  0  0  0  0  0  0
  -19.5980  -26.5630   21.6220 C   0  0  0  0  0  2  0  0  0  0  0  0
  -18.2090  -26.7090   22.2490 C   0  0  0  0  0  2  0  0  0  0  0  0
  -19.1290  -28.8380   23.3410 C   0  0  0  0  0  0  0  0  0  0  0  0
  -18.8990  -30.1060   23.9170 C   0  0  0  0  0  3  0  0  0  0  0  0
  -17.5890  -30.6030   24.0630 C   0  0  0  0  0  3  0  0  0  0  0  0
  -16.4940  -29.8270   23.6470 C   0  0  0  0  0  3  0  0  0  0  0  0
  -16.7090  -28.5610   23.0750 C   0  0  0  0  0  3  0  0  0  0  0  0
  -25.8820  -32.4930   23.8570 C   0  0  0  0  0  3  0  0  0  0  0  0
  -25.5770  -33.8920   24.1850 N   0  0  0  0  0  0  0  0  0  0  0  0
  -25.9040  -34.9430   23.4210 C   0  0  0  0  0  0  0  0  0  0  0  0
  -26.5650  -34.8360   22.3850 O   0  0  0  0  0  0  0  0  0  0  0  0
  -24.9880  -34.0500   24.9900 H   0  0  0  0  0  0  0  0  0  0  0  0
  -24.1680  -36.7340   23.0860 C   0  0  0  0  0  1  0  0  0  0  0  0
  -25.4230  -36.3340   23.8800 C   0  0  0  0  0  3  0  0  0  0  0  0
  -27.5700  -37.2240   24.6710 C   0  0  0  0  0  1  0  0  0  0  0  0
  -26.4520  -37.3870   23.7450 N   0  0  0  0  0  0  0  0  0  0  0  0
  -26.0480  -38.3080   23.8930 H   0  0  0  0  0  0  0  0  0  0  0  0
  -26.3950  -31.7230   25.1360 C   0  0  1  0  0  0  0  0  0  0  0  0
  -25.3010  -31.4930   26.2050 C   0  0  0  0  0  1  0  0  0  0  0  0
  -26.9730  -30.3410   24.7500 C   0  0  0  0  0  1  0  0  0  0  0  0
  -27.5490  -32.5150   25.7950 C   0  0  0  0  0  1  0  0  0  0  0  0
  -29.5350  -21.0330   20.8160 C   0  0  0  0  0  3  0  0  0  0  0  0
  -29.7730  -18.4240   20.7310 C   0  0  0  0  0  0  0  0  0  0  0  0
  -29.6210  -19.6690   20.1490 N   0  0  0  0  0  0  0  0  0  0  0  0
  -29.6260  -18.2810   21.9470 O   0  0  0  0  0  0  0  0  0  0  0  0
  -29.7310  -19.6850   19.1440 H   0  0  0  0  0  0  0  0  0  0  0  0
  -30.2100  -17.1640   19.8620 C   0  0  0  0  0  2  0  0  0  0  0  0
  -29.9570  -15.8100   20.4220 O   0  0  0  0  0  0  0  0  0  0  0  0
  -30.7420  -14.6890   20.0090 C   0  0  0  0  0  0  0  0  0  0  0  0
  -30.3910  -12.4430   18.9490 C   0  0  0  0  0  2  0  0  0  0  0  0
  -29.4030  -12.6280   17.7770 C   0  0  0  0  0  2  0  0  0  0  0  0
  -27.9510  -12.4810   18.2710 C   0  0  0  0  0  2  0  0  0  0  0  0
  -27.6610  -13.3260   19.5410 C   0  0  0  0  0  3  0  0  0  0  0  0
  -28.7640  -13.1690   20.6080 C   0  0  0  0  0  2  0  0  0  0  0  0
  -30.0530  -13.4480   19.9760 N   0  0  0  0  0  0  0  0  0  0  0  0
  -31.8740  -14.8240   19.5420 O   0  0  0  0  0  0  0  0  0  0  0  0
  -25.3130  -13.9210   20.3870 C   0  0  0  0  0  0  0  0  0  0  0  0
  -24.2620  -13.1480   20.8000 C   0  0  0  0  0  0  0  0  0  0  0  0
  -24.7160  -11.7940   20.7350 C   0  0  0  0  0  0  0  0  0  0  0  0
  -26.3390  -13.0390   20.0900 N   0  0  0  0  0  0  0  0  0  0  0  0
  -25.9900  -11.7540   20.3620 N   0  0  0  0  0  0  0  0  0  0  0  0
  -23.9920  -10.5340   20.9490 C   0  0  0  0  0  0  0  0  0  0  0  0
  -24.4530   -9.5630   21.8640 C   0  0  0  0  0  3  0  0  0  0  0  0
  -23.7290   -8.3670   22.0660 C   0  0  0  0  0  3  0  0  0  0  0  0
  -22.5290   -8.1360   21.3520 C   0  0  0  0  0  0  0  0  0  0  0  0
  -22.0860   -9.0970   20.4260 C   0  0  0  0  0  3  0  0  0  0  0  0
  -22.8110  -10.2830   20.2220 C   0  0  0  0  0  3  0  0  0  0  0  0
  -21.7730   -6.9940   21.4640 O   0  0  0  0  0  0  0  0  0  0  0  0
  -21.7470   -6.2590   22.6230 C   0  0  0  0  0  0  0  0  0  0  0  0
  -21.3590   -6.8250   23.8560 C   0  0  0  0  0  3  0  0  0  0  0  0
  -21.2780   -6.0160   25.0070 C   0  0  0  0  0  3  0  0  0  0  0  0
  -21.5770   -4.6440   24.9260 C   0  0  0  0  0  0  0  0  0  0  0  0
  -21.9580   -4.0770   23.6980 C   0  0  0  0  0  3  0  0  0  0  0  0
  -22.0400   -4.8810   22.5490 C   0  0  0  0  0  0  0  0  0  0  0  0
  -22.3870   -4.3260   21.3630 F   0  0  0  0  0  0  0  0  0  0  0  0
  -21.4930   -3.8650   26.0310 F   0  0  0  0  0  0  0  0  0  0  0  0
  -22.8830  -13.6300   21.1450 C   0  0  0  0  0  0  0  0  0  0  0  0
  -22.1970  -12.9320   22.0430 N   0  0  0  0  0  0  0  0  0  0  0  0
  -22.4240  -14.6590   20.6520 O   0  0  0  0  0  0  0  0  0  0  0  0
  -22.5810  -12.0990   22.4620 H   0  0  0  0  0  0  0  0  0  0  0  0
  -21.2730  -13.2370   22.3160 H   0  0  0  0  0  0  0  0  0  0  0  0
  -25.4780  -15.2920   20.2170 N   0  0  0  0  0  0  0  0  0  0  0  0
  -24.7290  -15.9550   20.3830 H   0  0  0  0  0  0  0  0  0  0  0  0
  -26.3300  -15.7280   19.8860 H   0  0  0  0  0  0  0  0  0  0  0  0
  1  2  1  0
  1 45  2  0
  3  4  1  0
  3  2  2  0
  5 16  2  0
  6  4  1  0
  6 11  1  0
  7 15  1  0
  7 17  1  0
  8 14  1  0
  8 10  1  0
  9 15  1  0
 10 11  2  0
 10  9  1  0
 12 13  1  0
 12  6  2  0
 13  8  2  0
 14  7  1  0
 15  5  1  0
 17 19  2  0
 18 17  1  0
 20 18  1  0
 21 30  2  0
 21 26  1  0
 22 18  1  0
 22 26  1  0
 23 22  1  0
 24 25  1  0
 24 23  1  0
 25 21  1  0
 26 27  2  0
 27 28  1  0
 29 28  2  0
 30 29  1  0
 31  5  1  0
 31 32  1  0
 31 41  1  0
 32 35  1  0
 33 37  1  0
 33 32  1  0
 34 33  2  0
 37 36  1  0
 39 37  1  0
 39 40  1  0
 39 38  1  0
 41 44  1  1
 41 42  1  0
 43 41  1  0
 46 48  2  0
 47 46  1  0
 47 45  1  0
 49 47  1  0
 50 51  1  0
 50 46  1  0
 52 51  1  0
 53 58  1  0
 54 55  1  0
 54 53  1  0
 56 55  1  0
 56 63  1  0
 56 57  1  0
 58 52  1  0
 58 57  1  0
 59 52  2  0
 60 61  2  0
 61 80  1  0
 62 61  1  0
 62 65  1  0
 63 64  1  0
 63 60  1  0
 64 62  2  0
 65 66  1  0
 66 67  2  0
 68 71  1  0
 68 67  1  0
 69 68  2  0
 70 69  1  0
 70 65  2  0
 71 72  1  0
 72 73  1  0
 73 74  2  0
 75 74  1  0
 75 79  1  0
 76 75  2  0
 77 72  2  0
 77 76  1  0
 78 77  1  0
 80 81  1  0
 81 84  1  0
 81 83  1  0
 82 80  2  0
 85 86  1  0
 85 60  1  0
 87 85  1  0
M  ISO  4   3 101   4 101  51 100  52 100
M  END
>  <TORSDO>  (4) 
F 22

>  <SCORE>  (4) 
-12.404

>  <name>  (4) 
3

>  <ligand_id>  (4) 
3

>  <original_smiles>  (4) 
[H]c1c([H])c([H])c2c(c1[H])C([H])([H])C([H])([H])C([H])([H])C2([H])N([H])C(=O)C1([H])N(C(=O)C([H])(N([H])C(=O)C([H])(N([H])C([H])([H])[H])C([H])([H])[H])C(C([H])([H])[H])(C([H])([H])[H])C([H])([H])[H])C([H])([H])c2c([H])c(OC([H])([H])C([H])([H])C([H])([H])C([H])([H])N([H])C(=O)C([H])([H])OC(=O)N3C([H])([H])C([H])([H])C([H])([H])C([H])(n4nc(-c5c([H])c([H])c(Oc6c([H])c([H])c(F)c([H])c6F)c([H])c5[H])c(C(=O)N([H])[H])c4N([H])[H])C3([H])[H])c([H])c([H])c2C1([H])[H]

>  <smiles>  (4) 
[H]c1c([H])c([H])c2c(c1[H])C([H])([H])C([H])([H])C([H])([H])C2([H])N([H])C(=O)C1([H])N(C(=O)C([H])(N([H])C(=O)C([H])(N([H])C([H])([H])[H])C([H])([H])[H])C(C([H])([H])[H])(C([H])([H])[H])C([H])([H])[H])C([H])([H])c2c([H])c(OC([H])([H])C([H])([H])C([H])([H])C([H])([H])N([H])C(=O)C([H])([H])OC(=O)N3C([H])([H])C([H])([H])C([H])([H])C([H])(n4nc(-c5c([H])c([H])c(Oc6c([H])c([H])c(F)c([H])c6F)c([H])c5[H])c(C(=O)N([H])[H])c4N([H])[H])C3([H])[H])c([H])c([H])c2C1([H])[H]

$$$$
4:0:0
     RDKit          3D

 82 86  0  0  1  0  0  0  0  0999 V2000
  -28.2030  -25.2140   20.1870 O   0  0  0  0  0  1  0  0  0  0  0  0
  -24.6590  -31.8230   23.1160 C   0  0  0  0  0  0  0  0  0  0  0  0
  -27.2270  -26.5180   20.2190 C   0  0  0  0  0  0  0  0  0  0  0  0
  -23.5030  -30.4040   21.4840 C   0  0  0  0  0  3  0  0  0  0  0  0
  -24.9680  -28.6960   20.1210 C   0  0  0  0  0  0  0  0  0  0  0  0
  -26.0920  -30.4850   21.4080 C   0  0  0  0  0  2  0  0  0  0  0  0
  -26.1660  -29.0180   20.7700 C   0  0  0  0  0  0  0  0  0  0  0  0
  -27.2690  -27.9690   20.7710 C   0  0  0  0  0  3  0  0  0  0  0  0
  -25.9850  -26.4690   19.5130 C   0  0  0  0  0  3  0  0  0  0  0  0
  -24.9320  -27.4500   19.4670 C   0  0  0  0  0  3  0  0  0  0  0  0
  -23.7680  -29.6710   20.1330 C   0  0  0  0  0  2  0  0  0  0  0  0
  -24.7790  -30.9440   22.0540 N   0  0  0  0  0  0  0  0  0  0  0  0
  -23.5550  -32.1300   23.6020 O   0  0  0  0  0  0  0  0  0  0  0  0
  -22.7610  -29.4600   22.4680 C   0  0  0  0  0  0  0  0  0  0  0  0
  -21.4220  -29.3490   22.3610 N   0  0  0  0  0  0  0  0  0  0  0  0
  -23.4040  -28.8170   23.3000 O   0  0  0  0  0  0  0  0  0  0  0  0
  -20.9470  -29.9240   21.6780 H   0  0  0  0  0  0  0  0  0  0  0  0
  -18.0030  -28.1330   22.8590 C   0  0  0  0  0  0  0  0  0  0  0  0
  -20.5950  -28.3830   23.0970 C   0  0  0  0  0  0  0  0  0  0  0  0
  -20.7720  -26.9760   22.4620 C   0  0  0  0  0  3  0  0  0  0  0  0
  -19.5380  -26.4150   21.7220 C   0  0  0  0  0  3  0  0  0  0  0  0
  -18.0990  -26.8440   22.0560 C   0  0  0  0  0  3  0  0  0  0  0  0
  -19.1450  -28.8670   23.2920 C   0  0  0  0  0  0  0  0  0  0  0  0
  -18.9400  -30.1130   23.9270 C   0  0  0  0  0  3  0  0  0  0  0  0
  -17.6430  -30.6230   24.1300 C   0  0  0  0  0  3  0  0  0  0  0  0
  -16.5250  -29.8800   23.7210 C   0  0  0  0  0  3  0  0  0  0  0  0
  -16.7080  -28.6360   23.0960 C   0  0  0  0  0  3  0  0  0  0  0  0
  -25.9010  -32.4970   23.7720 C   0  0  0  0  0  3  0  0  0  0  0  0
  -25.5540  -33.8960   24.1020 N   0  0  0  0  0  0  0  0  0  0  0  0
  -25.8860  -34.9730   23.3740 C   0  0  0  0  0  0  0  0  0  0  0  0
  -26.5670  -34.8910   22.3500 O   0  0  0  0  0  0  0  0  0  0  0  0
  -24.9460  -34.0310   24.8960 H   0  0  0  0  0  0  0  0  0  0  0  0
  -24.1500  -36.7720   23.0460 C   0  0  0  0  0  1  0  0  0  0  0  0
  -25.3900  -36.3550   23.8530 C   0  0  0  0  0  3  0  0  0  0  0  0
  -27.5120  -37.2520   24.7100 C   0  0  0  0  0  1  0  0  0  0  0  0
  -26.4160  -37.4190   23.7590 N   0  0  0  0  0  0  0  0  0  0  0  0
  -26.0000  -38.3340   23.9110 H   0  0  0  0  0  0  0  0  0  0  0  0
  -26.3860  -31.7540   25.0790 C   0  0  1  0  0  0  0  0  0  0  0  0
  -25.2660  -31.5290   26.1240 C   0  0  0  0  0  1  0  0  0  0  0  0
  -26.9880  -30.3730   24.7440 C   0  0  0  0  0  1  0  0  0  0  0  0
  -27.5140  -32.5680   25.7560 C   0  0  0  0  0  1  0  0  0  0  0  0
  -28.2300  -23.3320   20.4390 C   0  0  0  0  0 15  0  0  0  0  0  0
  -28.7870  -21.3790   19.8640 C   0  0  0  0  0 15  0  0  0  0  0  0
  -29.3980  -19.4400   20.4120 C   0  0  0  0  0  1  0  0  0  0  0  0
  -30.1690  -16.0920   20.0360 C   0  0  0  0  0  0  0  0  0  0  0  0
  -30.3590  -13.4710   19.1990 C   0  0  0  0  0  2  0  0  0  0  0  0
  -29.4770  -12.8700   18.0550 C   0  0  0  0  0  2  0  0  0  0  0  0
  -28.1030  -12.4290   18.5740 C   0  0  0  0  0  2  0  0  0  0  0  0
  -27.5630  -13.4490   19.5940 C   0  0  0  0  0  3  0  0  0  0  0  0
  -28.6020  -13.9210   20.6470 C   0  0  0  0  0  2  0  0  0  0  0  0
  -29.6750  -14.6720   19.9180 N   0  0  0  0  0  0  0  0  0  0  0  0
  -31.4150  -15.9560   19.9590 O   0  0  0  0  0  0  0  0  0  0  0  0
  -29.4220  -17.5600   20.0550 N   0  0  0  0  0  0  0  0  0  0  0  0
  -28.4530  -17.3130   19.9040 H   0  0  0  0  0  0  0  0  0  0  0  0
  -25.2310  -13.9310   20.4500 C   0  0  0  0  0  0  0  0  0  0  0  0
  -24.1900  -13.1380   20.8360 C   0  0  0  0  0  0  0  0  0  0  0  0
  -24.6710  -11.7930   20.7770 C   0  0  0  0  0  0  0  0  0  0  0  0
  -26.2760  -13.0750   20.1660 N   0  0  0  0  0  0  0  0  0  0  0  0
  -25.9570  -11.7790   20.4270 N   0  0  0  0  0  0  0  0  0  0  0  0
  -23.9560  -10.5240   20.9740 C   0  0  0  0  0  0  0  0  0  0  0  0
  -24.4050   -9.5560   21.8990 C   0  0  0  0  0  3  0  0  0  0  0  0
  -23.6830   -8.3560   22.0890 C   0  0  0  0  0  3  0  0  0  0  0  0
  -22.4960   -8.1180   21.3550 C   0  0  0  0  0  0  0  0  0  0  0  0
  -22.0660   -9.0740   20.4200 C   0  0  0  0  0  3  0  0  0  0  0  0
  -22.7890  -10.2650   20.2280 C   0  0  0  0  0  3  0  0  0  0  0  0
  -21.7460   -6.9710   21.4550 O   0  0  0  0  0  0  0  0  0  0  0  0
  -21.7090   -6.2310   22.6100 C   0  0  0  0  0  0  0  0  0  0  0  0
  -21.2840   -6.7860   23.8360 C   0  0  0  0  0  3  0  0  0  0  0  0
  -21.1960   -5.9730   24.9840 C   0  0  0  0  0  3  0  0  0  0  0  0
  -21.5230   -4.6050   24.9060 C   0  0  0  0  0  0  0  0  0  0  0  0
  -21.9420   -4.0500   23.6840 C   0  0  0  0  0  3  0  0  0  0  0  0
  -22.0320   -4.8600   22.5390 C   0  0  0  0  0  0  0  0  0  0  0  0
  -22.4140   -4.3150   21.3590 F   0  0  0  0  0  0  0  0  0  0  0  0
  -21.4320   -3.8220   26.0060 F   0  0  0  0  0  0  0  0  0  0  0  0
  -22.7960  -13.6030   21.1400 C   0  0  0  0  0  0  0  0  0  0  0  0
  -22.0920  -12.8960   22.0160 N   0  0  0  0  0  0  0  0  0  0  0  0
  -22.3430  -14.6300   20.6380 O   0  0  0  0  0  0  0  0  0  0  0  0
  -22.4740  -12.0650   22.4440 H   0  0  0  0  0  0  0  0  0  0  0  0
  -21.1580  -13.1890   22.2630 H   0  0  0  0  0  0  0  0  0  0  0  0
  -25.3710  -15.3060   20.2780 N   0  0  0  0  0  0  0  0  0  0  0  0
  -24.5980  -15.9490   20.4140 H   0  0  0  0  0  0  0  0  0  0  0  0
  -26.2020  -15.7550   19.9170 H   0  0  0  0  0  0  0  0  0  0  0  0
  1  3  1  0
  2 13  2  0
  3  8  1  0
  4 12  1  0
  4 14  1  0
  5 11  1  0
  5  7  1  0
  6 12  1  0
  7  8  2  0
  7  6  1  0
  9  3  2  0
 10  9  1  0
 10  5  2  0
 11  4  1  0
 12  2  1  0
 14 16  2  0
 15 14  1  0
 15 19  1  0
 17 15  1  0
 18 27  2  0
 18 23  1  0
 19 23  1  0
 20 19  2  0
 21 22  2  0
 21 20  1  0
 22 18  1  0
 23 24  2  0
 24 25  1  0
 26 25  2  0
 27 26  1  0
 28  2  1  0
 28 29  1  0
 28 38  1  0
 29 32  1  0
 30 34  1  0
 30 29  1  0
 31 30  2  0
 34 33  1  0
 36 34  1  0
 36 37  1  0
 36 35  1  0
 38 41  1  1
 38 39  1  0
 40 38  1  0
 45 53  1  0
 46 51  1  0
 47 48  1  0
 47 46  1  0
 49 48  1  0
 49 58  1  0
 49 50  1  0
 51 45  1  0
 51 50  1  0
 52 45  2  0
 53 44  1  0
 54 53  1  0
 55 56  2  0
 56 75  1  0
 57 56  1  0
 57 60  1  0
 58 59  1  0
 58 55  1  0
 59 57  2  0
 60 61  1  0
 61 62  2  0
 63 66  1  0
 63 62  1  0
 64 63  2  0
 65 64  1  0
 65 60  2  0
 66 67  1  0
 67 68  1  0
 68 69  2  0
 70 69  1  0
 70 74  1  0
 71 70  2  0
 72 67  2  0
 72 71  1  0
 73 72  1  0
 75 76  1  0
 76 79  1  0
 76 78  1  0
 77 75  2  0
 80 81  1  0
 80 55  1  0
 82 80  1  0
M  ISO  4   1 101  42 101  45 100  53 100
M  END
>  <TORSDO>  (5) 
F 18

>  <SCORE>  (5) 
-16.165

>  <name>  (5) 
4

>  <ligand_id>  (5) 
4

>  <original_smiles>  (5) 
[H]c1c([H])c([H])c2c(c1[H])C([H])([H])C([H])([H])C([H])([H])C2([H])N([H])C(=O)C1([H])N(C(=O)C([H])(N([H])C(=O)C([H])(N([H])C([H])([H])[H])C([H])([H])[H])C(C([H])([H])[H])(C([H])([H])[H])C([H])([H])[H])C([H])([H])c2c([H])c(OC([H])([H])C([H])([H])C([H])([H])N([H])C(=O)N3C([H])([H])C([H])([H])C([H])([H])C([H])(n4nc(-c5c([H])c([H])c(Oc6c([H])c([H])c(F)c([H])c6F)c([H])c5[H])c(C(=O)N([H])[H])c4N([H])[H])C3([H])[H])c([H])c([H])c2C1([H])[H]

>  <smiles>  (5) 
[H]c1c([H])c([H])c2c(c1[H])C([H])([H])C([H])([H])C([H])([H])C2([H])N([H])C(=O)C1([H])N(C(=O)C([H])(N([H])C(=O)C([H])(N([H])C([H])([H])[H])C([H])([H])[H])C(C([H])([H])[H])(C([H])([H])[H])C([H])([H])[H])C([H])([H])c2c([H])c(OC([H])([H])C([H])([H])C([H])([H])N([H])C(=O)N3C([H])([H])C([H])([H])C([H])([H])C([H])(n4nc(-c5c([H])c([H])c(Oc6c([H])c([H])c(F)c([H])c6F)c([H])c5[H])c(C(=O)N([H])[H])c4N([H])[H])C3([H])[H])c([H])c([H])c2C1([H])[H]

$$$$
5:0:0
     RDKit          3D

 89 97  0  0  1  0  0  0  0  0999 V2000
  -28.8940  -20.1020   20.0770 O   0  0  0  0  0  0  0  0  0  0  0  0
  -31.4200  -18.1600   22.9620 C   0  0  0  0  0  3  0  0  0  0  0  0
  -31.2970  -19.5310   22.7730 C   0  0  0  0  0  3  0  0  0  0  0  0
  -30.8350  -17.2840   22.0490 C   0  0  0  0  0  3  0  0  0  0  0  0
  -30.5150  -20.0230   21.7260 C   0  0  0  0  0  3  0  0  0  0  0  0
  -30.0690  -17.6780   20.9140 C   0  0  0  0  0  0  0  0  0  0  0  0
  -29.7980  -19.2070   20.8120 C   0  0  0  0  0  0  0  0  0  0  0  0
  -30.4410  -15.1150   20.0590 C   0  0  0  0  0  0  0  0  0  0  0  0
  -30.3200  -12.7600   19.0610 C   0  0  0  0  0  2  0  0  0  0  0  0
  -29.3320  -12.6670   17.8770 C   0  0  0  0  0  2  0  0  0  0  0  0
  -27.9140  -12.3810   18.4090 C   0  0  0  0  0  2  0  0  0  0  0  0
  -27.5330  -13.3410   19.5710 C   0  0  0  0  0  3  0  0  0  0  0  0
  -28.6330  -13.4010   20.6510 C   0  0  0  0  0  2  0  0  0  0  0  0
  -29.8480  -13.8510   19.9720 N   0  0  0  0  0  0  0  0  0  0  0  0
  -31.6440  -15.1530   19.7800 O   0  0  0  0  0  0  0  0  0  0  0  0
  -29.6810  -16.3430   20.2270 N   0  0  0  0  0  0  0  0  0  0  0  0
  -28.6860  -16.1970   20.1880 H   0  0  0  0  0  0  0  0  0  0  0  0
  -25.1940  -13.9190   20.4180 C   0  0  0  0  0  0  0  0  0  0  0  0
  -24.1470  -13.1380   20.8230 C   0  0  0  0  0  0  0  0  0  0  0  0
  -24.6150  -11.7880   20.7670 C   0  0  0  0  0  0  0  0  0  0  0  0
  -26.2250  -13.0420   20.1320 N   0  0  0  0  0  0  0  0  0  0  0  0
  -25.8920  -11.7580   20.4130 N   0  0  0  0  0  0  0  0  0  0  0  0
  -23.9020  -10.5230   20.9740 C   0  0  0  0  0  0  0  0  0  0  0  0
  -24.3640   -9.5620   21.9020 C   0  0  0  0  0  3  0  0  0  0  0  0
  -23.6520   -8.3600   22.1020 C   0  0  0  0  0  3  0  0  0  0  0  0
  -22.4670   -8.1070   21.3690 C   0  0  0  0  0  0  0  0  0  0  0  0
  -22.0250   -9.0560   20.4320 C   0  0  0  0  0  3  0  0  0  0  0  0
  -22.7390  -10.2500   20.2310 C   0  0  0  0  0  3  0  0  0  0  0  0
  -21.7250   -6.9580   21.4790 O   0  0  0  0  0  0  0  0  0  0  0  0
  -21.6960   -6.2240   22.6380 C   0  0  0  0  0  0  0  0  0  0  0  0
  -21.2520   -6.7780   23.8590 C   0  0  0  0  0  3  0  0  0  0  0  0
  -21.1700   -5.9690   25.0100 C   0  0  0  0  0  3  0  0  0  0  0  0
  -21.5240   -4.6090   24.9430 C   0  0  0  0  0  0  0  0  0  0  0  0
  -21.9580   -4.0530   23.7280 C   0  0  0  0  0  3  0  0  0  0  0  0
  -22.0400   -4.8590   22.5780 C   0  0  0  0  0  0  0  0  0  0  0  0
  -22.4400   -4.3120   21.4050 F   0  0  0  0  0  0  0  0  0  0  0  0
  -21.4380   -3.8330   26.0480 F   0  0  0  0  0  0  0  0  0  0  0  0
  -22.7590  -13.6020   21.1460 C   0  0  0  0  0  0  0  0  0  0  0  0
  -22.0620  -12.8920   22.0270 N   0  0  0  0  0  0  0  0  0  0  0  0
  -22.2940  -14.6290   20.6470 O   0  0  0  0  0  0  0  0  0  0  0  0
  -22.4520  -12.0600   22.4500 H   0  0  0  0  0  0  0  0  0  0  0  0
  -21.1260  -13.1760   22.2780 H   0  0  0  0  0  0  0  0  0  0  0  0
  -25.3320  -15.2930   20.2430 N   0  0  0  0  0  0  0  0  0  0  0  0
  -24.5570  -15.9250   20.4170 H   0  0  0  0  0  0  0  0  0  0  0  0
  -26.1470  -15.7670   19.8710 H   0  0  0  0  0  0  0  0  0  0  0  0
  -28.9710  -21.6780   19.7920 C   0  0  0  0  0  2  0  0  0  0  0  0
  -28.6860  -23.1670   20.6210 C   0  0  0  0  0  3  0  0  0  0  0  0
  -28.2320  -24.6650   19.8820 C   0  0  0  0  0  3  0  0  0  0  0  0
  -28.2480  -26.1780   20.3640 O   0  0  0  0  0  0  0  0  0  0  0  0
  -24.6570  -31.9430   23.2620 C   0  0  0  0  0  0  0  0  0  0  0  0
  -27.1960  -27.1840   20.2220 C   0  0  0  0  0  0  0  0  0  0  0  0
  -23.4440  -30.5580   21.6240 C   0  0  0  0  0  3  0  0  0  0  0  0
  -24.8720  -28.9750   20.1800 C   0  0  0  0  0  0  0  0  0  0  0  0
  -25.9920  -30.8010   21.4400 C   0  0  0  0  0  2  0  0  0  0  0  0
  -26.0580  -29.4020   20.7940 C   0  0  0  0  0  0  0  0  0  0  0  0
  -27.2090  -28.5220   20.8020 C   0  0  0  0  0  3  0  0  0  0  0  0
  -25.9930  -26.8830   19.5380 C   0  0  0  0  0  3  0  0  0  0  0  0
  -24.8560  -27.7260   19.5360 C   0  0  0  0  0  3  0  0  0  0  0  0
  -23.6520  -29.8850   20.2400 C   0  0  0  0  0  2  0  0  0  0  0  0
  -24.7210  -31.1250   22.1680 N   0  0  0  0  0  0  0  0  0  0  0  0
  -23.5740  -32.2320   23.7940 O   0  0  0  0  0  0  0  0  0  0  0  0
  -22.7690  -29.5500   22.5850 C   0  0  0  0  0  0  0  0  0  0  0  0
  -21.4390  -29.3820   22.4630 N   0  0  0  0  0  0  0  0  0  0  0  0
  -23.4440  -28.9240   23.4080 O   0  0  0  0  0  0  0  0  0  0  0  0
  -20.9490  -29.9650   21.8020 H   0  0  0  0  0  0  0  0  0  0  0  0
  -18.0610  -28.1800   22.9440 C   0  0  0  0  0  0  0  0  0  0  0  0
  -20.6180  -28.4400   23.2220 C   0  0  0  0  0  3  0  0  0  0  0  0
  -20.7200  -27.0120   22.6340 C   0  0  0  0  0  2  0  0  0  0  0  0
  -19.6240  -26.7120   21.6100 C   0  0  0  0  0  2  0  0  0  0  0  0
  -18.2400  -26.8390   22.2530 C   0  0  0  0  0  2  0  0  0  0  0  0
  -19.1770  -28.9410   23.3800 C   0  0  0  0  0  0  0  0  0  0  0  0
  -18.9570  -30.2020   23.9720 C   0  0  0  0  0  3  0  0  0  0  0  0
  -17.6520  -30.7050   24.1300 C   0  0  0  0  0  3  0  0  0  0  0  0
  -16.5480  -29.9400   23.7150 C   0  0  0  0  0  3  0  0  0  0  0  0
  -16.7530  -28.6750   23.1340 C   0  0  0  0  0  3  0  0  0  0  0  0
  -25.9390  -32.5750   23.8890 C   0  0  0  0  0  3  0  0  0  0  0  0
  -26.4300  -31.8130   25.1810 C   0  0  1  0  0  0  0  0  0  0  0  0
  -25.3260  -31.6040   26.2440 C   0  0  0  0  0  1  0  0  0  0  0  0
  -26.9970  -30.4240   24.8070 C   0  0  0  0  0  1  0  0  0  0  0  0
  -27.5860  -32.5990   25.8390 C   0  0  0  0  0  1  0  0  0  0  0  0
  -25.6410  -33.9820   24.2050 N   0  0  0  0  0  0  0  0  0  0  0  0
  -25.9890  -35.0280   23.4440 C   0  0  0  0  0  0  0  0  0  0  0  0
  -26.6590  -34.9070   22.4160 O   0  0  0  0  0  0  0  0  0  0  0  0
  -25.0360  -34.1440   24.9980 H   0  0  0  0  0  0  0  0  0  0  0  0
  -24.2900  -36.8490   23.0720 C   0  0  0  0  0  1  0  0  0  0  0  0
  -25.5230  -36.4280   23.8890 C   0  0  0  0  0  3  0  0  0  0  0  0
  -27.6700  -37.2870   24.7230 C   0  0  0  0  0  1  0  0  0  0  0  0
  -26.5760  -37.4640   23.7700 N   0  0  0  0  0  0  0  0  0  0  0  0
  -26.1840  -38.3930   23.9030 H   0  0  0  0  0  0  0  0  0  0  0  0
  1  7  1  0
  3  2  1  0
  4  2  2  0
  5  3  2  0
  6  4  1  0
  7  6  2  0
  7  5  1  0
  8 16  1  0
  9 14  1  0
 10 11  1  0
 10  9  1  0
 12 11  1  0
 12 21  1  0
 12 13  1  0
 14  8  1  0
 14 13  1  0
 15  8  2  0
 16  6  1  0
 17 16  1  0
 18 19  2  0
 19 38  1  0
 20 19  1  0
 20 23  1  0
 21 22  1  0
 21 18  1  0
 22 20  2  0
 23 24  1  0
 24 25  2  0
 26 29  1  0
 26 25  1  0
 27 26  2  0
 28 27  1  0
 28 23  2  0
 29 30  1  0
 30 31  1  0
 31 32  2  0
 33 32  1  0
 33 37  1  0
 34 33  2  0
 35 30  2  0
 35 34  1  0
 36 35  1  0
 38 39  1  0
 39 42  1  0
 39 41  1  0
 40 38  2  0
 43 44  1  0
 43 18  1  0
 45 43  1  0
 46  1  1  0
 46 47  1  0
 48 49  1  0
 48 47  2  0
 50 61  2  0
 51 49  1  0
 51 56  1  0
 52 60  1  0
 52 62  1  0
 53 59  1  0
 53 55  1  0
 54 60  1  0
 55 56  2  0
 55 54  1  0
 57 51  2  0
 58 57  1  0
 58 53  2  0
 59 52  1  0
 60 50  1  0
 62 64  2  0
 63 62  1  0
 65 63  1  0
 66 75  2  0
 66 71  1  0
 67 63  1  0
 67 71  1  0
 68 67  1  0
 69 70  1  0
 69 68  1  0
 70 66  1  0
 71 72  2  0
 72 73  1  0
 74 73  2  0
 75 74  1  0
 76 50  1  0
 76 81  1  0
 76 77  1  0
 77 80  1  1
 77 78  1  0
 79 77  1  0
 81 84  1  0
 82 86  1  0
 82 81  1  0
 83 82  2  0
 86 85  1  0
 88 86  1  0
 88 89  1  0
 88 87  1  0
M  ISO  4   8 100  16 100  48 101  49 101
M  END
>  <TORSDO>  (6) 
F 20

>  <SCORE>  (6) 
-14.576

>  <name>  (6) 
5

>  <ligand_id>  (6) 
5

>  <original_smiles>  (6) 
[H]c1c([H])c([H])c(N([H])C(=O)N2C([H])([H])C([H])([H])C([H])([H])C([H])(n3nc(-c4c([H])c([H])c(Oc5c([H])c([H])c(F)c([H])c5F)c([H])c4[H])c(C(=O)N([H])[H])c3N([H])[H])C2([H])[H])c(OC([H])([H])C([H])([H])C([H])([H])Oc2c([H])c([H])c3c(c2[H])C([H])([H])N(C(=O)C([H])(N([H])C(=O)C([H])(N([H])C([H])([H])[H])C([H])([H])[H])C(C([H])([H])[H])(C([H])([H])[H])C([H])([H])[H])C([H])(C(=O)N([H])C2([H])c4c([H])c([H])c([H])c([H])c4C([H])([H])C([H])([H])C2([H])[H])C3([H])[H])c1[H]

>  <smiles>  (6) 
[H]c1c([H])c([H])c(N([H])C(=O)N2C([H])([H])C([H])([H])C([H])([H])C([H])(n3nc(-c4c([H])c([H])c(Oc5c([H])c([H])c(F)c([H])c5F)c([H])c4[H])c(C(=O)N([H])[H])c3N([H])[H])C2([H])[H])c(OC([H])([H])C([H])([H])C([H])([H])Oc2c([H])c([H])c3c(c2[H])C([H])([H])N(C(=O)C([H])(N([H])C(=O)C([H])(N([H])C([H])([H])[H])C([H])([H])[H])C(C([H])([H])[H])(C([H])([H])[H])C([H])([H])[H])C([H])(C(=O)N([H])C2([H])c4c([H])c([H])c([H])c([H])c4C([H])([H])C([H])([H])C2([H])[H])C3([H])[H])c1[H]

$$$$
6:0:0
     RDKit          3D

 87 94  0  0  1  0  0  0  0  0999 V2000
  -29.1130  -22.7980   20.1480 O   0  0  0  0  0  0  0  0  0  0  0  0
  -29.2650  -24.1800   20.5710 C   0  0  0  0  0  2  0  0  0  0  0  0
  -28.1950  -25.1410   19.9510 C   0  0  0  0  0  2  0  0  0  0  0  0
  -28.3440  -26.5690   20.2300 O   0  0  0  0  0  0  0  0  0  0  0  0
  -24.6030  -31.8820   23.2540 C   0  0  0  0  0  0  0  0  0  0  0  0
  -27.2030  -27.3700   20.1730 C   0  0  0  0  0  0  0  0  0  0  0  0
  -23.3880  -30.4910   21.6140 C   0  0  0  0  0  3  0  0  0  0  0  0
  -24.8290  -28.9470   20.1790 C   0  0  0  0  0  0  0  0  0  0  0  0
  -25.9230  -30.8160   21.4190 C   0  0  0  0  0  2  0  0  0  0  0  0
  -25.9960  -29.4430   20.7740 C   0  0  0  0  0  0  0  0  0  0  0  0
  -27.1840  -28.6630   20.7670 C   0  0  0  0  0  3  0  0  0  0  0  0
  -26.0140  -26.9200   19.5460 C   0  0  0  0  0  3  0  0  0  0  0  0
  -24.8370  -27.6890   19.5590 C   0  0  0  0  0  3  0  0  0  0  0  0
  -23.5920  -29.8180   20.2320 C   0  0  0  0  0  2  0  0  0  0  0  0
  -24.6560  -31.0790   22.1530 N   0  0  0  0  0  0  0  0  0  0  0  0
  -23.5240  -32.1610   23.7950 O   0  0  0  0  0  0  0  0  0  0  0  0
  -22.7290  -29.4710   22.5730 C   0  0  0  0  0  0  0  0  0  0  0  0
  -21.4040  -29.2960   22.4460 N   0  0  0  0  0  0  0  0  0  0  0  0
  -23.4090  -28.8420   23.3890 O   0  0  0  0  0  0  0  0  0  0  0  0
  -20.9160  -29.8550   21.7610 H   0  0  0  0  0  0  0  0  0  0  0  0
  -18.0240  -28.1080   22.9390 C   0  0  0  0  0  0  0  0  0  0  0  0
  -20.5820  -28.3620   23.2170 C   0  0  0  0  0  3  0  0  0  0  0  0
  -20.6820  -26.9290   22.6440 C   0  0  0  0  0  2  0  0  0  0  0  0
  -19.5830  -26.6070   21.6270 C   0  0  0  0  0  2  0  0  0  0  0  0
  -18.2000  -26.7570   22.2670 C   0  0  0  0  0  2  0  0  0  0  0  0
  -19.1430  -28.8680   23.3700 C   0  0  0  0  0  0  0  0  0  0  0  0
  -18.9250  -30.1340   23.9590 C   0  0  0  0  0  3  0  0  0  0  0  0
  -17.6220  -30.6390   24.1180 C   0  0  0  0  0  3  0  0  0  0  0  0
  -16.5170  -29.8760   23.7040 C   0  0  0  0  0  3  0  0  0  0  0  0
  -16.7190  -28.6120   23.1200 C   0  0  0  0  0  3  0  0  0  0  0  0
  -25.8930  -32.5060   23.8720 C   0  0  0  0  0  3  0  0  0  0  0  0
  -26.4080  -31.7310   25.1470 C   0  0  1  0  0  0  0  0  0  0  0  0
  -25.3180  -31.5010   26.2190 C   0  0  0  0  0  1  0  0  0  0  0  0
  -26.9820  -30.3500   24.7520 C   0  0  0  0  0  1  0  0  0  0  0  0
  -27.5640  -32.5190   25.8080 C   0  0  0  0  0  1  0  0  0  0  0  0
  -25.5920  -33.9060   24.2030 N   0  0  0  0  0  0  0  0  0  0  0  0
  -25.9250  -34.9570   23.4410 C   0  0  0  0  0  0  0  0  0  0  0  0
  -26.5890  -34.8480   22.4060 O   0  0  0  0  0  0  0  0  0  0  0  0
  -25.0030  -34.0650   25.0080 H   0  0  0  0  0  0  0  0  0  0  0  0
  -24.2020  -36.7560   23.0930 C   0  0  0  0  0  1  0  0  0  0  0  0
  -25.4460  -36.3470   23.8980 C   0  0  0  0  0  3  0  0  0  0  0  0
  -27.5900  -37.2240   24.7140 C   0  0  0  0  0  1  0  0  0  0  0  0
  -26.4820  -37.3950   23.7780 N   0  0  0  0  0  0  0  0  0  0  0  0
  -26.0800  -38.3170   23.9270 H   0  0  0  0  0  0  0  0  0  0  0  0
  -29.8660  -21.8260   20.9130 C   0  0  0  0  0  2  0  0  0  0  0  0
  -29.9940  -20.3890   20.2800 C   0  0  0  0  0  2  0  0  0  0  0  0
  -29.6060  -19.3250   21.1790 O   0  0  0  0  0  0  0  0  0  0  0  0
  -30.3560  -18.0820   21.1900 C   0  0  0  0  0  2  0  0  0  0  0  0
  -29.9920  -17.0260   20.1000 C   0  0  0  0  0  2  0  0  0  0  0  0
  -30.6580  -14.5630   20.1340 C   0  0  0  0  0  0  0  0  0  0  0  0
  -30.3320  -12.3860   19.0110 C   0  0  0  0  0  2  0  0  0  0  0  0
  -29.3420  -12.5990   17.8440 C   0  0  0  0  0  2  0  0  0  0  0  0
  -27.8850  -12.4670   18.3310 C   0  0  0  0  0  2  0  0  0  0  0  0
  -27.6040  -13.2910   19.6150 C   0  0  0  0  0  3  0  0  0  0  0  0
  -28.7030  -13.0590   20.6790 C   0  0  0  0  0  2  0  0  0  0  0  0
  -30.0040  -13.3660   20.0610 N   0  0  0  0  0  0  0  0  0  0  0  0
  -31.7760  -14.7380   19.6440 O   0  0  0  0  0  0  0  0  0  0  0  0
  -29.9110  -15.6090   20.5580 N   0  0  0  0  0  0  0  0  0  0  0  0
  -29.0360  -15.3490   20.9880 H   0  0  0  0  0  0  0  0  0  0  0  0
  -25.2410  -13.9170   20.4180 C   0  0  0  0  0  0  0  0  0  0  0  0
  -24.1800  -13.1550   20.8240 C   0  0  0  0  0  0  0  0  0  0  0  0
  -24.6260  -11.7980   20.7700 C   0  0  0  0  0  0  0  0  0  0  0  0
  -26.2680  -13.0270   20.1440 N   0  0  0  0  0  0  0  0  0  0  0  0
  -25.9040  -11.7470   20.4140 N   0  0  0  0  0  0  0  0  0  0  0  0
  -23.8950  -10.5420   20.9820 C   0  0  0  0  0  0  0  0  0  0  0  0
  -24.3570   -9.5630   21.8880 C   0  0  0  0  0  3  0  0  0  0  0  0
  -23.6260   -8.3710   22.0880 C   0  0  0  0  0  3  0  0  0  0  0  0
  -22.4190   -8.1520   21.3830 C   0  0  0  0  0  0  0  0  0  0  0  0
  -21.9750   -9.1210   20.4660 C   0  0  0  0  0  3  0  0  0  0  0  0
  -22.7060  -10.3040   20.2640 C   0  0  0  0  0  3  0  0  0  0  0  0
  -21.6570   -7.0150   21.4950 O   0  0  0  0  0  0  0  0  0  0  0  0
  -21.6560   -6.2580   22.6390 C   0  0  0  0  0  0  0  0  0  0  0  0
  -21.3040   -6.8040   23.8930 C   0  0  0  0  0  3  0  0  0  0  0  0
  -21.2500   -5.9740   25.0310 C   0  0  0  0  0  3  0  0  0  0  0  0
  -21.5350   -4.6010   24.9170 C   0  0  0  0  0  0  0  0  0  0  0  0
  -21.8800   -4.0550   23.6680 C   0  0  0  0  0  3  0  0  0  0  0  0
  -21.9370   -4.8820   22.5310 C   0  0  0  0  0  0  0  0  0  0  0  0
  -22.2490   -4.3460   21.3260 F   0  0  0  0  0  0  0  0  0  0  0  0
  -21.4760   -3.8020   26.0080 F   0  0  0  0  0  0  0  0  0  0  0  0
  -22.7990  -13.6450   21.1510 C   0  0  0  0  0  0  0  0  0  0  0  0
  -22.0980  -12.9520   22.0420 N   0  0  0  0  0  0  0  0  0  0  0  0
  -22.3520  -14.6760   20.6520 O   0  0  0  0  0  0  0  0  0  0  0  0
  -22.4730  -12.1180   22.4680 H   0  0  0  0  0  0  0  0  0  0  0  0
  -21.1730  -13.2630   22.3040 H   0  0  0  0  0  0  0  0  0  0  0  0
  -25.4140  -15.2870   20.2390 N   0  0  0  0  0  0  0  0  0  0  0  0
  -24.6560  -15.9470   20.3780 H   0  0  0  0  0  0  0  0  0  0  0  0
  -26.2510  -15.7180   19.8670 H   0  0  0  0  0  0  0  0  0  0  0  0
  1  2  1  0
  1 45  1  0
  3  4  1  0
  3  2  1  0
  5 16  2  0
  6  4  1  0
  6 11  1  0
  7 15  1  0
  7 17  1  0
  8 14  1  0
  8 10  1  0
  9 15  1  0
 10  9  1  0
 11 10  2  0
 12 13  1  0
 12  6  2  0
 13  8  2  0
 14  7  1  0
 15  5  1  0
 17 19  2  0
 18 17  1  0
 20 18  1  0
 21 30  2  0
 21 26  1  0
 22 18  1  0
 22 26  1  0
 23 22  1  0
 24 25  1  0
 24 23  1  0
 25 21  1  0
 26 27  2  0
 27 28  1  0
 29 28  2  0
 30 29  1  0
 31  5  1  0
 31 36  1  0
 31 32  1  0
 32 35  1  1
 32 33  1  0
 34 32  1  0
 36 39  1  0
 37 41  1  0
 37 36  1  0
 38 37  2  0
 41 40  1  0
 43 41  1  0
 43 44  1  0
 43 42  1  0
 46 45  1  0
 46 47  1  0
 47 48  1  0
 49 58  1  0
 49 48  1  0
 50 58  1  0
 51 56  1  0
 52 53  1  0
 52 51  1  0
 54 53  1  0
 54 63  1  0
 54 55  1  0
 56 50  1  0
 56 55  1  0
 57 50  2  0
 58 59  1  0
 60 61  2  0
 61 80  1  0
 62 61  1  0
 62 65  1  0
 63 64  1  0
 63 60  1  0
 64 62  2  0
 65 66  1  0
 66 67  2  0
 68 71  1  0
 68 67  1  0
 69 68  2  0
 70 69  1  0
 70 65  2  0
 71 72  1  0
 72 73  1  0
 73 74  2  0
 75 74  1  0
 75 79  1  0
 76 75  2  0
 77 72  2  0
 77 76  1  0
 78 77  1  0
 80 81  1  0
 81 84  1  0
 81 83  1  0
 82 80  2  0
 85 86  1  0
 85 60  1  0
 87 85  1  0
M  ISO  4   3 101   4 101  50 100  58 100
M  END
>  <TORSDO>  (7) 
F 23

>  <SCORE>  (7) 
-12.462

>  <name>  (7) 
6

>  <ligand_id>  (7) 
6

>  <original_smiles>  (7) 
[H]c1c([H])c([H])c2c(c1[H])C([H])([H])C([H])([H])C([H])([H])C2([H])N([H])C(=O)C1([H])N(C(=O)C([H])(N([H])C(=O)C([H])(N([H])C([H])([H])[H])C([H])([H])[H])C(C([H])([H])[H])(C([H])([H])[H])C([H])([H])[H])C([H])([H])c2c([H])c(OC([H])([H])C([H])([H])OC([H])([H])C([H])([H])OC([H])([H])C([H])([H])N([H])C(=O)N3C([H])([H])C([H])([H])C([H])([H])C([H])(n4nc(-c5c([H])c([H])c(Oc6c([H])c([H])c(F)c([H])c6F)c([H])c5[H])c(C(=O)N([H])[H])c4N([H])[H])C3([H])[H])c([H])c([H])c2C1([H])[H]

>  <smiles>  (7) 
[H]c1c([H])c([H])c2c(c1[H])C([H])([H])C([H])([H])C([H])([H])C2([H])N([H])C(=O)C1([H])N(C(=O)C([H])(N([H])C(=O)C([H])(N([H])C([H])([H])[H])C([H])([H])[H])C(C([H])([H])[H])(C([H])([H])[H])C([H])([H])[H])C([H])([H])c2c([H])c(OC([H])([H])C([H])([H])OC([H])([H])C([H])([H])OC([H])([H])C([H])([H])N([H])C(=O)N3C([H])([H])C([H])([H])C([H])([H])C([H])(n4nc(-c5c([H])c([H])c(Oc6c([H])c([H])c(F)c([H])c6F)c([H])c5[H])c(C(=O)N([H])[H])c4N([H])[H])C3([H])[H])c([H])c([H])c2C1([H])[H]

$$$$
7:0:0
     RDKit          3D

 81 85  0  0  1  0  0  0  0  0999 V2000
  -28.1090  -24.6470   20.3000 O   0  0  0  0  0  1  0  0  0  0  0  0
  -24.7100  -31.7810   23.1610 C   0  0  0  0  0  0  0  0  0  0  0  0
  -27.2070  -26.1440   20.2640 C   0  0  0  0  0  0  0  0  0  0  0  0
  -23.5560  -30.3680   21.5220 C   0  0  0  0  0  3  0  0  0  0  0  0
  -25.0090  -28.5810   20.1690 C   0  0  0  0  0  0  0  0  0  0  0  0
  -26.1560  -30.3130   21.5020 C   0  0  0  0  0  2  0  0  0  0  0  0
  -26.2110  -28.8120   20.8490 C   0  0  0  0  0  0  0  0  0  0  0  0
  -27.2590  -27.6460   20.8460 C   0  0  0  0  0  3  0  0  0  0  0  0
  -25.9680  -26.2870   19.5230 C   0  0  0  0  0  3  0  0  0  0  0  0
  -24.9660  -27.3480   19.4800 C   0  0  0  0  0  3  0  0  0  0  0  0
  -23.8360  -29.6140   20.1780 C   0  0  0  0  0  2  0  0  0  0  0  0
  -24.8390  -30.8700   22.1140 N   0  0  0  0  0  0  0  0  0  0  0  0
  -23.6010  -32.1150   23.6230 O   0  0  0  0  0  0  0  0  0  0  0  0
  -22.7620  -29.4580   22.5040 C   0  0  0  0  0  0  0  0  0  0  0  0
  -21.4220  -29.3560   22.3730 N   0  0  0  0  0  0  0  0  0  0  0  0
  -23.3780  -28.8290   23.3670 O   0  0  0  0  0  0  0  0  0  0  0  0
  -20.9670  -29.9120   21.6630 H   0  0  0  0  0  0  0  0  0  0  0  0
  -17.9970  -28.2130   22.9010 C   0  0  0  0  0  0  0  0  0  0  0  0
  -20.5670  -28.4380   23.1430 C   0  0  0  0  0  3  0  0  0  0  0  0
  -20.6330  -27.0060   22.5600 C   0  0  0  0  0  2  0  0  0  0  0  0
  -19.5210  -26.7160   21.5460 C   0  0  0  0  0  2  0  0  0  0  0  0
  -18.1460  -26.8740   22.1990 C   0  0  0  0  0  2  0  0  0  0  0  0
  -19.1320  -28.9550   23.3290 C   0  0  0  0  0  0  0  0  0  0  0  0
  -18.9320  -30.2040   23.9560 C   0  0  0  0  0  3  0  0  0  0  0  0
  -17.6350  -30.7130   24.1530 C   0  0  0  0  0  3  0  0  0  0  0  0
  -16.5160  -29.9710   23.7350 C   0  0  0  0  0  3  0  0  0  0  0  0
  -16.6980  -28.7220   23.1160 C   0  0  0  0  0  3  0  0  0  0  0  0
  -25.9400  -32.4590   23.8420 C   0  0  0  0  0  3  0  0  0  0  0  0
  -25.5980  -33.8650   24.1720 N   0  0  0  0  0  0  0  0  0  0  0  0
  -25.9200  -34.9450   23.4450 C   0  0  0  0  0  0  0  0  0  0  0  0
  -26.5760  -34.8640   22.4040 O   0  0  0  0  0  0  0  0  0  0  0  0
  -25.0070  -33.9990   24.9800 H   0  0  0  0  0  0  0  0  0  0  0  0
  -24.1680  -36.7480   23.1980 C   0  0  0  0  0  1  0  0  0  0  0  0
  -25.4480  -36.3330   23.9420 C   0  0  0  0  0  3  0  0  0  0  0  0
  -27.6060  -37.2470   24.6880 C   0  0  0  0  0  1  0  0  0  0  0  0
  -26.4650  -37.3980   23.7880 N   0  0  0  0  0  0  0  0  0  0  0  0
  -26.0550  -38.3150   23.9480 H   0  0  0  0  0  0  0  0  0  0  0  0
  -26.3960  -31.7200   25.1620 C   0  0  1  0  0  0  0  0  0  0  0  0
  -25.2580  -31.5140   26.1910 C   0  0  0  0  0  1  0  0  0  0  0  0
  -26.9880  -30.3300   24.8490 C   0  0  0  0  0  1  0  0  0  0  0  0
  -27.5230  -32.5250   25.8520 C   0  0  0  0  0  1  0  0  0  0  0  0
  -28.1400  -22.5480   20.1630 C   0  0  0  0  0 15  0  0  0  0  0  0
  -29.1420  -20.4180   20.2160 C   0  0  0  0  0 15  0  0  0  0  0  0
  -29.9010  -16.6470   20.0860 C   0  0  0  0  0  0  0  0  0  0  0  0
  -30.2300  -13.8900   19.2940 C   0  0  0  0  0  2  0  0  0  0  0  0
  -29.4480  -13.0530   18.1990 C   0  0  0  0  0  2  0  0  0  0  0  0
  -28.1340  -12.4820   18.7300 C   0  0  0  0  0  2  0  0  0  0  0  0
  -27.5010  -13.5140   19.6750 C   0  0  0  0  0  3  0  0  0  0  0  0
  -28.4750  -14.2100   20.6950 C   0  0  0  0  0  2  0  0  0  0  0  0
  -29.4550  -15.1290   19.9600 N   0  0  0  0  0  0  0  0  0  0  0  0
  -31.1430  -16.3980   20.0040 O   0  0  0  0  0  0  0  0  0  0  0  0
  -29.2570  -18.3100   20.1340 N   0  0  0  0  0  2  0  0  0  0  0  0
  -30.2580  -18.4710   20.1320 H   0  0  0  0  0  0  0  0  0  0  0  0
  -25.1600  -13.9200   20.5080 C   0  0  0  0  0  0  0  0  0  0  0  0
  -24.1280  -13.1120   20.8810 C   0  0  0  0  0  0  0  0  0  0  0  0
  -24.6260  -11.7720   20.8220 C   0  0  0  0  0  0  0  0  0  0  0  0
  -26.2240  -13.0860   20.2420 N   0  0  0  0  0  0  0  0  0  0  0  0
  -25.9190  -11.7780   20.4820 N   0  0  0  0  0  0  0  0  0  0  0  0
  -23.9140  -10.4950   21.0120 C   0  0  0  0  0  0  0  0  0  0  0  0
  -24.3570   -9.5290   21.9420 C   0  0  0  0  0  3  0  0  0  0  0  0
  -23.6350   -8.3280   22.1300 C   0  0  0  0  0  3  0  0  0  0  0  0
  -22.4560   -8.0830   21.3870 C   0  0  0  0  0  0  0  0  0  0  0  0
  -22.0290   -9.0390   20.4470 C   0  0  0  0  0  3  0  0  0  0  0  0
  -22.7510  -10.2310   20.2590 C   0  0  0  0  0  3  0  0  0  0  0  0
  -21.7070   -6.9350   21.4820 O   0  0  0  0  0  0  0  0  0  0  0  0
  -21.6700   -6.1910   22.6350 C   0  0  0  0  0  0  0  0  0  0  0  0
  -21.2140   -6.7320   23.8560 C   0  0  0  0  0  3  0  0  0  0  0  0
  -21.1260   -5.9140   25.0000 C   0  0  0  0  0  3  0  0  0  0  0  0
  -21.4850   -4.5540   24.9250 C   0  0  0  0  0  0  0  0  0  0  0  0
  -21.9340   -4.0110   23.7070 C   0  0  0  0  0  3  0  0  0  0  0  0
  -22.0220   -4.8270   22.5660 C   0  0  0  0  0  0  0  0  0  0  0  0
  -22.4340   -4.2930   21.3900 F   0  0  0  0  0  0  0  0  0  0  0  0
  -21.3950   -3.7660   26.0220 F   0  0  0  0  0  0  0  0  0  0  0  0
  -22.7270  -13.5620   21.1730 C   0  0  0  0  0  0  0  0  0  0  0  0
  -22.0260  -12.8570   22.0520 N   0  0  0  0  0  0  0  0  0  0  0  0
  -22.2670  -14.5820   20.6590 O   0  0  0  0  0  0  0  0  0  0  0  0
  -22.4140  -12.0340   22.4890 H   0  0  0  0  0  0  0  0  0  0  0  0
  -21.0880  -13.1430   22.2910 H   0  0  0  0  0  0  0  0  0  0  0  0
  -25.2790  -15.2960   20.3350 N   0  0  0  0  0  0  0  0  0  0  0  0
  -24.4980  -15.9290   20.4650 H   0  0  0  0  0  0  0  0  0  0  0  0
  -26.1180  -15.7610   20.0090 H   0  0  0  0  0  0  0  0  0  0  0  0
  2 13  2  0
  3  1  1  0
  3  8  1  0
  4 12  1  0
  4 14  1  0
  5 11  1  0
  5  7  1  0
  6 12  1  0
  7  6  1  0
  8  7  2  0
  9  3  2  0
 10  9  1  0
 10  5  2  0
 11  4  1  0
 12  2  1  0
 14 16  2  0
 15 14  1  0
 17 15  1  0
 18 27  2  0
 18 23  1  0
 19 15  1  0
 19 23  1  0
 20 19  1  0
 21 22  1  0
 21 20  1  0
 22 18  1  0
 23 24  2  0
 24 25  1  0
 26 25  2  0
 27 26  1  0
 28  2  1  0
 28 29  1  0
 28 38  1  0
 29 32  1  0
 30 34  1  0
 30 29  1  0
 31 30  2  0
 34 33  1  0
 36 34  1  0
 36 37  1  0
 36 35  1  0
 38 41  1  1
 38 39  1  0
 40 38  1  0
 44 52  1  0
 45 50  1  0
 46 47  1  0
 46 45  1  0
 48 47  1  0
 48 57  1  0
 48 49  1  0
 50 44  1  0
 50 49  1  0
 51 44  2  0
 53 52  1  0
 54 55  2  0
 55 74  1  0
 56 55  1  0
 56 59  1  0
 57 58  1  0
 57 54  1  0
 58 56  2  0
 59 60  1  0
 60 61  2  0
 62 65  1  0
 62 61  1  0
 63 62  2  0
 64 63  1  0
 64 59  2  0
 65 66  1  0
 66 67  1  0
 67 68  2  0
 69 68  1  0
 69 73  1  0
 70 69  2  0
 71 66  2  0
 71 70  1  0
 72 71  1  0
 74 75  1  0
 75 78  1  0
 75 77  1  0
 76 74  2  0
 79 80  1  0
 79 54  1  0
 81 79  1  0
M  ISO  4   1 101  42 101  44 100  52 100
M  END
>  <TORSDO>  (8) 
F 17

>  <SCORE>  (8) 
-16.141

>  <name>  (8) 
7

>  <ligand_id>  (8) 
7

>  <original_smiles>  (8) 
[H]c1c([H])c([H])c2c(c1[H])C([H])([H])C([H])([H])C([H])([H])C2([H])N([H])C(=O)C1([H])N(C(=O)C([H])(N([H])C(=O)C([H])(N([H])C([H])([H])[H])C([H])([H])[H])C(C([H])([H])[H])(C([H])([H])[H])C([H])([H])[H])C([H])([H])c2c([H])c(OC([H])([H])C([H])([H])N([H])C(=O)N3C([H])([H])C([H])([H])C([H])([H])C([H])(n4nc(-c5c([H])c([H])c(Oc6c([H])c([H])c(F)c([H])c6F)c([H])c5[H])c(C(=O)N([H])[H])c4N([H])[H])C3([H])[H])c([H])c([H])c2C1([H])[H]

>  <smiles>  (8) 
[H]c1c([H])c([H])c2c(c1[H])C([H])([H])C([H])([H])C([H])([H])C2([H])N([H])C(=O)C1([H])N(C(=O)C([H])(N([H])C(=O)C([H])(N([H])C([H])([H])[H])C([H])([H])[H])C(C([H])([H])[H])(C([H])([H])[H])C([H])([H])[H])C([H])([H])c2c([H])c(OC([H])([H])C([H])([H])N([H])C(=O)N3C([H])([H])C([H])([H])C([H])([H])C([H])(n4nc(-c5c([H])c([H])c(Oc6c([H])c([H])c(F)c([H])c6F)c([H])c5[H])c(C(=O)N([H])[H])c4N([H])[H])C3([H])[H])c([H])c([H])c2C1([H])[H]

$$$$
8:0:0
     RDKit          3D

 85 92  0  0  1  0  0  0  0  0999 V2000
  -28.9750  -23.3500   20.3750 C   0  0  0  0  0  3  0  0  0  0  0  0
  -27.9560  -24.6690   20.0940 C   0  0  0  0  0  2  0  0  0  0  0  0
  -28.2430  -26.1940   20.2680 O   0  0  0  0  0  0  0  0  0  0  0  0
  -24.6460  -31.9030   23.2490 C   0  0  0  0  0  0  0  0  0  0  0  0
  -27.1910  -27.1810   20.2040 C   0  0  0  0  0  0  0  0  0  0  0  0
  -23.4340  -30.5130   21.6150 C   0  0  0  0  0  3  0  0  0  0  0  0
  -24.8680  -28.9340   20.1830 C   0  0  0  0  0  0  0  0  0  0  0  0
  -25.9880  -30.7680   21.4390 C   0  0  0  0  0  2  0  0  0  0  0  0
  -26.0530  -29.3760   20.7850 C   0  0  0  0  0  0  0  0  0  0  0  0
  -27.2150  -28.5160   20.7770 C   0  0  0  0  0  3  0  0  0  0  0  0
  -25.9780  -26.8410   19.5630 C   0  0  0  0  0  3  0  0  0  0  0  0
  -24.8440  -27.6790   19.5560 C   0  0  0  0  0  3  0  0  0  0  0  0
  -23.6450  -29.8350   20.2360 C   0  0  0  0  0  2  0  0  0  0  0  0
  -24.7100  -31.0840   22.1560 N   0  0  0  0  0  0  0  0  0  0  0  0
  -23.5640  -32.1920   23.7810 O   0  0  0  0  0  0  0  0  0  0  0  0
  -22.7550  -29.5090   22.5790 C   0  0  0  0  0  0  0  0  0  0  0  0
  -21.4280  -29.3310   22.4470 N   0  0  0  0  0  0  0  0  0  0  0  0
  -23.4240  -28.8910   23.4120 O   0  0  0  0  0  0  0  0  0  0  0  0
  -20.9440  -29.8820   21.7500 H   0  0  0  0  0  0  0  0  0  0  0  0
  -18.0530  -28.1000   22.9220 C   0  0  0  0  0  0  0  0  0  0  0  0
  -20.6050  -28.3960   23.2190 C   0  0  0  0  0  3  0  0  0  0  0  0
  -20.7310  -26.9570   22.6670 C   0  0  0  0  0  2  0  0  0  0  0  0
  -19.6460  -26.6080   21.6430 C   0  0  0  0  0  2  0  0  0  0  0  0
  -18.2540  -26.7450   22.2660 C   0  0  0  0  0  2  0  0  0  0  0  0
  -19.1570  -28.8830   23.3550 C   0  0  0  0  0  0  0  0  0  0  0  0
  -18.9160  -30.1490   23.9300 C   0  0  0  0  0  3  0  0  0  0  0  0
  -17.6020  -30.6350   24.0740 C   0  0  0  0  0  3  0  0  0  0  0  0
  -16.5120  -29.8520   23.6570 C   0  0  0  0  0  3  0  0  0  0  0  0
  -16.7390  -28.5860   23.0860 C   0  0  0  0  0  3  0  0  0  0  0  0
  -25.9300  -32.5330   23.8710 C   0  0  0  0  0  3  0  0  0  0  0  0
  -25.6240  -33.9320   24.2110 N   0  0  0  0  0  0  0  0  0  0  0  0
  -25.9330  -34.9890   23.4490 C   0  0  0  0  0  0  0  0  0  0  0  0
  -26.5730  -34.8900   22.3990 O   0  0  0  0  0  0  0  0  0  0  0  0
  -25.0510  -34.0820   25.0280 H   0  0  0  0  0  0  0  0  0  0  0  0
  -24.1800  -36.7740   23.1690 C   0  0  0  0  0  1  0  0  0  0  0  0
  -25.4590  -36.3760   23.9250 C   0  0  0  0  0  3  0  0  0  0  0  0
  -27.6210  -37.2770   24.6630 C   0  0  0  0  0  1  0  0  0  0  0  0
  -26.4790  -37.4360   23.7660 N   0  0  0  0  0  0  0  0  0  0  0  0
  -26.0740  -38.3530   23.9260 H   0  0  0  0  0  0  0  0  0  0  0  0
  -26.4450  -31.7590   25.1470 C   0  0  1  0  0  0  0  0  0  0  0  0
  -25.3510  -31.5270   26.2170 C   0  0  0  0  0  1  0  0  0  0  0  0
  -27.0210  -30.3790   24.7590 C   0  0  0  0  0  1  0  0  0  0  0  0
  -27.6000  -32.5480   25.8070 C   0  0  0  0  0  1  0  0  0  0  0  0
  -28.5630  -21.7150   20.2260 C   0  0  0  0  0  3  0  0  0  0  0  0
  -29.5050  -20.5030   20.4320 O   0  0  0  0  0  0  0  0  0  0  0  0
  -29.0950  -19.0100   20.3560 C   0  0  0  0  0  3  0  0  0  0  0  0
  -30.1530  -17.7000   20.4880 C   0  0  0  0  0  3  0  0  0  0  0  0
  -30.5250  -14.9830   20.3480 C   0  0  0  0  0  0  0  0  0  0  0  0
  -30.3970  -12.6420   19.3880 C   0  0  0  0  0  2  0  0  0  0  0  0
  -29.4560  -12.6070   18.1620 C   0  0  0  0  0  2  0  0  0  0  0  0
  -27.9970  -12.3890   18.6060 C   0  0  0  0  0  2  0  0  0  0  0  0
  -27.5960  -13.3050   19.7910 C   0  0  0  0  0  3  0  0  0  0  0  0
  -28.6590  -13.3150   20.9100 C   0  0  0  0  0  2  0  0  0  0  0  0
  -29.9240  -13.7280   20.2910 N   0  0  0  0  0  0  0  0  0  0  0  0
  -31.7260  -15.0500   20.0670 O   0  0  0  0  0  0  0  0  0  0  0  0
  -29.7590  -16.1680   20.5090 N   0  0  0  0  0  0  0  0  0  0  0  0
  -28.7780  -15.9930   20.6750 H   0  0  0  0  0  0  0  0  0  0  0  0
  -25.2170  -13.8670   20.5460 C   0  0  0  0  0  0  0  0  0  0  0  0
  -24.1590  -13.0830   20.9170 C   0  0  0  0  0  0  0  0  0  0  0  0
  -24.6330  -11.7350   20.8800 C   0  0  0  0  0  0  0  0  0  0  0  0
  -26.2640  -12.9960   20.2970 N   0  0  0  0  0  0  0  0  0  0  0  0
  -25.9220  -11.7080   20.5640 N   0  0  0  0  0  0  0  0  0  0  0  0
  -23.9140  -10.4680   21.0660 C   0  0  0  0  0  0  0  0  0  0  0  0
  -24.3590   -9.4960   21.9900 C   0  0  0  0  0  3  0  0  0  0  0  0
  -23.6390   -8.2940   22.1660 C   0  0  0  0  0  3  0  0  0  0  0  0
  -22.4600   -8.0560   21.4200 C   0  0  0  0  0  0  0  0  0  0  0  0
  -22.0350   -9.0170   20.4850 C   0  0  0  0  0  3  0  0  0  0  0  0
  -22.7550  -10.2100   20.3070 C   0  0  0  0  0  3  0  0  0  0  0  0
  -21.7110   -6.9070   21.5050 O   0  0  0  0  0  0  0  0  0  0  0  0
  -21.6790   -6.1530   22.6510 C   0  0  0  0  0  0  0  0  0  0  0  0
  -21.2580   -6.6910   23.8860 C   0  0  0  0  0  3  0  0  0  0  0  0
  -21.1760   -5.8630   25.0230 C   0  0  0  0  0  3  0  0  0  0  0  0
  -21.5020   -4.4980   24.9260 C   0  0  0  0  0  0  0  0  0  0  0  0
  -21.9170   -3.9590   23.6950 C   0  0  0  0  0  3  0  0  0  0  0  0
  -22.0020   -4.7840   22.5600 C   0  0  0  0  0  0  0  0  0  0  0  0
  -22.3810   -4.2550   21.3720 F   0  0  0  0  0  0  0  0  0  0  0  0
  -21.4160   -3.6990   26.0150 F   0  0  0  0  0  0  0  0  0  0  0  0
  -22.7600  -13.5500   21.1950 C   0  0  0  0  0  0  0  0  0  0  0  0
  -22.0430  -12.8520   22.0670 N   0  0  0  0  0  0  0  0  0  0  0  0
  -22.3130  -14.5720   20.6730 O   0  0  0  0  0  0  0  0  0  0  0  0
  -22.4180  -12.0250   22.5070 H   0  0  0  0  0  0  0  0  0  0  0  0
  -21.1060  -13.1500   22.2990 H   0  0  0  0  0  0  0  0  0  0  0  0
  -25.3700  -15.2390   20.3690 N   0  0  0  0  0  0  0  0  0  0  0  0
  -24.5960  -15.8850   20.4750 H   0  0  0  0  0  0  0  0  0  0  0  0
  -26.2030  -15.6800   20.0020 H   0  0  0  0  0  0  0  0  0  0  0  0
  2  3  1  0
  2  1  1  0
  4 15  2  0
  5  3  1  0
  5 10  1  0
  6 14  1  0
  6 16  1  0
  7 13  1  0
  7  9  1  0
  8 14  1  0
  9  8  1  0
 10  9  2  0
 11  5  2  0
 12 11  1  0
 12  7  2  0
 13  6  1  0
 14  4  1  0
 16 18  2  0
 17 16  1  0
 19 17  1  0
 20 29  2  0
 20 25  1  0
 21 17  1  0
 21 25  1  0
 22 21  1  0
 23 24  1  0
 23 22  1  0
 24 20  1  0
 25 26  2  0
 26 27  1  0
 28 27  2  0
 29 28  1  0
 30  4  1  0
 30 31  1  0
 30 40  1  0
 31 34  1  0
 32 36  1  0
 32 31  1  0
 33 32  2  0
 36 35  1  0
 38 36  1  0
 38 39  1  0
 38 37  1  0
 40 43  1  1
 40 41  1  0
 42 40  1  0
 44  1  2  0
 44 45  1  0
 46 45  1  0
 46 47  2  0
 47 56  1  0
 48 56  1  0
 49 54  1  0
 50 51  1  0
 50 49  1  0
 52 51  1  0
 52 61  1  0
 52 53  1  0
 54 48  1  0
 54 53  1  0
 55 48  2  0
 56 57  1  0
 58 59  2  0
 59 78  1  0
 60 59  1  0
 60 63  1  0
 61 58  1  0
 61 62  1  0
 62 60  2  0
 63 64  1  0
 64 65  2  0
 66 69  1  0
 66 65  1  0
 67 66  2  0
 68 67  1  0
 68 63  2  0
 69 70  1  0
 70 71  1  0
 71 72  2  0
 73 72  1  0
 73 77  1  0
 74 73  2  0
 75 70  2  0
 75 74  1  0
 76 75  1  0
 78 79  1  0
 79 82  1  0
 79 81  1  0
 80 78  2  0
 83 84  1  0
 83 58  1  0
 85 83  1  0
M  ISO  4   2 101   3 101  48 100  56 100
M  END
>  <TORSDO>  (9) 
F 21

>  <SCORE>  (9) 
-13.192

>  <name>  (9) 
8

>  <ligand_id>  (9) 
8

>  <original_smiles>  (9) 
[H]c1c([H])c([H])c2c(c1[H])C([H])([H])C([H])([H])C([H])([H])C2([H])N([H])C(=O)C1([H])N(C(=O)C([H])(N([H])C(=O)C([H])(N([H])C([H])([H])[H])C([H])([H])[H])C(C([H])([H])[H])(C([H])([H])[H])C([H])([H])[H])C([H])([H])c2c([H])c(OC([H])([H])C([H])([H])C([H])([H])OC([H])([H])C([H])([H])N([H])C(=O)N3C([H])([H])C([H])([H])C([H])([H])C([H])(n4nc(-c5c([H])c([H])c(Oc6c([H])c([H])c(F)c([H])c6F)c([H])c5[H])c(C(=O)N([H])[H])c4N([H])[H])C3([H])[H])c([H])c([H])c2C1([H])[H]

>  <smiles>  (9) 
[H]c1c([H])c([H])c2c(c1[H])C([H])([H])C([H])([H])C([H])([H])C2([H])N([H])C(=O)C1([H])N(C(=O)C([H])(N([H])C(=O)C([H])(N([H])C([H])([H])[H])C([H])([H])[H])C(C([H])([H])[H])(C([H])([H])[H])C([H])([H])[H])C([H])([H])c2c([H])c(OC([H])([H])C([H])([H])C([H])([H])OC([H])([H])C([H])([H])N([H])C(=O)N3C([H])([H])C([H])([H])C([H])([H])C([H])(n4nc(-c5c([H])c([H])c(Oc6c([H])c([H])c(F)c([H])c6F)c([H])c5[H])c(C(=O)N([H])[H])c4N([H])[H])C3([H])[H])c([H])c([H])c2C1([H])[H]

$$$$
9:0:0
     RDKit          3D

 82 86  0  0  1  0  0  0  0  0999 V2000
  -28.2030  -25.2140   20.1870 O   0  0  0  0  0  1  0  0  0  0  0  0
  -24.6590  -31.8230   23.1160 C   0  0  0  0  0  0  0  0  0  0  0  0
  -27.2270  -26.5180   20.2190 C   0  0  0  0  0  0  0  0  0  0  0  0
  -23.5030  -30.4040   21.4840 C   0  0  0  0  0  3  0  0  0  0  0  0
  -24.9680  -28.6960   20.1210 C   0  0  0  0  0  0  0  0  0  0  0  0
  -26.0920  -30.4850   21.4080 C   0  0  0  0  0  2  0  0  0  0  0  0
  -26.1660  -29.0180   20.7700 C   0  0  0  0  0  0  0  0  0  0  0  0
  -27.2690  -27.9690   20.7710 C   0  0  0  0  0  3  0  0  0  0  0  0
  -25.9850  -26.4690   19.5130 C   0  0  0  0  0  3  0  0  0  0  0  0
  -24.9320  -27.4500   19.4670 C   0  0  0  0  0  3  0  0  0  0  0  0
  -23.7680  -29.6710   20.1330 C   0  0  0  0  0  2  0  0  0  0  0  0
  -24.7790  -30.9440   22.0540 N   0  0  0  0  0  0  0  0  0  0  0  0
  -23.5550  -32.1300   23.6020 O   0  0  0  0  0  0  0  0  0  0  0  0
  -22.7610  -29.4600   22.4680 C   0  0  0  0  0  0  0  0  0  0  0  0
  -21.4220  -29.3490   22.3610 N   0  0  0  0  0  0  0  0  0  0  0  0
  -23.4040  -28.8170   23.3000 O   0  0  0  0  0  0  0  0  0  0  0  0
  -20.9470  -29.9240   21.6780 H   0  0  0  0  0  0  0  0  0  0  0  0
  -18.0030  -28.1330   22.8590 C   0  0  0  0  0  0  0  0  0  0  0  0
  -20.5950  -28.3830   23.0970 C   0  0  0  0  0  0  0  0  0  0  0  0
  -20.7720  -26.9760   22.4620 C   0  0  0  0  0  3  0  0  0  0  0  0
  -19.5380  -26.4150   21.7220 C   0  0  0  0  0  3  0  0  0  0  0  0
  -18.0990  -26.8440   22.0560 C   0  0  0  0  0  3  0  0  0  0  0  0
  -19.1450  -28.8670   23.2920 C   0  0  0  0  0  0  0  0  0  0  0  0
  -18.9400  -30.1130   23.9270 C   0  0  0  0  0  3  0  0  0  0  0  0
  -17.6430  -30.6230   24.1300 C   0  0  0  0  0  3  0  0  0  0  0  0
  -16.5250  -29.8800   23.7210 C   0  0  0  0  0  3  0  0  0  0  0  0
  -16.7080  -28.6360   23.0960 C   0  0  0  0  0  3  0  0  0  0  0  0
  -25.9010  -32.4970   23.7720 C   0  0  0  0  0  3  0  0  0  0  0  0
  -25.5540  -33.8960   24.1020 N   0  0  0  0  0  0  0  0  0  0  0  0
  -25.8860  -34.9730   23.3740 C   0  0  0  0  0  0  0  0  0  0  0  0
  -26.5670  -34.8910   22.3500 O   0  0  0  0  0  0  0  0  0  0  0  0
  -24.9460  -34.0310   24.8960 H   0  0  0  0  0  0  0  0  0  0  0  0
  -24.1500  -36.7720   23.0460 C   0  0  0  0  0  1  0  0  0  0  0  0
  -25.3900  -36.3550   23.8530 C   0  0  0  0  0  3  0  0  0  0  0  0
  -27.5120  -37.2520   24.7100 C   0  0  0  0  0  1  0  0  0  0  0  0
  -26.4160  -37.4190   23.7590 N   0  0  0  0  0  0  0  0  0  0  0  0
  -26.0000  -38.3340   23.9110 H   0  0  0  0  0  0  0  0  0  0  0  0
  -26.3860  -31.7540   25.0790 C   0  0  1  0  0  0  0  0  0  0  0  0
  -25.2660  -31.5290   26.1240 C   0  0  0  0  0  1  0  0  0  0  0  0
  -26.9880  -30.3730   24.7440 C   0  0  0  0  0  1  0  0  0  0  0  0
  -27.5140  -32.5680   25.7560 C   0  0  0  0  0  1  0  0  0  0  0  0
  -28.2300  -23.3320   20.4390 C   0  0  0  0  0 15  0  0  0  0  0  0
  -28.7870  -21.3790   19.8640 C   0  0  0  0  0 15  0  0  0  0  0  0
  -29.3980  -19.4400   20.4120 C   0  0  0  0  0  1  0  0  0  0  0  0
  -30.1690  -16.0920   20.0360 C   0  0  0  0  0  0  0  0  0  0  0  0
  -30.3590  -13.4710   19.1990 C   0  0  0  0  0  2  0  0  0  0  0  0
  -29.4770  -12.8700   18.0550 C   0  0  0  0  0  2  0  0  0  0  0  0
  -28.1030  -12.4290   18.5740 C   0  0  0  0  0  2  0  0  0  0  0  0
  -27.5630  -13.4490   19.5940 C   0  0  0  0  0  3  0  0  0  0  0  0
  -28.6020  -13.9210   20.6470 C   0  0  0  0  0  2  0  0  0  0  0  0
  -29.6750  -14.6720   19.9180 N   0  0  0  0  0  0  0  0  0  0  0  0
  -31.4150  -15.9560   19.9590 O   0  0  0  0  0  0  0  0  0  0  0  0
  -29.4220  -17.5600   20.0550 N   0  0  0  0  0  0  0  0  0  0  0  0
  -28.4530  -17.3130   19.9040 H   0  0  0  0  0  0  0  0  0  0  0  0
  -25.2310  -13.9310   20.4500 C   0  0  0  0  0  0  0  0  0  0  0  0
  -24.1900  -13.1380   20.8360 C   0  0  0  0  0  0  0  0  0  0  0  0
  -24.6710  -11.7930   20.7770 C   0  0  0  0  0  0  0  0  0  0  0  0
  -26.2760  -13.0750   20.1660 N   0  0  0  0  0  0  0  0  0  0  0  0
  -25.9570  -11.7790   20.4270 N   0  0  0  0  0  0  0  0  0  0  0  0
  -23.9560  -10.5240   20.9740 C   0  0  0  0  0  0  0  0  0  0  0  0
  -24.4050   -9.5560   21.8990 C   0  0  0  0  0  3  0  0  0  0  0  0
  -23.6830   -8.3560   22.0890 C   0  0  0  0  0  3  0  0  0  0  0  0
  -22.4960   -8.1180   21.3550 C   0  0  0  0  0  0  0  0  0  0  0  0
  -22.0660   -9.0740   20.4200 C   0  0  0  0  0  3  0  0  0  0  0  0
  -22.7890  -10.2650   20.2280 C   0  0  0  0  0  3  0  0  0  0  0  0
  -21.7460   -6.9710   21.4550 O   0  0  0  0  0  0  0  0  0  0  0  0
  -21.7090   -6.2310   22.6100 C   0  0  0  0  0  0  0  0  0  0  0  0
  -21.2840   -6.7860   23.8360 C   0  0  0  0  0  3  0  0  0  0  0  0
  -21.1960   -5.9730   24.9840 C   0  0  0  0  0  3  0  0  0  0  0  0
  -21.5230   -4.6050   24.9060 C   0  0  0  0  0  0  0  0  0  0  0  0
  -21.9420   -4.0500   23.6840 C   0  0  0  0  0  3  0  0  0  0  0  0
  -22.0320   -4.8600   22.5390 C   0  0  0  0  0  0  0  0  0  0  0  0
  -22.4140   -4.3150   21.3590 F   0  0  0  0  0  0  0  0  0  0  0  0
  -21.4320   -3.8220   26.0060 F   0  0  0  0  0  0  0  0  0  0  0  0
  -22.7960  -13.6030   21.1400 C   0  0  0  0  0  0  0  0  0  0  0  0
  -22.0920  -12.8960   22.0160 N   0  0  0  0  0  0  0  0  0  0  0  0
  -22.3430  -14.6300   20.6380 O   0  0  0  0  0  0  0  0  0  0  0  0
  -22.4740  -12.0650   22.4440 H   0  0  0  0  0  0  0  0  0  0  0  0
  -21.1580  -13.1890   22.2630 H   0  0  0  0  0  0  0  0  0  0  0  0
  -25.3710  -15.3060   20.2780 N   0  0  0  0  0  0  0  0  0  0  0  0
  -24.5980  -15.9490   20.4140 H   0  0  0  0  0  0  0  0  0  0  0  0
  -26.2020  -15.7550   19.9170 H   0  0  0  0  0  0  0  0  0  0  0  0
  1  3  1  0
  2 13  2  0
  3  8  1  0
  4 12  1  0
  4 14  1  0
  5 11  1  0
  5  7  1  0
  6 12  1  0
  7  8  2  0
  7  6  1  0
  9  3  2  0
 10  9  1  0
 10  5  2  0
 11  4  1  0
 12  2  1  0
 14 16  2  0
 15 14  1  0
 15 19  1  0
 17 15  1  0
 18 27  2  0
 18 23  1  0
 19 23  1  0
 20 19  2  0
 21 22  2  0
 21 20  1  0
 22 18  1  0
 23 24  2  0
 24 25  1  0
 26 25  2  0
 27 26  1  0
 28  2  1  0
 28 29  1  0
 28 38  1  0
 29 32  1  0
 30 34  1  0
 30 29  1  0
 31 30  2  0
 34 33  1  0
 36 34  1  0
 36 37  1  0
 36 35  1  0
 38 41  1  1
 38 39  1  0
 40 38  1  0
 45 53  1  0
 46 51  1  0
 47 48  1  0
 47 46  1  0
 49 48  1  0
 49 58  1  0
 49 50  1  0
 51 45  1  0
 51 50  1  0
 52 45  2  0
 53 44  1  0
 54 53  1  0
 55 56  2  0
 56 75  1  0
 57 56  1  0
 57 60  1  0
 58 59  1  0
 58 55  1  0
 59 57  2  0
 60 61  1  0
 61 62  2  0
 63 66  1  0
 63 62  1  0
 64 63  2  0
 65 64  1  0
 65 60  2  0
 66 67  1  0
 67 68  1  0
 68 69  2  0
 70 69  1  0
 70 74  1  0
 71 70  2  0
 72 67  2  0
 72 71  1  0
 73 72  1  0
 75 76  1  0
 76 79  1  0
 76 78  1  0
 77 75  2  0
 80 81  1  0
 80 55  1  0
 82 80  1  0
M  ISO  4   1 101  42 101  45 100  53 100
M  END
>  <TORSDO>  (10) 
F 18

>  <SCORE>  (10) 
-16.165

>  <name>  (10) 
9

>  <ligand_id>  (10) 
9

>  <original_smiles>  (10) 
[H]c1c([H])c([H])c2c(c1[H])C([H])([H])C([H])([H])C([H])([H])C2([H])N([H])C(=O)C1([H])N(C(=O)C([H])(N([H])C(=O)C([H])(N([H])C([H])([H])[H])C([H])([H])[H])C(C([H])([H])[H])(C([H])([H])[H])C([H])([H])[H])C([H])([H])c2c([H])c(OC([H])([H])C([H])([H])C([H])([H])N([H])C(=O)N3C([H])([H])C([H])([H])C([H])([H])C([H])(n4nc(-c5c([H])c([H])c(Oc6c([H])c([H])c(F)c([H])c6F)c([H])c5[H])c(C(=O)N([H])[H])c4N([H])[H])C3([H])[H])c([H])c([H])c2C1([H])[H]

>  <smiles>  (10) 
[H]c1c([H])c([H])c2c(c1[H])C([H])([H])C([H])([H])C([H])([H])C2([H])N([H])C(=O)C1([H])N(C(=O)C([H])(N([H])C(=O)C([H])(N([H])C([H])([H])[H])C([H])([H])[H])C(C([H])([H])[H])(C([H])([H])[H])C([H])([H])[H])C([H])([H])c2c([H])c(OC([H])([H])C([H])([H])C([H])([H])N([H])C(=O)N3C([H])([H])C([H])([H])C([H])([H])C([H])(n4nc(-c5c([H])c([H])c(Oc6c([H])c([H])c(F)c([H])c6F)c([H])c5[H])c(C(=O)N([H])[H])c4N([H])[H])C3([H])[H])c([H])c([H])c2C1([H])[H]

$$$$
10:0:0
     RDKit          3D

 82 86  0  0  1  0  0  0  0  0999 V2000
  -28.2030  -25.2140   20.1870 O   0  0  0  0  0  1  0  0  0  0  0  0
  -24.6590  -31.8230   23.1160 C   0  0  0  0  0  0  0  0  0  0  0  0
  -27.2270  -26.5180   20.2190 C   0  0  0  0  0  0  0  0  0  0  0  0
  -23.5030  -30.4040   21.4840 C   0  0  0  0  0  3  0  0  0  0  0  0
  -24.9680  -28.6960   20.1210 C   0  0  0  0  0  0  0  0  0  0  0  0
  -26.0920  -30.4850   21.4080 C   0  0  0  0  0  2  0  0  0  0  0  0
  -26.1660  -29.0180   20.7700 C   0  0  0  0  0  0  0  0  0  0  0  0
  -27.2690  -27.9690   20.7710 C   0  0  0  0  0  3  0  0  0  0  0  0
  -25.9850  -26.4690   19.5130 C   0  0  0  0  0  3  0  0  0  0  0  0
  -24.9320  -27.4500   19.4670 C   0  0  0  0  0  3  0  0  0  0  0  0
  -23.7680  -29.6710   20.1330 C   0  0  0  0  0  2  0  0  0  0  0  0
  -24.7790  -30.9440   22.0540 N   0  0  0  0  0  0  0  0  0  0  0  0
  -23.5550  -32.1300   23.6020 O   0  0  0  0  0  0  0  0  0  0  0  0
  -22.7610  -29.4600   22.4680 C   0  0  0  0  0  0  0  0  0  0  0  0
  -21.4220  -29.3490   22.3610 N   0  0  0  0  0  0  0  0  0  0  0  0
  -23.4040  -28.8170   23.3000 O   0  0  0  0  0  0  0  0  0  0  0  0
  -20.9470  -29.9240   21.6780 H   0  0  0  0  0  0  0  0  0  0  0  0
  -18.0030  -28.1330   22.8590 C   0  0  0  0  0  0  0  0  0  0  0  0
  -20.5950  -28.3830   23.0970 C   0  0  0  0  0  0  0  0  0  0  0  0
  -20.7720  -26.9760   22.4620 C   0  0  0  0  0  3  0  0  0  0  0  0
  -19.5380  -26.4150   21.7220 C   0  0  0  0  0  3  0  0  0  0  0  0
  -18.0990  -26.8440   22.0560 C   0  0  0  0  0  3  0  0  0  0  0  0
  -19.1450  -28.8670   23.2920 C   0  0  0  0  0  0  0  0  0  0  0  0
  -18.9400  -30.1130   23.9270 C   0  0  0  0  0  3  0  0  0  0  0  0
  -17.6430  -30.6230   24.1300 C   0  0  0  0  0  3  0  0  0  0  0  0
  -16.5250  -29.8800   23.7210 C   0  0  0  0  0  3  0  0  0  0  0  0
  -16.7080  -28.6360   23.0960 C   0  0  0  0  0  3  0  0  0  0  0  0
  -25.9010  -32.4970   23.7720 C   0  0  0  0  0  3  0  0  0  0  0  0
  -25.5540  -33.8960   24.1020 N   0  0  0  0  0  0  0  0  0  0  0  0
  -25.8860  -34.9730   23.3740 C   0  0  0  0  0  0  0  0  0  0  0  0
  -26.5670  -34.8910   22.3500 O   0  0  0  0  0  0  0  0  0  0  0  0
  -24.9460  -34.0310   24.8960 H   0  0  0  0  0  0  0  0  0  0  0  0
  -24.1500  -36.7720   23.0460 C   0  0  0  0  0  1  0  0  0  0  0  0
  -25.3900  -36.3550   23.8530 C   0  0  0  0  0  3  0  0  0  0  0  0
  -27.5120  -37.2520   24.7100 C   0  0  0  0  0  1  0  0  0  0  0  0
  -26.4160  -37.4190   23.7590 N   0  0  0  0  0  0  0  0  0  0  0  0
  -26.0000  -38.3340   23.9110 H   0  0  0  0  0  0  0  0  0  0  0  0
  -26.3860  -31.7540   25.0790 C   0  0  1  0  0  0  0  0  0  0  0  0
  -25.2660  -31.5290   26.1240 C   0  0  0  0  0  1  0  0  0  0  0  0
  -26.9880  -30.3730   24.7440 C   0  0  0  0  0  1  0  0  0  0  0  0
  -27.5140  -32.5680   25.7560 C   0  0  0  0  0  1  0  0  0  0  0  0
  -28.2300  -23.3320   20.4390 C   0  0  0  0  0 15  0  0  0  0  0  0
  -28.7870  -21.3790   19.8640 C   0  0  0  0  0 15  0  0  0  0  0  0
  -29.3980  -19.4400   20.4120 C   0  0  0  0  0  1  0  0  0  0  0  0
  -30.1690  -16.0920   20.0360 C   0  0  0  0  0  0  0  0  0  0  0  0
  -30.3590  -13.4710   19.1990 C   0  0  0  0  0  2  0  0  0  0  0  0
  -29.4770  -12.8700   18.0550 C   0  0  0  0  0  2  0  0  0  0  0  0
  -28.1030  -12.4290   18.5740 C   0  0  0  0  0  2  0  0  0  0  0  0
  -27.5630  -13.4490   19.5940 C   0  0  0  0  0  3  0  0  0  0  0  0
  -28.6020  -13.9210   20.6470 C   0  0  0  0  0  2  0  0  0  0  0  0
  -29.6750  -14.6720   19.9180 N   0  0  0  0  0  0  0  0  0  0  0  0
  -31.4150  -15.9560   19.9590 O   0  0  0  0  0  0  0  0  0  0  0  0
  -29.4220  -17.5600   20.0550 N   0  0  0  0  0  0  0  0  0  0  0  0
  -28.4530  -17.3130   19.9040 H   0  0  0  0  0  0  0  0  0  0  0  0
  -25.2310  -13.9310   20.4500 C   0  0  0  0  0  0  0  0  0  0  0  0
  -24.1900  -13.1380   20.8360 C   0  0  0  0  0  0  0  0  0  0  0  0
  -24.6710  -11.7930   20.7770 C   0  0  0  0  0  0  0  0  0  0  0  0
  -26.2760  -13.0750   20.1660 N   0  0  0  0  0  0  0  0  0  0  0  0
  -25.9570  -11.7790   20.4270 N   0  0  0  0  0  0  0  0  0  0  0  0
  -23.9560  -10.5240   20.9740 C   0  0  0  0  0  0  0  0  0  0  0  0
  -24.4050   -9.5560   21.8990 C   0  0  0  0  0  3  0  0  0  0  0  0
  -23.6830   -8.3560   22.0890 C   0  0  0  0  0  3  0  0  0  0  0  0
  -22.4960   -8.1180   21.3550 C   0  0  0  0  0  0  0  0  0  0  0  0
  -22.0660   -9.0740   20.4200 C   0  0  0  0  0  3  0  0  0  0  0  0
  -22.7890  -10.2650   20.2280 C   0  0  0  0  0  3  0  0  0  0  0  0
  -21.7460   -6.9710   21.4550 O   0  0  0  0  0  0  0  0  0  0  0  0
  -21.7090   -6.2310   22.6100 C   0  0  0  0  0  0  0  0  0  0  0  0
  -21.2840   -6.7860   23.8360 C   0  0  0  0  0  3  0  0  0  0  0  0
  -21.1960   -5.9730   24.9840 C   0  0  0  0  0  3  0  0  0  0  0  0
  -21.5230   -4.6050   24.9060 C   0  0  0  0  0  0  0  0  0  0  0  0
  -21.9420   -4.0500   23.6840 C   0  0  0  0  0  3  0  0  0  0  0  0
  -22.0320   -4.8600   22.5390 C   0  0  0  0  0  0  0  0  0  0  0  0
  -22.4140   -4.3150   21.3590 F   0  0  0  0  0  0  0  0  0  0  0  0
  -21.4320   -3.8220   26.0060 F   0  0  0  0  0  0  0  0  0  0  0  0
  -22.7960  -13.6030   21.1400 C   0  0  0  0  0  0  0  0  0  0  0  0
  -22.0920  -12.8960   22.0160 N   0  0  0  0  0  0  0  0  0  0  0  0
  -22.3430  -14.6300   20.6380 O   0  0  0  0  0  0  0  0  0  0  0  0
  -22.4740  -12.0650   22.4440 H   0  0  0  0  0  0  0  0  0  0  0  0
  -21.1580  -13.1890   22.2630 H   0  0  0  0  0  0  0  0  0  0  0  0
  -25.3710  -15.3060   20.2780 N   0  0  0  0  0  0  0  0  0  0  0  0
  -24.5980  -15.9490   20.4140 H   0  0  0  0  0  0  0  0  0  0  0  0
  -26.2020  -15.7550   19.9170 H   0  0  0  0  0  0  0  0  0  0  0  0
  1  3  1  0
  2 13  2  0
  3  8  1  0
  4 12  1  0
  4 14  1  0
  5 11  1  0
  5  7  1  0
  6 12  1  0
  7  8  2  0
  7  6  1  0
  9  3  2  0
 10  9  1  0
 10  5  2  0
 11  4  1  0
 12  2  1  0
 14 16  2  0
 15 14  1  0
 15 19  1  0
 17 15  1  0
 18 27  2  0
 18 23  1  0
 19 23  1  0
 20 19  2  0
 21 22  2  0
 21 20  1  0
 22 18  1  0
 23 24  2  0
 24 25  1  0
 26 25  2  0
 27 26  1  0
 28  2  1  0
 28 29  1  0
 28 38  1  0
 29 32  1  0
 30 34  1  0
 30 29  1  0
 31 30  2  0
 34 33  1  0
 36 34  1  0
 36 37  1  0
 36 35  1  0
 38 41  1  1
 38 39  1  0
 40 38  1  0
 45 53  1  0
 46 51  1  0
 47 48  1  0
 47 46  1  0
 49 48  1  0
 49 58  1  0
 49 50  1  0
 51 45  1  0
 51 50  1  0
 52 45  2  0
 53 44  1  0
 54 53  1  0
 55 56  2  0
 56 75  1  0
 57 56  1  0
 57 60  1  0
 58 59  1  0
 58 55  1  0
 59 57  2  0
 60 61  1  0
 61 62  2  0
 63 66  1  0
 63 62  1  0
 64 63  2  0
 65 64  1  0
 65 60  2  0
 66 67  1  0
 67 68  1  0
 68 69  2  0
 70 69  1  0
 70 74  1  0
 71 70  2  0
 72 67  2  0
 72 71  1  0
 73 72  1  0
 75 76  1  0
 76 79  1  0
 76 78  1  0
 77 75  2  0
 80 81  1  0
 80 55  1  0
 82 80  1  0
M  ISO  4   1 101  42 101  45 100  53 100
M  END
>  <TORSDO>  (11) 
F 18

>  <SCORE>  (11) 
-16.165

>  <name>  (11) 
10

>  <ligand_id>  (11) 
10

>  <original_smiles>  (11) 
[H]c1c([H])c([H])c2c(c1[H])C([H])([H])C([H])([H])C([H])([H])C2([H])N([H])C(=O)C1([H])N(C(=O)C([H])(N([H])C(=O)C([H])(N([H])C([H])([H])[H])C([H])([H])[H])C(C([H])([H])[H])(C([H])([H])[H])C([H])([H])[H])C([H])([H])c2c([H])c(OC([H])([H])C([H])([H])C([H])([H])N([H])C(=O)N3C([H])([H])C([H])([H])C([H])([H])C([H])(n4nc(-c5c([H])c([H])c(Oc6c([H])c([H])c(F)c([H])c6F)c([H])c5[H])c(C(=O)N([H])[H])c4N([H])[H])C3([H])[H])c([H])c([H])c2C1([H])[H]

>  <smiles>  (11) 
[H]c1c([H])c([H])c2c(c1[H])C([H])([H])C([H])([H])C([H])([H])C2([H])N([H])C(=O)C1([H])N(C(=O)C([H])(N([H])C(=O)C([H])(N([H])C([H])([H])[H])C([H])([H])[H])C(C([H])([H])[H])(C([H])([H])[H])C([H])([H])[H])C([H])([H])c2c([H])c(OC([H])([H])C([H])([H])C([H])([H])N([H])C(=O)N3C([H])([H])C([H])([H])C([H])([H])C([H])(n4nc(-c5c([H])c([H])c(Oc6c([H])c([H])c(F)c([H])c6F)c([H])c5[H])c(C(=O)N([H])[H])c4N([H])[H])C3([H])[H])c([H])c([H])c2C1([H])[H]

$$$$
11:0:0
     RDKit          3D

 89 97  0  0  1  0  0  0  0  0999 V2000
  -29.5440  -21.4810   19.8000 O   0  0  0  0  0  0  0  0  0  0  0  0
  -30.2950  -17.8220   19.2330 C   0  0  0  0  0  3  0  0  0  0  0  0
  -29.6100  -18.0620   21.5290 C   0  0  0  0  0  3  0  0  0  0  0  0
  -30.1380  -19.2310   19.0550 C   0  0  0  0  0  3  0  0  0  0  0  0
  -29.4900  -19.4810   21.3580 C   0  0  0  0  0  3  0  0  0  0  0  0
  -30.0110  -17.1830   20.4750 C   0  0  0  0  0  0  0  0  0  0  0  0
  -29.7280  -20.1090   20.1010 C   0  0  0  0  0  0  0  0  0  0  0  0
  -30.6810  -14.6900   20.0640 C   0  0  0  0  0  0  0  0  0  0  0  0
  -30.4070  -12.4780   18.9480 C   0  0  0  0  0  2  0  0  0  0  0  0
  -29.4060  -12.6530   17.7840 C   0  0  0  0  0  2  0  0  0  0  0  0
  -27.9570  -12.4770   18.2740 C   0  0  0  0  0  2  0  0  0  0  0  0
  -27.6670  -13.2830   19.5690 C   0  0  0  0  0  3  0  0  0  0  0  0
  -28.7820  -13.0970   20.6240 C   0  0  0  0  0  2  0  0  0  0  0  0
  -30.0640  -13.4630   19.9990 N   0  0  0  0  0  0  0  0  0  0  0  0
  -31.7780  -14.8690   19.5220 O   0  0  0  0  0  0  0  0  0  0  0  0
  -30.0080  -15.7210   20.6770 N   0  0  0  0  0  0  0  0  0  0  0  0
  -29.2980  -15.3940   21.3180 H   0  0  0  0  0  0  0  0  0  0  0  0
  -25.3150  -13.8610   20.4180 C   0  0  0  0  0  0  0  0  0  0  0  0
  -24.2640  -13.0810   20.8230 C   0  0  0  0  0  0  0  0  0  0  0  0
  -24.7220  -11.7300   20.7360 C   0  0  0  0  0  0  0  0  0  0  0  0
  -26.3440  -12.9850   20.1100 N   0  0  0  0  0  0  0  0  0  0  0  0
  -25.9970  -11.6970   20.3590 N   0  0  0  0  0  0  0  0  0  0  0  0
  -24.0000  -10.4630   20.9290 C   0  0  0  0  0  0  0  0  0  0  0  0
  -24.4340   -9.5050   21.8700 C   0  0  0  0  0  3  0  0  0  0  0  0
  -23.7110   -8.3070   22.0570 C   0  0  0  0  0  3  0  0  0  0  0  0
  -22.5420   -8.0580   21.3020 C   0  0  0  0  0  0  0  0  0  0  0  0
  -22.1280   -9.0050   20.3490 C   0  0  0  0  0  3  0  0  0  0  0  0
  -22.8510  -10.1940   20.1600 C   0  0  0  0  0  3  0  0  0  0  0  0
  -21.7930   -6.9100   21.3950 O   0  0  0  0  0  0  0  0  0  0  0  0
  -21.6850   -6.2140   22.5740 C   0  0  0  0  0  0  0  0  0  0  0  0
  -21.1710   -6.8070   23.7460 C   0  0  0  0  0  3  0  0  0  0  0  0
  -21.0150   -6.0350   24.9150 C   0  0  0  0  0  3  0  0  0  0  0  0
  -21.3580   -4.6720   24.9110 C   0  0  0  0  0  0  0  0  0  0  0  0
  -21.8680   -4.0770   23.7420 C   0  0  0  0  0  3  0  0  0  0  0  0
  -22.0250   -4.8450   22.5760 C   0  0  0  0  0  0  0  0  0  0  0  0
  -22.4920   -4.2620   21.4470 F   0  0  0  0  0  0  0  0  0  0  0  0
  -21.2020   -3.9290   26.0300 F   0  0  0  0  0  0  0  0  0  0  0  0
  -22.8840  -13.5550   21.1750 C   0  0  0  0  0  0  0  0  0  0  0  0
  -22.1950  -12.8410   22.0630 N   0  0  0  0  0  0  0  0  0  0  0  0
  -22.4230  -14.5940   20.7030 O   0  0  0  0  0  0  0  0  0  0  0  0
  -22.5800  -12.0020   22.4720 H   0  0  0  0  0  0  0  0  0  0  0  0
  -21.2690  -13.1360   22.3320 H   0  0  0  0  0  0  0  0  0  0  0  0
  -25.4750  -15.2350   20.2710 N   0  0  0  0  0  0  0  0  0  0  0  0
  -24.7240  -15.8930   20.4490 H   0  0  0  0  0  0  0  0  0  0  0  0
  -26.3150  -15.6820   19.9300 H   0  0  0  0  0  0  0  0  0  0  0  0
  -29.5360  -22.5380   20.8210 C   0  0  0  0  0  2  0  0  0  0  0  0
  -29.6060  -24.0830   20.3680 C   0  0  0  0  0  3  0  0  0  0  0  0
  -28.3060  -24.9980   20.2520 C   0  0  0  0  0  3  0  0  0  0  0  0
  -28.4640  -26.4780   20.2340 O   0  0  0  0  0  0  0  0  0  0  0  0
  -24.6350  -31.8460   23.2070 C   0  0  0  0  0  0  0  0  0  0  0  0
  -27.3140  -27.2920   20.1940 C   0  0  0  0  0  0  0  0  0  0  0  0
  -23.4500  -30.4330   21.5650 C   0  0  0  0  0  3  0  0  0  0  0  0
  -24.9230  -28.8770   20.1610 C   0  0  0  0  0  0  0  0  0  0  0  0
  -25.9890  -30.7640   21.3990 C   0  0  0  0  0  2  0  0  0  0  0  0
  -26.0830  -29.3840   20.7600 C   0  0  0  0  0  0  0  0  0  0  0  0
  -27.2790  -28.6040   20.7640 C   0  0  0  0  0  3  0  0  0  0  0  0
  -26.1260  -26.8340   19.5790 C   0  0  0  0  0  3  0  0  0  0  0  0
  -24.9470  -27.6060   19.5630 C   0  0  0  0  0  3  0  0  0  0  0  0
  -23.6760  -29.7400   20.1940 C   0  0  0  0  0  2  0  0  0  0  0  0
  -24.7100  -31.0330   22.1130 N   0  0  0  0  0  0  0  0  0  0  0  0
  -23.5480  -32.1220   23.7320 O   0  0  0  0  0  0  0  0  0  0  0  0
  -22.7860  -29.4210   22.5280 C   0  0  0  0  0  0  0  0  0  0  0  0
  -21.4620  -29.2400   22.3930 N   0  0  0  0  0  0  0  0  0  0  0  0
  -23.4610  -28.7970   23.3520 O   0  0  0  0  0  0  0  0  0  0  0  0
  -20.9810  -29.7870   21.6940 H   0  0  0  0  0  0  0  0  0  0  0  0
  -18.0800  -28.0600   22.8960 C   0  0  0  0  0  0  0  0  0  0  0  0
  -20.6400  -28.3050   23.1600 C   0  0  0  0  0  3  0  0  0  0  0  0
  -20.7370  -26.8770   22.5740 C   0  0  0  0  0  2  0  0  0  0  0  0
  -19.6290  -26.5640   21.5650 C   0  0  0  0  0  2  0  0  0  0  0  0
  -18.2490  -26.7140   22.2100 C   0  0  0  0  0  2  0  0  0  0  0  0
  -19.2040  -28.8150   23.3260 C   0  0  0  0  0  0  0  0  0  0  0  0
  -18.9940  -30.0760   23.9240 C   0  0  0  0  0  3  0  0  0  0  0  0
  -17.6920  -30.5810   24.1000 C   0  0  0  0  0  3  0  0  0  0  0  0
  -16.5830  -29.8240   23.6860 C   0  0  0  0  0  3  0  0  0  0  0  0
  -16.7780  -28.5660   23.0900 C   0  0  0  0  0  3  0  0  0  0  0  0
  -25.9120  -32.4860   23.8370 C   0  0  0  0  0  3  0  0  0  0  0  0
  -26.4240  -31.7160   25.1150 C   0  0  1  0  0  0  0  0  0  0  0  0
  -25.3250  -31.4660   26.1740 C   0  0  0  0  0  1  0  0  0  0  0  0
  -27.0240  -30.3450   24.7260 C   0  0  0  0  0  1  0  0  0  0  0  0
  -27.5650  -32.5170   25.7860 C   0  0  0  0  0  1  0  0  0  0  0  0
  -25.5930  -33.8820   24.1710 N   0  0  0  0  0  0  0  0  0  0  0  0
  -25.9220  -34.9400   23.4160 C   0  0  0  0  0  0  0  0  0  0  0  0
  -26.5960  -34.8420   22.3870 O   0  0  0  0  0  0  0  0  0  0  0  0
  -25.0020  -34.0290   24.9740 H   0  0  0  0  0  0  0  0  0  0  0  0
  -24.1860  -36.7230   23.0530 C   0  0  0  0  0  1  0  0  0  0  0  0
  -25.4230  -36.3230   23.8750 C   0  0  0  0  0  3  0  0  0  0  0  0
  -27.5440  -37.2150   24.7320 C   0  0  0  0  0  1  0  0  0  0  0  0
  -26.4500  -37.3830   23.7760 N   0  0  0  0  0  0  0  0  0  0  0  0
  -26.0400  -38.3000   23.9230 H   0  0  0  0  0  0  0  0  0  0  0  0
  1  7  1  0
  1 46  1  0
  2  6  1  0
  4  2  2  0
  4  7  1  0
  5  3  1  0
  6 16  1  0
  6  3  2  0
  7  5  2  0
  8 16  1  0
  9 14  1  0
 10 11  1  0
 10  9  1  0
 12 11  1  0
 12 21  1  0
 12 13  1  0
 14  8  1  0
 14 13  1  0
 15  8  2  0
 16 17  1  0
 18 19  2  0
 19 38  1  0
 20 19  1  0
 20 23  1  0
 21 22  1  0
 21 18  1  0
 22 20  2  0
 23 24  1  0
 24 25  2  0
 26 29  1  0
 26 25  1  0
 27 26  2  0
 28 27  1  0
 28 23  2  0
 29 30  1  0
 30 35  2  0
 30 31  1  0
 31 32  2  0
 33 32  1  0
 33 37  1  0
 34 33  2  0
 35 34  1  0
 36 35  1  0
 38 39  1  0
 39 42  1  0
 39 41  1  0
 40 38  2  0
 43 18  1  0
 43 44  1  0
 45 43  1  0
 47 46  1  0
 48 47  2  0
 49 48  1  0
 50 61  2  0
 51 49  1  0
 51 56  1  0
 52 60  1  0
 52 62  1  0
 53 59  1  0
 53 55  1  0
 54 60  1  0
 55 56  2  0
 55 54  1  0
 57 51  2  0
 58 57  1  0
 58 53  2  0
 59 52  1  0
 60 50  1  0
 62 64  2  0
 63 62  1  0
 65 63  1  0
 66 75  2  0
 66 71  1  0
 67 63  1  0
 67 71  1  0
 68 67  1  0
 69 70  1  0
 69 68  1  0
 70 66  1  0
 71 72  2  0
 72 73  1  0
 74 73  2  0
 75 74  1  0
 76 50  1  0
 76 81  1  0
 76 77  1  0
 77 80  1  1
 77 78  1  0
 79 77  1  0
 81 84  1  0
 82 86  1  0
 82 81  1  0
 83 82  2  0
 86 85  1  0
 88 86  1  0
 88 89  1  0
 88 87  1  0
M  ISO  4   8 100  16 100  48 101  49 101
M  END
>  <TORSDO>  (12) 
F 20

>  <SCORE>  (12) 
-13.067

>  <name>  (12) 
11

>  <ligand_id>  (12) 
11

>  <original_smiles>  (12) 
[H]c1c([H])c([H])c2c(c1[H])C([H])([H])C([H])([H])C([H])([H])C2([H])N([H])C(=O)C1([H])N(C(=O)C([H])(N([H])C(=O)C([H])(N([H])C([H])([H])[H])C([H])([H])[H])C(C([H])([H])[H])(C([H])([H])[H])C([H])([H])[H])C([H])([H])c2c([H])c(OC([H])([H])C([H])([H])C([H])([H])Oc3c([H])c([H])c(N([H])C(=O)N4C([H])([H])C([H])([H])C([H])([H])C([H])(n5nc(-c6c([H])c([H])c(Oc7c([H])c([H])c(F)c([H])c7F)c([H])c6[H])c(C(=O)N([H])[H])c5N([H])[H])C4([H])[H])c([H])c3[H])c([H])c([H])c2C1([H])[H]

>  <smiles>  (12) 
[H]c1c([H])c([H])c2c(c1[H])C([H])([H])C([H])([H])C([H])([H])C2([H])N([H])C(=O)C1([H])N(C(=O)C([H])(N([H])C(=O)C([H])(N([H])C([H])([H])[H])C([H])([H])[H])C(C([H])([H])[H])(C([H])([H])[H])C([H])([H])[H])C([H])([H])c2c([H])c(OC([H])([H])C([H])([H])C([H])([H])Oc3c([H])c([H])c(N([H])C(=O)N4C([H])([H])C([H])([H])C([H])([H])C([H])(n5nc(-c6c([H])c([H])c(Oc7c([H])c([H])c(F)c([H])c7F)c([H])c6[H])c(C(=O)N([H])[H])c5N([H])[H])C4([H])[H])c([H])c3[H])c([H])c([H])c2C1([H])[H]

$$$$
12:0:0
     RDKit          3D

 86 93  0  0  1  0  0  0  0  0999 V2000
  -28.6720  -23.7700   19.9440 C   0  0  0  0  0  3  0  0  0  0  0  0
  -28.2190  -25.0910   20.7410 C   0  0  0  0  0  2  0  0  0  0  0  0
  -28.3430  -26.4570   20.1560 O   0  0  0  0  0  0  0  0  0  0  0  0
  -24.6310  -31.8710   23.2290 C   0  0  0  0  0  0  0  0  0  0  0  0
  -27.2220  -27.3030   20.1680 C   0  0  0  0  0  0  0  0  0  0  0  0
  -23.4160  -30.4700   21.5970 C   0  0  0  0  0  3  0  0  0  0  0  0
  -24.8570  -28.9120   20.1660 C   0  0  0  0  0  0  0  0  0  0  0  0
  -25.9520  -30.7900   21.3930 C   0  0  0  0  0  2  0  0  0  0  0  0
  -26.0300  -29.4080   20.7510 C   0  0  0  0  0  0  0  0  0  0  0  0
  -27.2190  -28.6170   20.7360 C   0  0  0  0  0  3  0  0  0  0  0  0
  -26.0280  -26.8560   19.5680 C   0  0  0  0  0  3  0  0  0  0  0  0
  -24.8580  -27.6420   19.5660 C   0  0  0  0  0  3  0  0  0  0  0  0
  -23.6210  -29.7890   20.2180 C   0  0  0  0  0  2  0  0  0  0  0  0
  -24.6860  -31.0620   22.1300 N   0  0  0  0  0  0  0  0  0  0  0  0
  -23.5520  -32.1480   23.7710 O   0  0  0  0  0  0  0  0  0  0  0  0
  -22.7600  -29.4560   22.5650 C   0  0  0  0  0  0  0  0  0  0  0  0
  -21.4320  -29.2780   22.4470 N   0  0  0  0  0  0  0  0  0  0  0  0
  -23.4430  -28.8320   23.3800 O   0  0  0  0  0  0  0  0  0  0  0  0
  -20.9390  -29.8330   21.7620 H   0  0  0  0  0  0  0  0  0  0  0  0
  -18.0610  -28.0720   22.9610 C   0  0  0  0  0  0  0  0  0  0  0  0
  -20.6180  -28.3420   23.2240 C   0  0  0  0  0  3  0  0  0  0  0  0
  -20.7260  -26.9080   22.6560 C   0  0  0  0  0  2  0  0  0  0  0  0
  -19.6230  -26.5770   21.6450 C   0  0  0  0  0  2  0  0  0  0  0  0
  -18.2420  -26.7200   22.2920 C   0  0  0  0  0  2  0  0  0  0  0  0
  -19.1780  -28.8410   23.3840 C   0  0  0  0  0  0  0  0  0  0  0  0
  -18.9550  -30.1060   23.9700 C   0  0  0  0  0  3  0  0  0  0  0  0
  -17.6480  -30.6030   24.1360 C   0  0  0  0  0  3  0  0  0  0  0  0
  -16.5460  -29.8320   23.7280 C   0  0  0  0  0  3  0  0  0  0  0  0
  -16.7530  -28.5680   23.1460 C   0  0  0  0  0  3  0  0  0  0  0  0
  -25.9190  -32.5040   23.8420 C   0  0  0  0  0  3  0  0  0  0  0  0
  -26.4500  -31.7270   25.1080 C   0  0  1  0  0  0  0  0  0  0  0  0
  -25.3700  -31.4840   26.1880 C   0  0  0  0  0  1  0  0  0  0  0  0
  -27.0290  -30.3510   24.7030 C   0  0  0  0  0  1  0  0  0  0  0  0
  -27.6090  -32.5180   25.7610 C   0  0  0  0  0  1  0  0  0  0  0  0
  -25.6080  -33.8990   24.1840 N   0  0  0  0  0  0  0  0  0  0  0  0
  -25.9280  -34.9580   23.4280 C   0  0  0  0  0  0  0  0  0  0  0  0
  -26.5840  -34.8640   22.3870 O   0  0  0  0  0  0  0  0  0  0  0  0
  -25.0250  -34.0460   24.9950 H   0  0  0  0  0  0  0  0  0  0  0  0
  -24.1860  -36.7460   23.1160 C   0  0  0  0  0  1  0  0  0  0  0  0
  -25.4440  -36.3430   23.9020 C   0  0  0  0  0  3  0  0  0  0  0  0
  -27.5920  -37.2310   24.6940 C   0  0  0  0  0  1  0  0  0  0  0  0
  -26.4690  -37.4000   23.7750 N   0  0  0  0  0  0  0  0  0  0  0  0
  -26.0630  -38.3180   23.9370 H   0  0  0  0  0  0  0  0  0  0  0  0
  -28.8900  -22.4000   20.7680 C   0  0  0  0  0  3  0  0  0  0  0  0
  -29.0280  -21.1070   20.0540 O   0  0  0  0  0  0  0  0  0  0  0  0
  -29.5860  -19.9460   20.7910 C   0  0  0  0  0  3  0  0  0  0  0  0
  -29.3710  -18.4490   20.2310 C   0  0  0  0  0  3  0  0  0  0  0  0
  -30.2390  -17.2470   20.8600 C   0  0  0  0  0  2  0  0  0  0  0  0
  -30.5850  -14.6890   20.3700 C   0  0  0  0  0  0  0  0  0  0  0  0
  -30.3560  -12.4350   19.3300 C   0  0  0  0  0  2  0  0  0  0  0  0
  -29.4000  -12.5300   18.1210 C   0  0  0  0  0  2  0  0  0  0  0  0
  -27.9350  -12.3670   18.5710 C   0  0  0  0  0  2  0  0  0  0  0  0
  -27.5820  -13.2470   19.8010 C   0  0  0  0  0  3  0  0  0  0  0  0
  -28.6560  -13.1330   20.9060 C   0  0  0  0  0  2  0  0  0  0  0  0
  -29.9470  -13.4750   20.2960 N   0  0  0  0  0  0  0  0  0  0  0  0
  -31.7640  -14.8020   20.0280 O   0  0  0  0  0  0  0  0  0  0  0  0
  -29.8180  -15.8000   20.6520 N   0  0  0  0  0  0  0  0  0  0  0  0
  -28.8500  -15.5990   20.8480 H   0  0  0  0  0  0  0  0  0  0  0  0
  -25.2040  -13.8450   20.5600 C   0  0  0  0  0  0  0  0  0  0  0  0
  -24.1410  -13.0720   20.9420 C   0  0  0  0  0  0  0  0  0  0  0  0
  -24.6010  -11.7200   20.9010 C   0  0  0  0  0  0  0  0  0  0  0  0
  -26.2430  -12.9630   20.3080 N   0  0  0  0  0  0  0  0  0  0  0  0
  -25.8880  -11.6800   20.5760 N   0  0  0  0  0  0  0  0  0  0  0  0
  -23.8750  -10.4580   21.0970 C   0  0  0  0  0  0  0  0  0  0  0  0
  -24.3340   -9.4730   21.9980 C   0  0  0  0  0  3  0  0  0  0  0  0
  -23.6070   -8.2760   22.1820 C   0  0  0  0  0  3  0  0  0  0  0  0
  -22.4070   -8.0570   21.4650 C   0  0  0  0  0  0  0  0  0  0  0  0
  -21.9670   -9.0320   20.5520 C   0  0  0  0  0  3  0  0  0  0  0  0
  -22.6940  -10.2200   20.3650 C   0  0  0  0  0  3  0  0  0  0  0  0
  -21.6490   -6.9150   21.5600 O   0  0  0  0  0  0  0  0  0  0  0  0
  -21.6580   -6.1390   22.6910 C   0  0  0  0  0  0  0  0  0  0  0  0
  -21.3230   -6.6630   23.9590 C   0  0  0  0  0  3  0  0  0  0  0  0
  -21.2750   -5.8140   25.0820 C   0  0  0  0  0  3  0  0  0  0  0  0
  -21.5540   -4.4410   24.9400 C   0  0  0  0  0  0  0  0  0  0  0  0
  -21.8830   -3.9170   23.6780 C   0  0  0  0  0  3  0  0  0  0  0  0
  -21.9310   -4.7620   22.5560 C   0  0  0  0  0  0  0  0  0  0  0  0
  -22.2270   -4.2470   21.3390 F   0  0  0  0  0  0  0  0  0  0  0  0
  -21.5020   -3.6230   26.0180 F   0  0  0  0  0  0  0  0  0  0  0  0
  -22.7480  -13.5510   21.2300 C   0  0  0  0  0  0  0  0  0  0  0  0
  -22.0290  -12.8560   22.1060 N   0  0  0  0  0  0  0  0  0  0  0  0
  -22.3050  -14.5760   20.7150 O   0  0  0  0  0  0  0  0  0  0  0  0
  -22.4020  -12.0270   22.5460 H   0  0  0  0  0  0  0  0  0  0  0  0
  -21.0950  -13.1600   22.3420 H   0  0  0  0  0  0  0  0  0  0  0  0
  -25.3670  -15.2150   20.3830 N   0  0  0  0  0  0  0  0  0  0  0  0
  -24.6000  -15.8680   20.5010 H   0  0  0  0  0  0  0  0  0  0  0  0
  -26.2040  -15.6530   20.0200 H   0  0  0  0  0  0  0  0  0  0  0  0
  1  2  1  0
  1 44  2  0
  3  5  1  0
  3  2  1  0
  4 15  2  0
  5 10  1  0
  6 14  1  0
  6 16  1  0
  7 13  1  0
  7  9  1  0
  8 14  1  0
  9  8  1  0
 10  9  2  0
 11  5  2  0
 12 11  1  0
 12  7  2  0
 13  6  1  0
 14  4  1  0
 16 18  2  0
 17 16  1  0
 19 17  1  0
 20 29  2  0
 20 25  1  0
 21 17  1  0
 21 25  1  0
 22 21  1  0
 23 24  1  0
 23 22  1  0
 24 20  1  0
 25 26  2  0
 26 27  1  0
 28 27  2  0
 29 28  1  0
 30  4  1  0
 30 35  1  0
 30 31  1  0
 31 34  1  1
 31 32  1  0
 33 31  1  0
 35 38  1  0
 36 40  1  0
 36 35  1  0
 37 36  2  0
 40 39  1  0
 42 40  1  0
 42 43  1  0
 42 41  1  0
 45 44  1  0
 45 46  1  0
 47 46  2  0
 47 48  1  0
 49 57  1  0
 50 55  1  0
 51 52  1  0
 51 50  1  0
 53 52  1  0
 53 62  1  0
 53 54  1  0
 55 49  1  0
 55 54  1  0
 56 49  2  0
 57 58  1  0
 57 48  1  0
 59 60  2  0
 60 79  1  0
 61 60  1  0
 61 64  1  0
 62 59  1  0
 62 63  1  0
 63 61  2  0
 64 65  1  0
 65 66  2  0
 67 70  1  0
 67 66  1  0
 68 67  2  0
 69 68  1  0
 69 64  2  0
 70 71  1  0
 71 72  1  0
 72 73  2  0
 74 73  1  0
 74 78  1  0
 75 74  2  0
 76 71  2  0
 76 75  1  0
 77 76  1  0
 79 80  1  0
 80 83  1  0
 80 82  1  0
 81 79  2  0
 84 85  1  0
 84 59  1  0
 86 84  1  0
M  ISO  4   2 101   3 101  49 100  57 100
M  END
>  <TORSDO>  (13) 
F 22

>  <SCORE>  (13) 
-12.830

>  <name>  (13) 
12

>  <ligand_id>  (13) 
12

>  <original_smiles>  (13) 
[H]c1c([H])c([H])c2c(c1[H])C([H])([H])C([H])([H])C([H])([H])C2([H])N([H])C(=O)C1([H])N(C(=O)C([H])(N([H])C(=O)C([H])(N([H])C([H])([H])[H])C([H])([H])[H])C(C([H])([H])[H])(C([H])([H])[H])C([H])([H])[H])C([H])([H])c2c([H])c(OC([H])([H])C([H])([H])C([H])([H])OC([H])([H])C([H])([H])C([H])([H])N([H])C(=O)N3C([H])([H])C([H])([H])C([H])([H])C([H])(n4nc(-c5c([H])c([H])c(Oc6c([H])c([H])c(F)c([H])c6F)c([H])c5[H])c(C(=O)N([H])[H])c4N([H])[H])C3([H])[H])c([H])c([H])c2C1([H])[H]

>  <smiles>  (13) 
[H]c1c([H])c([H])c2c(c1[H])C([H])([H])C([H])([H])C([H])([H])C2([H])N([H])C(=O)C1([H])N(C(=O)C([H])(N([H])C(=O)C([H])(N([H])C([H])([H])[H])C([H])([H])[H])C(C([H])([H])[H])(C([H])([H])[H])C([H])([H])[H])C([H])([H])c2c([H])c(OC([H])([H])C([H])([H])C([H])([H])OC([H])([H])C([H])([H])C([H])([H])N([H])C(=O)N3C([H])([H])C([H])([H])C([H])([H])C([H])(n4nc(-c5c([H])c([H])c(Oc6c([H])c([H])c(F)c([H])c6F)c([H])c5[H])c(C(=O)N([H])[H])c4N([H])[H])C3([H])[H])c([H])c([H])c2C1([H])[H]

$$$$
13:0:0
     RDKit          3D

 83 90  0  0  1  0  0  0  0  0999 V2000
  -27.9490  -23.9120   20.2000 C   0  0  0  0  0  3  0  0  0  0  0  0
  -28.1500  -25.6420   20.2980 O   0  0  0  0  0  0  0  0  0  0  0  0
  -24.6720  -31.8880   23.2420 C   0  0  0  0  0  0  0  0  0  0  0  0
  -27.1710  -26.8340   20.2470 C   0  0  0  0  0  0  0  0  0  0  0  0
  -23.4710  -30.4970   21.6080 C   0  0  0  0  0  3  0  0  0  0  0  0
  -24.9060  -28.8480   20.1930 C   0  0  0  0  0  0  0  0  0  0  0  0
  -26.0490  -30.6390   21.4750 C   0  0  0  0  0  2  0  0  0  0  0  0
  -26.1040  -29.2100   20.8200 C   0  0  0  0  0  0  0  0  0  0  0  0
  -27.2230  -28.2300   20.8150 C   0  0  0  0  0  3  0  0  0  0  0  0
  -25.9390  -26.6690   19.5680 C   0  0  0  0  0  3  0  0  0  0  0  0
  -24.8600  -27.6020   19.5430 C   0  0  0  0  0  3  0  0  0  0  0  0
  -23.7020  -29.8000   20.2370 C   0  0  0  0  0  2  0  0  0  0  0  0
  -24.7550  -31.0400   22.1610 N   0  0  0  0  0  0  0  0  0  0  0  0
  -23.5830  -32.1920   23.7560 O   0  0  0  0  0  0  0  0  0  0  0  0
  -22.7560  -29.5220   22.5800 C   0  0  0  0  0  0  0  0  0  0  0  0
  -21.4230  -29.3690   22.4550 N   0  0  0  0  0  0  0  0  0  0  0  0
  -23.4110  -28.8980   23.4200 O   0  0  0  0  0  0  0  0  0  0  0  0
  -20.9460  -29.9220   21.7570 H   0  0  0  0  0  0  0  0  0  0  0  0
  -18.0330  -28.1690   22.9680 C   0  0  0  0  0  0  0  0  0  0  0  0
  -20.5930  -28.4390   23.2300 C   0  0  0  0  0  3  0  0  0  0  0  0
  -20.6940  -27.0020   22.6640 C   0  0  0  0  0  2  0  0  0  0  0  0
  -19.5940  -26.6750   21.6500 C   0  0  0  0  0  2  0  0  0  0  0  0
  -18.2110  -26.8200   22.2910 C   0  0  0  0  0  2  0  0  0  0  0  0
  -19.1500  -28.9350   23.3940 C   0  0  0  0  0  0  0  0  0  0  0  0
  -18.9270  -30.1950   23.9910 C   0  0  0  0  0  3  0  0  0  0  0  0
  -17.6200  -30.6890   24.1620 C   0  0  0  0  0  3  0  0  0  0  0  0
  -16.5170  -29.9210   23.7490 C   0  0  0  0  0  3  0  0  0  0  0  0
  -16.7250  -28.6620   23.1580 C   0  0  0  0  0  3  0  0  0  0  0  0
  -25.9420  -32.5310   23.8780 C   0  0  0  0  0  3  0  0  0  0  0  0
  -26.4400  -31.7670   25.1680 C   0  0  1  0  0  0  0  0  0  0  0  0
  -25.3350  -31.5460   26.2290 C   0  0  0  0  0  1  0  0  0  0  0  0
  -27.0170  -30.3800   24.8050 C   0  0  0  0  0  1  0  0  0  0  0  0
  -27.5910  -32.5580   25.8350 C   0  0  0  0  0  1  0  0  0  0  0  0
  -25.6270  -33.9320   24.2180 N   0  0  0  0  0  0  0  0  0  0  0  0
  -25.9330  -34.9970   23.4640 C   0  0  0  0  0  0  0  0  0  0  0  0
  -26.5690  -34.9020   22.4100 O   0  0  0  0  0  0  0  0  0  0  0  0
  -25.0570  -34.0770   25.0370 H   0  0  0  0  0  0  0  0  0  0  0  0
  -24.1800  -36.7890   23.2110 C   0  0  0  0  0  1  0  0  0  0  0  0
  -25.4650  -36.3850   23.9520 C   0  0  0  0  0  3  0  0  0  0  0  0
  -27.6320  -37.2910   24.6730 C   0  0  0  0  0  1  0  0  0  0  0  0
  -26.4840  -37.4450   23.7830 N   0  0  0  0  0  0  0  0  0  0  0  0
  -26.0790  -38.3630   23.9460 H   0  0  0  0  0  0  0  0  0  0  0  0
  -28.9470  -22.2690   20.2790 C   0  0  0  0  0  3  0  0  0  0  0  0
  -28.7110  -20.3580   20.2370 C   0  0  0  0  0  3  0  0  0  0  0  0
  -29.7530  -18.7430   20.2450 C   0  0  0  0  0  3  0  0  0  0  0  0
  -30.2820  -15.6460   20.1480 C   0  0  0  0  0  0  0  0  0  0  0  0
  -30.3500  -13.1330   19.2860 C   0  0  0  0  0  2  0  0  0  0  0  0
  -29.4300  -12.7740   18.0850 C   0  0  0  0  0  2  0  0  0  0  0  0
  -28.0130  -12.4240   18.5630 C   0  0  0  0  0  2  0  0  0  0  0  0
  -27.5300  -13.4030   19.6600 C   0  0  0  0  0  3  0  0  0  0  0  0
  -28.5860  -13.6800   20.7550 C   0  0  0  0  0  2  0  0  0  0  0  0
  -29.7510  -14.2930   20.0790 N   0  0  0  0  0  0  0  0  0  0  0  0
  -31.5110  -15.5990   19.9480 O   0  0  0  0  0  0  0  0  0  0  0  0
  -29.5270  -16.9940   20.2480 N   0  0  0  0  0  0  0  0  0  0  0  0
  -28.5450  -16.7820   20.3500 H   0  0  0  0  0  0  0  0  0  0  0  0
  -25.1770  -13.9060   20.4730 C   0  0  0  0  0  0  0  0  0  0  0  0
  -24.1340  -13.1120   20.8550 C   0  0  0  0  0  0  0  0  0  0  0  0
  -24.6200  -11.7680   20.8040 C   0  0  0  0  0  0  0  0  0  0  0  0
  -26.2270  -13.0500   20.2020 N   0  0  0  0  0  0  0  0  0  0  0  0
  -25.9070  -11.7560   20.4690 N   0  0  0  0  0  0  0  0  0  0  0  0
  -23.9110  -10.4960   20.9970 C   0  0  0  0  0  0  0  0  0  0  0  0
  -24.3510   -9.5380   21.9370 C   0  0  0  0  0  3  0  0  0  0  0  0
  -23.6360   -8.3340   22.1190 C   0  0  0  0  0  3  0  0  0  0  0  0
  -22.4690   -8.0770   21.3610 C   0  0  0  0  0  0  0  0  0  0  0  0
  -22.0480   -9.0240   20.4100 C   0  0  0  0  0  3  0  0  0  0  0  0
  -22.7630  -10.2200   20.2260 C   0  0  0  0  0  3  0  0  0  0  0  0
  -21.7270   -6.9240   21.4530 O   0  0  0  0  0  0  0  0  0  0  0  0
  -21.6590   -6.2030   22.6170 C   0  0  0  0  0  0  0  0  0  0  0  0
  -21.1670   -6.7650   23.8150 C   0  0  0  0  0  3  0  0  0  0  0  0
  -21.0490   -5.9670   24.9700 C   0  0  0  0  0  3  0  0  0  0  0  0
  -21.4130   -4.6090   24.9290 C   0  0  0  0  0  0  0  0  0  0  0  0
  -21.8990   -4.0450   23.7360 C   0  0  0  0  0  3  0  0  0  0  0  0
  -22.0180   -4.8400   22.5820 C   0  0  0  0  0  0  0  0  0  0  0  0
  -22.4660   -4.2870   21.4300 F   0  0  0  0  0  0  0  0  0  0  0  0
  -21.2940   -3.8400   26.0380 F   0  0  0  0  0  0  0  0  0  0  0  0
  -22.7360  -13.5700   21.1460 C   0  0  0  0  0  0  0  0  0  0  0  0
  -22.0320  -12.8660   22.0240 N   0  0  0  0  0  0  0  0  0  0  0  0
  -22.2780  -14.5880   20.6300 O   0  0  0  0  0  0  0  0  0  0  0  0
  -22.4170  -12.0420   22.4630 H   0  0  0  0  0  0  0  0  0  0  0  0
  -21.0930  -13.1550   22.2630 H   0  0  0  0  0  0  0  0  0  0  0  0
  -25.3150  -15.2810   20.3020 N   0  0  0  0  0  0  0  0  0  0  0  0
  -24.5370  -15.9190   20.4270 H   0  0  0  0  0  0  0  0  0  0  0  0
  -26.1390  -15.7310   19.9280 H   0  0  0  0  0  0  0  0  0  0  0  0
  1 43  2  0
  1  2  1  0
  3 14  2  0
  4  2  1  0
  4  9  1  0
  5 13  1  0
  5 15  1  0
  6 12  1  0
  6  8  1  0
  7 13  1  0
  8  7  1  0
  9  8  2  0
 10  4  2  0
 11 10  1  0
 11  6  2  0
 12  5  1  0
 13  3  1  0
 15 17  2  0
 16 15  1  0
 18 16  1  0
 19 28  2  0
 19 24  1  0
 20 16  1  0
 20 24  1  0
 21 20  1  0
 22 23  1  0
 22 21  1  0
 23 19  1  0
 24 25  2  0
 25 26  1  0
 27 26  2  0
 28 27  1  0
 29  3  1  0
 29 34  1  0
 29 30  1  0
 30 33  1  1
 30 31  1  0
 32 30  1  0
 34 37  1  0
 35 39  1  0
 35 34  1  0
 36 35  2  0
 39 38  1  0
 41 42  1  0
 41 39  1  0
 41 40  1  0
 44 45  2  0
 44 43  1  0
 45 54  1  0
 46 54  1  0
 47 52  1  0
 48 49  1  0
 48 47  1  0
 50 49  1  0
 50 59  1  0
 50 51  1  0
 52 46  1  0
 52 51  1  0
 53 46  2  0
 54 55  1  0
 56 57  2  0
 57 76  1  0
 58 57  1  0
 58 61  1  0
 59 60  1  0
 59 56  1  0
 60 58  2  0
 61 62  1  0
 62 63  2  0
 64 67  1  0
 64 63  1  0
 65 64  2  0
 66 65  1  0
 66 61  2  0
 67 68  1  0
 68 69  1  0
 69 70  2  0
 71 70  1  0
 71 75  1  0
 72 71  2  0
 73 68  2  0
 73 72  1  0
 74 73  1  0
 76 77  1  0
 77 80  1  0
 77 79  1  0
 78 76  2  0
 81 82  1  0
 81 56  1  0
 83 81  1  0
M  ISO  4   1 101   2 101  46 100  54 100
M  END
>  <TORSDO>  (14) 
F 19

>  <SCORE>  (14) 
-16.287

>  <name>  (14) 
13

>  <ligand_id>  (14) 
13

>  <original_smiles>  (14) 
[H]c1c([H])c([H])c2c(c1[H])C([H])([H])C([H])([H])C([H])([H])C2([H])N([H])C(=O)C1([H])N(C(=O)C([H])(N([H])C(=O)C([H])(N([H])C([H])([H])[H])C([H])([H])[H])C(C([H])([H])[H])(C([H])([H])[H])C([H])([H])[H])C([H])([H])c2c([H])c(OC([H])([H])C([H])([H])C([H])([H])C([H])([H])N([H])C(=O)N3C([H])([H])C([H])([H])C([H])([H])C([H])(n4nc(-c5c([H])c([H])c(Oc6c([H])c([H])c(F)c([H])c6F)c([H])c5[H])c(C(=O)N([H])[H])c4N([H])[H])C3([H])[H])c([H])c([H])c2C1([H])[H]

>  <smiles>  (14) 
[H]c1c([H])c([H])c2c(c1[H])C([H])([H])C([H])([H])C([H])([H])C2([H])N([H])C(=O)C1([H])N(C(=O)C([H])(N([H])C(=O)C([H])(N([H])C([H])([H])[H])C([H])([H])[H])C(C([H])([H])[H])(C([H])([H])[H])C([H])([H])[H])C([H])([H])c2c([H])c(OC([H])([H])C([H])([H])C([H])([H])C([H])([H])N([H])C(=O)N3C([H])([H])C([H])([H])C([H])([H])C([H])(n4nc(-c5c([H])c([H])c(Oc6c([H])c([H])c(F)c([H])c6F)c([H])c5[H])c(C(=O)N([H])[H])c4N([H])[H])C3([H])[H])c([H])c([H])c2C1([H])[H]

$$$$
14:0:0
     RDKit          3D

 83 90  0  0  1  0  0  0  0  0999 V2000
  -27.9490  -23.9120   20.2000 C   0  0  0  0  0  3  0  0  0  0  0  0
  -28.1500  -25.6420   20.2980 O   0  0  0  0  0  0  0  0  0  0  0  0
  -24.6720  -31.8880   23.2420 C   0  0  0  0  0  0  0  0  0  0  0  0
  -27.1710  -26.8340   20.2470 C   0  0  0  0  0  0  0  0  0  0  0  0
  -23.4710  -30.4970   21.6080 C   0  0  0  0  0  3  0  0  0  0  0  0
  -24.9060  -28.8480   20.1930 C   0  0  0  0  0  0  0  0  0  0  0  0
  -26.0490  -30.6390   21.4750 C   0  0  0  0  0  2  0  0  0  0  0  0
  -26.1040  -29.2100   20.8200 C   0  0  0  0  0  0  0  0  0  0  0  0
  -27.2230  -28.2300   20.8150 C   0  0  0  0  0  3  0  0  0  0  0  0
  -25.9390  -26.6690   19.5680 C   0  0  0  0  0  3  0  0  0  0  0  0
  -24.8600  -27.6020   19.5430 C   0  0  0  0  0  3  0  0  0  0  0  0
  -23.7020  -29.8000   20.2370 C   0  0  0  0  0  2  0  0  0  0  0  0
  -24.7550  -31.0400   22.1610 N   0  0  0  0  0  0  0  0  0  0  0  0
  -23.5830  -32.1920   23.7560 O   0  0  0  0  0  0  0  0  0  0  0  0
  -22.7560  -29.5220   22.5800 C   0  0  0  0  0  0  0  0  0  0  0  0
  -21.4230  -29.3690   22.4550 N   0  0  0  0  0  0  0  0  0  0  0  0
  -23.4110  -28.8980   23.4200 O   0  0  0  0  0  0  0  0  0  0  0  0
  -20.9460  -29.9220   21.7570 H   0  0  0  0  0  0  0  0  0  0  0  0
  -18.0330  -28.1690   22.9680 C   0  0  0  0  0  0  0  0  0  0  0  0
  -20.5930  -28.4390   23.2300 C   0  0  0  0  0  3  0  0  0  0  0  0
  -20.6940  -27.0020   22.6640 C   0  0  0  0  0  2  0  0  0  0  0  0
  -19.5940  -26.6750   21.6500 C   0  0  0  0  0  2  0  0  0  0  0  0
  -18.2110  -26.8200   22.2910 C   0  0  0  0  0  2  0  0  0  0  0  0
  -19.1500  -28.9350   23.3940 C   0  0  0  0  0  0  0  0  0  0  0  0
  -18.9270  -30.1950   23.9910 C   0  0  0  0  0  3  0  0  0  0  0  0
  -17.6200  -30.6890   24.1620 C   0  0  0  0  0  3  0  0  0  0  0  0
  -16.5170  -29.9210   23.7490 C   0  0  0  0  0  3  0  0  0  0  0  0
  -16.7250  -28.6620   23.1580 C   0  0  0  0  0  3  0  0  0  0  0  0
  -25.9420  -32.5310   23.8780 C   0  0  0  0  0  3  0  0  0  0  0  0
  -26.4400  -31.7670   25.1680 C   0  0  1  0  0  0  0  0  0  0  0  0
  -25.3350  -31.5460   26.2290 C   0  0  0  0  0  1  0  0  0  0  0  0
  -27.0170  -30.3800   24.8050 C   0  0  0  0  0  1  0  0  0  0  0  0
  -27.5910  -32.5580   25.8350 C   0  0  0  0  0  1  0  0  0  0  0  0
  -25.6270  -33.9320   24.2180 N   0  0  0  0  0  0  0  0  0  0  0  0
  -25.9330  -34.9970   23.4640 C   0  0  0  0  0  0  0  0  0  0  0  0
  -26.5690  -34.9020   22.4100 O   0  0  0  0  0  0  0  0  0  0  0  0
  -25.0570  -34.0770   25.0370 H   0  0  0  0  0  0  0  0  0  0  0  0
  -24.1800  -36.7890   23.2110 C   0  0  0  0  0  1  0  0  0  0  0  0
  -25.4650  -36.3850   23.9520 C   0  0  0  0  0  3  0  0  0  0  0  0
  -27.6320  -37.2910   24.6730 C   0  0  0  0  0  1  0  0  0  0  0  0
  -26.4840  -37.4450   23.7830 N   0  0  0  0  0  0  0  0  0  0  0  0
  -26.0790  -38.3630   23.9460 H   0  0  0  0  0  0  0  0  0  0  0  0
  -28.9470  -22.2690   20.2790 C   0  0  0  0  0  3  0  0  0  0  0  0
  -28.7110  -20.3580   20.2370 C   0  0  0  0  0  3  0  0  0  0  0  0
  -29.7530  -18.7430   20.2450 C   0  0  0  0  0  3  0  0  0  0  0  0
  -30.2820  -15.6460   20.1480 C   0  0  0  0  0  0  0  0  0  0  0  0
  -30.3500  -13.1330   19.2860 C   0  0  0  0  0  2  0  0  0  0  0  0
  -29.4300  -12.7740   18.0850 C   0  0  0  0  0  2  0  0  0  0  0  0
  -28.0130  -12.4240   18.5630 C   0  0  0  0  0  2  0  0  0  0  0  0
  -27.5300  -13.4030   19.6600 C   0  0  0  0  0  3  0  0  0  0  0  0
  -28.5860  -13.6800   20.7550 C   0  0  0  0  0  2  0  0  0  0  0  0
  -29.7510  -14.2930   20.0790 N   0  0  0  0  0  0  0  0  0  0  0  0
  -31.5110  -15.5990   19.9480 O   0  0  0  0  0  0  0  0  0  0  0  0
  -29.5270  -16.9940   20.2480 N   0  0  0  0  0  0  0  0  0  0  0  0
  -28.5450  -16.7820   20.3500 H   0  0  0  0  0  0  0  0  0  0  0  0
  -25.1770  -13.9060   20.4730 C   0  0  0  0  0  0  0  0  0  0  0  0
  -24.1340  -13.1120   20.8550 C   0  0  0  0  0  0  0  0  0  0  0  0
  -24.6200  -11.7680   20.8040 C   0  0  0  0  0  0  0  0  0  0  0  0
  -26.2270  -13.0500   20.2020 N   0  0  0  0  0  0  0  0  0  0  0  0
  -25.9070  -11.7560   20.4690 N   0  0  0  0  0  0  0  0  0  0  0  0
  -23.9110  -10.4960   20.9970 C   0  0  0  0  0  0  0  0  0  0  0  0
  -24.3510   -9.5380   21.9370 C   0  0  0  0  0  3  0  0  0  0  0  0
  -23.6360   -8.3340   22.1190 C   0  0  0  0  0  3  0  0  0  0  0  0
  -22.4690   -8.0770   21.3610 C   0  0  0  0  0  0  0  0  0  0  0  0
  -22.0480   -9.0240   20.4100 C   0  0  0  0  0  3  0  0  0  0  0  0
  -22.7630  -10.2200   20.2260 C   0  0  0  0  0  3  0  0  0  0  0  0
  -21.7270   -6.9240   21.4530 O   0  0  0  0  0  0  0  0  0  0  0  0
  -21.6590   -6.2030   22.6170 C   0  0  0  0  0  0  0  0  0  0  0  0
  -21.1670   -6.7650   23.8150 C   0  0  0  0  0  3  0  0  0  0  0  0
  -21.0490   -5.9670   24.9700 C   0  0  0  0  0  3  0  0  0  0  0  0
  -21.4130   -4.6090   24.9290 C   0  0  0  0  0  0  0  0  0  0  0  0
  -21.8990   -4.0450   23.7360 C   0  0  0  0  0  3  0  0  0  0  0  0
  -22.0180   -4.8400   22.5820 C   0  0  0  0  0  0  0  0  0  0  0  0
  -22.4660   -4.2870   21.4300 F   0  0  0  0  0  0  0  0  0  0  0  0
  -21.2940   -3.8400   26.0380 F   0  0  0  0  0  0  0  0  0  0  0  0
  -22.7360  -13.5700   21.1460 C   0  0  0  0  0  0  0  0  0  0  0  0
  -22.0320  -12.8660   22.0240 N   0  0  0  0  0  0  0  0  0  0  0  0
  -22.2780  -14.5880   20.6300 O   0  0  0  0  0  0  0  0  0  0  0  0
  -22.4170  -12.0420   22.4630 H   0  0  0  0  0  0  0  0  0  0  0  0
  -21.0930  -13.1550   22.2630 H   0  0  0  0  0  0  0  0  0  0  0  0
  -25.3150  -15.2810   20.3020 N   0  0  0  0  0  0  0  0  0  0  0  0
  -24.5370  -15.9190   20.4270 H   0  0  0  0  0  0  0  0  0  0  0  0
  -26.1390  -15.7310   19.9280 H   0  0  0  0  0  0  0  0  0  0  0  0
  1 43  2  0
  1  2  1  0
  3 14  2  0
  4  2  1  0
  4  9  1  0
  5 13  1  0
  5 15  1  0
  6 12  1  0
  6  8  1  0
  7 13  1  0
  8  7  1  0
  9  8  2  0
 10  4  2  0
 11 10  1  0
 11  6  2  0
 12  5  1  0
 13  3  1  0
 15 17  2  0
 16 15  1  0
 18 16  1  0
 19 28  2  0
 19 24  1  0
 20 16  1  0
 20 24  1  0
 21 20  1  0
 22 23  1  0
 22 21  1  0
 23 19  1  0
 24 25  2  0
 25 26  1  0
 27 26  2  0
 28 27  1  0
 29  3  1  0
 29 34  1  0
 29 30  1  0
 30 33  1  1
 30 31  1  0
 32 30  1  0
 34 37  1  0
 35 39  1  0
 35 34  1  0
 36 35  2  0
 39 38  1  0
 41 42  1  0
 41 39  1  0
 41 40  1  0
 44 45  2  0
 44 43  1  0
 45 54  1  0
 46 54  1  0
 47 52  1  0
 48 49  1  0
 48 47  1  0
 50 49  1  0
 50 59  1  0
 50 51  1  0
 52 46  1  0
 52 51  1  0
 53 46  2  0
 54 55  1  0
 56 57  2  0
 57 76  1  0
 58 57  1  0
 58 61  1  0
 59 60  1  0
 59 56  1  0
 60 58  2  0
 61 62  1  0
 62 63  2  0
 64 67  1  0
 64 63  1  0
 65 64  2  0
 66 65  1  0
 66 61  2  0
 67 68  1  0
 68 69  1  0
 69 70  2  0
 71 70  1  0
 71 75  1  0
 72 71  2  0
 73 68  2  0
 73 72  1  0
 74 73  1  0
 76 77  1  0
 77 80  1  0
 77 79  1  0
 78 76  2  0
 81 82  1  0
 81 56  1  0
 83 81  1  0
M  ISO  4   1 101   2 101  46 100  54 100
M  END
>  <TORSDO>  (15) 
F 19

>  <SCORE>  (15) 
-16.287

>  <name>  (15) 
14

>  <ligand_id>  (15) 
14

>  <original_smiles>  (15) 
[H]c1c([H])c([H])c2c(c1[H])C([H])([H])C([H])([H])C([H])([H])C2([H])N([H])C(=O)C1([H])N(C(=O)C([H])(N([H])C(=O)C([H])(N([H])C([H])([H])[H])C([H])([H])[H])C(C([H])([H])[H])(C([H])([H])[H])C([H])([H])[H])C([H])([H])c2c([H])c(OC([H])([H])C([H])([H])C([H])([H])C([H])([H])N([H])C(=O)N3C([H])([H])C([H])([H])C([H])([H])C([H])(n4nc(-c5c([H])c([H])c(Oc6c([H])c([H])c(F)c([H])c6F)c([H])c5[H])c(C(=O)N([H])[H])c4N([H])[H])C3([H])[H])c([H])c([H])c2C1([H])[H]

>  <smiles>  (15) 
[H]c1c([H])c([H])c2c(c1[H])C([H])([H])C([H])([H])C([H])([H])C2([H])N([H])C(=O)C1([H])N(C(=O)C([H])(N([H])C(=O)C([H])(N([H])C([H])([H])[H])C([H])([H])[H])C(C([H])([H])[H])(C([H])([H])[H])C([H])([H])[H])C([H])([H])c2c([H])c(OC([H])([H])C([H])([H])C([H])([H])C([H])([H])N([H])C(=O)N3C([H])([H])C([H])([H])C([H])([H])C([H])(n4nc(-c5c([H])c([H])c(Oc6c([H])c([H])c(F)c([H])c6F)c([H])c5[H])c(C(=O)N([H])[H])c4N([H])[H])C3([H])[H])c([H])c([H])c2C1([H])[H]

$$$$
15:0:0
     RDKit          3D

 90 97  0  0  1  0  0  0  0  0999 V2000
  -30.0040  -23.4870   19.6920 C   0  0  0  0  0  0  0  0  0  0  0  0
  -30.2220  -22.5360   18.7690 N   0  0  0  0  0  0  0  0  0  0  0  0
  -30.0020  -23.2450   20.9020 O   0  0  0  0  0  0  0  0  0  0  0  0
  -30.1410  -22.8050   17.7960 H   0  0  0  0  0  0  0  0  0  0  0  0
  -29.8800  -24.9370   19.1970 C   0  0  0  0  0  2  0  0  0  0  0  0
  -28.4610  -25.5440   19.2450 C   0  0  0  0  0  2  0  0  0  0  0  0
  -28.4080  -26.7270   20.0610 O   0  0  0  0  0  0  0  0  0  0  0  0
  -24.6260  -31.8880   23.2410 C   0  0  0  0  0  0  0  0  0  0  0  0
  -27.2210  -27.4350   20.1000 C   0  0  0  0  0  0  0  0  0  0  0  0
  -23.3970  -30.4920   21.6130 C   0  0  0  0  0  3  0  0  0  0  0  0
  -24.8250  -28.9520   20.1700 C   0  0  0  0  0  0  0  0  0  0  0  0
  -25.9230  -30.8360   21.3860 C   0  0  0  0  0  2  0  0  0  0  0  0
  -25.9950  -29.4630   20.7480 C   0  0  0  0  0  0  0  0  0  0  0  0
  -27.1890  -28.7090   20.7160 C   0  0  0  0  0  3  0  0  0  0  0  0
  -26.0190  -26.9330   19.5380 C   0  0  0  0  0  3  0  0  0  0  0  0
  -24.8330  -27.6830   19.5710 C   0  0  0  0  0  3  0  0  0  0  0  0
  -23.5910  -29.8200   20.2280 C   0  0  0  0  0  2  0  0  0  0  0  0
  -24.6680  -31.0860   22.1380 N   0  0  0  0  0  0  0  0  0  0  0  0
  -23.5500  -32.1610   23.7920 O   0  0  0  0  0  0  0  0  0  0  0  0
  -22.7550  -29.4670   22.5770 C   0  0  0  0  0  0  0  0  0  0  0  0
  -21.4310  -29.2830   22.4610 N   0  0  0  0  0  0  0  0  0  0  0  0
  -23.4470  -28.8440   23.3880 O   0  0  0  0  0  0  0  0  0  0  0  0
  -20.9350  -29.8420   21.7790 H   0  0  0  0  0  0  0  0  0  0  0  0
  -18.0640  -28.0700   22.9690 C   0  0  0  0  0  0  0  0  0  0  0  0
  -20.6210  -28.3440   23.2360 C   0  0  0  0  0  3  0  0  0  0  0  0
  -20.7300  -26.9090   22.6670 C   0  0  0  0  0  2  0  0  0  0  0  0
  -19.6280  -26.5750   21.6570 C   0  0  0  0  0  2  0  0  0  0  0  0
  -18.2470  -26.7170   22.3010 C   0  0  0  0  0  2  0  0  0  0  0  0
  -19.1790  -28.8400   23.3940 C   0  0  0  0  0  0  0  0  0  0  0  0
  -18.9540  -30.1050   23.9790 C   0  0  0  0  0  3  0  0  0  0  0  0
  -17.6490  -30.6020   24.1420 C   0  0  0  0  0  3  0  0  0  0  0  0
  -16.5470  -29.8290   23.7310 C   0  0  0  0  0  3  0  0  0  0  0  0
  -16.7570  -28.5630   23.1520 C   0  0  0  0  0  3  0  0  0  0  0  0
  -25.9180  -32.5140   23.8490 C   0  0  0  0  0  3  0  0  0  0  0  0
  -25.6120  -33.9110   24.1860 N   0  0  0  0  0  0  0  0  0  0  0  0
  -25.9350  -34.9660   23.4280 C   0  0  0  0  0  0  0  0  0  0  0  0
  -26.5920  -34.8660   22.3880 O   0  0  0  0  0  0  0  0  0  0  0  0
  -25.0240  -34.0620   24.9930 H   0  0  0  0  0  0  0  0  0  0  0  0
  -24.2000  -36.7580   23.0980 C   0  0  0  0  0  1  0  0  0  0  0  0
  -25.4500  -36.3530   23.8940 C   0  0  0  0  0  3  0  0  0  0  0  0
  -27.5960  -37.2340   24.7000 C   0  0  0  0  0  1  0  0  0  0  0  0
  -26.4800  -37.4060   23.7720 N   0  0  0  0  0  0  0  0  0  0  0  0
  -26.0770  -38.3250   23.9270 H   0  0  0  0  0  0  0  0  0  0  0  0
  -26.4520  -31.7370   25.1130 C   0  0  1  0  0  0  0  0  0  0  0  0
  -25.3760  -31.4940   26.1970 C   0  0  0  0  0  1  0  0  0  0  0  0
  -27.0270  -30.3610   24.7030 C   0  0  0  0  0  1  0  0  0  0  0  0
  -27.6130  -32.5280   25.7610 C   0  0  0  0  0  1  0  0  0  0  0  0
  -30.8360  -21.2330   19.0410 C   0  0  0  0  0  2  0  0  0  0  0  0
  -29.8370  -20.1350   19.4620 C   0  0  0  0  0  2  0  0  0  0  0  0
  -30.5670  -18.9270   20.0830 C   0  0  0  0  0  2  0  0  0  0  0  0
  -29.6980  -17.6720   20.3060 C   0  0  0  0  0  2  0  0  0  0  0  0
  -30.3140  -16.7610   21.3960 C   0  0  0  0  0  2  0  0  0  0  0  0
  -30.6380  -14.4290   20.5690 C   0  0  0  0  0  0  0  0  0  0  0  0
  -30.3920  -12.3020   19.3510 C   0  0  0  0  0  2  0  0  0  0  0  0
  -29.4470  -12.5310   18.1510 C   0  0  0  0  0  2  0  0  0  0  0  0
  -27.9670  -12.3920   18.5710 C   0  0  0  0  0  2  0  0  0  0  0  0
  -27.6230  -13.2170   19.8430 C   0  0  0  0  0  3  0  0  0  0  0  0
  -28.6680  -12.9080   20.9420 C   0  0  0  0  0  2  0  0  0  0  0  0
  -29.9980  -13.2460   20.4050 N   0  0  0  0  0  0  0  0  0  0  0  0
  -31.7290  -14.6900   20.0470 O   0  0  0  0  0  0  0  0  0  0  0  0
  -29.9420  -15.3550   21.2520 N   0  0  0  0  0  0  0  0  0  0  0  0
  -29.0680  -15.0610   21.6700 H   0  0  0  0  0  0  0  0  0  0  0  0
  -25.2180  -13.8500   20.5270 C   0  0  0  0  0  0  0  0  0  0  0  0
  -24.1420  -13.0840   20.8930 C   0  0  0  0  0  0  0  0  0  0  0  0
  -24.5960  -11.7310   20.8680 C   0  0  0  0  0  0  0  0  0  0  0  0
  -26.2610  -12.9610   20.3050 N   0  0  0  0  0  0  0  0  0  0  0  0
  -25.8860  -11.6820   20.5620 N   0  0  0  0  0  0  0  0  0  0  0  0
  -23.8630  -10.4740   21.0620 C   0  0  0  0  0  0  0  0  0  0  0  0
  -24.3010   -9.5020   21.9870 C   0  0  0  0  0  3  0  0  0  0  0  0
  -23.5740   -8.3060   22.1720 C   0  0  0  0  0  3  0  0  0  0  0  0
  -22.3930   -8.0720   21.4270 C   0  0  0  0  0  0  0  0  0  0  0  0
  -21.9700   -9.0330   20.4920 C   0  0  0  0  0  3  0  0  0  0  0  0
  -22.6980  -10.2210   20.3050 C   0  0  0  0  0  3  0  0  0  0  0  0
  -21.6380   -6.9280   21.5180 O   0  0  0  0  0  0  0  0  0  0  0  0
  -21.6140   -6.1700   22.6610 C   0  0  0  0  0  0  0  0  0  0  0  0
  -21.2320   -6.7140   23.9070 C   0  0  0  0  0  3  0  0  0  0  0  0
  -21.1500   -5.8800   25.0420 C   0  0  0  0  0  3  0  0  0  0  0  0
  -21.4420   -4.5080   24.9320 C   0  0  0  0  0  0  0  0  0  0  0  0
  -21.8230   -3.9670   23.6920 C   0  0  0  0  0  3  0  0  0  0  0  0
  -21.9050   -4.7960   22.5590 C   0  0  0  0  0  0  0  0  0  0  0  0
  -22.2460   -4.2640   21.3610 F   0  0  0  0  0  0  0  0  0  0  0  0
  -21.3610   -3.7070   26.0200 F   0  0  0  0  0  0  0  0  0  0  0  0
  -22.7440  -13.5690   21.1580 C   0  0  0  0  0  0  0  0  0  0  0  0
  -22.0100  -12.8820   22.0260 N   0  0  0  0  0  0  0  0  0  0  0  0
  -22.3130  -14.5950   20.6330 O   0  0  0  0  0  0  0  0  0  0  0  0
  -22.3680  -12.0560   22.4800 H   0  0  0  0  0  0  0  0  0  0  0  0
  -21.0710  -13.1920   22.2410 H   0  0  0  0  0  0  0  0  0  0  0  0
  -25.3910  -15.2180   20.3500 N   0  0  0  0  0  0  0  0  0  0  0  0
  -24.6300  -15.8800   20.4470 H   0  0  0  0  0  0  0  0  0  0  0  0
  -26.2470  -15.6510   20.0280 H   0  0  0  0  0  0  0  0  0  0  0  0
  1  3  2  0
  2 48  1  0
  2  1  1  0
  4  2  1  0
  5  6  1  0
  5  1  1  0
  6  7  1  0
  7  9  1  0
  8 19  2  0
  9 14  1  0
 10 18  1  0
 10 20  1  0
 11 17  1  0
 11 13  1  0
 12 18  1  0
 13 12  1  0
 14 13  2  0
 15 16  1  0
 15  9  2  0
 16 11  2  0
 17 10  1  0
 18  8  1  0
 20 22  2  0
 21 20  1  0
 23 21  1  0
 24 33  2  0
 24 29  1  0
 25 21  1  0
 25 29  1  0
 26 25  1  0
 27 28  1  0
 27 26  1  0
 28 24  1  0
 29 30  2  0
 30 31  1  0
 32 31  2  0
 33 32  1  0
 34  8  1  0
 34 35  1  0
 34 44  1  0
 35 38  1  0
 36 40  1  0
 36 35  1  0
 37 36  2  0
 40 39  1  0
 42 40  1  0
 42 43  1  0
 42 41  1  0
 44 47  1  1
 44 45  1  0
 46 44  1  0
 48 49  1  0
 49 50  1  0
 50 51  1  0
 51 52  1  0
 53 61  1  0
 54 59  1  0
 55 56  1  0
 55 54  1  0
 57 56  1  0
 57 66  1  0
 57 58  1  0
 59 53  1  0
 59 58  1  0
 60 53  2  0
 61 52  1  0
 61 62  1  0
 63 64  2  0
 64 83  1  0
 65 64  1  0
 65 68  1  0
 66 63  1  0
 66 67  1  0
 67 65  2  0
 68 69  1  0
 69 70  2  0
 71 74  1  0
 71 70  1  0
 72 71  2  0
 73 72  1  0
 73 68  2  0
 74 75  1  0
 75 76  1  0
 76 77  2  0
 78 77  1  0
 78 82  1  0
 79 78  2  0
 80 75  2  0
 80 79  1  0
 81 80  1  0
 83 84  1  0
 84 87  1  0
 84 86  1  0
 85 83  2  0
 88 89  1  0
 88 63  1  0
 90 88  1  0
M  ISO  4   6 101   7 101  53 100  61 100
M  END
>  <TORSDO>  (16) 
F 23

>  <SCORE>  (16) 
-12.646

>  <name>  (16) 
15

>  <ligand_id>  (16) 
15

>  <original_smiles>  (16) 
[H]c1c([H])c([H])c2c(c1[H])C([H])([H])C([H])([H])C([H])([H])C2([H])N([H])C(=O)C1([H])N(C(=O)C([H])(N([H])C(=O)C([H])(N([H])C([H])([H])[H])C([H])([H])[H])C(C([H])([H])[H])(C([H])([H])[H])C([H])([H])[H])C([H])([H])c2c([H])c(OC([H])([H])C([H])([H])C(=O)N([H])C([H])([H])C([H])([H])C([H])([H])C([H])([H])C([H])([H])N([H])C(=O)N3C([H])([H])C([H])([H])C([H])([H])C([H])(n4nc(-c5c([H])c([H])c(Oc6c([H])c([H])c(F)c([H])c6F)c([H])c5[H])c(C(=O)N([H])[H])c4N([H])[H])C3([H])[H])c([H])c([H])c2C1([H])[H]

>  <smiles>  (16) 
[H]c1c([H])c([H])c2c(c1[H])C([H])([H])C([H])([H])C([H])([H])C2([H])N([H])C(=O)C1([H])N(C(=O)C([H])(N([H])C(=O)C([H])(N([H])C([H])([H])[H])C([H])([H])[H])C(C([H])([H])[H])(C([H])([H])[H])C([H])([H])[H])C([H])([H])c2c([H])c(OC([H])([H])C([H])([H])C(=O)N([H])C([H])([H])C([H])([H])C([H])([H])C([H])([H])C([H])([H])N([H])C(=O)N3C([H])([H])C([H])([H])C([H])([H])C([H])(n4nc(-c5c([H])c([H])c(Oc6c([H])c([H])c(F)c([H])c6F)c([H])c5[H])c(C(=O)N([H])[H])c4N([H])[H])C3([H])[H])c([H])c([H])c2C1([H])[H]

$$$$
16:0:0
     RDKit          3D

 88 96  0  0  1  0  0  0  0  0999 V2000
  -31.7310  -19.5950   20.5760 C   0  0  0  0  0  3  0  0  0  0  0  0
  -31.3480  -18.2320   20.5430 C   0  0  0  0  0  3  0  0  0  0  0  0
  -30.8110  -20.6690   20.5080 C   0  0  0  0  0  3  0  0  0  0  0  0
  -29.0630  -18.9980   20.3710 C   0  0  0  0  0  3  0  0  0  0  0  0
  -29.9990  -17.8200   20.4400 C   0  0  0  0  0  0  0  0  0  0  0  0
  -29.4210  -20.4630   20.3980 C   0  0  0  0  0  0  0  0  0  0  0  0
  -30.4830  -15.0790   20.3150 C   0  0  0  0  0  0  0  0  0  0  0  0
  -30.3790  -12.7120   19.3690 C   0  0  0  0  0  2  0  0  0  0  0  0
  -29.4310  -12.6330   18.1500 C   0  0  0  0  0  2  0  0  0  0  0  0
  -27.9790  -12.3950   18.6060 C   0  0  0  0  0  2  0  0  0  0  0  0
  -27.5740  -13.3170   19.7860 C   0  0  0  0  0  3  0  0  0  0  0  0
  -28.6460  -13.3620   20.8950 C   0  0  0  0  0  2  0  0  0  0  0  0
  -29.8920  -13.8100   20.2600 N   0  0  0  0  0  0  0  0  0  0  0  0
  -31.6900  -15.1140   20.0460 O   0  0  0  0  0  0  0  0  0  0  0  0
  -29.7010  -16.2870   20.4420 N   0  0  0  0  0  0  0  0  0  0  0  0
  -28.7200  -16.0730   20.5450 H   0  0  0  0  0  0  0  0  0  0  0  0
  -25.2040  -13.8620   20.5740 C   0  0  0  0  0  0  0  0  0  0  0  0
  -24.1530  -13.0750   20.9510 C   0  0  0  0  0  0  0  0  0  0  0  0
  -24.6270  -11.7280   20.8970 C   0  0  0  0  0  0  0  0  0  0  0  0
  -26.2500  -12.9970   20.3060 N   0  0  0  0  0  0  0  0  0  0  0  0
  -25.9150  -11.7060   20.5680 N   0  0  0  0  0  0  0  0  0  0  0  0
  -23.9130  -10.4580   21.0810 C   0  0  0  0  0  0  0  0  0  0  0  0
  -24.3630   -9.4820   21.9980 C   0  0  0  0  0  3  0  0  0  0  0  0
  -23.6460   -8.2780   22.1710 C   0  0  0  0  0  3  0  0  0  0  0  0
  -22.4640   -8.0420   21.4290 C   0  0  0  0  0  0  0  0  0  0  0  0
  -22.0330   -9.0080   20.5020 C   0  0  0  0  0  3  0  0  0  0  0  0
  -22.7510  -10.2020   20.3260 C   0  0  0  0  0  3  0  0  0  0  0  0
  -21.7170   -6.8920   21.5140 O   0  0  0  0  0  0  0  0  0  0  0  0
  -21.6850   -6.1380   22.6590 C   0  0  0  0  0  0  0  0  0  0  0  0
  -21.2500   -6.6720   23.8910 C   0  0  0  0  0  3  0  0  0  0  0  0
  -21.1660   -5.8430   25.0270 C   0  0  0  0  0  3  0  0  0  0  0  0
  -21.5060   -4.4810   24.9320 C   0  0  0  0  0  0  0  0  0  0  0  0
  -21.9340   -3.9460   23.7060 C   0  0  0  0  0  3  0  0  0  0  0  0
  -22.0200   -4.7710   22.5710 C   0  0  0  0  0  0  0  0  0  0  0  0
  -22.4120   -4.2460   21.3850 F   0  0  0  0  0  0  0  0  0  0  0  0
  -21.4190   -3.6820   26.0230 F   0  0  0  0  0  0  0  0  0  0  0  0
  -22.7560  -13.5380   21.2440 C   0  0  0  0  0  0  0  0  0  0  0  0
  -22.0460  -12.8310   22.1160 N   0  0  0  0  0  0  0  0  0  0  0  0
  -22.3030  -14.5620   20.7350 O   0  0  0  0  0  0  0  0  0  0  0  0
  -22.4260  -12.0010   22.5480 H   0  0  0  0  0  0  0  0  0  0  0  0
  -21.1080  -13.1230   22.3550 H   0  0  0  0  0  0  0  0  0  0  0  0
  -25.3510  -15.2360   20.4080 N   0  0  0  0  0  0  0  0  0  0  0  0
  -24.5730  -15.8760   20.5280 H   0  0  0  0  0  0  0  0  0  0  0  0
  -26.1720  -15.6840   20.0220 H   0  0  0  0  0  0  0  0  0  0  0  0
  -28.5370  -21.6530   20.3190 O   0  0  0  0  0  0  0  0  0  0  0  0
  -28.9340  -23.1800   20.3950 C   0  0  0  0  0  3  0  0  0  0  0  0
  -27.9180  -24.5570   20.1850 C   0  0  0  0  0  3  0  0  0  0  0  0
  -28.2060  -26.1090   20.3330 O   0  0  0  0  0  0  0  0  0  0  0  0
  -24.6190  -31.9130   23.2590 C   0  0  0  0  0  0  0  0  0  0  0  0
  -27.1690  -27.1290   20.2600 C   0  0  0  0  0  0  0  0  0  0  0  0
  -23.4180  -30.5200   21.6220 C   0  0  0  0  0  3  0  0  0  0  0  0
  -24.8600  -28.9240   20.2080 C   0  0  0  0  0  0  0  0  0  0  0  0
  -25.9770  -30.7550   21.4690 C   0  0  0  0  0  2  0  0  0  0  0  0
  -26.0440  -29.3560   20.8210 C   0  0  0  0  0  0  0  0  0  0  0  0
  -27.1980  -28.4770   20.8260 C   0  0  0  0  0  3  0  0  0  0  0  0
  -25.9570  -26.8130   19.6070 C   0  0  0  0  0  3  0  0  0  0  0  0
  -24.8330  -27.6690   19.5840 C   0  0  0  0  0  3  0  0  0  0  0  0
  -23.6420  -29.8350   20.2470 C   0  0  0  0  0  2  0  0  0  0  0  0
  -24.6920  -31.0860   22.1710 N   0  0  0  0  0  0  0  0  0  0  0  0
  -23.5320  -32.2090   23.7810 O   0  0  0  0  0  0  0  0  0  0  0  0
  -22.7250  -29.5230   22.5860 C   0  0  0  0  0  0  0  0  0  0  0  0
  -21.3960  -29.3620   22.4560 N   0  0  0  0  0  0  0  0  0  0  0  0
  -23.3870  -28.8960   23.4160 O   0  0  0  0  0  0  0  0  0  0  0  0
  -20.9160  -29.9190   21.7610 H   0  0  0  0  0  0  0  0  0  0  0  0
  -18.0030  -28.1890   22.9570 C   0  0  0  0  0  0  0  0  0  0  0  0
  -20.5650  -28.4340   23.2280 C   0  0  0  0  0  3  0  0  0  0  0  0
  -20.6550  -26.9990   22.6580 C   0  0  0  0  0  2  0  0  0  0  0  0
  -19.5520  -26.6820   21.6420 C   0  0  0  0  0  2  0  0  0  0  0  0
  -18.1710  -26.8370   22.2830 C   0  0  0  0  0  2  0  0  0  0  0  0
  -19.1270  -28.9450   23.3870 C   0  0  0  0  0  0  0  0  0  0  0  0
  -18.9140  -30.2090   23.9790 C   0  0  0  0  0  3  0  0  0  0  0  0
  -17.6120  -30.7170   24.1450 C   0  0  0  0  0  3  0  0  0  0  0  0
  -16.5040  -29.9590   23.7300 C   0  0  0  0  0  3  0  0  0  0  0  0
  -16.7000  -28.6960   23.1430 C   0  0  0  0  0  3  0  0  0  0  0  0
  -25.8970  -32.5450   23.8900 C   0  0  0  0  0  3  0  0  0  0  0  0
  -26.3980  -31.7760   25.1750 C   0  0  1  0  0  0  0  0  0  0  0  0
  -25.2950  -31.5510   26.2360 C   0  0  0  0  0  1  0  0  0  0  0  0
  -26.9760  -30.3940   24.7990 C   0  0  0  0  0  1  0  0  0  0  0  0
  -27.5480  -32.5680   25.8420 C   0  0  0  0  0  1  0  0  0  0  0  0
  -25.5880  -33.9460   24.2210 N   0  0  0  0  0  0  0  0  0  0  0  0
  -25.9010  -35.0010   23.4570 C   0  0  0  0  0  0  0  0  0  0  0  0
  -26.5440  -34.8970   22.4100 O   0  0  0  0  0  0  0  0  0  0  0  0
  -25.0130  -34.1010   25.0360 H   0  0  0  0  0  0  0  0  0  0  0  0
  -24.1500  -36.7860   23.1660 C   0  0  0  0  0  1  0  0  0  0  0  0
  -25.4270  -36.3910   23.9270 C   0  0  0  0  0  3  0  0  0  0  0  0
  -27.5860  -37.2980   24.6650 C   0  0  0  0  0  1  0  0  0  0  0  0
  -26.4470  -37.4490   23.7630 N   0  0  0  0  0  0  0  0  0  0  0  0
  -26.0420  -38.3690   23.9170 H   0  0  0  0  0  0  0  0  0  0  0  0
  2  1  1  0
  3  1  2  0
  4  6  2  0
  4  5  1  0
  5 15  1  0
  5  2  2  0
  6  3  1  0
  7 15  1  0
  8 13  1  0
  9 10  1  0
  9  8  1  0
 11 10  1  0
 11 20  1  0
 11 12  1  0
 13  7  1  0
 13 12  1  0
 14  7  2  0
 15 16  1  0
 17 18  2  0
 18 37  1  0
 19 18  1  0
 19 22  1  0
 20 21  1  0
 20 17  1  0
 21 19  2  0
 22 23  1  0
 23 24  2  0
 25 28  1  0
 25 24  1  0
 26 25  2  0
 27 26  1  0
 27 22  2  0
 28 29  1  0
 29 30  1  0
 30 31  2  0
 32 31  1  0
 32 36  1  0
 33 32  2  0
 34 29  2  0
 34 33  1  0
 35 34  1  0
 37 38  1  0
 38 41  1  0
 38 40  1  0
 39 37  2  0
 42 43  1  0
 42 17  1  0
 44 42  1  0
 45 46  1  0
 45  6  1  0
 47 48  1  0
 47 46  2  0
 49 60  2  0
 50 48  1  0
 50 55  1  0
 51 59  1  0
 51 61  1  0
 52 58  1  0
 52 54  1  0
 53 59  1  0
 54 55  2  0
 54 53  1  0
 56 50  2  0
 57 56  1  0
 57 52  2  0
 58 51  1  0
 59 49  1  0
 61 63  2  0
 62 61  1  0
 64 62  1  0
 65 74  2  0
 65 70  1  0
 66 62  1  0
 66 70  1  0
 67 66  1  0
 68 69  1  0
 68 67  1  0
 69 65  1  0
 70 71  2  0
 71 72  1  0
 73 72  2  0
 74 73  1  0
 75 49  1  0
 75 80  1  0
 75 76  1  0
 76 79  1  1
 76 77  1  0
 78 76  1  0
 80 83  1  0
 81 85  1  0
 81 80  1  0
 82 81  2  0
 85 84  1  0
 87 88  1  0
 87 85  1  0
 87 86  1  0
M  ISO  4   7 100  15 100  47 101  48 101
M  END
>  <TORSDO>  (17) 
F 19

>  <SCORE>  (17) 
-15.046

>  <name>  (17) 
16

>  <ligand_id>  (17) 
16

>  <original_smiles>  (17) 
[H]c1c([H])c(OC([H])([H])C([H])([H])Oc2c([H])c([H])c3c(c2[H])C([H])([H])N(C(=O)C([H])(N([H])C(=O)C([H])(N([H])C([H])([H])[H])C([H])([H])[H])C(C([H])([H])[H])(C([H])([H])[H])C([H])([H])[H])C([H])(C(=O)N([H])C2([H])c4c([H])c([H])c([H])c([H])c4C([H])([H])C([H])([H])C2([H])[H])C3([H])[H])c([H])c(N([H])C(=O)N2C([H])([H])C([H])([H])C([H])([H])C([H])(n3nc(-c4c([H])c([H])c(Oc5c([H])c([H])c(F)c([H])c5F)c([H])c4[H])c(C(=O)N([H])[H])c3N([H])[H])C2([H])[H])c1[H]

>  <smiles>  (17) 
[H]c1c([H])c(OC([H])([H])C([H])([H])Oc2c([H])c([H])c3c(c2[H])C([H])([H])N(C(=O)C([H])(N([H])C(=O)C([H])(N([H])C([H])([H])[H])C([H])([H])[H])C(C([H])([H])[H])(C([H])([H])[H])C([H])([H])[H])C([H])(C(=O)N([H])C2([H])c4c([H])c([H])c([H])c([H])c4C([H])([H])C([H])([H])C2([H])[H])C3([H])[H])c([H])c(N([H])C(=O)N2C([H])([H])C([H])([H])C([H])([H])C([H])(n3nc(-c4c([H])c([H])c(Oc5c([H])c([H])c(F)c([H])c5F)c([H])c4[H])c(C(=O)N([H])[H])c3N([H])[H])C2([H])[H])c1[H]

$$$$
17:0:0
     RDKit          3D

 84 91  0  0  1  0  0  0  0  0999 V2000
  -28.0360  -24.2690   20.5090 C   0  0  0  0  0  2  0  0  0  0  0  0
  -28.2220  -25.8810   20.2090 O   0  0  0  0  0  0  0  0  0  0  0  0
  -24.6160  -31.8370   23.1800 C   0  0  0  0  0  0  0  0  0  0  0  0
  -27.1870  -26.9520   20.2070 C   0  0  0  0  0  0  0  0  0  0  0  0
  -23.4240  -30.4230   21.5540 C   0  0  0  0  0  3  0  0  0  0  0  0
  -24.8760  -28.8110   20.1480 C   0  0  0  0  0  0  0  0  0  0  0  0
  -25.9900  -30.6480   21.3990 C   0  0  0  0  0  2  0  0  0  0  0  0
  -26.0650  -29.2330   20.7580 C   0  0  0  0  0  0  0  0  0  0  0  0
  -27.2180  -28.3250   20.7560 C   0  0  0  0  0  3  0  0  0  0  0  0
  -25.9650  -26.6750   19.5560 C   0  0  0  0  0  3  0  0  0  0  0  0
  -24.8500  -27.5530   19.5260 C   0  0  0  0  0  3  0  0  0  0  0  0
  -23.6540  -29.7270   20.1840 C   0  0  0  0  0  2  0  0  0  0  0  0
  -24.6980  -30.9970   22.0980 N   0  0  0  0  0  0  0  0  0  0  0  0
  -23.5260  -32.1260   23.7010 O   0  0  0  0  0  0  0  0  0  0  0  0
  -22.7360  -29.4330   22.5290 C   0  0  0  0  0  0  0  0  0  0  0  0
  -21.4040  -29.2710   22.4160 N   0  0  0  0  0  0  0  0  0  0  0  0
  -23.4070  -28.8080   23.3540 O   0  0  0  0  0  0  0  0  0  0  0  0
  -20.9170  -29.8260   21.7270 H   0  0  0  0  0  0  0  0  0  0  0  0
  -18.0230  -28.0690   22.9520 C   0  0  0  0  0  0  0  0  0  0  0  0
  -20.5850  -28.3390   23.1970 C   0  0  0  0  0  3  0  0  0  0  0  0
  -20.6840  -26.9040   22.6300 C   0  0  0  0  0  2  0  0  0  0  0  0
  -19.5750  -26.5740   21.6240 C   0  0  0  0  0  2  0  0  0  0  0  0
  -18.1970  -26.7180   22.2770 C   0  0  0  0  0  2  0  0  0  0  0  0
  -19.1440  -28.8370   23.3690 C   0  0  0  0  0  0  0  0  0  0  0  0
  -18.9240  -30.0980   23.9630 C   0  0  0  0  0  3  0  0  0  0  0  0
  -17.6200  -30.5940   24.1420 C   0  0  0  0  0  3  0  0  0  0  0  0
  -16.5140  -29.8250   23.7380 C   0  0  0  0  0  3  0  0  0  0  0  0
  -16.7170  -28.5640   23.1490 C   0  0  0  0  0  3  0  0  0  0  0  0
  -25.8860  -32.4890   23.8060 C   0  0  0  0  0  3  0  0  0  0  0  0
  -26.4090  -31.7230   25.0840 C   0  0  1  0  0  0  0  0  0  0  0  0
  -25.3200  -31.4800   26.1550 C   0  0  0  0  0  1  0  0  0  0  0  0
  -27.0000  -30.3470   24.6990 C   0  0  0  0  0  1  0  0  0  0  0  0
  -27.5570  -32.5240   25.7410 C   0  0  0  0  0  1  0  0  0  0  0  0
  -25.5550  -33.8830   24.1530 N   0  0  0  0  0  0  0  0  0  0  0  0
  -25.8660  -34.9530   23.4100 C   0  0  0  0  0  0  0  0  0  0  0  0
  -26.5250  -34.8730   22.3700 O   0  0  0  0  0  0  0  0  0  0  0  0
  -24.9660  -34.0180   24.9610 H   0  0  0  0  0  0  0  0  0  0  0  0
  -24.1090  -36.7340   23.1180 C   0  0  0  0  0  1  0  0  0  0  0  0
  -25.3720  -36.3320   23.8960 C   0  0  0  0  0  3  0  0  0  0  0  0
  -27.5150  -37.2360   24.6870 C   0  0  0  0  0  1  0  0  0  0  0  0
  -26.3890  -37.4000   23.7720 N   0  0  0  0  0  0  0  0  0  0  0  0
  -25.9750  -38.3130   23.9390 H   0  0  0  0  0  0  0  0  0  0  0  0
  -28.7190  -22.6990   19.9240 C   0  0  0  0  0  2  0  0  0  0  0  0
  -28.9900  -21.2170   20.5850 O   0  0  0  0  0  0  0  0  0  0  0  0
  -29.0780  -19.6810   19.9990 C   0  0  0  0  0  2  0  0  0  0  0  0
  -29.8810  -18.1670   20.5600 C   0  0  0  0  0  2  0  0  0  0  0  0
  -30.3820  -15.2640   20.2540 C   0  0  0  0  0  0  0  0  0  0  0  0
  -30.3490  -12.8260   19.3660 C   0  0  0  0  0  2  0  0  0  0  0  0
  -29.4210  -12.6110   18.1440 C   0  0  0  0  0  2  0  0  0  0  0  0
  -27.9740  -12.3490   18.5940 C   0  0  0  0  0  2  0  0  0  0  0  0
  -27.5290  -13.3180   19.7180 C   0  0  0  0  0  3  0  0  0  0  0  0
  -28.5830  -13.4670   20.8330 C   0  0  0  0  0  2  0  0  0  0  0  0
  -29.8060  -13.9670   20.1860 N   0  0  0  0  0  0  0  0  0  0  0  0
  -31.6080  -15.2630   20.0800 O   0  0  0  0  0  0  0  0  0  0  0  0
  -29.6180  -16.5330   20.3180 N   0  0  0  0  0  0  0  0  0  0  0  0
  -28.6290  -16.3280   20.3210 H   0  0  0  0  0  0  0  0  0  0  0  0
  -25.1610  -13.8840   20.4750 C   0  0  0  0  0  0  0  0  0  0  0  0
  -24.0990  -13.1090   20.8510 C   0  0  0  0  0  0  0  0  0  0  0  0
  -24.5680  -11.7590   20.8280 C   0  0  0  0  0  0  0  0  0  0  0  0
  -26.2030  -13.0060   20.2350 N   0  0  0  0  0  0  0  0  0  0  0  0
  -25.8590  -11.7220   20.5170 N   0  0  0  0  0  0  0  0  0  0  0  0
  -23.8400  -10.4970   21.0260 C   0  0  0  0  0  0  0  0  0  0  0  0
  -24.2820   -9.5240   21.9500 C   0  0  0  0  0  3  0  0  0  0  0  0
  -23.5520   -8.3310   22.1370 C   0  0  0  0  0  3  0  0  0  0  0  0
  -22.3660   -8.1010   21.4000 C   0  0  0  0  0  0  0  0  0  0  0  0
  -21.9430   -9.0620   20.4650 C   0  0  0  0  0  3  0  0  0  0  0  0
  -22.6730  -10.2470   20.2760 C   0  0  0  0  0  3  0  0  0  0  0  0
  -21.6060   -6.9600   21.4960 O   0  0  0  0  0  0  0  0  0  0  0  0
  -21.5890   -6.2020   22.6400 C   0  0  0  0  0  0  0  0  0  0  0  0
  -21.2240   -6.7480   23.8900 C   0  0  0  0  0  3  0  0  0  0  0  0
  -21.1520   -5.9180   25.0260 C   0  0  0  0  0  3  0  0  0  0  0  0
  -21.4340   -4.5440   24.9150 C   0  0  0  0  0  0  0  0  0  0  0  0
  -21.7920   -3.9970   23.6700 C   0  0  0  0  0  3  0  0  0  0  0  0
  -21.8660   -4.8250   22.5350 C   0  0  0  0  0  0  0  0  0  0  0  0
  -22.1910   -4.2890   21.3340 F   0  0  0  0  0  0  0  0  0  0  0  0
  -21.3580   -3.7440   26.0040 F   0  0  0  0  0  0  0  0  0  0  0  0
  -22.7020  -13.5880   21.1150 C   0  0  0  0  0  0  0  0  0  0  0  0
  -21.9740  -12.9020   21.9880 N   0  0  0  0  0  0  0  0  0  0  0  0
  -22.2660  -14.6070   20.5800 O   0  0  0  0  0  0  0  0  0  0  0  0
  -22.3410  -12.0790   22.4420 H   0  0  0  0  0  0  0  0  0  0  0  0
  -21.0360  -13.2060   22.2080 H   0  0  0  0  0  0  0  0  0  0  0  0
  -25.3200  -15.2530   20.2870 N   0  0  0  0  0  0  0  0  0  0  0  0
  -24.5470  -15.9020   20.3920 H   0  0  0  0  0  0  0  0  0  0  0  0
  -26.1550  -15.6900   19.9190 H   0  0  0  0  0  0  0  0  0  0  0  0
  2  1  1  0
  3 14  2  0
  4  2  1  0
  4  9  1  0
  5 13  1  0
  5 15  1  0
  6 12  1  0
  6  8  1  0
  7 13  1  0
  8  7  1  0
  9  8  2  0
 10  4  2  0
 11 10  1  0
 11  6  2  0
 12  5  1  0
 13  3  1  0
 15 17  2  0
 16 15  1  0
 18 16  1  0
 19 28  2  0
 19 24  1  0
 20 16  1  0
 20 24  1  0
 21 20  1  0
 22 23  1  0
 22 21  1  0
 23 19  1  0
 24 25  2  0
 25 26  1  0
 27 26  2  0
 28 27  1  0
 29  3  1  0
 29 34  1  0
 29 30  1  0
 30 33  1  1
 30 31  1  0
 32 30  1  0
 34 37  1  0
 35 39  1  0
 35 34  1  0
 36 35  2  0
 39 38  1  0
 41 39  1  0
 41 42  1  0
 41 40  1  0
 43  1  1  0
 43 44  1  0
 45 46  1  0
 45 44  1  0
 47 55  1  0
 48 53  1  0
 49 50  1  0
 49 48  1  0
 51 50  1  0
 51 60  1  0
 51 52  1  0
 53 47  1  0
 53 52  1  0
 54 47  2  0
 55 56  1  0
 55 46  1  0
 57 58  2  0
 58 77  1  0
 59 58  1  0
 59 62  1  0
 60 57  1  0
 60 61  1  0
 61 59  2  0
 62 63  1  0
 63 64  2  0
 65 68  1  0
 65 64  1  0
 66 65  2  0
 67 66  1  0
 67 62  2  0
 68 69  1  0
 69 70  1  0
 70 71  2  0
 72 71  1  0
 72 76  1  0
 73 72  2  0
 74 69  2  0
 74 73  1  0
 75 74  1  0
 77 78  1  0
 78 81  1  0
 78 80  1  0
 79 77  2  0
 82 83  1  0
 82 57  1  0
 84 82  1  0
M  ISO  4   1 101   2 101  47 100  55 100
M  END
>  <TORSDO>  (18) 
F 20

>  <SCORE>  (18) 
-15.761

>  <name>  (18) 
17

>  <ligand_id>  (18) 
17

>  <original_smiles>  (18) 
[H]c1c([H])c([H])c2c(c1[H])C([H])([H])C([H])([H])C([H])([H])C2([H])N([H])C(=O)C1([H])N(C(=O)C([H])(N([H])C(=O)C([H])(N([H])C([H])([H])[H])C([H])([H])[H])C(C([H])([H])[H])(C([H])([H])[H])C([H])([H])[H])C([H])([H])c2c([H])c(OC([H])([H])C([H])([H])OC([H])([H])C([H])([H])N([H])C(=O)N3C([H])([H])C([H])([H])C([H])([H])C([H])(n4nc(-c5c([H])c([H])c(Oc6c([H])c([H])c(F)c([H])c6F)c([H])c5[H])c(C(=O)N([H])[H])c4N([H])[H])C3([H])[H])c([H])c([H])c2C1([H])[H]

>  <smiles>  (18) 
[H]c1c([H])c([H])c2c(c1[H])C([H])([H])C([H])([H])C([H])([H])C2([H])N([H])C(=O)C1([H])N(C(=O)C([H])(N([H])C(=O)C([H])(N([H])C([H])([H])[H])C([H])([H])[H])C(C([H])([H])[H])(C([H])([H])[H])C([H])([H])[H])C([H])([H])c2c([H])c(OC([H])([H])C([H])([H])OC([H])([H])C([H])([H])N([H])C(=O)N3C([H])([H])C([H])([H])C([H])([H])C([H])(n4nc(-c5c([H])c([H])c(Oc6c([H])c([H])c(F)c([H])c6F)c([H])c5[H])c(C(=O)N([H])[H])c4N([H])[H])C3([H])[H])c([H])c([H])c2C1([H])[H]

$$$$
18:0:0
     RDKit          3D

 85 93  0  0  1  0  0  0  0  0999 V2000
  -30.2630  -15.7370   20.3130 C   0  0  0  0  0  0  0  0  0  0  0  0
  -30.4260  -13.1580   19.5500 C   0  0  0  0  0  2  0  0  0  0  0  0
  -29.5630  -12.6940   18.3380 C   0  0  0  0  0  2  0  0  0  0  0  0
  -28.1390  -12.3250   18.7770 C   0  0  0  0  0  2  0  0  0  0  0  0
  -27.5950  -13.3430   19.8030 C   0  0  0  0  0  3  0  0  0  0  0  0
  -28.6010  -13.7070   20.9230 C   0  0  0  0  0  2  0  0  0  0  0  0
  -29.7700  -14.3500   20.2690 N   0  0  0  0  0  0  0  0  0  0  0  0
  -31.5020  -15.6780   20.1600 O   0  0  0  0  0  0  0  0  0  0  0  0
  -30.0020  -21.3580   20.1200 C   0  0  0  0  0  3  0  0  0  0  0  0
  -28.6970  -21.9610   20.2020 C   0  0  0  0  0  0  0  0  0  0  0  0
  -29.3680  -18.8340   20.2890 C   0  0  0  0  0  0  0  0  0  0  0  0
  -30.3190  -19.8540   20.1730 N   0  0  0  0  0  0  0  0  0  0  0  0
  -29.4480  -17.0850   20.3490 N   0  0  0  0  0  0  0  0  0  0  0  0
  -27.8960  -20.1700   20.3450 S   0  0  0  0  0  0  0  0  0  0  0  0
  -28.4950  -16.7670   20.4400 H   0  0  0  0  0  0  0  0  0  0  0  0
  -25.2210  -13.8610   20.5320 C   0  0  0  0  0  0  0  0  0  0  0  0
  -24.1610  -13.0770   20.8910 C   0  0  0  0  0  0  0  0  0  0  0  0
  -24.6420  -11.7300   20.8760 C   0  0  0  0  0  0  0  0  0  0  0  0
  -26.2740  -12.9970   20.3090 N   0  0  0  0  0  0  0  0  0  0  0  0
  -25.9400  -11.7080   20.5830 N   0  0  0  0  0  0  0  0  0  0  0  0
  -23.9200  -10.4640   21.0620 C   0  0  0  0  0  0  0  0  0  0  0  0
  -24.3490   -9.4960   21.9960 C   0  0  0  0  0  3  0  0  0  0  0  0
  -23.6220   -8.3000   22.1730 C   0  0  0  0  0  3  0  0  0  0  0  0
  -22.4500   -8.0620   21.4170 C   0  0  0  0  0  0  0  0  0  0  0  0
  -22.0380   -9.0180   20.4720 C   0  0  0  0  0  3  0  0  0  0  0  0
  -22.7660  -10.2060   20.2930 C   0  0  0  0  0  3  0  0  0  0  0  0
  -21.6940   -6.9170   21.5040 O   0  0  0  0  0  0  0  0  0  0  0  0
  -21.6540   -6.1660   22.6520 C   0  0  0  0  0  0  0  0  0  0  0  0
  -21.2540   -6.7160   23.8880 C   0  0  0  0  0  3  0  0  0  0  0  0
  -21.1600   -5.8930   25.0280 C   0  0  0  0  0  3  0  0  0  0  0  0
  -21.4560   -4.5200   24.9320 C   0  0  0  0  0  0  0  0  0  0  0  0
  -21.8500   -3.9690   23.7000 C   0  0  0  0  0  3  0  0  0  0  0  0
  -21.9450   -4.7900   22.5620 C   0  0  0  0  0  0  0  0  0  0  0  0
  -22.3040   -4.2490   21.3730 F   0  0  0  0  0  0  0  0  0  0  0  0
  -21.3600   -3.7270   26.0240 F   0  0  0  0  0  0  0  0  0  0  0  0
  -22.7560  -13.5460   21.1270 C   0  0  0  0  0  0  0  0  0  0  0  0
  -22.0200  -12.8600   21.9930 N   0  0  0  0  0  0  0  0  0  0  0  0
  -22.3230  -14.5590   20.5790 O   0  0  0  0  0  0  0  0  0  0  0  0
  -22.3850  -12.0420   22.4560 H   0  0  0  0  0  0  0  0  0  0  0  0
  -21.0750  -13.1580   22.1940 H   0  0  0  0  0  0  0  0  0  0  0  0
  -25.3700  -15.2320   20.3420 N   0  0  0  0  0  0  0  0  0  0  0  0
  -24.5860  -15.8710   20.4210 H   0  0  0  0  0  0  0  0  0  0  0  0
  -26.1960  -15.6670   19.9560 H   0  0  0  0  0  0  0  0  0  0  0  0
  -27.8590  -23.6720   20.0430 C   0  0  0  0  0  2  0  0  0  0  0  0
  -28.1690  -25.4170   20.2240 O   0  0  0  0  0  0  0  0  0  0  0  0
  -24.7130  -31.8200   23.1160 C   0  0  0  0  0  0  0  0  0  0  0  0
  -27.2240  -26.6730   20.1580 C   0  0  0  0  0  0  0  0  0  0  0  0
  -23.5220  -30.4140   21.4890 C   0  0  0  0  0  3  0  0  0  0  0  0
  -24.9650  -28.7460   20.0880 C   0  0  0  0  0  0  0  0  0  0  0  0
  -26.1040  -30.5350   21.3710 C   0  0  0  0  0  2  0  0  0  0  0  0
  -26.1640  -29.0930   20.7230 C   0  0  0  0  0  0  0  0  0  0  0  0
  -27.2750  -28.0860   20.7240 C   0  0  0  0  0  3  0  0  0  0  0  0
  -25.9910  -26.5540   19.4630 C   0  0  0  0  0  3  0  0  0  0  0  0
  -24.9210  -27.5030   19.4330 C   0  0  0  0  0  3  0  0  0  0  0  0
  -23.7620  -29.7050   20.1250 C   0  0  0  0  0  2  0  0  0  0  0  0
  -24.8050  -30.9580   22.0430 N   0  0  0  0  0  0  0  0  0  0  0  0
  -23.6190  -32.1280   23.6220 O   0  0  0  0  0  0  0  0  0  0  0  0
  -22.7990  -29.4490   22.4680 C   0  0  0  0  0  0  0  0  0  0  0  0
  -21.4630  -29.3130   22.3570 N   0  0  0  0  0  0  0  0  0  0  0  0
  -23.4530  -28.8190   23.3020 O   0  0  0  0  0  0  0  0  0  0  0  0
  -20.9840  -29.8720   21.6650 H   0  0  0  0  0  0  0  0  0  0  0  0
  -18.0650  -28.1420   22.9080 C   0  0  0  0  0  0  0  0  0  0  0  0
  -20.6310  -28.3880   23.1390 C   0  0  0  0  0  3  0  0  0  0  0  0
  -20.7110  -26.9530   22.5660 C   0  0  0  0  0  2  0  0  0  0  0  0
  -19.5940  -26.6420   21.5640 C   0  0  0  0  0  2  0  0  0  0  0  0
  -18.2220  -26.7950   22.2240 C   0  0  0  0  0  2  0  0  0  0  0  0
  -19.1950  -28.8970   23.3240 C   0  0  0  0  0  0  0  0  0  0  0  0
  -18.9900  -30.1550   23.9310 C   0  0  0  0  0  3  0  0  0  0  0  0
  -17.6900  -30.6610   24.1220 C   0  0  0  0  0  3  0  0  0  0  0  0
  -16.5750  -29.9050   23.7190 C   0  0  0  0  0  3  0  0  0  0  0  0
  -16.7640  -28.6470   23.1190 C   0  0  0  0  0  3  0  0  0  0  0  0
  -25.9750  -32.4740   23.7530 C   0  0  0  0  0  3  0  0  0  0  0  0
  -25.6410  -33.8660   24.1180 N   0  0  0  0  0  0  0  0  0  0  0  0
  -25.9470  -34.9510   23.3920 C   0  0  0  0  0  0  0  0  0  0  0  0
  -26.5960  -34.8860   22.3450 O   0  0  0  0  0  0  0  0  0  0  0  0
  -25.0590  -33.9880   24.9330 H   0  0  0  0  0  0  0  0  0  0  0  0
  -24.1850  -36.7390   23.1540 C   0  0  0  0  0  1  0  0  0  0  0  0
  -25.4620  -36.3250   23.9050 C   0  0  0  0  0  3  0  0  0  0  0  0
  -27.6160  -37.2240   24.6740 C   0  0  0  0  0  1  0  0  0  0  0  0
  -26.4760  -37.3960   23.7780 N   0  0  0  0  0  0  0  0  0  0  0  0
  -26.0620  -38.3060   23.9620 H   0  0  0  0  0  0  0  0  0  0  0  0
  -26.4940  -31.7000   25.0290 C   0  0  1  0  0  0  0  0  0  0  0  0
  -25.4020  -31.4580   26.0990 C   0  0  0  0  0  1  0  0  0  0  0  0
  -27.0800  -30.3240   24.6460 C   0  0  0  0  0  1  0  0  0  0  0  0
  -27.6430  -32.4960   25.6930 C   0  0  0  0  0  1  0  0  0  0  0  0
  1 13  1  0
  2  7  1  0
  3  4  1  0
  3  2  1  0
  5  4  1  0
  5 19  1  0
  5  6  1  0
  7  1  1  0
  7  6  1  0
  8  1  2  0
  9 12  1  0
  9 10  2  0
 10 14  1  0
 11 14  1  0
 11 13  1  0
 12 11  2  0
 13 15  1  0
 16 17  2  0
 17 36  1  0
 18 17  1  0
 18 21  1  0
 19 16  1  0
 19 20  1  0
 20 18  2  0
 21 22  1  0
 22 23  2  0
 24 27  1  0
 24 23  1  0
 25 24  2  0
 26 25  1  0
 26 21  2  0
 27 28  1  0
 28 29  1  0
 29 30  2  0
 31 30  1  0
 31 35  1  0
 32 31  2  0
 33 28  2  0
 33 32  1  0
 34 33  1  0
 36 37  1  0
 37 40  1  0
 37 39  1  0
 38 36  2  0
 41 42  1  0
 41 16  1  0
 43 41  1  0
 44 10  1  0
 44 45  1  0
 46 57  2  0
 47 45  1  0
 47 52  1  0
 48 56  1  0
 48 58  1  0
 49 55  1  0
 49 51  1  0
 50 56  1  0
 51 52  2  0
 51 50  1  0
 53 47  2  0
 54 53  1  0
 54 49  2  0
 55 48  1  0
 56 46  1  0
 58 60  2  0
 59 58  1  0
 61 59  1  0
 62 71  2  0
 62 67  1  0
 63 59  1  0
 63 67  1  0
 64 63  1  0
 65 66  1  0
 65 64  1  0
 66 62  1  0
 67 68  2  0
 68 69  1  0
 70 69  2  0
 71 70  1  0
 72 46  1  0
 72 73  1  0
 72 82  1  0
 73 76  1  0
 74 78  1  0
 74 73  1  0
 75 74  2  0
 78 77  1  0
 80 78  1  0
 80 81  1  0
 80 79  1  0
 82 85  1  1
 82 83  1  0
 84 82  1  0
M  ISO  4   1 100  13 100  44 101  45 101
M  END
>  <TORSDO>  (19) 
F 16

>  <SCORE>  (19) 
-16.127

>  <name>  (19) 
18

>  <ligand_id>  (19) 
18

>  <original_smiles>  (19) 
[H]c1nc(N([H])C(=O)N2C([H])([H])C([H])([H])C([H])([H])C([H])(n3nc(-c4c([H])c([H])c(Oc5c([H])c([H])c(F)c([H])c5F)c([H])c4[H])c(C(=O)N([H])[H])c3N([H])[H])C2([H])[H])sc1C([H])([H])Oc1c([H])c([H])c2c(c1[H])C([H])([H])N(C(=O)C([H])(N([H])C(=O)C([H])(N([H])C([H])([H])[H])C([H])([H])[H])C(C([H])([H])[H])(C([H])([H])[H])C([H])([H])[H])C([H])(C(=O)N([H])C1([H])c3c([H])c([H])c([H])c([H])c3C([H])([H])C([H])([H])C1([H])[H])C2([H])[H]

>  <smiles>  (19) 
[H]c1nc(N([H])C(=O)N2C([H])([H])C([H])([H])C([H])([H])C([H])(n3nc(-c4c([H])c([H])c(Oc5c([H])c([H])c(F)c([H])c5F)c([H])c4[H])c(C(=O)N([H])[H])c3N([H])[H])C2([H])[H])sc1C([H])([H])Oc1c([H])c([H])c2c(c1[H])C([H])([H])N(C(=O)C([H])(N([H])C(=O)C([H])(N([H])C([H])([H])[H])C([H])([H])[H])C(C([H])([H])[H])(C([H])([H])[H])C([H])([H])[H])C([H])(C(=O)N([H])C1([H])c3c([H])c([H])c([H])c([H])c3C([H])([H])C([H])([H])C1([H])[H])C2([H])[H]

$$$$
19:0:0
     RDKit          3D

 85 92  0  0  1  0  0  0  0  0999 V2000
  -29.0090  -23.3980   20.4580 C   0  0  0  0  0  3  0  0  0  0  0  0
  -29.4200  -20.6090   20.3790 C   0  0  0  0  0  3  0  0  0  0  0  0
  -28.6290  -21.7910   20.4220 C   0  0  0  0  0  3  0  0  0  0  0  0
  -29.0320  -19.0050   20.3960 C   0  0  0  0  0  3  0  0  0  0  0  0
  -30.1260  -17.7150   20.4050 C   0  0  0  0  0  3  0  0  0  0  0  0
  -30.5120  -14.9900   20.3220 C   0  0  0  0  0  0  0  0  0  0  0  0
  -30.3770  -12.6490   19.3600 C   0  0  0  0  0  2  0  0  0  0  0  0
  -29.4300  -12.6150   18.1370 C   0  0  0  0  0  2  0  0  0  0  0  0
  -27.9700  -12.4010   18.5850 C   0  0  0  0  0  2  0  0  0  0  0  0
  -27.5770  -13.3160   19.7750 C   0  0  0  0  0  3  0  0  0  0  0  0
  -28.6450  -13.3180   20.8890 C   0  0  0  0  0  2  0  0  0  0  0  0
  -29.9080  -13.7350   20.2670 N   0  0  0  0  0  0  0  0  0  0  0  0
  -31.7120  -15.0530   20.0410 O   0  0  0  0  0  0  0  0  0  0  0  0
  -29.7450  -16.1790   20.4800 N   0  0  0  0  0  0  0  0  0  0  0  0
  -28.7670  -16.0020   20.6550 H   0  0  0  0  0  0  0  0  0  0  0  0
  -25.2020  -13.8790   20.5410 C   0  0  0  0  0  0  0  0  0  0  0  0
  -24.1450  -13.0980   20.9140 C   0  0  0  0  0  0  0  0  0  0  0  0
  -24.6140  -11.7490   20.8710 C   0  0  0  0  0  0  0  0  0  0  0  0
  -26.2470  -13.0080   20.2850 N   0  0  0  0  0  0  0  0  0  0  0  0
  -25.9030  -11.7200   20.5500 N   0  0  0  0  0  0  0  0  0  0  0  0
  -23.8950  -10.4820   21.0580 C   0  0  0  0  0  0  0  0  0  0  0  0
  -24.3360   -9.5090   21.9820 C   0  0  0  0  0  3  0  0  0  0  0  0
  -23.6140   -8.3090   22.1580 C   0  0  0  0  0  3  0  0  0  0  0  0
  -22.4370   -8.0720   21.4090 C   0  0  0  0  0  0  0  0  0  0  0  0
  -22.0150   -9.0330   20.4730 C   0  0  0  0  0  3  0  0  0  0  0  0
  -22.7360  -10.2260   20.2960 C   0  0  0  0  0  3  0  0  0  0  0  0
  -21.6860   -6.9240   21.4940 O   0  0  0  0  0  0  0  0  0  0  0  0
  -21.6470   -6.1740   22.6420 C   0  0  0  0  0  0  0  0  0  0  0  0
  -21.2160   -6.7170   23.8730 C   0  0  0  0  0  3  0  0  0  0  0  0
  -21.1250   -5.8930   25.0120 C   0  0  0  0  0  3  0  0  0  0  0  0
  -21.4540   -4.5270   24.9220 C   0  0  0  0  0  0  0  0  0  0  0  0
  -21.8790   -3.9850   23.6970 C   0  0  0  0  0  3  0  0  0  0  0  0
  -21.9720   -4.8060   22.5590 C   0  0  0  0  0  0  0  0  0  0  0  0
  -22.3600   -4.2730   21.3760 F   0  0  0  0  0  0  0  0  0  0  0  0
  -21.3590   -3.7320   26.0140 F   0  0  0  0  0  0  0  0  0  0  0  0
  -22.7480  -13.5670   21.1970 C   0  0  0  0  0  0  0  0  0  0  0  0
  -22.0300  -12.8660   22.0670 N   0  0  0  0  0  0  0  0  0  0  0  0
  -22.3010  -14.5900   20.6790 O   0  0  0  0  0  0  0  0  0  0  0  0
  -22.4060  -12.0360   22.5040 H   0  0  0  0  0  0  0  0  0  0  0  0
  -21.0930  -13.1620   22.2990 H   0  0  0  0  0  0  0  0  0  0  0  0
  -25.3560  -15.2520   20.3710 N   0  0  0  0  0  0  0  0  0  0  0  0
  -24.5860  -15.9000   20.4940 H   0  0  0  0  0  0  0  0  0  0  0  0
  -26.1900  -15.6960   20.0090 H   0  0  0  0  0  0  0  0  0  0  0  0
  -27.9670  -24.6820   20.1230 C   0  0  0  0  0  3  0  0  0  0  0  0
  -28.2420  -26.2080   20.2850 O   0  0  0  0  0  0  0  0  0  0  0  0
  -24.6330  -31.9020   23.2570 C   0  0  0  0  0  0  0  0  0  0  0  0
  -27.1880  -27.1900   20.2130 C   0  0  0  0  0  0  0  0  0  0  0  0
  -23.4240  -30.5150   21.6150 C   0  0  0  0  0  3  0  0  0  0  0  0
  -24.8650  -28.9400   20.1830 C   0  0  0  0  0  0  0  0  0  0  0  0
  -25.9780  -30.7740   21.4450 C   0  0  0  0  0  2  0  0  0  0  0  0
  -26.0460  -29.3830   20.7920 C   0  0  0  0  0  0  0  0  0  0  0  0
  -27.2090  -28.5230   20.7900 C   0  0  0  0  0  3  0  0  0  0  0  0
  -25.9810  -26.8500   19.5630 C   0  0  0  0  0  3  0  0  0  0  0  0
  -24.8450  -27.6880   19.5530 C   0  0  0  0  0  3  0  0  0  0  0  0
  -23.6400  -29.8400   20.2340 C   0  0  0  0  0  2  0  0  0  0  0  0
  -24.6990  -31.0850   22.1610 N   0  0  0  0  0  0  0  0  0  0  0  0
  -23.5490  -32.1890   23.7870 O   0  0  0  0  0  0  0  0  0  0  0  0
  -22.7440  -29.5080   22.5760 C   0  0  0  0  0  0  0  0  0  0  0  0
  -21.4160  -29.3400   22.4480 N   0  0  0  0  0  0  0  0  0  0  0  0
  -23.4150  -28.8790   23.4000 O   0  0  0  0  0  0  0  0  0  0  0  0
  -20.9330  -29.8990   21.7590 H   0  0  0  0  0  0  0  0  0  0  0  0
  -18.0320  -28.1460   22.9430 C   0  0  0  0  0  0  0  0  0  0  0  0
  -20.5910  -28.4050   23.2170 C   0  0  0  0  0  3  0  0  0  0  0  0
  -20.6930  -26.9730   22.6440 C   0  0  0  0  0  2  0  0  0  0  0  0
  -19.5930  -26.6500   21.6260 C   0  0  0  0  0  2  0  0  0  0  0  0
  -18.2090  -26.7960   22.2660 C   0  0  0  0  0  2  0  0  0  0  0  0
  -19.1510  -28.9070   23.3750 C   0  0  0  0  0  0  0  0  0  0  0  0
  -18.9310  -30.1690   23.9690 C   0  0  0  0  0  3  0  0  0  0  0  0
  -17.6260  -30.6710   24.1330 C   0  0  0  0  0  3  0  0  0  0  0  0
  -16.5220  -29.9060   23.7170 C   0  0  0  0  0  3  0  0  0  0  0  0
  -16.7260  -28.6460   23.1280 C   0  0  0  0  0  3  0  0  0  0  0  0
  -25.9150  -32.5310   23.8840 C   0  0  0  0  0  3  0  0  0  0  0  0
  -26.4220  -31.7550   25.1630 C   0  0  1  0  0  0  0  0  0  0  0  0
  -25.3250  -31.5270   26.2280 C   0  0  0  0  0  1  0  0  0  0  0  0
  -26.9980  -30.3750   24.7760 C   0  0  0  0  0  1  0  0  0  0  0  0
  -27.5770  -32.5430   25.8280 C   0  0  0  0  0  1  0  0  0  0  0  0
  -25.6100  -33.9290   24.2210 N   0  0  0  0  0  0  0  0  0  0  0  0
  -25.9200  -34.9850   23.4570 C   0  0  0  0  0  0  0  0  0  0  0  0
  -26.5630  -34.8840   22.4090 O   0  0  0  0  0  0  0  0  0  0  0  0
  -25.0400  -34.0830   25.0410 H   0  0  0  0  0  0  0  0  0  0  0  0
  -24.1680  -36.7690   23.1750 C   0  0  0  0  0  1  0  0  0  0  0  0
  -25.4450  -36.3730   23.9330 C   0  0  0  0  0  3  0  0  0  0  0  0
  -27.6070  -37.2750   24.6690 C   0  0  0  0  0  1  0  0  0  0  0  0
  -26.4660  -37.4320   23.7710 N   0  0  0  0  0  0  0  0  0  0  0  0
  -26.0610  -38.3510   23.9320 H   0  0  0  0  0  0  0  0  0  0  0  0
  2  4  1  0
  2  3  2  0
  3  1  1  0
  4  5  2  0
  5 14  1  0
  6 14  1  0
  7 12  1  0
  8  9  1  0
  8  7  1  0
 10  9  1  0
 10 19  1  0
 10 11  1  0
 12  6  1  0
 12 11  1  0
 13  6  2  0
 14 15  1  0
 16 17  2  0
 17 36  1  0
 18 17  1  0
 18 21  1  0
 19 16  1  0
 19 20  1  0
 20 18  2  0
 21 22  1  0
 22 23  2  0
 24 27  1  0
 24 23  1  0
 25 24  2  0
 26 25  1  0
 26 21  2  0
 27 28  1  0
 28 29  1  0
 29 30  2  0
 31 30  1  0
 31 35  1  0
 32 31  2  0
 33 28  2  0
 33 32  1  0
 34 33  1  0
 36 37  1  0
 37 40  1  0
 37 39  1  0
 38 36  2  0
 41 42  1  0
 41 16  1  0
 43 41  1  0
 44 45  1  0
 44  1  2  0
 46 57  2  0
 47 45  1  0
 47 52  1  0
 48 56  1  0
 48 58  1  0
 49 55  1  0
 49 51  1  0
 50 56  1  0
 51 50  1  0
 52 51  2  0
 53 47  2  0
 54 53  1  0
 54 49  2  0
 55 48  1  0
 56 46  1  0
 58 60  2  0
 59 58  1  0
 61 59  1  0
 62 71  2  0
 62 67  1  0
 63 59  1  0
 63 67  1  0
 64 63  1  0
 65 66  1  0
 65 64  1  0
 66 62  1  0
 67 68  2  0
 68 69  1  0
 70 69  2  0
 71 70  1  0
 72 46  1  0
 72 77  1  0
 72 73  1  0
 73 76  1  1
 73 74  1  0
 75 73  1  0
 77 80  1  0
 78 82  1  0
 78 77  1  0
 79 78  2  0
 82 81  1  0
 84 85  1  0
 84 82  1  0
 84 83  1  0
M  ISO  4   6 100  14 100  44 101  45 101
M  END
>  <TORSDO>  (20) 
F 20

>  <SCORE>  (20) 
-13.549

>  <name>  (20) 
19

>  <ligand_id>  (20) 
19

>  <original_smiles>  (20) 
[H]C(=C([H])C([H])([H])C([H])([H])N([H])C(=O)N1C([H])([H])C([H])([H])C([H])([H])C([H])(n2nc(-c3c([H])c([H])c(Oc4c([H])c([H])c(F)c([H])c4F)c([H])c3[H])c(C(=O)N([H])[H])c2N([H])[H])C1([H])[H])C([H])([H])C([H])([H])Oc1c([H])c([H])c2c(c1[H])C([H])([H])N(C(=O)C([H])(N([H])C(=O)C([H])(N([H])C([H])([H])[H])C([H])([H])[H])C(C([H])([H])[H])(C([H])([H])[H])C([H])([H])[H])C([H])(C(=O)N([H])C1([H])c3c([H])c([H])c([H])c([H])c3C([H])([H])C([H])([H])C1([H])[H])C2([H])[H]

>  <smiles>  (20) 
[H]C(=C([H])C([H])([H])C([H])([H])N([H])C(=O)N1C([H])([H])C([H])([H])C([H])([H])C([H])(n2nc(-c3c([H])c([H])c(Oc4c([H])c([H])c(F)c([H])c4F)c([H])c3[H])c(C(=O)N([H])[H])c2N([H])[H])C1([H])[H])C([H])([H])C([H])([H])Oc1c([H])c([H])c2c(c1[H])C([H])([H])N(C(=O)C([H])(N([H])C(=O)C([H])(N([H])C([H])([H])[H])C([H])([H])[H])C(C([H])([H])[H])(C([H])([H])[H])C([H])([H])[H])C([H])(C(=O)N([H])C1([H])c3c([H])c([H])c([H])c([H])c3C([H])([H])C([H])([H])C1([H])[H])C2([H])[H]

$$$$
20:0:0
     RDKit          3D

 80 83  0  0  1  0  0  0  0  0999 V2000
  -24.7310  -31.7630   23.0940 C   0  0  0  0  0  0  0  0  0  0  0  0
  -27.2120  -26.2370   20.1170 C   0  0  0  0  0  0  0  0  0  0  0  0
  -23.5510  -30.3570   21.4670 C   0  0  0  0  0  3  0  0  0  0  0  0
  -24.9920  -28.6060   20.0730 C   0  0  0  0  0  0  0  0  0  0  0  0
  -26.1490  -30.3450   21.3880 C   0  0  0  0  0  2  0  0  0  0  0  0
  -26.2020  -28.8580   20.7260 C   0  0  0  0  0  0  0  0  0  0  0  0
  -27.2670  -27.7230   20.7010 C   0  0  0  0  0  3  0  0  0  0  0  0
  -25.9610  -26.3360   19.4020 C   0  0  0  0  0  3  0  0  0  0  0  0
  -24.9430  -27.3750   19.3820 C   0  0  0  0  0  3  0  0  0  0  0  0
  -23.8090  -29.6210   20.1110 C   0  0  0  0  0  2  0  0  0  0  0  0
  -24.8420  -30.8680   22.0340 N   0  0  0  0  0  0  0  0  0  0  0  0
  -23.6300  -32.0840   23.5830 O   0  0  0  0  0  0  0  0  0  0  0  0
  -22.7920  -29.4250   22.4550 C   0  0  0  0  0  0  0  0  0  0  0  0
  -21.4510  -29.3110   22.3500 N   0  0  0  0  0  0  0  0  0  0  0  0
  -23.4310  -28.7940   23.2980 O   0  0  0  0  0  0  0  0  0  0  0  0
  -20.9760  -29.8700   21.6530 H   0  0  0  0  0  0  0  0  0  0  0  0
  -18.0490  -28.1250   22.9140 C   0  0  0  0  0  0  0  0  0  0  0  0
  -20.6170  -28.3820   23.1290 C   0  0  0  0  0  3  0  0  0  0  0  0
  -20.6960  -26.9500   22.5460 C   0  0  0  0  0  2  0  0  0  0  0  0
  -19.5770  -26.6440   21.5450 C   0  0  0  0  0  2  0  0  0  0  0  0
  -18.2080  -26.7870   22.2130 C   0  0  0  0  0  2  0  0  0  0  0  0
  -19.1790  -28.8820   23.3280 C   0  0  0  0  0  0  0  0  0  0  0  0
  -18.9700  -30.1300   23.9550 C   0  0  0  0  0  3  0  0  0  0  0  0
  -17.6680  -30.6230   24.1640 C   0  0  0  0  0  3  0  0  0  0  0  0
  -16.5550  -29.8660   23.7580 C   0  0  0  0  0  3  0  0  0  0  0  0
  -16.7470  -28.6170   23.1410 C   0  0  0  0  0  3  0  0  0  0  0  0
  -25.9740  -32.4410   23.7510 C   0  0  0  0  0  3  0  0  0  0  0  0
  -25.6360  -33.8440   24.0870 N   0  0  0  0  0  0  0  0  0  0  0  0
  -25.9720  -34.9250   23.3680 C   0  0  0  0  0  0  0  0  0  0  0  0
  -26.6420  -34.8470   22.3360 O   0  0  0  0  0  0  0  0  0  0  0  0
  -25.0350  -33.9780   24.8870 H   0  0  0  0  0  0  0  0  0  0  0  0
  -24.2390  -36.7420   23.0930 C   0  0  0  0  0  1  0  0  0  0  0  0
  -25.4980  -36.3120   23.8640 C   0  0  0  0  0  3  0  0  0  0  0  0
  -27.6510  -37.1970   24.6590 C   0  0  0  0  0  1  0  0  0  0  0  0
  -26.5260  -37.3710   23.7430 N   0  0  0  0  0  0  0  0  0  0  0  0
  -26.1210  -38.2880   23.9120 H   0  0  0  0  0  0  0  0  0  0  0  0
  -26.4550  -31.7000   25.0620 C   0  0  1  0  0  0  0  0  0  0  0  0
  -25.3370  -31.4980   26.1140 C   0  0  0  0  0  1  0  0  0  0  0  0
  -27.0360  -30.3080   24.7370 C   0  0  0  0  0  1  0  0  0  0  0  0
  -27.5980  -32.5020   25.7280 C   0  0  0  0  0  1  0  0  0  0  0  0
  -28.1330  -24.7870   20.1310 O   0  0  0  0  0  1  0  0  0  0  0  0
  -28.1340  -22.7360   20.0320 C   0  0  0  0  0 15  0  0  0  0  0  0
  -29.0900  -20.6470   20.0500 C   0  0  0  0  0 15  0  0  0  0  0  0
  -29.0620  -18.5970   20.0550 O   0  0  0  0  0 15  0  0  0  0  0  0
  -30.0510  -16.5410   19.9720 C   0  0  0  0  0  2  0  0  0  0  0  0
  -30.3270  -13.7530   19.2670 C   0  0  0  0  0  2  0  0  0  0  0  0
  -29.5280  -12.9810   18.1470 C   0  0  0  0  0  2  0  0  0  0  0  0
  -28.1890  -12.4510   18.6640 C   0  0  0  0  0  2  0  0  0  0  0  0
  -27.5570  -13.4950   19.6000 C   0  0  0  0  0  3  0  0  0  0  0  0
  -28.5150  -14.1660   20.6400 C   0  0  0  0  0  2  0  0  0  0  0  0
  -29.5650  -14.9820   19.9220 N   0  0  0  0  0  0  0  0  0  0  0  0
  -31.2920  -16.3610   19.8280 O   0  0  0  0  0  1  0  0  0  0  0  0
  -25.2260  -13.9170   20.4480 C   0  0  0  0  0  0  0  0  0  0  0  0
  -24.1960  -13.1110   20.8330 C   0  0  0  0  0  0  0  0  0  0  0  0
  -24.6930  -11.7710   20.7770 C   0  0  0  0  0  0  0  0  0  0  0  0
  -26.2840  -13.0780   20.1710 N   0  0  0  0  0  0  0  0  0  0  0  0
  -25.9810  -11.7720   20.4270 N   0  0  0  0  0  0  0  0  0  0  0  0
  -23.9850  -10.4960   20.9760 C   0  0  0  0  0  0  0  0  0  0  0  0
  -24.4320   -9.5330   21.9070 C   0  0  0  0  0  3  0  0  0  0  0  0
  -23.7140   -8.3330   22.1020 C   0  0  0  0  0  3  0  0  0  0  0  0
  -22.5310   -8.0850   21.3640 C   0  0  0  0  0  0  0  0  0  0  0  0
  -22.1000   -9.0370   20.4240 C   0  0  0  0  0  3  0  0  0  0  0  0
  -22.8200  -10.2290   20.2280 C   0  0  0  0  0  3  0  0  0  0  0  0
  -21.7830   -6.9360   21.4670 O   0  0  0  0  0  0  0  0  0  0  0  0
  -21.7470   -6.2000   22.6240 C   0  0  0  0  0  0  0  0  0  0  0  0
  -21.3430   -6.7630   23.8530 C   0  0  0  0  0  3  0  0  0  0  0  0
  -21.2520   -5.9550   25.0030 C   0  0  0  0  0  3  0  0  0  0  0  0
  -21.5570   -4.5820   24.9260 C   0  0  0  0  0  0  0  0  0  0  0  0
  -21.9550   -4.0180   23.7020 C   0  0  0  0  0  3  0  0  0  0  0  0
  -22.0460   -4.8240   22.5530 C   0  0  0  0  0  0  0  0  0  0  0  0
  -22.4080   -4.2690   21.3710 F   0  0  0  0  0  0  0  0  0  0  0  0
  -21.4640   -3.8030   26.0290 F   0  0  0  0  0  0  0  0  0  0  0  0
  -22.7990  -13.5650   21.1320 C   0  0  0  0  0  0  0  0  0  0  0  0
  -22.1020  -12.8630   22.0170 N   0  0  0  0  0  0  0  0  0  0  0  0
  -22.3380  -14.5840   20.6180 O   0  0  0  0  0  0  0  0  0  0  0  0
  -22.4920  -12.0410   22.4540 H   0  0  0  0  0  0  0  0  0  0  0  0
  -21.1650  -13.1510   22.2610 H   0  0  0  0  0  0  0  0  0  0  0  0
  -25.3500  -15.2920   20.2710 N   0  0  0  0  0  0  0  0  0  0  0  0
  -24.5720  -15.9290   20.4080 H   0  0  0  0  0  0  0  0  0  0  0  0
  -26.1860  -15.7530   19.9340 H   0  0  0  0  0  0  0  0  0  0  0  0
  1 12  2  0
  2 41  1  0
  2  7  1  0
  3 11  1  0
  3 13  1  0
  4 10  1  0
  4  6  1  0
  5 11  1  0
  6  5  1  0
  7  6  2  0
  8  2  2  0
  9  8  1  0
  9  4  2  0
 10  3  1  0
 11  1  1  0
 13 15  2  0
 14 13  1  0
 16 14  1  0
 17 26  2  0
 17 22  1  0
 18 14  1  0
 18 22  1  0
 19 18  1  0
 20 21  1  0
 20 19  1  0
 21 17  1  0
 22 23  2  0
 23 24  1  0
 25 24  2  0
 26 25  1  0
 27  1  1  0
 27 28  1  0
 27 37  1  0
 28 31  1  0
 29 33  1  0
 29 28  1  0
 30 29  2  0
 33 32  1  0
 35 33  1  0
 35 36  1  0
 35 34  1  0
 37 40  1  1
 37 38  1  0
 39 37  1  0
 46 51  1  0
 47 48  1  0
 47 46  1  0
 49 48  1  0
 49 56  1  0
 49 50  1  0
 51 45  1  0
 51 50  1  0
 52 45  1  0
 53 54  2  0
 54 73  1  0
 55 54  1  0
 55 58  1  0
 56 57  1  0
 56 53  1  0
 57 55  2  0
 58 59  1  0
 59 60  2  0
 61 64  1  0
 61 60  1  0
 62 61  2  0
 63 62  1  0
 63 58  2  0
 64 65  1  0
 65 66  1  0
 66 67  2  0
 68 67  1  0
 68 72  1  0
 69 68  2  0
 70 65  2  0
 70 69  1  0
 71 70  1  0
 73 74  1  0
 74 77  1  0
 74 76  1  0
 75 73  2  0
 78 79  1  0
 78 53  1  0
 80 78  1  0
M  ISO  4  41 101  42 101  44 100  45 100
M  END
>  <TORSDO>  (21) 
F 18

>  <SCORE>  (21) 
-16.084

>  <name>  (21) 
20

>  <ligand_id>  (21) 
20

>  <original_smiles>  (21) 
[H]c1c([H])c([H])c2c(c1[H])C([H])([H])C([H])([H])C([H])([H])C2([H])N([H])C(=O)C1([H])N(C(=O)C([H])(N([H])C(=O)C([H])(N([H])C([H])([H])[H])C([H])([H])[H])C(C([H])([H])[H])(C([H])([H])[H])C([H])([H])[H])C([H])([H])c2c([H])c(OC([H])([H])C([H])([H])OC(=O)N3C([H])([H])C([H])([H])C([H])([H])C([H])(n4nc(-c5c([H])c([H])c(Oc6c([H])c([H])c(F)c([H])c6F)c([H])c5[H])c(C(=O)N([H])[H])c4N([H])[H])C3([H])[H])c([H])c([H])c2C1([H])[H]

>  <smiles>  (21) 
[H]c1c([H])c([H])c2c(c1[H])C([H])([H])C([H])([H])C([H])([H])C2([H])N([H])C(=O)C1([H])N(C(=O)C([H])(N([H])C(=O)C([H])(N([H])C([H])([H])[H])C([H])([H])[H])C(C([H])([H])[H])(C([H])([H])[H])C([H])([H])[H])C([H])([H])c2c([H])c(OC([H])([H])C([H])([H])OC(=O)N3C([H])([H])C([H])([H])C([H])([H])C([H])(n4nc(-c5c([H])c([H])c(Oc6c([H])c([H])c(F)c([H])c6F)c([H])c5[H])c(C(=O)N([H])[H])c4N([H])[H])C3([H])[H])c([H])c([H])c2C1([H])[H]

$$$$
21:0:0
     RDKit          3D

 83 90  0  0  1  0  0  0  0  0999 V2000
  -27.8660  -23.8370   20.2550 C   0  0  0  0  0  0  0  0  0  0  0  0
  -26.6780  -23.5090   20.2210 O   0  0  0  0  0  0  0  0  0  0  0  0
  -28.1440  -25.6230   20.2670 O   0  0  0  0  0  0  0  0  0  0  0  0
  -24.6750  -31.8810   23.1790 C   0  0  0  0  0  0  0  0  0  0  0  0
  -27.1870  -26.8270   20.2120 C   0  0  0  0  0  0  0  0  0  0  0  0
  -23.4800  -30.4820   21.5480 C   0  0  0  0  0  3  0  0  0  0  0  0
  -24.9220  -28.8330   20.1440 C   0  0  0  0  0  0  0  0  0  0  0  0
  -26.0570  -30.6270   21.4260 C   0  0  0  0  0  2  0  0  0  0  0  0
  -26.1160  -29.1960   20.7800 C   0  0  0  0  0  0  0  0  0  0  0  0
  -27.2330  -28.2170   20.7900 C   0  0  0  0  0  3  0  0  0  0  0  0
  -25.9610  -26.6640   19.5190 C   0  0  0  0  0  3  0  0  0  0  0  0
  -24.8790  -27.5900   19.4920 C   0  0  0  0  0  3  0  0  0  0  0  0
  -23.7160  -29.7820   20.1800 C   0  0  0  0  0  2  0  0  0  0  0  0
  -24.7610  -31.0280   22.1030 N   0  0  0  0  0  0  0  0  0  0  0  0
  -23.5840  -32.1880   23.6890 O   0  0  0  0  0  0  0  0  0  0  0  0
  -22.7630  -29.5080   22.5210 C   0  0  0  0  0  0  0  0  0  0  0  0
  -21.4290  -29.3640   22.4010 N   0  0  0  0  0  0  0  0  0  0  0  0
  -23.4170  -28.8790   23.3560 O   0  0  0  0  0  0  0  0  0  0  0  0
  -20.9520  -29.9220   21.7060 H   0  0  0  0  0  0  0  0  0  0  0  0
  -18.0330  -28.1910   22.9270 C   0  0  0  0  0  0  0  0  0  0  0  0
  -20.5960  -28.4390   23.1780 C   0  0  0  0  0  3  0  0  0  0  0  0
  -20.6820  -27.0030   22.6100 C   0  0  0  0  0  2  0  0  0  0  0  0
  -19.5750  -26.6860   21.6000 C   0  0  0  0  0  2  0  0  0  0  0  0
  -18.1960  -26.8410   22.2490 C   0  0  0  0  0  2  0  0  0  0  0  0
  -19.1580  -28.9480   23.3490 C   0  0  0  0  0  0  0  0  0  0  0  0
  -18.9470  -30.2090   23.9480 C   0  0  0  0  0  3  0  0  0  0  0  0
  -17.6450  -30.7130   24.1250 C   0  0  0  0  0  3  0  0  0  0  0  0
  -16.5350  -29.9550   23.7170 C   0  0  0  0  0  3  0  0  0  0  0  0
  -16.7300  -28.6950   23.1240 C   0  0  0  0  0  3  0  0  0  0  0  0
  -25.9430  -32.5250   23.8160 C   0  0  0  0  0  3  0  0  0  0  0  0
  -26.4500  -31.7550   25.0990 C   0  0  1  0  0  0  0  0  0  0  0  0
  -25.3510  -31.5240   26.1620 C   0  0  0  0  0  1  0  0  0  0  0  0
  -27.0320  -30.3740   24.7240 C   0  0  0  0  0  1  0  0  0  0  0  0
  -27.6000  -32.5480   25.7650 C   0  0  0  0  0  1  0  0  0  0  0  0
  -25.6210  -33.9230   24.1650 N   0  0  0  0  0  0  0  0  0  0  0  0
  -25.9310  -34.9940   23.4220 C   0  0  0  0  0  0  0  0  0  0  0  0
  -26.5750  -34.9110   22.3740 O   0  0  0  0  0  0  0  0  0  0  0  0
  -25.0430  -34.0600   24.9810 H   0  0  0  0  0  0  0  0  0  0  0  0
  -24.1760  -36.7850   23.1640 C   0  0  0  0  0  1  0  0  0  0  0  0
  -25.4530  -36.3770   23.9170 C   0  0  0  0  0  3  0  0  0  0  0  0
  -27.6110  -37.2760   24.6710 C   0  0  0  0  0  1  0  0  0  0  0  0
  -26.4710  -37.4410   23.7730 N   0  0  0  0  0  0  0  0  0  0  0  0
  -26.0630  -38.3560   23.9420 H   0  0  0  0  0  0  0  0  0  0  0  0
  -28.9360  -22.3510   20.2860 C   0  0  0  0  0  2  0  0  0  0  0  0
  -28.6810  -20.4570   20.3290 C   0  0  0  0  0  3  0  0  0  0  0  0
  -29.6670  -18.8210   20.2750 C   0  0  0  0  0  3  0  0  0  0  0  0
  -29.4110  -17.1140   20.3610 O   0  0  0  0  0  0  0  0  0  0  0  0
  -30.3430  -15.5850   20.1800 C   0  0  0  0  0  0  0  0  0  0  0  0
  -30.3510  -13.0430   19.3560 C   0  0  0  0  0  2  0  0  0  0  0  0
  -29.4380  -12.7380   18.1370 C   0  0  0  0  0  2  0  0  0  0  0  0
  -28.0090  -12.4090   18.5960 C   0  0  0  0  0  2  0  0  0  0  0  0
  -27.5230  -13.3890   19.6900 C   0  0  0  0  0  3  0  0  0  0  0  0
  -28.5580  -13.6570   20.8010 C   0  0  0  0  0  2  0  0  0  0  0  0
  -29.7660  -14.1950   20.1580 N   0  0  0  0  0  0  0  0  0  0  0  0
  -31.5580  -15.5710   19.9280 O   0  0  0  0  0  0  0  0  0  0  0  0
  -25.1730  -13.8980   20.5050 C   0  0  0  0  0  0  0  0  0  0  0  0
  -24.1290  -13.1040   20.8850 C   0  0  0  0  0  0  0  0  0  0  0  0
  -24.6120  -11.7600   20.8390 C   0  0  0  0  0  0  0  0  0  0  0  0
  -26.2180  -13.0370   20.2290 N   0  0  0  0  0  0  0  0  0  0  0  0
  -25.8990  -11.7450   20.5010 N   0  0  0  0  0  0  0  0  0  0  0  0
  -23.9020  -10.4890   21.0340 C   0  0  0  0  0  0  0  0  0  0  0  0
  -24.3510   -9.5220   21.9590 C   0  0  0  0  0  3  0  0  0  0  0  0
  -23.6350   -8.3190   22.1440 C   0  0  0  0  0  3  0  0  0  0  0  0
  -22.4540   -8.0750   21.4020 C   0  0  0  0  0  0  0  0  0  0  0  0
  -22.0230   -9.0310   20.4660 C   0  0  0  0  0  3  0  0  0  0  0  0
  -22.7410  -10.2240   20.2800 C   0  0  0  0  0  3  0  0  0  0  0  0
  -21.7080   -6.9240   21.4970 O   0  0  0  0  0  0  0  0  0  0  0  0
  -21.6710   -6.1830   22.6500 C   0  0  0  0  0  0  0  0  0  0  0  0
  -21.2410   -6.7340   23.8770 C   0  0  0  0  0  3  0  0  0  0  0  0
  -21.1510   -5.9180   25.0220 C   0  0  0  0  0  3  0  0  0  0  0  0
  -21.4820   -4.5520   24.9420 C   0  0  0  0  0  0  0  0  0  0  0  0
  -21.9050   -4.0000   23.7200 C   0  0  0  0  0  3  0  0  0  0  0  0
  -21.9960   -4.8140   22.5770 C   0  0  0  0  0  0  0  0  0  0  0  0
  -22.3840   -4.2720   21.3970 F   0  0  0  0  0  0  0  0  0  0  0  0
  -21.3890   -3.7660   26.0410 F   0  0  0  0  0  0  0  0  0  0  0  0
  -22.7320  -13.5660   21.1770 C   0  0  0  0  0  0  0  0  0  0  0  0
  -22.0260  -12.8640   22.0560 N   0  0  0  0  0  0  0  0  0  0  0  0
  -22.2770  -14.5860   20.6610 O   0  0  0  0  0  0  0  0  0  0  0  0
  -22.4090  -12.0400   22.4950 H   0  0  0  0  0  0  0  0  0  0  0  0
  -21.0890  -13.1560   22.2940 H   0  0  0  0  0  0  0  0  0  0  0  0
  -25.3200  -15.2720   20.3370 N   0  0  0  0  0  0  0  0  0  0  0  0
  -24.5560  -15.9220   20.4830 H   0  0  0  0  0  0  0  0  0  0  0  0
  -26.1720  -15.7230   20.0270 H   0  0  0  0  0  0  0  0  0  0  0  0
  1  3  1  0
  1 44  1  0
  2  1  2  0
  4 15  2  0
  5  3  1  0
  5 10  1  0
  6 14  1  0
  6 16  1  0
  7 13  1  0
  7  9  1  0
  8 14  1  0
  9 10  2  0
  9  8  1  0
 11  5  2  0
 12 11  1  0
 12  7  2  0
 13  6  1  0
 14  4  1  0
 16 18  2  0
 17 16  1  0
 19 17  1  0
 20 29  2  0
 20 25  1  0
 21 17  1  0
 21 25  1  0
 22 21  1  0
 23 24  1  0
 23 22  1  0
 24 20  1  0
 25 26  2  0
 26 27  1  0
 28 27  2  0
 29 28  1  0
 30  4  1  0
 30 35  1  0
 30 31  1  0
 31 34  1  1
 31 32  1  0
 33 31  1  0
 35 38  1  0
 36 40  1  0
 36 35  1  0
 37 36  2  0
 40 39  1  0
 42 40  1  0
 42 43  1  0
 42 41  1  0
 44 45  1  0
 46 45  2  0
 46 47  1  0
 48 47  1  0
 49 54  1  0
 50 51  1  0
 50 49  1  0
 52 51  1  0
 52 59  1  0
 52 53  1  0
 54 48  1  0
 54 53  1  0
 55 48  2  0
 56 57  2  0
 57 76  1  0
 58 57  1  0
 58 61  1  0
 59 60  1  0
 59 56  1  0
 60 58  2  0
 61 62  1  0
 62 63  2  0
 64 67  1  0
 64 63  1  0
 65 64  2  0
 66 65  1  0
 66 61  2  0
 67 68  1  0
 68 69  1  0
 69 70  2  0
 71 70  1  0
 71 75  1  0
 72 71  2  0
 73 68  2  0
 73 72  1  0
 74 73  1  0
 76 77  1  0
 77 80  1  0
 77 79  1  0
 78 76  2  0
 81 82  1  0
 81 56  1  0
 83 81  1  0
M  ISO  4   1 101   3 101  47 100  48 100
M  END
>  <TORSDO>  (22) 
F 20

>  <SCORE>  (22) 
-16.415

>  <name>  (22) 
21

>  <ligand_id>  (22) 
21

>  <original_smiles>  (22) 
[H]c1c([H])c([H])c2c(c1[H])C([H])([H])C([H])([H])C([H])([H])C2([H])N([H])C(=O)C1([H])N(C(=O)C([H])(N([H])C(=O)C([H])(N([H])C([H])([H])[H])C([H])([H])[H])C(C([H])([H])[H])(C([H])([H])[H])C([H])([H])[H])C([H])([H])c2c([H])c(OC(=O)C([H])([H])C([H])([H])C([H])([H])OC(=O)N3C([H])([H])C([H])([H])C([H])([H])C([H])(n4nc(-c5c([H])c([H])c(Oc6c([H])c([H])c(F)c([H])c6F)c([H])c5[H])c(C(=O)N([H])[H])c4N([H])[H])C3([H])[H])c([H])c([H])c2C1([H])[H]

>  <smiles>  (22) 
[H]c1c([H])c([H])c2c(c1[H])C([H])([H])C([H])([H])C([H])([H])C2([H])N([H])C(=O)C1([H])N(C(=O)C([H])(N([H])C(=O)C([H])(N([H])C([H])([H])[H])C([H])([H])[H])C(C([H])([H])[H])(C([H])([H])[H])C([H])([H])[H])C([H])([H])c2c([H])c(OC(=O)C([H])([H])C([H])([H])C([H])([H])OC(=O)N3C([H])([H])C([H])([H])C([H])([H])C([H])(n4nc(-c5c([H])c([H])c(Oc6c([H])c([H])c(F)c([H])c6F)c([H])c5[H])c(C(=O)N([H])[H])c4N([H])[H])C3([H])[H])c([H])c([H])c2C1([H])[H]

$$$$
22:0:0
     RDKit          3D

 81 85  0  0  1  0  0  0  0  0999 V2000
  -28.1090  -24.6470   20.3000 O   0  0  0  0  0  1  0  0  0  0  0  0
  -24.7100  -31.7810   23.1610 C   0  0  0  0  0  0  0  0  0  0  0  0
  -27.2070  -26.1440   20.2640 C   0  0  0  0  0  0  0  0  0  0  0  0
  -23.5560  -30.3680   21.5220 C   0  0  0  0  0  3  0  0  0  0  0  0
  -25.0090  -28.5810   20.1690 C   0  0  0  0  0  0  0  0  0  0  0  0
  -26.1560  -30.3130   21.5020 C   0  0  0  0  0  2  0  0  0  0  0  0
  -26.2110  -28.8120   20.8490 C   0  0  0  0  0  0  0  0  0  0  0  0
  -27.2590  -27.6460   20.8460 C   0  0  0  0  0  3  0  0  0  0  0  0
  -25.9680  -26.2870   19.5230 C   0  0  0  0  0  3  0  0  0  0  0  0
  -24.9660  -27.3480   19.4800 C   0  0  0  0  0  3  0  0  0  0  0  0
  -23.8360  -29.6140   20.1780 C   0  0  0  0  0  2  0  0  0  0  0  0
  -24.8390  -30.8700   22.1140 N   0  0  0  0  0  0  0  0  0  0  0  0
  -23.6010  -32.1150   23.6230 O   0  0  0  0  0  0  0  0  0  0  0  0
  -22.7620  -29.4580   22.5040 C   0  0  0  0  0  0  0  0  0  0  0  0
  -21.4220  -29.3560   22.3730 N   0  0  0  0  0  0  0  0  0  0  0  0
  -23.3780  -28.8290   23.3670 O   0  0  0  0  0  0  0  0  0  0  0  0
  -20.9670  -29.9120   21.6630 H   0  0  0  0  0  0  0  0  0  0  0  0
  -17.9970  -28.2130   22.9010 C   0  0  0  0  0  0  0  0  0  0  0  0
  -20.5670  -28.4380   23.1430 C   0  0  0  0  0  3  0  0  0  0  0  0
  -20.6330  -27.0060   22.5600 C   0  0  0  0  0  2  0  0  0  0  0  0
  -19.5210  -26.7160   21.5460 C   0  0  0  0  0  2  0  0  0  0  0  0
  -18.1460  -26.8740   22.1990 C   0  0  0  0  0  2  0  0  0  0  0  0
  -19.1320  -28.9550   23.3290 C   0  0  0  0  0  0  0  0  0  0  0  0
  -18.9320  -30.2040   23.9560 C   0  0  0  0  0  3  0  0  0  0  0  0
  -17.6350  -30.7130   24.1530 C   0  0  0  0  0  3  0  0  0  0  0  0
  -16.5160  -29.9710   23.7350 C   0  0  0  0  0  3  0  0  0  0  0  0
  -16.6980  -28.7220   23.1160 C   0  0  0  0  0  3  0  0  0  0  0  0
  -25.9400  -32.4590   23.8420 C   0  0  0  0  0  3  0  0  0  0  0  0
  -25.5980  -33.8650   24.1720 N   0  0  0  0  0  0  0  0  0  0  0  0
  -25.9200  -34.9450   23.4450 C   0  0  0  0  0  0  0  0  0  0  0  0
  -26.5760  -34.8640   22.4040 O   0  0  0  0  0  0  0  0  0  0  0  0
  -25.0070  -33.9990   24.9800 H   0  0  0  0  0  0  0  0  0  0  0  0
  -24.1680  -36.7480   23.1980 C   0  0  0  0  0  1  0  0  0  0  0  0
  -25.4480  -36.3330   23.9420 C   0  0  0  0  0  3  0  0  0  0  0  0
  -27.6060  -37.2470   24.6880 C   0  0  0  0  0  1  0  0  0  0  0  0
  -26.4650  -37.3980   23.7880 N   0  0  0  0  0  0  0  0  0  0  0  0
  -26.0550  -38.3150   23.9480 H   0  0  0  0  0  0  0  0  0  0  0  0
  -26.3960  -31.7200   25.1620 C   0  0  1  0  0  0  0  0  0  0  0  0
  -25.2580  -31.5140   26.1910 C   0  0  0  0  0  1  0  0  0  0  0  0
  -26.9880  -30.3300   24.8490 C   0  0  0  0  0  1  0  0  0  0  0  0
  -27.5230  -32.5250   25.8520 C   0  0  0  0  0  1  0  0  0  0  0  0
  -28.1400  -22.5480   20.1630 C   0  0  0  0  0 15  0  0  0  0  0  0
  -29.1420  -20.4180   20.2160 C   0  0  0  0  0 15  0  0  0  0  0  0
  -29.9010  -16.6470   20.0860 C   0  0  0  0  0  0  0  0  0  0  0  0
  -30.2300  -13.8900   19.2940 C   0  0  0  0  0  2  0  0  0  0  0  0
  -29.4480  -13.0530   18.1990 C   0  0  0  0  0  2  0  0  0  0  0  0
  -28.1340  -12.4820   18.7300 C   0  0  0  0  0  2  0  0  0  0  0  0
  -27.5010  -13.5140   19.6750 C   0  0  0  0  0  3  0  0  0  0  0  0
  -28.4750  -14.2100   20.6950 C   0  0  0  0  0  2  0  0  0  0  0  0
  -29.4550  -15.1290   19.9600 N   0  0  0  0  0  0  0  0  0  0  0  0
  -31.1430  -16.3980   20.0040 O   0  0  0  0  0  0  0  0  0  0  0  0
  -29.2570  -18.3100   20.1340 N   0  0  0  0  0  2  0  0  0  0  0  0
  -30.2580  -18.4710   20.1320 H   0  0  0  0  0  0  0  0  0  0  0  0
  -25.1600  -13.9200   20.5080 C   0  0  0  0  0  0  0  0  0  0  0  0
  -24.1280  -13.1120   20.8810 C   0  0  0  0  0  0  0  0  0  0  0  0
  -24.6260  -11.7720   20.8220 C   0  0  0  0  0  0  0  0  0  0  0  0
  -26.2240  -13.0860   20.2420 N   0  0  0  0  0  0  0  0  0  0  0  0
  -25.9190  -11.7780   20.4820 N   0  0  0  0  0  0  0  0  0  0  0  0
  -23.9140  -10.4950   21.0120 C   0  0  0  0  0  0  0  0  0  0  0  0
  -24.3570   -9.5290   21.9420 C   0  0  0  0  0  3  0  0  0  0  0  0
  -23.6350   -8.3280   22.1300 C   0  0  0  0  0  3  0  0  0  0  0  0
  -22.4560   -8.0830   21.3870 C   0  0  0  0  0  0  0  0  0  0  0  0
  -22.0290   -9.0390   20.4470 C   0  0  0  0  0  3  0  0  0  0  0  0
  -22.7510  -10.2310   20.2590 C   0  0  0  0  0  3  0  0  0  0  0  0
  -21.7070   -6.9350   21.4820 O   0  0  0  0  0  0  0  0  0  0  0  0
  -21.6700   -6.1910   22.6350 C   0  0  0  0  0  0  0  0  0  0  0  0
  -21.2140   -6.7320   23.8560 C   0  0  0  0  0  3  0  0  0  0  0  0
  -21.1260   -5.9140   25.0000 C   0  0  0  0  0  3  0  0  0  0  0  0
  -21.4850   -4.5540   24.9250 C   0  0  0  0  0  0  0  0  0  0  0  0
  -21.9340   -4.0110   23.7070 C   0  0  0  0  0  3  0  0  0  0  0  0
  -22.0220   -4.8270   22.5660 C   0  0  0  0  0  0  0  0  0  0  0  0
  -22.4340   -4.2930   21.3900 F   0  0  0  0  0  0  0  0  0  0  0  0
  -21.3950   -3.7660   26.0220 F   0  0  0  0  0  0  0  0  0  0  0  0
  -22.7270  -13.5620   21.1730 C   0  0  0  0  0  0  0  0  0  0  0  0
  -22.0260  -12.8570   22.0520 N   0  0  0  0  0  0  0  0  0  0  0  0
  -22.2670  -14.5820   20.6590 O   0  0  0  0  0  0  0  0  0  0  0  0
  -22.4140  -12.0340   22.4890 H   0  0  0  0  0  0  0  0  0  0  0  0
  -21.0880  -13.1430   22.2910 H   0  0  0  0  0  0  0  0  0  0  0  0
  -25.2790  -15.2960   20.3350 N   0  0  0  0  0  0  0  0  0  0  0  0
  -24.4980  -15.9290   20.4650 H   0  0  0  0  0  0  0  0  0  0  0  0
  -26.1180  -15.7610   20.0090 H   0  0  0  0  0  0  0  0  0  0  0  0
  2 13  2  0
  3  1  1  0
  3  8  1  0
  4 12  1  0
  4 14  1  0
  5 11  1  0
  5  7  1  0
  6 12  1  0
  7  6  1  0
  8  7  2  0
  9  3  2  0
 10  9  1  0
 10  5  2  0
 11  4  1  0
 12  2  1  0
 14 16  2  0
 15 14  1  0
 17 15  1  0
 18 27  2  0
 18 23  1  0
 19 15  1  0
 19 23  1  0
 20 19  1  0
 21 22  1  0
 21 20  1  0
 22 18  1  0
 23 24  2  0
 24 25  1  0
 26 25  2  0
 27 26  1  0
 28  2  1  0
 28 29  1  0
 28 38  1  0
 29 32  1  0
 30 34  1  0
 30 29  1  0
 31 30  2  0
 34 33  1  0
 36 34  1  0
 36 37  1  0
 36 35  1  0
 38 41  1  1
 38 39  1  0
 40 38  1  0
 44 52  1  0
 45 50  1  0
 46 47  1  0
 46 45  1  0
 48 47  1  0
 48 57  1  0
 48 49  1  0
 50 44  1  0
 50 49  1  0
 51 44  2  0
 53 52  1  0
 54 55  2  0
 55 74  1  0
 56 55  1  0
 56 59  1  0
 57 58  1  0
 57 54  1  0
 58 56  2  0
 59 60  1  0
 60 61  2  0
 62 65  1  0
 62 61  1  0
 63 62  2  0
 64 63  1  0
 64 59  2  0
 65 66  1  0
 66 67  1  0
 67 68  2  0
 69 68  1  0
 69 73  1  0
 70 69  2  0
 71 66  2  0
 71 70  1  0
 72 71  1  0
 74 75  1  0
 75 78  1  0
 75 77  1  0
 76 74  2  0
 79 80  1  0
 79 54  1  0
 81 79  1  0
M  ISO  4   1 101  42 101  44 100  52 100
M  END
>  <TORSDO>  (23) 
F 17

>  <SCORE>  (23) 
-16.141

>  <name>  (23) 
22

>  <ligand_id>  (23) 
22

>  <original_smiles>  (23) 
[H]c1c([H])c([H])c2c(c1[H])C([H])([H])C([H])([H])C([H])([H])C2([H])N([H])C(=O)C1([H])N(C(=O)C([H])(N([H])C(=O)C([H])(N([H])C([H])([H])[H])C([H])([H])[H])C(C([H])([H])[H])(C([H])([H])[H])C([H])([H])[H])C([H])([H])c2c([H])c(OC([H])([H])C([H])([H])N([H])C(=O)N3C([H])([H])C([H])([H])C([H])([H])C([H])(n4nc(-c5c([H])c([H])c(Oc6c([H])c([H])c(F)c([H])c6F)c([H])c5[H])c(C(=O)N([H])[H])c4N([H])[H])C3([H])[H])c([H])c([H])c2C1([H])[H]

>  <smiles>  (23) 
[H]c1c([H])c([H])c2c(c1[H])C([H])([H])C([H])([H])C([H])([H])C2([H])N([H])C(=O)C1([H])N(C(=O)C([H])(N([H])C(=O)C([H])(N([H])C([H])([H])[H])C([H])([H])[H])C(C([H])([H])[H])(C([H])([H])[H])C([H])([H])[H])C([H])([H])c2c([H])c(OC([H])([H])C([H])([H])N([H])C(=O)N3C([H])([H])C([H])([H])C([H])([H])C([H])(n4nc(-c5c([H])c([H])c(Oc6c([H])c([H])c(F)c([H])c6F)c([H])c5[H])c(C(=O)N([H])[H])c4N([H])[H])C3([H])[H])c([H])c([H])c2C1([H])[H]

$$$$
23:0:0
     RDKit          3D

 88 96  0  0  1  0  0  0  0  0999 V2000
  -28.2700  -18.1960   20.5690 C   0  0  0  0  0  3  0  0  0  0  0  0
  -30.5440  -18.6580   20.1620 C   0  0  0  0  0  3  0  0  0  0  0  0
  -27.9690  -19.6050   20.5110 C   0  0  0  0  0  3  0  0  0  0  0  0
  -30.2360  -20.0970   20.1140 C   0  0  0  0  0  3  0  0  0  0  0  0
  -29.5660  -17.6210   20.3920 C   0  0  0  0  0  0  0  0  0  0  0  0
  -28.9130  -20.6520   20.2830 C   0  0  0  0  0  0  0  0  0  0  0  0
  -30.5640  -15.0240   20.2100 C   0  0  0  0  0  0  0  0  0  0  0  0
  -30.4770  -12.6790   19.2500 C   0  0  0  0  0  2  0  0  0  0  0  0
  -29.4990  -12.6500   18.0480 C   0  0  0  0  0  2  0  0  0  0  0  0
  -28.0470  -12.4370   18.5210 C   0  0  0  0  0  2  0  0  0  0  0  0
  -27.6750  -13.3480   19.7200 C   0  0  0  0  0  3  0  0  0  0  0  0
  -28.7640  -13.3150   20.8150 C   0  0  0  0  0  2  0  0  0  0  0  0
  -30.0230  -13.7410   20.1870 N   0  0  0  0  0  0  0  0  0  0  0  0
  -31.7370  -15.1720   19.8490 O   0  0  0  0  0  0  0  0  0  0  0  0
  -29.6830  -16.0950   20.4860 N   0  0  0  0  0  0  0  0  0  0  0  0
  -28.8050  -15.6890   20.7700 H   0  0  0  0  0  0  0  0  0  0  0  0
  -25.3170  -13.9250   20.5440 C   0  0  0  0  0  0  0  0  0  0  0  0
  -24.2620  -13.1460   20.9340 C   0  0  0  0  0  0  0  0  0  0  0  0
  -24.7190  -11.7940   20.8530 C   0  0  0  0  0  0  0  0  0  0  0  0
  -26.3480  -13.0470   20.2490 N   0  0  0  0  0  0  0  0  0  0  0  0
  -25.9980  -11.7600   20.4990 N   0  0  0  0  0  0  0  0  0  0  0  0
  -23.9930  -10.5300   21.0340 C   0  0  0  0  0  0  0  0  0  0  0  0
  -24.4280   -9.5560   21.9590 C   0  0  0  0  0  3  0  0  0  0  0  0
  -23.7020   -8.3560   22.1280 C   0  0  0  0  0  3  0  0  0  0  0  0
  -22.5270   -8.1240   21.3750 C   0  0  0  0  0  0  0  0  0  0  0  0
  -22.1100   -9.0890   20.4410 C   0  0  0  0  0  3  0  0  0  0  0  0
  -22.8370  -10.2790   20.2680 C   0  0  0  0  0  3  0  0  0  0  0  0
  -21.7730   -6.9790   21.4560 O   0  0  0  0  0  0  0  0  0  0  0  0
  -21.6880   -6.2530   22.6170 C   0  0  0  0  0  0  0  0  0  0  0  0
  -21.1540   -6.8030   23.8030 C   0  0  0  0  0  3  0  0  0  0  0  0
  -21.0220   -6.0010   24.9530 C   0  0  0  0  0  3  0  0  0  0  0  0
  -21.4140   -4.6490   24.9190 C   0  0  0  0  0  0  0  0  0  0  0  0
  -21.9400   -4.0980   23.7370 C   0  0  0  0  0  3  0  0  0  0  0  0
  -22.0740   -4.8980   22.5890 C   0  0  0  0  0  0  0  0  0  0  0  0
  -22.5620   -4.3560   21.4470 F   0  0  0  0  0  0  0  0  0  0  0  0
  -21.2790   -3.8750   26.0220 F   0  0  0  0  0  0  0  0  0  0  0  0
  -22.8760  -13.6220   21.2610 C   0  0  0  0  0  0  0  0  0  0  0  0
  -22.1760  -12.9110   22.1370 N   0  0  0  0  0  0  0  0  0  0  0  0
  -22.4260  -14.6590   20.7750 O   0  0  0  0  0  0  0  0  0  0  0  0
  -22.5530  -12.0730   22.5520 H   0  0  0  0  0  0  0  0  0  0  0  0
  -21.2460  -13.2120   22.3990 H   0  0  0  0  0  0  0  0  0  0  0  0
  -25.4790  -15.2980   20.3870 N   0  0  0  0  0  0  0  0  0  0  0  0
  -24.6990  -15.9360   20.5080 H   0  0  0  0  0  0  0  0  0  0  0  0
  -26.2670  -15.7220   19.9170 H   0  0  0  0  0  0  0  0  0  0  0  0
  -28.3850  -22.0170   20.2260 O   0  0  0  0  0  0  0  0  0  0  0  0
  -29.0060  -23.4170   20.2140 C   0  0  0  0  0  3  0  0  0  0  0  0
  -28.0130  -24.7620   20.0050 C   0  0  0  0  0  3  0  0  0  0  0  0
  -28.2930  -26.2800   20.1940 O   0  0  0  0  0  0  0  0  0  0  0  0
  -24.6160  -31.8830   23.2510 C   0  0  0  0  0  0  0  0  0  0  0  0
  -27.2250  -27.2480   20.1450 C   0  0  0  0  0  0  0  0  0  0  0  0
  -23.4230  -30.5100   21.5880 C   0  0  0  0  0  3  0  0  0  0  0  0
  -24.8820  -28.9690   20.1390 C   0  0  0  0  0  0  0  0  0  0  0  0
  -25.9760  -30.7940   21.4300 C   0  0  0  0  0  2  0  0  0  0  0  0
  -26.0590  -29.4160   20.7540 C   0  0  0  0  0  0  0  0  0  0  0  0
  -27.2310  -28.5720   20.7390 C   0  0  0  0  0  3  0  0  0  0  0  0
  -26.0180  -26.9000   19.4960 C   0  0  0  0  0  3  0  0  0  0  0  0
  -24.8750  -27.7250   19.4950 C   0  0  0  0  0  3  0  0  0  0  0  0
  -23.6490  -29.8570   20.1990 C   0  0  0  0  0  2  0  0  0  0  0  0
  -24.6910  -31.0830   22.1440 N   0  0  0  0  0  0  0  0  0  0  0  0
  -23.5270  -32.1530   23.7830 O   0  0  0  0  0  0  0  0  0  0  0  0
  -22.7510  -29.4810   22.5320 C   0  0  0  0  0  0  0  0  0  0  0  0
  -21.4240  -29.3020   22.3970 N   0  0  0  0  0  0  0  0  0  0  0  0
  -23.4240  -28.8480   23.3490 O   0  0  0  0  0  0  0  0  0  0  0  0
  -20.9370  -29.8650   21.7140 H   0  0  0  0  0  0  0  0  0  0  0  0
  -18.0440  -28.1000   22.8940 C   0  0  0  0  0  0  0  0  0  0  0  0
  -20.6060  -28.3490   23.1520 C   0  0  0  0  0  3  0  0  0  0  0  0
  -20.6990  -26.9300   22.5440 C   0  0  0  0  0  2  0  0  0  0  0  0
  -19.5900  -26.6350   21.5290 C   0  0  0  0  0  2  0  0  0  0  0  0
  -18.2130  -26.7680   22.1850 C   0  0  0  0  0  2  0  0  0  0  0  0
  -19.1680  -28.8500   23.3340 C   0  0  0  0  0  0  0  0  0  0  0  0
  -18.9540  -30.0990   23.9590 C   0  0  0  0  0  3  0  0  0  0  0  0
  -17.6520  -30.5970   24.1490 C   0  0  0  0  0  3  0  0  0  0  0  0
  -16.5430  -29.8440   23.7240 C   0  0  0  0  0  3  0  0  0  0  0  0
  -16.7410  -28.5970   23.1030 C   0  0  0  0  0  3  0  0  0  0  0  0
  -25.8900  -32.5140   23.8890 C   0  0  0  0  0  3  0  0  0  0  0  0
  -26.3890  -31.7410   25.1720 C   0  0  1  0  0  0  0  0  0  0  0  0
  -25.2800  -31.5020   26.2240 C   0  0  0  0  0  1  0  0  0  0  0  0
  -26.9790  -30.3650   24.7900 C   0  0  0  0  0  1  0  0  0  0  0  0
  -27.5300  -32.5350   25.8510 C   0  0  0  0  0  1  0  0  0  0  0  0
  -25.5790  -33.9130   24.2220 N   0  0  0  0  0  0  0  0  0  0  0  0
  -25.8850  -34.9680   23.4560 C   0  0  0  0  0  0  0  0  0  0  0  0
  -26.5270  -34.8660   22.4060 O   0  0  0  0  0  0  0  0  0  0  0  0
  -25.0080  -34.0650   25.0400 H   0  0  0  0  0  0  0  0  0  0  0  0
  -24.1320  -36.7490   23.1580 C   0  0  0  0  0  1  0  0  0  0  0  0
  -25.4060  -36.3550   23.9250 C   0  0  0  0  0  3  0  0  0  0  0  0
  -27.5520  -37.2720   24.6870 C   0  0  0  0  0  1  0  0  0  0  0  0
  -26.4250  -37.4160   23.7700 N   0  0  0  0  0  0  0  0  0  0  0  0
  -26.0150  -38.3350   23.9150 H   0  0  0  0  0  0  0  0  0  0  0  0
  2  5  1  0
  3  1  1  0
  4  2  2  0
  4  6  1  0
  5 15  1  0
  5  1  2  0
  6  3  2  0
  7 15  1  0
  8 13  1  0
  9 10  1  0
  9  8  1  0
 11 10  1  0
 11 20  1  0
 11 12  1  0
 13  7  1  0
 13 12  1  0
 14  7  2  0
 15 16  1  0
 17 18  2  0
 18 37  1  0
 19 18  1  0
 19 22  1  0
 20 21  1  0
 20 17  1  0
 21 19  2  0
 22 23  1  0
 23 24  2  0
 25 28  1  0
 25 24  1  0
 26 25  2  0
 27 26  1  0
 27 22  2  0
 28 29  1  0
 29 30  1  0
 30 31  2  0
 32 31  1  0
 32 36  1  0
 33 32  2  0
 34 29  2  0
 34 33  1  0
 35 34  1  0
 37 38  1  0
 38 41  1  0
 38 40  1  0
 39 37  2  0
 42 43  1  0
 42 17  1  0
 44 42  1  0
 45  6  1  0
 46 45  1  0
 47 48  1  0
 47 46  2  0
 49 60  2  0
 50 48  1  0
 50 55  1  0
 51 59  1  0
 51 61  1  0
 52 58  1  0
 52 54  1  0
 53 59  1  0
 54 53  1  0
 55 54  2  0
 56 50  2  0
 57 56  1  0
 57 52  2  0
 58 51  1  0
 59 49  1  0
 61 63  2  0
 62 61  1  0
 64 62  1  0
 65 74  2  0
 65 70  1  0
 66 62  1  0
 66 70  1  0
 67 66  1  0
 68 69  1  0
 68 67  1  0
 69 65  1  0
 70 71  2  0
 71 72  1  0
 73 72  2  0
 74 73  1  0
 75 49  1  0
 75 80  1  0
 75 76  1  0
 76 79  1  1
 76 77  1  0
 78 76  1  0
 80 83  1  0
 81 85  1  0
 81 80  1  0
 82 81  2  0
 85 84  1  0
 87 88  1  0
 87 85  1  0
 87 86  1  0
M  ISO  4   7 100  15 100  47 101  48 101
M  END
>  <TORSDO>  (24) 
F 19

>  <SCORE>  (24) 
-14.020

>  <name>  (24) 
23

>  <ligand_id>  (24) 
23

>  <original_smiles>  (24) 
[H]c1c([H])c([H])c2c(c1[H])C([H])([H])C([H])([H])C([H])([H])C2([H])N([H])C(=O)C1([H])N(C(=O)C([H])(N([H])C(=O)C([H])(N([H])C([H])([H])[H])C([H])([H])[H])C(C([H])([H])[H])(C([H])([H])[H])C([H])([H])[H])C([H])([H])c2c([H])c(OC([H])([H])C([H])([H])Oc3c([H])c([H])c(N([H])C(=O)N4C([H])([H])C([H])([H])C([H])([H])C([H])(n5nc(-c6c([H])c([H])c(Oc7c([H])c([H])c(F)c([H])c7F)c([H])c6[H])c(C(=O)N([H])[H])c5N([H])[H])C4([H])[H])c([H])c3[H])c([H])c([H])c2C1([H])[H]

>  <smiles>  (24) 
[H]c1c([H])c([H])c2c(c1[H])C([H])([H])C([H])([H])C([H])([H])C2([H])N([H])C(=O)C1([H])N(C(=O)C([H])(N([H])C(=O)C([H])(N([H])C([H])([H])[H])C([H])([H])[H])C(C([H])([H])[H])(C([H])([H])[H])C([H])([H])[H])C([H])([H])c2c([H])c(OC([H])([H])C([H])([H])Oc3c([H])c([H])c(N([H])C(=O)N4C([H])([H])C([H])([H])C([H])([H])C([H])(n5nc(-c6c([H])c([H])c(Oc7c([H])c([H])c(F)c([H])c7F)c([H])c6[H])c(C(=O)N([H])[H])c5N([H])[H])C4([H])[H])c([H])c3[H])c([H])c([H])c2C1([H])[H]

$$$$
24:0:0
     RDKit          3D

 81 85  0  0  1  0  0  0  0  0999 V2000
  -28.1090  -24.6470   20.3000 O   0  0  0  0  0  1  0  0  0  0  0  0
  -24.7100  -31.7810   23.1610 C   0  0  0  0  0  0  0  0  0  0  0  0
  -27.2070  -26.1440   20.2640 C   0  0  0  0  0  0  0  0  0  0  0  0
  -23.5560  -30.3680   21.5220 C   0  0  0  0  0  3  0  0  0  0  0  0
  -25.0090  -28.5810   20.1690 C   0  0  0  0  0  0  0  0  0  0  0  0
  -26.1560  -30.3130   21.5020 C   0  0  0  0  0  2  0  0  0  0  0  0
  -26.2110  -28.8120   20.8490 C   0  0  0  0  0  0  0  0  0  0  0  0
  -27.2590  -27.6460   20.8460 C   0  0  0  0  0  3  0  0  0  0  0  0
  -25.9680  -26.2870   19.5230 C   0  0  0  0  0  3  0  0  0  0  0  0
  -24.9660  -27.3480   19.4800 C   0  0  0  0  0  3  0  0  0  0  0  0
  -23.8360  -29.6140   20.1780 C   0  0  0  0  0  2  0  0  0  0  0  0
  -24.8390  -30.8700   22.1140 N   0  0  0  0  0  0  0  0  0  0  0  0
  -23.6010  -32.1150   23.6230 O   0  0  0  0  0  0  0  0  0  0  0  0
  -22.7620  -29.4580   22.5040 C   0  0  0  0  0  0  0  0  0  0  0  0
  -21.4220  -29.3560   22.3730 N   0  0  0  0  0  0  0  0  0  0  0  0
  -23.3780  -28.8290   23.3670 O   0  0  0  0  0  0  0  0  0  0  0  0
  -20.9670  -29.9120   21.6630 H   0  0  0  0  0  0  0  0  0  0  0  0
  -17.9970  -28.2130   22.9010 C   0  0  0  0  0  0  0  0  0  0  0  0
  -20.5670  -28.4380   23.1430 C   0  0  0  0  0  3  0  0  0  0  0  0
  -20.6330  -27.0060   22.5600 C   0  0  0  0  0  2  0  0  0  0  0  0
  -19.5210  -26.7160   21.5460 C   0  0  0  0  0  2  0  0  0  0  0  0
  -18.1460  -26.8740   22.1990 C   0  0  0  0  0  2  0  0  0  0  0  0
  -19.1320  -28.9550   23.3290 C   0  0  0  0  0  0  0  0  0  0  0  0
  -18.9320  -30.2040   23.9560 C   0  0  0  0  0  3  0  0  0  0  0  0
  -17.6350  -30.7130   24.1530 C   0  0  0  0  0  3  0  0  0  0  0  0
  -16.5160  -29.9710   23.7350 C   0  0  0  0  0  3  0  0  0  0  0  0
  -16.6980  -28.7220   23.1160 C   0  0  0  0  0  3  0  0  0  0  0  0
  -25.9400  -32.4590   23.8420 C   0  0  0  0  0  3  0  0  0  0  0  0
  -25.5980  -33.8650   24.1720 N   0  0  0  0  0  0  0  0  0  0  0  0
  -25.9200  -34.9450   23.4450 C   0  0  0  0  0  0  0  0  0  0  0  0
  -26.5760  -34.8640   22.4040 O   0  0  0  0  0  0  0  0  0  0  0  0
  -25.0070  -33.9990   24.9800 H   0  0  0  0  0  0  0  0  0  0  0  0
  -24.1680  -36.7480   23.1980 C   0  0  0  0  0  1  0  0  0  0  0  0
  -25.4480  -36.3330   23.9420 C   0  0  0  0  0  3  0  0  0  0  0  0
  -27.6060  -37.2470   24.6880 C   0  0  0  0  0  1  0  0  0  0  0  0
  -26.4650  -37.3980   23.7880 N   0  0  0  0  0  0  0  0  0  0  0  0
  -26.0550  -38.3150   23.9480 H   0  0  0  0  0  0  0  0  0  0  0  0
  -26.3960  -31.7200   25.1620 C   0  0  1  0  0  0  0  0  0  0  0  0
  -25.2580  -31.5140   26.1910 C   0  0  0  0  0  1  0  0  0  0  0  0
  -26.9880  -30.3300   24.8490 C   0  0  0  0  0  1  0  0  0  0  0  0
  -27.5230  -32.5250   25.8520 C   0  0  0  0  0  1  0  0  0  0  0  0
  -28.1400  -22.5480   20.1630 C   0  0  0  0  0 15  0  0  0  0  0  0
  -29.1420  -20.4180   20.2160 C   0  0  0  0  0 15  0  0  0  0  0  0
  -29.9010  -16.6470   20.0860 C   0  0  0  0  0  0  0  0  0  0  0  0
  -30.2300  -13.8900   19.2940 C   0  0  0  0  0  2  0  0  0  0  0  0
  -29.4480  -13.0530   18.1990 C   0  0  0  0  0  2  0  0  0  0  0  0
  -28.1340  -12.4820   18.7300 C   0  0  0  0  0  2  0  0  0  0  0  0
  -27.5010  -13.5140   19.6750 C   0  0  0  0  0  3  0  0  0  0  0  0
  -28.4750  -14.2100   20.6950 C   0  0  0  0  0  2  0  0  0  0  0  0
  -29.4550  -15.1290   19.9600 N   0  0  0  0  0  0  0  0  0  0  0  0
  -31.1430  -16.3980   20.0040 O   0  0  0  0  0  0  0  0  0  0  0  0
  -29.2570  -18.3100   20.1340 N   0  0  0  0  0  2  0  0  0  0  0  0
  -30.2580  -18.4710   20.1320 H   0  0  0  0  0  0  0  0  0  0  0  0
  -25.1600  -13.9200   20.5080 C   0  0  0  0  0  0  0  0  0  0  0  0
  -24.1280  -13.1120   20.8810 C   0  0  0  0  0  0  0  0  0  0  0  0
  -24.6260  -11.7720   20.8220 C   0  0  0  0  0  0  0  0  0  0  0  0
  -26.2240  -13.0860   20.2420 N   0  0  0  0  0  0  0  0  0  0  0  0
  -25.9190  -11.7780   20.4820 N   0  0  0  0  0  0  0  0  0  0  0  0
  -23.9140  -10.4950   21.0120 C   0  0  0  0  0  0  0  0  0  0  0  0
  -24.3570   -9.5290   21.9420 C   0  0  0  0  0  3  0  0  0  0  0  0
  -23.6350   -8.3280   22.1300 C   0  0  0  0  0  3  0  0  0  0  0  0
  -22.4560   -8.0830   21.3870 C   0  0  0  0  0  0  0  0  0  0  0  0
  -22.0290   -9.0390   20.4470 C   0  0  0  0  0  3  0  0  0  0  0  0
  -22.7510  -10.2310   20.2590 C   0  0  0  0  0  3  0  0  0  0  0  0
  -21.7070   -6.9350   21.4820 O   0  0  0  0  0  0  0  0  0  0  0  0
  -21.6700   -6.1910   22.6350 C   0  0  0  0  0  0  0  0  0  0  0  0
  -21.2140   -6.7320   23.8560 C   0  0  0  0  0  3  0  0  0  0  0  0
  -21.1260   -5.9140   25.0000 C   0  0  0  0  0  3  0  0  0  0  0  0
  -21.4850   -4.5540   24.9250 C   0  0  0  0  0  0  0  0  0  0  0  0
  -21.9340   -4.0110   23.7070 C   0  0  0  0  0  3  0  0  0  0  0  0
  -22.0220   -4.8270   22.5660 C   0  0  0  0  0  0  0  0  0  0  0  0
  -22.4340   -4.2930   21.3900 F   0  0  0  0  0  0  0  0  0  0  0  0
  -21.3950   -3.7660   26.0220 F   0  0  0  0  0  0  0  0  0  0  0  0
  -22.7270  -13.5620   21.1730 C   0  0  0  0  0  0  0  0  0  0  0  0
  -22.0260  -12.8570   22.0520 N   0  0  0  0  0  0  0  0  0  0  0  0
  -22.2670  -14.5820   20.6590 O   0  0  0  0  0  0  0  0  0  0  0  0
  -22.4140  -12.0340   22.4890 H   0  0  0  0  0  0  0  0  0  0  0  0
  -21.0880  -13.1430   22.2910 H   0  0  0  0  0  0  0  0  0  0  0  0
  -25.2790  -15.2960   20.3350 N   0  0  0  0  0  0  0  0  0  0  0  0
  -24.4980  -15.9290   20.4650 H   0  0  0  0  0  0  0  0  0  0  0  0
  -26.1180  -15.7610   20.0090 H   0  0  0  0  0  0  0  0  0  0  0  0
  2 13  2  0
  3  1  1  0
  3  8  1  0
  4 12  1  0
  4 14  1  0
  5 11  1  0
  5  7  1  0
  6 12  1  0
  7  6  1  0
  8  7  2  0
  9  3  2  0
 10  9  1  0
 10  5  2  0
 11  4  1  0
 12  2  1  0
 14 16  2  0
 15 14  1  0
 17 15  1  0
 18 27  2  0
 18 23  1  0
 19 15  1  0
 19 23  1  0
 20 19  1  0
 21 22  1  0
 21 20  1  0
 22 18  1  0
 23 24  2  0
 24 25  1  0
 26 25  2  0
 27 26  1  0
 28  2  1  0
 28 29  1  0
 28 38  1  0
 29 32  1  0
 30 34  1  0
 30 29  1  0
 31 30  2  0
 34 33  1  0
 36 34  1  0
 36 37  1  0
 36 35  1  0
 38 41  1  1
 38 39  1  0
 40 38  1  0
 44 52  1  0
 45 50  1  0
 46 47  1  0
 46 45  1  0
 48 47  1  0
 48 57  1  0
 48 49  1  0
 50 44  1  0
 50 49  1  0
 51 44  2  0
 53 52  1  0
 54 55  2  0
 55 74  1  0
 56 55  1  0
 56 59  1  0
 57 58  1  0
 57 54  1  0
 58 56  2  0
 59 60  1  0
 60 61  2  0
 62 65  1  0
 62 61  1  0
 63 62  2  0
 64 63  1  0
 64 59  2  0
 65 66  1  0
 66 67  1  0
 67 68  2  0
 69 68  1  0
 69 73  1  0
 70 69  2  0
 71 66  2  0
 71 70  1  0
 72 71  1  0
 74 75  1  0
 75 78  1  0
 75 77  1  0
 76 74  2  0
 79 80  1  0
 79 54  1  0
 81 79  1  0
M  ISO  4   1 101  42 101  44 100  52 100
M  END
>  <TORSDO>  (25) 
F 17

>  <SCORE>  (25) 
-16.141

>  <name>  (25) 
24

>  <ligand_id>  (25) 
24

>  <original_smiles>  (25) 
[H]c1c([H])c([H])c2c(c1[H])C([H])([H])C([H])([H])C([H])([H])C2([H])N([H])C(=O)C1([H])N(C(=O)C([H])(N([H])C(=O)C([H])(N([H])C([H])([H])[H])C([H])([H])[H])C(C([H])([H])[H])(C([H])([H])[H])C([H])([H])[H])C([H])([H])c2c([H])c(OC([H])([H])C([H])([H])N([H])C(=O)N3C([H])([H])C([H])([H])C([H])([H])C([H])(n4nc(-c5c([H])c([H])c(Oc6c([H])c([H])c(F)c([H])c6F)c([H])c5[H])c(C(=O)N([H])[H])c4N([H])[H])C3([H])[H])c([H])c([H])c2C1([H])[H]

>  <smiles>  (25) 
[H]c1c([H])c([H])c2c(c1[H])C([H])([H])C([H])([H])C([H])([H])C2([H])N([H])C(=O)C1([H])N(C(=O)C([H])(N([H])C(=O)C([H])(N([H])C([H])([H])[H])C([H])([H])[H])C(C([H])([H])[H])(C([H])([H])[H])C([H])([H])[H])C([H])([H])c2c([H])c(OC([H])([H])C([H])([H])N([H])C(=O)N3C([H])([H])C([H])([H])C([H])([H])C([H])(n4nc(-c5c([H])c([H])c(Oc6c([H])c([H])c(F)c([H])c6F)c([H])c5[H])c(C(=O)N([H])[H])c4N([H])[H])C3([H])[H])c([H])c([H])c2C1([H])[H]

$$$$
25:0:0
     RDKit          3D

 83 90  0  0  1  0  0  0  0  0999 V2000
  -27.9490  -23.9120   20.2000 C   0  0  0  0  0  3  0  0  0  0  0  0
  -28.1500  -25.6420   20.2980 O   0  0  0  0  0  0  0  0  0  0  0  0
  -24.6720  -31.8880   23.2420 C   0  0  0  0  0  0  0  0  0  0  0  0
  -27.1710  -26.8340   20.2470 C   0  0  0  0  0  0  0  0  0  0  0  0
  -23.4710  -30.4970   21.6080 C   0  0  0  0  0  3  0  0  0  0  0  0
  -24.9060  -28.8480   20.1930 C   0  0  0  0  0  0  0  0  0  0  0  0
  -26.0490  -30.6390   21.4750 C   0  0  0  0  0  2  0  0  0  0  0  0
  -26.1040  -29.2100   20.8200 C   0  0  0  0  0  0  0  0  0  0  0  0
  -27.2230  -28.2300   20.8150 C   0  0  0  0  0  3  0  0  0  0  0  0
  -25.9390  -26.6690   19.5680 C   0  0  0  0  0  3  0  0  0  0  0  0
  -24.8600  -27.6020   19.5430 C   0  0  0  0  0  3  0  0  0  0  0  0
  -23.7020  -29.8000   20.2370 C   0  0  0  0  0  2  0  0  0  0  0  0
  -24.7550  -31.0400   22.1610 N   0  0  0  0  0  0  0  0  0  0  0  0
  -23.5830  -32.1920   23.7560 O   0  0  0  0  0  0  0  0  0  0  0  0
  -22.7560  -29.5220   22.5800 C   0  0  0  0  0  0  0  0  0  0  0  0
  -21.4230  -29.3690   22.4550 N   0  0  0  0  0  0  0  0  0  0  0  0
  -23.4110  -28.8980   23.4200 O   0  0  0  0  0  0  0  0  0  0  0  0
  -20.9460  -29.9220   21.7570 H   0  0  0  0  0  0  0  0  0  0  0  0
  -18.0330  -28.1690   22.9680 C   0  0  0  0  0  0  0  0  0  0  0  0
  -20.5930  -28.4390   23.2300 C   0  0  0  0  0  3  0  0  0  0  0  0
  -20.6940  -27.0020   22.6640 C   0  0  0  0  0  2  0  0  0  0  0  0
  -19.5940  -26.6750   21.6500 C   0  0  0  0  0  2  0  0  0  0  0  0
  -18.2110  -26.8200   22.2910 C   0  0  0  0  0  2  0  0  0  0  0  0
  -19.1500  -28.9350   23.3940 C   0  0  0  0  0  0  0  0  0  0  0  0
  -18.9270  -30.1950   23.9910 C   0  0  0  0  0  3  0  0  0  0  0  0
  -17.6200  -30.6890   24.1620 C   0  0  0  0  0  3  0  0  0  0  0  0
  -16.5170  -29.9210   23.7490 C   0  0  0  0  0  3  0  0  0  0  0  0
  -16.7250  -28.6620   23.1580 C   0  0  0  0  0  3  0  0  0  0  0  0
  -25.9420  -32.5310   23.8780 C   0  0  0  0  0  3  0  0  0  0  0  0
  -26.4400  -31.7670   25.1680 C   0  0  1  0  0  0  0  0  0  0  0  0
  -25.3350  -31.5460   26.2290 C   0  0  0  0  0  1  0  0  0  0  0  0
  -27.0170  -30.3800   24.8050 C   0  0  0  0  0  1  0  0  0  0  0  0
  -27.5910  -32.5580   25.8350 C   0  0  0  0  0  1  0  0  0  0  0  0
  -25.6270  -33.9320   24.2180 N   0  0  0  0  0  0  0  0  0  0  0  0
  -25.9330  -34.9970   23.4640 C   0  0  0  0  0  0  0  0  0  0  0  0
  -26.5690  -34.9020   22.4100 O   0  0  0  0  0  0  0  0  0  0  0  0
  -25.0570  -34.0770   25.0370 H   0  0  0  0  0  0  0  0  0  0  0  0
  -24.1800  -36.7890   23.2110 C   0  0  0  0  0  1  0  0  0  0  0  0
  -25.4650  -36.3850   23.9520 C   0  0  0  0  0  3  0  0  0  0  0  0
  -27.6320  -37.2910   24.6730 C   0  0  0  0  0  1  0  0  0  0  0  0
  -26.4840  -37.4450   23.7830 N   0  0  0  0  0  0  0  0  0  0  0  0
  -26.0790  -38.3630   23.9460 H   0  0  0  0  0  0  0  0  0  0  0  0
  -28.9470  -22.2690   20.2790 C   0  0  0  0  0  3  0  0  0  0  0  0
  -28.7110  -20.3580   20.2370 C   0  0  0  0  0  3  0  0  0  0  0  0
  -29.7530  -18.7430   20.2450 C   0  0  0  0  0  3  0  0  0  0  0  0
  -30.2820  -15.6460   20.1480 C   0  0  0  0  0  0  0  0  0  0  0  0
  -30.3500  -13.1330   19.2860 C   0  0  0  0  0  2  0  0  0  0  0  0
  -29.4300  -12.7740   18.0850 C   0  0  0  0  0  2  0  0  0  0  0  0
  -28.0130  -12.4240   18.5630 C   0  0  0  0  0  2  0  0  0  0  0  0
  -27.5300  -13.4030   19.6600 C   0  0  0  0  0  3  0  0  0  0  0  0
  -28.5860  -13.6800   20.7550 C   0  0  0  0  0  2  0  0  0  0  0  0
  -29.7510  -14.2930   20.0790 N   0  0  0  0  0  0  0  0  0  0  0  0
  -31.5110  -15.5990   19.9480 O   0  0  0  0  0  0  0  0  0  0  0  0
  -29.5270  -16.9940   20.2480 N   0  0  0  0  0  0  0  0  0  0  0  0
  -28.5450  -16.7820   20.3500 H   0  0  0  0  0  0  0  0  0  0  0  0
  -25.1770  -13.9060   20.4730 C   0  0  0  0  0  0  0  0  0  0  0  0
  -24.1340  -13.1120   20.8550 C   0  0  0  0  0  0  0  0  0  0  0  0
  -24.6200  -11.7680   20.8040 C   0  0  0  0  0  0  0  0  0  0  0  0
  -26.2270  -13.0500   20.2020 N   0  0  0  0  0  0  0  0  0  0  0  0
  -25.9070  -11.7560   20.4690 N   0  0  0  0  0  0  0  0  0  0  0  0
  -23.9110  -10.4960   20.9970 C   0  0  0  0  0  0  0  0  0  0  0  0
  -24.3510   -9.5380   21.9370 C   0  0  0  0  0  3  0  0  0  0  0  0
  -23.6360   -8.3340   22.1190 C   0  0  0  0  0  3  0  0  0  0  0  0
  -22.4690   -8.0770   21.3610 C   0  0  0  0  0  0  0  0  0  0  0  0
  -22.0480   -9.0240   20.4100 C   0  0  0  0  0  3  0  0  0  0  0  0
  -22.7630  -10.2200   20.2260 C   0  0  0  0  0  3  0  0  0  0  0  0
  -21.7270   -6.9240   21.4530 O   0  0  0  0  0  0  0  0  0  0  0  0
  -21.6590   -6.2030   22.6170 C   0  0  0  0  0  0  0  0  0  0  0  0
  -21.1670   -6.7650   23.8150 C   0  0  0  0  0  3  0  0  0  0  0  0
  -21.0490   -5.9670   24.9700 C   0  0  0  0  0  3  0  0  0  0  0  0
  -21.4130   -4.6090   24.9290 C   0  0  0  0  0  0  0  0  0  0  0  0
  -21.8990   -4.0450   23.7360 C   0  0  0  0  0  3  0  0  0  0  0  0
  -22.0180   -4.8400   22.5820 C   0  0  0  0  0  0  0  0  0  0  0  0
  -22.4660   -4.2870   21.4300 F   0  0  0  0  0  0  0  0  0  0  0  0
  -21.2940   -3.8400   26.0380 F   0  0  0  0  0  0  0  0  0  0  0  0
  -22.7360  -13.5700   21.1460 C   0  0  0  0  0  0  0  0  0  0  0  0
  -22.0320  -12.8660   22.0240 N   0  0  0  0  0  0  0  0  0  0  0  0
  -22.2780  -14.5880   20.6300 O   0  0  0  0  0  0  0  0  0  0  0  0
  -22.4170  -12.0420   22.4630 H   0  0  0  0  0  0  0  0  0  0  0  0
  -21.0930  -13.1550   22.2630 H   0  0  0  0  0  0  0  0  0  0  0  0
  -25.3150  -15.2810   20.3020 N   0  0  0  0  0  0  0  0  0  0  0  0
  -24.5370  -15.9190   20.4270 H   0  0  0  0  0  0  0  0  0  0  0  0
  -26.1390  -15.7310   19.9280 H   0  0  0  0  0  0  0  0  0  0  0  0
  1 43  2  0
  1  2  1  0
  3 14  2  0
  4  2  1  0
  4  9  1  0
  5 13  1  0
  5 15  1  0
  6 12  1  0
  6  8  1  0
  7 13  1  0
  8  7  1  0
  9  8  2  0
 10  4  2  0
 11 10  1  0
 11  6  2  0
 12  5  1  0
 13  3  1  0
 15 17  2  0
 16 15  1  0
 18 16  1  0
 19 28  2  0
 19 24  1  0
 20 16  1  0
 20 24  1  0
 21 20  1  0
 22 23  1  0
 22 21  1  0
 23 19  1  0
 24 25  2  0
 25 26  1  0
 27 26  2  0
 28 27  1  0
 29  3  1  0
 29 34  1  0
 29 30  1  0
 30 33  1  1
 30 31  1  0
 32 30  1  0
 34 37  1  0
 35 39  1  0
 35 34  1  0
 36 35  2  0
 39 38  1  0
 41 42  1  0
 41 39  1  0
 41 40  1  0
 44 45  2  0
 44 43  1  0
 45 54  1  0
 46 54  1  0
 47 52  1  0
 48 49  1  0
 48 47  1  0
 50 49  1  0
 50 59  1  0
 50 51  1  0
 52 46  1  0
 52 51  1  0
 53 46  2  0
 54 55  1  0
 56 57  2  0
 57 76  1  0
 58 57  1  0
 58 61  1  0
 59 60  1  0
 59 56  1  0
 60 58  2  0
 61 62  1  0
 62 63  2  0
 64 67  1  0
 64 63  1  0
 65 64  2  0
 66 65  1  0
 66 61  2  0
 67 68  1  0
 68 69  1  0
 69 70  2  0
 71 70  1  0
 71 75  1  0
 72 71  2  0
 73 68  2  0
 73 72  1  0
 74 73  1  0
 76 77  1  0
 77 80  1  0
 77 79  1  0
 78 76  2  0
 81 82  1  0
 81 56  1  0
 83 81  1  0
M  ISO  4   1 101   2 101  46 100  54 100
M  END
>  <TORSDO>  (26) 
F 19

>  <SCORE>  (26) 
-16.287

>  <name>  (26) 
25

>  <ligand_id>  (26) 
25

>  <original_smiles>  (26) 
[H]c1c([H])c([H])c2c(c1[H])C([H])([H])C([H])([H])C([H])([H])C2([H])N([H])C(=O)C1([H])N(C(=O)C([H])(N([H])C(=O)C([H])(N([H])C([H])([H])[H])C([H])([H])[H])C(C([H])([H])[H])(C([H])([H])[H])C([H])([H])[H])C([H])([H])c2c([H])c(OC([H])([H])C([H])([H])C([H])([H])C([H])([H])N([H])C(=O)N3C([H])([H])C([H])([H])C([H])([H])C([H])(n4nc(-c5c([H])c([H])c(Oc6c([H])c([H])c(F)c([H])c6F)c([H])c5[H])c(C(=O)N([H])[H])c4N([H])[H])C3([H])[H])c([H])c([H])c2C1([H])[H]

>  <smiles>  (26) 
[H]c1c([H])c([H])c2c(c1[H])C([H])([H])C([H])([H])C([H])([H])C2([H])N([H])C(=O)C1([H])N(C(=O)C([H])(N([H])C(=O)C([H])(N([H])C([H])([H])[H])C([H])([H])[H])C(C([H])([H])[H])(C([H])([H])[H])C([H])([H])[H])C([H])([H])c2c([H])c(OC([H])([H])C([H])([H])C([H])([H])C([H])([H])N([H])C(=O)N3C([H])([H])C([H])([H])C([H])([H])C([H])(n4nc(-c5c([H])c([H])c(Oc6c([H])c([H])c(F)c([H])c6F)c([H])c5[H])c(C(=O)N([H])[H])c4N([H])[H])C3([H])[H])c([H])c([H])c2C1([H])[H]

$$$$
26:0:0
     RDKit          3D

 87 94  0  0  1  0  0  0  0  0999 V2000
  -28.7720  -22.3010   20.6730 C   0  0  0  0  0  0  0  0  0  0  0  0
  -29.4360  -21.1750   20.2270 N   0  0  0  0  0  0  0  0  0  0  0  0
  -27.9390  -22.1940   21.5740 O   0  0  0  0  0  0  0  0  0  0  0  0
  -30.0620  -21.3270   19.4460 H   0  0  0  0  0  0  0  0  0  0  0  0
  -29.1100  -23.7690   20.1450 C   0  0  0  0  0  2  0  0  0  0  0  0
  -27.9700  -24.9050   20.1440 C   0  0  0  0  0  2  0  0  0  0  0  0
  -28.2640  -26.3820   20.1560 O   0  0  0  0  0  0  0  0  0  0  0  0
  -24.6140  -31.8830   23.2240 C   0  0  0  0  0  0  0  0  0  0  0  0
  -27.1680  -27.2770   20.1360 C   0  0  0  0  0  0  0  0  0  0  0  0
  -23.3930  -30.4870   21.6020 C   0  0  0  0  0  3  0  0  0  0  0  0
  -24.8210  -28.9340   20.1600 C   0  0  0  0  0  0  0  0  0  0  0  0
  -25.9400  -30.7810   21.3990 C   0  0  0  0  0  2  0  0  0  0  0  0
  -26.0040  -29.4020   20.7460 C   0  0  0  0  0  0  0  0  0  0  0  0
  -27.1810  -28.5870   20.7240 C   0  0  0  0  0  3  0  0  0  0  0  0
  -25.9540  -26.8780   19.5280 C   0  0  0  0  0  3  0  0  0  0  0  0
  -24.8010  -27.6780   19.5430 C   0  0  0  0  0  3  0  0  0  0  0  0
  -23.5920  -29.8170   20.2200 C   0  0  0  0  0  2  0  0  0  0  0  0
  -24.6690  -31.0690   22.1290 N   0  0  0  0  0  0  0  0  0  0  0  0
  -23.5350  -32.1640   23.7650 O   0  0  0  0  0  0  0  0  0  0  0  0
  -22.7380  -29.4680   22.5660 C   0  0  0  0  0  0  0  0  0  0  0  0
  -21.4130  -29.2840   22.4430 N   0  0  0  0  0  0  0  0  0  0  0  0
  -23.4220  -28.8460   23.3820 O   0  0  0  0  0  0  0  0  0  0  0  0
  -20.9200  -29.8350   21.7540 H   0  0  0  0  0  0  0  0  0  0  0  0
  -18.0410  -28.0730   22.9530 C   0  0  0  0  0  0  0  0  0  0  0  0
  -20.5980  -28.3490   23.2200 C   0  0  0  0  0  3  0  0  0  0  0  0
  -20.7090  -26.9140   22.6540 C   0  0  0  0  0  2  0  0  0  0  0  0
  -19.6080  -26.5760   21.6440 C   0  0  0  0  0  2  0  0  0  0  0  0
  -18.2260  -26.7190   22.2880 C   0  0  0  0  0  2  0  0  0  0  0  0
  -19.1550  -28.8450   23.3750 C   0  0  0  0  0  0  0  0  0  0  0  0
  -18.9300  -30.1130   23.9540 C   0  0  0  0  0  3  0  0  0  0  0  0
  -17.6210  -30.6050   24.1210 C   0  0  0  0  0  3  0  0  0  0  0  0
  -16.5210  -29.8290   23.7170 C   0  0  0  0  0  3  0  0  0  0  0  0
  -16.7330  -28.5660   23.1360 C   0  0  0  0  0  3  0  0  0  0  0  0
  -25.9020  -32.5170   23.8330 C   0  0  0  0  0  3  0  0  0  0  0  0
  -25.5900  -33.9120   24.1730 N   0  0  0  0  0  0  0  0  0  0  0  0
  -25.9060  -34.9720   23.4170 C   0  0  0  0  0  0  0  0  0  0  0  0
  -26.5610  -34.8790   22.3750 O   0  0  0  0  0  0  0  0  0  0  0  0
  -25.0090  -34.0590   24.9850 H   0  0  0  0  0  0  0  0  0  0  0  0
  -24.1630  -36.7600   23.1040 C   0  0  0  0  0  1  0  0  0  0  0  0
  -25.4200  -36.3560   23.8910 C   0  0  0  0  0  3  0  0  0  0  0  0
  -27.5670  -37.2440   24.6860 C   0  0  0  0  0  1  0  0  0  0  0  0
  -26.4450  -37.4160   23.7650 N   0  0  0  0  0  0  0  0  0  0  0  0
  -26.0390  -38.3320   23.9310 H   0  0  0  0  0  0  0  0  0  0  0  0
  -26.4330  -31.7420   25.1000 C   0  0  1  0  0  0  0  0  0  0  0  0
  -25.3530  -31.5010   26.1810 C   0  0  0  0  0  1  0  0  0  0  0  0
  -27.0130  -30.3650   24.7000 C   0  0  0  0  0  1  0  0  0  0  0  0
  -27.5890  -32.5360   25.7510 C   0  0  0  0  0  1  0  0  0  0  0  0
  -29.6280  -19.8580   20.9690 C   0  0  0  0  0  3  0  0  0  0  0  0
  -29.5790  -18.4310   20.2230 C   0  0  0  0  0  3  0  0  0  0  0  0
  -30.2000  -17.1640   21.0000 C   0  0  0  0  0  2  0  0  0  0  0  0
  -29.7470  -15.7780   20.7400 O   0  0  0  0  0  0  0  0  0  0  0  0
  -30.6120  -14.6940   20.3990 C   0  0  0  0  0  0  0  0  0  0  0  0
  -30.3680  -12.4290   19.3500 C   0  0  0  0  0  2  0  0  0  0  0  0
  -29.4210  -12.5630   18.1350 C   0  0  0  0  0  2  0  0  0  0  0  0
  -27.9470  -12.4180   18.5670 C   0  0  0  0  0  2  0  0  0  0  0  0
  -27.5920  -13.2870   19.8010 C   0  0  0  0  0  3  0  0  0  0  0  0
  -28.6430  -13.1460   20.9190 C   0  0  0  0  0  2  0  0  0  0  0  0
  -29.9550  -13.4400   20.3380 N   0  0  0  0  0  0  0  0  0  0  0  0
  -31.7790  -14.8580   20.0420 O   0  0  0  0  0  0  0  0  0  0  0  0
  -25.2030  -13.8920   20.5200 C   0  0  0  0  0  0  0  0  0  0  0  0
  -24.1340  -13.1230   20.8900 C   0  0  0  0  0  0  0  0  0  0  0  0
  -24.5930  -11.7710   20.8680 C   0  0  0  0  0  0  0  0  0  0  0  0
  -26.2440  -13.0100   20.2890 N   0  0  0  0  0  0  0  0  0  0  0  0
  -25.8820  -11.7280   20.5600 N   0  0  0  0  0  0  0  0  0  0  0  0
  -23.8630  -10.5120   21.0650 C   0  0  0  0  0  0  0  0  0  0  0  0
  -24.3040   -9.5340   21.9840 C   0  0  0  0  0  3  0  0  0  0  0  0
  -23.5710   -8.3420   22.1670 C   0  0  0  0  0  3  0  0  0  0  0  0
  -22.3830   -8.1170   21.4320 C   0  0  0  0  0  0  0  0  0  0  0  0
  -21.9620   -9.0830   20.5010 C   0  0  0  0  0  3  0  0  0  0  0  0
  -22.6950  -10.2670   20.3170 C   0  0  0  0  0  3  0  0  0  0  0  0
  -21.6230   -6.9770   21.5250 O   0  0  0  0  0  0  0  0  0  0  0  0
  -21.6050   -6.2140   22.6660 C   0  0  0  0  0  0  0  0  0  0  0  0
  -21.2390   -6.7550   23.9170 C   0  0  0  0  0  3  0  0  0  0  0  0
  -21.1670   -5.9220   25.0510 C   0  0  0  0  0  3  0  0  0  0  0  0
  -21.4490   -4.5470   24.9340 C   0  0  0  0  0  0  0  0  0  0  0  0
  -21.8080   -4.0050   23.6880 C   0  0  0  0  0  3  0  0  0  0  0  0
  -21.8820   -4.8370   22.5560 C   0  0  0  0  0  0  0  0  0  0  0  0
  -22.2080   -4.3050   21.3520 F   0  0  0  0  0  0  0  0  0  0  0  0
  -21.3730   -3.7450   26.0200 F   0  0  0  0  0  0  0  0  0  0  0  0
  -22.7380  -13.6070   21.1560 C   0  0  0  0  0  0  0  0  0  0  0  0
  -22.0080  -12.9210   22.0280 N   0  0  0  0  0  0  0  0  0  0  0  0
  -22.3050  -14.6330   20.6320 O   0  0  0  0  0  0  0  0  0  0  0  0
  -22.3710  -12.0920   22.4750 H   0  0  0  0  0  0  0  0  0  0  0  0
  -21.0730  -13.2330   22.2540 H   0  0  0  0  0  0  0  0  0  0  0  0
  -25.3770  -15.2610   20.3380 N   0  0  0  0  0  0  0  0  0  0  0  0
  -24.6250  -15.9320   20.4590 H   0  0  0  0  0  0  0  0  0  0  0  0
  -26.2440  -15.6910   20.0380 H   0  0  0  0  0  0  0  0  0  0  0  0
  1  3  2  0
  2  1  1  0
  2 48  1  0
  4  2  1  0
  5  1  1  0
  6  5  1  0
  6  7  1  0
  8 19  2  0
  9  7  1  0
  9 14  1  0
 10 18  1  0
 10 20  1  0
 11 17  1  0
 11 13  1  0
 12 18  1  0
 13 12  1  0
 14 13  2  0
 15 16  1  0
 15  9  2  0
 16 11  2  0
 17 10  1  0
 18  8  1  0
 20 22  2  0
 21 20  1  0
 23 21  1  0
 24 33  2  0
 24 29  1  0
 25 21  1  0
 25 29  1  0
 26 25  1  0
 27 28  1  0
 27 26  1  0
 28 24  1  0
 29 30  2  0
 30 31  1  0
 32 31  2  0
 33 32  1  0
 34  8  1  0
 34 35  1  0
 34 44  1  0
 35 38  1  0
 36 40  1  0
 36 35  1  0
 37 36  2  0
 40 39  1  0
 42 40  1  0
 42 43  1  0
 42 41  1  0
 44 47  1  1
 44 45  1  0
 46 44  1  0
 49 48  2  0
 49 50  1  0
 51 50  1  0
 52 51  1  0
 53 58  1  0
 54 55  1  0
 54 53  1  0
 56 55  1  0
 56 63  1  0
 56 57  1  0
 58 52  1  0
 58 57  1  0
 59 52  2  0
 60 61  2  0
 61 80  1  0
 62 61  1  0
 62 65  1  0
 63 60  1  0
 63 64  1  0
 64 62  2  0
 65 66  1  0
 66 67  2  0
 68 71  1  0
 68 67  1  0
 69 68  2  0
 70 69  1  0
 70 65  2  0
 71 72  1  0
 72 73  1  0
 73 74  2  0
 75 74  1  0
 75 79  1  0
 76 75  2  0
 77 72  2  0
 77 76  1  0
 78 77  1  0
 80 81  1  0
 81 84  1  0
 81 83  1  0
 82 80  2  0
 85 86  1  0
 85 60  1  0
 87 85  1  0
M  ISO  4   6 101   7 101  51 100  52 100
M  END
>  <TORSDO>  (27) 
F 22

>  <SCORE>  (27) 
-13.001

>  <name>  (27) 
26

>  <ligand_id>  (27) 
26

>  <original_smiles>  (27) 
[H]c1c([H])c([H])c2c(c1[H])C([H])([H])C([H])([H])C([H])([H])C2([H])N([H])C(=O)C1([H])N(C(=O)C([H])(N([H])C(=O)C([H])(N([H])C([H])([H])[H])C([H])([H])[H])C(C([H])([H])[H])(C([H])([H])[H])C([H])([H])[H])C([H])([H])c2c([H])c(OC([H])([H])C([H])([H])C(=O)N([H])C([H])([H])C([H])([H])C([H])([H])OC(=O)N3C([H])([H])C([H])([H])C([H])([H])C([H])(n4nc(-c5c([H])c([H])c(Oc6c([H])c([H])c(F)c([H])c6F)c([H])c5[H])c(C(=O)N([H])[H])c4N([H])[H])C3([H])[H])c([H])c([H])c2C1([H])[H]

>  <smiles>  (27) 
[H]c1c([H])c([H])c2c(c1[H])C([H])([H])C([H])([H])C([H])([H])C2([H])N([H])C(=O)C1([H])N(C(=O)C([H])(N([H])C(=O)C([H])(N([H])C([H])([H])[H])C([H])([H])[H])C(C([H])([H])[H])(C([H])([H])[H])C([H])([H])[H])C([H])([H])c2c([H])c(OC([H])([H])C([H])([H])C(=O)N([H])C([H])([H])C([H])([H])C([H])([H])OC(=O)N3C([H])([H])C([H])([H])C([H])([H])C([H])(n4nc(-c5c([H])c([H])c(Oc6c([H])c([H])c(F)c([H])c6F)c([H])c5[H])c(C(=O)N([H])[H])c4N([H])[H])C3([H])[H])c([H])c([H])c2C1([H])[H]

$$$$
27:0:0
     RDKit          3D

 84 91  0  0  1  0  0  0  0  0999 V2000
  -28.7200  -22.8200   19.9390 C   0  0  0  0  0  2  0  0  0  0  0  0
  -28.9750  -21.2040   20.6560 C   0  0  0  0  0  2  0  0  0  0  0  0
  -29.1120  -19.5470   20.0050 C   0  0  0  0  0  2  0  0  0  0  0  0
  -29.8670  -18.0600   20.6330 C   0  0  0  0  0  2  0  0  0  0  0  0
  -30.3960  -15.2010   20.2700 C   0  0  0  0  0  0  0  0  0  0  0  0
  -30.3500  -12.7810   19.3600 C   0  0  0  0  0  2  0  0  0  0  0  0
  -29.4120  -12.6020   18.1410 C   0  0  0  0  0  2  0  0  0  0  0  0
  -27.9650  -12.3420   18.5970 C   0  0  0  0  0  2  0  0  0  0  0  0
  -27.5320  -13.3000   19.7350 C   0  0  0  0  0  3  0  0  0  0  0  0
  -28.5930  -13.4210   20.8470 C   0  0  0  0  0  2  0  0  0  0  0  0
  -29.8190  -13.9100   20.2000 N   0  0  0  0  0  0  0  0  0  0  0  0
  -31.6200  -15.2130   20.0850 O   0  0  0  0  0  0  0  0  0  0  0  0
  -29.6200  -16.4480   20.3470 N   0  0  0  0  0  0  0  0  0  0  0  0
  -28.6340  -16.2300   20.3490 H   0  0  0  0  0  0  0  0  0  0  0  0
  -25.1640  -13.8590   20.5070 C   0  0  0  0  0  0  0  0  0  0  0  0
  -24.1070  -13.0800   20.8850 C   0  0  0  0  0  0  0  0  0  0  0  0
  -24.5780  -11.7320   20.8550 C   0  0  0  0  0  0  0  0  0  0  0  0
  -26.2080  -12.9850   20.2570 N   0  0  0  0  0  0  0  0  0  0  0  0
  -25.8670  -11.7000   20.5360 N   0  0  0  0  0  0  0  0  0  0  0  0
  -23.8560  -10.4680   21.0510 C   0  0  0  0  0  0  0  0  0  0  0  0
  -24.3040   -9.4940   21.9700 C   0  0  0  0  0  3  0  0  0  0  0  0
  -23.5790   -8.2970   22.1560 C   0  0  0  0  0  3  0  0  0  0  0  0
  -22.3920   -8.0650   21.4220 C   0  0  0  0  0  0  0  0  0  0  0  0
  -21.9620   -9.0270   20.4910 C   0  0  0  0  0  3  0  0  0  0  0  0
  -22.6880  -10.2150   20.3040 C   0  0  0  0  0  3  0  0  0  0  0  0
  -21.6370   -6.9210   21.5170 O   0  0  0  0  0  0  0  0  0  0  0  0
  -21.6230   -6.1620   22.6600 C   0  0  0  0  0  0  0  0  0  0  0  0
  -21.2490   -6.7030   23.9090 C   0  0  0  0  0  3  0  0  0  0  0  0
  -21.1820   -5.8710   25.0460 C   0  0  0  0  0  3  0  0  0  0  0  0
  -21.4760   -4.4990   24.9330 C   0  0  0  0  0  0  0  0  0  0  0  0
  -21.8430   -3.9570   23.6880 C   0  0  0  0  0  3  0  0  0  0  0  0
  -21.9120   -4.7860   22.5540 C   0  0  0  0  0  0  0  0  0  0  0  0
  -22.2450   -4.2550   21.3530 F   0  0  0  0  0  0  0  0  0  0  0  0
  -21.4040   -3.6980   26.0210 F   0  0  0  0  0  0  0  0  0  0  0  0
  -22.7100  -13.5540   21.1580 C   0  0  0  0  0  0  0  0  0  0  0  0
  -21.9870  -12.8610   22.0310 N   0  0  0  0  0  0  0  0  0  0  0  0
  -22.2690  -14.5760   20.6330 O   0  0  0  0  0  0  0  0  0  0  0  0
  -22.3580  -12.0360   22.4770 H   0  0  0  0  0  0  0  0  0  0  0  0
  -21.0490  -13.1600   22.2560 H   0  0  0  0  0  0  0  0  0  0  0  0
  -25.3190  -15.2300   20.3220 N   0  0  0  0  0  0  0  0  0  0  0  0
  -24.5440  -15.8760   20.4320 H   0  0  0  0  0  0  0  0  0  0  0  0
  -26.1490  -15.6710   19.9480 H   0  0  0  0  0  0  0  0  0  0  0  0
  -28.0700  -24.3570   20.5690 C   0  0  0  0  0  2  0  0  0  0  0  0
  -28.2440  -25.9400   20.2190 O   0  0  0  0  0  0  0  0  0  0  0  0
  -24.6360  -31.8510   23.1910 C   0  0  0  0  0  0  0  0  0  0  0  0
  -27.2030  -26.9910   20.2220 C   0  0  0  0  0  0  0  0  0  0  0  0
  -23.4440  -30.4430   21.5620 C   0  0  0  0  0  3  0  0  0  0  0  0
  -24.8930  -28.8310   20.1590 C   0  0  0  0  0  0  0  0  0  0  0  0
  -26.0070  -30.6690   21.4100 C   0  0  0  0  0  2  0  0  0  0  0  0
  -26.0800  -29.2570   20.7700 C   0  0  0  0  0  0  0  0  0  0  0  0
  -27.2330  -28.3580   20.7710 C   0  0  0  0  0  3  0  0  0  0  0  0
  -25.9840  -26.6990   19.5730 C   0  0  0  0  0  3  0  0  0  0  0  0
  -24.8670  -27.5710   19.5410 C   0  0  0  0  0  3  0  0  0  0  0  0
  -23.6730  -29.7490   20.1920 C   0  0  0  0  0  2  0  0  0  0  0  0
  -24.7180  -31.0140   22.1080 N   0  0  0  0  0  0  0  0  0  0  0  0
  -23.5480  -32.1440   23.7100 O   0  0  0  0  0  0  0  0  0  0  0  0
  -22.7520  -29.4530   22.5340 C   0  0  0  0  0  0  0  0  0  0  0  0
  -21.4230  -29.2840   22.4070 N   0  0  0  0  0  0  0  0  0  0  0  0
  -23.4180  -28.8350   23.3680 O   0  0  0  0  0  0  0  0  0  0  0  0
  -20.9400  -29.8330   21.7090 H   0  0  0  0  0  0  0  0  0  0  0  0
  -18.0440  -28.0620   22.9000 C   0  0  0  0  0  0  0  0  0  0  0  0
  -20.5990  -28.3520   23.1830 C   0  0  0  0  0  3  0  0  0  0  0  0
  -20.7170  -26.9120   22.6300 C   0  0  0  0  0  2  0  0  0  0  0  0
  -19.6270  -26.5660   21.6110 C   0  0  0  0  0  2  0  0  0  0  0  0
  -18.2380  -26.7060   22.2410 C   0  0  0  0  0  2  0  0  0  0  0  0
  -19.1530  -28.8410   23.3270 C   0  0  0  0  0  0  0  0  0  0  0  0
  -18.9150  -30.1070   23.9070 C   0  0  0  0  0  3  0  0  0  0  0  0
  -17.6030  -30.5950   24.0600 C   0  0  0  0  0  3  0  0  0  0  0  0
  -16.5100  -29.8140   23.6450 C   0  0  0  0  0  3  0  0  0  0  0  0
  -16.7310  -28.5490   23.0720 C   0  0  0  0  0  3  0  0  0  0  0  0
  -25.9090  -32.4980   23.8200 C   0  0  0  0  0  3  0  0  0  0  0  0
  -26.4210  -31.7340   25.1030 C   0  0  1  0  0  0  0  0  0  0  0  0
  -25.3240  -31.5030   26.1710 C   0  0  0  0  0  1  0  0  0  0  0  0
  -27.0060  -30.3530   24.7280 C   0  0  0  0  0  1  0  0  0  0  0  0
  -27.5690  -32.5320   25.7650 C   0  0  0  0  0  1  0  0  0  0  0  0
  -25.5860  -33.8960   24.1570 N   0  0  0  0  0  0  0  0  0  0  0  0
  -25.9120  -34.9590   23.4110 C   0  0  0  0  0  0  0  0  0  0  0  0
  -26.5790  -34.8680   22.3770 O   0  0  0  0  0  0  0  0  0  0  0  0
  -24.9920  -34.0390   24.9610 H   0  0  0  0  0  0  0  0  0  0  0  0
  -24.1740  -36.7540   23.0900 C   0  0  0  0  0  1  0  0  0  0  0  0
  -25.4240  -36.3440   23.8850 C   0  0  0  0  0  3  0  0  0  0  0  0
  -27.5630  -37.2340   24.7020 C   0  0  0  0  0  1  0  0  0  0  0  0
  -26.4510  -37.4030   23.7700 N   0  0  0  0  0  0  0  0  0  0  0  0
  -26.0430  -38.3200   23.9280 H   0  0  0  0  0  0  0  0  0  0  0  0
  1 43  1  0
  1  2  1  0
  3  4  1  0
  3  2  1  0
  5 13  1  0
  6 11  1  0
  7  8  1  0
  7  6  1  0
  9  8  1  0
  9 18  1  0
  9 10  1  0
 11  5  1  0
 11 10  1  0
 12  5  2  0
 13 14  1  0
 13  4  1  0
 15 16  2  0
 16 35  1  0
 17 16  1  0
 17 20  1  0
 18 15  1  0
 18 19  1  0
 19 17  2  0
 20 21  1  0
 21 22  2  0
 23 26  1  0
 23 22  1  0
 24 23  2  0
 25 24  1  0
 25 20  2  0
 26 27  1  0
 27 28  1  0
 28 29  2  0
 30 29  1  0
 30 34  1  0
 31 30  2  0
 32 27  2  0
 32 31  1  0
 33 32  1  0
 35 36  1  0
 36 39  1  0
 36 38  1  0
 37 35  2  0
 40 41  1  0
 40 15  1  0
 42 40  1  0
 44 46  1  0
 44 43  1  0
 45 56  2  0
 46 51  1  0
 47 55  1  0
 47 57  1  0
 48 54  1  0
 48 50  1  0
 49 55  1  0
 50 51  2  0
 50 49  1  0
 52 46  2  0
 53 52  1  0
 53 48  2  0
 54 47  1  0
 55 45  1  0
 57 59  2  0
 58 57  1  0
 60 58  1  0
 61 70  2  0
 61 66  1  0
 62 58  1  0
 62 66  1  0
 63 62  1  0
 64 65  1  0
 64 63  1  0
 65 61  1  0
 66 67  2  0
 67 68  1  0
 69 68  2  0
 70 69  1  0
 71 45  1  0
 71 76  1  0
 71 72  1  0
 72 75  1  1
 72 73  1  0
 74 72  1  0
 76 79  1  0
 77 81  1  0
 77 76  1  0
 78 77  2  0
 81 80  1  0
 83 81  1  0
 83 84  1  0
 83 82  1  0
M  ISO  4   5 100  13 100  43 101  44 101
M  END
>  <TORSDO>  (28) 
F 20

>  <SCORE>  (28) 
-15.593

>  <name>  (28) 
27

>  <ligand_id>  (28) 
27

>  <original_smiles>  (28) 
[H]c1c([H])c([H])c2c(c1[H])C([H])([H])C([H])([H])C([H])([H])C2([H])N([H])C(=O)C1([H])N(C(=O)C([H])(N([H])C(=O)C([H])(N([H])C([H])([H])[H])C([H])([H])[H])C(C([H])([H])[H])(C([H])([H])[H])C([H])([H])[H])C([H])([H])c2c([H])c(OC([H])([H])C([H])([H])C([H])([H])C([H])([H])C([H])([H])N([H])C(=O)N3C([H])([H])C([H])([H])C([H])([H])C([H])(n4nc(-c5c([H])c([H])c(Oc6c([H])c([H])c(F)c([H])c6F)c([H])c5[H])c(C(=O)N([H])[H])c4N([H])[H])C3([H])[H])c([H])c([H])c2C1([H])[H]

>  <smiles>  (28) 
[H]c1c([H])c([H])c2c(c1[H])C([H])([H])C([H])([H])C([H])([H])C2([H])N([H])C(=O)C1([H])N(C(=O)C([H])(N([H])C(=O)C([H])(N([H])C([H])([H])[H])C([H])([H])[H])C(C([H])([H])[H])(C([H])([H])[H])C([H])([H])[H])C([H])([H])c2c([H])c(OC([H])([H])C([H])([H])C([H])([H])C([H])([H])C([H])([H])N([H])C(=O)N3C([H])([H])C([H])([H])C([H])([H])C([H])(n4nc(-c5c([H])c([H])c(Oc6c([H])c([H])c(F)c([H])c6F)c([H])c5[H])c(C(=O)N([H])[H])c4N([H])[H])C3([H])[H])c([H])c([H])c2C1([H])[H]

$$$$
28:0:0
     RDKit          3D

 84 91  0  0  1  0  0  0  0  0999 V2000
  -28.7200  -22.8200   19.9390 C   0  0  0  0  0  2  0  0  0  0  0  0
  -28.9750  -21.2040   20.6560 C   0  0  0  0  0  2  0  0  0  0  0  0
  -29.1120  -19.5470   20.0050 C   0  0  0  0  0  2  0  0  0  0  0  0
  -29.8670  -18.0600   20.6330 C   0  0  0  0  0  2  0  0  0  0  0  0
  -30.3960  -15.2010   20.2700 C   0  0  0  0  0  0  0  0  0  0  0  0
  -30.3500  -12.7810   19.3600 C   0  0  0  0  0  2  0  0  0  0  0  0
  -29.4120  -12.6020   18.1410 C   0  0  0  0  0  2  0  0  0  0  0  0
  -27.9650  -12.3420   18.5970 C   0  0  0  0  0  2  0  0  0  0  0  0
  -27.5320  -13.3000   19.7350 C   0  0  0  0  0  3  0  0  0  0  0  0
  -28.5930  -13.4210   20.8470 C   0  0  0  0  0  2  0  0  0  0  0  0
  -29.8190  -13.9100   20.2000 N   0  0  0  0  0  0  0  0  0  0  0  0
  -31.6200  -15.2130   20.0850 O   0  0  0  0  0  0  0  0  0  0  0  0
  -29.6200  -16.4480   20.3470 N   0  0  0  0  0  0  0  0  0  0  0  0
  -28.6340  -16.2300   20.3490 H   0  0  0  0  0  0  0  0  0  0  0  0
  -25.1640  -13.8590   20.5070 C   0  0  0  0  0  0  0  0  0  0  0  0
  -24.1070  -13.0800   20.8850 C   0  0  0  0  0  0  0  0  0  0  0  0
  -24.5780  -11.7320   20.8550 C   0  0  0  0  0  0  0  0  0  0  0  0
  -26.2080  -12.9850   20.2570 N   0  0  0  0  0  0  0  0  0  0  0  0
  -25.8670  -11.7000   20.5360 N   0  0  0  0  0  0  0  0  0  0  0  0
  -23.8560  -10.4680   21.0510 C   0  0  0  0  0  0  0  0  0  0  0  0
  -24.3040   -9.4940   21.9700 C   0  0  0  0  0  3  0  0  0  0  0  0
  -23.5790   -8.2970   22.1560 C   0  0  0  0  0  3  0  0  0  0  0  0
  -22.3920   -8.0650   21.4220 C   0  0  0  0  0  0  0  0  0  0  0  0
  -21.9620   -9.0270   20.4910 C   0  0  0  0  0  3  0  0  0  0  0  0
  -22.6880  -10.2150   20.3040 C   0  0  0  0  0  3  0  0  0  0  0  0
  -21.6370   -6.9210   21.5170 O   0  0  0  0  0  0  0  0  0  0  0  0
  -21.6230   -6.1620   22.6600 C   0  0  0  0  0  0  0  0  0  0  0  0
  -21.2490   -6.7030   23.9090 C   0  0  0  0  0  3  0  0  0  0  0  0
  -21.1820   -5.8710   25.0460 C   0  0  0  0  0  3  0  0  0  0  0  0
  -21.4760   -4.4990   24.9330 C   0  0  0  0  0  0  0  0  0  0  0  0
  -21.8430   -3.9570   23.6880 C   0  0  0  0  0  3  0  0  0  0  0  0
  -21.9120   -4.7860   22.5540 C   0  0  0  0  0  0  0  0  0  0  0  0
  -22.2450   -4.2550   21.3530 F   0  0  0  0  0  0  0  0  0  0  0  0
  -21.4040   -3.6980   26.0210 F   0  0  0  0  0  0  0  0  0  0  0  0
  -22.7100  -13.5540   21.1580 C   0  0  0  0  0  0  0  0  0  0  0  0
  -21.9870  -12.8610   22.0310 N   0  0  0  0  0  0  0  0  0  0  0  0
  -22.2690  -14.5760   20.6330 O   0  0  0  0  0  0  0  0  0  0  0  0
  -22.3580  -12.0360   22.4770 H   0  0  0  0  0  0  0  0  0  0  0  0
  -21.0490  -13.1600   22.2560 H   0  0  0  0  0  0  0  0  0  0  0  0
  -25.3190  -15.2300   20.3220 N   0  0  0  0  0  0  0  0  0  0  0  0
  -24.5440  -15.8760   20.4320 H   0  0  0  0  0  0  0  0  0  0  0  0
  -26.1490  -15.6710   19.9480 H   0  0  0  0  0  0  0  0  0  0  0  0
  -28.0700  -24.3570   20.5690 C   0  0  0  0  0  2  0  0  0  0  0  0
  -28.2440  -25.9400   20.2190 O   0  0  0  0  0  0  0  0  0  0  0  0
  -24.6360  -31.8510   23.1910 C   0  0  0  0  0  0  0  0  0  0  0  0
  -27.2030  -26.9910   20.2220 C   0  0  0  0  0  0  0  0  0  0  0  0
  -23.4440  -30.4430   21.5620 C   0  0  0  0  0  3  0  0  0  0  0  0
  -24.8930  -28.8310   20.1590 C   0  0  0  0  0  0  0  0  0  0  0  0
  -26.0070  -30.6690   21.4100 C   0  0  0  0  0  2  0  0  0  0  0  0
  -26.0800  -29.2570   20.7700 C   0  0  0  0  0  0  0  0  0  0  0  0
  -27.2330  -28.3580   20.7710 C   0  0  0  0  0  3  0  0  0  0  0  0
  -25.9840  -26.6990   19.5730 C   0  0  0  0  0  3  0  0  0  0  0  0
  -24.8670  -27.5710   19.5410 C   0  0  0  0  0  3  0  0  0  0  0  0
  -23.6730  -29.7490   20.1920 C   0  0  0  0  0  2  0  0  0  0  0  0
  -24.7180  -31.0140   22.1080 N   0  0  0  0  0  0  0  0  0  0  0  0
  -23.5480  -32.1440   23.7100 O   0  0  0  0  0  0  0  0  0  0  0  0
  -22.7520  -29.4530   22.5340 C   0  0  0  0  0  0  0  0  0  0  0  0
  -21.4230  -29.2840   22.4070 N   0  0  0  0  0  0  0  0  0  0  0  0
  -23.4180  -28.8350   23.3680 O   0  0  0  0  0  0  0  0  0  0  0  0
  -20.9400  -29.8330   21.7090 H   0  0  0  0  0  0  0  0  0  0  0  0
  -18.0440  -28.0620   22.9000 C   0  0  0  0  0  0  0  0  0  0  0  0
  -20.5990  -28.3520   23.1830 C   0  0  0  0  0  3  0  0  0  0  0  0
  -20.7170  -26.9120   22.6300 C   0  0  0  0  0  2  0  0  0  0  0  0
  -19.6270  -26.5660   21.6110 C   0  0  0  0  0  2  0  0  0  0  0  0
  -18.2380  -26.7060   22.2410 C   0  0  0  0  0  2  0  0  0  0  0  0
  -19.1530  -28.8410   23.3270 C   0  0  0  0  0  0  0  0  0  0  0  0
  -18.9150  -30.1070   23.9070 C   0  0  0  0  0  3  0  0  0  0  0  0
  -17.6030  -30.5950   24.0600 C   0  0  0  0  0  3  0  0  0  0  0  0
  -16.5100  -29.8140   23.6450 C   0  0  0  0  0  3  0  0  0  0  0  0
  -16.7310  -28.5490   23.0720 C   0  0  0  0  0  3  0  0  0  0  0  0
  -25.9090  -32.4980   23.8200 C   0  0  0  0  0  3  0  0  0  0  0  0
  -26.4210  -31.7340   25.1030 C   0  0  1  0  0  0  0  0  0  0  0  0
  -25.3240  -31.5030   26.1710 C   0  0  0  0  0  1  0  0  0  0  0  0
  -27.0060  -30.3530   24.7280 C   0  0  0  0  0  1  0  0  0  0  0  0
  -27.5690  -32.5320   25.7650 C   0  0  0  0  0  1  0  0  0  0  0  0
  -25.5860  -33.8960   24.1570 N   0  0  0  0  0  0  0  0  0  0  0  0
  -25.9120  -34.9590   23.4110 C   0  0  0  0  0  0  0  0  0  0  0  0
  -26.5790  -34.8680   22.3770 O   0  0  0  0  0  0  0  0  0  0  0  0
  -24.9920  -34.0390   24.9610 H   0  0  0  0  0  0  0  0  0  0  0  0
  -24.1740  -36.7540   23.0900 C   0  0  0  0  0  1  0  0  0  0  0  0
  -25.4240  -36.3440   23.8850 C   0  0  0  0  0  3  0  0  0  0  0  0
  -27.5630  -37.2340   24.7020 C   0  0  0  0  0  1  0  0  0  0  0  0
  -26.4510  -37.4030   23.7700 N   0  0  0  0  0  0  0  0  0  0  0  0
  -26.0430  -38.3200   23.9280 H   0  0  0  0  0  0  0  0  0  0  0  0
  1 43  1  0
  1  2  1  0
  3  4  1  0
  3  2  1  0
  5 13  1  0
  6 11  1  0
  7  8  1  0
  7  6  1  0
  9  8  1  0
  9 18  1  0
  9 10  1  0
 11  5  1  0
 11 10  1  0
 12  5  2  0
 13 14  1  0
 13  4  1  0
 15 16  2  0
 16 35  1  0
 17 16  1  0
 17 20  1  0
 18 15  1  0
 18 19  1  0
 19 17  2  0
 20 21  1  0
 21 22  2  0
 23 26  1  0
 23 22  1  0
 24 23  2  0
 25 24  1  0
 25 20  2  0
 26 27  1  0
 27 28  1  0
 28 29  2  0
 30 29  1  0
 30 34  1  0
 31 30  2  0
 32 27  2  0
 32 31  1  0
 33 32  1  0
 35 36  1  0
 36 39  1  0
 36 38  1  0
 37 35  2  0
 40 41  1  0
 40 15  1  0
 42 40  1  0
 44 46  1  0
 44 43  1  0
 45 56  2  0
 46 51  1  0
 47 55  1  0
 47 57  1  0
 48 54  1  0
 48 50  1  0
 49 55  1  0
 50 51  2  0
 50 49  1  0
 52 46  2  0
 53 52  1  0
 53 48  2  0
 54 47  1  0
 55 45  1  0
 57 59  2  0
 58 57  1  0
 60 58  1  0
 61 70  2  0
 61 66  1  0
 62 58  1  0
 62 66  1  0
 63 62  1  0
 64 65  1  0
 64 63  1  0
 65 61  1  0
 66 67  2  0
 67 68  1  0
 69 68  2  0
 70 69  1  0
 71 45  1  0
 71 76  1  0
 71 72  1  0
 72 75  1  1
 72 73  1  0
 74 72  1  0
 76 79  1  0
 77 81  1  0
 77 76  1  0
 78 77  2  0
 81 80  1  0
 83 81  1  0
 83 84  1  0
 83 82  1  0
M  ISO  4   5 100  13 100  43 101  44 101
M  END
>  <TORSDO>  (29) 
F 20

>  <SCORE>  (29) 
-15.593

>  <name>  (29) 
28

>  <ligand_id>  (29) 
28

>  <original_smiles>  (29) 
[H]c1c([H])c([H])c2c(c1[H])C([H])([H])C([H])([H])C([H])([H])C2([H])N([H])C(=O)C1([H])N(C(=O)C([H])(N([H])C(=O)C([H])(N([H])C([H])([H])[H])C([H])([H])[H])C(C([H])([H])[H])(C([H])([H])[H])C([H])([H])[H])C([H])([H])c2c([H])c(OC([H])([H])C([H])([H])C([H])([H])C([H])([H])C([H])([H])N([H])C(=O)N3C([H])([H])C([H])([H])C([H])([H])C([H])(n4nc(-c5c([H])c([H])c(Oc6c([H])c([H])c(F)c([H])c6F)c([H])c5[H])c(C(=O)N([H])[H])c4N([H])[H])C3([H])[H])c([H])c([H])c2C1([H])[H]

>  <smiles>  (29) 
[H]c1c([H])c([H])c2c(c1[H])C([H])([H])C([H])([H])C([H])([H])C2([H])N([H])C(=O)C1([H])N(C(=O)C([H])(N([H])C(=O)C([H])(N([H])C([H])([H])[H])C([H])([H])[H])C(C([H])([H])[H])(C([H])([H])[H])C([H])([H])[H])C([H])([H])c2c([H])c(OC([H])([H])C([H])([H])C([H])([H])C([H])([H])C([H])([H])N([H])C(=O)N3C([H])([H])C([H])([H])C([H])([H])C([H])(n4nc(-c5c([H])c([H])c(Oc6c([H])c([H])c(F)c([H])c6F)c([H])c5[H])c(C(=O)N([H])[H])c4N([H])[H])C3([H])[H])c([H])c([H])c2C1([H])[H]

$$$$
29:0:0
     RDKit          3D

 85 93  0  0  1  0  0  0  0  0999 V2000
  -27.8690  -20.5330   20.2500 C   0  0  0  0  0  3  0  0  0  0  0  0
  -29.9410  -20.9170   20.2420 C   0  0  0  0  0  3  0  0  0  0  0  0
  -27.5530  -22.1030   20.2650 C   0  0  0  0  0  3  0  0  0  0  0  0
  -29.6220  -22.4840   20.2590 C   0  0  0  0  0  3  0  0  0  0  0  0
  -29.1170  -19.6110   20.2350 C   0  0  0  0  0  0  0  0  0  0  0  0
  -28.3750  -23.4100   20.2720 C   0  0  0  0  0  0  0  0  0  0  0  0
  -30.1350  -16.2720   20.1640 C   0  0  0  0  0  0  0  0  0  0  0  0
  -30.4150  -13.6120   19.3740 C   0  0  0  0  0  2  0  0  0  0  0  0
  -29.5800  -12.9620   18.2160 C   0  0  0  0  0  2  0  0  0  0  0  0
  -28.2080  -12.4820   18.7050 C   0  0  0  0  0  2  0  0  0  0  0  0
  -27.6220  -13.4990   19.7000 C   0  0  0  0  0  3  0  0  0  0  0  0
  -28.6220  -14.0210   20.7740 C   0  0  0  0  0  2  0  0  0  0  0  0
  -29.6930  -14.8130   20.0790 N   0  0  0  0  0  0  0  0  0  0  0  0
  -31.3800  -16.1530   20.0280 O   0  0  0  0  0  0  0  0  0  0  0  0
  -29.3210  -17.7340   20.2220 N   0  0  0  0  0  0  0  0  0  0  0  0
  -28.3760  -17.3810   20.2740 H   0  0  0  0  0  0  0  0  0  0  0  0
  -25.2700  -13.9480   20.5120 C   0  0  0  0  0  0  0  0  0  0  0  0
  -24.2310  -13.1450   20.8780 C   0  0  0  0  0  0  0  0  0  0  0  0
  -24.7240  -11.8040   20.8200 C   0  0  0  0  0  0  0  0  0  0  0  0
  -26.3290  -13.1030   20.2440 N   0  0  0  0  0  0  0  0  0  0  0  0
  -26.0170  -11.8020   20.4920 N   0  0  0  0  0  0  0  0  0  0  0  0
  -24.0140  -10.5290   21.0000 C   0  0  0  0  0  0  0  0  0  0  0  0
  -24.4420   -9.5660   21.9410 C   0  0  0  0  0  3  0  0  0  0  0  0
  -23.7250   -8.3630   22.1140 C   0  0  0  0  0  3  0  0  0  0  0  0
  -22.5630   -8.1110   21.3470 C   0  0  0  0  0  0  0  0  0  0  0  0
  -22.1520   -9.0620   20.3960 C   0  0  0  0  0  3  0  0  0  0  0  0
  -22.8690  -10.2570   20.2220 C   0  0  0  0  0  3  0  0  0  0  0  0
  -21.8180   -6.9590   21.4280 O   0  0  0  0  0  0  0  0  0  0  0  0
  -21.7340   -6.2350   22.5910 C   0  0  0  0  0  0  0  0  0  0  0  0
  -21.2190   -6.7950   23.7800 C   0  0  0  0  0  3  0  0  0  0  0  0
  -21.0870   -5.9970   24.9340 C   0  0  0  0  0  3  0  0  0  0  0  0
  -21.4570   -4.6390   24.8980 C   0  0  0  0  0  0  0  0  0  0  0  0
  -21.9650   -4.0790   23.7130 C   0  0  0  0  0  3  0  0  0  0  0  0
  -22.1000   -4.8740   22.5620 C   0  0  0  0  0  0  0  0  0  0  0  0
  -22.5680   -4.3230   21.4150 F   0  0  0  0  0  0  0  0  0  0  0  0
  -21.3240   -3.8690   26.0030 F   0  0  0  0  0  0  0  0  0  0  0  0
  -22.8300  -13.5980   21.1600 C   0  0  0  0  0  0  0  0  0  0  0  0
  -22.1210  -12.8920   22.0330 N   0  0  0  0  0  0  0  0  0  0  0  0
  -22.3730  -14.6170   20.6430 O   0  0  0  0  0  0  0  0  0  0  0  0
  -22.5050  -12.0690   22.4740 H   0  0  0  0  0  0  0  0  0  0  0  0
  -21.1810  -13.1790   22.2660 H   0  0  0  0  0  0  0  0  0  0  0  0
  -25.4000  -15.3240   20.3460 N   0  0  0  0  0  0  0  0  0  0  0  0
  -24.6150  -15.9550   20.4640 H   0  0  0  0  0  0  0  0  0  0  0  0
  -26.2250  -15.7790   19.9790 H   0  0  0  0  0  0  0  0  0  0  0  0
  -28.2040  -25.1520   20.3060 O   0  0  0  0  0  0  0  0  0  0  0  0
  -24.6990  -31.8750   23.1860 C   0  0  0  0  0  0  0  0  0  0  0  0
  -27.2260  -26.4850   20.2890 C   0  0  0  0  0  0  0  0  0  0  0  0
  -23.5350  -30.4560   21.5570 C   0  0  0  0  0  3  0  0  0  0  0  0
  -24.9910  -28.7300   20.1880 C   0  0  0  0  0  0  0  0  0  0  0  0
  -26.1260  -30.4990   21.4920 C   0  0  0  0  0  2  0  0  0  0  0  0
  -26.1870  -29.0250   20.8520 C   0  0  0  0  0  0  0  0  0  0  0  0
  -27.2670  -27.9420   20.8620 C   0  0  0  0  0  3  0  0  0  0  0  0
  -25.9970  -26.4900   19.5550 C   0  0  0  0  0  3  0  0  0  0  0  0
  -24.9550  -27.4910   19.5150 C   0  0  0  0  0  3  0  0  0  0  0  0
  -23.8000  -29.7230   20.2050 C   0  0  0  0  0  2  0  0  0  0  0  0
  -24.8140  -30.9850   22.1290 N   0  0  0  0  0  0  0  0  0  0  0  0
  -23.5970  -32.1920   23.6700 O   0  0  0  0  0  0  0  0  0  0  0  0
  -22.7800  -29.5160   22.5370 C   0  0  0  0  0  0  0  0  0  0  0  0
  -21.4440  -29.3840   22.4100 N   0  0  0  0  0  0  0  0  0  0  0  0
  -23.4160  -28.8980   23.3940 O   0  0  0  0  0  0  0  0  0  0  0  0
  -20.9760  -29.9330   21.7010 H   0  0  0  0  0  0  0  0  0  0  0  0
  -18.0400  -28.2000   22.9360 C   0  0  0  0  0  0  0  0  0  0  0  0
  -20.6050  -28.4590   23.1850 C   0  0  0  0  0  3  0  0  0  0  0  0
  -20.6930  -27.0230   22.6170 C   0  0  0  0  0  2  0  0  0  0  0  0
  -19.5880  -26.7060   21.6050 C   0  0  0  0  0  2  0  0  0  0  0  0
  -18.2090  -26.8540   22.2510 C   0  0  0  0  0  2  0  0  0  0  0  0
  -19.1640  -28.9620   23.3590 C   0  0  0  0  0  0  0  0  0  0  0  0
  -18.9470  -30.2160   23.9670 C   0  0  0  0  0  3  0  0  0  0  0  0
  -17.6430  -30.7140   24.1500 C   0  0  0  0  0  3  0  0  0  0  0  0
  -16.5350  -29.9530   23.7380 C   0  0  0  0  0  3  0  0  0  0  0  0
  -16.7340  -28.6970   23.1370 C   0  0  0  0  0  3  0  0  0  0  0  0
  -25.9420  -32.5460   23.8440 C   0  0  0  0  0  3  0  0  0  0  0  0
  -25.6070  -33.9530   24.1650 N   0  0  0  0  0  0  0  0  0  0  0  0
  -25.9340  -35.0200   23.4240 C   0  0  0  0  0  0  0  0  0  0  0  0
  -26.5960  -34.9260   22.3880 O   0  0  0  0  0  0  0  0  0  0  0  0
  -25.0120  -34.0970   24.9680 H   0  0  0  0  0  0  0  0  0  0  0  0
  -24.1920  -36.8230   23.1260 C   0  0  0  0  0  1  0  0  0  0  0  0
  -25.4560  -36.4120   23.9000 C   0  0  0  0  0  3  0  0  0  0  0  0
  -27.5990  -37.3240   24.6860 C   0  0  0  0  0  1  0  0  0  0  0  0
  -26.4820  -37.4700   23.7570 N   0  0  0  0  0  0  0  0  0  0  0  0
  -26.0730  -38.3910   23.8940 H   0  0  0  0  0  0  0  0  0  0  0  0
  -26.4160  -31.8110   25.1610 C   0  0  1  0  0  0  0  0  0  0  0  0
  -25.2890  -31.6010   26.2010 C   0  0  0  0  0  1  0  0  0  0  0  0
  -27.0110  -30.4230   24.8420 C   0  0  0  0  0  1  0  0  0  0  0  0
  -27.5460  -32.6230   25.8390 C   0  0  0  0  0  1  0  0  0  0  0  0
  1  3  1  0
  2  4  2  0
  3  6  2  0
  4  6  1  0
  5  2  1  0
  5  1  2  0
  6 45  1  0
  7 15  1  0
  8 13  1  0
  9 10  1  0
  9  8  1  0
 11 10  1  0
 11 20  1  0
 11 12  1  0
 13  7  1  0
 13 12  1  0
 14  7  2  0
 15  5  1  0
 15 16  1  0
 17 18  2  0
 18 37  1  0
 19 18  1  0
 19 22  1  0
 20 21  1  0
 20 17  1  0
 21 19  2  0
 22 23  1  0
 23 24  2  0
 25 28  1  0
 25 24  1  0
 26 25  2  0
 27 26  1  0
 27 22  2  0
 28 29  1  0
 29 30  1  0
 30 31  2  0
 32 31  1  0
 32 36  1  0
 33 32  2  0
 34 29  2  0
 34 33  1  0
 35 34  1  0
 37 38  1  0
 38 41  1  0
 38 40  1  0
 39 37  2  0
 42 43  1  0
 42 17  1  0
 44 42  1  0
 46 57  2  0
 47 45  1  0
 47 52  1  0
 48 56  1  0
 48 58  1  0
 49 55  1  0
 49 51  1  0
 50 56  1  0
 51 52  2  0
 51 50  1  0
 53 47  2  0
 54 53  1  0
 54 49  2  0
 55 48  1  0
 56 46  1  0
 58 60  2  0
 59 58  1  0
 61 59  1  0
 62 71  2  0
 62 67  1  0
 63 59  1  0
 63 67  1  0
 64 63  1  0
 65 66  1  0
 65 64  1  0
 66 62  1  0
 67 68  2  0
 68 69  1  0
 70 69  2  0
 71 70  1  0
 72 46  1  0
 72 73  1  0
 72 82  1  0
 73 76  1  0
 74 78  1  0
 74 73  1  0
 75 74  2  0
 78 77  1  0
 80 81  1  0
 80 78  1  0
 80 79  1  0
 82 85  1  1
 82 83  1  0
 84 82  1  0
M  ISO  4   6 101   7 100  15 100  45 101
M  END
>  <TORSDO>  (30) 
F 16

>  <SCORE>  (30) 
-16.478

>  <name>  (30) 
29

>  <ligand_id>  (30) 
29

>  <original_smiles>  (30) 
[H]c1c([H])c([H])c2c(c1[H])C([H])([H])C([H])([H])C([H])([H])C2([H])N([H])C(=O)C1([H])N(C(=O)C([H])(N([H])C(=O)C([H])(N([H])C([H])([H])[H])C([H])([H])[H])C(C([H])([H])[H])(C([H])([H])[H])C([H])([H])[H])C([H])([H])c2c([H])c(Oc3c([H])c([H])c(N([H])C(=O)N4C([H])([H])C([H])([H])C([H])([H])C([H])(n5nc(-c6c([H])c([H])c(Oc7c([H])c([H])c(F)c([H])c7F)c([H])c6[H])c(C(=O)N([H])[H])c5N([H])[H])C4([H])[H])c([H])c3[H])c([H])c([H])c2C1([H])[H]

>  <smiles>  (30) 
[H]c1c([H])c([H])c2c(c1[H])C([H])([H])C([H])([H])C([H])([H])C2([H])N([H])C(=O)C1([H])N(C(=O)C([H])(N([H])C(=O)C([H])(N([H])C([H])([H])[H])C([H])([H])[H])C(C([H])([H])[H])(C([H])([H])[H])C([H])([H])[H])C([H])([H])c2c([H])c(Oc3c([H])c([H])c(N([H])C(=O)N4C([H])([H])C([H])([H])C([H])([H])C([H])(n5nc(-c6c([H])c([H])c(Oc7c([H])c([H])c(F)c([H])c7F)c([H])c6[H])c(C(=O)N([H])[H])c5N([H])[H])C4([H])[H])c([H])c3[H])c([H])c([H])c2C1([H])[H]

$$$$
30:0:0
     RDKit          3D

 89 97  0  0  1  0  0  0  0  0999 V2000
  -29.5440  -21.4810   19.8000 O   0  0  0  0  0  0  0  0  0  0  0  0
  -30.2950  -17.8220   19.2330 C   0  0  0  0  0  3  0  0  0  0  0  0
  -29.6100  -18.0620   21.5290 C   0  0  0  0  0  3  0  0  0  0  0  0
  -30.1380  -19.2310   19.0550 C   0  0  0  0  0  3  0  0  0  0  0  0
  -29.4900  -19.4810   21.3580 C   0  0  0  0  0  3  0  0  0  0  0  0
  -30.0110  -17.1830   20.4750 C   0  0  0  0  0  0  0  0  0  0  0  0
  -29.7280  -20.1090   20.1010 C   0  0  0  0  0  0  0  0  0  0  0  0
  -30.6810  -14.6900   20.0640 C   0  0  0  0  0  0  0  0  0  0  0  0
  -30.4070  -12.4780   18.9480 C   0  0  0  0  0  2  0  0  0  0  0  0
  -29.4060  -12.6530   17.7840 C   0  0  0  0  0  2  0  0  0  0  0  0
  -27.9570  -12.4770   18.2740 C   0  0  0  0  0  2  0  0  0  0  0  0
  -27.6670  -13.2830   19.5690 C   0  0  0  0  0  3  0  0  0  0  0  0
  -28.7820  -13.0970   20.6240 C   0  0  0  0  0  2  0  0  0  0  0  0
  -30.0640  -13.4630   19.9990 N   0  0  0  0  0  0  0  0  0  0  0  0
  -31.7780  -14.8690   19.5220 O   0  0  0  0  0  0  0  0  0  0  0  0
  -30.0080  -15.7210   20.6770 N   0  0  0  0  0  0  0  0  0  0  0  0
  -29.2980  -15.3940   21.3180 H   0  0  0  0  0  0  0  0  0  0  0  0
  -25.3150  -13.8610   20.4180 C   0  0  0  0  0  0  0  0  0  0  0  0
  -24.2640  -13.0810   20.8230 C   0  0  0  0  0  0  0  0  0  0  0  0
  -24.7220  -11.7300   20.7360 C   0  0  0  0  0  0  0  0  0  0  0  0
  -26.3440  -12.9850   20.1100 N   0  0  0  0  0  0  0  0  0  0  0  0
  -25.9970  -11.6970   20.3590 N   0  0  0  0  0  0  0  0  0  0  0  0
  -24.0000  -10.4630   20.9290 C   0  0  0  0  0  0  0  0  0  0  0  0
  -24.4340   -9.5050   21.8700 C   0  0  0  0  0  3  0  0  0  0  0  0
  -23.7110   -8.3070   22.0570 C   0  0  0  0  0  3  0  0  0  0  0  0
  -22.5420   -8.0580   21.3020 C   0  0  0  0  0  0  0  0  0  0  0  0
  -22.1280   -9.0050   20.3490 C   0  0  0  0  0  3  0  0  0  0  0  0
  -22.8510  -10.1940   20.1600 C   0  0  0  0  0  3  0  0  0  0  0  0
  -21.7930   -6.9100   21.3950 O   0  0  0  0  0  0  0  0  0  0  0  0
  -21.6850   -6.2140   22.5740 C   0  0  0  0  0  0  0  0  0  0  0  0
  -21.1710   -6.8070   23.7460 C   0  0  0  0  0  3  0  0  0  0  0  0
  -21.0150   -6.0350   24.9150 C   0  0  0  0  0  3  0  0  0  0  0  0
  -21.3580   -4.6720   24.9110 C   0  0  0  0  0  0  0  0  0  0  0  0
  -21.8680   -4.0770   23.7420 C   0  0  0  0  0  3  0  0  0  0  0  0
  -22.0250   -4.8450   22.5760 C   0  0  0  0  0  0  0  0  0  0  0  0
  -22.4920   -4.2620   21.4470 F   0  0  0  0  0  0  0  0  0  0  0  0
  -21.2020   -3.9290   26.0300 F   0  0  0  0  0  0  0  0  0  0  0  0
  -22.8840  -13.5550   21.1750 C   0  0  0  0  0  0  0  0  0  0  0  0
  -22.1950  -12.8410   22.0630 N   0  0  0  0  0  0  0  0  0  0  0  0
  -22.4230  -14.5940   20.7030 O   0  0  0  0  0  0  0  0  0  0  0  0
  -22.5800  -12.0020   22.4720 H   0  0  0  0  0  0  0  0  0  0  0  0
  -21.2690  -13.1360   22.3320 H   0  0  0  0  0  0  0  0  0  0  0  0
  -25.4750  -15.2350   20.2710 N   0  0  0  0  0  0  0  0  0  0  0  0
  -24.7240  -15.8930   20.4490 H   0  0  0  0  0  0  0  0  0  0  0  0
  -26.3150  -15.6820   19.9300 H   0  0  0  0  0  0  0  0  0  0  0  0
  -29.5360  -22.5380   20.8210 C   0  0  0  0  0  2  0  0  0  0  0  0
  -29.6060  -24.0830   20.3680 C   0  0  0  0  0  3  0  0  0  0  0  0
  -28.3060  -24.9980   20.2520 C   0  0  0  0  0  3  0  0  0  0  0  0
  -28.4640  -26.4780   20.2340 O   0  0  0  0  0  0  0  0  0  0  0  0
  -24.6350  -31.8460   23.2070 C   0  0  0  0  0  0  0  0  0  0  0  0
  -27.3140  -27.2920   20.1940 C   0  0  0  0  0  0  0  0  0  0  0  0
  -23.4500  -30.4330   21.5650 C   0  0  0  0  0  3  0  0  0  0  0  0
  -24.9230  -28.8770   20.1610 C   0  0  0  0  0  0  0  0  0  0  0  0
  -25.9890  -30.7640   21.3990 C   0  0  0  0  0  2  0  0  0  0  0  0
  -26.0830  -29.3840   20.7600 C   0  0  0  0  0  0  0  0  0  0  0  0
  -27.2790  -28.6040   20.7640 C   0  0  0  0  0  3  0  0  0  0  0  0
  -26.1260  -26.8340   19.5790 C   0  0  0  0  0  3  0  0  0  0  0  0
  -24.9470  -27.6060   19.5630 C   0  0  0  0  0  3  0  0  0  0  0  0
  -23.6760  -29.7400   20.1940 C   0  0  0  0  0  2  0  0  0  0  0  0
  -24.7100  -31.0330   22.1130 N   0  0  0  0  0  0  0  0  0  0  0  0
  -23.5480  -32.1220   23.7320 O   0  0  0  0  0  0  0  0  0  0  0  0
  -22.7860  -29.4210   22.5280 C   0  0  0  0  0  0  0  0  0  0  0  0
  -21.4620  -29.2400   22.3930 N   0  0  0  0  0  0  0  0  0  0  0  0
  -23.4610  -28.7970   23.3520 O   0  0  0  0  0  0  0  0  0  0  0  0
  -20.9810  -29.7870   21.6940 H   0  0  0  0  0  0  0  0  0  0  0  0
  -18.0800  -28.0600   22.8960 C   0  0  0  0  0  0  0  0  0  0  0  0
  -20.6400  -28.3050   23.1600 C   0  0  0  0  0  3  0  0  0  0  0  0
  -20.7370  -26.8770   22.5740 C   0  0  0  0  0  2  0  0  0  0  0  0
  -19.6290  -26.5640   21.5650 C   0  0  0  0  0  2  0  0  0  0  0  0
  -18.2490  -26.7140   22.2100 C   0  0  0  0  0  2  0  0  0  0  0  0
  -19.2040  -28.8150   23.3260 C   0  0  0  0  0  0  0  0  0  0  0  0
  -18.9940  -30.0760   23.9240 C   0  0  0  0  0  3  0  0  0  0  0  0
  -17.6920  -30.5810   24.1000 C   0  0  0  0  0  3  0  0  0  0  0  0
  -16.5830  -29.8240   23.6860 C   0  0  0  0  0  3  0  0  0  0  0  0
  -16.7780  -28.5660   23.0900 C   0  0  0  0  0  3  0  0  0  0  0  0
  -25.9120  -32.4860   23.8370 C   0  0  0  0  0  3  0  0  0  0  0  0
  -26.4240  -31.7160   25.1150 C   0  0  1  0  0  0  0  0  0  0  0  0
  -25.3250  -31.4660   26.1740 C   0  0  0  0  0  1  0  0  0  0  0  0
  -27.0240  -30.3450   24.7260 C   0  0  0  0  0  1  0  0  0  0  0  0
  -27.5650  -32.5170   25.7860 C   0  0  0  0  0  1  0  0  0  0  0  0
  -25.5930  -33.8820   24.1710 N   0  0  0  0  0  0  0  0  0  0  0  0
  -25.9220  -34.9400   23.4160 C   0  0  0  0  0  0  0  0  0  0  0  0
  -26.5960  -34.8420   22.3870 O   0  0  0  0  0  0  0  0  0  0  0  0
  -25.0020  -34.0290   24.9740 H   0  0  0  0  0  0  0  0  0  0  0  0
  -24.1860  -36.7230   23.0530 C   0  0  0  0  0  1  0  0  0  0  0  0
  -25.4230  -36.3230   23.8750 C   0  0  0  0  0  3  0  0  0  0  0  0
  -27.5440  -37.2150   24.7320 C   0  0  0  0  0  1  0  0  0  0  0  0
  -26.4500  -37.3830   23.7760 N   0  0  0  0  0  0  0  0  0  0  0  0
  -26.0400  -38.3000   23.9230 H   0  0  0  0  0  0  0  0  0  0  0  0
  1  7  1  0
  1 46  1  0
  2  6  1  0
  4  2  2  0
  4  7  1  0
  5  3  1  0
  6 16  1  0
  6  3  2  0
  7  5  2  0
  8 16  1  0
  9 14  1  0
 10 11  1  0
 10  9  1  0
 12 11  1  0
 12 21  1  0
 12 13  1  0
 14  8  1  0
 14 13  1  0
 15  8  2  0
 16 17  1  0
 18 19  2  0
 19 38  1  0
 20 19  1  0
 20 23  1  0
 21 22  1  0
 21 18  1  0
 22 20  2  0
 23 24  1  0
 24 25  2  0
 26 29  1  0
 26 25  1  0
 27 26  2  0
 28 27  1  0
 28 23  2  0
 29 30  1  0
 30 35  2  0
 30 31  1  0
 31 32  2  0
 33 32  1  0
 33 37  1  0
 34 33  2  0
 35 34  1  0
 36 35  1  0
 38 39  1  0
 39 42  1  0
 39 41  1  0
 40 38  2  0
 43 18  1  0
 43 44  1  0
 45 43  1  0
 47 46  1  0
 48 47  2  0
 49 48  1  0
 50 61  2  0
 51 49  1  0
 51 56  1  0
 52 60  1  0
 52 62  1  0
 53 59  1  0
 53 55  1  0
 54 60  1  0
 55 56  2  0
 55 54  1  0
 57 51  2  0
 58 57  1  0
 58 53  2  0
 59 52  1  0
 60 50  1  0
 62 64  2  0
 63 62  1  0
 65 63  1  0
 66 75  2  0
 66 71  1  0
 67 63  1  0
 67 71  1  0
 68 67  1  0
 69 70  1  0
 69 68  1  0
 70 66  1  0
 71 72  2  0
 72 73  1  0
 74 73  2  0
 75 74  1  0
 76 50  1  0
 76 81  1  0
 76 77  1  0
 77 80  1  1
 77 78  1  0
 79 77  1  0
 81 84  1  0
 82 86  1  0
 82 81  1  0
 83 82  2  0
 86 85  1  0
 88 86  1  0
 88 89  1  0
 88 87  1  0
M  ISO  4   8 100  16 100  48 101  49 101
M  END
>  <TORSDO>  (31) 
F 20

>  <SCORE>  (31) 
-13.067

>  <name>  (31) 
30

>  <ligand_id>  (31) 
30

>  <original_smiles>  (31) 
[H]c1c([H])c([H])c2c(c1[H])C([H])([H])C([H])([H])C([H])([H])C2([H])N([H])C(=O)C1([H])N(C(=O)C([H])(N([H])C(=O)C([H])(N([H])C([H])([H])[H])C([H])([H])[H])C(C([H])([H])[H])(C([H])([H])[H])C([H])([H])[H])C([H])([H])c2c([H])c(OC([H])([H])C([H])([H])C([H])([H])Oc3c([H])c([H])c(N([H])C(=O)N4C([H])([H])C([H])([H])C([H])([H])C([H])(n5nc(-c6c([H])c([H])c(Oc7c([H])c([H])c(F)c([H])c7F)c([H])c6[H])c(C(=O)N([H])[H])c5N([H])[H])C4([H])[H])c([H])c3[H])c([H])c([H])c2C1([H])[H]

>  <smiles>  (31) 
[H]c1c([H])c([H])c2c(c1[H])C([H])([H])C([H])([H])C([H])([H])C2([H])N([H])C(=O)C1([H])N(C(=O)C([H])(N([H])C(=O)C([H])(N([H])C([H])([H])[H])C([H])([H])[H])C(C([H])([H])[H])(C([H])([H])[H])C([H])([H])[H])C([H])([H])c2c([H])c(OC([H])([H])C([H])([H])C([H])([H])Oc3c([H])c([H])c(N([H])C(=O)N4C([H])([H])C([H])([H])C([H])([H])C([H])(n5nc(-c6c([H])c([H])c(Oc7c([H])c([H])c(F)c([H])c7F)c([H])c6[H])c(C(=O)N([H])[H])c5N([H])[H])C4([H])[H])c([H])c3[H])c([H])c([H])c2C1([H])[H]

$$$$
31:0:0
     RDKit          3D

 80 83  0  0  1  0  0  0  0  0999 V2000
  -24.7310  -31.7630   23.0940 C   0  0  0  0  0  0  0  0  0  0  0  0
  -27.2120  -26.2370   20.1170 C   0  0  0  0  0  0  0  0  0  0  0  0
  -23.5510  -30.3570   21.4670 C   0  0  0  0  0  3  0  0  0  0  0  0
  -24.9920  -28.6060   20.0730 C   0  0  0  0  0  0  0  0  0  0  0  0
  -26.1490  -30.3450   21.3880 C   0  0  0  0  0  2  0  0  0  0  0  0
  -26.2020  -28.8580   20.7260 C   0  0  0  0  0  0  0  0  0  0  0  0
  -27.2670  -27.7230   20.7010 C   0  0  0  0  0  3  0  0  0  0  0  0
  -25.9610  -26.3360   19.4020 C   0  0  0  0  0  3  0  0  0  0  0  0
  -24.9430  -27.3750   19.3820 C   0  0  0  0  0  3  0  0  0  0  0  0
  -23.8090  -29.6210   20.1110 C   0  0  0  0  0  2  0  0  0  0  0  0
  -24.8420  -30.8680   22.0340 N   0  0  0  0  0  0  0  0  0  0  0  0
  -23.6300  -32.0840   23.5830 O   0  0  0  0  0  0  0  0  0  0  0  0
  -22.7920  -29.4250   22.4550 C   0  0  0  0  0  0  0  0  0  0  0  0
  -21.4510  -29.3110   22.3500 N   0  0  0  0  0  0  0  0  0  0  0  0
  -23.4310  -28.7940   23.2980 O   0  0  0  0  0  0  0  0  0  0  0  0
  -20.9760  -29.8700   21.6530 H   0  0  0  0  0  0  0  0  0  0  0  0
  -18.0490  -28.1250   22.9140 C   0  0  0  0  0  0  0  0  0  0  0  0
  -20.6170  -28.3820   23.1290 C   0  0  0  0  0  3  0  0  0  0  0  0
  -20.6960  -26.9500   22.5460 C   0  0  0  0  0  2  0  0  0  0  0  0
  -19.5770  -26.6440   21.5450 C   0  0  0  0  0  2  0  0  0  0  0  0
  -18.2080  -26.7870   22.2130 C   0  0  0  0  0  2  0  0  0  0  0  0
  -19.1790  -28.8820   23.3280 C   0  0  0  0  0  0  0  0  0  0  0  0
  -18.9700  -30.1300   23.9550 C   0  0  0  0  0  3  0  0  0  0  0  0
  -17.6680  -30.6230   24.1640 C   0  0  0  0  0  3  0  0  0  0  0  0
  -16.5550  -29.8660   23.7580 C   0  0  0  0  0  3  0  0  0  0  0  0
  -16.7470  -28.6170   23.1410 C   0  0  0  0  0  3  0  0  0  0  0  0
  -25.9740  -32.4410   23.7510 C   0  0  0  0  0  3  0  0  0  0  0  0
  -25.6360  -33.8440   24.0870 N   0  0  0  0  0  0  0  0  0  0  0  0
  -25.9720  -34.9250   23.3680 C   0  0  0  0  0  0  0  0  0  0  0  0
  -26.6420  -34.8470   22.3360 O   0  0  0  0  0  0  0  0  0  0  0  0
  -25.0350  -33.9780   24.8870 H   0  0  0  0  0  0  0  0  0  0  0  0
  -24.2390  -36.7420   23.0930 C   0  0  0  0  0  1  0  0  0  0  0  0
  -25.4980  -36.3120   23.8640 C   0  0  0  0  0  3  0  0  0  0  0  0
  -27.6510  -37.1970   24.6590 C   0  0  0  0  0  1  0  0  0  0  0  0
  -26.5260  -37.3710   23.7430 N   0  0  0  0  0  0  0  0  0  0  0  0
  -26.1210  -38.2880   23.9120 H   0  0  0  0  0  0  0  0  0  0  0  0
  -26.4550  -31.7000   25.0620 C   0  0  1  0  0  0  0  0  0  0  0  0
  -25.3370  -31.4980   26.1140 C   0  0  0  0  0  1  0  0  0  0  0  0
  -27.0360  -30.3080   24.7370 C   0  0  0  0  0  1  0  0  0  0  0  0
  -27.5980  -32.5020   25.7280 C   0  0  0  0  0  1  0  0  0  0  0  0
  -28.1330  -24.7870   20.1310 O   0  0  0  0  0  1  0  0  0  0  0  0
  -28.1340  -22.7360   20.0320 C   0  0  0  0  0 15  0  0  0  0  0  0
  -29.0900  -20.6470   20.0500 C   0  0  0  0  0 15  0  0  0  0  0  0
  -29.0620  -18.5970   20.0550 O   0  0  0  0  0 15  0  0  0  0  0  0
  -30.0510  -16.5410   19.9720 C   0  0  0  0  0  2  0  0  0  0  0  0
  -30.3270  -13.7530   19.2670 C   0  0  0  0  0  2  0  0  0  0  0  0
  -29.5280  -12.9810   18.1470 C   0  0  0  0  0  2  0  0  0  0  0  0
  -28.1890  -12.4510   18.6640 C   0  0  0  0  0  2  0  0  0  0  0  0
  -27.5570  -13.4950   19.6000 C   0  0  0  0  0  3  0  0  0  0  0  0
  -28.5150  -14.1660   20.6400 C   0  0  0  0  0  2  0  0  0  0  0  0
  -29.5650  -14.9820   19.9220 N   0  0  0  0  0  0  0  0  0  0  0  0
  -31.2920  -16.3610   19.8280 O   0  0  0  0  0  1  0  0  0  0  0  0
  -25.2260  -13.9170   20.4480 C   0  0  0  0  0  0  0  0  0  0  0  0
  -24.1960  -13.1110   20.8330 C   0  0  0  0  0  0  0  0  0  0  0  0
  -24.6930  -11.7710   20.7770 C   0  0  0  0  0  0  0  0  0  0  0  0
  -26.2840  -13.0780   20.1710 N   0  0  0  0  0  0  0  0  0  0  0  0
  -25.9810  -11.7720   20.4270 N   0  0  0  0  0  0  0  0  0  0  0  0
  -23.9850  -10.4960   20.9760 C   0  0  0  0  0  0  0  0  0  0  0  0
  -24.4320   -9.5330   21.9070 C   0  0  0  0  0  3  0  0  0  0  0  0
  -23.7140   -8.3330   22.1020 C   0  0  0  0  0  3  0  0  0  0  0  0
  -22.5310   -8.0850   21.3640 C   0  0  0  0  0  0  0  0  0  0  0  0
  -22.1000   -9.0370   20.4240 C   0  0  0  0  0  3  0  0  0  0  0  0
  -22.8200  -10.2290   20.2280 C   0  0  0  0  0  3  0  0  0  0  0  0
  -21.7830   -6.9360   21.4670 O   0  0  0  0  0  0  0  0  0  0  0  0
  -21.7470   -6.2000   22.6240 C   0  0  0  0  0  0  0  0  0  0  0  0
  -21.3430   -6.7630   23.8530 C   0  0  0  0  0  3  0  0  0  0  0  0
  -21.2520   -5.9550   25.0030 C   0  0  0  0  0  3  0  0  0  0  0  0
  -21.5570   -4.5820   24.9260 C   0  0  0  0  0  0  0  0  0  0  0  0
  -21.9550   -4.0180   23.7020 C   0  0  0  0  0  3  0  0  0  0  0  0
  -22.0460   -4.8240   22.5530 C   0  0  0  0  0  0  0  0  0  0  0  0
  -22.4080   -4.2690   21.3710 F   0  0  0  0  0  0  0  0  0  0  0  0
  -21.4640   -3.8030   26.0290 F   0  0  0  0  0  0  0  0  0  0  0  0
  -22.7990  -13.5650   21.1320 C   0  0  0  0  0  0  0  0  0  0  0  0
  -22.1020  -12.8630   22.0170 N   0  0  0  0  0  0  0  0  0  0  0  0
  -22.3380  -14.5840   20.6180 O   0  0  0  0  0  0  0  0  0  0  0  0
  -22.4920  -12.0410   22.4540 H   0  0  0  0  0  0  0  0  0  0  0  0
  -21.1650  -13.1510   22.2610 H   0  0  0  0  0  0  0  0  0  0  0  0
  -25.3500  -15.2920   20.2710 N   0  0  0  0  0  0  0  0  0  0  0  0
  -24.5720  -15.9290   20.4080 H   0  0  0  0  0  0  0  0  0  0  0  0
  -26.1860  -15.7530   19.9340 H   0  0  0  0  0  0  0  0  0  0  0  0
  1 12  2  0
  2 41  1  0
  2  7  1  0
  3 11  1  0
  3 13  1  0
  4 10  1  0
  4  6  1  0
  5 11  1  0
  6  5  1  0
  7  6  2  0
  8  2  2  0
  9  8  1  0
  9  4  2  0
 10  3  1  0
 11  1  1  0
 13 15  2  0
 14 13  1  0
 16 14  1  0
 17 26  2  0
 17 22  1  0
 18 14  1  0
 18 22  1  0
 19 18  1  0
 20 21  1  0
 20 19  1  0
 21 17  1  0
 22 23  2  0
 23 24  1  0
 25 24  2  0
 26 25  1  0
 27  1  1  0
 27 28  1  0
 27 37  1  0
 28 31  1  0
 29 33  1  0
 29 28  1  0
 30 29  2  0
 33 32  1  0
 35 33  1  0
 35 36  1  0
 35 34  1  0
 37 40  1  1
 37 38  1  0
 39 37  1  0
 46 51  1  0
 47 48  1  0
 47 46  1  0
 49 48  1  0
 49 56  1  0
 49 50  1  0
 51 45  1  0
 51 50  1  0
 52 45  1  0
 53 54  2  0
 54 73  1  0
 55 54  1  0
 55 58  1  0
 56 57  1  0
 56 53  1  0
 57 55  2  0
 58 59  1  0
 59 60  2  0
 61 64  1  0
 61 60  1  0
 62 61  2  0
 63 62  1  0
 63 58  2  0
 64 65  1  0
 65 66  1  0
 66 67  2  0
 68 67  1  0
 68 72  1  0
 69 68  2  0
 70 65  2  0
 70 69  1  0
 71 70  1  0
 73 74  1  0
 74 77  1  0
 74 76  1  0
 75 73  2  0
 78 79  1  0
 78 53  1  0
 80 78  1  0
M  ISO  4  41 101  42 101  44 100  45 100
M  END
>  <TORSDO>  (32) 
F 18

>  <SCORE>  (32) 
-16.084

>  <name>  (32) 
31

>  <ligand_id>  (32) 
31

>  <original_smiles>  (32) 
[H]c1c([H])c([H])c2c(c1[H])C([H])([H])C([H])([H])C([H])([H])C2([H])N([H])C(=O)C1([H])N(C(=O)C([H])(N([H])C(=O)C([H])(N([H])C([H])([H])[H])C([H])([H])[H])C(C([H])([H])[H])(C([H])([H])[H])C([H])([H])[H])C([H])([H])c2c([H])c(OC([H])([H])C([H])([H])OC(=O)N3C([H])([H])C([H])([H])C([H])([H])C([H])(n4nc(-c5c([H])c([H])c(Oc6c([H])c([H])c(F)c([H])c6F)c([H])c5[H])c(C(=O)N([H])[H])c4N([H])[H])C3([H])[H])c([H])c([H])c2C1([H])[H]

>  <smiles>  (32) 
[H]c1c([H])c([H])c2c(c1[H])C([H])([H])C([H])([H])C([H])([H])C2([H])N([H])C(=O)C1([H])N(C(=O)C([H])(N([H])C(=O)C([H])(N([H])C([H])([H])[H])C([H])([H])[H])C(C([H])([H])[H])(C([H])([H])[H])C([H])([H])[H])C([H])([H])c2c([H])c(OC([H])([H])C([H])([H])OC(=O)N3C([H])([H])C([H])([H])C([H])([H])C([H])(n4nc(-c5c([H])c([H])c(Oc6c([H])c([H])c(F)c([H])c6F)c([H])c5[H])c(C(=O)N([H])[H])c4N([H])[H])C3([H])[H])c([H])c([H])c2C1([H])[H]

$$$$
32:0:0
     RDKit          3D

 85 93  0  0  1  0  0  0  0  0999 V2000
  -27.8690  -20.5330   20.2500 C   0  0  0  0  0  3  0  0  0  0  0  0
  -29.9410  -20.9170   20.2420 C   0  0  0  0  0  3  0  0  0  0  0  0
  -27.5530  -22.1030   20.2650 C   0  0  0  0  0  3  0  0  0  0  0  0
  -29.6220  -22.4840   20.2590 C   0  0  0  0  0  3  0  0  0  0  0  0
  -29.1170  -19.6110   20.2350 C   0  0  0  0  0  0  0  0  0  0  0  0
  -28.3750  -23.4100   20.2720 C   0  0  0  0  0  0  0  0  0  0  0  0
  -30.1350  -16.2720   20.1640 C   0  0  0  0  0  0  0  0  0  0  0  0
  -30.4150  -13.6120   19.3740 C   0  0  0  0  0  2  0  0  0  0  0  0
  -29.5800  -12.9620   18.2160 C   0  0  0  0  0  2  0  0  0  0  0  0
  -28.2080  -12.4820   18.7050 C   0  0  0  0  0  2  0  0  0  0  0  0
  -27.6220  -13.4990   19.7000 C   0  0  0  0  0  3  0  0  0  0  0  0
  -28.6220  -14.0210   20.7740 C   0  0  0  0  0  2  0  0  0  0  0  0
  -29.6930  -14.8130   20.0790 N   0  0  0  0  0  0  0  0  0  0  0  0
  -31.3800  -16.1530   20.0280 O   0  0  0  0  0  0  0  0  0  0  0  0
  -29.3210  -17.7340   20.2220 N   0  0  0  0  0  0  0  0  0  0  0  0
  -28.3760  -17.3810   20.2740 H   0  0  0  0  0  0  0  0  0  0  0  0
  -25.2700  -13.9480   20.5120 C   0  0  0  0  0  0  0  0  0  0  0  0
  -24.2310  -13.1450   20.8780 C   0  0  0  0  0  0  0  0  0  0  0  0
  -24.7240  -11.8040   20.8200 C   0  0  0  0  0  0  0  0  0  0  0  0
  -26.3290  -13.1030   20.2440 N   0  0  0  0  0  0  0  0  0  0  0  0
  -26.0170  -11.8020   20.4920 N   0  0  0  0  0  0  0  0  0  0  0  0
  -24.0140  -10.5290   21.0000 C   0  0  0  0  0  0  0  0  0  0  0  0
  -24.4420   -9.5660   21.9410 C   0  0  0  0  0  3  0  0  0  0  0  0
  -23.7250   -8.3630   22.1140 C   0  0  0  0  0  3  0  0  0  0  0  0
  -22.5630   -8.1110   21.3470 C   0  0  0  0  0  0  0  0  0  0  0  0
  -22.1520   -9.0620   20.3960 C   0  0  0  0  0  3  0  0  0  0  0  0
  -22.8690  -10.2570   20.2220 C   0  0  0  0  0  3  0  0  0  0  0  0
  -21.8180   -6.9590   21.4280 O   0  0  0  0  0  0  0  0  0  0  0  0
  -21.7340   -6.2350   22.5910 C   0  0  0  0  0  0  0  0  0  0  0  0
  -21.2190   -6.7950   23.7800 C   0  0  0  0  0  3  0  0  0  0  0  0
  -21.0870   -5.9970   24.9340 C   0  0  0  0  0  3  0  0  0  0  0  0
  -21.4570   -4.6390   24.8980 C   0  0  0  0  0  0  0  0  0  0  0  0
  -21.9650   -4.0790   23.7130 C   0  0  0  0  0  3  0  0  0  0  0  0
  -22.1000   -4.8740   22.5620 C   0  0  0  0  0  0  0  0  0  0  0  0
  -22.5680   -4.3230   21.4150 F   0  0  0  0  0  0  0  0  0  0  0  0
  -21.3240   -3.8690   26.0030 F   0  0  0  0  0  0  0  0  0  0  0  0
  -22.8300  -13.5980   21.1600 C   0  0  0  0  0  0  0  0  0  0  0  0
  -22.1210  -12.8920   22.0330 N   0  0  0  0  0  0  0  0  0  0  0  0
  -22.3730  -14.6170   20.6430 O   0  0  0  0  0  0  0  0  0  0  0  0
  -22.5050  -12.0690   22.4740 H   0  0  0  0  0  0  0  0  0  0  0  0
  -21.1810  -13.1790   22.2660 H   0  0  0  0  0  0  0  0  0  0  0  0
  -25.4000  -15.3240   20.3460 N   0  0  0  0  0  0  0  0  0  0  0  0
  -24.6150  -15.9550   20.4640 H   0  0  0  0  0  0  0  0  0  0  0  0
  -26.2250  -15.7790   19.9790 H   0  0  0  0  0  0  0  0  0  0  0  0
  -28.2040  -25.1520   20.3060 O   0  0  0  0  0  0  0  0  0  0  0  0
  -24.6990  -31.8750   23.1860 C   0  0  0  0  0  0  0  0  0  0  0  0
  -27.2260  -26.4850   20.2890 C   0  0  0  0  0  0  0  0  0  0  0  0
  -23.5350  -30.4560   21.5570 C   0  0  0  0  0  3  0  0  0  0  0  0
  -24.9910  -28.7300   20.1880 C   0  0  0  0  0  0  0  0  0  0  0  0
  -26.1260  -30.4990   21.4920 C   0  0  0  0  0  2  0  0  0  0  0  0
  -26.1870  -29.0250   20.8520 C   0  0  0  0  0  0  0  0  0  0  0  0
  -27.2670  -27.9420   20.8620 C   0  0  0  0  0  3  0  0  0  0  0  0
  -25.9970  -26.4900   19.5550 C   0  0  0  0  0  3  0  0  0  0  0  0
  -24.9550  -27.4910   19.5150 C   0  0  0  0  0  3  0  0  0  0  0  0
  -23.8000  -29.7230   20.2050 C   0  0  0  0  0  2  0  0  0  0  0  0
  -24.8140  -30.9850   22.1290 N   0  0  0  0  0  0  0  0  0  0  0  0
  -23.5970  -32.1920   23.6700 O   0  0  0  0  0  0  0  0  0  0  0  0
  -22.7800  -29.5160   22.5370 C   0  0  0  0  0  0  0  0  0  0  0  0
  -21.4440  -29.3840   22.4100 N   0  0  0  0  0  0  0  0  0  0  0  0
  -23.4160  -28.8980   23.3940 O   0  0  0  0  0  0  0  0  0  0  0  0
  -20.9760  -29.9330   21.7010 H   0  0  0  0  0  0  0  0  0  0  0  0
  -18.0400  -28.2000   22.9360 C   0  0  0  0  0  0  0  0  0  0  0  0
  -20.6050  -28.4590   23.1850 C   0  0  0  0  0  3  0  0  0  0  0  0
  -20.6930  -27.0230   22.6170 C   0  0  0  0  0  2  0  0  0  0  0  0
  -19.5880  -26.7060   21.6050 C   0  0  0  0  0  2  0  0  0  0  0  0
  -18.2090  -26.8540   22.2510 C   0  0  0  0  0  2  0  0  0  0  0  0
  -19.1640  -28.9620   23.3590 C   0  0  0  0  0  0  0  0  0  0  0  0
  -18.9470  -30.2160   23.9670 C   0  0  0  0  0  3  0  0  0  0  0  0
  -17.6430  -30.7140   24.1500 C   0  0  0  0  0  3  0  0  0  0  0  0
  -16.5350  -29.9530   23.7380 C   0  0  0  0  0  3  0  0  0  0  0  0
  -16.7340  -28.6970   23.1370 C   0  0  0  0  0  3  0  0  0  0  0  0
  -25.9420  -32.5460   23.8440 C   0  0  0  0  0  3  0  0  0  0  0  0
  -25.6070  -33.9530   24.1650 N   0  0  0  0  0  0  0  0  0  0  0  0
  -25.9340  -35.0200   23.4240 C   0  0  0  0  0  0  0  0  0  0  0  0
  -26.5960  -34.9260   22.3880 O   0  0  0  0  0  0  0  0  0  0  0  0
  -25.0120  -34.0970   24.9680 H   0  0  0  0  0  0  0  0  0  0  0  0
  -24.1920  -36.8230   23.1260 C   0  0  0  0  0  1  0  0  0  0  0  0
  -25.4560  -36.4120   23.9000 C   0  0  0  0  0  3  0  0  0  0  0  0
  -27.5990  -37.3240   24.6860 C   0  0  0  0  0  1  0  0  0  0  0  0
  -26.4820  -37.4700   23.7570 N   0  0  0  0  0  0  0  0  0  0  0  0
  -26.0730  -38.3910   23.8940 H   0  0  0  0  0  0  0  0  0  0  0  0
  -26.4160  -31.8110   25.1610 C   0  0  1  0  0  0  0  0  0  0  0  0
  -25.2890  -31.6010   26.2010 C   0  0  0  0  0  1  0  0  0  0  0  0
  -27.0110  -30.4230   24.8420 C   0  0  0  0  0  1  0  0  0  0  0  0
  -27.5460  -32.6230   25.8390 C   0  0  0  0  0  1  0  0  0  0  0  0
  1  3  1  0
  2  4  2  0
  3  6  2  0
  4  6  1  0
  5  2  1  0
  5  1  2  0
  6 45  1  0
  7 15  1  0
  8 13  1  0
  9 10  1  0
  9  8  1  0
 11 10  1  0
 11 20  1  0
 11 12  1  0
 13  7  1  0
 13 12  1  0
 14  7  2  0
 15  5  1  0
 15 16  1  0
 17 18  2  0
 18 37  1  0
 19 18  1  0
 19 22  1  0
 20 21  1  0
 20 17  1  0
 21 19  2  0
 22 23  1  0
 23 24  2  0
 25 28  1  0
 25 24  1  0
 26 25  2  0
 27 26  1  0
 27 22  2  0
 28 29  1  0
 29 30  1  0
 30 31  2  0
 32 31  1  0
 32 36  1  0
 33 32  2  0
 34 29  2  0
 34 33  1  0
 35 34  1  0
 37 38  1  0
 38 41  1  0
 38 40  1  0
 39 37  2  0
 42 43  1  0
 42 17  1  0
 44 42  1  0
 46 57  2  0
 47 45  1  0
 47 52  1  0
 48 56  1  0
 48 58  1  0
 49 55  1  0
 49 51  1  0
 50 56  1  0
 51 52  2  0
 51 50  1  0
 53 47  2  0
 54 53  1  0
 54 49  2  0
 55 48  1  0
 56 46  1  0
 58 60  2  0
 59 58  1  0
 61 59  1  0
 62 71  2  0
 62 67  1  0
 63 59  1  0
 63 67  1  0
 64 63  1  0
 65 66  1  0
 65 64  1  0
 66 62  1  0
 67 68  2  0
 68 69  1  0
 70 69  2  0
 71 70  1  0
 72 46  1  0
 72 73  1  0
 72 82  1  0
 73 76  1  0
 74 78  1  0
 74 73  1  0
 75 74  2  0
 78 77  1  0
 80 81  1  0
 80 78  1  0
 80 79  1  0
 82 85  1  1
 82 83  1  0
 84 82  1  0
M  ISO  4   6 101   7 100  15 100  45 101
M  END
>  <TORSDO>  (33) 
F 16

>  <SCORE>  (33) 
-16.478

>  <name>  (33) 
32

>  <ligand_id>  (33) 
32

>  <original_smiles>  (33) 
[H]c1c([H])c([H])c2c(c1[H])C([H])([H])C([H])([H])C([H])([H])C2([H])N([H])C(=O)C1([H])N(C(=O)C([H])(N([H])C(=O)C([H])(N([H])C([H])([H])[H])C([H])([H])[H])C(C([H])([H])[H])(C([H])([H])[H])C([H])([H])[H])C([H])([H])c2c([H])c(Oc3c([H])c([H])c(N([H])C(=O)N4C([H])([H])C([H])([H])C([H])([H])C([H])(n5nc(-c6c([H])c([H])c(Oc7c([H])c([H])c(F)c([H])c7F)c([H])c6[H])c(C(=O)N([H])[H])c5N([H])[H])C4([H])[H])c([H])c3[H])c([H])c([H])c2C1([H])[H]

>  <smiles>  (33) 
[H]c1c([H])c([H])c2c(c1[H])C([H])([H])C([H])([H])C([H])([H])C2([H])N([H])C(=O)C1([H])N(C(=O)C([H])(N([H])C(=O)C([H])(N([H])C([H])([H])[H])C([H])([H])[H])C(C([H])([H])[H])(C([H])([H])[H])C([H])([H])[H])C([H])([H])c2c([H])c(Oc3c([H])c([H])c(N([H])C(=O)N4C([H])([H])C([H])([H])C([H])([H])C([H])(n5nc(-c6c([H])c([H])c(Oc7c([H])c([H])c(F)c([H])c7F)c([H])c6[H])c(C(=O)N([H])[H])c5N([H])[H])C4([H])[H])c([H])c3[H])c([H])c([H])c2C1([H])[H]

$$$$
33:0:0
     RDKit          3D

 89 96  0  0  1  0  0  0  0  0999 V2000
  -28.7540  -22.1980   18.3190 C   0  0  0  0  0  2  0  0  0  0  0  0
  -28.2500  -23.0350   19.3590 O   0  0  0  0  0  0  0  0  0  0  0  0
  -28.5050  -24.4240   19.1160 C   0  0  0  0  0  2  0  0  0  0  0  0
  -28.2670  -25.2490   20.3980 C   0  0  0  0  0  2  0  0  0  0  0  0
  -28.3830  -26.6640   20.1900 O   0  0  0  0  0  0  0  0  0  0  0  0
  -24.5860  -31.8470   23.2420 C   0  0  0  0  0  0  0  0  0  0  0  0
  -27.2110  -27.3850   20.1790 C   0  0  0  0  0  0  0  0  0  0  0  0
  -23.3750  -30.4450   21.6010 C   0  0  0  0  0  3  0  0  0  0  0  0
  -24.8210  -28.8950   20.1840 C   0  0  0  0  0  0  0  0  0  0  0  0
  -25.9020  -30.7940   21.4040 C   0  0  0  0  0  2  0  0  0  0  0  0
  -25.9800  -29.4190   20.7680 C   0  0  0  0  0  0  0  0  0  0  0  0
  -27.1800  -28.6750   20.7550 C   0  0  0  0  0  3  0  0  0  0  0  0
  -26.0320  -26.8710   19.5920 C   0  0  0  0  0  3  0  0  0  0  0  0
  -24.8420  -27.6210   19.5920 C   0  0  0  0  0  3  0  0  0  0  0  0
  -23.5810  -29.7580   20.2260 C   0  0  0  0  0  2  0  0  0  0  0  0
  -24.6390  -31.0440   22.1390 N   0  0  0  0  0  0  0  0  0  0  0  0
  -23.5040  -32.1240   23.7810 O   0  0  0  0  0  0  0  0  0  0  0  0
  -22.7180  -29.4310   22.5660 C   0  0  0  0  0  0  0  0  0  0  0  0
  -21.3900  -29.2580   22.4410 N   0  0  0  0  0  0  0  0  0  0  0  0
  -23.3960  -28.8000   23.3810 O   0  0  0  0  0  0  0  0  0  0  0  0
  -20.9060  -29.8160   21.7530 H   0  0  0  0  0  0  0  0  0  0  0  0
  -18.0070  -28.0830   22.9260 C   0  0  0  0  0  0  0  0  0  0  0  0
  -20.5660  -28.3260   23.2100 C   0  0  0  0  0  3  0  0  0  0  0  0
  -20.6630  -26.8930   22.6390 C   0  0  0  0  0  2  0  0  0  0  0  0
  -19.5640  -26.5730   21.6210 C   0  0  0  0  0  2  0  0  0  0  0  0
  -18.1790  -26.7280   22.2570 C   0  0  0  0  0  2  0  0  0  0  0  0
  -19.1290  -28.8390   23.3580 C   0  0  0  0  0  0  0  0  0  0  0  0
  -18.9160  -30.1080   23.9390 C   0  0  0  0  0  3  0  0  0  0  0  0
  -17.6150  -30.6200   24.0950 C   0  0  0  0  0  3  0  0  0  0  0  0
  -16.5080  -29.8590   23.6790 C   0  0  0  0  0  3  0  0  0  0  0  0
  -16.7040  -28.5920   23.1010 C   0  0  0  0  0  3  0  0  0  0  0  0
  -25.8750  -32.4700   23.8630 C   0  0  0  0  0  3  0  0  0  0  0  0
  -26.3880  -31.6950   25.1390 C   0  0  1  0  0  0  0  0  0  0  0  0
  -25.2920  -31.4660   26.2060 C   0  0  0  0  0  1  0  0  0  0  0  0
  -26.9580  -30.3140   24.7410 C   0  0  0  0  0  1  0  0  0  0  0  0
  -27.5440  -32.4800   25.8020 C   0  0  0  0  0  1  0  0  0  0  0  0
  -25.5770  -33.8680   24.1920 N   0  0  0  0  0  0  0  0  0  0  0  0
  -25.9070  -34.9210   23.4310 C   0  0  0  0  0  0  0  0  0  0  0  0
  -26.5770  -34.8160   22.4000 O   0  0  0  0  0  0  0  0  0  0  0  0
  -24.9940  -34.0300   24.9990 H   0  0  0  0  0  0  0  0  0  0  0  0
  -24.1790  -36.7120   23.0770 C   0  0  0  0  0  1  0  0  0  0  0  0
  -25.4210  -36.3110   23.8880 C   0  0  0  0  0  3  0  0  0  0  0  0
  -27.5590  -37.1900   24.7070 C   0  0  0  0  0  1  0  0  0  0  0  0
  -26.4520  -37.3640   23.7690 N   0  0  0  0  0  0  0  0  0  0  0  0
  -26.0490  -38.2850   23.9170 H   0  0  0  0  0  0  0  0  0  0  0  0
  -28.1750  -20.7660   18.3420 C   0  0  0  0  0  2  0  0  0  0  0  0
  -28.7180  -19.9320   19.3710 O   0  0  0  0  0  0  0  0  0  0  0  0
  -28.4700  -18.5460   19.1160 C   0  0  0  0  0  2  0  0  0  0  0  0
  -28.3200  -17.7240   20.4100 C   0  0  0  0  0  2  0  0  0  0  0  0
  -29.5890  -17.5510   21.2720 C   0  0  0  0  0  2  0  0  0  0  0  0
  -30.6470  -16.5850   20.7020 C   0  0  0  0  0  2  0  0  0  0  0  0
  -30.8790  -14.1870   20.1030 C   0  0  0  0  0  0  0  0  0  0  0  0
  -30.4870  -12.0450   18.9500 C   0  0  0  0  0  2  0  0  0  0  0  0
  -29.5330  -12.3350   17.7710 C   0  0  0  0  0  2  0  0  0  0  0  0
  -28.0590  -12.2780   18.2280 C   0  0  0  0  0  2  0  0  0  0  0  0
  -27.7970  -13.0860   19.5300 C   0  0  0  0  0  3  0  0  0  0  0  0
  -28.8670  -12.7610   20.5960 C   0  0  0  0  0  2  0  0  0  0  0  0
  -30.1870  -13.0240   20.0010 N   0  0  0  0  0  0  0  0  0  0  0  0
  -31.9950  -14.3640   19.6000 O   0  0  0  0  0  0  0  0  0  0  0  0
  -30.1920  -15.1970   20.6530 N   0  0  0  0  0  0  0  0  0  0  0  0
  -29.2630  -14.9860   20.9890 H   0  0  0  0  0  0  0  0  0  0  0  0
  -25.4430  -13.7900   20.2990 C   0  0  0  0  0  0  0  0  0  0  0  0
  -24.3600  -13.0600   20.7100 C   0  0  0  0  0  0  0  0  0  0  0  0
  -24.7700  -11.6910   20.6730 C   0  0  0  0  0  0  0  0  0  0  0  0
  -26.4460  -12.8680   20.0410 N   0  0  0  0  0  0  0  0  0  0  0  0
  -26.0470  -11.6020   20.3210 N   0  0  0  0  0  0  0  0  0  0  0  0
  -24.0070  -10.4590   20.8980 C   0  0  0  0  0  0  0  0  0  0  0  0
  -24.4340   -9.4870   21.8280 C   0  0  0  0  0  3  0  0  0  0  0  0
  -23.6730   -8.3170   22.0380 C   0  0  0  0  0  3  0  0  0  0  0  0
  -22.4720   -8.1140   21.3190 C   0  0  0  0  0  0  0  0  0  0  0  0
  -22.0640   -9.0740   20.3780 C   0  0  0  0  0  3  0  0  0  0  0  0
  -22.8250  -10.2360   20.1650 C   0  0  0  0  0  3  0  0  0  0  0  0
  -21.6790   -6.9980   21.4410 O   0  0  0  0  0  0  0  0  0  0  0  0
  -21.6380   -6.2670   22.6010 C   0  0  0  0  0  0  0  0  0  0  0  0
  -21.2850   -6.8520   23.8360 C   0  0  0  0  0  3  0  0  0  0  0  0
  -21.1830   -6.0510   24.9910 C   0  0  0  0  0  3  0  0  0  0  0  0
  -21.4290   -4.6670   24.9130 C   0  0  0  0  0  0  0  0  0  0  0  0
  -21.7760   -4.0830   23.6820 C   0  0  0  0  0  3  0  0  0  0  0  0
  -21.8780   -4.8800   22.5300 C   0  0  0  0  0  0  0  0  0  0  0  0
  -22.1930   -4.3090   21.3420 F   0  0  0  0  0  0  0  0  0  0  0  0
  -21.3270   -3.8960   26.0210 F   0  0  0  0  0  0  0  0  0  0  0  0
  -22.9930  -13.5910   21.0270 C   0  0  0  0  0  0  0  0  0  0  0  0
  -22.2730  -12.9270   21.9240 N   0  0  0  0  0  0  0  0  0  0  0  0
  -22.5750  -14.6270   20.5130 O   0  0  0  0  0  0  0  0  0  0  0  0
  -22.6280  -12.0850   22.3530 H   0  0  0  0  0  0  0  0  0  0  0  0
  -21.3540  -13.2600   22.1830 H   0  0  0  0  0  0  0  0  0  0  0  0
  -25.6480  -15.1500   20.0980 N   0  0  0  0  0  0  0  0  0  0  0  0
  -24.9030  -15.8280   20.2060 H   0  0  0  0  0  0  0  0  0  0  0  0
  -26.4810  -15.5380   19.6750 H   0  0  0  0  0  0  0  0  0  0  0  0
  1 46  1  0
  1  2  1  0
  3  2  1  0
  3  4  1  0
  5  4  1  0
  6 17  2  0
  7  5  1  0
  7 12  1  0
  8 16  1  0
  8 18  1  0
  9 15  1  0
  9 11  1  0
 10 16  1  0
 11 10  1  0
 12 11  2  0
 13 14  1  0
 13  7  2  0
 14  9  2  0
 15  8  1  0
 16  6  1  0
 18 20  2  0
 19 18  1  0
 21 19  1  0
 22 31  2  0
 22 27  1  0
 23 19  1  0
 23 27  1  0
 24 23  1  0
 25 26  1  0
 25 24  1  0
 26 22  1  0
 27 28  2  0
 28 29  1  0
 30 29  2  0
 31 30  1  0
 32  6  1  0
 32 37  1  0
 32 33  1  0
 33 36  1  1
 33 34  1  0
 35 33  1  0
 37 40  1  0
 38 42  1  0
 38 37  1  0
 39 38  2  0
 42 41  1  0
 44 42  1  0
 44 45  1  0
 44 43  1  0
 46 47  1  0
 48 47  1  0
 48 49  1  0
 49 50  1  0
 51 50  1  0
 52 60  1  0
 53 58  1  0
 54 55  1  0
 54 53  1  0
 56 55  1  0
 56 65  1  0
 56 57  1  0
 58 52  1  0
 58 57  1  0
 59 52  2  0
 60 51  1  0
 60 61  1  0
 62 63  2  0
 63 82  1  0
 64 63  1  0
 64 67  1  0
 65 62  1  0
 65 66  1  0
 66 64  2  0
 67 68  1  0
 68 69  2  0
 70 73  1  0
 70 69  1  0
 71 70  2  0
 72 71  1  0
 72 67  2  0
 73 74  1  0
 74 75  1  0
 75 76  2  0
 77 76  1  0
 77 81  1  0
 78 77  2  0
 79 74  2  0
 79 78  1  0
 80 79  1  0
 82 83  1  0
 83 86  1  0
 83 85  1  0
 84 82  2  0
 87 88  1  0
 87 62  1  0
 89 87  1  0
M  ISO  4   4 101   5 101  52 100  60 100
M  END
>  <TORSDO>  (34) 
F 25

>  <SCORE>  (34) 
-11.959

>  <name>  (34) 
33

>  <ligand_id>  (34) 
33

>  <original_smiles>  (34) 
[H]c1c([H])c([H])c2c(c1[H])C([H])([H])C([H])([H])C([H])([H])C2([H])N([H])C(=O)C1([H])N(C(=O)C([H])(N([H])C(=O)C([H])(N([H])C([H])([H])[H])C([H])([H])[H])C(C([H])([H])[H])(C([H])([H])[H])C([H])([H])[H])C([H])([H])c2c([H])c(OC([H])([H])C([H])([H])OC([H])([H])C([H])([H])OC([H])([H])C([H])([H])C([H])([H])C([H])([H])N([H])C(=O)N3C([H])([H])C([H])([H])C([H])([H])C([H])(n4nc(-c5c([H])c([H])c(Oc6c([H])c([H])c(F)c([H])c6F)c([H])c5[H])c(C(=O)N([H])[H])c4N([H])[H])C3([H])[H])c([H])c([H])c2C1([H])[H]

>  <smiles>  (34) 
[H]c1c([H])c([H])c2c(c1[H])C([H])([H])C([H])([H])C([H])([H])C2([H])N([H])C(=O)C1([H])N(C(=O)C([H])(N([H])C(=O)C([H])(N([H])C([H])([H])[H])C([H])([H])[H])C(C([H])([H])[H])(C([H])([H])[H])C([H])([H])[H])C([H])([H])c2c([H])c(OC([H])([H])C([H])([H])OC([H])([H])C([H])([H])OC([H])([H])C([H])([H])C([H])([H])C([H])([H])N([H])C(=O)N3C([H])([H])C([H])([H])C([H])([H])C([H])(n4nc(-c5c([H])c([H])c(Oc6c([H])c([H])c(F)c([H])c6F)c([H])c5[H])c(C(=O)N([H])[H])c4N([H])[H])C3([H])[H])c([H])c([H])c2C1([H])[H]

$$$$
34:0:0
     RDKit          3D

 84 91  0  0  1  0  0  0  0  0999 V2000
  -28.7200  -22.8200   19.9390 C   0  0  0  0  0  2  0  0  0  0  0  0
  -28.9750  -21.2040   20.6560 C   0  0  0  0  0  2  0  0  0  0  0  0
  -29.1120  -19.5470   20.0050 C   0  0  0  0  0  2  0  0  0  0  0  0
  -29.8670  -18.0600   20.6330 C   0  0  0  0  0  2  0  0  0  0  0  0
  -30.3960  -15.2010   20.2700 C   0  0  0  0  0  0  0  0  0  0  0  0
  -30.3500  -12.7810   19.3600 C   0  0  0  0  0  2  0  0  0  0  0  0
  -29.4120  -12.6020   18.1410 C   0  0  0  0  0  2  0  0  0  0  0  0
  -27.9650  -12.3420   18.5970 C   0  0  0  0  0  2  0  0  0  0  0  0
  -27.5320  -13.3000   19.7350 C   0  0  0  0  0  3  0  0  0  0  0  0
  -28.5930  -13.4210   20.8470 C   0  0  0  0  0  2  0  0  0  0  0  0
  -29.8190  -13.9100   20.2000 N   0  0  0  0  0  0  0  0  0  0  0  0
  -31.6200  -15.2130   20.0850 O   0  0  0  0  0  0  0  0  0  0  0  0
  -29.6200  -16.4480   20.3470 N   0  0  0  0  0  0  0  0  0  0  0  0
  -28.6340  -16.2300   20.3490 H   0  0  0  0  0  0  0  0  0  0  0  0
  -25.1640  -13.8590   20.5070 C   0  0  0  0  0  0  0  0  0  0  0  0
  -24.1070  -13.0800   20.8850 C   0  0  0  0  0  0  0  0  0  0  0  0
  -24.5780  -11.7320   20.8550 C   0  0  0  0  0  0  0  0  0  0  0  0
  -26.2080  -12.9850   20.2570 N   0  0  0  0  0  0  0  0  0  0  0  0
  -25.8670  -11.7000   20.5360 N   0  0  0  0  0  0  0  0  0  0  0  0
  -23.8560  -10.4680   21.0510 C   0  0  0  0  0  0  0  0  0  0  0  0
  -24.3040   -9.4940   21.9700 C   0  0  0  0  0  3  0  0  0  0  0  0
  -23.5790   -8.2970   22.1560 C   0  0  0  0  0  3  0  0  0  0  0  0
  -22.3920   -8.0650   21.4220 C   0  0  0  0  0  0  0  0  0  0  0  0
  -21.9620   -9.0270   20.4910 C   0  0  0  0  0  3  0  0  0  0  0  0
  -22.6880  -10.2150   20.3040 C   0  0  0  0  0  3  0  0  0  0  0  0
  -21.6370   -6.9210   21.5170 O   0  0  0  0  0  0  0  0  0  0  0  0
  -21.6230   -6.1620   22.6600 C   0  0  0  0  0  0  0  0  0  0  0  0
  -21.2490   -6.7030   23.9090 C   0  0  0  0  0  3  0  0  0  0  0  0
  -21.1820   -5.8710   25.0460 C   0  0  0  0  0  3  0  0  0  0  0  0
  -21.4760   -4.4990   24.9330 C   0  0  0  0  0  0  0  0  0  0  0  0
  -21.8430   -3.9570   23.6880 C   0  0  0  0  0  3  0  0  0  0  0  0
  -21.9120   -4.7860   22.5540 C   0  0  0  0  0  0  0  0  0  0  0  0
  -22.2450   -4.2550   21.3530 F   0  0  0  0  0  0  0  0  0  0  0  0
  -21.4040   -3.6980   26.0210 F   0  0  0  0  0  0  0  0  0  0  0  0
  -22.7100  -13.5540   21.1580 C   0  0  0  0  0  0  0  0  0  0  0  0
  -21.9870  -12.8610   22.0310 N   0  0  0  0  0  0  0  0  0  0  0  0
  -22.2690  -14.5760   20.6330 O   0  0  0  0  0  0  0  0  0  0  0  0
  -22.3580  -12.0360   22.4770 H   0  0  0  0  0  0  0  0  0  0  0  0
  -21.0490  -13.1600   22.2560 H   0  0  0  0  0  0  0  0  0  0  0  0
  -25.3190  -15.2300   20.3220 N   0  0  0  0  0  0  0  0  0  0  0  0
  -24.5440  -15.8760   20.4320 H   0  0  0  0  0  0  0  0  0  0  0  0
  -26.1490  -15.6710   19.9480 H   0  0  0  0  0  0  0  0  0  0  0  0
  -28.0700  -24.3570   20.5690 C   0  0  0  0  0  2  0  0  0  0  0  0
  -28.2440  -25.9400   20.2190 O   0  0  0  0  0  0  0  0  0  0  0  0
  -24.6360  -31.8510   23.1910 C   0  0  0  0  0  0  0  0  0  0  0  0
  -27.2030  -26.9910   20.2220 C   0  0  0  0  0  0  0  0  0  0  0  0
  -23.4440  -30.4430   21.5620 C   0  0  0  0  0  3  0  0  0  0  0  0
  -24.8930  -28.8310   20.1590 C   0  0  0  0  0  0  0  0  0  0  0  0
  -26.0070  -30.6690   21.4100 C   0  0  0  0  0  2  0  0  0  0  0  0
  -26.0800  -29.2570   20.7700 C   0  0  0  0  0  0  0  0  0  0  0  0
  -27.2330  -28.3580   20.7710 C   0  0  0  0  0  3  0  0  0  0  0  0
  -25.9840  -26.6990   19.5730 C   0  0  0  0  0  3  0  0  0  0  0  0
  -24.8670  -27.5710   19.5410 C   0  0  0  0  0  3  0  0  0  0  0  0
  -23.6730  -29.7490   20.1920 C   0  0  0  0  0  2  0  0  0  0  0  0
  -24.7180  -31.0140   22.1080 N   0  0  0  0  0  0  0  0  0  0  0  0
  -23.5480  -32.1440   23.7100 O   0  0  0  0  0  0  0  0  0  0  0  0
  -22.7520  -29.4530   22.5340 C   0  0  0  0  0  0  0  0  0  0  0  0
  -21.4230  -29.2840   22.4070 N   0  0  0  0  0  0  0  0  0  0  0  0
  -23.4180  -28.8350   23.3680 O   0  0  0  0  0  0  0  0  0  0  0  0
  -20.9400  -29.8330   21.7090 H   0  0  0  0  0  0  0  0  0  0  0  0
  -18.0440  -28.0620   22.9000 C   0  0  0  0  0  0  0  0  0  0  0  0
  -20.5990  -28.3520   23.1830 C   0  0  0  0  0  3  0  0  0  0  0  0
  -20.7170  -26.9120   22.6300 C   0  0  0  0  0  2  0  0  0  0  0  0
  -19.6270  -26.5660   21.6110 C   0  0  0  0  0  2  0  0  0  0  0  0
  -18.2380  -26.7060   22.2410 C   0  0  0  0  0  2  0  0  0  0  0  0
  -19.1530  -28.8410   23.3270 C   0  0  0  0  0  0  0  0  0  0  0  0
  -18.9150  -30.1070   23.9070 C   0  0  0  0  0  3  0  0  0  0  0  0
  -17.6030  -30.5950   24.0600 C   0  0  0  0  0  3  0  0  0  0  0  0
  -16.5100  -29.8140   23.6450 C   0  0  0  0  0  3  0  0  0  0  0  0
  -16.7310  -28.5490   23.0720 C   0  0  0  0  0  3  0  0  0  0  0  0
  -25.9090  -32.4980   23.8200 C   0  0  0  0  0  3  0  0  0  0  0  0
  -26.4210  -31.7340   25.1030 C   0  0  1  0  0  0  0  0  0  0  0  0
  -25.3240  -31.5030   26.1710 C   0  0  0  0  0  1  0  0  0  0  0  0
  -27.0060  -30.3530   24.7280 C   0  0  0  0  0  1  0  0  0  0  0  0
  -27.5690  -32.5320   25.7650 C   0  0  0  0  0  1  0  0  0  0  0  0
  -25.5860  -33.8960   24.1570 N   0  0  0  0  0  0  0  0  0  0  0  0
  -25.9120  -34.9590   23.4110 C   0  0  0  0  0  0  0  0  0  0  0  0
  -26.5790  -34.8680   22.3770 O   0  0  0  0  0  0  0  0  0  0  0  0
  -24.9920  -34.0390   24.9610 H   0  0  0  0  0  0  0  0  0  0  0  0
  -24.1740  -36.7540   23.0900 C   0  0  0  0  0  1  0  0  0  0  0  0
  -25.4240  -36.3440   23.8850 C   0  0  0  0  0  3  0  0  0  0  0  0
  -27.5630  -37.2340   24.7020 C   0  0  0  0  0  1  0  0  0  0  0  0
  -26.4510  -37.4030   23.7700 N   0  0  0  0  0  0  0  0  0  0  0  0
  -26.0430  -38.3200   23.9280 H   0  0  0  0  0  0  0  0  0  0  0  0
  1 43  1  0
  1  2  1  0
  3  4  1  0
  3  2  1  0
  5 13  1  0
  6 11  1  0
  7  8  1  0
  7  6  1  0
  9  8  1  0
  9 18  1  0
  9 10  1  0
 11  5  1  0
 11 10  1  0
 12  5  2  0
 13 14  1  0
 13  4  1  0
 15 16  2  0
 16 35  1  0
 17 16  1  0
 17 20  1  0
 18 15  1  0
 18 19  1  0
 19 17  2  0
 20 21  1  0
 21 22  2  0
 23 26  1  0
 23 22  1  0
 24 23  2  0
 25 24  1  0
 25 20  2  0
 26 27  1  0
 27 28  1  0
 28 29  2  0
 30 29  1  0
 30 34  1  0
 31 30  2  0
 32 27  2  0
 32 31  1  0
 33 32  1  0
 35 36  1  0
 36 39  1  0
 36 38  1  0
 37 35  2  0
 40 41  1  0
 40 15  1  0
 42 40  1  0
 44 46  1  0
 44 43  1  0
 45 56  2  0
 46 51  1  0
 47 55  1  0
 47 57  1  0
 48 54  1  0
 48 50  1  0
 49 55  1  0
 50 51  2  0
 50 49  1  0
 52 46  2  0
 53 52  1  0
 53 48  2  0
 54 47  1  0
 55 45  1  0
 57 59  2  0
 58 57  1  0
 60 58  1  0
 61 70  2  0
 61 66  1  0
 62 58  1  0
 62 66  1  0
 63 62  1  0
 64 65  1  0
 64 63  1  0
 65 61  1  0
 66 67  2  0
 67 68  1  0
 69 68  2  0
 70 69  1  0
 71 45  1  0
 71 76  1  0
 71 72  1  0
 72 75  1  1
 72 73  1  0
 74 72  1  0
 76 79  1  0
 77 81  1  0
 77 76  1  0
 78 77  2  0
 81 80  1  0
 83 81  1  0
 83 84  1  0
 83 82  1  0
M  ISO  4   5 100  13 100  43 101  44 101
M  END
>  <TORSDO>  (35) 
F 20

>  <SCORE>  (35) 
-15.593

>  <name>  (35) 
34

>  <ligand_id>  (35) 
34

>  <original_smiles>  (35) 
[H]c1c([H])c([H])c2c(c1[H])C([H])([H])C([H])([H])C([H])([H])C2([H])N([H])C(=O)C1([H])N(C(=O)C([H])(N([H])C(=O)C([H])(N([H])C([H])([H])[H])C([H])([H])[H])C(C([H])([H])[H])(C([H])([H])[H])C([H])([H])[H])C([H])([H])c2c([H])c(OC([H])([H])C([H])([H])C([H])([H])C([H])([H])C([H])([H])N([H])C(=O)N3C([H])([H])C([H])([H])C([H])([H])C([H])(n4nc(-c5c([H])c([H])c(Oc6c([H])c([H])c(F)c([H])c6F)c([H])c5[H])c(C(=O)N([H])[H])c4N([H])[H])C3([H])[H])c([H])c([H])c2C1([H])[H]

>  <smiles>  (35) 
[H]c1c([H])c([H])c2c(c1[H])C([H])([H])C([H])([H])C([H])([H])C2([H])N([H])C(=O)C1([H])N(C(=O)C([H])(N([H])C(=O)C([H])(N([H])C([H])([H])[H])C([H])([H])[H])C(C([H])([H])[H])(C([H])([H])[H])C([H])([H])[H])C([H])([H])c2c([H])c(OC([H])([H])C([H])([H])C([H])([H])C([H])([H])C([H])([H])N([H])C(=O)N3C([H])([H])C([H])([H])C([H])([H])C([H])(n4nc(-c5c([H])c([H])c(Oc6c([H])c([H])c(F)c([H])c6F)c([H])c5[H])c(C(=O)N([H])[H])c4N([H])[H])C3([H])[H])c([H])c([H])c2C1([H])[H]

$$$$
35:0:0
     RDKit          3D

 81 85  0  0  1  0  0  0  0  0999 V2000
  -28.1610  -25.2440   20.3600 O   0  0  0  0  0  0  0  0  0  0  0  0
  -24.6650  -31.7960   23.1580 C   0  0  0  0  0  0  0  0  0  0  0  0
  -27.2130  -26.5420   20.2310 C   0  0  0  0  0  0  0  0  0  0  0  0
  -23.4910  -30.3720   21.5360 C   0  0  0  0  0  3  0  0  0  0  0  0
  -24.9510  -28.6840   20.1440 C   0  0  0  0  0  0  0  0  0  0  0  0
  -26.0760  -30.4710   21.4370 C   0  0  0  0  0  2  0  0  0  0  0  0
  -26.1460  -29.0140   20.7930 C   0  0  0  0  0  0  0  0  0  0  0  0
  -27.2460  -27.9750   20.8030 C   0  0  0  0  0  3  0  0  0  0  0  0
  -25.9860  -26.4750   19.5080 C   0  0  0  0  0  3  0  0  0  0  0  0
  -24.9220  -27.4430   19.4760 C   0  0  0  0  0  3  0  0  0  0  0  0
  -23.7450  -29.6490   20.1760 C   0  0  0  0  0  2  0  0  0  0  0  0
  -24.7700  -30.9200   22.0940 N   0  0  0  0  0  0  0  0  0  0  0  0
  -23.5660  -32.1030   23.6560 O   0  0  0  0  0  0  0  0  0  0  0  0
  -22.7620  -29.4170   22.5210 C   0  0  0  0  0  0  0  0  0  0  0  0
  -21.4270  -29.2750   22.4060 N   0  0  0  0  0  0  0  0  0  0  0  0
  -23.4140  -28.8000   23.3650 O   0  0  0  0  0  0  0  0  0  0  0  0
  -20.9480  -29.8240   21.7050 H   0  0  0  0  0  0  0  0  0  0  0  0
  -18.0380  -28.0640   22.9450 C   0  0  0  0  0  0  0  0  0  0  0  0
  -20.6000  -28.3450   23.1880 C   0  0  0  0  0  3  0  0  0  0  0  0
  -20.7000  -26.9070   22.6270 C   0  0  0  0  0  2  0  0  0  0  0  0
  -19.5950  -26.5750   21.6190 C   0  0  0  0  0  2  0  0  0  0  0  0
  -18.2160  -26.7150   22.2700 C   0  0  0  0  0  2  0  0  0  0  0  0
  -19.1560  -28.8370   23.3620 C   0  0  0  0  0  0  0  0  0  0  0  0
  -18.9300  -30.0950   23.9620 C   0  0  0  0  0  3  0  0  0  0  0  0
  -17.6220  -30.5820   24.1440 C   0  0  0  0  0  3  0  0  0  0  0  0
  -16.5200  -29.8090   23.7380 C   0  0  0  0  0  3  0  0  0  0  0  0
  -16.7290  -28.5510   23.1460 C   0  0  0  0  0  3  0  0  0  0  0  0
  -25.9150  -32.4680   23.8020 C   0  0  0  0  0  3  0  0  0  0  0  0
  -26.4200  -31.7190   25.0990 C   0  0  1  0  0  0  0  0  0  0  0  0
  -25.3160  -31.4920   26.1590 C   0  0  0  0  0  1  0  0  0  0  0  0
  -27.0160  -30.3380   24.7490 C   0  0  0  0  0  1  0  0  0  0  0  0
  -27.5610  -32.5280   25.7610 C   0  0  0  0  0  1  0  0  0  0  0  0
  -25.5730  -33.8660   24.1440 N   0  0  0  0  0  0  0  0  0  0  0  0
  -25.8880  -34.9430   23.4120 C   0  0  0  0  0  0  0  0  0  0  0  0
  -26.5480  -34.8670   22.3720 O   0  0  0  0  0  0  0  0  0  0  0  0
  -24.9800  -33.9970   24.9510 H   0  0  0  0  0  0  0  0  0  0  0  0
  -24.1280  -36.7300   23.1360 C   0  0  0  0  0  1  0  0  0  0  0  0
  -25.3970  -36.3240   23.9040 C   0  0  0  0  0  3  0  0  0  0  0  0
  -27.5400  -37.2350   24.6870 C   0  0  0  0  0  1  0  0  0  0  0  0
  -26.4120  -37.3940   23.7750 N   0  0  0  0  0  0  0  0  0  0  0  0
  -25.9960  -38.3070   23.9420 H   0  0  0  0  0  0  0  0  0  0  0  0
  -28.2670  -23.4220   19.9590 C   0  0  0  0  0  1  0  0  0  0  0  0
  -28.7490  -21.4890   20.5390 C   0  0  0  0  0 15  0  0  0  0  0  0
  -29.3330  -19.5700   20.0060 C   0  0  0  0  0  1  0  0  0  0  0  0
  -29.3110  -17.7380   20.3640 O   0  0  0  0  0  1  0  0  0  0  0  0
  -30.2340  -15.9710   20.1460 C   0  0  0  0  0  2  0  0  0  0  0  0
  -30.3470  -13.3120   19.4050 C   0  0  0  0  0  2  0  0  0  0  0  0
  -29.4930  -12.8180   18.1930 C   0  0  0  0  0  2  0  0  0  0  0  0
  -28.0820  -12.4150   18.6410 C   0  0  0  0  0  2  0  0  0  0  0  0
  -27.5250  -13.4330   19.6580 C   0  0  0  0  0  3  0  0  0  0  0  0
  -28.5130  -13.8650   20.7730 C   0  0  0  0  0  2  0  0  0  0  0  0
  -29.6860  -14.5120   20.1320 N   0  0  0  0  0  0  0  0  0  0  0  0
  -31.4540  -15.8700   19.8980 O   0  0  0  0  0  1  0  0  0  0  0  0
  -25.1680  -13.9300   20.4190 C   0  0  0  0  0  0  0  0  0  0  0  0
  -24.1160  -13.1430   20.7910 C   0  0  0  0  0  0  0  0  0  0  0  0
  -24.6010  -11.7980   20.7760 C   0  0  0  0  0  0  0  0  0  0  0  0
  -26.2190  -13.0680   20.1830 N   0  0  0  0  0  0  0  0  0  0  0  0
  -25.8950  -11.7770   20.4650 N   0  0  0  0  0  0  0  0  0  0  0  0
  -23.8810  -10.5320   20.9770 C   0  0  0  0  0  0  0  0  0  0  0  0
  -24.3140   -9.5740   21.9200 C   0  0  0  0  0  3  0  0  0  0  0  0
  -23.5880   -8.3780   22.1120 C   0  0  0  0  0  3  0  0  0  0  0  0
  -22.4120   -8.1320   21.3630 C   0  0  0  0  0  0  0  0  0  0  0  0
  -21.9980   -9.0780   20.4090 C   0  0  0  0  0  3  0  0  0  0  0  0
  -22.7250  -10.2640   20.2160 C   0  0  0  0  0  3  0  0  0  0  0  0
  -21.6590   -6.9870   21.4640 O   0  0  0  0  0  0  0  0  0  0  0  0
  -21.6160   -6.2510   22.6210 C   0  0  0  0  0  0  0  0  0  0  0  0
  -21.2040   -6.8140   23.8480 C   0  0  0  0  0  3  0  0  0  0  0  0
  -21.1090   -6.0050   24.9980 C   0  0  0  0  0  3  0  0  0  0  0  0
  -21.4170   -4.6330   24.9210 C   0  0  0  0  0  0  0  0  0  0  0  0
  -21.8230   -4.0690   23.6990 C   0  0  0  0  0  3  0  0  0  0  0  0
  -21.9190   -4.8750   22.5510 C   0  0  0  0  0  0  0  0  0  0  0  0
  -22.2890   -4.3230   21.3710 F   0  0  0  0  0  0  0  0  0  0  0  0
  -21.3200   -3.8530   26.0230 F   0  0  0  0  0  0  0  0  0  0  0  0
  -22.7140  -13.6110   21.0440 C   0  0  0  0  0  0  0  0  0  0  0  0
  -21.9860  -12.9260   21.9170 N   0  0  0  0  0  0  0  0  0  0  0  0
  -22.2760  -14.6260   20.5020 O   0  0  0  0  0  0  0  0  0  0  0  0
  -22.3570  -12.1090   22.3780 H   0  0  0  0  0  0  0  0  0  0  0  0
  -21.0450  -13.2240   22.1260 H   0  0  0  0  0  0  0  0  0  0  0  0
  -25.3170  -15.3010   20.2290 N   0  0  0  0  0  0  0  0  0  0  0  0
  -24.5480  -15.9530   20.3420 H   0  0  0  0  0  0  0  0  0  0  0  0
  -26.1730  -15.7460   19.9220 H   0  0  0  0  0  0  0  0  0  0  0  0
  2 13  2  0
  3  1  1  0
  3  8  1  0
  4 12  1  0
  4 14  1  0
  5 11  1  0
  5  7  1  0
  6 12  1  0
  7  8  2  0
  7  6  1  0
  9  3  2  0
 10  9  1  0
 10  5  2  0
 11  4  1  0
 12  2  1  0
 14 16  2  0
 15 14  1  0
 17 15  1  0
 18 27  2  0
 18 23  1  0
 19 15  1  0
 19 23  1  0
 20 19  1  0
 21 22  1  0
 21 20  1  0
 22 18  1  0
 23 24  2  0
 24 25  1  0
 26 25  2  0
 27 26  1  0
 28  2  1  0
 28 33  1  0
 28 29  1  0
 29 32  1  1
 29 30  1  0
 31 29  1  0
 33 36  1  0
 34 38  1  0
 34 33  1  0
 35 34  2  0
 38 37  1  0
 40 38  1  0
 40 41  1  0
 40 39  1  0
 42  1  1  0
 44 45  1  0
 47 52  1  0
 48 49  1  0
 48 47  1  0
 50 49  1  0
 50 57  1  0
 50 51  1  0
 52 46  1  0
 52 51  1  0
 53 46  1  0
 54 55  2  0
 55 74  1  0
 56 55  1  0
 56 59  1  0
 57 54  1  0
 57 58  1  0
 58 56  2  0
 59 60  1  0
 60 61  2  0
 62 65  1  0
 62 61  1  0
 63 62  2  0
 64 63  1  0
 64 59  2  0
 65 66  1  0
 66 67  1  0
 67 68  2  0
 69 68  1  0
 69 73  1  0
 70 69  2  0
 71 66  2  0
 71 70  1  0
 72 71  1  0
 74 75  1  0
 75 78  1  0
 75 77  1  0
 76 74  2  0
 79 80  1  0
 79 54  1  0
 81 79  1  0
M  ISO  4   1 101  42 101  45 100  46 100
M  END
>  <TORSDO>  (36) 
F 19

>  <SCORE>  (36) 
-16.013

>  <name>  (36) 
35

>  <ligand_id>  (36) 
35

>  <original_smiles>  (36) 
[H]c1c([H])c([H])c2c(c1[H])C([H])([H])C([H])([H])C([H])([H])C2([H])N([H])C(=O)C1([H])N(C(=O)C([H])(N([H])C(=O)C([H])(N([H])C([H])([H])[H])C([H])([H])[H])C(C([H])([H])[H])(C([H])([H])[H])C([H])([H])[H])C([H])([H])c2c([H])c(OC([H])([H])C([H])([H])C([H])([H])OC(=O)N3C([H])([H])C([H])([H])C([H])([H])C([H])(n4nc(-c5c([H])c([H])c(Oc6c([H])c([H])c(F)c([H])c6F)c([H])c5[H])c(C(=O)N([H])[H])c4N([H])[H])C3([H])[H])c([H])c([H])c2C1([H])[H]

>  <smiles>  (36) 
[H]c1c([H])c([H])c2c(c1[H])C([H])([H])C([H])([H])C([H])([H])C2([H])N([H])C(=O)C1([H])N(C(=O)C([H])(N([H])C(=O)C([H])(N([H])C([H])([H])[H])C([H])([H])[H])C(C([H])([H])[H])(C([H])([H])[H])C([H])([H])[H])C([H])([H])c2c([H])c(OC([H])([H])C([H])([H])C([H])([H])OC(=O)N3C([H])([H])C([H])([H])C([H])([H])C([H])(n4nc(-c5c([H])c([H])c(Oc6c([H])c([H])c(F)c([H])c6F)c([H])c5[H])c(C(=O)N([H])[H])c4N([H])[H])C3([H])[H])c([H])c([H])c2C1([H])[H]

$$$$
36:0:0
     RDKit          3D

 84 91  0  0  1  0  0  0  0  0999 V2000
  -29.0210  -22.2020   20.2860 C   0  0  0  0  0  3  0  0  0  0  0  0
  -29.6460  -19.1130   20.2220 C   0  0  0  0  0  0  0  0  0  0  0  0
  -28.8260  -20.4330   20.3100 N   0  0  0  0  0  0  0  0  0  0  0  0
  -30.8400  -19.3340   20.0240 O   0  0  0  0  0  0  0  0  0  0  0  0
  -27.8500  -20.2070   20.4580 H   0  0  0  0  0  0  0  0  0  0  0  0
  -29.3030  -17.2880   20.3570 C   0  0  0  0  0  2  0  0  0  0  0  0
  -30.2170  -15.6700   20.1320 C   0  0  0  0  0  0  0  0  0  0  0  0
  -30.3310  -13.1370   19.2710 C   0  0  0  0  0  2  0  0  0  0  0  0
  -29.3890  -12.8000   18.0770 C   0  0  0  0  0  2  0  0  0  0  0  0
  -27.9760  -12.4430   18.5650 C   0  0  0  0  0  2  0  0  0  0  0  0
  -27.5110  -13.4090   19.6780 C   0  0  0  0  0  3  0  0  0  0  0  0
  -28.5830  -13.6620   20.7630 C   0  0  0  0  0  2  0  0  0  0  0  0
  -29.7520  -14.2840   20.1020 N   0  0  0  0  0  0  0  0  0  0  0  0
  -31.4350  -15.6460   19.8610 O   0  0  0  0  0  0  0  0  0  0  0  0
  -25.1770  -13.9110   20.5470 C   0  0  0  0  0  0  0  0  0  0  0  0
  -24.1360  -13.1170   20.9380 C   0  0  0  0  0  0  0  0  0  0  0  0
  -24.6120  -11.7720   20.8600 C   0  0  0  0  0  0  0  0  0  0  0  0
  -26.2140  -13.0520   20.2400 N   0  0  0  0  0  0  0  0  0  0  0  0
  -25.8930  -11.7560   20.4970 N   0  0  0  0  0  0  0  0  0  0  0  0
  -23.8990  -10.5010   21.0500 C   0  0  0  0  0  0  0  0  0  0  0  0
  -24.3620   -9.5200   21.9560 C   0  0  0  0  0  3  0  0  0  0  0  0
  -23.6440   -8.3170   22.1390 C   0  0  0  0  0  3  0  0  0  0  0  0
  -22.4490   -8.0870   21.4150 C   0  0  0  0  0  0  0  0  0  0  0  0
  -22.0050   -9.0570   20.4990 C   0  0  0  0  0  3  0  0  0  0  0  0
  -22.7230  -10.2500   20.3150 C   0  0  0  0  0  3  0  0  0  0  0  0
  -21.7010   -6.9380   21.5080 O   0  0  0  0  0  0  0  0  0  0  0  0
  -21.6800   -6.1820   22.6540 C   0  0  0  0  0  0  0  0  0  0  0  0
  -21.2630   -6.7170   23.8920 C   0  0  0  0  0  3  0  0  0  0  0  0
  -21.1900   -5.8880   25.0290 C   0  0  0  0  0  3  0  0  0  0  0  0
  -21.5240   -4.5250   24.9290 C   0  0  0  0  0  0  0  0  0  0  0  0
  -21.9350   -3.9880   23.6950 C   0  0  0  0  0  3  0  0  0  0  0  0
  -22.0090   -4.8150   22.5610 C   0  0  0  0  0  0  0  0  0  0  0  0
  -22.3850   -4.2880   21.3700 F   0  0  0  0  0  0  0  0  0  0  0  0
  -21.4480   -3.7260   26.0190 F   0  0  0  0  0  0  0  0  0  0  0  0
  -22.7470  -13.5780   21.2650 C   0  0  0  0  0  0  0  0  0  0  0  0
  -22.0560  -12.8670   22.1490 N   0  0  0  0  0  0  0  0  0  0  0  0
  -22.2840  -14.6070   20.7720 O   0  0  0  0  0  0  0  0  0  0  0  0
  -22.4440  -12.0350   22.5670 H   0  0  0  0  0  0  0  0  0  0  0  0
  -21.1250  -13.1580   22.4100 H   0  0  0  0  0  0  0  0  0  0  0  0
  -25.3220  -15.2870   20.3950 N   0  0  0  0  0  0  0  0  0  0  0  0
  -24.5560  -15.9320   20.5550 H   0  0  0  0  0  0  0  0  0  0  0  0
  -26.1560  -15.7410   20.0440 H   0  0  0  0  0  0  0  0  0  0  0  0
  -27.9820  -23.8380   20.2390 C   0  0  0  0  0  3  0  0  0  0  0  0
  -28.1610  -25.5860   20.3090 O   0  0  0  0  0  0  0  0  0  0  0  0
  -24.6760  -31.8840   23.2080 C   0  0  0  0  0  0  0  0  0  0  0  0
  -27.1820  -26.7870   20.2540 C   0  0  0  0  0  0  0  0  0  0  0  0
  -23.4790  -30.4800   21.5810 C   0  0  0  0  0  3  0  0  0  0  0  0
  -24.9180  -28.8170   20.1810 C   0  0  0  0  0  0  0  0  0  0  0  0
  -26.0580  -30.6150   21.4550 C   0  0  0  0  0  2  0  0  0  0  0  0
  -26.1150  -29.1790   20.8090 C   0  0  0  0  0  0  0  0  0  0  0  0
  -27.2330  -28.1920   20.8110 C   0  0  0  0  0  3  0  0  0  0  0  0
  -25.9500  -26.6290   19.5720 C   0  0  0  0  0  3  0  0  0  0  0  0
  -24.8720  -27.5670   19.5380 C   0  0  0  0  0  3  0  0  0  0  0  0
  -23.7150  -29.7720   20.2160 C   0  0  0  0  0  2  0  0  0  0  0  0
  -24.7620  -31.0260   22.1330 N   0  0  0  0  0  0  0  0  0  0  0  0
  -23.5840  -32.1920   23.7170 O   0  0  0  0  0  0  0  0  0  0  0  0
  -22.7600  -29.5130   22.5600 C   0  0  0  0  0  0  0  0  0  0  0  0
  -21.4260  -29.3670   22.4380 N   0  0  0  0  0  0  0  0  0  0  0  0
  -23.4130  -28.8900   23.4000 O   0  0  0  0  0  0  0  0  0  0  0  0
  -20.9490  -29.9180   21.7380 H   0  0  0  0  0  0  0  0  0  0  0  0
  -18.0320  -28.1790   22.9610 C   0  0  0  0  0  0  0  0  0  0  0  0
  -20.5940  -28.4410   23.2170 C   0  0  0  0  0  3  0  0  0  0  0  0
  -20.6880  -27.0030   22.6560 C   0  0  0  0  0  2  0  0  0  0  0  0
  -19.5850  -26.6760   21.6450 C   0  0  0  0  0  2  0  0  0  0  0  0
  -18.2040  -26.8270   22.2890 C   0  0  0  0  0  2  0  0  0  0  0  0
  -19.1530  -28.9430   23.3820 C   0  0  0  0  0  0  0  0  0  0  0  0
  -18.9340  -30.2060   23.9750 C   0  0  0  0  0  3  0  0  0  0  0  0
  -17.6290  -30.7040   24.1480 C   0  0  0  0  0  3  0  0  0  0  0  0
  -16.5240  -29.9390   23.7390 C   0  0  0  0  0  3  0  0  0  0  0  0
  -16.7260  -28.6770   23.1520 C   0  0  0  0  0  3  0  0  0  0  0  0
  -25.9420  -32.5310   23.8430 C   0  0  0  0  0  3  0  0  0  0  0  0
  -26.4440  -31.7700   25.1340 C   0  0  1  0  0  0  0  0  0  0  0  0
  -25.3420  -31.5500   26.1980 C   0  0  0  0  0  1  0  0  0  0  0  0
  -27.0210  -30.3830   24.7710 C   0  0  0  0  0  1  0  0  0  0  0  0
  -27.5960  -32.5630   25.7960 C   0  0  0  0  0  1  0  0  0  0  0  0
  -25.6220  -33.9320   24.1840 N   0  0  0  0  0  0  0  0  0  0  0  0
  -25.9340  -34.9990   23.4360 C   0  0  0  0  0  0  0  0  0  0  0  0
  -26.5780  -34.9090   22.3890 O   0  0  0  0  0  0  0  0  0  0  0  0
  -25.0440  -34.0740   24.9990 H   0  0  0  0  0  0  0  0  0  0  0  0
  -24.1830  -36.7940   23.1700 C   0  0  0  0  0  1  0  0  0  0  0  0
  -25.4590  -36.3850   23.9240 C   0  0  0  0  0  3  0  0  0  0  0  0
  -27.6180  -37.2870   24.6740 C   0  0  0  0  0  1  0  0  0  0  0  0
  -26.4790  -37.4470   23.7740 N   0  0  0  0  0  0  0  0  0  0  0  0
  -26.0730  -38.3640   23.9370 H   0  0  0  0  0  0  0  0  0  0  0  0
  1  3  1  0
  2  3  1  0
  2  6  1  0
  3  5  1  0
  4  2  2  0
  7  6  1  0
  8 13  1  0
  9 10  1  0
  9  8  1  0
 11 10  1  0
 11 18  1  0
 11 12  1  0
 13  7  1  0
 13 12  1  0
 14  7  2  0
 15 16  2  0
 16 35  1  0
 17 16  1  0
 17 20  1  0
 18 19  1  0
 18 15  1  0
 19 17  2  0
 20 21  1  0
 21 22  2  0
 23 26  1  0
 23 22  1  0
 24 23  2  0
 25 24  1  0
 25 20  2  0
 26 27  1  0
 27 28  1  0
 28 29  2  0
 30 29  1  0
 30 34  1  0
 31 30  2  0
 32 27  2  0
 32 31  1  0
 33 32  1  0
 35 36  1  0
 36 39  1  0
 36 38  1  0
 37 35  2  0
 40 15  1  0
 40 41  1  0
 42 40  1  0
 43  1  2  0
 43 44  1  0
 45 56  2  0
 46 44  1  0
 46 51  1  0
 47 55  1  0
 47 57  1  0
 48 54  1  0
 48 50  1  0
 49 55  1  0
 50 51  2  0
 50 49  1  0
 52 46  2  0
 53 52  1  0
 53 48  2  0
 54 47  1  0
 55 45  1  0
 57 59  2  0
 58 57  1  0
 60 58  1  0
 61 70  2  0
 61 66  1  0
 62 58  1  0
 62 66  1  0
 63 62  1  0
 64 65  1  0
 64 63  1  0
 65 61  1  0
 66 67  2  0
 67 68  1  0
 69 68  2  0
 70 69  1  0
 71 45  1  0
 71 76  1  0
 71 72  1  0
 72 75  1  1
 72 73  1  0
 74 72  1  0
 76 79  1  0
 77 81  1  0
 77 76  1  0
 78 77  2  0
 81 80  1  0
 83 81  1  0
 83 84  1  0
 83 82  1  0
M  ISO  4   6 100   7 100  43 101  44 101
M  END
>  <TORSDO>  (37) 
F 19

>  <SCORE>  (37) 
-16.386

>  <name>  (37) 
36

>  <ligand_id>  (37) 
36

>  <original_smiles>  (37) 
[H]c1c([H])c([H])c2c(c1[H])C([H])([H])C([H])([H])C([H])([H])C2([H])N([H])C(=O)C1([H])N(C(=O)C([H])(N([H])C(=O)C([H])(N([H])C([H])([H])[H])C([H])([H])[H])C(C([H])([H])[H])(C([H])([H])[H])C([H])([H])[H])C([H])([H])c2c([H])c(OC([H])([H])C([H])([H])N([H])C(=O)C([H])([H])C(=O)N3C([H])([H])C([H])([H])C([H])([H])C([H])(n4nc(-c5c([H])c([H])c(Oc6c([H])c([H])c(F)c([H])c6F)c([H])c5[H])c(C(=O)N([H])[H])c4N([H])[H])C3([H])[H])c([H])c([H])c2C1([H])[H]

>  <smiles>  (37) 
[H]c1c([H])c([H])c2c(c1[H])C([H])([H])C([H])([H])C([H])([H])C2([H])N([H])C(=O)C1([H])N(C(=O)C([H])(N([H])C(=O)C([H])(N([H])C([H])([H])[H])C([H])([H])[H])C(C([H])([H])[H])(C([H])([H])[H])C([H])([H])[H])C([H])([H])c2c([H])c(OC([H])([H])C([H])([H])N([H])C(=O)C([H])([H])C(=O)N3C([H])([H])C([H])([H])C([H])([H])C([H])(n4nc(-c5c([H])c([H])c(Oc6c([H])c([H])c(F)c([H])c6F)c([H])c5[H])c(C(=O)N([H])[H])c4N([H])[H])C3([H])[H])c([H])c([H])c2C1([H])[H]

$$$$
37:0:0
     RDKit          3D

 84 91  0  0  1  0  0  0  0  0999 V2000
  -27.8640  -23.7980   20.2340 C   0  0  0  0  0  0  0  0  0  0  0  0
  -26.6790  -23.4670   20.1640 O   0  0  0  0  0  0  0  0  0  0  0  0
  -28.1280  -25.6070   20.2780 O   0  0  0  0  0  0  0  0  0  0  0  0
  -24.6730  -31.8850   23.2350 C   0  0  0  0  0  0  0  0  0  0  0  0
  -27.1710  -26.8230   20.2340 C   0  0  0  0  0  0  0  0  0  0  0  0
  -23.4720  -30.4920   21.6040 C   0  0  0  0  0  3  0  0  0  0  0  0
  -24.9060  -28.8440   20.1870 C   0  0  0  0  0  0  0  0  0  0  0  0
  -26.0490  -30.6310   21.4720 C   0  0  0  0  0  2  0  0  0  0  0  0
  -26.1040  -29.2000   20.8200 C   0  0  0  0  0  0  0  0  0  0  0  0
  -27.2200  -28.2140   20.8180 C   0  0  0  0  0  3  0  0  0  0  0  0
  -25.9400  -26.6730   19.5470 C   0  0  0  0  0  3  0  0  0  0  0  0
  -24.8600  -27.6040   19.5300 C   0  0  0  0  0  3  0  0  0  0  0  0
  -23.7020  -29.7960   20.2330 C   0  0  0  0  0  2  0  0  0  0  0  0
  -24.7550  -31.0350   22.1550 N   0  0  0  0  0  0  0  0  0  0  0  0
  -23.5850  -32.1910   23.7500 O   0  0  0  0  0  0  0  0  0  0  0  0
  -22.7570  -29.5160   22.5780 C   0  0  0  0  0  0  0  0  0  0  0  0
  -21.4250  -29.3610   22.4540 N   0  0  0  0  0  0  0  0  0  0  0  0
  -23.4140  -28.8960   23.4190 O   0  0  0  0  0  0  0  0  0  0  0  0
  -20.9460  -29.9110   21.7540 H   0  0  0  0  0  0  0  0  0  0  0  0
  -18.0370  -28.1560   22.9720 C   0  0  0  0  0  0  0  0  0  0  0  0
  -20.5970  -28.4300   23.2310 C   0  0  0  0  0  3  0  0  0  0  0  0
  -20.7000  -26.9930   22.6660 C   0  0  0  0  0  2  0  0  0  0  0  0
  -19.5980  -26.6630   21.6540 C   0  0  0  0  0  2  0  0  0  0  0  0
  -18.2160  -26.8060   22.2980 C   0  0  0  0  0  2  0  0  0  0  0  0
  -19.1540  -28.9250   23.3950 C   0  0  0  0  0  0  0  0  0  0  0  0
  -18.9290  -30.1850   23.9920 C   0  0  0  0  0  3  0  0  0  0  0  0
  -17.6210  -30.6770   24.1640 C   0  0  0  0  0  3  0  0  0  0  0  0
  -16.5200  -29.9070   23.7530 C   0  0  0  0  0  3  0  0  0  0  0  0
  -16.7290  -28.6470   23.1640 C   0  0  0  0  0  3  0  0  0  0  0  0
  -25.9440  -32.5290   23.8680 C   0  0  0  0  0  3  0  0  0  0  0  0
  -26.4420  -31.7700   25.1600 C   0  0  1  0  0  0  0  0  0  0  0  0
  -25.3390  -31.5530   26.2220 C   0  0  0  0  0  1  0  0  0  0  0  0
  -27.0190  -30.3830   24.8010 C   0  0  0  0  0  1  0  0  0  0  0  0
  -27.5940  -32.5630   25.8220 C   0  0  0  0  0  1  0  0  0  0  0  0
  -25.6290  -33.9320   24.2040 N   0  0  0  0  0  0  0  0  0  0  0  0
  -25.9390  -34.9950   23.4490 C   0  0  0  0  0  0  0  0  0  0  0  0
  -26.5800  -34.8980   22.3990 O   0  0  0  0  0  0  0  0  0  0  0  0
  -25.0540  -34.0790   25.0210 H   0  0  0  0  0  0  0  0  0  0  0  0
  -24.1940  -36.7930   23.1800 C   0  0  0  0  0  1  0  0  0  0  0  0
  -25.4710  -36.3850   23.9320 C   0  0  0  0  0  3  0  0  0  0  0  0
  -27.6330  -37.2840   24.6760 C   0  0  0  0  0  1  0  0  0  0  0  0
  -26.4940  -37.4420   23.7760 N   0  0  0  0  0  0  0  0  0  0  0  0
  -26.0900  -38.3610   23.9340 H   0  0  0  0  0  0  0  0  0  0  0  0
  -28.9390  -22.2940   20.2710 C   0  0  0  0  0  2  0  0  0  0  0  0
  -28.7170  -20.3770   20.2690 C   0  0  0  0  0  3  0  0  0  0  0  0
  -29.7570  -18.7570   20.2180 C   0  0  0  0  0  3  0  0  0  0  0  0
  -30.2840  -15.6540   20.1130 C   0  0  0  0  0  0  0  0  0  0  0  0
  -30.3380  -13.1420   19.2380 C   0  0  0  0  0  2  0  0  0  0  0  0
  -29.4000  -12.7860   18.0520 C   0  0  0  0  0  2  0  0  0  0  0  0
  -27.9910  -12.4320   18.5520 C   0  0  0  0  0  2  0  0  0  0  0  0
  -27.5250  -13.4060   19.6580 C   0  0  0  0  0  3  0  0  0  0  0  0
  -28.5980  -13.6810   20.7370 C   0  0  0  0  0  2  0  0  0  0  0  0
  -29.7510  -14.3000   20.0460 N   0  0  0  0  0  0  0  0  0  0  0  0
  -31.5070  -15.6060   19.8870 O   0  0  0  0  0  0  0  0  0  0  0  0
  -29.5330  -17.0040   20.2350 N   0  0  0  0  0  0  0  0  0  0  0  0
  -28.5520  -16.7940   20.3650 H   0  0  0  0  0  0  0  0  0  0  0  0
  -25.1900  -13.9070   20.5260 C   0  0  0  0  0  0  0  0  0  0  0  0
  -24.1510  -13.1100   20.9160 C   0  0  0  0  0  0  0  0  0  0  0  0
  -24.6310  -11.7660   20.8360 C   0  0  0  0  0  0  0  0  0  0  0  0
  -26.2300  -13.0500   20.2210 N   0  0  0  0  0  0  0  0  0  0  0  0
  -25.9110  -11.7520   20.4750 N   0  0  0  0  0  0  0  0  0  0  0  0
  -23.9200  -10.4930   21.0240 C   0  0  0  0  0  0  0  0  0  0  0  0
  -24.3720   -9.5200   21.9430 C   0  0  0  0  0  3  0  0  0  0  0  0
  -23.6570   -8.3160   22.1220 C   0  0  0  0  0  3  0  0  0  0  0  0
  -22.4740   -8.0760   21.3820 C   0  0  0  0  0  0  0  0  0  0  0  0
  -22.0410   -9.0380   20.4520 C   0  0  0  0  0  3  0  0  0  0  0  0
  -22.7570  -10.2330   20.2710 C   0  0  0  0  0  3  0  0  0  0  0  0
  -21.7290   -6.9250   21.4710 O   0  0  0  0  0  0  0  0  0  0  0  0
  -21.6770   -6.1890   22.6280 C   0  0  0  0  0  0  0  0  0  0  0  0
  -21.2070   -6.7380   23.8400 C   0  0  0  0  0  3  0  0  0  0  0  0
  -21.1040   -5.9270   24.9890 C   0  0  0  0  0  3  0  0  0  0  0  0
  -21.4620   -4.5680   24.9250 C   0  0  0  0  0  0  0  0  0  0  0  0
  -21.9260   -4.0170   23.7170 C   0  0  0  0  0  3  0  0  0  0  0  0
  -22.0290   -4.8260   22.5700 C   0  0  0  0  0  0  0  0  0  0  0  0
  -22.4570   -4.2850   21.4040 F   0  0  0  0  0  0  0  0  0  0  0  0
  -21.3570   -3.7860   26.0250 F   0  0  0  0  0  0  0  0  0  0  0  0
  -22.7610  -13.5690   21.2410 C   0  0  0  0  0  0  0  0  0  0  0  0
  -22.0710  -12.8550   22.1230 N   0  0  0  0  0  0  0  0  0  0  0  0
  -22.2970  -14.5970   20.7490 O   0  0  0  0  0  0  0  0  0  0  0  0
  -22.4610  -12.0240   22.5430 H   0  0  0  0  0  0  0  0  0  0  0  0
  -21.1380  -13.1440   22.3840 H   0  0  0  0  0  0  0  0  0  0  0  0
  -25.3310  -15.2830   20.3710 N   0  0  0  0  0  0  0  0  0  0  0  0
  -24.5580  -15.9220   20.5210 H   0  0  0  0  0  0  0  0  0  0  0  0
  -26.1500  -15.7350   19.9870 H   0  0  0  0  0  0  0  0  0  0  0  0
  1 44  1  0
  1  3  1  0
  2  1  2  0
  4 15  2  0
  5  3  1  0
  5 10  1  0
  6 14  1  0
  6 16  1  0
  7 13  1  0
  7  9  1  0
  8 14  1  0
  9  8  1  0
 10  9  2  0
 11  5  2  0
 12 11  1  0
 12  7  2  0
 13  6  1  0
 14  4  1  0
 16 18  2  0
 17 16  1  0
 19 17  1  0
 20 29  2  0
 20 25  1  0
 21 17  1  0
 21 25  1  0
 22 21  1  0
 23 24  1  0
 23 22  1  0
 24 20  1  0
 25 26  2  0
 26 27  1  0
 28 27  2  0
 29 28  1  0
 30  4  1  0
 30 35  1  0
 30 31  1  0
 31 34  1  1
 31 32  1  0
 33 31  1  0
 35 38  1  0
 36 40  1  0
 36 35  1  0
 37 36  2  0
 40 39  1  0
 42 40  1  0
 42 43  1  0
 42 41  1  0
 45 44  1  0
 46 55  1  0
 46 45  2  0
 47 55  1  0
 48 53  1  0
 49 50  1  0
 49 48  1  0
 51 50  1  0
 51 60  1  0
 51 52  1  0
 53 47  1  0
 53 52  1  0
 54 47  2  0
 55 56  1  0
 57 58  2  0
 58 77  1  0
 59 58  1  0
 59 62  1  0
 60 61  1  0
 60 57  1  0
 61 59  2  0
 62 63  1  0
 63 64  2  0
 65 68  1  0
 65 64  1  0
 66 65  2  0
 67 66  1  0
 67 62  2  0
 68 69  1  0
 69 70  1  0
 70 71  2  0
 72 71  1  0
 72 76  1  0
 73 72  2  0
 74 69  2  0
 74 73  1  0
 75 74  1  0
 77 78  1  0
 78 81  1  0
 78 80  1  0
 79 77  2  0
 82 83  1  0
 82 57  1  0
 84 82  1  0
M  ISO  4   1 101   3 101  47 100  55 100
M  END
>  <TORSDO>  (38) 
F 19

>  <SCORE>  (38) 
-16.379

>  <name>  (38) 
37

>  <ligand_id>  (38) 
37

>  <original_smiles>  (38) 
[H]c1c([H])c([H])c2c(c1[H])C([H])([H])C([H])([H])C([H])([H])C2([H])N([H])C(=O)C1([H])N(C(=O)C([H])(N([H])C(=O)C([H])(N([H])C([H])([H])[H])C([H])([H])[H])C(C([H])([H])[H])(C([H])([H])[H])C([H])([H])[H])C([H])([H])c2c([H])c(OC(=O)C([H])([H])C([H])([H])C([H])([H])N([H])C(=O)N3C([H])([H])C([H])([H])C([H])([H])C([H])(n4nc(-c5c([H])c([H])c(Oc6c([H])c([H])c(F)c([H])c6F)c([H])c5[H])c(C(=O)N([H])[H])c4N([H])[H])C3([H])[H])c([H])c([H])c2C1([H])[H]

>  <smiles>  (38) 
[H]c1c([H])c([H])c2c(c1[H])C([H])([H])C([H])([H])C([H])([H])C2([H])N([H])C(=O)C1([H])N(C(=O)C([H])(N([H])C(=O)C([H])(N([H])C([H])([H])[H])C([H])([H])[H])C(C([H])([H])[H])(C([H])([H])[H])C([H])([H])[H])C([H])([H])c2c([H])c(OC(=O)C([H])([H])C([H])([H])C([H])([H])N([H])C(=O)N3C([H])([H])C([H])([H])C([H])([H])C([H])(n4nc(-c5c([H])c([H])c(Oc6c([H])c([H])c(F)c([H])c6F)c([H])c5[H])c(C(=O)N([H])[H])c4N([H])[H])C3([H])[H])c([H])c([H])c2C1([H])[H]

$$$$
38:0:0
     RDKit          3D

 85 92  0  0  1  0  0  0  0  0999 V2000
  -28.0950  -24.2860   19.8460 C   0  0  0  0  0  0  0  0  0  0  0  0
  -27.4190  -24.0120   18.8530 O   0  0  0  0  0  0  0  0  0  0  0  0
  -28.1830  -25.8830   20.3160 O   0  0  0  0  0  0  0  0  0  0  0  0
  -24.6430  -31.8480   23.1950 C   0  0  0  0  0  0  0  0  0  0  0  0
  -27.1960  -26.9890   20.1710 C   0  0  0  0  0  0  0  0  0  0  0  0
  -23.4420  -30.4440   21.5680 C   0  0  0  0  0  3  0  0  0  0  0  0
  -24.8880  -28.8500   20.1370 C   0  0  0  0  0  0  0  0  0  0  0  0
  -26.0070  -30.6650   21.4090 C   0  0  0  0  0  2  0  0  0  0  0  0
  -26.0750  -29.2580   20.7550 C   0  0  0  0  0  0  0  0  0  0  0  0
  -27.2190  -28.3440   20.7580 C   0  0  0  0  0  3  0  0  0  0  0  0
  -25.9770  -26.7350   19.4970 C   0  0  0  0  0  3  0  0  0  0  0  0
  -24.8620  -27.6070   19.4890 C   0  0  0  0  0  3  0  0  0  0  0  0
  -23.6640  -29.7630   20.1910 C   0  0  0  0  0  2  0  0  0  0  0  0
  -24.7180  -31.0120   22.1100 N   0  0  0  0  0  0  0  0  0  0  0  0
  -23.5550  -32.1370   23.7200 O   0  0  0  0  0  0  0  0  0  0  0  0
  -22.7560  -29.4480   22.5390 C   0  0  0  0  0  0  0  0  0  0  0  0
  -21.4260  -29.2840   22.4240 N   0  0  0  0  0  0  0  0  0  0  0  0
  -23.4290  -28.8240   23.3630 O   0  0  0  0  0  0  0  0  0  0  0  0
  -20.9370  -29.8370   21.7350 H   0  0  0  0  0  0  0  0  0  0  0  0
  -18.0480  -28.0700   22.9490 C   0  0  0  0  0  0  0  0  0  0  0  0
  -20.6080  -28.3490   23.2050 C   0  0  0  0  0  3  0  0  0  0  0  0
  -20.7140  -26.9120   22.6420 C   0  0  0  0  0  2  0  0  0  0  0  0
  -19.6110  -26.5770   21.6330 C   0  0  0  0  0  2  0  0  0  0  0  0
  -18.2300  -26.7170   22.2800 C   0  0  0  0  0  2  0  0  0  0  0  0
  -19.1630  -28.8420   23.3690 C   0  0  0  0  0  0  0  0  0  0  0  0
  -18.9360  -30.1050   23.9580 C   0  0  0  0  0  3  0  0  0  0  0  0
  -17.6290  -30.5960   24.1300 C   0  0  0  0  0  3  0  0  0  0  0  0
  -16.5280  -29.8220   23.7230 C   0  0  0  0  0  3  0  0  0  0  0  0
  -16.7380  -28.5600   23.1390 C   0  0  0  0  0  3  0  0  0  0  0  0
  -25.9160  -32.4940   23.8170 C   0  0  0  0  0  3  0  0  0  0  0  0
  -26.4400  -31.7250   25.0930 C   0  0  1  0  0  0  0  0  0  0  0  0
  -25.3520  -31.4870   26.1670 C   0  0  0  0  0  1  0  0  0  0  0  0
  -27.0240  -30.3470   24.7090 C   0  0  0  0  0  1  0  0  0  0  0  0
  -27.5910  -32.5230   25.7490 C   0  0  0  0  0  1  0  0  0  0  0  0
  -25.5940  -33.8890   24.1630 N   0  0  0  0  0  0  0  0  0  0  0  0
  -25.9090  -34.9580   23.4180 C   0  0  0  0  0  0  0  0  0  0  0  0
  -26.5660  -34.8730   22.3780 O   0  0  0  0  0  0  0  0  0  0  0  0
  -25.0060  -34.0280   24.9720 H   0  0  0  0  0  0  0  0  0  0  0  0
  -24.1600  -36.7460   23.1240 C   0  0  0  0  0  1  0  0  0  0  0  0
  -25.4210  -36.3390   23.9030 C   0  0  0  0  0  3  0  0  0  0  0  0
  -27.5670  -37.2330   24.6980 C   0  0  0  0  0  1  0  0  0  0  0  0
  -26.4430  -37.4020   23.7800 N   0  0  0  0  0  0  0  0  0  0  0  0
  -26.0330  -38.3170   23.9460 H   0  0  0  0  0  0  0  0  0  0  0  0
  -28.7950  -22.8810   20.5770 C   0  0  0  0  0  2  0  0  0  0  0  0
  -29.0840  -21.2400   19.9210 C   0  0  0  0  0  2  0  0  0  0  0  0
  -29.2270  -19.6010   20.6240 C   0  0  0  0  0  3  0  0  0  0  0  0
  -29.9130  -18.0770   19.9980 C   0  0  0  0  0  3  0  0  0  0  0  0
  -30.4650  -15.2250   20.2530 C   0  0  0  0  0  0  0  0  0  0  0  0
  -30.3990  -12.7980   19.3740 C   0  0  0  0  0  2  0  0  0  0  0  0
  -29.4770  -12.6450   18.1380 C   0  0  0  0  0  2  0  0  0  0  0  0
  -28.0230  -12.3950   18.5740 C   0  0  0  0  0  2  0  0  0  0  0  0
  -27.5880  -13.3450   19.7180 C   0  0  0  0  0  3  0  0  0  0  0  0
  -28.6390  -13.4540   20.8450 C   0  0  0  0  0  2  0  0  0  0  0  0
  -29.8850  -13.9300   20.2240 N   0  0  0  0  0  0  0  0  0  0  0  0
  -31.6660  -15.2350   19.9540 O   0  0  0  0  0  0  0  0  0  0  0  0
  -29.7160  -16.4840   20.4100 N   0  0  0  0  0  0  0  0  0  0  0  0
  -28.7680  -16.2900   20.7010 H   0  0  0  0  0  0  0  0  0  0  0  0
  -25.2110  -13.9100   20.4520 C   0  0  0  0  0  0  0  0  0  0  0  0
  -24.1500  -13.1340   20.8280 C   0  0  0  0  0  0  0  0  0  0  0  0
  -24.6200  -11.7850   20.8140 C   0  0  0  0  0  0  0  0  0  0  0  0
  -26.2570  -13.0340   20.2230 N   0  0  0  0  0  0  0  0  0  0  0  0
  -25.9130  -11.7500   20.5080 N   0  0  0  0  0  0  0  0  0  0  0  0
  -23.8950  -10.5230   21.0140 C   0  0  0  0  0  0  0  0  0  0  0  0
  -24.3340   -9.5580   21.9470 C   0  0  0  0  0  3  0  0  0  0  0  0
  -23.6060   -8.3630   22.1380 C   0  0  0  0  0  3  0  0  0  0  0  0
  -22.4250   -8.1240   21.3960 C   0  0  0  0  0  0  0  0  0  0  0  0
  -22.0050   -9.0790   20.4520 C   0  0  0  0  0  3  0  0  0  0  0  0
  -22.7330  -10.2640   20.2590 C   0  0  0  0  0  3  0  0  0  0  0  0
  -21.6690   -6.9820   21.4960 O   0  0  0  0  0  0  0  0  0  0  0  0
  -21.6430   -6.2340   22.6450 C   0  0  0  0  0  0  0  0  0  0  0  0
  -21.2620   -6.7880   23.8870 C   0  0  0  0  0  3  0  0  0  0  0  0
  -21.1820   -5.9670   25.0290 C   0  0  0  0  0  3  0  0  0  0  0  0
  -21.4730   -4.5940   24.9310 C   0  0  0  0  0  0  0  0  0  0  0  0
  -21.8470   -4.0390   23.6950 C   0  0  0  0  0  3  0  0  0  0  0  0
  -21.9280   -4.8570   22.5550 C   0  0  0  0  0  0  0  0  0  0  0  0
  -22.2680   -4.3130   21.3610 F   0  0  0  0  0  0  0  0  0  0  0  0
  -21.3900   -3.8030   26.0270 F   0  0  0  0  0  0  0  0  0  0  0  0
  -22.7510  -13.6110   21.0850 C   0  0  0  0  0  0  0  0  0  0  0  0
  -22.0210  -12.9280   21.9590 N   0  0  0  0  0  0  0  0  0  0  0  0
  -22.3140  -14.6260   20.5440 O   0  0  0  0  0  0  0  0  0  0  0  0
  -22.3880  -12.1080   22.4180 H   0  0  0  0  0  0  0  0  0  0  0  0
  -21.0820  -13.2310   22.1740 H   0  0  0  0  0  0  0  0  0  0  0  0
  -25.3680  -15.2790   20.2590 N   0  0  0  0  0  0  0  0  0  0  0  0
  -24.5940  -15.9270   20.3550 H   0  0  0  0  0  0  0  0  0  0  0  0
  -26.2040  -15.7140   19.8910 H   0  0  0  0  0  0  0  0  0  0  0  0
  1  3  1  0
  1 44  1  0
  2  1  2  0
  4 15  2  0
  5  3  1  0
  5 10  1  0
  6 14  1  0
  6 16  1  0
  7 13  1  0
  7  9  1  0
  8 14  1  0
  9 10  2  0
  9  8  1  0
 11  5  2  0
 12 11  1  0
 12  7  2  0
 13  6  1  0
 14  4  1  0
 16 18  2  0
 17 16  1  0
 19 17  1  0
 20 29  2  0
 20 25  1  0
 21 17  1  0
 21 25  1  0
 22 21  1  0
 23 24  1  0
 23 22  1  0
 24 20  1  0
 25 26  2  0
 26 27  1  0
 28 27  2  0
 29 28  1  0
 30  4  1  0
 30 35  1  0
 30 31  1  0
 31 34  1  1
 31 32  1  0
 33 31  1  0
 35 38  1  0
 36 40  1  0
 36 35  1  0
 37 36  2  0
 40 39  1  0
 42 40  1  0
 42 43  1  0
 42 41  1  0
 45 44  1  0
 45 46  1  0
 47 56  1  0
 47 46  2  0
 48 56  1  0
 49 54  1  0
 50 51  1  0
 50 49  1  0
 52 51  1  0
 52 61  1  0
 52 53  1  0
 54 48  1  0
 54 53  1  0
 55 48  2  0
 56 57  1  0
 58 59  2  0
 59 78  1  0
 60 59  1  0
 60 63  1  0
 61 58  1  0
 61 62  1  0
 62 60  2  0
 63 64  1  0
 64 65  2  0
 66 69  1  0
 66 65  1  0
 67 66  2  0
 68 67  1  0
 68 63  2  0
 69 70  1  0
 70 71  1  0
 71 72  2  0
 73 72  1  0
 73 77  1  0
 74 73  2  0
 75 70  2  0
 75 74  1  0
 76 75  1  0
 78 79  1  0
 79 82  1  0
 79 81  1  0
 80 78  2  0
 83 84  1  0
 83 58  1  0
 85 83  1  0
M  ISO  4   1 101   3 101  48 100  56 100
M  END
>  <TORSDO>  (39) 
F 20

>  <SCORE>  (39) 
-16.049

>  <name>  (39) 
38

>  <ligand_id>  (39) 
38

>  <original_smiles>  (39) 
[H]c1c([H])c([H])c2c(c1[H])C([H])([H])C([H])([H])C([H])([H])C2([H])N([H])C(=O)C1([H])N(C(=O)C([H])(N([H])C(=O)C([H])(N([H])C([H])([H])[H])C([H])([H])[H])C(C([H])([H])[H])(C([H])([H])[H])C([H])([H])[H])C([H])([H])c2c([H])c(OC(=O)C([H])([H])C([H])([H])C([H])([H])C([H])([H])N([H])C(=O)N3C([H])([H])C([H])([H])C([H])([H])C([H])(n4nc(-c5c([H])c([H])c(Oc6c([H])c([H])c(F)c([H])c6F)c([H])c5[H])c(C(=O)N([H])[H])c4N([H])[H])C3([H])[H])c([H])c([H])c2C1([H])[H]

>  <smiles>  (39) 
[H]c1c([H])c([H])c2c(c1[H])C([H])([H])C([H])([H])C([H])([H])C2([H])N([H])C(=O)C1([H])N(C(=O)C([H])(N([H])C(=O)C([H])(N([H])C([H])([H])[H])C([H])([H])[H])C(C([H])([H])[H])(C([H])([H])[H])C([H])([H])[H])C([H])([H])c2c([H])c(OC(=O)C([H])([H])C([H])([H])C([H])([H])C([H])([H])N([H])C(=O)N3C([H])([H])C([H])([H])C([H])([H])C([H])(n4nc(-c5c([H])c([H])c(Oc6c([H])c([H])c(F)c([H])c6F)c([H])c5[H])c(C(=O)N([H])[H])c4N([H])[H])C3([H])[H])c([H])c([H])c2C1([H])[H]

$$$$
39:0:0
     RDKit          3D

 83 90  0  0  1  0  0  0  0  0999 V2000
  -27.9490  -23.9120   20.2000 C   0  0  0  0  0  3  0  0  0  0  0  0
  -28.1500  -25.6420   20.2980 O   0  0  0  0  0  0  0  0  0  0  0  0
  -24.6720  -31.8880   23.2420 C   0  0  0  0  0  0  0  0  0  0  0  0
  -27.1710  -26.8340   20.2470 C   0  0  0  0  0  0  0  0  0  0  0  0
  -23.4710  -30.4970   21.6080 C   0  0  0  0  0  3  0  0  0  0  0  0
  -24.9060  -28.8480   20.1930 C   0  0  0  0  0  0  0  0  0  0  0  0
  -26.0490  -30.6390   21.4750 C   0  0  0  0  0  2  0  0  0  0  0  0
  -26.1040  -29.2100   20.8200 C   0  0  0  0  0  0  0  0  0  0  0  0
  -27.2230  -28.2300   20.8150 C   0  0  0  0  0  3  0  0  0  0  0  0
  -25.9390  -26.6690   19.5680 C   0  0  0  0  0  3  0  0  0  0  0  0
  -24.8600  -27.6020   19.5430 C   0  0  0  0  0  3  0  0  0  0  0  0
  -23.7020  -29.8000   20.2370 C   0  0  0  0  0  2  0  0  0  0  0  0
  -24.7550  -31.0400   22.1610 N   0  0  0  0  0  0  0  0  0  0  0  0
  -23.5830  -32.1920   23.7560 O   0  0  0  0  0  0  0  0  0  0  0  0
  -22.7560  -29.5220   22.5800 C   0  0  0  0  0  0  0  0  0  0  0  0
  -21.4230  -29.3690   22.4550 N   0  0  0  0  0  0  0  0  0  0  0  0
  -23.4110  -28.8980   23.4200 O   0  0  0  0  0  0  0  0  0  0  0  0
  -20.9460  -29.9220   21.7570 H   0  0  0  0  0  0  0  0  0  0  0  0
  -18.0330  -28.1690   22.9680 C   0  0  0  0  0  0  0  0  0  0  0  0
  -20.5930  -28.4390   23.2300 C   0  0  0  0  0  3  0  0  0  0  0  0
  -20.6940  -27.0020   22.6640 C   0  0  0  0  0  2  0  0  0  0  0  0
  -19.5940  -26.6750   21.6500 C   0  0  0  0  0  2  0  0  0  0  0  0
  -18.2110  -26.8200   22.2910 C   0  0  0  0  0  2  0  0  0  0  0  0
  -19.1500  -28.9350   23.3940 C   0  0  0  0  0  0  0  0  0  0  0  0
  -18.9270  -30.1950   23.9910 C   0  0  0  0  0  3  0  0  0  0  0  0
  -17.6200  -30.6890   24.1620 C   0  0  0  0  0  3  0  0  0  0  0  0
  -16.5170  -29.9210   23.7490 C   0  0  0  0  0  3  0  0  0  0  0  0
  -16.7250  -28.6620   23.1580 C   0  0  0  0  0  3  0  0  0  0  0  0
  -25.9420  -32.5310   23.8780 C   0  0  0  0  0  3  0  0  0  0  0  0
  -26.4400  -31.7670   25.1680 C   0  0  1  0  0  0  0  0  0  0  0  0
  -25.3350  -31.5460   26.2290 C   0  0  0  0  0  1  0  0  0  0  0  0
  -27.0170  -30.3800   24.8050 C   0  0  0  0  0  1  0  0  0  0  0  0
  -27.5910  -32.5580   25.8350 C   0  0  0  0  0  1  0  0  0  0  0  0
  -25.6270  -33.9320   24.2180 N   0  0  0  0  0  0  0  0  0  0  0  0
  -25.9330  -34.9970   23.4640 C   0  0  0  0  0  0  0  0  0  0  0  0
  -26.5690  -34.9020   22.4100 O   0  0  0  0  0  0  0  0  0  0  0  0
  -25.0570  -34.0770   25.0370 H   0  0  0  0  0  0  0  0  0  0  0  0
  -24.1800  -36.7890   23.2110 C   0  0  0  0  0  1  0  0  0  0  0  0
  -25.4650  -36.3850   23.9520 C   0  0  0  0  0  3  0  0  0  0  0  0
  -27.6320  -37.2910   24.6730 C   0  0  0  0  0  1  0  0  0  0  0  0
  -26.4840  -37.4450   23.7830 N   0  0  0  0  0  0  0  0  0  0  0  0
  -26.0790  -38.3630   23.9460 H   0  0  0  0  0  0  0  0  0  0  0  0
  -28.9470  -22.2690   20.2790 C   0  0  0  0  0  3  0  0  0  0  0  0
  -28.7110  -20.3580   20.2370 C   0  0  0  0  0  3  0  0  0  0  0  0
  -29.7530  -18.7430   20.2450 C   0  0  0  0  0  3  0  0  0  0  0  0
  -30.2820  -15.6460   20.1480 C   0  0  0  0  0  0  0  0  0  0  0  0
  -30.3500  -13.1330   19.2860 C   0  0  0  0  0  2  0  0  0  0  0  0
  -29.4300  -12.7740   18.0850 C   0  0  0  0  0  2  0  0  0  0  0  0
  -28.0130  -12.4240   18.5630 C   0  0  0  0  0  2  0  0  0  0  0  0
  -27.5300  -13.4030   19.6600 C   0  0  0  0  0  3  0  0  0  0  0  0
  -28.5860  -13.6800   20.7550 C   0  0  0  0  0  2  0  0  0  0  0  0
  -29.7510  -14.2930   20.0790 N   0  0  0  0  0  0  0  0  0  0  0  0
  -31.5110  -15.5990   19.9480 O   0  0  0  0  0  0  0  0  0  0  0  0
  -29.5270  -16.9940   20.2480 N   0  0  0  0  0  0  0  0  0  0  0  0
  -28.5450  -16.7820   20.3500 H   0  0  0  0  0  0  0  0  0  0  0  0
  -25.1770  -13.9060   20.4730 C   0  0  0  0  0  0  0  0  0  0  0  0
  -24.1340  -13.1120   20.8550 C   0  0  0  0  0  0  0  0  0  0  0  0
  -24.6200  -11.7680   20.8040 C   0  0  0  0  0  0  0  0  0  0  0  0
  -26.2270  -13.0500   20.2020 N   0  0  0  0  0  0  0  0  0  0  0  0
  -25.9070  -11.7560   20.4690 N   0  0  0  0  0  0  0  0  0  0  0  0
  -23.9110  -10.4960   20.9970 C   0  0  0  0  0  0  0  0  0  0  0  0
  -24.3510   -9.5380   21.9370 C   0  0  0  0  0  3  0  0  0  0  0  0
  -23.6360   -8.3340   22.1190 C   0  0  0  0  0  3  0  0  0  0  0  0
  -22.4690   -8.0770   21.3610 C   0  0  0  0  0  0  0  0  0  0  0  0
  -22.0480   -9.0240   20.4100 C   0  0  0  0  0  3  0  0  0  0  0  0
  -22.7630  -10.2200   20.2260 C   0  0  0  0  0  3  0  0  0  0  0  0
  -21.7270   -6.9240   21.4530 O   0  0  0  0  0  0  0  0  0  0  0  0
  -21.6590   -6.2030   22.6170 C   0  0  0  0  0  0  0  0  0  0  0  0
  -21.1670   -6.7650   23.8150 C   0  0  0  0  0  3  0  0  0  0  0  0
  -21.0490   -5.9670   24.9700 C   0  0  0  0  0  3  0  0  0  0  0  0
  -21.4130   -4.6090   24.9290 C   0  0  0  0  0  0  0  0  0  0  0  0
  -21.8990   -4.0450   23.7360 C   0  0  0  0  0  3  0  0  0  0  0  0
  -22.0180   -4.8400   22.5820 C   0  0  0  0  0  0  0  0  0  0  0  0
  -22.4660   -4.2870   21.4300 F   0  0  0  0  0  0  0  0  0  0  0  0
  -21.2940   -3.8400   26.0380 F   0  0  0  0  0  0  0  0  0  0  0  0
  -22.7360  -13.5700   21.1460 C   0  0  0  0  0  0  0  0  0  0  0  0
  -22.0320  -12.8660   22.0240 N   0  0  0  0  0  0  0  0  0  0  0  0
  -22.2780  -14.5880   20.6300 O   0  0  0  0  0  0  0  0  0  0  0  0
  -22.4170  -12.0420   22.4630 H   0  0  0  0  0  0  0  0  0  0  0  0
  -21.0930  -13.1550   22.2630 H   0  0  0  0  0  0  0  0  0  0  0  0
  -25.3150  -15.2810   20.3020 N   0  0  0  0  0  0  0  0  0  0  0  0
  -24.5370  -15.9190   20.4270 H   0  0  0  0  0  0  0  0  0  0  0  0
  -26.1390  -15.7310   19.9280 H   0  0  0  0  0  0  0  0  0  0  0  0
  1 43  2  0
  1  2  1  0
  3 14  2  0
  4  2  1  0
  4  9  1  0
  5 13  1  0
  5 15  1  0
  6 12  1  0
  6  8  1  0
  7 13  1  0
  8  7  1  0
  9  8  2  0
 10  4  2  0
 11 10  1  0
 11  6  2  0
 12  5  1  0
 13  3  1  0
 15 17  2  0
 16 15  1  0
 18 16  1  0
 19 28  2  0
 19 24  1  0
 20 16  1  0
 20 24  1  0
 21 20  1  0
 22 23  1  0
 22 21  1  0
 23 19  1  0
 24 25  2  0
 25 26  1  0
 27 26  2  0
 28 27  1  0
 29  3  1  0
 29 34  1  0
 29 30  1  0
 30 33  1  1
 30 31  1  0
 32 30  1  0
 34 37  1  0
 35 39  1  0
 35 34  1  0
 36 35  2  0
 39 38  1  0
 41 42  1  0
 41 39  1  0
 41 40  1  0
 44 45  2  0
 44 43  1  0
 45 54  1  0
 46 54  1  0
 47 52  1  0
 48 49  1  0
 48 47  1  0
 50 49  1  0
 50 59  1  0
 50 51  1  0
 52 46  1  0
 52 51  1  0
 53 46  2  0
 54 55  1  0
 56 57  2  0
 57 76  1  0
 58 57  1  0
 58 61  1  0
 59 60  1  0
 59 56  1  0
 60 58  2  0
 61 62  1  0
 62 63  2  0
 64 67  1  0
 64 63  1  0
 65 64  2  0
 66 65  1  0
 66 61  2  0
 67 68  1  0
 68 69  1  0
 69 70  2  0
 71 70  1  0
 71 75  1  0
 72 71  2  0
 73 68  2  0
 73 72  1  0
 74 73  1  0
 76 77  1  0
 77 80  1  0
 77 79  1  0
 78 76  2  0
 81 82  1  0
 81 56  1  0
 83 81  1  0
M  ISO  4   1 101   2 101  46 100  54 100
M  END
>  <TORSDO>  (40) 
F 19

>  <SCORE>  (40) 
-16.287

>  <name>  (40) 
39

>  <ligand_id>  (40) 
39

>  <original_smiles>  (40) 
[H]c1c([H])c([H])c2c(c1[H])C([H])([H])C([H])([H])C([H])([H])C2([H])N([H])C(=O)C1([H])N(C(=O)C([H])(N([H])C(=O)C([H])(N([H])C([H])([H])[H])C([H])([H])[H])C(C([H])([H])[H])(C([H])([H])[H])C([H])([H])[H])C([H])([H])c2c([H])c(OC([H])([H])C([H])([H])C([H])([H])C([H])([H])N([H])C(=O)N3C([H])([H])C([H])([H])C([H])([H])C([H])(n4nc(-c5c([H])c([H])c(Oc6c([H])c([H])c(F)c([H])c6F)c([H])c5[H])c(C(=O)N([H])[H])c4N([H])[H])C3([H])[H])c([H])c([H])c2C1([H])[H]

>  <smiles>  (40) 
[H]c1c([H])c([H])c2c(c1[H])C([H])([H])C([H])([H])C([H])([H])C2([H])N([H])C(=O)C1([H])N(C(=O)C([H])(N([H])C(=O)C([H])(N([H])C([H])([H])[H])C([H])([H])[H])C(C([H])([H])[H])(C([H])([H])[H])C([H])([H])[H])C([H])([H])c2c([H])c(OC([H])([H])C([H])([H])C([H])([H])C([H])([H])N([H])C(=O)N3C([H])([H])C([H])([H])C([H])([H])C([H])(n4nc(-c5c([H])c([H])c(Oc6c([H])c([H])c(F)c([H])c6F)c([H])c5[H])c(C(=O)N([H])[H])c4N([H])[H])C3([H])[H])c([H])c([H])c2C1([H])[H]

$$$$
40:0:0
     RDKit          3D

 85 92  0  0  1  0  0  0  0  0999 V2000
  -28.0380  -24.3660   20.5460 C   0  0  0  0  0  3  0  0  0  0  0  0
  -26.7160  -24.0750   20.4760 F   0  0  0  0  0  0  0  0  0  0  0  0
  -28.2040  -25.8350   20.1780 O   0  0  0  0  0  0  0  0  0  0  0  0
  -24.5850  -31.8290   23.1600 C   0  0  0  0  0  0  0  0  0  0  0  0
  -27.1840  -26.9330   20.2020 C   0  0  0  0  0  0  0  0  0  0  0  0
  -23.4130  -30.4200   21.5190 C   0  0  0  0  0  3  0  0  0  0  0  0
  -24.8820  -28.8140   20.1220 C   0  0  0  0  0  0  0  0  0  0  0  0
  -25.9810  -30.6380   21.3990 C   0  0  0  0  0  2  0  0  0  0  0  0
  -26.0630  -29.2210   20.7570 C   0  0  0  0  0  0  0  0  0  0  0  0
  -27.2100  -28.3020   20.7730 C   0  0  0  0  0  3  0  0  0  0  0  0
  -25.9790  -26.6940   19.5040 C   0  0  0  0  0  3  0  0  0  0  0  0
  -24.8640  -27.5710   19.4750 C   0  0  0  0  0  3  0  0  0  0  0  0
  -23.6600  -29.7320   20.1490 C   0  0  0  0  0  2  0  0  0  0  0  0
  -24.6810  -30.9900   22.0790 N   0  0  0  0  0  0  0  0  0  0  0  0
  -23.4900  -32.1170   23.6690 O   0  0  0  0  0  0  0  0  0  0  0  0
  -22.7150  -29.4250   22.4820 C   0  0  0  0  0  0  0  0  0  0  0  0
  -21.3820  -29.2750   22.3660 N   0  0  0  0  0  0  0  0  0  0  0  0
  -23.3790  -28.7870   23.3030 O   0  0  0  0  0  0  0  0  0  0  0  0
  -20.8990  -29.8400   21.6820 H   0  0  0  0  0  0  0  0  0  0  0  0
  -17.9880  -28.1100   22.9070 C   0  0  0  0  0  0  0  0  0  0  0  0
  -20.5550  -28.3410   23.1380 C   0  0  0  0  0  3  0  0  0  0  0  0
  -20.6290  -26.9140   22.5490 C   0  0  0  0  0  2  0  0  0  0  0  0
  -19.5090  -26.6160   21.5460 C   0  0  0  0  0  2  0  0  0  0  0  0
  -18.1390  -26.7680   22.2110 C   0  0  0  0  0  2  0  0  0  0  0  0
  -19.1220  -28.8550   23.3290 C   0  0  0  0  0  0  0  0  0  0  0  0
  -18.9230  -30.1100   23.9450 C   0  0  0  0  0  3  0  0  0  0  0  0
  -17.6270  -30.6200   24.1400 C   0  0  0  0  0  3  0  0  0  0  0  0
  -16.5080  -29.8730   23.7320 C   0  0  0  0  0  3  0  0  0  0  0  0
  -16.6890  -28.6190   23.1220 C   0  0  0  0  0  3  0  0  0  0  0  0
  -25.8470  -32.4820   23.8000 C   0  0  0  0  0  3  0  0  0  0  0  0
  -26.3540  -31.7170   25.0850 C   0  0  1  0  0  0  0  0  0  0  0  0
  -25.2510  -31.4740   26.1430 C   0  0  0  0  0  1  0  0  0  0  0  0
  -26.9510  -30.3410   24.7110 C   0  0  0  0  0  1  0  0  0  0  0  0
  -27.4930  -32.5210   25.7570 C   0  0  0  0  0  1  0  0  0  0  0  0
  -25.5120  -33.8760   24.1410 N   0  0  0  0  0  0  0  0  0  0  0  0
  -25.8330  -34.9470   23.4020 C   0  0  0  0  0  0  0  0  0  0  0  0
  -26.5040  -34.8640   22.3710 O   0  0  0  0  0  0  0  0  0  0  0  0
  -24.9140  -34.0120   24.9430 H   0  0  0  0  0  0  0  0  0  0  0  0
  -24.0820  -36.7300   23.0850 C   0  0  0  0  0  1  0  0  0  0  0  0
  -25.3340  -36.3260   23.8810 C   0  0  0  0  0  3  0  0  0  0  0  0
  -27.4650  -37.2270   24.7040 C   0  0  0  0  0  1  0  0  0  0  0  0
  -26.3530  -37.3930   23.7730 N   0  0  0  0  0  0  0  0  0  0  0  0
  -25.9380  -38.3060   23.9340 H   0  0  0  0  0  0  0  0  0  0  0  0
  -28.7320  -22.7870   19.9650 C   0  0  0  0  0  2  0  0  0  0  0  0
  -29.0060  -21.2880   20.6130 O   0  0  0  0  0  0  0  0  0  0  0  0
  -29.0900  -19.7460   20.0220 C   0  0  0  0  0  2  0  0  0  0  0  0
  -29.8920  -18.2140   20.5690 C   0  0  0  0  0  2  0  0  0  0  0  0
  -30.3910  -15.2980   20.2520 C   0  0  0  0  0  0  0  0  0  0  0  0
  -30.3640  -12.8530   19.3650 C   0  0  0  0  0  2  0  0  0  0  0  0
  -29.4380  -12.6250   18.1440 C   0  0  0  0  0  2  0  0  0  0  0  0
  -27.9920  -12.3560   18.5960 C   0  0  0  0  0  2  0  0  0  0  0  0
  -27.5430  -13.3260   19.7170 C   0  0  0  0  0  3  0  0  0  0  0  0
  -28.5980  -13.4870   20.8310 C   0  0  0  0  0  2  0  0  0  0  0  0
  -29.8160  -13.9970   20.1810 N   0  0  0  0  0  0  0  0  0  0  0  0
  -31.6170  -15.2910   20.0760 O   0  0  0  0  0  0  0  0  0  0  0  0
  -29.6300  -16.5740   20.3210 N   0  0  0  0  0  0  0  0  0  0  0  0
  -28.6410  -16.3710   20.3220 H   0  0  0  0  0  0  0  0  0  0  0  0
  -25.1760  -13.8830   20.4820 C   0  0  0  0  0  0  0  0  0  0  0  0
  -24.1180  -13.1050   20.8590 C   0  0  0  0  0  0  0  0  0  0  0  0
  -24.5880  -11.7560   20.8330 C   0  0  0  0  0  0  0  0  0  0  0  0
  -26.2200  -13.0090   20.2370 N   0  0  0  0  0  0  0  0  0  0  0  0
  -25.8780  -11.7230   20.5170 N   0  0  0  0  0  0  0  0  0  0  0  0
  -23.8630  -10.4930   21.0280 C   0  0  0  0  0  0  0  0  0  0  0  0
  -24.3040   -9.5230   21.9550 C   0  0  0  0  0  3  0  0  0  0  0  0
  -23.5750   -8.3280   22.1400 C   0  0  0  0  0  3  0  0  0  0  0  0
  -22.3920   -8.0940   21.4000 C   0  0  0  0  0  0  0  0  0  0  0  0
  -21.9710   -9.0530   20.4620 C   0  0  0  0  0  3  0  0  0  0  0  0
  -22.7000  -10.2400   20.2750 C   0  0  0  0  0  3  0  0  0  0  0  0
  -21.6350   -6.9510   21.4950 O   0  0  0  0  0  0  0  0  0  0  0  0
  -21.6090   -6.2000   22.6430 C   0  0  0  0  0  0  0  0  0  0  0  0
  -21.2240   -6.7500   23.8860 C   0  0  0  0  0  3  0  0  0  0  0  0
  -21.1430   -5.9260   25.0260 C   0  0  0  0  0  3  0  0  0  0  0  0
  -21.4360   -4.5530   24.9250 C   0  0  0  0  0  0  0  0  0  0  0  0
  -21.8140   -4.0020   23.6880 C   0  0  0  0  0  3  0  0  0  0  0  0
  -21.8960   -4.8240   22.5490 C   0  0  0  0  0  0  0  0  0  0  0  0
  -22.2400   -4.2830   21.3550 F   0  0  0  0  0  0  0  0  0  0  0  0
  -21.3510   -3.7590   26.0180 F   0  0  0  0  0  0  0  0  0  0  0  0
  -22.7200  -13.5810   21.1260 C   0  0  0  0  0  0  0  0  0  0  0  0
  -21.9930  -12.8920   21.9980 N   0  0  0  0  0  0  0  0  0  0  0  0
  -22.2810  -14.6020   20.5980 O   0  0  0  0  0  0  0  0  0  0  0  0
  -22.3610  -12.0670   22.4480 H   0  0  0  0  0  0  0  0  0  0  0  0
  -21.0560  -13.1940   22.2200 H   0  0  0  0  0  0  0  0  0  0  0  0
  -25.3320  -15.2540   20.2970 N   0  0  0  0  0  0  0  0  0  0  0  0
  -24.5580  -15.9000   20.4070 H   0  0  0  0  0  0  0  0  0  0  0  0
  -26.1640  -15.6940   19.9280 H   0  0  0  0  0  0  0  0  0  0  0  0
  1  2  1  0
  3  5  1  0
  3  1  1  0
  4 15  2  0
  5 10  1  0
  6 14  1  0
  6 16  1  0
  7 13  1  0
  7  9  1  0
  8 14  1  0
  9 10  2  0
  9  8  1  0
 11  5  2  0
 12 11  1  0
 12  7  2  0
 13  6  1  0
 14  4  1  0
 16 18  2  0
 17 16  1  0
 19 17  1  0
 20 29  2  0
 20 25  1  0
 21 17  1  0
 21 25  1  0
 22 21  1  0
 23 24  1  0
 23 22  1  0
 24 20  1  0
 25 26  2  0
 26 27  1  0
 28 27  2  0
 29 28  1  0
 30  4  1  0
 30 35  1  0
 30 31  1  0
 31 34  1  1
 31 32  1  0
 33 31  1  0
 35 38  1  0
 36 40  1  0
 36 35  1  0
 37 36  2  0
 40 39  1  0
 42 40  1  0
 42 43  1  0
 42 41  1  0
 44  1  1  0
 44 45  1  0
 46 47  1  0
 46 45  1  0
 48 56  1  0
 49 54  1  0
 50 51  1  0
 50 49  1  0
 52 51  1  0
 52 61  1  0
 52 53  1  0
 54 48  1  0
 54 53  1  0
 55 48  2  0
 56 57  1  0
 56 47  1  0
 58 59  2  0
 59 78  1  0
 60 59  1  0
 60 63  1  0
 61 58  1  0
 61 62  1  0
 62 60  2  0
 63 64  1  0
 64 65  2  0
 66 69  1  0
 66 65  1  0
 67 66  2  0
 68 67  1  0
 68 63  2  0
 69 70  1  0
 70 71  1  0
 71 72  2  0
 73 72  1  0
 73 77  1  0
 74 73  2  0
 75 70  2  0
 75 74  1  0
 76 75  1  0
 78 79  1  0
 79 82  1  0
 79 81  1  0
 80 78  2  0
 83 84  1  0
 83 58  1  0
 85 83  1  0
M  ISO  4   1 101   3 101  48 100  56 100
M  END
>  <TORSDO>  (41) 
F 20

>  <SCORE>  (41) 
-15.623

>  <name>  (41) 
40

>  <ligand_id>  (41) 
40

>  <original_smiles>  (41) 
[H]c1c([H])c([H])c2c(c1[H])C([H])([H])C([H])([H])C([H])([H])C2([H])N([H])C(=O)C1([H])N(C(=O)C([H])(N([H])C(=O)C([H])(N([H])C([H])([H])[H])C([H])([H])[H])C(C([H])([H])[H])(C([H])([H])[H])C([H])([H])[H])C([H])([H])c2c([H])c(OC([H])(F)C([H])([H])OC([H])([H])C([H])([H])N([H])C(=O)N3C([H])([H])C([H])([H])C([H])([H])C([H])(n4nc(-c5c([H])c([H])c(Oc6c([H])c([H])c(F)c([H])c6F)c([H])c5[H])c(C(=O)N([H])[H])c4N([H])[H])C3([H])[H])c([H])c([H])c2C1([H])[H]

>  <smiles>  (41) 
[H]c1c([H])c([H])c2c(c1[H])C([H])([H])C([H])([H])C([H])([H])C2([H])N([H])C(=O)C1([H])N(C(=O)C([H])(N([H])C(=O)C([H])(N([H])C([H])([H])[H])C([H])([H])[H])C(C([H])([H])[H])(C([H])([H])[H])C([H])([H])[H])C([H])([H])c2c([H])c(OC([H])(F)C([H])([H])OC([H])([H])C([H])([H])N([H])C(=O)N3C([H])([H])C([H])([H])C([H])([H])C([H])(n4nc(-c5c([H])c([H])c(Oc6c([H])c([H])c(F)c([H])c6F)c([H])c5[H])c(C(=O)N([H])[H])c4N([H])[H])C3([H])[H])c([H])c([H])c2C1([H])[H]

$$$$
41:0:0
     RDKit          3D

 85 92  0  0  1  0  0  0  0  0999 V2000
  -29.0070  -23.4420   20.3590 C   0  0  0  0  0  3  0  0  0  0  0  0
  -28.5670  -21.8280   20.2590 C   0  0  0  0  0  3  0  0  0  0  0  0
  -29.5960  -20.5120   20.3810 C   0  0  0  0  0  3  0  0  0  0  0  0
  -29.1360  -18.9010   20.3870 C   0  0  0  0  0  3  0  0  0  0  0  0
  -30.2010  -17.6110   20.4040 C   0  0  0  0  0  3  0  0  0  0  0  0
  -30.5520  -14.9210   20.3340 C   0  0  0  0  0  0  0  0  0  0  0  0
  -30.4060  -12.5910   19.3770 C   0  0  0  0  0  2  0  0  0  0  0  0
  -29.4680  -12.5760   18.1480 C   0  0  0  0  0  2  0  0  0  0  0  0
  -28.0050  -12.3750   18.5850 C   0  0  0  0  0  2  0  0  0  0  0  0
  -27.6070  -13.2870   19.7750 C   0  0  0  0  0  3  0  0  0  0  0  0
  -28.6680  -13.2770   20.8960 C   0  0  0  0  0  2  0  0  0  0  0  0
  -29.9420  -13.6740   20.2840 N   0  0  0  0  0  0  0  0  0  0  0  0
  -31.7500  -14.9900   20.0420 O   0  0  0  0  0  0  0  0  0  0  0  0
  -29.7900  -16.0990   20.4990 N   0  0  0  0  0  0  0  0  0  0  0  0
  -28.8120  -15.9330   20.6850 H   0  0  0  0  0  0  0  0  0  0  0  0
  -25.2220  -13.8540   20.5160 C   0  0  0  0  0  0  0  0  0  0  0  0
  -24.1640  -13.0730   20.8890 C   0  0  0  0  0  0  0  0  0  0  0  0
  -24.6380  -11.7260   20.8590 C   0  0  0  0  0  0  0  0  0  0  0  0
  -26.2710  -12.9830   20.2750 N   0  0  0  0  0  0  0  0  0  0  0  0
  -25.9280  -11.6980   20.5490 N   0  0  0  0  0  0  0  0  0  0  0  0
  -23.9190  -10.4590   21.0510 C   0  0  0  0  0  0  0  0  0  0  0  0
  -24.3620   -9.4910   21.9800 C   0  0  0  0  0  3  0  0  0  0  0  0
  -23.6420   -8.2900   22.1610 C   0  0  0  0  0  3  0  0  0  0  0  0
  -22.4650   -8.0490   21.4120 C   0  0  0  0  0  0  0  0  0  0  0  0
  -22.0420   -9.0040   20.4720 C   0  0  0  0  0  3  0  0  0  0  0  0
  -22.7630  -10.1970   20.2900 C   0  0  0  0  0  3  0  0  0  0  0  0
  -21.7160   -6.9000   21.5030 O   0  0  0  0  0  0  0  0  0  0  0  0
  -21.6820   -6.1510   22.6510 C   0  0  0  0  0  0  0  0  0  0  0  0
  -21.2690   -6.6990   23.8860 C   0  0  0  0  0  3  0  0  0  0  0  0
  -21.1830   -5.8770   25.0270 C   0  0  0  0  0  3  0  0  0  0  0  0
  -21.4980   -4.5080   24.9350 C   0  0  0  0  0  0  0  0  0  0  0  0
  -21.9040   -3.9590   23.7060 C   0  0  0  0  0  3  0  0  0  0  0  0
  -21.9930   -4.7790   22.5670 C   0  0  0  0  0  0  0  0  0  0  0  0
  -22.3640   -4.2410   21.3790 F   0  0  0  0  0  0  0  0  0  0  0  0
  -21.4080   -3.7150   26.0290 F   0  0  0  0  0  0  0  0  0  0  0  0
  -22.7630  -13.5410   21.1570 C   0  0  0  0  0  0  0  0  0  0  0  0
  -22.0420  -12.8460   22.0300 N   0  0  0  0  0  0  0  0  0  0  0  0
  -22.3170  -14.5590   20.6290 O   0  0  0  0  0  0  0  0  0  0  0  0
  -22.4160  -12.0240   22.4790 H   0  0  0  0  0  0  0  0  0  0  0  0
  -21.1020  -13.1420   22.2540 H   0  0  0  0  0  0  0  0  0  0  0  0
  -25.3730  -15.2260   20.3340 N   0  0  0  0  0  0  0  0  0  0  0  0
  -24.5980  -15.8700   20.4460 H   0  0  0  0  0  0  0  0  0  0  0  0
  -26.2070  -15.6720   19.9740 H   0  0  0  0  0  0  0  0  0  0  0  0
  -27.9610  -24.7240   20.1180 C   0  0  0  0  0  3  0  0  0  0  0  0
  -28.2540  -26.2370   20.2540 O   0  0  0  0  0  0  0  0  0  0  0  0
  -24.6510  -31.8960   23.2470 C   0  0  0  0  0  0  0  0  0  0  0  0
  -27.1910  -27.2030   20.1940 C   0  0  0  0  0  0  0  0  0  0  0  0
  -23.4330  -30.5090   21.6140 C   0  0  0  0  0  3  0  0  0  0  0  0
  -24.8640  -28.9350   20.1790 C   0  0  0  0  0  0  0  0  0  0  0  0
  -25.9850  -30.7730   21.4300 C   0  0  0  0  0  2  0  0  0  0  0  0
  -26.0490  -29.3850   20.7760 C   0  0  0  0  0  0  0  0  0  0  0  0
  -27.2150  -28.5350   20.7650 C   0  0  0  0  0  3  0  0  0  0  0  0
  -25.9780  -26.8470   19.5650 C   0  0  0  0  0  3  0  0  0  0  0  0
  -24.8390  -27.6780   19.5590 C   0  0  0  0  0  3  0  0  0  0  0  0
  -23.6400  -29.8340   20.2340 C   0  0  0  0  0  2  0  0  0  0  0  0
  -24.7090  -31.0800   22.1520 N   0  0  0  0  0  0  0  0  0  0  0  0
  -23.5690  -32.1840   23.7830 O   0  0  0  0  0  0  0  0  0  0  0  0
  -22.7570  -29.5020   22.5790 C   0  0  0  0  0  0  0  0  0  0  0  0
  -21.4290  -29.3350   22.4560 N   0  0  0  0  0  0  0  0  0  0  0  0
  -23.4320  -28.8740   23.4000 O   0  0  0  0  0  0  0  0  0  0  0  0
  -20.9420  -29.8920   21.7690 H   0  0  0  0  0  0  0  0  0  0  0  0
  -18.0480  -28.1350   22.9600 C   0  0  0  0  0  0  0  0  0  0  0  0
  -20.6070  -28.4010   23.2320 C   0  0  0  0  0  3  0  0  0  0  0  0
  -20.7100  -26.9650   22.6660 C   0  0  0  0  0  2  0  0  0  0  0  0
  -19.6110  -26.6360   21.6510 C   0  0  0  0  0  2  0  0  0  0  0  0
  -18.2280  -26.7820   22.2910 C   0  0  0  0  0  2  0  0  0  0  0  0
  -19.1660  -28.9020   23.3870 C   0  0  0  0  0  0  0  0  0  0  0  0
  -18.9430  -30.1670   23.9730 C   0  0  0  0  0  3  0  0  0  0  0  0
  -17.6370  -30.6660   24.1360 C   0  0  0  0  0  3  0  0  0  0  0  0
  -16.5350  -29.8970   23.7250 C   0  0  0  0  0  3  0  0  0  0  0  0
  -16.7410  -28.6330   23.1430 C   0  0  0  0  0  3  0  0  0  0  0  0
  -25.9360  -32.5240   23.8670 C   0  0  0  0  0  3  0  0  0  0  0  0
  -25.6300  -33.9210   24.2100 N   0  0  0  0  0  0  0  0  0  0  0  0
  -25.9390  -34.9800   23.4500 C   0  0  0  0  0  0  0  0  0  0  0  0
  -26.5800  -34.8840   22.4000 O   0  0  0  0  0  0  0  0  0  0  0  0
  -25.0520  -34.0680   25.0240 H   0  0  0  0  0  0  0  0  0  0  0  0
  -24.1860  -36.7660   23.1770 C   0  0  0  0  0  1  0  0  0  0  0  0
  -25.4650  -36.3660   23.9300 C   0  0  0  0  0  3  0  0  0  0  0  0
  -27.6300  -37.2640   24.6640 C   0  0  0  0  0  1  0  0  0  0  0  0
  -26.4850  -37.4260   23.7710 N   0  0  0  0  0  0  0  0  0  0  0  0
  -26.0800  -38.3440   23.9390 H   0  0  0  0  0  0  0  0  0  0  0  0
  -26.4540  -31.7460   25.1390 C   0  0  1  0  0  0  0  0  0  0  0  0
  -25.3650  -31.5130   26.2130 C   0  0  0  0  0  1  0  0  0  0  0  0
  -27.0270  -30.3650   24.7460 C   0  0  0  0  0  1  0  0  0  0  0  0
  -27.6140  -32.5320   25.7960 C   0  0  0  0  0  1  0  0  0  0  0  0
  2  1  1  0
  2  3  2  0
  3  4  1  0
  4  5  2  0
  5 14  1  0
  6 14  1  0
  7 12  1  0
  8  9  1  0
  8  7  1  0
 10  9  1  0
 10 19  1  0
 10 11  1  0
 12  6  1  0
 12 11  1  0
 13  6  2  0
 14 15  1  0
 16 17  2  0
 17 36  1  0
 18 17  1  0
 18 21  1  0
 19 16  1  0
 19 20  1  0
 20 18  2  0
 21 22  1  0
 22 23  2  0
 24 27  1  0
 24 23  1  0
 25 24  2  0
 26 25  1  0
 26 21  2  0
 27 28  1  0
 28 29  1  0
 29 30  2  0
 31 30  1  0
 31 35  1  0
 32 31  2  0
 33 28  2  0
 33 32  1  0
 34 33  1  0
 36 37  1  0
 37 40  1  0
 37 39  1  0
 38 36  2  0
 41 42  1  0
 41 16  1  0
 43 41  1  0
 44 45  1  0
 44  1  2  0
 46 57  2  0
 47 45  1  0
 47 52  1  0
 48 56  1  0
 48 58  1  0
 49 55  1  0
 49 51  1  0
 50 56  1  0
 51 50  1  0
 52 51  2  0
 53 47  2  0
 54 53  1  0
 54 49  2  0
 55 48  1  0
 56 46  1  0
 58 60  2  0
 59 58  1  0
 61 59  1  0
 62 71  2  0
 62 67  1  0
 63 59  1  0
 63 67  1  0
 64 63  1  0
 65 66  1  0
 65 64  1  0
 66 62  1  0
 67 68  2  0
 68 69  1  0
 70 69  2  0
 71 70  1  0
 72 46  1  0
 72 73  1  0
 72 82  1  0
 73 76  1  0
 74 78  1  0
 74 73  1  0
 75 74  2  0
 78 77  1  0
 80 78  1  0
 80 81  1  0
 80 79  1  0
 82 85  1  1
 82 83  1  0
 84 82  1  0
M  ISO  4   6 100  14 100  44 101  45 101
M  END
>  <TORSDO>  (42) 
F 21

>  <SCORE>  (42) 
-13.163

>  <name>  (42) 
41

>  <ligand_id>  (42) 
41

>  <original_smiles>  (42) 
[H]c1c([H])c([H])c2c(c1[H])C([H])([H])C([H])([H])C([H])([H])C2([H])N([H])C(=O)C1([H])N(C(=O)C([H])(N([H])C(=O)C([H])(N([H])C([H])([H])[H])C([H])([H])[H])C(C([H])([H])[H])(C([H])([H])[H])C([H])([H])[H])C([H])([H])c2c([H])c(OC([H])([H])C([H])([H])C([H])([H])C([H])([H])C([H])([H])C([H])([H])N([H])C(=O)N3C([H])([H])C([H])([H])C([H])([H])C([H])(n4nc(-c5c([H])c([H])c(Oc6c([H])c([H])c(F)c([H])c6F)c([H])c5[H])c(C(=O)N([H])[H])c4N([H])[H])C3([H])[H])c([H])c([H])c2C1([H])[H]

>  <smiles>  (42) 
[H]c1c([H])c([H])c2c(c1[H])C([H])([H])C([H])([H])C([H])([H])C2([H])N([H])C(=O)C1([H])N(C(=O)C([H])(N([H])C(=O)C([H])(N([H])C([H])([H])[H])C([H])([H])[H])C(C([H])([H])[H])(C([H])([H])[H])C([H])([H])[H])C([H])([H])c2c([H])c(OC([H])([H])C([H])([H])C([H])([H])C([H])([H])C([H])([H])C([H])([H])N([H])C(=O)N3C([H])([H])C([H])([H])C([H])([H])C([H])(n4nc(-c5c([H])c([H])c(Oc6c([H])c([H])c(F)c([H])c6F)c([H])c5[H])c(C(=O)N([H])[H])c4N([H])[H])C3([H])[H])c([H])c([H])c2C1([H])[H]

$$$$
42:0:0
     RDKit          3D

 89 96  0  0  1  0  0  0  0  0999 V2000
  -29.3200  -24.3400   20.4390 C   0  0  0  0  0  0  0  0  0  0  0  0
  -29.1230  -23.0090   20.3400 N   0  0  0  0  0  0  0  0  0  0  0  0
  -30.3230  -24.8240   20.9690 O   0  0  0  0  0  0  0  0  0  0  0  0
  -28.2690  -22.7160   19.8820 H   0  0  0  0  0  0  0  0  0  0  0  0
  -28.2060  -25.2360   19.8610 C   0  0  0  0  0  2  0  0  0  0  0  0
  -28.3570  -26.6420   20.1770 O   0  0  0  0  0  0  0  0  0  0  0  0
  -24.5850  -31.8720   23.2400 C   0  0  0  0  0  0  0  0  0  0  0  0
  -27.2010  -27.4110   20.1340 C   0  0  0  0  0  0  0  0  0  0  0  0
  -23.3710  -30.4790   21.6010 C   0  0  0  0  0  3  0  0  0  0  0  0
  -24.8140  -28.9490   20.1600 C   0  0  0  0  0  0  0  0  0  0  0  0
  -25.9000  -30.8250   21.3970 C   0  0  0  0  0  2  0  0  0  0  0  0
  -25.9790  -29.4560   20.7500 C   0  0  0  0  0  0  0  0  0  0  0  0
  -27.1740  -28.6940   20.7360 C   0  0  0  0  0  3  0  0  0  0  0  0
  -26.0140  -26.9420   19.5160 C   0  0  0  0  0  3  0  0  0  0  0  0
  -24.8290  -27.6920   19.5390 C   0  0  0  0  0  3  0  0  0  0  0  0
  -23.5720  -29.8110   20.2170 C   0  0  0  0  0  2  0  0  0  0  0  0
  -24.6380  -31.0730   22.1370 N   0  0  0  0  0  0  0  0  0  0  0  0
  -23.5070  -32.1460   23.7840 O   0  0  0  0  0  0  0  0  0  0  0  0
  -22.7230  -29.4530   22.5590 C   0  0  0  0  0  0  0  0  0  0  0  0
  -21.3980  -29.2720   22.4380 N   0  0  0  0  0  0  0  0  0  0  0  0
  -23.4090  -28.8240   23.3700 O   0  0  0  0  0  0  0  0  0  0  0  0
  -20.9040  -29.8330   21.7560 H   0  0  0  0  0  0  0  0  0  0  0  0
  -18.0250  -28.0790   22.9450 C   0  0  0  0  0  0  0  0  0  0  0  0
  -20.5830  -28.3340   23.2100 C   0  0  0  0  0  3  0  0  0  0  0  0
  -20.6830  -26.9040   22.6300 C   0  0  0  0  0  2  0  0  0  0  0  0
  -19.5760  -26.5840   21.6200 C   0  0  0  0  0  2  0  0  0  0  0  0
  -18.1970  -26.7290   22.2690 C   0  0  0  0  0  2  0  0  0  0  0  0
  -19.1450  -28.8390   23.3740 C   0  0  0  0  0  0  0  0  0  0  0  0
  -18.9290  -30.1020   23.9660 C   0  0  0  0  0  3  0  0  0  0  0  0
  -17.6260  -30.6050   24.1360 C   0  0  0  0  0  3  0  0  0  0  0  0
  -16.5200  -29.8420   23.7250 C   0  0  0  0  0  3  0  0  0  0  0  0
  -16.7200  -28.5800   23.1350 C   0  0  0  0  0  3  0  0  0  0  0  0
  -25.8750  -32.5020   23.8540 C   0  0  0  0  0  3  0  0  0  0  0  0
  -25.5660  -33.8960   24.1960 N   0  0  0  0  0  0  0  0  0  0  0  0
  -25.8800  -34.9530   23.4350 C   0  0  0  0  0  0  0  0  0  0  0  0
  -26.5330  -34.8580   22.3930 O   0  0  0  0  0  0  0  0  0  0  0  0
  -24.9840  -34.0440   25.0080 H   0  0  0  0  0  0  0  0  0  0  0  0
  -24.1310  -36.7340   23.1260 C   0  0  0  0  0  1  0  0  0  0  0  0
  -25.3940  -36.3370   23.9060 C   0  0  0  0  0  3  0  0  0  0  0  0
  -27.5420  -37.2340   24.6870 C   0  0  0  0  0  1  0  0  0  0  0  0
  -26.4160  -37.3970   23.7710 N   0  0  0  0  0  0  0  0  0  0  0  0
  -26.0060  -38.3140   23.9320 H   0  0  0  0  0  0  0  0  0  0  0  0
  -26.4050  -31.7210   25.1180 C   0  0  1  0  0  0  0  0  0  0  0  0
  -25.3220  -31.4720   26.1940 C   0  0  0  0  0  1  0  0  0  0  0  0
  -26.9880  -30.3480   24.7080 C   0  0  0  0  0  1  0  0  0  0  0  0
  -27.5590  -32.5120   25.7770 C   0  0  0  0  0  1  0  0  0  0  0  0
  -29.9950  -21.9430   20.8530 C   0  0  0  0  0  2  0  0  0  0  0  0
  -29.4380  -20.5280   20.5370 C   0  0  0  0  0  2  0  0  0  0  0  0
  -30.2930  -19.3630   21.1000 C   0  0  0  0  0  2  0  0  0  0  0  0
  -29.7520  -17.9420   20.7850 C   0  0  0  0  0  2  0  0  0  0  0  0
  -30.6310  -16.8070   21.3730 C   0  0  0  0  0  2  0  0  0  0  0  0
  -30.7320  -14.4520   20.4810 C   0  0  0  0  0  0  0  0  0  0  0  0
  -30.4070  -12.2920   19.3300 C   0  0  0  0  0  2  0  0  0  0  0  0
  -29.4830  -12.4860   18.1110 C   0  0  0  0  0  2  0  0  0  0  0  0
  -28.0030  -12.3710   18.5250 C   0  0  0  0  0  2  0  0  0  0  0  0
  -27.6580  -13.2300   19.7700 C   0  0  0  0  0  3  0  0  0  0  0  0
  -28.6960  -13.0140   20.8950 C   0  0  0  0  0  2  0  0  0  0  0  0
  -30.0310  -13.2930   20.3410 N   0  0  0  0  0  0  0  0  0  0  0  0
  -31.8450  -14.6220   19.9770 O   0  0  0  0  0  0  0  0  0  0  0  0
  -30.1000  -15.4530   21.1210 N   0  0  0  0  0  0  0  0  0  0  0  0
  -29.1820  -15.2400   21.4860 H   0  0  0  0  0  0  0  0  0  0  0  0
  -25.2550  -13.8710   20.4340 C   0  0  0  0  0  0  0  0  0  0  0  0
  -24.1740  -13.1140   20.7990 C   0  0  0  0  0  0  0  0  0  0  0  0
  -24.6230  -11.7580   20.7970 C   0  0  0  0  0  0  0  0  0  0  0  0
  -26.2950  -12.9760   20.2330 N   0  0  0  0  0  0  0  0  0  0  0  0
  -25.9170  -11.7010   20.5080 N   0  0  0  0  0  0  0  0  0  0  0  0
  -23.8800  -10.5070   20.9960 C   0  0  0  0  0  0  0  0  0  0  0  0
  -24.2990   -9.5420   21.9390 C   0  0  0  0  0  3  0  0  0  0  0  0
  -23.5610   -8.3540   22.1260 C   0  0  0  0  0  3  0  0  0  0  0  0
  -22.3870   -8.1230   21.3700 C   0  0  0  0  0  0  0  0  0  0  0  0
  -21.9870   -9.0760   20.4160 C   0  0  0  0  0  3  0  0  0  0  0  0
  -22.7280  -10.2550   20.2280 C   0  0  0  0  0  3  0  0  0  0  0  0
  -21.6190   -6.9870   21.4650 O   0  0  0  0  0  0  0  0  0  0  0  0
  -21.5660   -6.2480   22.6200 C   0  0  0  0  0  0  0  0  0  0  0  0
  -21.1660   -6.8150   23.8490 C   0  0  0  0  0  3  0  0  0  0  0  0
  -21.0600   -6.0040   24.9960 C   0  0  0  0  0  3  0  0  0  0  0  0
  -21.3440   -4.6270   24.9150 C   0  0  0  0  0  0  0  0  0  0  0  0
  -21.7370   -4.0600   23.6900 C   0  0  0  0  0  3  0  0  0  0  0  0
  -21.8450   -4.8680   22.5460 C   0  0  0  0  0  0  0  0  0  0  0  0
  -22.2050   -4.3130   21.3630 F   0  0  0  0  0  0  0  0  0  0  0  0
  -21.2330   -3.8470   26.0160 F   0  0  0  0  0  0  0  0  0  0  0  0
  -22.7780  -13.6100   21.0450 C   0  0  0  0  0  0  0  0  0  0  0  0
  -22.0320  -12.9360   21.9140 N   0  0  0  0  0  0  0  0  0  0  0  0
  -22.3560  -14.6310   20.5020 O   0  0  0  0  0  0  0  0  0  0  0  0
  -22.3860  -12.1120   22.3770 H   0  0  0  0  0  0  0  0  0  0  0  0
  -21.0950  -13.2500   22.1220 H   0  0  0  0  0  0  0  0  0  0  0  0
  -25.4370  -15.2370   20.2370 N   0  0  0  0  0  0  0  0  0  0  0  0
  -24.6790  -15.9040   20.3290 H   0  0  0  0  0  0  0  0  0  0  0  0
  -26.3010  -15.6600   19.9230 H   0  0  0  0  0  0  0  0  0  0  0  0
  1  3  2  0
  2  1  1  0
  2 47  1  0
  4  2  1  0
  5  6  1  0
  5  1  1  0
  7 18  2  0
  8  6  1  0
  8 13  1  0
  9 17  1  0
  9 19  1  0
 10 16  1  0
 10 12  1  0
 11 17  1  0
 12 11  1  0
 13 12  2  0
 14 15  1  0
 14  8  2  0
 15 10  2  0
 16  9  1  0
 17  7  1  0
 19 21  2  0
 20 19  1  0
 22 20  1  0
 23 32  2  0
 23 28  1  0
 24 20  1  0
 24 28  1  0
 25 24  1  0
 26 27  1  0
 26 25  1  0
 27 23  1  0
 28 29  2  0
 29 30  1  0
 31 30  2  0
 32 31  1  0
 33  7  1  0
 33 34  1  0
 33 43  1  0
 34 37  1  0
 35 39  1  0
 35 34  1  0
 36 35  2  0
 39 38  1  0
 41 39  1  0
 41 42  1  0
 41 40  1  0
 43 46  1  1
 43 44  1  0
 45 43  1  0
 48 47  1  0
 48 49  1  0
 50 49  1  0
 50 51  1  0
 52 60  1  0
 53 58  1  0
 54 55  1  0
 54 53  1  0
 56 55  1  0
 56 65  1  0
 56 57  1  0
 58 52  1  0
 58 57  1  0
 59 52  2  0
 60 51  1  0
 60 61  1  0
 62 63  2  0
 63 82  1  0
 64 63  1  0
 64 67  1  0
 65 62  1  0
 65 66  1  0
 66 64  2  0
 67 68  1  0
 68 69  2  0
 70 73  1  0
 70 69  1  0
 71 70  2  0
 72 71  1  0
 72 67  2  0
 73 74  1  0
 74 75  1  0
 75 76  2  0
 77 76  1  0
 77 81  1  0
 78 77  2  0
 79 74  2  0
 79 78  1  0
 80 79  1  0
 82 83  1  0
 83 86  1  0
 83 85  1  0
 84 82  2  0
 87 88  1  0
 87 62  1  0
 89 87  1  0
M  ISO  4   5 101   6 101  52 100  60 100
M  END
>  <TORSDO>  (43) 
F 22

>  <SCORE>  (43) 
-13.006

>  <name>  (43) 
42

>  <ligand_id>  (43) 
42

>  <original_smiles>  (43) 
[H]c1c([H])c([H])c2c(c1[H])C([H])([H])C([H])([H])C([H])([H])C2([H])N([H])C(=O)C1([H])N(C(=O)C([H])(N([H])C(=O)C([H])(N([H])C([H])([H])[H])C([H])([H])[H])C(C([H])([H])[H])(C([H])([H])[H])C([H])([H])[H])C([H])([H])c2c([H])c(OC([H])([H])C(=O)N([H])C([H])([H])C([H])([H])C([H])([H])C([H])([H])C([H])([H])N([H])C(=O)N3C([H])([H])C([H])([H])C([H])([H])C([H])(n4nc(-c5c([H])c([H])c(Oc6c([H])c([H])c(F)c([H])c6F)c([H])c5[H])c(C(=O)N([H])[H])c4N([H])[H])C3([H])[H])c([H])c([H])c2C1([H])[H]

>  <smiles>  (43) 
[H]c1c([H])c([H])c2c(c1[H])C([H])([H])C([H])([H])C([H])([H])C2([H])N([H])C(=O)C1([H])N(C(=O)C([H])(N([H])C(=O)C([H])(N([H])C([H])([H])[H])C([H])([H])[H])C(C([H])([H])[H])(C([H])([H])[H])C([H])([H])[H])C([H])([H])c2c([H])c(OC([H])([H])C(=O)N([H])C([H])([H])C([H])([H])C([H])([H])C([H])([H])C([H])([H])N([H])C(=O)N3C([H])([H])C([H])([H])C([H])([H])C([H])(n4nc(-c5c([H])c([H])c(Oc6c([H])c([H])c(F)c([H])c6F)c([H])c5[H])c(C(=O)N([H])[H])c4N([H])[H])C3([H])[H])c([H])c([H])c2C1([H])[H]

$$$$
43:0:0
     RDKit          3D

 85 92  0  0  1  0  0  0  0  0999 V2000
  -28.9650  -23.3830   20.3610 C   0  0  0  0  0  3  0  0  0  0  0  0
  -27.9430  -24.7050   20.1010 C   0  0  0  0  0  3  0  0  0  0  0  0
  -28.2270  -26.2300   20.2780 O   0  0  0  0  0  0  0  0  0  0  0  0
  -24.6030  -31.9250   23.2450 C   0  0  0  0  0  0  0  0  0  0  0  0
  -27.1750  -27.2150   20.2080 C   0  0  0  0  0  0  0  0  0  0  0  0
  -23.4040  -30.5400   21.5970 C   0  0  0  0  0  3  0  0  0  0  0  0
  -24.8520  -28.9660   20.1720 C   0  0  0  0  0  0  0  0  0  0  0  0
  -25.9590  -30.7980   21.4430 C   0  0  0  0  0  2  0  0  0  0  0  0
  -26.0310  -29.4070   20.7860 C   0  0  0  0  0  0  0  0  0  0  0  0
  -27.1930  -28.5480   20.7860 C   0  0  0  0  0  3  0  0  0  0  0  0
  -25.9670  -26.8750   19.5570 C   0  0  0  0  0  3  0  0  0  0  0  0
  -24.8330  -27.7140   19.5420 C   0  0  0  0  0  3  0  0  0  0  0  0
  -23.6270  -29.8680   20.2160 C   0  0  0  0  0  2  0  0  0  0  0  0
  -24.6760  -31.1090   22.1500 N   0  0  0  0  0  0  0  0  0  0  0  0
  -23.5160  -32.2120   23.7690 O   0  0  0  0  0  0  0  0  0  0  0  0
  -22.7180  -29.5320   22.5530 C   0  0  0  0  0  0  0  0  0  0  0  0
  -21.3900  -29.3670   22.4200 N   0  0  0  0  0  0  0  0  0  0  0  0
  -23.3830  -28.9000   23.3780 O   0  0  0  0  0  0  0  0  0  0  0  0
  -20.9090  -29.9270   21.7290 H   0  0  0  0  0  0  0  0  0  0  0  0
  -17.9980  -28.1960   22.9200 C   0  0  0  0  0  0  0  0  0  0  0  0
  -20.5600  -28.4310   23.1840 C   0  0  0  0  0  3  0  0  0  0  0  0
  -20.6460  -27.0020   22.5980 C   0  0  0  0  0  2  0  0  0  0  0  0
  -19.5390  -26.6990   21.5830 C   0  0  0  0  0  2  0  0  0  0  0  0
  -18.1610  -26.8510   22.2310 C   0  0  0  0  0  2  0  0  0  0  0  0
  -19.1240  -28.9450   23.3530 C   0  0  0  0  0  0  0  0  0  0  0  0
  -18.9180  -30.2030   23.9580 C   0  0  0  0  0  3  0  0  0  0  0  0
  -17.6170  -30.7130   24.1340 C   0  0  0  0  0  3  0  0  0  0  0  0
  -16.5060  -29.9610   23.7160 C   0  0  0  0  0  3  0  0  0  0  0  0
  -16.6970  -28.7040   23.1150 C   0  0  0  0  0  3  0  0  0  0  0  0
  -25.8810  -32.5530   23.8790 C   0  0  0  0  0  3  0  0  0  0  0  0
  -25.5770  -33.9560   24.2040 N   0  0  0  0  0  0  0  0  0  0  0  0
  -25.8850  -35.0050   23.4290 C   0  0  0  0  0  0  0  0  0  0  0  0
  -26.5240  -34.8940   22.3800 O   0  0  0  0  0  0  0  0  0  0  0  0
  -25.0050  -34.1160   25.0210 H   0  0  0  0  0  0  0  0  0  0  0  0
  -24.1320  -36.7880   23.1360 C   0  0  0  0  0  1  0  0  0  0  0  0
  -25.4130  -36.3980   23.8920 C   0  0  0  0  0  3  0  0  0  0  0  0
  -27.5760  -37.3120   24.6140 C   0  0  0  0  0  1  0  0  0  0  0  0
  -26.4340  -37.4540   23.7140 N   0  0  0  0  0  0  0  0  0  0  0  0
  -26.0270  -38.3750   23.8600 H   0  0  0  0  0  0  0  0  0  0  0  0
  -26.3750  -31.7860   25.1680 C   0  0  1  0  0  0  0  0  0  0  0  0
  -25.2660  -31.5630   26.2230 C   0  0  0  0  0  1  0  0  0  0  0  0
  -26.9540  -30.4020   24.7960 C   0  0  0  0  0  1  0  0  0  0  0  0
  -27.5210  -32.5780   25.8400 C   0  0  0  0  0  1  0  0  0  0  0  0
  -28.5550  -21.8910   20.2640 O   0  0  0  0  0  0  0  0  0  0  0  0
  -29.5070  -20.6800   20.4130 C   0  0  0  0  0  3  0  0  0  0  0  0
  -29.0720  -19.0440   20.4020 C   0  0  0  0  0  3  0  0  0  0  0  0
  -30.1350  -17.7310   20.4670 C   0  0  0  0  0  2  0  0  0  0  0  0
  -30.4990  -15.0100   20.3410 C   0  0  0  0  0  0  0  0  0  0  0  0
  -30.3560  -12.6770   19.3680 C   0  0  0  0  0  2  0  0  0  0  0  0
  -29.4070  -12.6560   18.1480 C   0  0  0  0  0  2  0  0  0  0  0  0
  -27.9500  -12.4400   18.5970 C   0  0  0  0  0  2  0  0  0  0  0  0
  -27.5590  -13.3470   19.7940 C   0  0  0  0  0  3  0  0  0  0  0  0
  -28.6300  -13.3430   20.9060 C   0  0  0  0  0  2  0  0  0  0  0  0
  -29.8930  -13.7580   20.2830 N   0  0  0  0  0  0  0  0  0  0  0  0
  -31.6980  -15.0740   20.0500 O   0  0  0  0  0  0  0  0  0  0  0  0
  -29.7370  -16.1990   20.5160 N   0  0  0  0  0  0  0  0  0  0  0  0
  -28.7600  -16.0250   20.6980 H   0  0  0  0  0  0  0  0  0  0  0  0
  -25.1860  -13.9060   20.5730 C   0  0  0  0  0  0  0  0  0  0  0  0
  -24.1300  -13.1220   20.9460 C   0  0  0  0  0  0  0  0  0  0  0  0
  -24.5980  -11.7740   20.8900 C   0  0  0  0  0  0  0  0  0  0  0  0
  -26.2300  -13.0360   20.3070 N   0  0  0  0  0  0  0  0  0  0  0  0
  -25.8860  -11.7470   20.5630 N   0  0  0  0  0  0  0  0  0  0  0  0
  -23.8780  -10.5050   21.0690 C   0  0  0  0  0  0  0  0  0  0  0  0
  -24.3050   -9.5390   22.0060 C   0  0  0  0  0  3  0  0  0  0  0  0
  -23.5820   -8.3370   22.1740 C   0  0  0  0  0  3  0  0  0  0  0  0
  -22.4190   -8.0950   21.4050 C   0  0  0  0  0  0  0  0  0  0  0  0
  -22.0120   -9.0510   20.4580 C   0  0  0  0  0  3  0  0  0  0  0  0
  -22.7350  -10.2420   20.2880 C   0  0  0  0  0  3  0  0  0  0  0  0
  -21.6690   -6.9460   21.4830 O   0  0  0  0  0  0  0  0  0  0  0  0
  -21.5900   -6.2160   22.6420 C   0  0  0  0  0  0  0  0  0  0  0  0
  -21.0880   -6.7700   23.8390 C   0  0  0  0  0  3  0  0  0  0  0  0
  -20.9580   -5.9640   24.9890 C   0  0  0  0  0  3  0  0  0  0  0  0
  -21.3200   -4.6050   24.9400 C   0  0  0  0  0  0  0  0  0  0  0  0
  -21.8150   -4.0500   23.7470 C   0  0  0  0  0  3  0  0  0  0  0  0
  -21.9460   -4.8530   22.6000 C   0  0  0  0  0  0  0  0  0  0  0  0
  -22.4030   -4.3070   21.4470 F   0  0  0  0  0  0  0  0  0  0  0  0
  -21.1890   -3.8280   26.0410 F   0  0  0  0  0  0  0  0  0  0  0  0
  -22.7340  -13.5900   21.2370 C   0  0  0  0  0  0  0  0  0  0  0  0
  -22.0190  -12.8840   22.1050 N   0  0  0  0  0  0  0  0  0  0  0  0
  -22.2870  -14.6190   20.7330 O   0  0  0  0  0  0  0  0  0  0  0  0
  -22.3940  -12.0510   22.5360 H   0  0  0  0  0  0  0  0  0  0  0  0
  -21.0830  -13.1790   22.3440 H   0  0  0  0  0  0  0  0  0  0  0  0
  -25.3410  -15.2800   20.4120 N   0  0  0  0  0  0  0  0  0  0  0  0
  -24.5670  -15.9250   20.5350 H   0  0  0  0  0  0  0  0  0  0  0  0
  -26.1700  -15.7260   20.0430 H   0  0  0  0  0  0  0  0  0  0  0  0
  2  3  1  0
  2  1  2  0
  4 15  2  0
  5  3  1  0
  5 10  1  0
  6 14  1  0
  6 16  1  0
  7 13  1  0
  7  9  1  0
  8 14  1  0
  9  8  1  0
 10  9  2  0
 11  5  2  0
 12 11  1  0
 12  7  2  0
 13  6  1  0
 14  4  1  0
 16 18  2  0
 17 16  1  0
 19 17  1  0
 20 29  2  0
 20 25  1  0
 21 17  1  0
 21 25  1  0
 22 21  1  0
 23 24  1  0
 23 22  1  0
 24 20  1  0
 25 26  2  0
 26 27  1  0
 28 27  2  0
 29 28  1  0
 30  4  1  0
 30 31  1  0
 30 40  1  0
 31 34  1  0
 32 36  1  0
 32 31  1  0
 33 32  2  0
 36 35  1  0
 38 39  1  0
 38 36  1  0
 38 37  1  0
 40 43  1  1
 40 41  1  0
 42 40  1  0
 44  1  1  0
 44 45  1  0
 46 45  2  0
 46 47  1  0
 47 56  1  0
 48 56  1  0
 49 54  1  0
 50 51  1  0
 50 49  1  0
 52 51  1  0
 52 61  1  0
 52 53  1  0
 54 48  1  0
 54 53  1  0
 55 48  2  0
 56 57  1  0
 58 59  2  0
 59 78  1  0
 60 59  1  0
 60 63  1  0
 61 62  1  0
 61 58  1  0
 62 60  2  0
 63 64  1  0
 64 65  2  0
 66 69  1  0
 66 65  1  0
 67 66  2  0
 68 67  1  0
 68 63  2  0
 69 70  1  0
 70 71  1  0
 71 72  2  0
 73 72  1  0
 73 77  1  0
 74 73  2  0
 75 70  2  0
 75 74  1  0
 76 75  1  0
 78 79  1  0
 79 82  1  0
 79 81  1  0
 80 78  2  0
 83 84  1  0
 83 58  1  0
 85 83  1  0
M  ISO  4   2 101   3 101  48 100  56 100
M  END
>  <TORSDO>  (44) 
F 21

>  <SCORE>  (44) 
-13.169

>  <name>  (44) 
43

>  <ligand_id>  (44) 
43

>  <original_smiles>  (44) 
[H]c1c([H])c([H])c2c(c1[H])C([H])([H])C([H])([H])C([H])([H])C2([H])N([H])C(=O)C1([H])N(C(=O)C([H])(N([H])C(=O)C([H])(N([H])C([H])([H])[H])C([H])([H])[H])C(C([H])([H])[H])(C([H])([H])[H])C([H])([H])[H])C([H])([H])c2c([H])c(OC([H])([H])C([H])([H])OC([H])([H])C([H])([H])C([H])([H])N([H])C(=O)N3C([H])([H])C([H])([H])C([H])([H])C([H])(n4nc(-c5c([H])c([H])c(Oc6c([H])c([H])c(F)c([H])c6F)c([H])c5[H])c(C(=O)N([H])[H])c4N([H])[H])C3([H])[H])c([H])c([H])c2C1([H])[H]

>  <smiles>  (44) 
[H]c1c([H])c([H])c2c(c1[H])C([H])([H])C([H])([H])C([H])([H])C2([H])N([H])C(=O)C1([H])N(C(=O)C([H])(N([H])C(=O)C([H])(N([H])C([H])([H])[H])C([H])([H])[H])C(C([H])([H])[H])(C([H])([H])[H])C([H])([H])[H])C([H])([H])c2c([H])c(OC([H])([H])C([H])([H])OC([H])([H])C([H])([H])C([H])([H])N([H])C(=O)N3C([H])([H])C([H])([H])C([H])([H])C([H])(n4nc(-c5c([H])c([H])c(Oc6c([H])c([H])c(F)c([H])c6F)c([H])c5[H])c(C(=O)N([H])[H])c4N([H])[H])C3([H])[H])c([H])c([H])c2C1([H])[H]

$$$$
44:0:0
     RDKit          3D

 82 87  0  0  1  0  0  0  0  0999 V2000
  -28.1280  -24.4610   20.3080 O   0  0  0  0  0  1  0  0  0  0  0  0
  -24.7170  -31.7540   23.1190 C   0  0  0  0  0  0  0  0  0  0  0  0
  -27.2370  -26.0080   20.2720 C   0  0  0  0  0  0  0  0  0  0  0  0
  -23.5780  -30.3270   21.4830 C   0  0  0  0  0  3  0  0  0  0  0  0
  -25.0440  -28.5110   20.1550 C   0  0  0  0  0  0  0  0  0  0  0  0
  -26.1810  -30.2440   21.4900 C   0  0  0  0  0  2  0  0  0  0  0  0
  -26.2420  -28.7260   20.8450 C   0  0  0  0  0  0  0  0  0  0  0  0
  -27.2830  -27.5330   20.8480 C   0  0  0  0  0  3  0  0  0  0  0  0
  -26.0020  -26.1970   19.5210 C   0  0  0  0  0  3  0  0  0  0  0  0
  -25.0080  -27.2750   19.4680 C   0  0  0  0  0  3  0  0  0  0  0  0
  -23.8740  -29.5550   20.1500 C   0  0  0  0  0  2  0  0  0  0  0  0
  -24.8600  -30.8260   22.0830 N   0  0  0  0  0  0  0  0  0  0  0  0
  -23.6030  -32.0930   23.5670 O   0  0  0  0  0  0  0  0  0  0  0  0
  -22.7700  -29.4320   22.4680 C   0  0  0  0  0  0  0  0  0  0  0  0
  -21.4280  -29.3480   22.3410 N   0  0  0  0  0  0  0  0  0  0  0  0
  -23.3780  -28.7990   23.3320 O   0  0  0  0  0  0  0  0  0  0  0  0
  -20.9780  -29.9060   21.6300 H   0  0  0  0  0  0  0  0  0  0  0  0
  -17.9930  -28.2310   22.8790 C   0  0  0  0  0  0  0  0  0  0  0  0
  -20.5660  -28.4340   23.1110 C   0  0  0  0  0  3  0  0  0  0  0  0
  -20.6160  -27.0030   22.5240 C   0  0  0  0  0  2  0  0  0  0  0  0
  -19.5000  -26.7270   21.5140 C   0  0  0  0  0  2  0  0  0  0  0  0
  -18.1280  -26.8940   22.1710 C   0  0  0  0  0  2  0  0  0  0  0  0
  -19.1360  -28.9630   23.3050 C   0  0  0  0  0  0  0  0  0  0  0  0
  -18.9480  -30.2110   23.9390 C   0  0  0  0  0  3  0  0  0  0  0  0
  -17.6540  -30.7280   24.1430 C   0  0  0  0  0  3  0  0  0  0  0  0
  -16.5290  -29.9960   23.7270 C   0  0  0  0  0  3  0  0  0  0  0  0
  -16.7000  -28.7490   23.1030 C   0  0  0  0  0  3  0  0  0  0  0  0
  -25.9360  -32.4460   23.8080 C   0  0  0  0  0  3  0  0  0  0  0  0
  -25.5800  -33.8480   24.1450 N   0  0  0  0  0  0  0  0  0  0  0  0
  -25.9080  -34.9380   23.4360 C   0  0  0  0  0  0  0  0  0  0  0  0
  -26.5810  -34.8720   22.4060 O   0  0  0  0  0  0  0  0  0  0  0  0
  -24.9750  -33.9700   24.9440 H   0  0  0  0  0  0  0  0  0  0  0  0
  -24.1580  -36.7430   23.1760 C   0  0  0  0  0  1  0  0  0  0  0  0
  -25.4240  -36.3200   23.9410 C   0  0  0  0  0  3  0  0  0  0  0  0
  -27.5680  -37.2270   24.7370 C   0  0  0  0  0  1  0  0  0  0  0  0
  -26.4430  -37.3900   23.8210 N   0  0  0  0  0  0  0  0  0  0  0  0
  -26.0280  -38.3020   23.9860 H   0  0  0  0  0  0  0  0  0  0  0  0
  -26.3930  -31.7080   25.1290 C   0  0  1  0  0  0  0  0  0  0  0  0
  -25.2540  -31.4940   26.1550 C   0  0  0  0  0  1  0  0  0  0  0  0
  -26.9940  -30.3220   24.8160 C   0  0  0  0  0  1  0  0  0  0  0  0
  -27.5150  -32.5170   25.8220 C   0  0  0  0  0  1  0  0  0  0  0  0
  -28.1060  -22.3000   20.1900 C   0  0  0  0  0 15  0  0  0  0  0  0
  -29.8470  -16.8010   20.1650 C   0  0  0  0  0  0  0  0  0  0  0  0
  -30.2580  -13.9950   19.4080 C   0  0  0  0  0  2  0  0  0  0  0  0
  -29.5270  -13.0930   18.3190 C   0  0  0  0  0  2  0  0  0  0  0  0
  -28.2200  -12.4880   18.8300 C   0  0  0  0  0  2  0  0  0  0  0  0
  -27.5450  -13.5220   19.7390 C   0  0  0  0  0  3  0  0  0  0  0  0
  -28.4810  -14.2790   20.7630 C   0  0  0  0  0  2  0  0  0  0  0  0
  -29.4470  -15.2420   20.0430 N   0  0  0  0  0  0  0  0  0  0  0  0
  -31.0970  -16.5490   20.1140 O   0  0  0  0  0  0  0  0  0  0  0  0
  -29.1500  -20.2780   20.2290 C   0  0  0  0  0  2  0  0  0  0  0  0
  -29.0980  -18.4610   20.1800 N   0  0  0  0  0  0  0  0  0  0  0  0
  -30.3470  -20.5670   20.3300 O   0  0  0  0  0  1  0  0  0  0  0  0
  -28.1090  -18.2680   20.1260 H   0  0  0  0  0  0  0  0  0  0  0  0
  -25.1830  -13.9080   20.5150 C   0  0  0  0  0  0  0  0  0  0  0  0
  -24.1480  -13.0970   20.8740 C   0  0  0  0  0  0  0  0  0  0  0  0
  -24.6540  -11.7600   20.8370 C   0  0  0  0  0  0  0  0  0  0  0  0
  -26.2610  -13.0810   20.2820 N   0  0  0  0  0  0  0  0  0  0  0  0
  -25.9550  -11.7710   20.5250 N   0  0  0  0  0  0  0  0  0  0  0  0
  -23.9430  -10.4810   21.0250 C   0  0  0  0  0  0  0  0  0  0  0  0
  -24.3760   -9.5170   21.9600 C   0  0  0  0  0  3  0  0  0  0  0  0
  -23.6530   -8.3170   22.1460 C   0  0  0  0  0  3  0  0  0  0  0  0
  -22.4780   -8.0710   21.3950 C   0  0  0  0  0  0  0  0  0  0  0  0
  -22.0610   -9.0240   20.4500 C   0  0  0  0  0  3  0  0  0  0  0  0
  -22.7850  -10.2140   20.2640 C   0  0  0  0  0  3  0  0  0  0  0  0
  -21.7300   -6.9210   21.4880 O   0  0  0  0  0  0  0  0  0  0  0  0
  -21.6900   -6.1740   22.6390 C   0  0  0  0  0  0  0  0  0  0  0  0
  -21.2570   -6.7210   23.8660 C   0  0  0  0  0  3  0  0  0  0  0  0
  -21.1660   -5.9030   25.0100 C   0  0  0  0  0  3  0  0  0  0  0  0
  -21.4980   -4.5370   24.9270 C   0  0  0  0  0  0  0  0  0  0  0  0
  -21.9230   -3.9890   23.7040 C   0  0  0  0  0  3  0  0  0  0  0  0
  -22.0160   -4.8040   22.5630 C   0  0  0  0  0  0  0  0  0  0  0  0
  -22.4050   -4.2660   21.3830 F   0  0  0  0  0  0  0  0  0  0  0  0
  -21.4040   -3.7480   26.0230 F   0  0  0  0  0  0  0  0  0  0  0  0
  -22.7390  -13.5440   21.1290 C   0  0  0  0  0  0  0  0  0  0  0  0
  -22.0230  -12.8470   22.0010 N   0  0  0  0  0  0  0  0  0  0  0  0
  -22.2870  -14.5560   20.5940 O   0  0  0  0  0  0  0  0  0  0  0  0
  -22.4050  -12.0310   22.4570 H   0  0  0  0  0  0  0  0  0  0  0  0
  -21.0780  -13.1320   22.2180 H   0  0  0  0  0  0  0  0  0  0  0  0
  -25.2960  -15.2820   20.3270 N   0  0  0  0  0  0  0  0  0  0  0  0
  -24.5050  -15.9090   20.4230 H   0  0  0  0  0  0  0  0  0  0  0  0
  -26.1330  -15.7440   19.9940 H   0  0  0  0  0  0  0  0  0  0  0  0
  2 13  2  0
  3  1  1  0
  3  8  1  0
  4 12  1  0
  4 14  1  0
  5  7  1  0
  6 12  1  0
  7  8  2  0
  7  6  1  0
  9  3  2  0
 10  9  1  0
 10  5  2  0
 11  5  1  0
 11  4  1  0
 12  2  1  0
 14 16  2  0
 15 14  1  0
 17 15  1  0
 18 27  2  0
 18 23  1  0
 19 15  1  0
 19 23  1  0
 20 19  1  0
 21 22  1  0
 21 20  1  0
 22 18  1  0
 23 24  2  0
 24 25  1  0
 26 25  2  0
 27 26  1  0
 28  2  1  0
 28 29  1  0
 28 38  1  0
 29 32  1  0
 30 34  1  0
 30 29  1  0
 31 30  2  0
 34 33  1  0
 36 34  1  0
 36 37  1  0
 36 35  1  0
 38 41  1  1
 38 39  1  0
 40 38  1  0
 43 52  1  0
 44 49  1  0
 45 46  1  0
 45 44  1  0
 47 46  1  0
 47 58  1  0
 47 48  1  0
 49 43  1  0
 49 48  1  0
 50 43  2  0
 51 53  1  0
 52 51  1  0
 54 52  1  0
 55 56  2  0
 56 75  1  0
 57 56  1  0
 57 60  1  0
 58 55  1  0
 58 59  1  0
 59 57  2  0
 60 61  1  0
 61 62  2  0
 63 66  1  0
 63 62  1  0
 64 63  2  0
 65 64  1  0
 65 60  2  0
 66 67  1  0
 67 68  1  0
 68 69  2  0
 70 69  1  0
 70 74  1  0
 71 70  2  0
 72 67  2  0
 72 71  1  0
 73 72  1  0
 75 76  1  0
 76 79  1  0
 76 78  1  0
 77 75  2  0
 80 81  1  0
 80 55  1  0
 82 80  1  0
M  ISO  4   1 101  42 101  43 100  52 100
M  END
>  <TORSDO>  (45) 
F 16

>  <SCORE>  (45) 
-16.200

>  <name>  (45) 
44

>  <ligand_id>  (45) 
44

>  <original_smiles>  (45) 
[H]c1c([H])c([H])c2c(c1[H])C([H])([H])C([H])([H])C([H])([H])C2([H])N([H])C(=O)C1([H])N(C(=O)C([H])(N([H])C(=O)C([H])(N([H])C([H])([H])[H])C([H])([H])[H])C(C([H])([H])[H])(C([H])([H])[H])C([H])([H])[H])C([H])([H])c2c([H])c(OC([H])([H])C(=O)N([H])C(=O)N3C([H])([H])C([H])([H])C([H])([H])C([H])(n4nc(-c5c([H])c([H])c(Oc6c([H])c([H])c(F)c([H])c6F)c([H])c5[H])c(C(=O)N([H])[H])c4N([H])[H])C3([H])[H])c([H])c([H])c2C1([H])[H]

>  <smiles>  (45) 
[H]c1c([H])c([H])c2c(c1[H])C([H])([H])C([H])([H])C([H])([H])C2([H])N([H])C(=O)C1([H])N(C(=O)C([H])(N([H])C(=O)C([H])(N([H])C([H])([H])[H])C([H])([H])[H])C(C([H])([H])[H])(C([H])([H])[H])C([H])([H])[H])C([H])([H])c2c([H])c(OC([H])([H])C(=O)N([H])C(=O)N3C([H])([H])C([H])([H])C([H])([H])C([H])(n4nc(-c5c([H])c([H])c(Oc6c([H])c([H])c(F)c([H])c6F)c([H])c5[H])c(C(=O)N([H])[H])c4N([H])[H])C3([H])[H])c([H])c([H])c2C1([H])[H]

$$$$
45:0:0
     RDKit          3D

 82 89  0  0  1  0  0  0  0  0999 V2000
  -28.2270  -25.6420   20.1710 O   0  0  0  0  0  0  0  0  0  0  0  0
  -24.6450  -31.8330   23.1460 C   0  0  0  0  0  0  0  0  0  0  0  0
  -27.2110  -26.7940   20.2120 C   0  0  0  0  0  0  0  0  0  0  0  0
  -23.4680  -30.4180   21.5160 C   0  0  0  0  0  3  0  0  0  0  0  0
  -24.9280  -28.7750   20.1260 C   0  0  0  0  0  0  0  0  0  0  0  0
  -26.0430  -30.5910   21.3950 C   0  0  0  0  0  2  0  0  0  0  0  0
  -26.1190  -29.1570   20.7550 C   0  0  0  0  0  0  0  0  0  0  0  0
  -27.2510  -28.1950   20.7600 C   0  0  0  0  0  3  0  0  0  0  0  0
  -25.9810  -26.6020   19.5360 C   0  0  0  0  0  3  0  0  0  0  0  0
  -24.8930  -27.5220   19.4930 C   0  0  0  0  0  3  0  0  0  0  0  0
  -23.7170  -29.7180   20.1500 C   0  0  0  0  0  2  0  0  0  0  0  0
  -24.7430  -30.9800   22.0720 N   0  0  0  0  0  0  0  0  0  0  0  0
  -23.5500  -32.1280   23.6550 O   0  0  0  0  0  0  0  0  0  0  0  0
  -22.7600  -29.4390   22.4910 C   0  0  0  0  0  0  0  0  0  0  0  0
  -21.4280  -29.2820   22.3680 N   0  0  0  0  0  0  0  0  0  0  0  0
  -23.4200  -28.8190   23.3280 O   0  0  0  0  0  0  0  0  0  0  0  0
  -20.9470  -29.8320   21.6710 H   0  0  0  0  0  0  0  0  0  0  0  0
  -18.0430  -28.0670   22.8840 C   0  0  0  0  0  0  0  0  0  0  0  0
  -20.6030  -28.3480   23.1460 C   0  0  0  0  0  3  0  0  0  0  0  0
  -20.7100  -26.9120   22.5820 C   0  0  0  0  0  2  0  0  0  0  0  0
  -19.6100  -26.5780   21.5690 C   0  0  0  0  0  2  0  0  0  0  0  0
  -18.2280  -26.7180   22.2100 C   0  0  0  0  0  2  0  0  0  0  0  0
  -19.1580  -28.8400   23.3080 C   0  0  0  0  0  0  0  0  0  0  0  0
  -18.9280  -30.1010   23.9010 C   0  0  0  0  0  3  0  0  0  0  0  0
  -17.6200  -30.5900   24.0700 C   0  0  0  0  0  3  0  0  0  0  0  0
  -16.5210  -29.8150   23.6580 C   0  0  0  0  0  3  0  0  0  0  0  0
  -16.7340  -28.5550   23.0720 C   0  0  0  0  0  3  0  0  0  0  0  0
  -25.9050  -32.4930   23.7850 C   0  0  0  0  0  3  0  0  0  0  0  0
  -26.4120  -31.7340   25.0740 C   0  0  1  0  0  0  0  0  0  0  0  0
  -25.3090  -31.4990   26.1340 C   0  0  0  0  0  1  0  0  0  0  0  0
  -27.0080  -30.3560   24.7070 C   0  0  0  0  0  1  0  0  0  0  0  0
  -27.5560  -32.5360   25.7400 C   0  0  0  0  0  1  0  0  0  0  0  0
  -25.5710  -33.8880   24.1280 N   0  0  0  0  0  0  0  0  0  0  0  0
  -25.8960  -34.9610   23.3950 C   0  0  0  0  0  0  0  0  0  0  0  0
  -26.5660  -34.8800   22.3620 O   0  0  0  0  0  0  0  0  0  0  0  0
  -24.9750  -34.0220   24.9320 H   0  0  0  0  0  0  0  0  0  0  0  0
  -24.1540  -36.7540   23.0780 C   0  0  0  0  0  1  0  0  0  0  0  0
  -25.4000  -36.3420   23.8760 C   0  0  0  0  0  3  0  0  0  0  0  0
  -27.5350  -37.2310   24.7100 C   0  0  0  0  0  1  0  0  0  0  0  0
  -26.4250  -37.4060   23.7780 N   0  0  0  0  0  0  0  0  0  0  0  0
  -26.0120  -38.3200   23.9490 H   0  0  0  0  0  0  0  0  0  0  0  0
  -28.2090  -23.9610   20.6010 C   0  0  0  0  0  2  0  0  0  0  0  0
  -28.3830  -22.1290   20.0550 C   0  0  0  0  0  2  0  0  0  0  0  0
  -29.3510  -20.6950   20.1210 O   0  0  0  0  0  0  0  0  0  0  0  0
  -29.3700  -19.0120   20.5550 C   0  0  0  0  0  2  0  0  0  0  0  0
  -29.5280  -17.2310   19.8850 C   0  0  0  0  0  2  0  0  0  0  0  0
  -30.3280  -15.5780   20.1230 C   0  0  0  0  0  0  0  0  0  0  0  0
  -30.3940  -13.0470   19.3270 C   0  0  0  0  0  2  0  0  0  0  0  0
  -29.4850  -12.7050   18.1140 C   0  0  0  0  0  2  0  0  0  0  0  0
  -28.0490  -12.3890   18.5640 C   0  0  0  0  0  2  0  0  0  0  0  0
  -27.5650  -13.3830   19.6470 C   0  0  0  0  0  3  0  0  0  0  0  0
  -28.6080  -13.6460   20.7510 C   0  0  0  0  0  2  0  0  0  0  0  0
  -29.8070  -14.2200   20.1020 N   0  0  0  0  0  0  0  0  0  0  0  0
  -31.5650  -15.5040   20.0050 O   0  0  0  0  0  0  0  0  0  0  0  0
  -25.2110  -13.9250   20.4400 C   0  0  0  0  0  0  0  0  0  0  0  0
  -24.1540  -13.1470   20.8200 C   0  0  0  0  0  0  0  0  0  0  0  0
  -24.6230  -11.7960   20.7870 C   0  0  0  0  0  0  0  0  0  0  0  0
  -26.2510  -13.0510   20.1820 N   0  0  0  0  0  0  0  0  0  0  0  0
  -25.9130  -11.7640   20.4600 N   0  0  0  0  0  0  0  0  0  0  0  0
  -23.8970  -10.5350   20.9860 C   0  0  0  0  0  0  0  0  0  0  0  0
  -24.3330   -9.5680   21.9190 C   0  0  0  0  0  3  0  0  0  0  0  0
  -23.6020   -8.3750   22.1090 C   0  0  0  0  0  3  0  0  0  0  0  0
  -22.4210   -8.1400   21.3650 C   0  0  0  0  0  0  0  0  0  0  0  0
  -22.0030   -9.0960   20.4220 C   0  0  0  0  0  3  0  0  0  0  0  0
  -22.7350  -10.2800   20.2320 C   0  0  0  0  0  3  0  0  0  0  0  0
  -21.6620   -6.9990   21.4640 O   0  0  0  0  0  0  0  0  0  0  0  0
  -21.6210   -6.2580   22.6170 C   0  0  0  0  0  0  0  0  0  0  0  0
  -21.2130   -6.8160   23.8480 C   0  0  0  0  0  3  0  0  0  0  0  0
  -21.1180   -6.0020   24.9940 C   0  0  0  0  0  3  0  0  0  0  0  0
  -21.4220   -4.6300   24.9110 C   0  0  0  0  0  0  0  0  0  0  0  0
  -21.8250   -4.0710   23.6860 C   0  0  0  0  0  3  0  0  0  0  0  0
  -21.9210   -4.8820   22.5420 C   0  0  0  0  0  0  0  0  0  0  0  0
  -22.2870   -4.3330   21.3580 F   0  0  0  0  0  0  0  0  0  0  0  0
  -21.3260   -3.8460   26.0110 F   0  0  0  0  0  0  0  0  0  0  0  0
  -22.7590  -13.6260   21.0970 C   0  0  0  0  0  0  0  0  0  0  0  0
  -22.0370  -12.9360   21.9720 N   0  0  0  0  0  0  0  0  0  0  0  0
  -22.3210  -14.6490   20.5740 O   0  0  0  0  0  0  0  0  0  0  0  0
  -22.4050  -12.1110   22.4200 H   0  0  0  0  0  0  0  0  0  0  0  0
  -21.1010  -13.2400   22.1990 H   0  0  0  0  0  0  0  0  0  0  0  0
  -25.3690  -15.2960   20.2600 N   0  0  0  0  0  0  0  0  0  0  0  0
  -24.6030  -15.9490   20.3910 H   0  0  0  0  0  0  0  0  0  0  0  0
  -26.2160  -15.7380   19.9250 H   0  0  0  0  0  0  0  0  0  0  0  0
  1  3  1  0
  1 42  1  0
  2 13  2  0
  3  8  1  0
  4 12  1  0
  4 14  1  0
  5 11  1  0
  5  7  1  0
  6 12  1  0
  7  8  2  0
  7  6  1  0
  9  3  2  0
 10  9  1  0
 10  5  2  0
 11  4  1  0
 12  2  1  0
 14 16  2  0
 15 14  1  0
 17 15  1  0
 18 27  2  0
 18 23  1  0
 19 15  1  0
 19 23  1  0
 20 19  1  0
 21 22  1  0
 21 20  1  0
 22 18  1  0
 23 24  2  0
 24 25  1  0
 26 25  2  0
 27 26  1  0
 28  2  1  0
 28 33  1  0
 28 29  1  0
 29 32  1  1
 29 30  1  0
 31 29  1  0
 33 36  1  0
 34 38  1  0
 34 33  1  0
 35 34  2  0
 38 37  1  0
 40 38  1  0
 40 41  1  0
 40 39  1  0
 43 44  1  0
 43 42  1  0
 44 45  1  0
 46 47  1  0
 46 45  1  0
 48 53  1  0
 49 50  1  0
 49 48  1  0
 51 50  1  0
 51 58  1  0
 51 52  1  0
 53 47  1  0
 53 52  1  0
 54 47  2  0
 55 56  2  0
 56 75  1  0
 57 56  1  0
 57 60  1  0
 58 55  1  0
 58 59  1  0
 59 57  2  0
 60 61  1  0
 61 62  2  0
 63 66  1  0
 63 62  1  0
 64 63  2  0
 65 64  1  0
 65 60  2  0
 66 67  1  0
 67 68  1  0
 68 69  2  0
 70 69  1  0
 70 74  1  0
 71 70  2  0
 72 67  2  0
 72 71  1  0
 73 72  1  0
 75 76  1  0
 76 79  1  0
 76 78  1  0
 77 75  2  0
 80 81  1  0
 80 55  1  0
 82 80  1  0
M  ISO  4   1 101  42 101  46 100  47 100
M  END
>  <TORSDO>  (46) 
F 20

>  <SCORE>  (46) 
-16.235

>  <name>  (46) 
45

>  <ligand_id>  (46) 
45

>  <original_smiles>  (46) 
[H]c1c([H])c([H])c2c(c1[H])C([H])([H])C([H])([H])C([H])([H])C2([H])N([H])C(=O)C1([H])N(C(=O)C([H])(N([H])C(=O)C([H])(N([H])C([H])([H])[H])C([H])([H])[H])C(C([H])([H])[H])(C([H])([H])[H])C([H])([H])[H])C([H])([H])c2c([H])c(OC([H])([H])C([H])([H])OC([H])([H])C([H])([H])C(=O)N3C([H])([H])C([H])([H])C([H])([H])C([H])(n4nc(-c5c([H])c([H])c(Oc6c([H])c([H])c(F)c([H])c6F)c([H])c5[H])c(C(=O)N([H])[H])c4N([H])[H])C3([H])[H])c([H])c([H])c2C1([H])[H]

>  <smiles>  (46) 
[H]c1c([H])c([H])c2c(c1[H])C([H])([H])C([H])([H])C([H])([H])C2([H])N([H])C(=O)C1([H])N(C(=O)C([H])(N([H])C(=O)C([H])(N([H])C([H])([H])[H])C([H])([H])[H])C(C([H])([H])[H])(C([H])([H])[H])C([H])([H])[H])C([H])([H])c2c([H])c(OC([H])([H])C([H])([H])OC([H])([H])C([H])([H])C(=O)N3C([H])([H])C([H])([H])C([H])([H])C([H])(n4nc(-c5c([H])c([H])c(Oc6c([H])c([H])c(F)c([H])c6F)c([H])c5[H])c(C(=O)N([H])[H])c4N([H])[H])C3([H])[H])c([H])c([H])c2C1([H])[H]

$$$$
46:0:0
     RDKit          3D

 90 98  0  0  1  0  0  0  0  0999 V2000
  -28.9310  -23.4160   20.2220 C   0  0  0  0  0  0  0  0  0  0  0  0
  -28.4630  -22.0840   20.1210 N   0  0  0  0  0  0  0  0  0  0  0  0
  -30.1160  -23.6430   20.4820 O   0  0  0  0  0  0  0  0  0  0  0  0
  -27.4640  -22.1140   19.9670 H   0  0  0  0  0  0  0  0  0  0  0  0
  -27.9860  -19.5960   20.3820 C   0  0  0  0  0  3  0  0  0  0  0  0
  -30.2740  -20.0540   20.0680 C   0  0  0  0  0  3  0  0  0  0  0  0
  -28.2670  -18.1810   20.4180 C   0  0  0  0  0  3  0  0  0  0  0  0
  -30.5590  -18.6110   20.0910 C   0  0  0  0  0  3  0  0  0  0  0  0
  -28.9570  -20.6310   20.2070 C   0  0  0  0  0  0  0  0  0  0  0  0
  -29.5590  -17.5830   20.2670 C   0  0  0  0  0  0  0  0  0  0  0  0
  -30.5130  -14.9770   20.0040 C   0  0  0  0  0  0  0  0  0  0  0  0
  -30.3820  -12.6540   18.9940 C   0  0  0  0  0  2  0  0  0  0  0  0
  -29.3680  -12.6620   17.8240 C   0  0  0  0  0  2  0  0  0  0  0  0
  -27.9300  -12.4380   18.3350 C   0  0  0  0  0  2  0  0  0  0  0  0
  -27.6000  -13.3170   19.5690 C   0  0  0  0  0  3  0  0  0  0  0  0
  -28.7220  -13.2610   20.6290 C   0  0  0  0  0  2  0  0  0  0  0  0
  -29.9630  -13.6970   19.9700 N   0  0  0  0  0  0  0  0  0  0  0  0
  -31.6770  -15.1220   19.6110 O   0  0  0  0  0  0  0  0  0  0  0  0
  -29.6540  -16.0530   20.3280 N   0  0  0  0  0  0  0  0  0  0  0  0
  -28.7800  -15.6530   20.6320 H   0  0  0  0  0  0  0  0  0  0  0  0
  -25.2640  -13.8770   20.4600 C   0  0  0  0  0  0  0  0  0  0  0  0
  -24.2230  -13.0910   20.8730 C   0  0  0  0  0  0  0  0  0  0  0  0
  -24.6820  -11.7420   20.7720 C   0  0  0  0  0  0  0  0  0  0  0  0
  -26.2900  -13.0060   20.1330 N   0  0  0  0  0  0  0  0  0  0  0  0
  -25.9530  -11.7150   20.3840 N   0  0  0  0  0  0  0  0  0  0  0  0
  -23.9660  -10.4750   20.9660 C   0  0  0  0  0  0  0  0  0  0  0  0
  -24.4190   -9.5040   21.8880 C   0  0  0  0  0  3  0  0  0  0  0  0
  -23.7010   -8.3020   22.0710 C   0  0  0  0  0  3  0  0  0  0  0  0
  -22.5180   -8.0620   21.3330 C   0  0  0  0  0  0  0  0  0  0  0  0
  -22.0850   -9.0220   20.4000 C   0  0  0  0  0  3  0  0  0  0  0  0
  -22.8030  -10.2140   20.2150 C   0  0  0  0  0  3  0  0  0  0  0  0
  -21.7710   -6.9130   21.4260 O   0  0  0  0  0  0  0  0  0  0  0  0
  -21.6980   -6.1940   22.5920 C   0  0  0  0  0  0  0  0  0  0  0  0
  -21.2190   -6.7650   23.7910 C   0  0  0  0  0  3  0  0  0  0  0  0
  -21.0960   -5.9710   24.9500 C   0  0  0  0  0  3  0  0  0  0  0  0
  -21.4430   -4.6080   24.9090 C   0  0  0  0  0  0  0  0  0  0  0  0
  -21.9150   -4.0360   23.7150 C   0  0  0  0  0  3  0  0  0  0  0  0
  -22.0400   -4.8260   22.5590 C   0  0  0  0  0  0  0  0  0  0  0  0
  -22.4760   -4.2660   21.4050 F   0  0  0  0  0  0  0  0  0  0  0  0
  -21.3170   -3.8430   26.0190 F   0  0  0  0  0  0  0  0  0  0  0  0
  -22.8450  -13.5600   21.2390 C   0  0  0  0  0  0  0  0  0  0  0  0
  -22.1690  -12.8420   22.1280 N   0  0  0  0  0  0  0  0  0  0  0  0
  -22.3770  -14.5980   20.7720 O   0  0  0  0  0  0  0  0  0  0  0  0
  -22.5610  -12.0010   22.5270 H   0  0  0  0  0  0  0  0  0  0  0  0
  -21.2460  -13.1360   22.4160 H   0  0  0  0  0  0  0  0  0  0  0  0
  -25.4150  -15.2520   20.3080 N   0  0  0  0  0  0  0  0  0  0  0  0
  -24.6390  -15.8890   20.4550 H   0  0  0  0  0  0  0  0  0  0  0  0
  -26.1990  -15.6880   19.8400 H   0  0  0  0  0  0  0  0  0  0  0  0
  -27.9110  -24.7020   19.9780 C   0  0  0  0  0  2  0  0  0  0  0  0
  -28.2560  -26.1990   20.2280 O   0  0  0  0  0  0  0  0  0  0  0  0
  -24.6290  -31.8650   23.2570 C   0  0  0  0  0  0  0  0  0  0  0  0
  -27.2090  -27.1930   20.1680 C   0  0  0  0  0  0  0  0  0  0  0  0
  -23.4300  -30.4920   21.5980 C   0  0  0  0  0  3  0  0  0  0  0  0
  -24.8800  -28.9390   20.1560 C   0  0  0  0  0  0  0  0  0  0  0  0
  -25.9860  -30.7580   21.4420 C   0  0  0  0  0  2  0  0  0  0  0  0
  -26.0600  -29.3750   20.7720 C   0  0  0  0  0  0  0  0  0  0  0  0
  -27.2250  -28.5190   20.7620 C   0  0  0  0  0  3  0  0  0  0  0  0
  -26.0000  -26.8630   19.5110 C   0  0  0  0  0  3  0  0  0  0  0  0
  -24.8630  -27.6960   19.5110 C   0  0  0  0  0  3  0  0  0  0  0  0
  -23.6540  -29.8350   20.2110 C   0  0  0  0  0  2  0  0  0  0  0  0
  -24.7020  -31.0590   22.1540 N   0  0  0  0  0  0  0  0  0  0  0  0
  -23.5430  -32.1440   23.7860 O   0  0  0  0  0  0  0  0  0  0  0  0
  -22.7490  -29.4720   22.5450 C   0  0  0  0  0  0  0  0  0  0  0  0
  -21.4220  -29.2990   22.4060 N   0  0  0  0  0  0  0  0  0  0  0  0
  -23.4160  -28.8410   23.3690 O   0  0  0  0  0  0  0  0  0  0  0  0
  -20.9400  -29.8590   21.7180 H   0  0  0  0  0  0  0  0  0  0  0  0
  -18.0400  -28.0900   22.8780 C   0  0  0  0  0  0  0  0  0  0  0  0
  -20.5970  -28.3540   23.1640 C   0  0  0  0  0  3  0  0  0  0  0  0
  -20.7040  -26.9270   22.5780 C   0  0  0  0  0  2  0  0  0  0  0  0
  -19.6090  -26.6110   21.5540 C   0  0  0  0  0  2  0  0  0  0  0  0
  -18.2230  -26.7480   22.1900 C   0  0  0  0  0  2  0  0  0  0  0  0
  -19.1540  -28.8510   23.3210 C   0  0  0  0  0  0  0  0  0  0  0  0
  -18.9270  -30.1070   23.9260 C   0  0  0  0  0  3  0  0  0  0  0  0
  -17.6190  -30.6010   24.0910 C   0  0  0  0  0  3  0  0  0  0  0  0
  -16.5210  -29.8380   23.6630 C   0  0  0  0  0  3  0  0  0  0  0  0
  -16.7310  -28.5830   23.0620 C   0  0  0  0  0  3  0  0  0  0  0  0
  -25.9070  -32.4900   23.8940 C   0  0  0  0  0  3  0  0  0  0  0  0
  -25.6030  -33.8920   24.2220 N   0  0  0  0  0  0  0  0  0  0  0  0
  -25.9250  -34.9430   23.4550 C   0  0  0  0  0  0  0  0  0  0  0  0
  -26.5760  -34.8340   22.4130 O   0  0  0  0  0  0  0  0  0  0  0  0
  -25.0230  -34.0500   25.0320 H   0  0  0  0  0  0  0  0  0  0  0  0
  -24.1830  -36.7330   23.1470 C   0  0  0  0  0  1  0  0  0  0  0  0
  -25.4530  -36.3360   23.9180 C   0  0  0  0  0  3  0  0  0  0  0  0
  -27.6100  -37.2370   24.6730 C   0  0  0  0  0  1  0  0  0  0  0  0
  -26.4790  -37.3900   23.7600 N   0  0  0  0  0  0  0  0  0  0  0  0
  -26.0760  -38.3110   23.9070 H   0  0  0  0  0  0  0  0  0  0  0  0
  -26.3980  -31.7190   25.1810 C   0  0  1  0  0  0  0  0  0  0  0  0
  -25.2890  -31.4950   26.2350 C   0  0  0  0  0  1  0  0  0  0  0  0
  -26.9750  -30.3350   24.8060 C   0  0  0  0  0  1  0  0  0  0  0  0
  -27.5470  -32.5060   25.8560 C   0  0  0  0  0  1  0  0  0  0  0  0
  1  3  2  0
  2  9  1  0
  2  1  1  0
  4  2  1  0
  5  7  1  0
  6  8  2  0
  6  9  1  0
  8 10  1  0
  9  5  2  0
 10 19  1  0
 10  7  2  0
 11 19  1  0
 12 17  1  0
 13 14  1  0
 13 12  1  0
 15 14  1  0
 15 24  1  0
 15 16  1  0
 17 11  1  0
 17 16  1  0
 18 11  2  0
 19 20  1  0
 21 22  2  0
 22 41  1  0
 23 22  1  0
 23 26  1  0
 24 25  1  0
 24 21  1  0
 25 23  2  0
 26 27  1  0
 27 28  2  0
 29 32  1  0
 29 28  1  0
 30 29  2  0
 31 30  1  0
 31 26  2  0
 32 33  1  0
 33 34  1  0
 34 35  2  0
 36 35  1  0
 36 40  1  0
 37 36  2  0
 38 33  2  0
 38 37  1  0
 39 38  1  0
 41 42  1  0
 42 45  1  0
 42 44  1  0
 43 41  2  0
 46 47  1  0
 46 21  1  0
 48 46  1  0
 49  1  1  0
 49 50  1  0
 51 62  2  0
 52 50  1  0
 52 57  1  0
 53 61  1  0
 53 63  1  0
 54 60  1  0
 54 56  1  0
 55 61  1  0
 56 55  1  0
 57 56  2  0
 58 52  2  0
 59 58  1  0
 59 54  2  0
 60 53  1  0
 61 51  1  0
 63 65  2  0
 64 63  1  0
 66 64  1  0
 67 76  2  0
 67 72  1  0
 68 64  1  0
 68 72  1  0
 69 68  1  0
 70 71  1  0
 70 69  1  0
 71 67  1  0
 72 73  2  0
 73 74  1  0
 75 74  2  0
 76 75  1  0
 77 51  1  0
 77 78  1  0
 77 87  1  0
 78 81  1  0
 79 83  1  0
 79 78  1  0
 80 79  2  0
 83 82  1  0
 85 86  1  0
 85 83  1  0
 85 84  1  0
 87 90  1  1
 87 88  1  0
 89 87  1  0
M  ISO  4  11 100  19 100  49 101  50 101
M  END
>  <TORSDO>  (47) 
F 18

>  <SCORE>  (47) 
-14.555

>  <name>  (47) 
46

>  <ligand_id>  (47) 
46

>  <original_smiles>  (47) 
[H]c1c([H])c([H])c2c(c1[H])C([H])([H])C([H])([H])C([H])([H])C2([H])N([H])C(=O)C1([H])N(C(=O)C([H])(N([H])C(=O)C([H])(N([H])C([H])([H])[H])C([H])([H])[H])C(C([H])([H])[H])(C([H])([H])[H])C([H])([H])[H])C([H])([H])c2c([H])c(OC([H])([H])C(=O)N([H])c3c([H])c([H])c(N([H])C(=O)N4C([H])([H])C([H])([H])C([H])([H])C([H])(n5nc(-c6c([H])c([H])c(Oc7c([H])c([H])c(F)c([H])c7F)c([H])c6[H])c(C(=O)N([H])[H])c5N([H])[H])C4([H])[H])c([H])c3[H])c([H])c([H])c2C1([H])[H]

>  <smiles>  (47) 
[H]c1c([H])c([H])c2c(c1[H])C([H])([H])C([H])([H])C([H])([H])C2([H])N([H])C(=O)C1([H])N(C(=O)C([H])(N([H])C(=O)C([H])(N([H])C([H])([H])[H])C([H])([H])[H])C(C([H])([H])[H])(C([H])([H])[H])C([H])([H])[H])C([H])([H])c2c([H])c(OC([H])([H])C(=O)N([H])c3c([H])c([H])c(N([H])C(=O)N4C([H])([H])C([H])([H])C([H])([H])C([H])(n5nc(-c6c([H])c([H])c(Oc7c([H])c([H])c(F)c([H])c7F)c([H])c6[H])c(C(=O)N([H])[H])c5N([H])[H])C4([H])[H])c([H])c3[H])c([H])c([H])c2C1([H])[H]

$$$$
47:0:0
     RDKit          3D

 93101  0  0  1  0  0  0  0  0999 V2000
  -29.7640  -21.8420   20.8920 C   0  0  0  0  0  0  0  0  0  0  0  0
  -29.5720  -20.5420   20.5550 N   0  0  0  0  0  0  0  0  0  0  0  0
  -30.6250  -22.2330   21.6840 O   0  0  0  0  0  0  0  0  0  0  0  0
  -28.7750  -20.3850   19.9540 H   0  0  0  0  0  0  0  0  0  0  0  0
  -32.3490  -18.2690   21.7440 C   0  0  0  0  0  3  0  0  0  0  0  0
  -31.6240  -19.4300   21.4290 C   0  0  0  0  0  3  0  0  0  0  0  0
  -31.7870  -17.0030   21.5260 C   0  0  0  0  0  3  0  0  0  0  0  0
  -29.7350  -18.0570   20.6990 C   0  0  0  0  0  0  0  0  0  0  0  0
  -30.3060  -19.3550   20.9130 C   0  0  0  0  0  0  0  0  0  0  0  0
  -30.4890  -16.8760   20.9810 C   0  0  0  0  0  0  0  0  0  0  0  0
  -28.3240  -17.8980   20.1450 C   0  0  0  0  0  1  0  0  0  0  0  0
  -30.5710  -14.5490   20.1160 C   0  0  0  0  0  0  0  0  0  0  0  0
  -30.1760  -12.4250   18.9180 C   0  0  0  0  0  2  0  0  0  0  0  0
  -29.1760  -12.6560   17.7680 C   0  0  0  0  0  2  0  0  0  0  0  0
  -27.7280  -12.5080   18.2730 C   0  0  0  0  0  2  0  0  0  0  0  0
  -27.4580  -13.3200   19.5680 C   0  0  0  0  0  3  0  0  0  0  0  0
  -28.5700  -13.0870   20.6160 C   0  0  0  0  0  2  0  0  0  0  0  0
  -29.8620  -13.3950   19.9810 N   0  0  0  0  0  0  0  0  0  0  0  0
  -31.6650  -14.7130   19.5680 O   0  0  0  0  0  0  0  0  0  0  0  0
  -29.9500  -15.5650   20.7540 N   0  0  0  0  0  0  0  0  0  0  0  0
  -28.9920  -15.4040   21.0190 H   0  0  0  0  0  0  0  0  0  0  0  0
  -25.1000  -13.9090   20.4120 C   0  0  0  0  0  0  0  0  0  0  0  0
  -24.0520  -13.1280   20.8200 C   0  0  0  0  0  0  0  0  0  0  0  0
  -24.5100  -11.7780   20.7350 C   0  0  0  0  0  0  0  0  0  0  0  0
  -26.1310  -13.0330   20.1100 N   0  0  0  0  0  0  0  0  0  0  0  0
  -25.7820  -11.7460   20.3610 N   0  0  0  0  0  0  0  0  0  0  0  0
  -23.7920  -10.5120   20.9350 C   0  0  0  0  0  0  0  0  0  0  0  0
  -24.2310   -9.5540   21.8760 C   0  0  0  0  0  3  0  0  0  0  0  0
  -23.5140   -8.3520   22.0630 C   0  0  0  0  0  3  0  0  0  0  0  0
  -22.3440   -8.1000   21.3070 C   0  0  0  0  0  0  0  0  0  0  0  0
  -21.9250   -9.0460   20.3550 C   0  0  0  0  0  3  0  0  0  0  0  0
  -22.6430  -10.2390   20.1670 C   0  0  0  0  0  3  0  0  0  0  0  0
  -21.5980   -6.9500   21.4020 O   0  0  0  0  0  0  0  0  0  0  0  0
  -21.5150   -6.2410   22.5730 C   0  0  0  0  0  0  0  0  0  0  0  0
  -21.0200   -6.8210   23.7620 C   0  0  0  0  0  3  0  0  0  0  0  0
  -20.8870   -6.0370   24.9260 C   0  0  0  0  0  3  0  0  0  0  0  0
  -21.2360   -4.6740   24.9010 C   0  0  0  0  0  0  0  0  0  0  0  0
  -21.7240   -4.0940   23.7170 C   0  0  0  0  0  3  0  0  0  0  0  0
  -21.8600   -4.8740   22.5550 C   0  0  0  0  0  0  0  0  0  0  0  0
  -22.3100   -4.3050   21.4120 F   0  0  0  0  0  0  0  0  0  0  0  0
  -21.1010   -3.9190   26.0160 F   0  0  0  0  0  0  0  0  0  0  0  0
  -22.6720  -13.6000   21.1740 C   0  0  0  0  0  0  0  0  0  0  0  0
  -21.9840  -12.8780   22.0520 N   0  0  0  0  0  0  0  0  0  0  0  0
  -22.2120  -14.6430   20.7090 O   0  0  0  0  0  0  0  0  0  0  0  0
  -22.3680  -12.0330   22.4480 H   0  0  0  0  0  0  0  0  0  0  0  0
  -21.0590  -13.1740   22.3320 H   0  0  0  0  0  0  0  0  0  0  0  0
  -25.2570  -15.2830   20.2540 N   0  0  0  0  0  0  0  0  0  0  0  0
  -24.4920  -15.9320   20.4040 H   0  0  0  0  0  0  0  0  0  0  0  0
  -26.0760  -15.7220   19.8530 H   0  0  0  0  0  0  0  0  0  0  0  0
  -28.8070  -22.8710   20.2570 C   0  0  0  0  0  2  0  0  0  0  0  0
  -29.1240  -24.3750   20.5360 C   0  0  0  0  0  2  0  0  0  0  0  0
  -28.0370  -25.3100   19.9600 C   0  0  0  0  0  2  0  0  0  0  0  0
  -28.2140  -26.7210   20.2270 O   0  0  0  0  0  0  0  0  0  0  0  0
  -24.5110  -31.9860   23.3110 C   0  0  0  0  0  0  0  0  0  0  0  0
  -27.0660  -27.5020   20.1890 C   0  0  0  0  0  0  0  0  0  0  0  0
  -23.2740  -30.6030   21.6810 C   0  0  0  0  0  3  0  0  0  0  0  0
  -24.6940  -29.0630   20.2290 C   0  0  0  0  0  0  0  0  0  0  0  0
  -25.8050  -30.9280   21.4590 C   0  0  0  0  0  2  0  0  0  0  0  0
  -25.8670  -29.5590   20.8100 C   0  0  0  0  0  0  0  0  0  0  0  0
  -27.0560  -28.7870   20.7870 C   0  0  0  0  0  3  0  0  0  0  0  0
  -25.8720  -27.0420   19.5810 C   0  0  0  0  0  3  0  0  0  0  0  0
  -24.6930  -27.8040   19.6110 C   0  0  0  0  0  3  0  0  0  0  0  0
  -23.4610  -29.9340   20.2950 C   0  0  0  0  0  2  0  0  0  0  0  0
  -24.5490  -31.1870   22.2080 N   0  0  0  0  0  0  0  0  0  0  0  0
  -23.4380  -32.2680   23.8630 O   0  0  0  0  0  0  0  0  0  0  0  0
  -22.6230  -29.5820   22.6420 C   0  0  0  0  0  0  0  0  0  0  0  0
  -21.3010  -29.3890   22.5070 N   0  0  0  0  0  0  0  0  0  0  0  0
  -23.3050  -28.9690   23.4670 O   0  0  0  0  0  0  0  0  0  0  0  0
  -20.8110  -29.9370   21.8130 H   0  0  0  0  0  0  0  0  0  0  0  0
  -17.9330  -28.1700   22.9850 C   0  0  0  0  0  0  0  0  0  0  0  0
  -20.4850  -28.4530   23.2800 C   0  0  0  0  0  3  0  0  0  0  0  0
  -20.6060  -27.0170   22.7200 C   0  0  0  0  0  2  0  0  0  0  0  0
  -19.5160  -26.6730   21.6980 C   0  0  0  0  0  2  0  0  0  0  0  0
  -18.1270  -26.8140   22.3260 C   0  0  0  0  0  2  0  0  0  0  0  0
  -19.0400  -28.9460   23.4180 C   0  0  0  0  0  0  0  0  0  0  0  0
  -18.8040  -30.2140   23.9920 C   0  0  0  0  0  3  0  0  0  0  0  0
  -17.4940  -30.7070   24.1380 C   0  0  0  0  0  3  0  0  0  0  0  0
  -16.4010  -29.9280   23.7220 C   0  0  0  0  0  3  0  0  0  0  0  0
  -16.6210  -28.6610   23.1510 C   0  0  0  0  0  3  0  0  0  0  0  0
  -25.8100  -32.6030   23.9180 C   0  0  0  0  0  3  0  0  0  0  0  0
  -26.3280  -31.8310   25.1920 C   0  0  1  0  0  0  0  0  0  0  0  0
  -25.2370  -31.5940   26.2620 C   0  0  0  0  0  1  0  0  0  0  0  0
  -26.9070  -30.4520   24.7980 C   0  0  0  0  0  1  0  0  0  0  0  0
  -27.4810  -32.6230   25.8510 C   0  0  0  0  0  1  0  0  0  0  0  0
  -25.5220  -34.0070   24.2410 N   0  0  0  0  0  0  0  0  0  0  0  0
  -25.8410  -35.0480   23.4610 C   0  0  0  0  0  0  0  0  0  0  0  0
  -26.4800  -34.9280   22.4120 O   0  0  0  0  0  0  0  0  0  0  0  0
  -24.9520  -34.1750   25.0580 H   0  0  0  0  0  0  0  0  0  0  0  0
  -24.1050  -36.8400   23.1500 C   0  0  0  0  0  1  0  0  0  0  0  0
  -25.3770  -36.4450   23.9160 C   0  0  0  0  0  3  0  0  0  0  0  0
  -27.5430  -37.3370   24.6480 C   0  0  0  0  0  1  0  0  0  0  0  0
  -26.4080  -37.4920   23.7440 N   0  0  0  0  0  0  0  0  0  0  0  0
  -26.0100  -38.4160   23.8900 H   0  0  0  0  0  0  0  0  0  0  0  0
  1  3  2  0
  2  1  1  0
  2  9  1  0
  4  2  1  0
  6  5  2  0
  7  5  1  0
  8  9  2  0
  8 10  1  0
  9  6  1  0
 10  7  2  0
 11  8  1  0
 12 20  1  0
 13 18  1  0
 14 15  1  0
 14 13  1  0
 16 15  1  0
 16 25  1  0
 16 17  1  0
 18 12  1  0
 18 17  1  0
 19 12  2  0
 20 10  1  0
 20 21  1  0
 22 23  2  0
 23 42  1  0
 24 23  1  0
 24 27  1  0
 25 26  1  0
 25 22  1  0
 26 24  2  0
 27 28  1  0
 28 29  2  0
 30 33  1  0
 30 29  1  0
 31 30  2  0
 32 31  1  0
 32 27  2  0
 33 34  1  0
 34 35  1  0
 35 36  2  0
 37 36  1  0
 37 41  1  0
 38 37  2  0
 39 34  2  0
 39 38  1  0
 40 39  1  0
 42 43  1  0
 43 46  1  0
 43 45  1  0
 44 42  2  0
 47 48  1  0
 47 22  1  0
 49 47  1  0
 50 51  1  0
 50  1  1  0
 52 53  1  0
 52 51  1  0
 54 65  2  0
 55 53  1  0
 55 60  1  0
 56 64  1  0
 56 66  1  0
 57 63  1  0
 57 59  1  0
 58 64  1  0
 59 58  1  0
 60 59  2  0
 61 62  1  0
 61 55  2  0
 62 57  2  0
 63 56  1  0
 64 54  1  0
 66 68  2  0
 67 66  1  0
 69 67  1  0
 70 79  2  0
 70 75  1  0
 71 67  1  0
 71 75  1  0
 72 71  1  0
 73 74  1  0
 73 72  1  0
 74 70  1  0
 75 76  2  0
 76 77  1  0
 78 77  2  0
 79 78  1  0
 80 54  1  0
 80 85  1  0
 80 81  1  0
 81 84  1  1
 81 82  1  0
 83 81  1  0
 85 88  1  0
 86 90  1  0
 86 85  1  0
 87 86  2  0
 90 89  1  0
 92 93  1  0
 92 90  1  0
 92 91  1  0
M  ISO  4  12 100  20 100  52 101  53 101
M  END
>  <TORSDO>  (48) 
F 20

>  <SCORE>  (48) 
-13.214

>  <name>  (48) 
47

>  <ligand_id>  (48) 
47

>  <original_smiles>  (48) 
[H]c1c([H])c(N([H])C(=O)N2C([H])([H])C([H])([H])C([H])([H])C([H])(n3nc(-c4c([H])c([H])c(Oc5c([H])c([H])c(F)c([H])c5F)c([H])c4[H])c(C(=O)N([H])[H])c3N([H])[H])C2([H])[H])c(C([H])([H])[H])c(N([H])C(=O)C([H])([H])C([H])([H])C([H])([H])Oc2c([H])c([H])c3c(c2[H])C([H])([H])N(C(=O)C([H])(N([H])C(=O)C([H])(N([H])C([H])([H])[H])C([H])([H])[H])C(C([H])([H])[H])(C([H])([H])[H])C([H])([H])[H])C([H])(C(=O)N([H])C2([H])c4c([H])c([H])c([H])c([H])c4C([H])([H])C([H])([H])C2([H])[H])C3([H])[H])c1[H]

>  <smiles>  (48) 
[H]c1c([H])c(N([H])C(=O)N2C([H])([H])C([H])([H])C([H])([H])C([H])(n3nc(-c4c([H])c([H])c(Oc5c([H])c([H])c(F)c([H])c5F)c([H])c4[H])c(C(=O)N([H])[H])c3N([H])[H])C2([H])[H])c(C([H])([H])[H])c(N([H])C(=O)C([H])([H])C([H])([H])C([H])([H])Oc2c([H])c([H])c3c(c2[H])C([H])([H])N(C(=O)C([H])(N([H])C(=O)C([H])(N([H])C([H])([H])[H])C([H])([H])[H])C(C([H])([H])[H])(C([H])([H])[H])C([H])([H])[H])C([H])(C(=O)N([H])C2([H])c4c([H])c([H])c([H])c([H])c4C([H])([H])C([H])([H])C2([H])[H])C3([H])[H])c1[H]

$$$$
48:0:0
     RDKit          3D

 88 95  0  0  1  0  0  0  0  0999 V2000
  -28.9350  -23.8540   20.6010 C   0  0  0  0  0  0  0  0  0  0  0  0
  -28.8310  -22.5350   20.2070 N   0  0  0  0  0  0  0  0  0  0  0  0
  -29.6410  -24.1720   21.5610 O   0  0  0  0  0  0  0  0  0  0  0  0
  -28.2530  -22.3840   19.3900 H   0  0  0  0  0  0  0  0  0  0  0  0
  -28.0750  -24.9720   19.8670 C   0  0  0  0  0  2  0  0  0  0  0  0
  -28.2840  -26.4090   20.2370 O   0  0  0  0  0  0  0  0  0  0  0  0
  -24.6200  -31.8850   23.2330 C   0  0  0  0  0  0  0  0  0  0  0  0
  -27.1870  -27.2970   20.1580 C   0  0  0  0  0  0  0  0  0  0  0  0
  -23.4000  -30.4900   21.6050 C   0  0  0  0  0  3  0  0  0  0  0  0
  -24.8340  -28.9420   20.1610 C   0  0  0  0  0  0  0  0  0  0  0  0
  -25.9410  -30.7940   21.4050 C   0  0  0  0  0  2  0  0  0  0  0  0
  -26.0100  -29.4140   20.7570 C   0  0  0  0  0  0  0  0  0  0  0  0
  -27.1870  -28.6020   20.7510 C   0  0  0  0  0  3  0  0  0  0  0  0
  -25.9930  -26.9040   19.5060 C   0  0  0  0  0  3  0  0  0  0  0  0
  -24.8300  -27.6930   19.5260 C   0  0  0  0  0  3  0  0  0  0  0  0
  -23.6010  -29.8190   20.2220 C   0  0  0  0  0  2  0  0  0  0  0  0
  -24.6730  -31.0740   22.1370 N   0  0  0  0  0  0  0  0  0  0  0  0
  -23.5410  -32.1670   23.7750 O   0  0  0  0  0  0  0  0  0  0  0  0
  -22.7430  -29.4740   22.5700 C   0  0  0  0  0  0  0  0  0  0  0  0
  -21.4150  -29.2960   22.4510 N   0  0  0  0  0  0  0  0  0  0  0  0
  -23.4250  -28.8490   23.3850 O   0  0  0  0  0  0  0  0  0  0  0  0
  -20.9230  -29.8520   21.7660 H   0  0  0  0  0  0  0  0  0  0  0  0
  -18.0430  -28.0920   22.9660 C   0  0  0  0  0  0  0  0  0  0  0  0
  -20.6000  -28.3610   23.2300 C   0  0  0  0  0  3  0  0  0  0  0  0
  -20.7060  -26.9260   22.6650 C   0  0  0  0  0  2  0  0  0  0  0  0
  -19.6030  -26.5920   21.6540 C   0  0  0  0  0  2  0  0  0  0  0  0
  -18.2220  -26.7380   22.3000 C   0  0  0  0  0  2  0  0  0  0  0  0
  -19.1590  -28.8610   23.3890 C   0  0  0  0  0  0  0  0  0  0  0  0
  -18.9370  -30.1270   23.9720 C   0  0  0  0  0  3  0  0  0  0  0  0
  -17.6310  -30.6250   24.1360 C   0  0  0  0  0  3  0  0  0  0  0  0
  -16.5280  -29.8540   23.7300 C   0  0  0  0  0  3  0  0  0  0  0  0
  -16.7360  -28.5880   23.1500 C   0  0  0  0  0  3  0  0  0  0  0  0
  -25.9090  -32.5170   23.8430 C   0  0  0  0  0  3  0  0  0  0  0  0
  -25.6020  -33.9130   24.1820 N   0  0  0  0  0  0  0  0  0  0  0  0
  -25.9210  -34.9700   23.4220 C   0  0  0  0  0  0  0  0  0  0  0  0
  -26.5760  -34.8710   22.3810 O   0  0  0  0  0  0  0  0  0  0  0  0
  -25.0190  -34.0650   24.9910 H   0  0  0  0  0  0  0  0  0  0  0  0
  -24.1830  -36.7600   23.1060 C   0  0  0  0  0  1  0  0  0  0  0  0
  -25.4410  -36.3560   23.8920 C   0  0  0  0  0  3  0  0  0  0  0  0
  -27.5900  -37.2420   24.6820 C   0  0  0  0  0  1  0  0  0  0  0  0
  -26.4680  -37.4110   23.7620 N   0  0  0  0  0  0  0  0  0  0  0  0
  -26.0640  -38.3310   23.9210 H   0  0  0  0  0  0  0  0  0  0  0  0
  -26.4380  -31.7420   25.1120 C   0  0  1  0  0  0  0  0  0  0  0  0
  -25.3570  -31.5030   26.1910 C   0  0  0  0  0  1  0  0  0  0  0  0
  -27.0150  -30.3630   24.7120 C   0  0  0  0  0  1  0  0  0  0  0  0
  -27.5980  -32.5320   25.7620 C   0  0  0  0  0  1  0  0  0  0  0  0
  -29.2470  -21.2730   20.9410 C   0  0  0  0  0  3  0  0  0  0  0  0
  -29.5220  -19.9310   20.1020 C   0  0  0  0  0  3  0  0  0  0  0  0
  -29.5560  -18.5040   20.8500 C   0  0  0  0  0  3  0  0  0  0  0  0
  -30.1420  -17.2310   20.0640 C   0  0  0  0  0  3  0  0  0  0  0  0
  -30.6070  -14.6900   20.2910 C   0  0  0  0  0  0  0  0  0  0  0  0
  -30.3400  -12.4430   19.2580 C   0  0  0  0  0  2  0  0  0  0  0  0
  -29.3920  -12.5700   18.0460 C   0  0  0  0  0  2  0  0  0  0  0  0
  -27.9240  -12.4200   18.4900 C   0  0  0  0  0  2  0  0  0  0  0  0
  -27.5820  -13.2910   19.7290 C   0  0  0  0  0  3  0  0  0  0  0  0
  -28.6530  -13.1600   20.8370 C   0  0  0  0  0  2  0  0  0  0  0  0
  -29.9550  -13.4830   20.2380 N   0  0  0  0  0  0  0  0  0  0  0  0
  -31.7690  -14.7900   19.8900 O   0  0  0  0  0  0  0  0  0  0  0  0
  -29.8660  -15.8210   20.5600 N   0  0  0  0  0  0  0  0  0  0  0  0
  -28.9310  -15.6460   20.8990 H   0  0  0  0  0  0  0  0  0  0  0  0
  -25.2010  -13.9000   20.4690 C   0  0  0  0  0  0  0  0  0  0  0  0
  -24.1340  -13.1330   20.8520 C   0  0  0  0  0  0  0  0  0  0  0  0
  -24.5900  -11.7800   20.8240 C   0  0  0  0  0  0  0  0  0  0  0  0
  -26.2390  -13.0150   20.2290 N   0  0  0  0  0  0  0  0  0  0  0  0
  -25.8780  -11.7340   20.5040 N   0  0  0  0  0  0  0  0  0  0  0  0
  -23.8590  -10.5220   21.0260 C   0  0  0  0  0  0  0  0  0  0  0  0
  -24.3040   -9.5480   21.9460 C   0  0  0  0  0  3  0  0  0  0  0  0
  -23.5740   -8.3560   22.1370 C   0  0  0  0  0  3  0  0  0  0  0  0
  -22.3830   -8.1280   21.4060 C   0  0  0  0  0  0  0  0  0  0  0  0
  -21.9550   -9.0920   20.4750 C   0  0  0  0  0  3  0  0  0  0  0  0
  -22.6870  -10.2750   20.2830 C   0  0  0  0  0  3  0  0  0  0  0  0
  -21.6210   -6.9890   21.5070 O   0  0  0  0  0  0  0  0  0  0  0  0
  -21.6040   -6.2340   22.6530 C   0  0  0  0  0  0  0  0  0  0  0  0
  -21.2390   -6.7820   23.9010 C   0  0  0  0  0  3  0  0  0  0  0  0
  -21.1680   -5.9540   25.0390 C   0  0  0  0  0  3  0  0  0  0  0  0
  -21.4510   -4.5800   24.9310 C   0  0  0  0  0  0  0  0  0  0  0  0
  -21.8090   -4.0310   23.6870 C   0  0  0  0  0  3  0  0  0  0  0  0
  -21.8820   -4.8550   22.5500 C   0  0  0  0  0  0  0  0  0  0  0  0
  -22.2070   -4.3180   21.3500 F   0  0  0  0  0  0  0  0  0  0  0  0
  -21.3750   -3.7820   26.0220 F   0  0  0  0  0  0  0  0  0  0  0  0
  -22.7420  -13.6190   21.1340 C   0  0  0  0  0  0  0  0  0  0  0  0
  -22.0190  -12.9330   22.0120 N   0  0  0  0  0  0  0  0  0  0  0  0
  -22.3040  -14.6420   20.6110 O   0  0  0  0  0  0  0  0  0  0  0  0
  -22.3870  -12.1040   22.4570 H   0  0  0  0  0  0  0  0  0  0  0  0
  -21.0850  -13.2400   22.2430 H   0  0  0  0  0  0  0  0  0  0  0  0
  -25.3690  -15.2690   20.2820 N   0  0  0  0  0  0  0  0  0  0  0  0
  -24.6040  -15.9260   20.3920 H   0  0  0  0  0  0  0  0  0  0  0  0
  -26.2100  -15.7020   19.9240 H   0  0  0  0  0  0  0  0  0  0  0  0
  1  3  2  0
  2  1  1  0
  2 47  1  0
  4  2  1  0
  5  6  1  0
  5  1  1  0
  7 18  2  0
  8  6  1  0
  8 13  1  0
  9 17  1  0
  9 19  1  0
 10 16  1  0
 10 12  1  0
 11 17  1  0
 12 11  1  0
 13 12  2  0
 14 15  1  0
 14  8  2  0
 15 10  2  0
 16  9  1  0
 17  7  1  0
 19 21  2  0
 20 19  1  0
 22 20  1  0
 23 32  2  0
 23 28  1  0
 24 20  1  0
 24 28  1  0
 25 24  1  0
 26 27  1  0
 26 25  1  0
 27 23  1  0
 28 29  2  0
 29 30  1  0
 31 30  2  0
 32 31  1  0
 33  7  1  0
 33 34  1  0
 33 43  1  0
 34 37  1  0
 35 39  1  0
 35 34  1  0
 36 35  2  0
 39 38  1  0
 41 39  1  0
 41 42  1  0
 41 40  1  0
 43 46  1  1
 43 44  1  0
 45 43  1  0
 48 49  1  0
 48 47  2  0
 50 59  1  0
 50 49  2  0
 51 59  1  0
 52 57  1  0
 53 54  1  0
 53 52  1  0
 55 54  1  0
 55 64  1  0
 55 56  1  0
 57 51  1  0
 57 56  1  0
 58 51  2  0
 59 60  1  0
 61 62  2  0
 62 81  1  0
 63 62  1  0
 63 66  1  0
 64 61  1  0
 64 65  1  0
 65 63  2  0
 66 67  1  0
 67 68  2  0
 69 72  1  0
 69 68  1  0
 70 69  2  0
 71 70  1  0
 71 66  2  0
 72 73  1  0
 73 74  1  0
 74 75  2  0
 76 75  1  0
 76 80  1  0
 77 76  2  0
 78 73  2  0
 78 77  1  0
 79 78  1  0
 81 82  1  0
 82 85  1  0
 82 84  1  0
 83 81  2  0
 86 87  1  0
 86 61  1  0
 88 86  1  0
M  ISO  4   5 101   6 101  51 100  59 100
M  END
>  <TORSDO>  (49) 
F 21

>  <SCORE>  (49) 
-13.216

>  <name>  (49) 
48

>  <ligand_id>  (49) 
48

>  <original_smiles>  (49) 
[H]c1c([H])c([H])c2c(c1[H])C([H])([H])C([H])([H])C([H])([H])C2([H])N([H])C(=O)C1([H])N(C(=O)C([H])(N([H])C(=O)C([H])(N([H])C([H])([H])[H])C([H])([H])[H])C(C([H])([H])[H])(C([H])([H])[H])C([H])([H])[H])C([H])([H])c2c([H])c(OC([H])([H])C(=O)N([H])C([H])([H])C([H])([H])C([H])([H])C([H])([H])N([H])C(=O)N3C([H])([H])C([H])([H])C([H])([H])C([H])(n4nc(-c5c([H])c([H])c(Oc6c([H])c([H])c(F)c([H])c6F)c([H])c5[H])c(C(=O)N([H])[H])c4N([H])[H])C3([H])[H])c([H])c([H])c2C1([H])[H]

>  <smiles>  (49) 
[H]c1c([H])c([H])c2c(c1[H])C([H])([H])C([H])([H])C([H])([H])C2([H])N([H])C(=O)C1([H])N(C(=O)C([H])(N([H])C(=O)C([H])(N([H])C([H])([H])[H])C([H])([H])[H])C(C([H])([H])[H])(C([H])([H])[H])C([H])([H])[H])C([H])([H])c2c([H])c(OC([H])([H])C(=O)N([H])C([H])([H])C([H])([H])C([H])([H])C([H])([H])N([H])C(=O)N3C([H])([H])C([H])([H])C([H])([H])C([H])(n4nc(-c5c([H])c([H])c(Oc6c([H])c([H])c(F)c([H])c6F)c([H])c5[H])c(C(=O)N([H])[H])c4N([H])[H])C3([H])[H])c([H])c([H])c2C1([H])[H]

$$$$
49:0:0
     RDKit          3D

 86 93  0  0  1  0  0  0  0  0999 V2000
  -29.2030  -23.8290   20.1430 C   0  0  0  0  0  2  0  0  0  0  0  0
  -28.0400  -24.9350   20.2210 C   0  0  0  0  0  2  0  0  0  0  0  0
  -28.3000  -26.4110   20.1560 O   0  0  0  0  0  0  0  0  0  0  0  0
  -24.6180  -31.8770   23.2020 C   0  0  0  0  0  0  0  0  0  0  0  0
  -27.1890  -27.2850   20.1310 C   0  0  0  0  0  0  0  0  0  0  0  0
  -23.3990  -30.4770   21.5820 C   0  0  0  0  0  3  0  0  0  0  0  0
  -24.8320  -28.9250   20.1440 C   0  0  0  0  0  0  0  0  0  0  0  0
  -25.9400  -30.7870   21.3710 C   0  0  0  0  0  2  0  0  0  0  0  0
  -26.0120  -29.4050   20.7250 C   0  0  0  0  0  0  0  0  0  0  0  0
  -27.1950  -28.5990   20.7040 C   0  0  0  0  0  3  0  0  0  0  0  0
  -25.9790  -26.8710   19.5230 C   0  0  0  0  0  3  0  0  0  0  0  0
  -24.8180  -27.6640   19.5350 C   0  0  0  0  0  3  0  0  0  0  0  0
  -23.5970  -29.8030   20.2010 C   0  0  0  0  0  2  0  0  0  0  0  0
  -24.6740  -31.0630   22.1080 N   0  0  0  0  0  0  0  0  0  0  0  0
  -23.5400  -32.1580   23.7460 O   0  0  0  0  0  0  0  0  0  0  0  0
  -22.7450  -29.4610   22.5490 C   0  0  0  0  0  0  0  0  0  0  0  0
  -21.4180  -29.2820   22.4360 N   0  0  0  0  0  0  0  0  0  0  0  0
  -23.4320  -28.8370   23.3650 O   0  0  0  0  0  0  0  0  0  0  0  0
  -20.9200  -29.8400   21.7550 H   0  0  0  0  0  0  0  0  0  0  0  0
  -18.0480  -28.0720   22.9620 C   0  0  0  0  0  0  0  0  0  0  0  0
  -20.6070  -28.3470   23.2190 C   0  0  0  0  0  3  0  0  0  0  0  0
  -20.7140  -26.9100   22.6580 C   0  0  0  0  0  2  0  0  0  0  0  0
  -19.6100  -26.5710   21.6520 C   0  0  0  0  0  2  0  0  0  0  0  0
  -18.2290  -26.7160   22.2990 C   0  0  0  0  0  2  0  0  0  0  0  0
  -19.1650  -28.8420   23.3790 C   0  0  0  0  0  0  0  0  0  0  0  0
  -18.9430  -30.1100   23.9610 C   0  0  0  0  0  3  0  0  0  0  0  0
  -17.6370  -30.6070   24.1300 C   0  0  0  0  0  3  0  0  0  0  0  0
  -16.5340  -29.8320   23.7290 C   0  0  0  0  0  3  0  0  0  0  0  0
  -16.7400  -28.5670   23.1500 C   0  0  0  0  0  3  0  0  0  0  0  0
  -25.9060  -32.5160   23.8070 C   0  0  0  0  0  3  0  0  0  0  0  0
  -26.4440  -31.7430   25.0740 C   0  0  1  0  0  0  0  0  0  0  0  0
  -25.3660  -31.5020   26.1590 C   0  0  0  0  0  1  0  0  0  0  0  0
  -27.0240  -30.3670   24.6720 C   0  0  0  0  0  1  0  0  0  0  0  0
  -27.6010  -32.5390   25.7200 C   0  0  0  0  0  1  0  0  0  0  0  0
  -25.5940  -33.9110   24.1470 N   0  0  0  0  0  0  0  0  0  0  0  0
  -25.9120  -34.9690   23.3890 C   0  0  0  0  0  0  0  0  0  0  0  0
  -26.5650  -34.8720   22.3480 O   0  0  0  0  0  0  0  0  0  0  0  0
  -25.0090  -34.0590   24.9570 H   0  0  0  0  0  0  0  0  0  0  0  0
  -24.1670  -36.7560   23.0720 C   0  0  0  0  0  1  0  0  0  0  0  0
  -25.4250  -36.3550   23.8610 C   0  0  0  0  0  3  0  0  0  0  0  0
  -27.5700  -37.2450   24.6520 C   0  0  0  0  0  1  0  0  0  0  0  0
  -26.4490  -37.4130   23.7330 N   0  0  0  0  0  0  0  0  0  0  0  0
  -26.0420  -38.3310   23.8950 H   0  0  0  0  0  0  0  0  0  0  0  0
  -28.9330  -22.4840   20.7130 O   0  0  0  0  0  0  0  0  0  0  0  0
  -29.3190  -21.2530   19.9900 C   0  0  0  0  0  3  0  0  0  0  0  0
  -29.6000  -19.9250   20.8520 C   0  0  0  0  0  3  0  0  0  0  0  0
  -29.5640  -18.4590   20.1810 C   0  0  0  0  0  2  0  0  0  0  0  0
  -30.2440  -17.2340   20.9710 C   0  0  0  0  0  2  0  0  0  0  0  0
  -30.6060  -14.6940   20.4100 C   0  0  0  0  0  0  0  0  0  0  0  0
  -30.3900  -12.4410   19.3670 C   0  0  0  0  0  2  0  0  0  0  0  0
  -29.4440  -12.5240   18.1500 C   0  0  0  0  0  2  0  0  0  0  0  0
  -27.9740  -12.3650   18.5840 C   0  0  0  0  0  2  0  0  0  0  0  0
  -27.6100  -13.2540   19.8030 C   0  0  0  0  0  3  0  0  0  0  0  0
  -28.6690  -13.1420   20.9200 C   0  0  0  0  0  2  0  0  0  0  0  0
  -29.9690  -13.4830   20.3260 N   0  0  0  0  0  0  0  0  0  0  0  0
  -31.7900  -14.8090   20.0840 O   0  0  0  0  0  0  0  0  0  0  0  0
  -29.8350  -15.8020   20.6850 N   0  0  0  0  0  0  0  0  0  0  0  0
  -28.8630  -15.5890   20.8570 H   0  0  0  0  0  0  0  0  0  0  0  0
  -25.2230  -13.8600   20.5210 C   0  0  0  0  0  0  0  0  0  0  0  0
  -24.1530  -13.0910   20.8940 C   0  0  0  0  0  0  0  0  0  0  0  0
  -24.6120  -11.7380   20.8720 C   0  0  0  0  0  0  0  0  0  0  0  0
  -26.2640  -12.9750   20.2920 N   0  0  0  0  0  0  0  0  0  0  0  0
  -25.9030  -11.6950   20.5670 N   0  0  0  0  0  0  0  0  0  0  0  0
  -23.8830  -10.4780   21.0650 C   0  0  0  0  0  0  0  0  0  0  0  0
  -24.3250   -9.5030   21.9860 C   0  0  0  0  0  3  0  0  0  0  0  0
  -23.5950   -8.3080   22.1670 C   0  0  0  0  0  3  0  0  0  0  0  0
  -22.4110   -8.0800   21.4270 C   0  0  0  0  0  0  0  0  0  0  0  0
  -21.9870   -9.0460   20.4960 C   0  0  0  0  0  3  0  0  0  0  0  0
  -22.7170  -10.2320   20.3130 C   0  0  0  0  0  3  0  0  0  0  0  0
  -21.6510   -6.9390   21.5180 O   0  0  0  0  0  0  0  0  0  0  0  0
  -21.6330   -6.1760   22.6590 C   0  0  0  0  0  0  0  0  0  0  0  0
  -21.2660   -6.7180   23.9100 C   0  0  0  0  0  3  0  0  0  0  0  0
  -21.1940   -5.8830   25.0430 C   0  0  0  0  0  3  0  0  0  0  0  0
  -21.4780   -4.5100   24.9270 C   0  0  0  0  0  0  0  0  0  0  0  0
  -21.8370   -3.9670   23.6800 C   0  0  0  0  0  3  0  0  0  0  0  0
  -21.9110   -4.7990   22.5490 C   0  0  0  0  0  0  0  0  0  0  0  0
  -22.2380   -4.2690   21.3460 F   0  0  0  0  0  0  0  0  0  0  0  0
  -21.4000   -3.7070   26.0130 F   0  0  0  0  0  0  0  0  0  0  0  0
  -22.7570  -13.5740   21.1600 C   0  0  0  0  0  0  0  0  0  0  0  0
  -22.0270  -12.8830   22.0300 N   0  0  0  0  0  0  0  0  0  0  0  0
  -22.3200  -14.5960   20.6320 O   0  0  0  0  0  0  0  0  0  0  0  0
  -22.3920  -12.0540   22.4740 H   0  0  0  0  0  0  0  0  0  0  0  0
  -21.0910  -13.1870   22.2550 H   0  0  0  0  0  0  0  0  0  0  0  0
  -25.3930  -15.2290   20.3360 N   0  0  0  0  0  0  0  0  0  0  0  0
  -24.6300  -15.8900   20.4300 H   0  0  0  0  0  0  0  0  0  0  0  0
  -26.2410  -15.6550   19.9850 H   0  0  0  0  0  0  0  0  0  0  0  0
  1  2  1  0
  1 44  1  0
  3  2  1  0
  4 15  2  0
  5  3  1  0
  5 10  1  0
  6 14  1  0
  6 16  1  0
  7 13  1  0
  7  9  1  0
  8 14  1  0
  9  8  1  0
 10  9  2  0
 11 12  1  0
 11  5  2  0
 12  7  2  0
 13  6  1  0
 14  4  1  0
 16 18  2  0
 17 16  1  0
 19 17  1  0
 20 29  2  0
 20 25  1  0
 21 17  1  0
 21 25  1  0
 22 21  1  0
 23 24  1  0
 23 22  1  0
 24 20  1  0
 25 26  2  0
 26 27  1  0
 28 27  2  0
 29 28  1  0
 30  4  1  0
 30 35  1  0
 30 31  1  0
 31 34  1  1
 31 32  1  0
 33 31  1  0
 35 38  1  0
 36 40  1  0
 36 35  1  0
 37 36  2  0
 40 39  1  0
 42 40  1  0
 42 43  1  0
 42 41  1  0
 45 44  1  0
 45 46  2  0
 47 46  1  0
 47 48  1  0
 49 57  1  0
 50 55  1  0
 51 52  1  0
 51 50  1  0
 53 52  1  0
 53 62  1  0
 53 54  1  0
 55 49  1  0
 55 54  1  0
 56 49  2  0
 57 58  1  0
 57 48  1  0
 59 60  2  0
 60 79  1  0
 61 60  1  0
 61 64  1  0
 62 59  1  0
 62 63  1  0
 63 61  2  0
 64 65  1  0
 65 66  2  0
 67 70  1  0
 67 66  1  0
 68 67  2  0
 69 68  1  0
 69 64  2  0
 70 71  1  0
 71 72  1  0
 72 73  2  0
 74 73  1  0
 74 78  1  0
 75 74  2  0
 76 71  2  0
 76 75  1  0
 77 76  1  0
 79 80  1  0
 80 83  1  0
 80 82  1  0
 81 79  2  0
 84 85  1  0
 84 59  1  0
 86 84  1  0
M  ISO  4   2 101   3 101  49 100  57 100
M  END
>  <TORSDO>  (50) 
F 22

>  <SCORE>  (50) 
-12.849

>  <name>  (50) 
49

>  <ligand_id>  (50) 
49

>  <original_smiles>  (50) 
[H]c1c([H])c([H])c2c(c1[H])C([H])([H])C([H])([H])C([H])([H])C2([H])N([H])C(=O)C1([H])N(C(=O)C([H])(N([H])C(=O)C([H])(N([H])C([H])([H])[H])C([H])([H])[H])C(C([H])([H])[H])(C([H])([H])[H])C([H])([H])[H])C([H])([H])c2c([H])c(OC([H])([H])C([H])([H])OC([H])([H])C([H])([H])C([H])([H])C([H])([H])N([H])C(=O)N3C([H])([H])C([H])([H])C([H])([H])C([H])(n4nc(-c5c([H])c([H])c(Oc6c([H])c([H])c(F)c([H])c6F)c([H])c5[H])c(C(=O)N([H])[H])c4N([H])[H])C3([H])[H])c([H])c([H])c2C1([H])[H]

>  <smiles>  (50) 
[H]c1c([H])c([H])c2c(c1[H])C([H])([H])C([H])([H])C([H])([H])C2([H])N([H])C(=O)C1([H])N(C(=O)C([H])(N([H])C(=O)C([H])(N([H])C([H])([H])[H])C([H])([H])[H])C(C([H])([H])[H])(C([H])([H])[H])C([H])([H])[H])C([H])([H])c2c([H])c(OC([H])([H])C([H])([H])OC([H])([H])C([H])([H])C([H])([H])C([H])([H])N([H])C(=O)N3C([H])([H])C([H])([H])C([H])([H])C([H])(n4nc(-c5c([H])c([H])c(Oc6c([H])c([H])c(F)c([H])c6F)c([H])c5[H])c(C(=O)N([H])[H])c4N([H])[H])C3([H])[H])c([H])c([H])c2C1([H])[H]

$$$$
50:0:0
     RDKit          3D

 98105  0  0  1  0  0  0  0  0999 V2000
  -29.9920  -21.4550   20.6780 N   0  0  2  0  0  4  0  0  0  0  0  0
  -29.8790  -21.8800   19.7680 H   0  0  0  0  0  0  0  0  0  0  0  0
  -29.8810  -20.0040   20.1420 C   0  0  0  0  0  2  0  0  0  0  0  0
  -29.9500  -18.6370   21.0150 C   0  0  0  0  0  2  0  0  0  0  0  0
  -30.3510  -17.2980   20.2140 C   0  0  0  0  0  2  0  0  0  0  0  0
  -30.7250  -14.7610   20.5230 C   0  0  0  0  0  0  0  0  0  0  0  0
  -30.5080  -12.4740   19.5610 C   0  0  0  0  0  2  0  0  0  0  0  0
  -29.5940  -12.5410   18.3170 C   0  0  0  0  0  2  0  0  0  0  0  0
  -28.1150  -12.3900   18.7230 C   0  0  0  0  0  2  0  0  0  0  0  0
  -27.7250  -13.2940   19.9240 C   0  0  0  0  0  3  0  0  0  0  0  0
  -28.7680  -13.2200   21.0630 C   0  0  0  0  0  2  0  0  0  0  0  0
  -30.0790  -13.5470   20.4890 N   0  0  0  0  0  0  0  0  0  0  0  0
  -31.8990  -14.8470   20.1610 O   0  0  0  0  0  0  0  0  0  0  0  0
  -29.9860  -15.9090   20.7230 N   0  0  0  0  0  0  0  0  0  0  0  0
  -29.0320  -15.7690   21.0260 H   0  0  0  0  0  0  0  0  0  0  0  0
  -25.3300  -13.8920   20.6290 C   0  0  0  0  0  0  0  0  0  0  0  0
  -24.2550  -13.1220   20.9820 C   0  0  0  0  0  0  0  0  0  0  0  0
  -24.7080  -11.7680   20.9400 C   0  0  0  0  0  0  0  0  0  0  0  0
  -26.3710  -13.0090   20.3950 N   0  0  0  0  0  0  0  0  0  0  0  0
  -26.0020  -11.7250   20.6430 N   0  0  0  0  0  0  0  0  0  0  0  0
  -23.9690  -10.5080   21.1070 C   0  0  0  0  0  0  0  0  0  0  0  0
  -24.3660   -9.5400   22.0540 C   0  0  0  0  0  3  0  0  0  0  0  0
  -23.6280   -8.3470   22.2110 C   0  0  0  0  0  3  0  0  0  0  0  0
  -22.4790   -8.1120   21.4190 C   0  0  0  0  0  0  0  0  0  0  0  0
  -22.1010   -9.0710   20.4620 C   0  0  0  0  0  3  0  0  0  0  0  0
  -22.8400  -10.2550   20.3040 C   0  0  0  0  0  3  0  0  0  0  0  0
  -21.7150   -6.9720   21.4860 O   0  0  0  0  0  0  0  0  0  0  0  0
  -21.6020   -6.2460   22.6450 C   0  0  0  0  0  0  0  0  0  0  0  0
  -21.1000   -6.8170   23.8350 C   0  0  0  0  0  3  0  0  0  0  0  0
  -20.9360   -6.0190   24.9840 C   0  0  0  0  0  3  0  0  0  0  0  0
  -21.2610   -4.6500   24.9440 C   0  0  0  0  0  0  0  0  0  0  0  0
  -21.7570   -4.0780   23.7580 C   0  0  0  0  0  3  0  0  0  0  0  0
  -21.9230   -4.8730   22.6120 C   0  0  0  0  0  0  0  0  0  0  0  0
  -22.3800   -4.3130   21.4650 F   0  0  0  0  0  0  0  0  0  0  0  0
  -21.0960   -3.8810   26.0450 F   0  0  0  0  0  0  0  0  0  0  0  0
  -22.8590  -13.6050   21.2440 C   0  0  0  0  0  0  0  0  0  0  0  0
  -22.1160  -12.9060   22.0950 N   0  0  0  0  0  0  0  0  0  0  0  0
  -22.4350  -14.6400   20.7290 O   0  0  0  0  0  0  0  0  0  0  0  0
  -22.4710  -12.0700   22.5340 H   0  0  0  0  0  0  0  0  0  0  0  0
  -21.1770  -13.2110   22.3080 H   0  0  0  0  0  0  0  0  0  0  0  0
  -25.5060  -15.2640   20.4670 N   0  0  0  0  0  0  0  0  0  0  0  0
  -24.7420  -15.9240   20.5710 H   0  0  0  0  0  0  0  0  0  0  0  0
  -26.3520  -15.6930   20.1170 H   0  0  0  0  0  0  0  0  0  0  0  0
  -31.3250  -22.0450   21.0040 C   0  0  0  0  0  2  0  0  0  0  0  0
  -32.5610  -21.1290   20.9690 C   0  0  0  0  0  2  0  0  0  0  0  0
  -33.3100  -21.2110   19.6240 C   0  0  0  0  0  2  0  0  0  0  0  0
  -33.9290  -22.6090   19.3980 C   0  0  0  0  0  2  0  0  0  0  0  0
  -33.7230  -23.1760   17.9870 C   0  0  0  0  0  2  0  0  0  0  0  0
  -35.1880  -22.7760   16.0150 C   0  0  0  0  0  0  0  0  0  0  0  0
  -35.7110  -21.7430   15.0260 C   0  0  0  0  0  1  0  0  0  0  0  0
  -34.3560  -22.3410   16.9690 N   0  0  0  0  0  0  0  0  0  0  0  0
  -35.5360  -23.9520   15.9090 O   0  0  0  0  0  0  0  0  0  0  0  0
  -34.1230  -21.3570   16.9750 H   0  0  0  0  0  0  0  0  0  0  0  0
  -28.8330  -22.2100   21.3260 C   0  0  0  0  0  2  0  0  0  0  0  0
  -28.5800  -23.7340   20.8210 C   0  0  0  0  0  2  0  0  0  0  0  0
  -28.1590  -24.8320   21.8800 C   0  0  0  0  0  0  0  0  0  0  0  0
  -28.3820  -24.6010   23.0700 O   0  0  0  0  0  0  0  0  0  0  0  0
  -27.5210  -26.0630   21.4220 O   0  0  0  0  0  0  0  0  0  0  0  0
  -27.6200  -32.2080   25.2740 C   0  0  0  0  0  0  0  0  0  0  0  0
  -26.9050  -26.9230   22.3520 C   0  0  0  0  0  0  0  0  0  0  0  0
  -26.1600  -30.3930   26.0900 C   0  0  0  0  0  3  0  0  0  0  0  0
  -25.7280  -28.4840   24.4440 C   0  0  0  0  0  0  0  0  0  0  0  0
  -26.6630  -30.6250   23.5850 C   0  0  0  0  0  2  0  0  0  0  0  0
  -26.4900  -29.1160   23.4540 C   0  0  0  0  0  0  0  0  0  0  0  0
  -27.0750  -28.3460   22.4000 C   0  0  0  0  0  3  0  0  0  0  0  0
  -26.0740  -26.3450   23.3400 C   0  0  0  0  0  3  0  0  0  0  0  0
  -25.5110  -27.1010   24.3810 C   0  0  0  0  0  3  0  0  0  0  0  0
  -25.1560  -29.3380   25.5580 C   0  0  0  0  0  2  0  0  0  0  0  0
  -26.8680  -31.1080   24.9790 N   0  0  0  0  0  0  0  0  0  0  0  0
  -27.7070  -32.6390   26.4340 O   0  0  0  0  0  0  0  0  0  0  0  0
  -27.1240  -29.7100   27.0890 C   0  0  0  0  0  0  0  0  0  0  0  0
  -26.6930  -29.5780   28.3550 N   0  0  0  0  0  0  0  0  0  0  0  0
  -28.2220  -29.2910   26.7140 O   0  0  0  0  0  0  0  0  0  0  0  0
  -25.7880  -29.9610   28.5900 H   0  0  0  0  0  0  0  0  0  0  0  0
  -26.5970  -28.8440   31.8950 C   0  0  0  0  0  0  0  0  0  0  0  0
  -27.4240  -28.9350   29.4480 C   0  0  0  0  0  3  0  0  0  0  0  0
  -27.2140  -27.4020   29.4310 C   0  0  0  0  0  2  0  0  0  0  0  0
  -26.0530  -26.9430   30.3190 C   0  0  0  0  0  2  0  0  0  0  0  0
  -26.2910  -27.3620   31.7720 C   0  0  0  0  0  2  0  0  0  0  0  0
  -27.1140  -29.5870   30.8000 C   0  0  0  0  0  0  0  0  0  0  0  0
  -27.3470  -30.9700   30.9600 C   0  0  0  0  0  3  0  0  0  0  0  0
  -27.0740  -31.6090   32.1860 C   0  0  0  0  0  3  0  0  0  0  0  0
  -26.5740  -30.8650   33.2700 C   0  0  0  0  0  3  0  0  0  0  0  0
  -26.3420  -29.4870   33.1240 C   0  0  0  0  0  3  0  0  0  0  0  0
  -28.3890  -32.9910   24.1650 C   0  0  0  0  0  3  0  0  0  0  0  0
  -29.8890  -32.5260   24.0050 C   0  0  1  0  0  0  0  0  0  0  0  0
  -30.6800  -32.5050   25.3330 C   0  0  0  0  0  1  0  0  0  0  0  0
  -29.9560  -31.1080   23.3930 C   0  0  0  0  0  1  0  0  0  0  0  0
  -30.6280  -33.4680   23.0260 C   0  0  0  0  0  1  0  0  0  0  0  0
  -28.3260  -34.4200   24.5040 N   0  0  0  0  0  0  0  0  0  0  0  0
  -27.5770  -35.3230   23.8580 C   0  0  0  0  0  0  0  0  0  0  0  0
  -26.9110  -35.0470   22.8560 O   0  0  0  0  0  0  0  0  0  0  0  0
  -28.8030  -34.7080   25.3450 H   0  0  0  0  0  0  0  0  0  0  0  0
  -26.2130  -37.0370   25.0940 C   0  0  0  0  0  1  0  0  0  0  0  0
  -27.5620  -36.7620   24.4100 C   0  0  0  0  0  3  0  0  0  0  0  0
  -29.1890  -37.7860   22.8830 C   0  0  0  0  0  1  0  0  0  0  0  0
  -27.8150  -37.7910   23.3790 N   0  0  0  0  0  0  0  0  0  0  0  0
  -27.6120  -38.7200   23.7380 H   0  0  0  0  0  0  0  0  0  0  0  0
  1 44  1  0
  1 54  1  0
  1  2  1  6
  3  1  1  0
  3  4  1  0
  5 14  1  0
  5  4  1  0
  6 14  1  0
  7 12  1  0
  8  9  1  0
  8  7  1  0
 10  9  1  0
 10 19  1  0
 10 11  1  0
 12  6  1  0
 12 11  1  0
 13  6  2  0
 14 15  1  0
 16 17  2  0
 17 36  1  0
 18 17  1  0
 18 21  1  0
 19 16  1  0
 19 20  1  0
 20 18  2  0
 21 22  1  0
 22 23  2  0
 24 27  1  0
 24 23  1  0
 25 24  2  0
 26 25  1  0
 26 21  2  0
 27 28  1  0
 28 29  1  0
 29 30  2  0
 31 30  1  0
 31 35  1  0
 32 31  2  0
 33 28  2  0
 33 32  1  0
 34 33  1  0
 36 37  1  0
 37 40  1  0
 37 39  1  0
 38 36  2  0
 41 42  1  0
 41 16  1  0
 43 41  1  0
 45 44  1  0
 46 45  1  0
 47 46  1  0
 48 47  1  0
 49 51  1  0
 50 49  1  0
 51 53  1  0
 51 48  1  0
 52 49  2  0
 55 54  1  0
 55 56  1  0
 56 57  2  0
 58 56  1  0
 58 60  1  0
 59 70  2  0
 60 65  2  0
 60 66  1  0
 61 71  1  0
 62 68  1  0
 63 69  1  0
 64 63  1  0
 64 62  2  0
 65 64  1  0
 66 67  2  0
 67 62  1  0
 68 61  1  0
 69 59  1  0
 69 61  1  0
 71 72  1  0
 72 74  1  0
 73 71  2  0
 75 84  1  0
 76 72  1  0
 76 80  1  0
 77 76  1  0
 77 78  1  0
 78 79  1  0
 79 75  1  0
 80 81  1  0
 80 75  2  0
 81 82  2  0
 82 83  1  0
 84 83  2  0
 85 90  1  0
 85 59  1  0
 86 85  1  0
 86 87  1  1
 88 86  1  0
 89 86  1  0
 90 93  1  0
 91 95  1  0
 91 90  1  0
 92 91  2  0
 95 94  1  0
 96 97  1  0
 97 98  1  0
 97 95  1  0
M  ISO  4   6 100  14 100  56 101  58 101
M  END
>  <TORSDO>  (51) 
F 28

>  <SCORE>  (51) 
-8.881

>  <name>  (51) 
50

>  <ligand_id>  (51) 
50

>  <original_smiles>  (51) 
[H]c1c([H])c([H])c2c(c1[H])C([H])([H])C([H])([H])C([H])([H])C2([H])N([H])C(=O)C1([H])N(C(=O)C([H])(N([H])C(=O)C([H])(N([H])C([H])([H])[H])C([H])([H])[H])C(C([H])([H])[H])(C([H])([H])[H])C([H])([H])[H])C([H])([H])c2c([H])c(OC(=O)C([H])([H])C([H])([H])[N+]([H])(C([H])([H])C([H])([H])C([H])([H])N([H])C(=O)N3C([H])([H])C([H])([H])C([H])([H])C([H])(n4nc(-c5c([H])c([H])c(Oc6c([H])c([H])c(F)c([H])c6F)c([H])c5[H])c(C(=O)N([H])[H])c4N([H])[H])C3([H])[H])C([H])([H])C([H])([H])C([H])([H])C([H])([H])C([H])([H])N([H])C(=O)C([H])([H])[H])c([H])c([H])c2C1([H])[H]

>  <smiles>  (51) 
[H]c1c([H])c([H])c2c(c1[H])C([H])([H])C([H])([H])C([H])([H])C2([H])N([H])C(=O)C1([H])N(C(=O)C([H])(N([H])C(=O)C([H])(N([H])C([H])([H])[H])C([H])([H])[H])C(C([H])([H])[H])(C([H])([H])[H])C([H])([H])[H])C([H])([H])c2c([H])c(OC(=O)C([H])([H])C([H])([H])[N+]([H])(C([H])([H])C([H])([H])C([H])([H])N([H])C(=O)N3C([H])([H])C([H])([H])C([H])([H])C([H])(n4nc(-c5c([H])c([H])c(Oc6c([H])c([H])c(F)c([H])c6F)c([H])c5[H])c(C(=O)N([H])[H])c4N([H])[H])C3([H])[H])C([H])([H])C([H])([H])C([H])([H])C([H])([H])C([H])([H])N([H])C(=O)C([H])([H])[H])c([H])c([H])c2C1([H])[H]

$$$$
51:0:0
     RDKit          3D

 84 91  0  0  1  0  0  0  0  0999 V2000
  -28.0360  -24.2690   20.5090 C   0  0  0  0  0  2  0  0  0  0  0  0
  -28.2220  -25.8810   20.2090 O   0  0  0  0  0  0  0  0  0  0  0  0
  -24.6160  -31.8370   23.1800 C   0  0  0  0  0  0  0  0  0  0  0  0
  -27.1870  -26.9520   20.2070 C   0  0  0  0  0  0  0  0  0  0  0  0
  -23.4240  -30.4230   21.5540 C   0  0  0  0  0  3  0  0  0  0  0  0
  -24.8760  -28.8110   20.1480 C   0  0  0  0  0  0  0  0  0  0  0  0
  -25.9900  -30.6480   21.3990 C   0  0  0  0  0  2  0  0  0  0  0  0
  -26.0650  -29.2330   20.7580 C   0  0  0  0  0  0  0  0  0  0  0  0
  -27.2180  -28.3250   20.7560 C   0  0  0  0  0  3  0  0  0  0  0  0
  -25.9650  -26.6750   19.5560 C   0  0  0  0  0  3  0  0  0  0  0  0
  -24.8500  -27.5530   19.5260 C   0  0  0  0  0  3  0  0  0  0  0  0
  -23.6540  -29.7270   20.1840 C   0  0  0  0  0  2  0  0  0  0  0  0
  -24.6980  -30.9970   22.0980 N   0  0  0  0  0  0  0  0  0  0  0  0
  -23.5260  -32.1260   23.7010 O   0  0  0  0  0  0  0  0  0  0  0  0
  -22.7360  -29.4330   22.5290 C   0  0  0  0  0  0  0  0  0  0  0  0
  -21.4040  -29.2710   22.4160 N   0  0  0  0  0  0  0  0  0  0  0  0
  -23.4070  -28.8080   23.3540 O   0  0  0  0  0  0  0  0  0  0  0  0
  -20.9170  -29.8260   21.7270 H   0  0  0  0  0  0  0  0  0  0  0  0
  -18.0230  -28.0690   22.9520 C   0  0  0  0  0  0  0  0  0  0  0  0
  -20.5850  -28.3390   23.1970 C   0  0  0  0  0  3  0  0  0  0  0  0
  -20.6840  -26.9040   22.6300 C   0  0  0  0  0  2  0  0  0  0  0  0
  -19.5750  -26.5740   21.6240 C   0  0  0  0  0  2  0  0  0  0  0  0
  -18.1970  -26.7180   22.2770 C   0  0  0  0  0  2  0  0  0  0  0  0
  -19.1440  -28.8370   23.3690 C   0  0  0  0  0  0  0  0  0  0  0  0
  -18.9240  -30.0980   23.9630 C   0  0  0  0  0  3  0  0  0  0  0  0
  -17.6200  -30.5940   24.1420 C   0  0  0  0  0  3  0  0  0  0  0  0
  -16.5140  -29.8250   23.7380 C   0  0  0  0  0  3  0  0  0  0  0  0
  -16.7170  -28.5640   23.1490 C   0  0  0  0  0  3  0  0  0  0  0  0
  -25.8860  -32.4890   23.8060 C   0  0  0  0  0  3  0  0  0  0  0  0
  -26.4090  -31.7230   25.0840 C   0  0  1  0  0  0  0  0  0  0  0  0
  -25.3200  -31.4800   26.1550 C   0  0  0  0  0  1  0  0  0  0  0  0
  -27.0000  -30.3470   24.6990 C   0  0  0  0  0  1  0  0  0  0  0  0
  -27.5570  -32.5240   25.7410 C   0  0  0  0  0  1  0  0  0  0  0  0
  -25.5550  -33.8830   24.1530 N   0  0  0  0  0  0  0  0  0  0  0  0
  -25.8660  -34.9530   23.4100 C   0  0  0  0  0  0  0  0  0  0  0  0
  -26.5250  -34.8730   22.3700 O   0  0  0  0  0  0  0  0  0  0  0  0
  -24.9660  -34.0180   24.9610 H   0  0  0  0  0  0  0  0  0  0  0  0
  -24.1090  -36.7340   23.1180 C   0  0  0  0  0  1  0  0  0  0  0  0
  -25.3720  -36.3320   23.8960 C   0  0  0  0  0  3  0  0  0  0  0  0
  -27.5150  -37.2360   24.6870 C   0  0  0  0  0  1  0  0  0  0  0  0
  -26.3890  -37.4000   23.7720 N   0  0  0  0  0  0  0  0  0  0  0  0
  -25.9750  -38.3130   23.9390 H   0  0  0  0  0  0  0  0  0  0  0  0
  -28.7190  -22.6990   19.9240 C   0  0  0  0  0  2  0  0  0  0  0  0
  -28.9900  -21.2170   20.5850 O   0  0  0  0  0  0  0  0  0  0  0  0
  -29.0780  -19.6810   19.9990 C   0  0  0  0  0  2  0  0  0  0  0  0
  -29.8810  -18.1670   20.5600 C   0  0  0  0  0  2  0  0  0  0  0  0
  -30.3820  -15.2640   20.2540 C   0  0  0  0  0  0  0  0  0  0  0  0
  -30.3490  -12.8260   19.3660 C   0  0  0  0  0  2  0  0  0  0  0  0
  -29.4210  -12.6110   18.1440 C   0  0  0  0  0  2  0  0  0  0  0  0
  -27.9740  -12.3490   18.5940 C   0  0  0  0  0  2  0  0  0  0  0  0
  -27.5290  -13.3180   19.7180 C   0  0  0  0  0  3  0  0  0  0  0  0
  -28.5830  -13.4670   20.8330 C   0  0  0  0  0  2  0  0  0  0  0  0
  -29.8060  -13.9670   20.1860 N   0  0  0  0  0  0  0  0  0  0  0  0
  -31.6080  -15.2630   20.0800 O   0  0  0  0  0  0  0  0  0  0  0  0
  -29.6180  -16.5330   20.3180 N   0  0  0  0  0  0  0  0  0  0  0  0
  -28.6290  -16.3280   20.3210 H   0  0  0  0  0  0  0  0  0  0  0  0
  -25.1610  -13.8840   20.4750 C   0  0  0  0  0  0  0  0  0  0  0  0
  -24.0990  -13.1090   20.8510 C   0  0  0  0  0  0  0  0  0  0  0  0
  -24.5680  -11.7590   20.8280 C   0  0  0  0  0  0  0  0  0  0  0  0
  -26.2030  -13.0060   20.2350 N   0  0  0  0  0  0  0  0  0  0  0  0
  -25.8590  -11.7220   20.5170 N   0  0  0  0  0  0  0  0  0  0  0  0
  -23.8400  -10.4970   21.0260 C   0  0  0  0  0  0  0  0  0  0  0  0
  -24.2820   -9.5240   21.9500 C   0  0  0  0  0  3  0  0  0  0  0  0
  -23.5520   -8.3310   22.1370 C   0  0  0  0  0  3  0  0  0  0  0  0
  -22.3660   -8.1010   21.4000 C   0  0  0  0  0  0  0  0  0  0  0  0
  -21.9430   -9.0620   20.4650 C   0  0  0  0  0  3  0  0  0  0  0  0
  -22.6730  -10.2470   20.2760 C   0  0  0  0  0  3  0  0  0  0  0  0
  -21.6060   -6.9600   21.4960 O   0  0  0  0  0  0  0  0  0  0  0  0
  -21.5890   -6.2020   22.6400 C   0  0  0  0  0  0  0  0  0  0  0  0
  -21.2240   -6.7480   23.8900 C   0  0  0  0  0  3  0  0  0  0  0  0
  -21.1520   -5.9180   25.0260 C   0  0  0  0  0  3  0  0  0  0  0  0
  -21.4340   -4.5440   24.9150 C   0  0  0  0  0  0  0  0  0  0  0  0
  -21.7920   -3.9970   23.6700 C   0  0  0  0  0  3  0  0  0  0  0  0
  -21.8660   -4.8250   22.5350 C   0  0  0  0  0  0  0  0  0  0  0  0
  -22.1910   -4.2890   21.3340 F   0  0  0  0  0  0  0  0  0  0  0  0
  -21.3580   -3.7440   26.0040 F   0  0  0  0  0  0  0  0  0  0  0  0
  -22.7020  -13.5880   21.1150 C   0  0  0  0  0  0  0  0  0  0  0  0
  -21.9740  -12.9020   21.9880 N   0  0  0  0  0  0  0  0  0  0  0  0
  -22.2660  -14.6070   20.5800 O   0  0  0  0  0  0  0  0  0  0  0  0
  -22.3410  -12.0790   22.4420 H   0  0  0  0  0  0  0  0  0  0  0  0
  -21.0360  -13.2060   22.2080 H   0  0  0  0  0  0  0  0  0  0  0  0
  -25.3200  -15.2530   20.2870 N   0  0  0  0  0  0  0  0  0  0  0  0
  -24.5470  -15.9020   20.3920 H   0  0  0  0  0  0  0  0  0  0  0  0
  -26.1550  -15.6900   19.9190 H   0  0  0  0  0  0  0  0  0  0  0  0
  2  1  1  0
  3 14  2  0
  4  2  1  0
  4  9  1  0
  5 13  1  0
  5 15  1  0
  6 12  1  0
  6  8  1  0
  7 13  1  0
  8  7  1  0
  9  8  2  0
 10  4  2  0
 11 10  1  0
 11  6  2  0
 12  5  1  0
 13  3  1  0
 15 17  2  0
 16 15  1  0
 18 16  1  0
 19 28  2  0
 19 24  1  0
 20 16  1  0
 20 24  1  0
 21 20  1  0
 22 23  1  0
 22 21  1  0
 23 19  1  0
 24 25  2  0
 25 26  1  0
 27 26  2  0
 28 27  1  0
 29  3  1  0
 29 34  1  0
 29 30  1  0
 30 33  1  1
 30 31  1  0
 32 30  1  0
 34 37  1  0
 35 39  1  0
 35 34  1  0
 36 35  2  0
 39 38  1  0
 41 39  1  0
 41 42  1  0
 41 40  1  0
 43  1  1  0
 43 44  1  0
 45 46  1  0
 45 44  1  0
 47 55  1  0
 48 53  1  0
 49 50  1  0
 49 48  1  0
 51 50  1  0
 51 60  1  0
 51 52  1  0
 53 47  1  0
 53 52  1  0
 54 47  2  0
 55 56  1  0
 55 46  1  0
 57 58  2  0
 58 77  1  0
 59 58  1  0
 59 62  1  0
 60 57  1  0
 60 61  1  0
 61 59  2  0
 62 63  1  0
 63 64  2  0
 65 68  1  0
 65 64  1  0
 66 65  2  0
 67 66  1  0
 67 62  2  0
 68 69  1  0
 69 70  1  0
 70 71  2  0
 72 71  1  0
 72 76  1  0
 73 72  2  0
 74 69  2  0
 74 73  1  0
 75 74  1  0
 77 78  1  0
 78 81  1  0
 78 80  1  0
 79 77  2  0
 82 83  1  0
 82 57  1  0
 84 82  1  0
M  ISO  4   1 101   2 101  47 100  55 100
M  END
>  <TORSDO>  (52) 
F 20

>  <SCORE>  (52) 
-15.761

>  <name>  (52) 
51

>  <ligand_id>  (52) 
51

>  <original_smiles>  (52) 
[H]c1c([H])c([H])c2c(c1[H])C([H])([H])C([H])([H])C([H])([H])C2([H])N([H])C(=O)C1([H])N(C(=O)C([H])(N([H])C(=O)C([H])(N([H])C([H])([H])[H])C([H])([H])[H])C(C([H])([H])[H])(C([H])([H])[H])C([H])([H])[H])C([H])([H])c2c([H])c(OC([H])([H])C([H])([H])OC([H])([H])C([H])([H])N([H])C(=O)N3C([H])([H])C([H])([H])C([H])([H])C([H])(n4nc(-c5c([H])c([H])c(Oc6c([H])c([H])c(F)c([H])c6F)c([H])c5[H])c(C(=O)N([H])[H])c4N([H])[H])C3([H])[H])c([H])c([H])c2C1([H])[H]

>  <smiles>  (52) 
[H]c1c([H])c([H])c2c(c1[H])C([H])([H])C([H])([H])C([H])([H])C2([H])N([H])C(=O)C1([H])N(C(=O)C([H])(N([H])C(=O)C([H])(N([H])C([H])([H])[H])C([H])([H])[H])C(C([H])([H])[H])(C([H])([H])[H])C([H])([H])[H])C([H])([H])c2c([H])c(OC([H])([H])C([H])([H])OC([H])([H])C([H])([H])N([H])C(=O)N3C([H])([H])C([H])([H])C([H])([H])C([H])(n4nc(-c5c([H])c([H])c(Oc6c([H])c([H])c(F)c([H])c6F)c([H])c5[H])c(C(=O)N([H])[H])c4N([H])[H])C3([H])[H])c([H])c([H])c2C1([H])[H]

$$$$
52:0:0
     RDKit          3D

 81 85  0  0  1  0  0  0  0  0999 V2000
  -28.1090  -24.6470   20.3000 O   0  0  0  0  0  1  0  0  0  0  0  0
  -24.7100  -31.7810   23.1610 C   0  0  0  0  0  0  0  0  0  0  0  0
  -27.2070  -26.1440   20.2640 C   0  0  0  0  0  0  0  0  0  0  0  0
  -23.5560  -30.3680   21.5220 C   0  0  0  0  0  3  0  0  0  0  0  0
  -25.0090  -28.5810   20.1690 C   0  0  0  0  0  0  0  0  0  0  0  0
  -26.1560  -30.3130   21.5020 C   0  0  0  0  0  2  0  0  0  0  0  0
  -26.2110  -28.8120   20.8490 C   0  0  0  0  0  0  0  0  0  0  0  0
  -27.2590  -27.6460   20.8460 C   0  0  0  0  0  3  0  0  0  0  0  0
  -25.9680  -26.2870   19.5230 C   0  0  0  0  0  3  0  0  0  0  0  0
  -24.9660  -27.3480   19.4800 C   0  0  0  0  0  3  0  0  0  0  0  0
  -23.8360  -29.6140   20.1780 C   0  0  0  0  0  2  0  0  0  0  0  0
  -24.8390  -30.8700   22.1140 N   0  0  0  0  0  0  0  0  0  0  0  0
  -23.6010  -32.1150   23.6230 O   0  0  0  0  0  0  0  0  0  0  0  0
  -22.7620  -29.4580   22.5040 C   0  0  0  0  0  0  0  0  0  0  0  0
  -21.4220  -29.3560   22.3730 N   0  0  0  0  0  0  0  0  0  0  0  0
  -23.3780  -28.8290   23.3670 O   0  0  0  0  0  0  0  0  0  0  0  0
  -20.9670  -29.9120   21.6630 H   0  0  0  0  0  0  0  0  0  0  0  0
  -17.9970  -28.2130   22.9010 C   0  0  0  0  0  0  0  0  0  0  0  0
  -20.5670  -28.4380   23.1430 C   0  0  0  0  0  3  0  0  0  0  0  0
  -20.6330  -27.0060   22.5600 C   0  0  0  0  0  2  0  0  0  0  0  0
  -19.5210  -26.7160   21.5460 C   0  0  0  0  0  2  0  0  0  0  0  0
  -18.1460  -26.8740   22.1990 C   0  0  0  0  0  2  0  0  0  0  0  0
  -19.1320  -28.9550   23.3290 C   0  0  0  0  0  0  0  0  0  0  0  0
  -18.9320  -30.2040   23.9560 C   0  0  0  0  0  3  0  0  0  0  0  0
  -17.6350  -30.7130   24.1530 C   0  0  0  0  0  3  0  0  0  0  0  0
  -16.5160  -29.9710   23.7350 C   0  0  0  0  0  3  0  0  0  0  0  0
  -16.6980  -28.7220   23.1160 C   0  0  0  0  0  3  0  0  0  0  0  0
  -25.9400  -32.4590   23.8420 C   0  0  0  0  0  3  0  0  0  0  0  0
  -25.5980  -33.8650   24.1720 N   0  0  0  0  0  0  0  0  0  0  0  0
  -25.9200  -34.9450   23.4450 C   0  0  0  0  0  0  0  0  0  0  0  0
  -26.5760  -34.8640   22.4040 O   0  0  0  0  0  0  0  0  0  0  0  0
  -25.0070  -33.9990   24.9800 H   0  0  0  0  0  0  0  0  0  0  0  0
  -24.1680  -36.7480   23.1980 C   0  0  0  0  0  1  0  0  0  0  0  0
  -25.4480  -36.3330   23.9420 C   0  0  0  0  0  3  0  0  0  0  0  0
  -27.6060  -37.2470   24.6880 C   0  0  0  0  0  1  0  0  0  0  0  0
  -26.4650  -37.3980   23.7880 N   0  0  0  0  0  0  0  0  0  0  0  0
  -26.0550  -38.3150   23.9480 H   0  0  0  0  0  0  0  0  0  0  0  0
  -26.3960  -31.7200   25.1620 C   0  0  1  0  0  0  0  0  0  0  0  0
  -25.2580  -31.5140   26.1910 C   0  0  0  0  0  1  0  0  0  0  0  0
  -26.9880  -30.3300   24.8490 C   0  0  0  0  0  1  0  0  0  0  0  0
  -27.5230  -32.5250   25.8520 C   0  0  0  0  0  1  0  0  0  0  0  0
  -28.1400  -22.5480   20.1630 C   0  0  0  0  0 15  0  0  0  0  0  0
  -29.1420  -20.4180   20.2160 C   0  0  0  0  0 15  0  0  0  0  0  0
  -29.9010  -16.6470   20.0860 C   0  0  0  0  0  0  0  0  0  0  0  0
  -30.2300  -13.8900   19.2940 C   0  0  0  0  0  2  0  0  0  0  0  0
  -29.4480  -13.0530   18.1990 C   0  0  0  0  0  2  0  0  0  0  0  0
  -28.1340  -12.4820   18.7300 C   0  0  0  0  0  2  0  0  0  0  0  0
  -27.5010  -13.5140   19.6750 C   0  0  0  0  0  3  0  0  0  0  0  0
  -28.4750  -14.2100   20.6950 C   0  0  0  0  0  2  0  0  0  0  0  0
  -29.4550  -15.1290   19.9600 N   0  0  0  0  0  0  0  0  0  0  0  0
  -31.1430  -16.3980   20.0040 O   0  0  0  0  0  0  0  0  0  0  0  0
  -29.2570  -18.3100   20.1340 N   0  0  0  0  0  2  0  0  0  0  0  0
  -30.2580  -18.4710   20.1320 H   0  0  0  0  0  0  0  0  0  0  0  0
  -25.1600  -13.9200   20.5080 C   0  0  0  0  0  0  0  0  0  0  0  0
  -24.1280  -13.1120   20.8810 C   0  0  0  0  0  0  0  0  0  0  0  0
  -24.6260  -11.7720   20.8220 C   0  0  0  0  0  0  0  0  0  0  0  0
  -26.2240  -13.0860   20.2420 N   0  0  0  0  0  0  0  0  0  0  0  0
  -25.9190  -11.7780   20.4820 N   0  0  0  0  0  0  0  0  0  0  0  0
  -23.9140  -10.4950   21.0120 C   0  0  0  0  0  0  0  0  0  0  0  0
  -24.3570   -9.5290   21.9420 C   0  0  0  0  0  3  0  0  0  0  0  0
  -23.6350   -8.3280   22.1300 C   0  0  0  0  0  3  0  0  0  0  0  0
  -22.4560   -8.0830   21.3870 C   0  0  0  0  0  0  0  0  0  0  0  0
  -22.0290   -9.0390   20.4470 C   0  0  0  0  0  3  0  0  0  0  0  0
  -22.7510  -10.2310   20.2590 C   0  0  0  0  0  3  0  0  0  0  0  0
  -21.7070   -6.9350   21.4820 O   0  0  0  0  0  0  0  0  0  0  0  0
  -21.6700   -6.1910   22.6350 C   0  0  0  0  0  0  0  0  0  0  0  0
  -21.2140   -6.7320   23.8560 C   0  0  0  0  0  3  0  0  0  0  0  0
  -21.1260   -5.9140   25.0000 C   0  0  0  0  0  3  0  0  0  0  0  0
  -21.4850   -4.5540   24.9250 C   0  0  0  0  0  0  0  0  0  0  0  0
  -21.9340   -4.0110   23.7070 C   0  0  0  0  0  3  0  0  0  0  0  0
  -22.0220   -4.8270   22.5660 C   0  0  0  0  0  0  0  0  0  0  0  0
  -22.4340   -4.2930   21.3900 F   0  0  0  0  0  0  0  0  0  0  0  0
  -21.3950   -3.7660   26.0220 F   0  0  0  0  0  0  0  0  0  0  0  0
  -22.7270  -13.5620   21.1730 C   0  0  0  0  0  0  0  0  0  0  0  0
  -22.0260  -12.8570   22.0520 N   0  0  0  0  0  0  0  0  0  0  0  0
  -22.2670  -14.5820   20.6590 O   0  0  0  0  0  0  0  0  0  0  0  0
  -22.4140  -12.0340   22.4890 H   0  0  0  0  0  0  0  0  0  0  0  0
  -21.0880  -13.1430   22.2910 H   0  0  0  0  0  0  0  0  0  0  0  0
  -25.2790  -15.2960   20.3350 N   0  0  0  0  0  0  0  0  0  0  0  0
  -24.4980  -15.9290   20.4650 H   0  0  0  0  0  0  0  0  0  0  0  0
  -26.1180  -15.7610   20.0090 H   0  0  0  0  0  0  0  0  0  0  0  0
  2 13  2  0
  3  1  1  0
  3  8  1  0
  4 12  1  0
  4 14  1  0
  5 11  1  0
  5  7  1  0
  6 12  1  0
  7  6  1  0
  8  7  2  0
  9  3  2  0
 10  9  1  0
 10  5  2  0
 11  4  1  0
 12  2  1  0
 14 16  2  0
 15 14  1  0
 17 15  1  0
 18 27  2  0
 18 23  1  0
 19 15  1  0
 19 23  1  0
 20 19  1  0
 21 22  1  0
 21 20  1  0
 22 18  1  0
 23 24  2  0
 24 25  1  0
 26 25  2  0
 27 26  1  0
 28  2  1  0
 28 29  1  0
 28 38  1  0
 29 32  1  0
 30 34  1  0
 30 29  1  0
 31 30  2  0
 34 33  1  0
 36 34  1  0
 36 37  1  0
 36 35  1  0
 38 41  1  1
 38 39  1  0
 40 38  1  0
 44 52  1  0
 45 50  1  0
 46 47  1  0
 46 45  1  0
 48 47  1  0
 48 57  1  0
 48 49  1  0
 50 44  1  0
 50 49  1  0
 51 44  2  0
 53 52  1  0
 54 55  2  0
 55 74  1  0
 56 55  1  0
 56 59  1  0
 57 58  1  0
 57 54  1  0
 58 56  2  0
 59 60  1  0
 60 61  2  0
 62 65  1  0
 62 61  1  0
 63 62  2  0
 64 63  1  0
 64 59  2  0
 65 66  1  0
 66 67  1  0
 67 68  2  0
 69 68  1  0
 69 73  1  0
 70 69  2  0
 71 66  2  0
 71 70  1  0
 72 71  1  0
 74 75  1  0
 75 78  1  0
 75 77  1  0
 76 74  2  0
 79 80  1  0
 79 54  1  0
 81 79  1  0
M  ISO  4   1 101  42 101  44 100  52 100
M  END
>  <TORSDO>  (53) 
F 17

>  <SCORE>  (53) 
-16.141

>  <name>  (53) 
52

>  <ligand_id>  (53) 
52

>  <original_smiles>  (53) 
[H]c1c([H])c([H])c2c(c1[H])C([H])([H])C([H])([H])C([H])([H])C2([H])N([H])C(=O)C1([H])N(C(=O)C([H])(N([H])C(=O)C([H])(N([H])C([H])([H])[H])C([H])([H])[H])C(C([H])([H])[H])(C([H])([H])[H])C([H])([H])[H])C([H])([H])c2c([H])c(OC([H])([H])C([H])([H])N([H])C(=O)N3C([H])([H])C([H])([H])C([H])([H])C([H])(n4nc(-c5c([H])c([H])c(Oc6c([H])c([H])c(F)c([H])c6F)c([H])c5[H])c(C(=O)N([H])[H])c4N([H])[H])C3([H])[H])c([H])c([H])c2C1([H])[H]

>  <smiles>  (53) 
[H]c1c([H])c([H])c2c(c1[H])C([H])([H])C([H])([H])C([H])([H])C2([H])N([H])C(=O)C1([H])N(C(=O)C([H])(N([H])C(=O)C([H])(N([H])C([H])([H])[H])C([H])([H])[H])C(C([H])([H])[H])(C([H])([H])[H])C([H])([H])[H])C([H])([H])c2c([H])c(OC([H])([H])C([H])([H])N([H])C(=O)N3C([H])([H])C([H])([H])C([H])([H])C([H])(n4nc(-c5c([H])c([H])c(Oc6c([H])c([H])c(F)c([H])c6F)c([H])c5[H])c(C(=O)N([H])[H])c4N([H])[H])C3([H])[H])c([H])c([H])c2C1([H])[H]

$$$$
53:0:0
     RDKit          3D

 91 98  0  0  1  0  0  0  0  0999 V2000
  -28.4150  -21.6690   20.6480 C   0  0  0  0  0  0  0  0  0  0  0  0
  -27.9860  -22.4440   21.6520 N   0  0  0  0  0  0  0  0  0  0  0  0
  -28.8410  -22.1240   19.5850 O   0  0  0  0  0  0  0  0  0  0  0  0
  -27.7050  -21.9670   22.5000 H   0  0  0  0  0  0  0  0  0  0  0  0
  -28.2960  -20.1540   20.8480 C   0  0  0  0  0  2  0  0  0  0  0  0
  -29.6470  -19.4160   20.8310 C   0  0  0  0  0  2  0  0  0  0  0  0
  -29.5290  -17.9940   21.4190 C   0  0  0  0  0  2  0  0  0  0  0  0
  -30.8770  -17.3620   21.8200 C   0  0  0  0  0  2  0  0  0  0  0  0
  -31.5280  -16.4820   20.7400 C   0  0  0  0  0  2  0  0  0  0  0  0
  -31.3280  -14.1860   19.8580 C   0  0  0  0  0  0  0  0  0  0  0  0
  -30.9000  -11.9330   18.9630 C   0  0  0  0  0  2  0  0  0  0  0  0
  -29.9380  -12.0170   17.7630 C   0  0  0  0  0  2  0  0  0  0  0  0
  -28.4700  -11.9880   18.2380 C   0  0  0  0  0  2  0  0  0  0  0  0
  -28.1910  -12.9950   19.3860 C   0  0  0  0  0  3  0  0  0  0  0  0
  -29.2640  -12.8860   20.4940 C   0  0  0  0  0  2  0  0  0  0  0  0
  -30.5900  -13.0480   19.8700 N   0  0  0  0  0  0  0  0  0  0  0  0
  -32.3610  -14.3200   19.1930 O   0  0  0  0  0  0  0  0  0  0  0  0
  -30.8650  -15.1860   20.6160 N   0  0  0  0  0  0  0  0  0  0  0  0
  -30.0250  -15.0200   21.1500 H   0  0  0  0  0  0  0  0  0  0  0  0
  -25.8730  -13.7890   20.1790 C   0  0  0  0  0  0  0  0  0  0  0  0
  -24.7710  -13.1060   20.6180 C   0  0  0  0  0  0  0  0  0  0  0  0
  -25.1350  -11.7240   20.6070 C   0  0  0  0  0  0  0  0  0  0  0  0
  -26.8420  -12.8310   19.9270 N   0  0  0  0  0  0  0  0  0  0  0  0
  -26.4020  -11.5840   20.2400 N   0  0  0  0  0  0  0  0  0  0  0  0
  -24.3340  -10.5220   20.8720 C   0  0  0  0  0  0  0  0  0  0  0  0
  -24.7200   -9.5770   21.8470 C   0  0  0  0  0  3  0  0  0  0  0  0
  -23.9230   -8.4380   22.0940 C   0  0  0  0  0  3  0  0  0  0  0  0
  -22.7260   -8.2360   21.3650 C   0  0  0  0  0  0  0  0  0  0  0  0
  -22.3590   -9.1690   20.3810 C   0  0  0  0  0  3  0  0  0  0  0  0
  -23.1550  -10.2990   20.1330 C   0  0  0  0  0  3  0  0  0  0  0  0
  -21.9050   -7.1450   21.5190 O   0  0  0  0  0  0  0  0  0  0  0  0
  -21.7990   -6.4850   22.7180 C   0  0  0  0  0  0  0  0  0  0  0  0
  -21.3970   -7.1470   23.8990 C   0  0  0  0  0  3  0  0  0  0  0  0
  -21.2320   -6.4180   25.0940 C   0  0  0  0  0  3  0  0  0  0  0  0
  -21.4600   -5.0280   25.1070 C   0  0  0  0  0  0  0  0  0  0  0  0
  -21.8560   -4.3670   23.9320 C   0  0  0  0  0  3  0  0  0  0  0  0
  -22.0220   -5.0940   22.7390 C   0  0  0  0  0  0  0  0  0  0  0  0
  -22.3830   -4.4480   21.6040 F   0  0  0  0  0  0  0  0  0  0  0  0
  -21.2960   -4.3260   26.2530 F   0  0  0  0  0  0  0  0  0  0  0  0
  -23.4270  -13.6890   20.9430 C   0  0  0  0  0  0  0  0  0  0  0  0
  -22.7000  -13.0790   21.8740 N   0  0  0  0  0  0  0  0  0  0  0  0
  -23.0310  -14.7210   20.4040 O   0  0  0  0  0  0  0  0  0  0  0  0
  -23.0330  -12.2460   22.3360 H   0  0  0  0  0  0  0  0  0  0  0  0
  -21.7990  -13.4560   22.1330 H   0  0  0  0  0  0  0  0  0  0  0  0
  -26.1260  -15.1390   19.9570 N   0  0  0  0  0  0  0  0  0  0  0  0
  -25.4170  -15.8530   20.0910 H   0  0  0  0  0  0  0  0  0  0  0  0
  -27.0000  -15.5060   19.5980 H   0  0  0  0  0  0  0  0  0  0  0  0
  -27.7060  -23.8790   21.5870 C   0  0  0  0  0  2  0  0  0  0  0  0
  -28.9650  -24.7560   21.7320 C   0  0  0  0  0  2  0  0  0  0  0  0
  -28.6700  -26.2650   21.6490 C   0  0  0  0  0  2  0  0  0  0  0  0
  -28.2460  -26.6160   20.3300 O   0  0  0  0  0  0  0  0  0  0  0  0
  -24.5210  -31.8950   23.2810 C   0  0  0  0  0  0  0  0  0  0  0  0
  -27.1130  -27.3860   20.3040 C   0  0  0  0  0  0  0  0  0  0  0  0
  -23.2910  -30.4630   21.6770 C   0  0  0  0  0  3  0  0  0  0  0  0
  -24.7270  -28.8810   20.2810 C   0  0  0  0  0  0  0  0  0  0  0  0
  -25.8120  -30.8130   21.4460 C   0  0  0  0  0  2  0  0  0  0  0  0
  -25.8870  -29.4240   20.8510 C   0  0  0  0  0  0  0  0  0  0  0  0
  -27.0830  -28.6800   20.8700 C   0  0  0  0  0  3  0  0  0  0  0  0
  -25.9490  -26.8570   19.7160 C   0  0  0  0  0  3  0  0  0  0  0  0
  -24.7500  -27.5940   19.7160 C   0  0  0  0  0  3  0  0  0  0  0  0
  -23.4840  -29.7410   20.3150 C   0  0  0  0  0  2  0  0  0  0  0  0
  -24.5600  -31.0720   22.1940 N   0  0  0  0  0  0  0  0  0  0  0  0
  -23.4470  -32.1890   23.8220 O   0  0  0  0  0  0  0  0  0  0  0  0
  -22.6390  -29.4720   22.6680 C   0  0  0  0  0  0  0  0  0  0  0  0
  -21.3170  -29.2800   22.5330 N   0  0  0  0  0  0  0  0  0  0  0  0
  -23.3180  -28.8750   23.5080 O   0  0  0  0  0  0  0  0  0  0  0  0
  -20.8340  -29.8070   21.8190 H   0  0  0  0  0  0  0  0  0  0  0  0
  -17.9480  -28.0710   23.0110 C   0  0  0  0  0  0  0  0  0  0  0  0
  -20.4950  -28.3670   23.3260 C   0  0  0  0  0  3  0  0  0  0  0  0
  -20.6250  -26.9160   22.8100 C   0  0  0  0  0  2  0  0  0  0  0  0
  -19.5480  -26.5390   21.7870 C   0  0  0  0  0  2  0  0  0  0  0  0
  -18.1530  -26.6960   22.3970 C   0  0  0  0  0  2  0  0  0  0  0  0
  -19.0490  -28.8610   23.4340 C   0  0  0  0  0  0  0  0  0  0  0  0
  -18.8080  -30.1450   23.9680 C   0  0  0  0  0  3  0  0  0  0  0  0
  -17.4960  -30.6410   24.0850 C   0  0  0  0  0  3  0  0  0  0  0  0
  -16.4070  -29.8480   23.6820 C   0  0  0  0  0  3  0  0  0  0  0  0
  -16.6340  -28.5650   23.1520 C   0  0  0  0  0  3  0  0  0  0  0  0
  -25.8160  -32.5270   23.8810 C   0  0  0  0  0  3  0  0  0  0  0  0
  -25.5210  -33.9330   24.1840 N   0  0  0  0  0  0  0  0  0  0  0  0
  -25.8680  -34.9670   23.4060 C   0  0  0  0  0  0  0  0  0  0  0  0
  -26.5430  -34.8370   22.3800 O   0  0  0  0  0  0  0  0  0  0  0  0
  -24.9200  -34.1100   24.9760 H   0  0  0  0  0  0  0  0  0  0  0  0
  -24.1630  -36.7710   23.0000 C   0  0  0  0  0  1  0  0  0  0  0  0
  -25.3900  -36.3690   23.8320 C   0  0  0  0  0  3  0  0  0  0  0  0
  -27.5270  -37.2420   24.6670 C   0  0  0  0  0  1  0  0  0  0  0  0
  -26.4360  -37.4080   23.7100 N   0  0  0  0  0  0  0  0  0  0  0  0
  -26.0390  -38.3340   23.8410 H   0  0  0  0  0  0  0  0  0  0  0  0
  -26.3380  -31.7760   25.1640 C   0  0  1  0  0  0  0  0  0  0  0  0
  -25.2490  -31.5630   26.2420 C   0  0  0  0  0  1  0  0  0  0  0  0
  -26.9100  -30.3890   24.7850 C   0  0  0  0  0  1  0  0  0  0  0  0
  -27.4970  -32.5730   25.8070 C   0  0  0  0  0  1  0  0  0  0  0  0
  1  5  1  0
  1  2  1  0
  2  4  1  0
  3  1  2  0
  6  5  1  0
  6  7  1  0
  7  8  1  0
  9  8  1  0
 10 16  1  0
 10 18  1  0
 11 16  1  0
 12 13  1  0
 12 11  1  0
 14 13  1  0
 14 23  1  0
 14 15  1  0
 16 15  1  0
 17 10  2  0
 18  9  1  0
 18 19  1  0
 20 21  2  0
 21 40  1  0
 22 21  1  0
 22 25  1  0
 23 20  1  0
 23 24  1  0
 24 22  2  0
 25 26  1  0
 26 27  2  0
 28 31  1  0
 28 27  1  0
 29 28  2  0
 30 29  1  0
 30 25  2  0
 31 32  1  0
 32 37  2  0
 32 33  1  0
 33 34  2  0
 34 35  1  0
 35 39  1  0
 36 35  2  0
 37 36  1  0
 38 37  1  0
 40 41  1  0
 41 44  1  0
 41 43  1  0
 42 40  2  0
 45 46  1  0
 45 20  1  0
 47 45  1  0
 48  2  1  0
 48 49  1  0
 50 49  1  0
 51 50  1  0
 52 63  2  0
 53 51  1  0
 53 58  1  0
 54 62  1  0
 54 64  1  0
 55 61  1  0
 55 57  1  0
 56 62  1  0
 57 58  2  0
 57 56  1  0
 59 60  1  0
 59 53  2  0
 60 55  2  0
 61 54  1  0
 62 52  1  0
 64 66  2  0
 65 64  1  0
 67 65  1  0
 68 77  2  0
 68 73  1  0
 69 65  1  0
 69 73  1  0
 70 69  1  0
 71 72  1  0
 71 70  1  0
 72 68  1  0
 73 74  2  0
 74 75  1  0
 76 75  2  0
 77 76  1  0
 78 52  1  0
 78 79  1  0
 78 88  1  0
 79 82  1  0
 80 84  1  0
 80 79  1  0
 81 80  2  0
 84 83  1  0
 86 84  1  0
 86 87  1  0
 86 85  1  0
 88 91  1  1
 88 89  1  0
 90 88  1  0
M  ISO  4  10 100  18 100  50 101  51 101
M  END
>  <TORSDO>  (54) 
F 24

>  <SCORE>  (54) 
-11.755

>  <name>  (54) 
53

>  <ligand_id>  (54) 
53

>  <original_smiles>  (54) 
[H]c1c([H])c([H])c2c(c1[H])C([H])([H])C([H])([H])C([H])([H])C2([H])N([H])C(=O)C1([H])N(C(=O)C([H])(N([H])C(=O)C([H])(N([H])C([H])([H])[H])C([H])([H])[H])C(C([H])([H])[H])(C([H])([H])[H])C([H])([H])[H])C([H])([H])c2c([H])c(OC([H])([H])C([H])([H])C([H])([H])N([H])C(=O)C([H])([H])C([H])([H])C([H])([H])C([H])([H])C([H])([H])N([H])C(=O)N3C([H])([H])C([H])([H])C([H])([H])C([H])(n4nc(-c5c([H])c([H])c(Oc6c([H])c([H])c(F)c([H])c6F)c([H])c5[H])c(C(=O)N([H])[H])c4N([H])[H])C3([H])[H])c([H])c([H])c2C1([H])[H]

>  <smiles>  (54) 
[H]c1c([H])c([H])c2c(c1[H])C([H])([H])C([H])([H])C([H])([H])C2([H])N([H])C(=O)C1([H])N(C(=O)C([H])(N([H])C(=O)C([H])(N([H])C([H])([H])[H])C([H])([H])[H])C(C([H])([H])[H])(C([H])([H])[H])C([H])([H])[H])C([H])([H])c2c([H])c(OC([H])([H])C([H])([H])C([H])([H])N([H])C(=O)C([H])([H])C([H])([H])C([H])([H])C([H])([H])C([H])([H])N([H])C(=O)N3C([H])([H])C([H])([H])C([H])([H])C([H])(n4nc(-c5c([H])c([H])c(Oc6c([H])c([H])c(F)c([H])c6F)c([H])c5[H])c(C(=O)N([H])[H])c4N([H])[H])C3([H])[H])c([H])c([H])c2C1([H])[H]

$$$$
54:0:0
     RDKit          3D

 90 97  0  0  1  0  0  0  0  0999 V2000
  -27.8060  -22.7890   22.0570 C   0  0  0  0  0  2  0  0  0  0  0  0
  -28.1210  -23.6690   20.9800 O   0  0  0  0  0  0  0  0  0  0  0  0
  -28.3570  -25.0040   21.4180 C   0  0  0  0  0  2  0  0  0  0  0  0
  -29.0330  -25.8100   20.2920 C   0  0  0  0  0  2  0  0  0  0  0  0
  -28.9770  -27.2200   20.5330 O   0  0  0  0  0  0  0  0  0  0  0  0
  -24.8130  -32.1180   23.5430 C   0  0  0  0  0  0  0  0  0  0  0  0
  -27.7520  -27.8490   20.4980 C   0  0  0  0  0  0  0  0  0  0  0  0
  -23.7220  -30.6820   21.8480 C   0  0  0  0  0  3  0  0  0  0  0  0
  -25.2850  -29.2330   20.4560 C   0  0  0  0  0  0  0  0  0  0  0  0
  -26.2290  -31.1650   21.7290 C   0  0  0  0  0  2  0  0  0  0  0  0
  -26.3990  -29.8060   21.0820 C   0  0  0  0  0  0  0  0  0  0  0  0
  -27.6340  -29.1210   21.0980 C   0  0  0  0  0  3  0  0  0  0  0  0
  -26.6140  -27.2830   19.8740 C   0  0  0  0  0  3  0  0  0  0  0  0
  -25.3870  -27.9680   19.8540 C   0  0  0  0  0  3  0  0  0  0  0  0
  -24.0040  -30.0320   20.4680 C   0  0  0  0  0  2  0  0  0  0  0  0
  -24.9370  -31.3350   22.4330 N   0  0  0  0  0  0  0  0  0  0  0  0
  -23.7050  -32.3340   24.0530 O   0  0  0  0  0  0  0  0  0  0  0  0
  -23.0900  -29.6210   22.7760 C   0  0  0  0  0  0  0  0  0  0  0  0
  -21.7860  -29.3620   22.5830 N   0  0  0  0  0  0  0  0  0  0  0  0
  -23.7700  -29.0330   23.6190 O   0  0  0  0  0  0  0  0  0  0  0  0
  -21.2950  -29.8870   21.8700 H   0  0  0  0  0  0  0  0  0  0  0  0
  -18.4720  -27.9650   22.9140 C   0  0  0  0  0  0  0  0  0  0  0  0
  -20.9920  -28.3730   23.3120 C   0  0  0  0  0  3  0  0  0  0  0  0
  -21.2090  -26.9500   22.7440 C   0  0  0  0  0  2  0  0  0  0  0  0
  -20.1790  -26.5620   21.6760 C   0  0  0  0  0  2  0  0  0  0  0  0
  -18.7620  -26.6280   22.2540 C   0  0  0  0  0  2  0  0  0  0  0  0
  -19.5210  -28.7900   23.3990 C   0  0  0  0  0  0  0  0  0  0  0  0
  -19.2030  -30.0400   23.9710 C   0  0  0  0  0  3  0  0  0  0  0  0
  -17.8650  -30.4650   24.0730 C   0  0  0  0  0  3  0  0  0  0  0  0
  -16.8290  -29.6370   23.6090 C   0  0  0  0  0  3  0  0  0  0  0  0
  -17.1330  -28.3910   23.0320 C   0  0  0  0  0  3  0  0  0  0  0  0
  -26.0510  -32.7960   24.2080 C   0  0  0  0  0  3  0  0  0  0  0  0
  -26.4950  -32.0970   25.5500 C   0  0  1  0  0  0  0  0  0  0  0  0
  -25.3360  -31.8630   26.5460 C   0  0  0  0  0  1  0  0  0  0  0  0
  -27.1490  -30.7280   25.2540 C   0  0  0  0  0  1  0  0  0  0  0  0
  -27.5660  -32.9570   26.2590 C   0  0  0  0  0  1  0  0  0  0  0  0
  -25.7090  -34.2050   24.4420 N   0  0  0  0  0  0  0  0  0  0  0  0
  -26.0740  -35.2180   23.6420 C   0  0  0  0  0  0  0  0  0  0  0  0
  -26.8020  -35.0650   22.6570 O   0  0  0  0  0  0  0  0  0  0  0  0
  -25.0670  -34.3930   25.1980 H   0  0  0  0  0  0  0  0  0  0  0  0
  -24.3440  -36.9560   23.0900 C   0  0  0  0  0  1  0  0  0  0  0  0
  -25.5440  -36.6220   23.9910 C   0  0  0  0  0  3  0  0  0  0  0  0
  -27.6240  -37.5810   24.8740 C   0  0  0  0  0  1  0  0  0  0  0  0
  -26.5690  -37.6810   23.8690 N   0  0  0  0  0  0  0  0  0  0  0  0
  -26.1450  -38.6010   23.9460 H   0  0  0  0  0  0  0  0  0  0  0  0
  -27.4930  -21.3830   21.5210 C   0  0  0  0  0  2  0  0  0  0  0  0
  -28.6650  -20.7680   20.9950 O   0  0  0  0  0  0  0  0  0  0  0  0
  -28.3670  -19.5800   20.2660 C   0  0  0  0  0  2  0  0  0  0  0  0
  -29.6620  -18.8370   19.8940 C   0  0  0  0  0  2  0  0  0  0  0  0
  -30.0630  -17.9670   20.9490 O   0  0  0  0  0  0  0  0  0  0  0  0
  -31.4690  -17.8850   21.1710 C   0  0  0  0  0  2  0  0  0  0  0  0
  -32.1640  -16.8510   20.2700 C   0  0  0  0  0  2  0  0  0  0  0  0
  -31.9300  -14.4640   19.7030 C   0  0  0  0  0  0  0  0  0  0  0  0
  -31.3700  -12.1870   18.9420 C   0  0  0  0  0  2  0  0  0  0  0  0
  -30.3890  -12.2580   17.7560 C   0  0  0  0  0  2  0  0  0  0  0  0
  -28.9350  -12.3150   18.2570 C   0  0  0  0  0  2  0  0  0  0  0  0
  -28.7260  -13.3820   19.3650 C   0  0  0  0  0  3  0  0  0  0  0  0
  -29.8210  -13.2870   20.4530 C   0  0  0  0  0  2  0  0  0  0  0  0
  -31.1380  -13.3620   19.7950 N   0  0  0  0  0  0  0  0  0  0  0  0
  -32.9520  -14.5110   19.0150 O   0  0  0  0  0  0  0  0  0  0  0  0
  -31.5220  -15.5410   20.3790 N   0  0  0  0  0  0  0  0  0  0  0  0
  -30.6870  -15.4770   20.9440 H   0  0  0  0  0  0  0  0  0  0  0  0
  -26.5230  -14.3100   20.3180 C   0  0  0  0  0  0  0  0  0  0  0  0
  -25.3730  -13.6950   20.7340 C   0  0  0  0  0  0  0  0  0  0  0  0
  -25.5970  -12.2930   20.5790 C   0  0  0  0  0  0  0  0  0  0  0  0
  -27.3840  -13.2930   19.9390 N   0  0  0  0  0  0  0  0  0  0  0  0
  -26.8320  -12.0680   20.1490 N   0  0  0  0  0  0  0  0  0  0  0  0
  -24.6860  -11.1530   20.7540 C   0  0  0  0  0  0  0  0  0  0  0  0
  -25.0150  -10.0650   21.5910 C   0  0  0  0  0  3  0  0  0  0  0  0
  -24.1140   -8.9910   21.7570 C   0  0  0  0  0  3  0  0  0  0  0  0
  -22.8680   -9.0000   21.0880 C   0  0  0  0  0  0  0  0  0  0  0  0
  -22.5550  -10.0750   20.2360 C   0  0  0  0  0  3  0  0  0  0  0  0
  -23.4560  -11.1380   20.0660 C   0  0  0  0  0  3  0  0  0  0  0  0
  -21.9430   -7.9870   21.1680 O   0  0  0  0  0  0  0  0  0  0  0  0
  -21.8340   -7.1990   22.2860 C   0  0  0  0  0  0  0  0  0  0  0  0
  -21.5870   -7.7470   23.5640 C   0  0  0  0  0  3  0  0  0  0  0  0
  -21.4110   -6.8960   24.6730 C   0  0  0  0  0  3  0  0  0  0  0  0
  -21.4730   -5.4990   24.5060 C   0  0  0  0  0  0  0  0  0  0  0  0
  -21.7140   -4.9520   23.2340 C   0  0  0  0  0  3  0  0  0  0  0  0
  -21.8900   -5.8000   22.1260 C   0  0  0  0  0  0  0  0  0  0  0  0
  -22.1010   -5.2670   20.8980 F   0  0  0  0  0  0  0  0  0  0  0  0
  -21.2960   -4.6800   25.5700 F   0  0  0  0  0  0  0  0  0  0  0  0
  -24.1040  -14.3690   21.1660 C   0  0  0  0  0  0  0  0  0  0  0  0
  -23.3490  -13.7420   22.0620 N   0  0  0  0  0  0  0  0  0  0  0  0
  -23.7960  -15.4850   20.7480 O   0  0  0  0  0  0  0  0  0  0  0  0
  -23.6150  -12.8390   22.4260 H   0  0  0  0  0  0  0  0  0  0  0  0
  -22.4980  -14.1770   22.3890 H   0  0  0  0  0  0  0  0  0  0  0  0
  -26.9010  -15.6450   20.2170 N   0  0  0  0  0  0  0  0  0  0  0  0
  -26.2750  -16.4070   20.4510 H   0  0  0  0  0  0  0  0  0  0  0  0
  -27.7960  -15.9620   19.8690 H   0  0  0  0  0  0  0  0  0  0  0  0
  2  3  1  0
  2  1  1  0
  4  5  1  0
  4  3  1  0
  6 17  2  0
  7  5  1  0
  7 12  1  0
  8 16  1  0
  8 18  1  0
  9 15  1  0
  9 11  1  0
 10 16  1  0
 11 12  2  0
 11 10  1  0
 13  7  2  0
 14 13  1  0
 14  9  2  0
 15  8  1  0
 16  6  1  0
 18 20  2  0
 19 18  1  0
 21 19  1  0
 22 31  2  0
 22 27  1  0
 23 19  1  0
 23 27  1  0
 24 23  1  0
 25 26  1  0
 25 24  1  0
 26 22  1  0
 27 28  2  0
 28 29  1  0
 30 29  2  0
 31 30  1  0
 32  6  1  0
 32 37  1  0
 32 33  1  0
 33 36  1  1
 33 34  1  0
 35 33  1  0
 37 40  1  0
 38 42  1  0
 38 37  1  0
 39 38  2  0
 42 41  1  0
 44 45  1  0
 44 42  1  0
 44 43  1  0
 46  1  1  0
 47 46  1  0
 48 47  1  0
 49 48  1  0
 49 50  1  0
 50 51  1  0
 52 61  1  0
 52 51  1  0
 53 59  1  0
 53 61  1  0
 54 59  1  0
 55 56  1  0
 55 54  1  0
 57 56  1  0
 57 66  1  0
 57 58  1  0
 59 58  1  0
 60 53  2  0
 61 62  1  0
 63 64  2  0
 64 83  1  0
 65 64  1  0
 65 68  1  0
 66 67  1  0
 66 63  1  0
 67 65  2  0
 68 69  1  0
 69 70  2  0
 71 74  1  0
 71 70  1  0
 72 71  2  0
 73 72  1  0
 73 68  2  0
 74 75  1  0
 75 76  1  0
 76 77  2  0
 78 77  1  0
 78 82  1  0
 79 78  2  0
 80 75  2  0
 80 79  1  0
 81 80  1  0
 83 84  1  0
 84 87  1  0
 84 86  1  0
 85 83  2  0
 88 63  1  0
 88 89  1  0
 90 88  1  0
M  ISO  4   4 101   5 101  53 100  61 100
M  END
>  <TORSDO>  (55) 
F 26

>  <SCORE>  (55) 
-9.736

>  <name>  (55) 
54

>  <ligand_id>  (55) 
54

>  <original_smiles>  (55) 
[H]c1c([H])c([H])c2c(c1[H])C([H])([H])C([H])([H])C([H])([H])C2([H])N([H])C(=O)C1([H])N(C(=O)C([H])(N([H])C(=O)C([H])(N([H])C([H])([H])[H])C([H])([H])[H])C(C([H])([H])[H])(C([H])([H])[H])C([H])([H])[H])C([H])([H])c2c([H])c(OC([H])([H])C([H])([H])OC([H])([H])C([H])([H])OC([H])([H])C([H])([H])OC([H])([H])C([H])([H])N([H])C(=O)N3C([H])([H])C([H])([H])C([H])([H])C([H])(n4nc(-c5c([H])c([H])c(Oc6c([H])c([H])c(F)c([H])c6F)c([H])c5[H])c(C(=O)N([H])[H])c4N([H])[H])C3([H])[H])c([H])c([H])c2C1([H])[H]

>  <smiles>  (55) 
[H]c1c([H])c([H])c2c(c1[H])C([H])([H])C([H])([H])C([H])([H])C2([H])N([H])C(=O)C1([H])N(C(=O)C([H])(N([H])C(=O)C([H])(N([H])C([H])([H])[H])C([H])([H])[H])C(C([H])([H])[H])(C([H])([H])[H])C([H])([H])[H])C([H])([H])c2c([H])c(OC([H])([H])C([H])([H])OC([H])([H])C([H])([H])OC([H])([H])C([H])([H])OC([H])([H])C([H])([H])N([H])C(=O)N3C([H])([H])C([H])([H])C([H])([H])C([H])(n4nc(-c5c([H])c([H])c(Oc6c([H])c([H])c(F)c([H])c6F)c([H])c5[H])c(C(=O)N([H])[H])c4N([H])[H])C3([H])[H])c([H])c([H])c2C1([H])[H]

$$$$
55:0:0
     RDKit          3D

 84 91  0  0  1  0  0  0  0  0999 V2000
  -28.0360  -24.2690   20.5090 C   0  0  0  0  0  2  0  0  0  0  0  0
  -28.2220  -25.8810   20.2090 O   0  0  0  0  0  0  0  0  0  0  0  0
  -24.6160  -31.8370   23.1800 C   0  0  0  0  0  0  0  0  0  0  0  0
  -27.1870  -26.9520   20.2070 C   0  0  0  0  0  0  0  0  0  0  0  0
  -23.4240  -30.4230   21.5540 C   0  0  0  0  0  3  0  0  0  0  0  0
  -24.8760  -28.8110   20.1480 C   0  0  0  0  0  0  0  0  0  0  0  0
  -25.9900  -30.6480   21.3990 C   0  0  0  0  0  2  0  0  0  0  0  0
  -26.0650  -29.2330   20.7580 C   0  0  0  0  0  0  0  0  0  0  0  0
  -27.2180  -28.3250   20.7560 C   0  0  0  0  0  3  0  0  0  0  0  0
  -25.9650  -26.6750   19.5560 C   0  0  0  0  0  3  0  0  0  0  0  0
  -24.8500  -27.5530   19.5260 C   0  0  0  0  0  3  0  0  0  0  0  0
  -23.6540  -29.7270   20.1840 C   0  0  0  0  0  2  0  0  0  0  0  0
  -24.6980  -30.9970   22.0980 N   0  0  0  0  0  0  0  0  0  0  0  0
  -23.5260  -32.1260   23.7010 O   0  0  0  0  0  0  0  0  0  0  0  0
  -22.7360  -29.4330   22.5290 C   0  0  0  0  0  0  0  0  0  0  0  0
  -21.4040  -29.2710   22.4160 N   0  0  0  0  0  0  0  0  0  0  0  0
  -23.4070  -28.8080   23.3540 O   0  0  0  0  0  0  0  0  0  0  0  0
  -20.9170  -29.8260   21.7270 H   0  0  0  0  0  0  0  0  0  0  0  0
  -18.0230  -28.0690   22.9520 C   0  0  0  0  0  0  0  0  0  0  0  0
  -20.5850  -28.3390   23.1970 C   0  0  0  0  0  3  0  0  0  0  0  0
  -20.6840  -26.9040   22.6300 C   0  0  0  0  0  2  0  0  0  0  0  0
  -19.5750  -26.5740   21.6240 C   0  0  0  0  0  2  0  0  0  0  0  0
  -18.1970  -26.7180   22.2770 C   0  0  0  0  0  2  0  0  0  0  0  0
  -19.1440  -28.8370   23.3690 C   0  0  0  0  0  0  0  0  0  0  0  0
  -18.9240  -30.0980   23.9630 C   0  0  0  0  0  3  0  0  0  0  0  0
  -17.6200  -30.5940   24.1420 C   0  0  0  0  0  3  0  0  0  0  0  0
  -16.5140  -29.8250   23.7380 C   0  0  0  0  0  3  0  0  0  0  0  0
  -16.7170  -28.5640   23.1490 C   0  0  0  0  0  3  0  0  0  0  0  0
  -25.8860  -32.4890   23.8060 C   0  0  0  0  0  3  0  0  0  0  0  0
  -26.4090  -31.7230   25.0840 C   0  0  1  0  0  0  0  0  0  0  0  0
  -25.3200  -31.4800   26.1550 C   0  0  0  0  0  1  0  0  0  0  0  0
  -27.0000  -30.3470   24.6990 C   0  0  0  0  0  1  0  0  0  0  0  0
  -27.5570  -32.5240   25.7410 C   0  0  0  0  0  1  0  0  0  0  0  0
  -25.5550  -33.8830   24.1530 N   0  0  0  0  0  0  0  0  0  0  0  0
  -25.8660  -34.9530   23.4100 C   0  0  0  0  0  0  0  0  0  0  0  0
  -26.5250  -34.8730   22.3700 O   0  0  0  0  0  0  0  0  0  0  0  0
  -24.9660  -34.0180   24.9610 H   0  0  0  0  0  0  0  0  0  0  0  0
  -24.1090  -36.7340   23.1180 C   0  0  0  0  0  1  0  0  0  0  0  0
  -25.3720  -36.3320   23.8960 C   0  0  0  0  0  3  0  0  0  0  0  0
  -27.5150  -37.2360   24.6870 C   0  0  0  0  0  1  0  0  0  0  0  0
  -26.3890  -37.4000   23.7720 N   0  0  0  0  0  0  0  0  0  0  0  0
  -25.9750  -38.3130   23.9390 H   0  0  0  0  0  0  0  0  0  0  0  0
  -28.7190  -22.6990   19.9240 C   0  0  0  0  0  2  0  0  0  0  0  0
  -28.9900  -21.2170   20.5850 O   0  0  0  0  0  0  0  0  0  0  0  0
  -29.0780  -19.6810   19.9990 C   0  0  0  0  0  2  0  0  0  0  0  0
  -29.8810  -18.1670   20.5600 C   0  0  0  0  0  2  0  0  0  0  0  0
  -30.3820  -15.2640   20.2540 C   0  0  0  0  0  0  0  0  0  0  0  0
  -30.3490  -12.8260   19.3660 C   0  0  0  0  0  2  0  0  0  0  0  0
  -29.4210  -12.6110   18.1440 C   0  0  0  0  0  2  0  0  0  0  0  0
  -27.9740  -12.3490   18.5940 C   0  0  0  0  0  2  0  0  0  0  0  0
  -27.5290  -13.3180   19.7180 C   0  0  0  0  0  3  0  0  0  0  0  0
  -28.5830  -13.4670   20.8330 C   0  0  0  0  0  2  0  0  0  0  0  0
  -29.8060  -13.9670   20.1860 N   0  0  0  0  0  0  0  0  0  0  0  0
  -31.6080  -15.2630   20.0800 O   0  0  0  0  0  0  0  0  0  0  0  0
  -29.6180  -16.5330   20.3180 N   0  0  0  0  0  0  0  0  0  0  0  0
  -28.6290  -16.3280   20.3210 H   0  0  0  0  0  0  0  0  0  0  0  0
  -25.1610  -13.8840   20.4750 C   0  0  0  0  0  0  0  0  0  0  0  0
  -24.0990  -13.1090   20.8510 C   0  0  0  0  0  0  0  0  0  0  0  0
  -24.5680  -11.7590   20.8280 C   0  0  0  0  0  0  0  0  0  0  0  0
  -26.2030  -13.0060   20.2350 N   0  0  0  0  0  0  0  0  0  0  0  0
  -25.8590  -11.7220   20.5170 N   0  0  0  0  0  0  0  0  0  0  0  0
  -23.8400  -10.4970   21.0260 C   0  0  0  0  0  0  0  0  0  0  0  0
  -24.2820   -9.5240   21.9500 C   0  0  0  0  0  3  0  0  0  0  0  0
  -23.5520   -8.3310   22.1370 C   0  0  0  0  0  3  0  0  0  0  0  0
  -22.3660   -8.1010   21.4000 C   0  0  0  0  0  0  0  0  0  0  0  0
  -21.9430   -9.0620   20.4650 C   0  0  0  0  0  3  0  0  0  0  0  0
  -22.6730  -10.2470   20.2760 C   0  0  0  0  0  3  0  0  0  0  0  0
  -21.6060   -6.9600   21.4960 O   0  0  0  0  0  0  0  0  0  0  0  0
  -21.5890   -6.2020   22.6400 C   0  0  0  0  0  0  0  0  0  0  0  0
  -21.2240   -6.7480   23.8900 C   0  0  0  0  0  3  0  0  0  0  0  0
  -21.1520   -5.9180   25.0260 C   0  0  0  0  0  3  0  0  0  0  0  0
  -21.4340   -4.5440   24.9150 C   0  0  0  0  0  0  0  0  0  0  0  0
  -21.7920   -3.9970   23.6700 C   0  0  0  0  0  3  0  0  0  0  0  0
  -21.8660   -4.8250   22.5350 C   0  0  0  0  0  0  0  0  0  0  0  0
  -22.1910   -4.2890   21.3340 F   0  0  0  0  0  0  0  0  0  0  0  0
  -21.3580   -3.7440   26.0040 F   0  0  0  0  0  0  0  0  0  0  0  0
  -22.7020  -13.5880   21.1150 C   0  0  0  0  0  0  0  0  0  0  0  0
  -21.9740  -12.9020   21.9880 N   0  0  0  0  0  0  0  0  0  0  0  0
  -22.2660  -14.6070   20.5800 O   0  0  0  0  0  0  0  0  0  0  0  0
  -22.3410  -12.0790   22.4420 H   0  0  0  0  0  0  0  0  0  0  0  0
  -21.0360  -13.2060   22.2080 H   0  0  0  0  0  0  0  0  0  0  0  0
  -25.3200  -15.2530   20.2870 N   0  0  0  0  0  0  0  0  0  0  0  0
  -24.5470  -15.9020   20.3920 H   0  0  0  0  0  0  0  0  0  0  0  0
  -26.1550  -15.6900   19.9190 H   0  0  0  0  0  0  0  0  0  0  0  0
  2  1  1  0
  3 14  2  0
  4  2  1  0
  4  9  1  0
  5 13  1  0
  5 15  1  0
  6 12  1  0
  6  8  1  0
  7 13  1  0
  8  7  1  0
  9  8  2  0
 10  4  2  0
 11 10  1  0
 11  6  2  0
 12  5  1  0
 13  3  1  0
 15 17  2  0
 16 15  1  0
 18 16  1  0
 19 28  2  0
 19 24  1  0
 20 16  1  0
 20 24  1  0
 21 20  1  0
 22 23  1  0
 22 21  1  0
 23 19  1  0
 24 25  2  0
 25 26  1  0
 27 26  2  0
 28 27  1  0
 29  3  1  0
 29 34  1  0
 29 30  1  0
 30 33  1  1
 30 31  1  0
 32 30  1  0
 34 37  1  0
 35 39  1  0
 35 34  1  0
 36 35  2  0
 39 38  1  0
 41 39  1  0
 41 42  1  0
 41 40  1  0
 43  1  1  0
 43 44  1  0
 45 46  1  0
 45 44  1  0
 47 55  1  0
 48 53  1  0
 49 50  1  0
 49 48  1  0
 51 50  1  0
 51 60  1  0
 51 52  1  0
 53 47  1  0
 53 52  1  0
 54 47  2  0
 55 56  1  0
 55 46  1  0
 57 58  2  0
 58 77  1  0
 59 58  1  0
 59 62  1  0
 60 57  1  0
 60 61  1  0
 61 59  2  0
 62 63  1  0
 63 64  2  0
 65 68  1  0
 65 64  1  0
 66 65  2  0
 67 66  1  0
 67 62  2  0
 68 69  1  0
 69 70  1  0
 70 71  2  0
 72 71  1  0
 72 76  1  0
 73 72  2  0
 74 69  2  0
 74 73  1  0
 75 74  1  0
 77 78  1  0
 78 81  1  0
 78 80  1  0
 79 77  2  0
 82 83  1  0
 82 57  1  0
 84 82  1  0
M  ISO  4   1 101   2 101  47 100  55 100
M  END
>  <TORSDO>  (56) 
F 20

>  <SCORE>  (56) 
-15.761

>  <name>  (56) 
55

>  <ligand_id>  (56) 
55

>  <original_smiles>  (56) 
[H]c1c([H])c([H])c2c(c1[H])C([H])([H])C([H])([H])C([H])([H])C2([H])N([H])C(=O)C1([H])N(C(=O)C([H])(N([H])C(=O)C([H])(N([H])C([H])([H])[H])C([H])([H])[H])C(C([H])([H])[H])(C([H])([H])[H])C([H])([H])[H])C([H])([H])c2c([H])c(OC([H])([H])C([H])([H])OC([H])([H])C([H])([H])N([H])C(=O)N3C([H])([H])C([H])([H])C([H])([H])C([H])(n4nc(-c5c([H])c([H])c(Oc6c([H])c([H])c(F)c([H])c6F)c([H])c5[H])c(C(=O)N([H])[H])c4N([H])[H])C3([H])[H])c([H])c([H])c2C1([H])[H]

>  <smiles>  (56) 
[H]c1c([H])c([H])c2c(c1[H])C([H])([H])C([H])([H])C([H])([H])C2([H])N([H])C(=O)C1([H])N(C(=O)C([H])(N([H])C(=O)C([H])(N([H])C([H])([H])[H])C([H])([H])[H])C(C([H])([H])[H])(C([H])([H])[H])C([H])([H])[H])C([H])([H])c2c([H])c(OC([H])([H])C([H])([H])OC([H])([H])C([H])([H])N([H])C(=O)N3C([H])([H])C([H])([H])C([H])([H])C([H])(n4nc(-c5c([H])c([H])c(Oc6c([H])c([H])c(F)c([H])c6F)c([H])c5[H])c(C(=O)N([H])[H])c4N([H])[H])C3([H])[H])c([H])c([H])c2C1([H])[H]

$$$$
56:0:0
     RDKit          3D

 85 92  0  0  1  0  0  0  0  0999 V2000
  -29.0000  -22.0620   20.2890 C   0  0  0  0  0  3  0  0  0  0  0  0
  -28.7590  -20.1900   20.2500 C   0  0  0  0  0  0  0  0  0  0  0  0
  -29.6510  -18.9050   20.2490 N   0  0  0  0  0  0  0  0  0  0  0  0
  -27.5610  -19.9050   20.2230 O   0  0  0  0  0  0  0  0  0  0  0  0
  -30.6500  -19.0780   20.2630 H   0  0  0  0  0  0  0  0  0  0  0  0
  -30.2500  -15.7430   20.1640 C   0  0  0  0  0  0  0  0  0  0  0  0
  -30.3780  -13.1990   19.3180 C   0  0  0  0  0  2  0  0  0  0  0  0
  -29.4700  -12.7880   18.1220 C   0  0  0  0  0  2  0  0  0  0  0  0
  -28.0570  -12.4150   18.6000 C   0  0  0  0  0  2  0  0  0  0  0  0
  -27.5560  -13.4010   19.6790 C   0  0  0  0  0  3  0  0  0  0  0  0
  -28.6030  -13.7150   20.7740 C   0  0  0  0  0  2  0  0  0  0  0  0
  -29.7530  -14.3640   20.0980 N   0  0  0  0  0  0  0  0  0  0  0  0
  -31.4820  -15.7080   19.9680 O   0  0  0  0  0  0  0  0  0  0  0  0
  -29.4390  -17.0800   20.2640 N   0  0  0  0  0  0  0  0  0  0  0  0
  -28.4450  -16.9270   20.3690 H   0  0  0  0  0  0  0  0  0  0  0  0
  -25.2030  -13.8970   20.4920 C   0  0  0  0  0  0  0  0  0  0  0  0
  -24.1590  -13.1010   20.8700 C   0  0  0  0  0  0  0  0  0  0  0  0
  -24.6460  -11.7580   20.8170 C   0  0  0  0  0  0  0  0  0  0  0  0
  -26.2530  -13.0410   20.2200 N   0  0  0  0  0  0  0  0  0  0  0  0
  -25.9330  -11.7450   20.4830 N   0  0  0  0  0  0  0  0  0  0  0  0
  -23.9350  -10.4850   21.0060 C   0  0  0  0  0  0  0  0  0  0  0  0
  -24.3740   -9.5230   21.9410 C   0  0  0  0  0  3  0  0  0  0  0  0
  -23.6590   -8.3200   22.1200 C   0  0  0  0  0  3  0  0  0  0  0  0
  -22.4890   -8.0690   21.3650 C   0  0  0  0  0  0  0  0  0  0  0  0
  -22.0690   -9.0200   20.4180 C   0  0  0  0  0  3  0  0  0  0  0  0
  -22.7840  -10.2140   20.2370 C   0  0  0  0  0  3  0  0  0  0  0  0
  -21.7460   -6.9170   21.4520 O   0  0  0  0  0  0  0  0  0  0  0  0
  -21.6800   -6.1890   22.6140 C   0  0  0  0  0  0  0  0  0  0  0  0
  -21.1940   -6.7470   23.8160 C   0  0  0  0  0  3  0  0  0  0  0  0
  -21.0780   -5.9450   24.9690 C   0  0  0  0  0  3  0  0  0  0  0  0
  -21.4380   -4.5850   24.9200 C   0  0  0  0  0  0  0  0  0  0  0  0
  -21.9170   -4.0260   23.7220 C   0  0  0  0  0  3  0  0  0  0  0  0
  -22.0340   -4.8260   22.5720 C   0  0  0  0  0  0  0  0  0  0  0  0
  -22.4760   -4.2760   21.4150 F   0  0  0  0  0  0  0  0  0  0  0  0
  -21.3200   -3.8120   26.0250 F   0  0  0  0  0  0  0  0  0  0  0  0
  -22.7600  -13.5590   21.1600 C   0  0  0  0  0  0  0  0  0  0  0  0
  -22.0560  -12.8550   22.0390 N   0  0  0  0  0  0  0  0  0  0  0  0
  -22.3040  -14.5790   20.6440 O   0  0  0  0  0  0  0  0  0  0  0  0
  -22.4400  -12.0320   22.4770 H   0  0  0  0  0  0  0  0  0  0  0  0
  -21.1180  -13.1460   22.2760 H   0  0  0  0  0  0  0  0  0  0  0  0
  -25.3400  -15.2710   20.3220 N   0  0  0  0  0  0  0  0  0  0  0  0
  -24.5610  -15.9080   20.4440 H   0  0  0  0  0  0  0  0  0  0  0  0
  -26.1610  -15.7220   19.9380 H   0  0  0  0  0  0  0  0  0  0  0  0
  -28.0000  -23.7560   20.2100 C   0  0  0  0  0  3  0  0  0  0  0  0
  -28.1690  -25.5270   20.3150 O   0  0  0  0  0  0  0  0  0  0  0  0
  -24.6990  -31.8860   23.2080 C   0  0  0  0  0  0  0  0  0  0  0  0
  -27.1980  -26.7510   20.2580 C   0  0  0  0  0  0  0  0  0  0  0  0
  -23.5030  -30.4820   21.5830 C   0  0  0  0  0  3  0  0  0  0  0  0
  -24.9400  -28.8100   20.1850 C   0  0  0  0  0  0  0  0  0  0  0  0
  -26.0830  -30.6030   21.4610 C   0  0  0  0  0  2  0  0  0  0  0  0
  -26.1390  -29.1620   20.8150 C   0  0  0  0  0  0  0  0  0  0  0  0
  -27.2500  -28.1620   20.8170 C   0  0  0  0  0  3  0  0  0  0  0  0
  -25.9630  -26.6140   19.5710 C   0  0  0  0  0  3  0  0  0  0  0  0
  -24.8920  -27.5620   19.5390 C   0  0  0  0  0  3  0  0  0  0  0  0
  -23.7390  -29.7710   20.2190 C   0  0  0  0  0  2  0  0  0  0  0  0
  -24.7860  -31.0240   22.1360 N   0  0  0  0  0  0  0  0  0  0  0  0
  -23.6070  -32.1970   23.7160 O   0  0  0  0  0  0  0  0  0  0  0  0
  -22.7790  -29.5190   22.5630 C   0  0  0  0  0  0  0  0  0  0  0  0
  -21.4450  -29.3700   22.4370 N   0  0  0  0  0  0  0  0  0  0  0  0
  -23.4300  -28.9010   23.4090 O   0  0  0  0  0  0  0  0  0  0  0  0
  -20.9700  -29.9180   21.7350 H   0  0  0  0  0  0  0  0  0  0  0  0
  -18.0530  -28.1730   22.9550 C   0  0  0  0  0  0  0  0  0  0  0  0
  -20.6140  -28.4450   23.2180 C   0  0  0  0  0  3  0  0  0  0  0  0
  -20.7130  -27.0050   22.6620 C   0  0  0  0  0  2  0  0  0  0  0  0
  -19.6140  -26.6720   21.6480 C   0  0  0  0  0  2  0  0  0  0  0  0
  -18.2310  -26.8200   22.2880 C   0  0  0  0  0  2  0  0  0  0  0  0
  -19.1700  -28.9440   23.3770 C   0  0  0  0  0  0  0  0  0  0  0  0
  -18.9450  -30.2060   23.9670 C   0  0  0  0  0  3  0  0  0  0  0  0
  -17.6380  -30.7000   24.1350 C   0  0  0  0  0  3  0  0  0  0  0  0
  -16.5360  -29.9300   23.7250 C   0  0  0  0  0  3  0  0  0  0  0  0
  -16.7440  -28.6680   23.1420 C   0  0  0  0  0  3  0  0  0  0  0  0
  -25.9640  -32.5360   23.8450 C   0  0  0  0  0  3  0  0  0  0  0  0
  -25.6420  -33.9340   24.1910 N   0  0  0  0  0  0  0  0  0  0  0  0
  -25.9450  -35.0050   23.4450 C   0  0  0  0  0  0  0  0  0  0  0  0
  -26.5820  -34.9200   22.3920 O   0  0  0  0  0  0  0  0  0  0  0  0
  -25.0680  -34.0730   25.0110 H   0  0  0  0  0  0  0  0  0  0  0  0
  -24.1860  -36.7950   23.2000 C   0  0  0  0  0  1  0  0  0  0  0  0
  -25.4710  -36.3890   23.9410 C   0  0  0  0  0  3  0  0  0  0  0  0
  -27.6330  -37.2990   24.6730 C   0  0  0  0  0  1  0  0  0  0  0  0
  -26.4860  -37.4550   23.7820 N   0  0  0  0  0  0  0  0  0  0  0  0
  -26.0760  -38.3700   23.9480 H   0  0  0  0  0  0  0  0  0  0  0  0
  -26.4690  -31.7720   25.1330 C   0  0  1  0  0  0  0  0  0  0  0  0
  -25.3760  -31.5730   26.2100 C   0  0  0  0  0  1  0  0  0  0  0  0
  -27.0210  -30.3750   24.7700 C   0  0  0  0  0  1  0  0  0  0  0  0
  -27.6390  -32.5500   25.7780 C   0  0  0  0  0  1  0  0  0  0  0  0
  2  1  1  0
  3  2  1  0
  3  5  1  0
  3 14  1  0
  4  2  2  0
  6 14  1  0
  7 12  1  0
  8  9  1  0
  8  7  1  0
 10  9  1  0
 10 19  1  0
 10 11  1  0
 12  6  1  0
 12 11  1  0
 13  6  2  0
 14 15  1  0
 16 17  2  0
 17 36  1  0
 18 17  1  0
 18 21  1  0
 19 20  1  0
 19 16  1  0
 20 18  2  0
 21 22  1  0
 22 23  2  0
 24 27  1  0
 24 23  1  0
 25 24  2  0
 26 25  1  0
 26 21  2  0
 27 28  1  0
 28 29  1  0
 29 30  2  0
 31 30  1  0
 31 35  1  0
 32 31  2  0
 33 28  2  0
 33 32  1  0
 34 33  1  0
 36 37  1  0
 37 40  1  0
 37 39  1  0
 38 36  2  0
 41 42  1  0
 41 16  1  0
 43 41  1  0
 44  1  2  0
 44 45  1  0
 46 57  2  0
 47 45  1  0
 47 52  1  0
 48 56  1  0
 48 58  1  0
 49 55  1  0
 49 51  1  0
 50 56  1  0
 51 52  2  0
 51 50  1  0
 53 47  2  0
 54 53  1  0
 54 49  2  0
 55 48  1  0
 56 46  1  0
 58 60  2  0
 59 58  1  0
 61 59  1  0
 62 71  2  0
 62 67  1  0
 63 59  1  0
 63 67  1  0
 64 63  1  0
 65 66  1  0
 65 64  1  0
 66 62  1  0
 67 68  2  0
 68 69  1  0
 70 69  2  0
 71 70  1  0
 72 46  1  0
 72 73  1  0
 72 82  1  0
 73 76  1  0
 74 78  1  0
 74 73  1  0
 75 74  2  0
 78 77  1  0
 80 78  1  0
 80 81  1  0
 80 79  1  0
 82 85  1  1
 82 83  1  0
 84 82  1  0
M  ISO  4   6 100  14 100  44 101  45 101
M  END
>  <TORSDO>  (57) 
F 18

>  <SCORE>  (57) 
-16.222

>  <name>  (57) 
56

>  <ligand_id>  (57) 
56

>  <original_smiles>  (57) 
[H]c1c([H])c([H])c2c(c1[H])C([H])([H])C([H])([H])C([H])([H])C2([H])N([H])C(=O)C1([H])N(C(=O)C([H])(N([H])C(=O)C([H])(N([H])C([H])([H])[H])C([H])([H])[H])C(C([H])([H])[H])(C([H])([H])[H])C([H])([H])[H])C([H])([H])c2c([H])c(OC([H])([H])C([H])([H])C(=O)N([H])N([H])C(=O)N3C([H])([H])C([H])([H])C([H])([H])C([H])(n4nc(-c5c([H])c([H])c(Oc6c([H])c([H])c(F)c([H])c6F)c([H])c5[H])c(C(=O)N([H])[H])c4N([H])[H])C3([H])[H])c([H])c([H])c2C1([H])[H]

>  <smiles>  (57) 
[H]c1c([H])c([H])c2c(c1[H])C([H])([H])C([H])([H])C([H])([H])C2([H])N([H])C(=O)C1([H])N(C(=O)C([H])(N([H])C(=O)C([H])(N([H])C([H])([H])[H])C([H])([H])[H])C(C([H])([H])[H])(C([H])([H])[H])C([H])([H])[H])C([H])([H])c2c([H])c(OC([H])([H])C([H])([H])C(=O)N([H])N([H])C(=O)N3C([H])([H])C([H])([H])C([H])([H])C([H])(n4nc(-c5c([H])c([H])c(Oc6c([H])c([H])c(F)c([H])c6F)c([H])c5[H])c(C(=O)N([H])[H])c4N([H])[H])C3([H])[H])c([H])c([H])c2C1([H])[H]

$$$$
