0:0:0
     RDKit          3D

 87 94  0  0  1  0  0  0  0  0999 V2000
  -29.1130  -22.7980   20.1480 O   0  0  0  0  0  0  0  0  0  0  0  0
  -29.2650  -24.1800   20.5710 C   0  0  0  0  0  2  0  0  0  0  0  0
  -28.1950  -25.1410   19.9510 C   0  0  0  0  0  2  0  0  0  0  0  0
  -28.3440  -26.5690   20.2300 O   0  0  0  0  0  0  0  0  0  0  0  0
  -24.6030  -31.8820   23.2540 C   0  0  0  0  0  0  0  0  0  0  0  0
  -27.2030  -27.3700   20.1730 C   0  0  0  0  0  0  0  0  0  0  0  0
  -23.3880  -30.4910   21.6140 C   0  0  0  0  0  3  0  0  0  0  0  0
  -24.8290  -28.9470   20.1790 C   0  0  0  0  0  0  0  0  0  0  0  0
  -25.9230  -30.8160   21.4190 C   0  0  0  0  0  2  0  0  0  0  0  0
  -25.9960  -29.4430   20.7740 C   0  0  0  0  0  0  0  0  0  0  0  0
  -27.1840  -28.6630   20.7670 C   0  0  0  0  0  3  0  0  0  0  0  0
  -26.0140  -26.9200   19.5460 C   0  0  0  0  0  3  0  0  0  0  0  0
  -24.8370  -27.6890   19.5590 C   0  0  0  0  0  3  0  0  0  0  0  0
  -23.5920  -29.8180   20.2320 C   0  0  0  0  0  2  0  0  0  0  0  0
  -24.6560  -31.0790   22.1530 N   0  0  0  0  0  0  0  0  0  0  0  0
  -23.5240  -32.1610   23.7950 O   0  0  0  0  0  0  0  0  0  0  0  0
  -22.7290  -29.4710   22.5730 C   0  0  0  0  0  0  0  0  0  0  0  0
  -21.4040  -29.2960   22.4460 N   0  0  0  0  0  0  0  0  0  0  0  0
  -23.4090  -28.8420   23.3890 O   0  0  0  0  0  0  0  0  0  0  0  0
  -20.9160  -29.8550   21.7610 H   0  0  0  0  0  0  0  0  0  0  0  0
  -18.0240  -28.1080   22.9390 C   0  0  0  0  0  0  0  0  0  0  0  0
  -20.5820  -28.3620   23.2170 C   0  0  0  0  0  3  0  0  0  0  0  0
  -20.6820  -26.9290   22.6440 C   0  0  0  0  0  2  0  0  0  0  0  0
  -19.5830  -26.6070   21.6270 C   0  0  0  0  0  2  0  0  0  0  0  0
  -18.2000  -26.7570   22.2670 C   0  0  0  0  0  2  0  0  0  0  0  0
  -19.1430  -28.8680   23.3700 C   0  0  0  0  0  0  0  0  0  0  0  0
  -18.9250  -30.1340   23.9590 C   0  0  0  0  0  3  0  0  0  0  0  0
  -17.6220  -30.6390   24.1180 C   0  0  0  0  0  3  0  0  0  0  0  0
  -16.5170  -29.8760   23.7040 C   0  0  0  0  0  3  0  0  0  0  0  0
  -16.7190  -28.6120   23.1200 C   0  0  0  0  0  3  0  0  0  0  0  0
  -25.8930  -32.5060   23.8720 C   0  0  0  0  0  3  0  0  0  0  0  0
  -26.4080  -31.7310   25.1470 C   0  0  1  0  0  0  0  0  0  0  0  0
  -25.3180  -31.5010   26.2190 C   0  0  0  0  0  1  0  0  0  0  0  0
  -26.9820  -30.3500   24.7520 C   0  0  0  0  0  1  0  0  0  0  0  0
  -27.5640  -32.5190   25.8080 C   0  0  0  0  0  1  0  0  0  0  0  0
  -25.5920  -33.9060   24.2030 N   0  0  0  0  0  0  0  0  0  0  0  0
  -25.9250  -34.9570   23.4410 C   0  0  0  0  0  0  0  0  0  0  0  0
  -26.5890  -34.8480   22.4060 O   0  0  0  0  0  0  0  0  0  0  0  0
  -25.0030  -34.0650   25.0080 H   0  0  0  0  0  0  0  0  0  0  0  0
  -24.2020  -36.7560   23.0930 C   0  0  0  0  0  1  0  0  0  0  0  0
  -25.4460  -36.3470   23.8980 C   0  0  0  0  0  3  0  0  0  0  0  0
  -27.5900  -37.2240   24.7140 C   0  0  0  0  0  1  0  0  0  0  0  0
  -26.4820  -37.3950   23.7780 N   0  0  0  0  0  0  0  0  0  0  0  0
  -26.0800  -38.3170   23.9270 H   0  0  0  0  0  0  0  0  0  0  0  0
  -29.8660  -21.8260   20.9130 C   0  0  0  0  0  2  0  0  0  0  0  0
  -29.9940  -20.3890   20.2800 C   0  0  0  0  0  2  0  0  0  0  0  0
  -29.6060  -19.3250   21.1790 O   0  0  0  0  0  0  0  0  0  0  0  0
  -30.3560  -18.0820   21.1900 C   0  0  0  0  0  2  0  0  0  0  0  0
  -29.9920  -17.0260   20.1000 C   0  0  0  0  0  2  0  0  0  0  0  0
  -30.6580  -14.5630   20.1340 C   0  0  0  0  0  0  0  0  0  0  0  0
  -30.3320  -12.3860   19.0110 C   0  0  0  0  0  2  0  0  0  0  0  0
  -29.3420  -12.5990   17.8440 C   0  0  0  0  0  2  0  0  0  0  0  0
  -27.8850  -12.4670   18.3310 C   0  0  0  0  0  2  0  0  0  0  0  0
  -27.6040  -13.2910   19.6150 C   0  0  0  0  0  3  0  0  0  0  0  0
  -28.7030  -13.0590   20.6790 C   0  0  0  0  0  2  0  0  0  0  0  0
  -30.0040  -13.3660   20.0610 N   0  0  0  0  0  0  0  0  0  0  0  0
  -31.7760  -14.7380   19.6440 O   0  0  0  0  0  0  0  0  0  0  0  0
  -29.9110  -15.6090   20.5580 N   0  0  0  0  0  0  0  0  0  0  0  0
  -29.0360  -15.3490   20.9880 H   0  0  0  0  0  0  0  0  0  0  0  0
  -25.2410  -13.9170   20.4180 C   0  0  0  0  0  0  0  0  0  0  0  0
  -24.1800  -13.1550   20.8240 C   0  0  0  0  0  0  0  0  0  0  0  0
  -24.6260  -11.7980   20.7700 C   0  0  0  0  0  0  0  0  0  0  0  0
  -26.2680  -13.0270   20.1440 N   0  0  0  0  0  0  0  0  0  0  0  0
  -25.9040  -11.7470   20.4140 N   0  0  0  0  0  0  0  0  0  0  0  0
  -23.8950  -10.5420   20.9820 C   0  0  0  0  0  0  0  0  0  0  0  0
  -24.3570   -9.5630   21.8880 C   0  0  0  0  0  3  0  0  0  0  0  0
  -23.6260   -8.3710   22.0880 C   0  0  0  0  0  3  0  0  0  0  0  0
  -22.4190   -8.1520   21.3830 C   0  0  0  0  0  0  0  0  0  0  0  0
  -21.9750   -9.1210   20.4660 C   0  0  0  0  0  3  0  0  0  0  0  0
  -22.7060  -10.3040   20.2640 C   0  0  0  0  0  3  0  0  0  0  0  0
  -21.6570   -7.0150   21.4950 O   0  0  0  0  0  0  0  0  0  0  0  0
  -21.6560   -6.2580   22.6390 C   0  0  0  0  0  0  0  0  0  0  0  0
  -21.3040   -6.8040   23.8930 C   0  0  0  0  0  3  0  0  0  0  0  0
  -21.2500   -5.9740   25.0310 C   0  0  0  0  0  3  0  0  0  0  0  0
  -21.5350   -4.6010   24.9170 C   0  0  0  0  0  0  0  0  0  0  0  0
  -21.8800   -4.0550   23.6680 C   0  0  0  0  0  3  0  0  0  0  0  0
  -21.9370   -4.8820   22.5310 C   0  0  0  0  0  0  0  0  0  0  0  0
  -22.2490   -4.3460   21.3260 F   0  0  0  0  0  0  0  0  0  0  0  0
  -21.4760   -3.8020   26.0080 F   0  0  0  0  0  0  0  0  0  0  0  0
  -22.7990  -13.6450   21.1510 C   0  0  0  0  0  0  0  0  0  0  0  0
  -22.0980  -12.9520   22.0420 N   0  0  0  0  0  0  0  0  0  0  0  0
  -22.3520  -14.6760   20.6520 O   0  0  0  0  0  0  0  0  0  0  0  0
  -22.4730  -12.1180   22.4680 H   0  0  0  0  0  0  0  0  0  0  0  0
  -21.1730  -13.2630   22.3040 H   0  0  0  0  0  0  0  0  0  0  0  0
  -25.4140  -15.2870   20.2390 N   0  0  0  0  0  0  0  0  0  0  0  0
  -24.6560  -15.9470   20.3780 H   0  0  0  0  0  0  0  0  0  0  0  0
  -26.2510  -15.7180   19.8670 H   0  0  0  0  0  0  0  0  0  0  0  0
  1  2  1  0
  1 45  1  0
  3  4  1  0
  3  2  1  0
  5 16  2  0
  6  4  1  0
  6 11  1  0
  7 15  1  0
  7 17  1  0
  8 14  1  0
  8 10  1  0
  9 15  1  0
 10  9  1  0
 11 10  2  0
 12 13  1  0
 12  6  2  0
 13  8  2  0
 14  7  1  0
 15  5  1  0
 17 19  2  0
 18 17  1  0
 20 18  1  0
 21 30  2  0
 21 26  1  0
 22 18  1  0
 22 26  1  0
 23 22  1  0
 24 25  1  0
 24 23  1  0
 25 21  1  0
 26 27  2  0
 27 28  1  0
 29 28  2  0
 30 29  1  0
 31  5  1  0
 31 36  1  0
 31 32  1  0
 32 35  1  1
 32 33  1  0
 34 32  1  0
 36 39  1  0
 37 41  1  0
 37 36  1  0
 38 37  2  0
 41 40  1  0
 43 41  1  0
 43 44  1  0
 43 42  1  0
 46 45  1  0
 46 47  1  0
 47 48  1  0
 49 58  1  0
 49 48  1  0
 50 58  1  0
 51 56  1  0
 52 53  1  0
 52 51  1  0
 54 53  1  0
 54 63  1  0
 54 55  1  0
 56 50  1  0
 56 55  1  0
 57 50  2  0
 58 59  1  0
 60 61  2  0
 61 80  1  0
 62 61  1  0
 62 65  1  0
 63 64  1  0
 63 60  1  0
 64 62  2  0
 65 66  1  0
 66 67  2  0
 68 71  1  0
 68 67  1  0
 69 68  2  0
 70 69  1  0
 70 65  2  0
 71 72  1  0
 72 73  1  0
 73 74  2  0
 75 74  1  0
 75 79  1  0
 76 75  2  0
 77 72  2  0
 77 76  1  0
 78 77  1  0
 80 81  1  0
 81 84  1  0
 81 83  1  0
 82 80  2  0
 85 86  1  0
 85 60  1  0
 87 85  1  0
M  ISO  4   3 101   4 101  50 100  58 100
M  END
>  <TORSDO>  (1) 
F 23

>  <SCORE>  (1) 
-12.462

>  <name>  (1) 
0

>  <ligand_id>  (1) 
0

>  <original_smiles>  (1) 
[H]c1c([H])c([H])c2c(c1[H])C([H])([H])C([H])([H])C([H])([H])C2([H])N([H])C(=O)C1([H])N(C(=O)C([H])(N([H])C(=O)C([H])(N([H])C([H])([H])[H])C([H])([H])[H])C(C([H])([H])[H])(C([H])([H])[H])C([H])([H])[H])C([H])([H])c2c([H])c(OC([H])([H])C([H])([H])OC([H])([H])C([H])([H])OC([H])([H])C([H])([H])N([H])C(=O)N3C([H])([H])C([H])([H])C([H])([H])C([H])(n4nc(-c5c([H])c([H])c(Oc6c([H])c([H])c(F)c([H])c6F)c([H])c5[H])c(C(=O)N([H])[H])c4N([H])[H])C3([H])[H])c([H])c([H])c2C1([H])[H]

>  <smiles>  (1) 
[H]c1c([H])c([H])c2c(c1[H])C([H])([H])C([H])([H])C([H])([H])C2([H])N([H])C(=O)C1([H])N(C(=O)C([H])(N([H])C(=O)C([H])(N([H])C([H])([H])[H])C([H])([H])[H])C(C([H])([H])[H])(C([H])([H])[H])C([H])([H])[H])C([H])([H])c2c([H])c(OC([H])([H])C([H])([H])OC([H])([H])C([H])([H])OC([H])([H])C([H])([H])N([H])C(=O)N3C([H])([H])C([H])([H])C([H])([H])C([H])(n4nc(-c5c([H])c([H])c(Oc6c([H])c([H])c(F)c([H])c6F)c([H])c5[H])c(C(=O)N([H])[H])c4N([H])[H])C3([H])[H])c([H])c([H])c2C1([H])[H]

$$$$
1:0:0
     RDKit          3D

 90 98  0  0  1  0  0  0  0  0999 V2000
  -30.3930  -19.1190   18.9810 C   0  0  0  0  0  3  0  0  0  0  0  0
  -30.6940  -17.7380   19.1880 C   0  0  0  0  0  3  0  0  0  0  0  0
  -28.4250  -18.9300   20.3490 C   0  0  0  0  0  3  0  0  0  0  0  0
  -29.2430  -19.7510   19.5350 C   0  0  0  0  0  0  0  0  0  0  0  0
  -29.8750  -16.9180   20.0090 C   0  0  0  0  0  0  0  0  0  0  0  0
  -28.7340  -17.5520   20.5860 C   0  0  0  0  0  0  0  0  0  0  0  0
  -27.6440  -16.6220   21.5560 Cl  0  0  0  0  0  0  0  0  0  0  0  0
  -30.7590  -14.5250   19.5260 C   0  0  0  0  0  0  0  0  0  0  0  0
  -30.4540  -12.3280   18.4000 C   0  0  0  0  0  2  0  0  0  0  0  0
  -29.3530  -12.4750   17.3260 C   0  0  0  0  0  2  0  0  0  0  0  0
  -27.9490  -12.2890   17.9350 C   0  0  0  0  0  2  0  0  0  0  0  0
  -27.7540  -13.1180   19.2330 C   0  0  0  0  0  3  0  0  0  0  0  0
  -28.9380  -12.9120   20.2020 C   0  0  0  0  0  2  0  0  0  0  0  0
  -30.1700  -13.2890   19.4870 N   0  0  0  0  0  0  0  0  0  0  0  0
  -31.8020  -14.7570   18.8970 O   0  0  0  0  0  0  0  0  0  0  0  0
  -30.0890  -15.4850   20.2330 N   0  0  0  0  0  0  0  0  0  0  0  0
  -29.4650  -15.1020   20.9280 H   0  0  0  0  0  0  0  0  0  0  0  0
  -25.4730  -13.7080   20.2560 C   0  0  0  0  0  0  0  0  0  0  0  0
  -24.4610  -12.9290   20.7490 C   0  0  0  0  0  0  0  0  0  0  0  0
  -24.9090  -11.5790   20.6250 C   0  0  0  0  0  0  0  0  0  0  0  0
  -26.4750  -12.8310   19.8720 N   0  0  0  0  0  0  0  0  0  0  0  0
  -26.1460  -11.5420   20.1460 N   0  0  0  0  0  0  0  0  0  0  0  0
  -24.2080  -10.3130   20.8760 C   0  0  0  0  0  0  0  0  0  0  0  0
  -24.6600   -9.4080   21.8620 C   0  0  0  0  0  3  0  0  0  0  0  0
  -23.9630   -8.2030   22.0980 C   0  0  0  0  0  3  0  0  0  0  0  0
  -22.8000   -7.8980   21.3510 C   0  0  0  0  0  0  0  0  0  0  0  0
  -22.3690   -8.7920   20.3550 C   0  0  0  0  0  3  0  0  0  0  0  0
  -23.0650   -9.9890   20.1180 C   0  0  0  0  0  3  0  0  0  0  0  0
  -22.0720   -6.7420   21.4920 O   0  0  0  0  0  0  0  0  0  0  0  0
  -21.8890   -6.1540   22.7190 C   0  0  0  0  0  0  0  0  0  0  0  0
  -21.2660   -6.8340   23.7880 C   0  0  0  0  0  3  0  0  0  0  0  0
  -21.0390   -6.1670   25.0090 C   0  0  0  0  0  3  0  0  0  0  0  0
  -21.4190   -4.8190   25.1570 C   0  0  0  0  0  0  0  0  0  0  0  0
  -22.0340   -4.1400   24.0910 C   0  0  0  0  0  3  0  0  0  0  0  0
  -22.2640   -4.8050   22.8740 C   0  0  0  0  0  0  0  0  0  0  0  0
  -22.8360   -4.1370   21.8420 F   0  0  0  0  0  0  0  0  0  0  0  0
  -21.1960   -4.1770   26.3270 F   0  0  0  0  0  0  0  0  0  0  0  0
  -23.1150  -13.4020   21.2190 C   0  0  0  0  0  0  0  0  0  0  0  0
  -22.5120  -12.6900   22.1680 N   0  0  0  0  0  0  0  0  0  0  0  0
  -22.6100  -14.4350   20.7820 O   0  0  0  0  0  0  0  0  0  0  0  0
  -22.9370  -11.8550   22.5420 H   0  0  0  0  0  0  0  0  0  0  0  0
  -21.6150  -12.9870   22.5240 H   0  0  0  0  0  0  0  0  0  0  0  0
  -25.6200  -15.0820   20.0850 N   0  0  0  0  0  0  0  0  0  0  0  0
  -24.8800  -15.7380   20.3070 H   0  0  0  0  0  0  0  0  0  0  0  0
  -26.4280  -15.5270   19.6680 H   0  0  0  0  0  0  0  0  0  0  0  0
  -28.8360  -21.2020   19.0760 C   0  0  0  0  0  2  0  0  0  0  0  0
  -28.4820  -22.2510   20.0470 O   0  0  0  0  0  0  0  0  0  0  0  0
  -28.7120  -23.6390   19.5850 C   0  0  0  0  0  3  0  0  0  0  0  0
  -27.8380  -24.8470   20.1350 C   0  0  0  0  0  3  0  0  0  0  0  0
  -28.1850  -26.2360   19.7120 O   0  0  0  0  0  0  0  0  0  0  0  0
  -24.6230  -31.6050   22.9320 C   0  0  0  0  0  0  0  0  0  0  0  0
  -27.1250  -27.1480   19.6790 C   0  0  0  0  0  0  0  0  0  0  0  0
  -23.3840  -30.2840   21.2580 C   0  0  0  0  0  3  0  0  0  0  0  0
  -24.8020  -28.8060   19.7310 C   0  0  0  0  0  0  0  0  0  0  0  0
  -25.9270  -30.5950   21.0480 C   0  0  0  0  0  2  0  0  0  0  0  0
  -25.9830  -29.2470   20.3440 C   0  0  0  0  0  0  0  0  0  0  0  0
  -27.1520  -28.4290   20.3060 C   0  0  0  0  0  3  0  0  0  0  0  0
  -25.9390  -26.7800   19.0060 C   0  0  0  0  0  3  0  0  0  0  0  0
  -24.7900  -27.5850   19.0430 C   0  0  0  0  0  3  0  0  0  0  0  0
  -23.5700  -29.6790   19.8440 C   0  0  0  0  0  2  0  0  0  0  0  0
  -24.6660  -30.8410   21.8030 N   0  0  0  0  0  0  0  0  0  0  0  0
  -23.5490  -31.8670   23.4940 O   0  0  0  0  0  0  0  0  0  0  0  0
  -22.7410  -29.2230   22.1810 C   0  0  0  0  0  0  0  0  0  0  0  0
  -21.4050  -29.0850   22.1100 N   0  0  0  0  0  0  0  0  0  0  0  0
  -23.4390  -28.5300   22.9280 O   0  0  0  0  0  0  0  0  0  0  0  0
  -20.9010  -29.6900   21.4750 H   0  0  0  0  0  0  0  0  0  0  0  0
  -18.0120  -28.0060   22.7520 C   0  0  0  0  0  0  0  0  0  0  0  0
  -20.5940  -28.1270   22.8660 C   0  0  0  0  0  3  0  0  0  0  0  0
  -20.5880  -26.7370   22.1850 C   0  0  0  0  0  2  0  0  0  0  0  0
  -19.4080  -26.5420   21.2300 C   0  0  0  0  0  2  0  0  0  0  0  0
  -18.0790  -26.7030   21.9740 C   0  0  0  0  0  2  0  0  0  0  0  0
  -19.1940  -28.6810   23.1630 C   0  0  0  0  0  0  0  0  0  0  0  0
  -19.0730  -29.9040   23.8540 C   0  0  0  0  0  3  0  0  0  0  0  0
  -17.8080  -30.4480   24.1430 C   0  0  0  0  0  3  0  0  0  0  0  0
  -16.6440  -29.7630   23.7550 C   0  0  0  0  0  3  0  0  0  0  0  0
  -16.7480  -28.5470   23.0590 C   0  0  0  0  0  3  0  0  0  0  0  0
  -25.9160  -32.2130   23.5520 C   0  0  0  0  0  3  0  0  0  0  0  0
  -26.4770  -31.3700   24.7630 C   0  0  1  0  0  0  0  0  0  0  0  0
  -25.4150  -31.0490   25.8400 C   0  0  0  0  0  1  0  0  0  0  0  0
  -27.0680  -30.0310   24.2640 C   0  0  0  0  0  1  0  0  0  0  0  0
  -27.6320  -32.1370   25.4450 C   0  0  0  0  0  1  0  0  0  0  0  0
  -25.6040  -33.5840   23.9830 N   0  0  0  0  0  0  0  0  0  0  0  0
  -25.8900  -34.6870   23.2810 C   0  0  0  0  0  0  0  0  0  0  0  0
  -26.5180  -34.6580   22.2210 O   0  0  0  0  0  0  0  0  0  0  0  0
  -25.0530  -33.6800   24.8240 H   0  0  0  0  0  0  0  0  0  0  0  0
  -24.1210  -36.4620   23.1210 C   0  0  0  0  0  1  0  0  0  0  0  0
  -25.4050  -36.0350   23.8460 C   0  0  0  0  0  3  0  0  0  0  0  0
  -27.5610  -36.9140   24.6250 C   0  0  0  0  0  1  0  0  0  0  0  0
  -26.4160  -37.1100   23.7420 N   0  0  0  0  0  0  0  0  0  0  0  0
  -26.0040  -38.0150   23.9550 H   0  0  0  0  0  0  0  0  0  0  0  0
  1  2  2  0
  1  4  1  0
  2  5  1  0
  3  6  1  0
  4  3  2  0
  5 16  1  0
  5  6  2  0
  6  7  1  0
  8 16  1  0
  9 14  1  0
 10 11  1  0
 10  9  1  0
 12 11  1  0
 12 21  1  0
 12 13  1  0
 14  8  1  0
 14 13  1  0
 15  8  2  0
 16 17  1  0
 18 19  2  0
 19 38  1  0
 20 19  1  0
 20 23  1  0
 21 22  1  0
 21 18  1  0
 22 20  2  0
 23 24  1  0
 24 25  2  0
 26 29  1  0
 26 25  1  0
 27 26  2  0
 28 27  1  0
 28 23  2  0
 29 30  1  0
 30 35  2  0
 30 31  1  0
 31 32  2  0
 32 33  1  0
 33 37  1  0
 34 33  2  0
 35 34  1  0
 36 35  1  0
 38 39  1  0
 39 42  1  0
 39 41  1  0
 40 38  2  0
 43 18  1  0
 43 44  1  0
 45 43  1  0
 46  4  1  0
 46 47  1  0
 48 47  1  0
 48 49  2  0
 50 49  1  0
 51 62  2  0
 52 50  1  0
 52 57  1  0
 53 61  1  0
 53 63  1  0
 54 60  1  0
 54 56  1  0
 55 61  1  0
 56 55  1  0
 57 56  2  0
 58 59  1  0
 58 52  2  0
 59 54  2  0
 60 53  1  0
 61 51  1  0
 63 65  2  0
 64 63  1  0
 66 64  1  0
 67 76  2  0
 67 72  1  0
 68 64  1  0
 68 72  1  0
 69 68  1  0
 70 71  1  0
 70 69  1  0
 71 67  1  0
 72 73  2  0
 73 74  1  0
 75 74  2  0
 76 75  1  0
 77 51  1  0
 77 82  1  0
 77 78  1  0
 78 81  1  1
 78 79  1  0
 80 78  1  0
 82 85  1  0
 83 87  1  0
 83 82  1  0
 84 83  2  0
 87 86  1  0
 89 87  1  0
 89 90  1  0
 89 88  1  0
M  ISO  4   8 100  16 100  49 101  50 101
M  END
>  <TORSDO>  (2) 
F 20

>  <SCORE>  (2) 
-10.623

>  <name>  (2) 
1

>  <ligand_id>  (2) 
1

>  <original_smiles>  (2) 
[H]c1c([H])c([H])c2c(c1[H])C([H])([H])C([H])([H])C([H])([H])C2([H])N([H])C(=O)C1([H])N(C(=O)C([H])(N([H])C(=O)C([H])(N([H])C([H])([H])[H])C([H])([H])[H])C(C([H])([H])[H])(C([H])([H])[H])C([H])([H])[H])C([H])([H])c2c([H])c(OC([H])([H])C([H])([H])OC([H])([H])c3c([H])c([H])c(N([H])C(=O)N4C([H])([H])C([H])([H])C([H])([H])C([H])(n5nc(-c6c([H])c([H])c(Oc7c([H])c([H])c(F)c([H])c7F)c([H])c6[H])c(C(=O)N([H])[H])c5N([H])[H])C4([H])[H])c(Cl)c3[H])c([H])c([H])c2C1([H])[H]

>  <smiles>  (2) 
[H]c1c([H])c([H])c2c(c1[H])C([H])([H])C([H])([H])C([H])([H])C2([H])N([H])C(=O)C1([H])N(C(=O)C([H])(N([H])C(=O)C([H])(N([H])C([H])([H])[H])C([H])([H])[H])C(C([H])([H])[H])(C([H])([H])[H])C([H])([H])[H])C([H])([H])c2c([H])c(OC([H])([H])C([H])([H])OC([H])([H])c3c([H])c([H])c(N([H])C(=O)N4C([H])([H])C([H])([H])C([H])([H])C([H])(n5nc(-c6c([H])c([H])c(Oc7c([H])c([H])c(F)c([H])c7F)c([H])c6[H])c(C(=O)N([H])[H])c5N([H])[H])C4([H])[H])c(Cl)c3[H])c([H])c([H])c2C1([H])[H]

$$$$
2:0:0
     RDKit          3D

105114  0  0  1  0  0  0  0  0999 V2000
  -25.2290  -18.8510   18.9110 C   0  0  0  0  0  3  0  0  0  0  0  0
  -27.4420  -17.9110   19.3160 C   0  0  0  0  0  3  0  0  0  0  0  0
  -25.8140  -19.8440   18.0980 C   0  0  0  0  0  3  0  0  0  0  0  0
  -28.0070  -18.8560   18.4510 C   0  0  0  0  0  3  0  0  0  0  0  0
  -26.0460  -17.8630   19.5010 C   0  0  0  0  0  0  0  0  0  0  0  0
  -27.2010  -19.8360   17.8310 C   0  0  0  0  0  0  0  0  0  0  0  0
  -25.4910  -16.6500   20.0840 C   0  0  0  0  0  2  0  0  0  0  0  0
  -26.1650  -15.8150   20.9030 C   0  0  0  0  0  2  0  0  0  0  0  0
  -26.7960  -13.5400   21.6920 C   0  0  0  0  0  3  0  0  0  0  0  0
  -24.8920  -13.7940   20.1990 C   0  0  0  0  0  3  0  0  0  0  0  0
  -26.8560  -12.1690   21.3690 C   0  0  0  0  0  3  0  0  0  0  0  0
  -24.9510  -12.4290   19.8750 C   0  0  0  0  0  3  0  0  0  0  0  0
  -25.8790  -14.3780   21.0160 C   0  0  0  0  0  0  0  0  0  0  0  0
  -26.0090  -11.6450   20.3590 C   0  0  0  0  0  0  0  0  0  0  0  0
  -26.2620  -10.4590   19.7100 O   0  0  0  0  0  0  0  0  0  0  0  0
  -27.5860  -10.3010   19.1750 C   0  0  0  0  0  2  0  0  0  0  0  0
  -28.5610  -11.4840   19.4610 C   0  0  0  0  0  2  0  0  0  0  0  0
  -28.0340  -12.8980   19.1400 C   0  0  0  0  0  2  0  0  0  0  0  0
  -29.8850  -14.5950   18.9910 C   0  0  0  0  0  0  0  0  0  0  0  0
  -31.0080  -15.3200   21.0610 C   0  0  0  0  0  2  0  0  0  0  0  0
  -32.5420  -15.3510   20.9810 C   0  0  0  0  0  2  0  0  0  0  0  0
  -33.1040  -13.9750   21.3600 C   0  0  0  0  0  2  0  0  0  0  0  0
  -32.4590  -12.8320   20.5300 C   0  0  0  0  0  3  0  0  0  0  0  0
  -30.9130  -12.9190   20.5770 C   0  0  0  0  0  2  0  0  0  0  0  0
  -30.4830  -14.2740   20.1690 N   0  0  0  0  0  0  0  0  0  0  0  0
  -29.9980  -15.7020   18.4600 O   0  0  0  0  0  0  0  0  0  0  0  0
  -29.0540  -13.6970   18.4420 N   0  0  0  0  0  0  0  0  0  0  0  0
  -28.7900  -13.9640   17.5020 H   0  0  0  0  0  0  0  0  0  0  0  0
  -32.3850  -10.2610   20.7950 C   0  0  0  0  0  0  0  0  0  0  0  0
  -33.2780   -9.3680   21.3360 C   0  0  0  0  0  0  0  0  0  0  0  0
  -34.3700  -10.1460   21.8210 C   0  0  0  0  0  0  0  0  0  0  0  0
  -32.9460  -11.5210   20.9750 N   0  0  0  0  0  0  0  0  0  0  0  0
  -34.1280  -11.4400   21.6410 N   0  0  0  0  0  0  0  0  0  0  0  0
  -35.6580   -9.7320   22.3970 C   0  0  0  0  0  0  0  0  0  0  0  0
  -35.7900   -9.4180   23.7680 C   0  0  0  0  0  3  0  0  0  0  0  0
  -37.0460   -9.0400   24.2960 C   0  0  0  0  0  3  0  0  0  0  0  0
  -38.1710   -8.9340   23.4490 C   0  0  0  0  0  0  0  0  0  0  0  0
  -38.0380   -9.2680   22.0920 C   0  0  0  0  0  3  0  0  0  0  0  0
  -36.7950   -9.6650   21.5660 C   0  0  0  0  0  3  0  0  0  0  0  0
  -39.4260   -8.5680   23.8740 O   0  0  0  0  0  0  0  0  0  0  0  0
  -39.6100   -7.5310   24.7560 C   0  0  0  0  0  0  0  0  0  0  0  0
  -38.7020   -6.4510   24.8420 C   0  0  0  0  0  3  0  0  0  0  0  0
  -38.9670   -5.3770   25.7150 C   0  0  0  0  0  3  0  0  0  0  0  0
  -40.1440   -5.3660   26.4880 C   0  0  0  0  0  0  0  0  0  0  0  0
  -41.0530   -6.4350   26.3950 C   0  0  0  0  0  3  0  0  0  0  0  0
  -40.7850   -7.5110   25.5290 C   0  0  0  0  0  0  0  0  0  0  0  0
  -41.6740   -8.5310   25.4360 F   0  0  0  0  0  0  0  0  0  0  0  0
  -40.4020   -4.3280   27.3190 F   0  0  0  0  0  0  0  0  0  0  0  0
  -33.1560   -7.8700   21.3320 C   0  0  0  0  0  0  0  0  0  0  0  0
  -33.5850   -7.2170   22.4080 N   0  0  0  0  0  0  0  0  0  0  0  0
  -32.6280   -7.2720   20.3960 O   0  0  0  0  0  0  0  0  0  0  0  0
  -34.0100   -7.6950   23.1880 H   0  0  0  0  0  0  0  0  0  0  0  0
  -33.4190   -6.2200   22.4800 H   0  0  0  0  0  0  0  0  0  0  0  0
  -31.1640  -10.1130   20.1530 N   0  0  0  0  0  0  0  0  0  0  0  0
  -30.7280   -9.2170   19.9640 H   0  0  0  0  0  0  0  0  0  0  0  0
  -30.6160  -10.8960   19.8140 H   0  0  0  0  0  0  0  0  0  0  0  0
  -27.7190  -20.6720   16.8700 O   0  0  0  0  0  0  0  0  0  0  0  0
  -27.9420  -22.0380   17.2180 C   0  0  0  0  0  2  0  0  0  0  0  0
  -28.2160  -22.2950   18.7100 C   0  0  0  0  0  2  0  0  0  0  0  0
  -28.9830  -23.5860   18.9800 C   0  0  0  0  0  2  0  0  0  0  0  0
  -28.2960  -24.4050   20.0890 C   0  0  0  0  0  2  0  0  0  0  0  0
  -29.2290  -25.3630   20.8490 C   0  0  0  0  0  2  0  0  0  0  0  0
  -30.3310  -25.9850   19.9840 C   0  0  0  0  0  0  0  0  0  0  0  0
  -31.4980  -26.0220   20.3790 O   0  0  0  0  0  0  0  0  0  0  0  0
  -29.8780  -26.4410   18.7920 O   0  0  0  0  0  0  0  0  0  0  0  0
  -33.4740  -31.2230   14.9540 C   0  0  0  0  0  0  0  0  0  0  0  0
  -30.7650  -26.6770   17.7740 C   0  0  0  0  0  0  0  0  0  0  0  0
  -33.4680  -28.9110   14.0700 C   0  0  0  0  0  3  0  0  0  0  0  0
  -32.5670  -27.1260   15.6540 C   0  0  0  0  0  0  0  0  0  0  0  0
  -33.2350  -29.3540   16.5760 C   0  0  0  0  0  2  0  0  0  0  0  0
  -32.4100  -28.0900   16.6570 C   0  0  0  0  0  0  0  0  0  0  0  0
  -31.5010  -27.8780   17.7130 C   0  0  0  0  0  3  0  0  0  0  0  0
  -30.9030  -25.7230   16.7450 C   0  0  0  0  0  3  0  0  0  0  0  0
  -31.8080  -25.9410   15.6860 C   0  0  0  0  0  3  0  0  0  0  0  0
  -33.5600  -27.4380   14.5560 C   0  0  0  0  0  2  0  0  0  0  0  0
  -33.3700  -29.8870   15.2020 N   0  0  0  0  0  0  0  0  0  0  0  0
  -33.6950  -31.6440   13.8110 O   0  0  0  0  0  0  0  0  0  0  0  0
  -32.3010  -29.0210   13.0640 C   0  0  0  0  0  0  0  0  0  0  0  0
  -32.5760  -28.6810   11.7960 N   0  0  0  0  0  0  0  0  0  0  0  0
  -31.1790  -29.3780   13.4320 O   0  0  0  0  0  0  0  0  0  0  0  0
  -33.5220  -28.4090   11.5710 H   0  0  0  0  0  0  0  0  0  0  0  0
  -32.2970  -28.3010    8.2140 C   0  0  0  0  0  0  0  0  0  0  0  0
  -31.6270  -28.6700   10.6830 C   0  0  0  0  0  3  0  0  0  0  0  0
  -30.9010  -27.3080   10.5840 C   0  0  0  0  0  2  0  0  0  0  0  0
  -31.5890  -26.3270    9.6320 C   0  0  0  0  0  2  0  0  0  0  0  0
  -31.6700  -26.9160    8.2200 C   0  0  0  0  0  2  0  0  0  0  0  0
  -32.2900  -29.1180    9.3770 C   0  0  0  0  0  0  0  0  0  0  0  0
  -32.9200  -30.3810    9.3290 C   0  0  0  0  0  3  0  0  0  0  0  0
  -33.5440  -30.8310    8.1510 C   0  0  0  0  0  3  0  0  0  0  0  0
  -33.5320  -30.0250    6.9980 C   0  0  0  0  0  3  0  0  0  0  0  0
  -32.9060  -28.7660    7.0310 C   0  0  0  0  0  3  0  0  0  0  0  0
  -33.3470  -32.2810   16.0950 C   0  0  0  0  0  3  0  0  0  0  0  0
  -34.4890  -33.1970   15.9760 N   0  0  0  0  0  0  0  0  0  0  0  0
  -35.6310  -33.0810   16.6660 C   0  0  0  0  0  0  0  0  0  0  0  0
  -35.8060  -32.2200   17.5330 O   0  0  0  0  0  0  0  0  0  0  0  0
  -34.4370  -33.8920   15.2460 H   0  0  0  0  0  0  0  0  0  0  0  0
  -37.7790  -33.4150   15.4020 C   0  0  0  0  0  1  0  0  0  0  0  0
  -36.7600  -34.0780   16.3410 C   0  0  0  0  0  3  0  0  0  0  0  0
  -36.6150  -35.4710   18.3580 C   0  0  0  0  0  1  0  0  0  0  0  0
  -37.4510  -34.5950   17.5430 N   0  0  0  0  0  0  0  0  0  0  0  0
  -38.2880  -35.1090   17.2820 H   0  0  0  0  0  0  0  0  0  0  0  0
  -31.9840  -33.0760   16.0580 C   0  0  1  0  0  0  0  0  0  0  0  0
  -31.7040  -33.7660   14.7020 C   0  0  0  0  0  1  0  0  0  0  0  0
  -30.7960  -32.1350   16.3640 C   0  0  0  0  0  1  0  0  0  0  0  0
  -31.9820  -34.1660   17.1550 C   0  0  0  0  0  1  0  0  0  0  0  0
  1  5  1  0
  2  5  2  0
  3  1  2  0
  4  2  1  0
  5  7  1  0
  6  3  1  0
  6  4  2  0
  7  8  1  0
  8 13  1  0
 10 13  1  0
 11  9  1  0
 12 10  2  0
 12 14  1  0
 13  9  2  0
 14 11  2  0
 15 14  1  0
 16 17  1  0
 16 15  1  0
 18 17  1  0
 19 25  1  0
 21 20  1  0
 21 22  1  0
 23 24  1  0
 23 32  1  0
 23 22  1  0
 25 24  1  0
 25 20  1  0
 26 19  2  0
 27 19  1  0
 27 18  1  0
 28 27  1  0
 29 32  1  0
 29 30  2  0
 30 31  1  0
 31 34  1  0
 32 33  1  0
 33 31  2  0
 34 35  1  0
 35 36  2  0
 37 40  1  0
 37 36  1  0
 38 37  2  0
 39 38  1  0
 39 34  2  0
 40 41  1  0
 41 42  2  0
 41 46  1  0
 42 43  1  0
 43 44  2  0
 44 48  1  0
 45 44  1  0
 46 45  2  0
 47 46  1  0
 49 30  1  0
 49 50  1  0
 50 53  1  0
 50 52  1  0
 51 49  2  0
 54 29  1  0
 55 54  1  0
 56 54  1  0
 57 58  1  0
 57  6  1  0
 58 59  1  0
 59 60  1  0
 60 61  1  0
 61 62  1  0
 63 64  2  0
 63 62  1  0
 65 63  1  0
 66 76  1  0
 67 65  1  0
 68 78  1  0
 68 75  1  0
 68 76  1  0
 69 74  2  0
 69 71  1  0
 70 71  1  0
 71 72  2  0
 72 67  1  0
 73 67  2  0
 74 73  1  0
 75 69  1  0
 76 70  1  0
 77 66  2  0
 78 80  2  0
 79 78  1  0
 81 79  1  0
 82 86  1  0
 82 87  1  0
 83 79  1  0
 84 83  1  0
 85 84  1  0
 86 85  1  0
 87 83  1  0
 88 87  2  0
 89 88  1  0
 90 91  1  0
 90 89  2  0
 91 82  2  0
 92 66  1  0
 93 92  1  0
 93 94  1  0
 94 95  2  0
 96 93  1  0
 98 97  1  0
 98 94  1  0
 98100  1  0
100 99  1  0
101100  1  0
102 92  1  0
102104  1  1
102105  1  0
103102  1  0
M  ISO  4  19 100  27 100  63 101  65 101
M  END
>  <TORSDO>  (3) 
F 29

>  <SCORE>  (3) 
-2.054

>  <name>  (3) 
2

>  <ligand_id>  (3) 
2

>  <original_smiles>  (3) 
[H]C(=C([H])c1c([H])c([H])c(OC([H])([H])C([H])([H])C([H])([H])C([H])([H])C([H])([H])C(=O)Oc2c([H])c([H])c3c(c2[H])C([H])([H])N(C(=O)C([H])(N([H])C(=O)C([H])(N([H])C([H])([H])[H])C([H])([H])[H])C(C([H])([H])[H])(C([H])([H])[H])C([H])([H])[H])C([H])(C(=O)N([H])C2([H])c4c([H])c([H])c([H])c([H])c4C([H])([H])C([H])([H])C2([H])[H])C3([H])[H])c([H])c1[H])c1c([H])c([H])c(OC([H])([H])C([H])([H])C([H])([H])N([H])C(=O)N2C([H])([H])C([H])([H])C([H])([H])C([H])(n3nc(-c4c([H])c([H])c(Oc5c([H])c([H])c(F)c([H])c5F)c([H])c4[H])c(C(=O)N([H])[H])c3N([H])[H])C2([H])[H])c([H])c1[H]

>  <smiles>  (3) 
[H]C(=C([H])c1c([H])c([H])c(OC([H])([H])C([H])([H])C([H])([H])C([H])([H])C([H])([H])C(=O)Oc2c([H])c([H])c3c(c2[H])C([H])([H])N(C(=O)C([H])(N([H])C(=O)C([H])(N([H])C([H])([H])[H])C([H])([H])[H])C(C([H])([H])[H])(C([H])([H])[H])C([H])([H])[H])C([H])(C(=O)N([H])C2([H])c4c([H])c([H])c([H])c([H])c4C([H])([H])C([H])([H])C2([H])[H])C3([H])[H])c([H])c1[H])c1c([H])c([H])c(OC([H])([H])C([H])([H])C([H])([H])N([H])C(=O)N2C([H])([H])C([H])([H])C([H])([H])C([H])(n3nc(-c4c([H])c([H])c(Oc5c([H])c([H])c(F)c([H])c5F)c([H])c4[H])c(C(=O)N([H])[H])c3N([H])[H])C2([H])[H])c([H])c1[H]

$$$$
3:0:0
     RDKit          3D

101109  0  0  1  0  0  0  0  0999 V2000
  -32.8110  -25.9140   22.8010 C   0  0  0  0  0  2  0  0  0  0  0  0
  -31.4660  -26.3580   22.9120 O   0  0  0  0  0  0  0  0  0  0  0  0
  -31.1450  -26.9950   24.1440 C   0  0  0  0  0  2  0  0  0  0  0  0
  -29.6340  -27.2730   24.1470 C   0  0  0  0  0  2  0  0  0  0  0  0
  -28.9590  -26.0140   24.1210 O   0  0  0  0  0  0  0  0  0  0  0  0
  -27.5590  -26.0950   24.3650 C   0  0  0  0  0  2  0  0  0  0  0  0
  -26.7310  -25.6260   23.1510 C   0  0  0  0  0  2  0  0  0  0  0  0
  -26.4160  -26.6950   22.2590 O   0  0  0  0  0  0  0  0  0  0  0  0
  -27.3490  -26.8730   21.1980 C   0  0  0  0  0  2  0  0  0  0  0  0
  -26.9680  -28.0790   20.3190 C   0  0  0  0  0  2  0  0  0  0  0  0
  -27.4180  -29.3060   20.9020 O   0  0  0  0  0  0  0  0  0  0  0  0
  -28.5940  -32.2180   27.2770 C   0  0  0  0  0  0  0  0  0  0  0  0
  -26.8540  -29.7360   22.0830 C   0  0  0  0  0  0  0  0  0  0  0  0
  -26.2910  -31.3980   26.8820 C   0  0  0  0  0  3  0  0  0  0  0  0
  -25.7500  -30.7440   24.4820 C   0  0  0  0  0  0  0  0  0  0  0  0
  -27.7550  -32.1680   24.9340 C   0  0  0  0  0  2  0  0  0  0  0  0
  -27.0150  -31.1720   24.0620 C   0  0  0  0  0  0  0  0  0  0  0  0
  -27.5650  -30.6790   22.8600 C   0  0  0  0  0  3  0  0  0  0  0  0
  -25.5720  -29.3220   22.5200 C   0  0  0  0  0  3  0  0  0  0  0  0
  -25.0260  -29.8170   23.7170 C   0  0  0  0  0  3  0  0  0  0  0  0
  -25.2180  -31.3320   25.7640 C   0  0  0  0  0  2  0  0  0  0  0  0
  -27.6050  -31.9240   26.3870 N   0  0  0  0  0  0  0  0  0  0  0  0
  -28.4140  -32.1050   28.4980 O   0  0  0  0  0  0  0  0  0  0  0  0
  -26.4040  -30.0060   27.5430 C   0  0  0  0  0  0  0  0  0  0  0  0
  -25.5020  -29.7240   28.4970 N   0  0  0  0  0  0  0  0  0  0  0  0
  -27.2650  -29.2000   27.1770 O   0  0  0  0  0  0  0  0  0  0  0  0
  -24.8400  -30.4430   28.7460 H   0  0  0  0  0  0  0  0  0  0  0  0
  -23.6450  -28.0190   31.0870 C   0  0  0  0  0  0  0  0  0  0  0  0
  -25.3860  -28.4640   29.2290 C   0  0  0  0  0  3  0  0  0  0  0  0
  -24.6190  -27.4090   28.3990 C   0  0  0  0  0  2  0  0  0  0  0  0
  -23.1160  -27.3830   28.6940 C   0  0  0  0  0  2  0  0  0  0  0  0
  -22.8640  -27.0850   30.1750 C   0  0  0  0  0  2  0  0  0  0  0  0
  -24.8190  -28.6810   30.6370 C   0  0  0  0  0  0  0  0  0  0  0  0
  -25.4860  -29.5670   31.5100 C   0  0  0  0  0  3  0  0  0  0  0  0
  -25.0020  -29.7940   32.8120 C   0  0  0  0  0  3  0  0  0  0  0  0
  -23.8470  -29.1290   33.2570 C   0  0  0  0  0  3  0  0  0  0  0  0
  -23.1740  -28.2400   32.3980 C   0  0  0  0  0  3  0  0  0  0  0  0
  -29.9920  -32.7350   26.8050 C   0  0  0  0  0  3  0  0  0  0  0  0
  -30.3790  -33.8340   27.7000 N   0  0  0  0  0  0  0  0  0  0  0  0
  -30.2300  -35.1360   27.4170 C   0  0  0  0  0  0  0  0  0  0  0  0
  -29.8120  -35.5430   26.3280 O   0  0  0  0  0  0  0  0  0  0  0  0
  -30.6800  -33.5770   28.6300 H   0  0  0  0  0  0  0  0  0  0  0  0
  -29.3300  -36.6160   29.2420 C   0  0  0  0  0  1  0  0  0  0  0  0
  -30.6030  -36.1470   28.5170 C   0  0  0  0  0  3  0  0  0  0  0  0
  -32.6920  -36.9860   27.5350 C   0  0  0  0  0  1  0  0  0  0  0  0
  -31.3520  -37.3190   28.0120 N   0  0  0  0  0  0  0  0  0  0  0  0
  -31.4380  -38.0280   28.7320 H   0  0  0  0  0  0  0  0  0  0  0  0
  -31.1010  -31.6110   26.7780 C   0  0  1  0  0  0  0  0  0  0  0  0
  -31.2000  -30.8140   28.0990 C   0  0  0  0  0  1  0  0  0  0  0  0
  -30.8400  -30.6010   25.6350 C   0  0  0  0  0  1  0  0  0  0  0  0
  -32.4880  -32.2410   26.5040 C   0  0  0  0  0  1  0  0  0  0  0  0
  -33.0850  -25.5620   21.3250 C   0  0  0  0  0  2  0  0  0  0  0  0
  -32.3460  -24.4390   20.8440 O   0  0  0  0  0  0  0  0  0  0  0  0
  -30.9890  -24.7230   20.5110 C   0  0  0  0  0  2  0  0  0  0  0  0
  -30.6220  -24.1020   19.1530 C   0  0  0  0  0  2  0  0  0  0  0  0
  -31.3240  -24.7680   18.1060 O   0  0  0  0  0  0  0  0  0  0  0  0
  -28.9750  -24.5900   15.2350 C   0  0  0  0  0  3  0  0  0  0  0  0
  -29.4590  -24.7550   16.5480 C   0  0  0  0  0  3  0  0  0  0  0  0
  -31.2200  -24.0230   14.4950 C   0  0  0  0  0  3  0  0  0  0  0  0
  -31.7190  -24.2260   15.7970 C   0  0  0  0  0  0  0  0  0  0  0  0
  -29.8530  -24.2380   14.1880 C   0  0  0  0  0  0  0  0  0  0  0  0
  -30.8300  -24.5730   16.8400 C   0  0  0  0  0  0  0  0  0  0  0  0
  -33.2090  -24.0570   16.0480 C   0  0  0  0  0  1  0  0  0  0  0  0
  -29.9190  -24.5260   11.7280 C   0  0  0  0  0  0  0  0  0  0  0  0
  -29.6160  -25.1260    9.3650 C   0  0  0  0  0  2  0  0  0  0  0  0
  -28.9820  -26.5260    9.2750 C   0  0  0  0  0  2  0  0  0  0  0  0
  -27.4450  -26.4190    9.3080 C   0  0  0  0  0  2  0  0  0  0  0  0
  -26.9300  -25.5420   10.4780 C   0  0  0  0  0  3  0  0  0  0  0  0
  -27.7020  -24.2050   10.5440 C   0  0  0  0  0  2  0  0  0  0  0  0
  -29.1450  -24.5030   10.6110 N   0  0  0  0  0  0  0  0  0  0  0  0
  -31.0840  -24.9330   11.7050 O   0  0  0  0  0  0  0  0  0  0  0  0
  -29.3290  -24.1240   12.8660 N   0  0  0  0  0  0  0  0  0  0  0  0
  -28.3500  -23.8990   12.7790 H   0  0  0  0  0  0  0  0  0  0  0  0
  -24.4860  -25.6540   11.2890 C   0  0  0  0  0  0  0  0  0  0  0  0
  -23.3040  -25.3030   10.6890 C   0  0  0  0  0  0  0  0  0  0  0  0
  -23.6520  -24.7820    9.4070 C   0  0  0  0  0  0  0  0  0  0  0  0
  -25.4840  -25.3280   10.3830 N   0  0  0  0  0  0  0  0  0  0  0  0
  -24.9710  -24.7550    9.2630 N   0  0  0  0  0  0  0  0  0  0  0  0
  -22.8050  -24.3590    8.2840 C   0  0  0  0  0  0  0  0  0  0  0  0
  -22.9660  -23.0990    7.6700 C   0  0  0  0  0  3  0  0  0  0  0  0
  -22.1260  -22.7070    6.6050 C   0  0  0  0  0  3  0  0  0  0  0  0
  -21.1060  -23.5760    6.1490 C   0  0  0  0  0  0  0  0  0  0  0  0
  -20.9670  -24.8410    6.7470 C   0  0  0  0  0  3  0  0  0  0  0  0
  -21.8090  -25.2320    7.8010 C   0  0  0  0  0  3  0  0  0  0  0  0
  -20.2590  -23.2890    5.1060 O   0  0  0  0  0  0  0  0  0  0  0  0
  -19.9270  -21.9980    4.7840 C   0  0  0  0  0  0  0  0  0  0  0  0
  -19.3420  -21.1190    5.7220 C   0  0  0  0  0  3  0  0  0  0  0  0
  -18.9560  -19.8220    5.3260 C   0  0  0  0  0  3  0  0  0  0  0  0
  -19.1420  -19.4070    3.9950 C   0  0  0  0  0  0  0  0  0  0  0  0
  -19.7150  -20.2830    3.0570 C   0  0  0  0  0  3  0  0  0  0  0  0
  -20.1060  -21.5760    3.4510 C   0  0  0  0  0  0  0  0  0  0  0  0
  -20.6410  -22.4220    2.5380 F   0  0  0  0  0  0  0  0  0  0  0  0
  -18.7630  -18.1640    3.6120 F   0  0  0  0  0  0  0  0  0  0  0  0
  -21.9240  -25.5350   11.2340 C   0  0  0  0  0  0  0  0  0  0  0  0
  -20.9730  -24.6690   10.8910 N   0  0  0  0  0  0  0  0  0  0  0  0
  -21.6890  -26.4610   12.0080 O   0  0  0  0  0  0  0  0  0  0  0  0
  -21.1620  -23.8930   10.2750 H   0  0  0  0  0  0  0  0  0  0  0  0
  -20.0360  -24.7860   11.2530 H   0  0  0  0  0  0  0  0  0  0  0  0
  -24.7970  -26.2420   12.5090 N   0  0  0  0  0  0  0  0  0  0  0  0
  -24.0870  -26.5690   13.1570 H   0  0  0  0  0  0  0  0  0  0  0  0
  -25.7300  -26.5260   12.7760 H   0  0  0  0  0  0  0  0  0  0  0  0
  1  2  1  0
  2  3  1  0
  3  4  1  0
  5  4  1  0
  5  6  1  0
  7  6  1  0
  8  7  1  0
  9  8  1  0
 10 11  1  0
 10  9  1  0
 11 13  1  0
 12 23  2  0
 13 19  2  0
 13 18  1  0
 14 24  1  0
 15 21  1  0
 16 22  1  0
 17 15  1  0
 17 16  1  0
 18 17  2  0
 19 20  1  0
 20 15  2  0
 21 14  1  0
 22 14  1  0
 22 12  1  0
 24 25  1  0
 25 27  1  0
 26 24  2  0
 28 37  1  0
 29 25  1  0
 29 33  1  0
 30 31  1  0
 30 29  1  0
 31 32  1  0
 32 28  1  0
 33 28  2  0
 33 34  1  0
 34 35  2  0
 35 36  1  0
 37 36  2  0
 38 12  1  0
 38 39  1  0
 39 42  1  0
 40 39  1  0
 40 44  1  0
 41 40  2  0
 44 43  1  0
 45 46  1  0
 46 44  1  0
 46 47  1  0
 48 38  1  0
 48 49  1  1
 50 48  1  0
 51 48  1  0
 52  1  1  0
 53 52  1  0
 54 53  1  0
 55 54  1  0
 56 55  1  0
 57 58  1  0
 58 62  2  0
 59 60  2  0
 60 63  1  0
 60 62  1  0
 61 59  1  0
 61 57  2  0
 62 56  1  0
 64 72  1  0
 65 70  1  0
 66 67  1  0
 66 65  1  0
 68 67  1  0
 68 69  1  0
 69 70  1  0
 70 64  1  0
 71 64  2  0
 72 61  1  0
 73 72  1  0
 74 99  1  0
 75 94  1  0
 75 74  2  0
 76 75  1  0
 77 68  1  0
 77 74  1  0
 78 76  2  0
 78 77  1  0
 79 76  1  0
 80 79  2  0
 81 80  1  0
 82 81  2  0
 82 83  1  0
 83 84  2  0
 84 79  1  0
 85 82  1  0
 86 85  1  0
 86 87  1  0
 88 87  2  0
 89 88  1  0
 90 91  1  0
 90 89  2  0
 91 86  2  0
 92 91  1  0
 93 89  1  0
 94 96  2  0
 95 94  1  0
 95 98  1  0
 97 95  1  0
 99101  1  0
 99100  1  0
M  ISO  4  10 101  11 101  64 100  72 100
M  END
>  <TORSDO>  (4) 
F 31

>  <SCORE>  (4) 
1.470

>  <name>  (4) 
3

>  <ligand_id>  (4) 
3

>  <original_smiles>  (4) 
[H]c1c([H])c([H])c2c(c1[H])C([H])([H])C([H])([H])C([H])([H])C2([H])N([H])C(=O)C1([H])N(C(=O)C([H])(N([H])C(=O)C([H])(N([H])C([H])([H])[H])C([H])([H])[H])C(C([H])([H])[H])(C([H])([H])[H])C([H])([H])[H])C([H])([H])c2c([H])c(OC([H])([H])C([H])([H])OC([H])([H])C([H])([H])OC([H])([H])C([H])([H])OC([H])([H])C([H])([H])OC([H])([H])C([H])([H])Oc3c([H])c([H])c(N([H])C(=O)N4C([H])([H])C([H])([H])C([H])([H])C([H])(n5nc(-c6c([H])c([H])c(Oc7c([H])c([H])c(F)c([H])c7F)c([H])c6[H])c(C(=O)N([H])[H])c5N([H])[H])C4([H])[H])c([H])c3C([H])([H])[H])c([H])c([H])c2C1([H])[H]

>  <smiles>  (4) 
[H]c1c([H])c([H])c2c(c1[H])C([H])([H])C([H])([H])C([H])([H])C2([H])N([H])C(=O)C1([H])N(C(=O)C([H])(N([H])C(=O)C([H])(N([H])C([H])([H])[H])C([H])([H])[H])C(C([H])([H])[H])(C([H])([H])[H])C([H])([H])[H])C([H])([H])c2c([H])c(OC([H])([H])C([H])([H])OC([H])([H])C([H])([H])OC([H])([H])C([H])([H])OC([H])([H])C([H])([H])OC([H])([H])C([H])([H])Oc3c([H])c([H])c(N([H])C(=O)N4C([H])([H])C([H])([H])C([H])([H])C([H])(n5nc(-c6c([H])c([H])c(Oc7c([H])c([H])c(F)c([H])c7F)c([H])c6[H])c(C(=O)N([H])[H])c5N([H])[H])C4([H])[H])c([H])c3C([H])([H])[H])c([H])c([H])c2C1([H])[H]

$$$$
4:0:0
     RDKit          3D

 97105  0  0  1  0  0  0  0  0999 V2000
  -30.9580  -20.1230   15.5010 C   0  0  0  0  0  2  0  0  0  0  0  0
  -31.4850  -18.8050   17.5420 C   0  0  0  0  0  0  0  0  0  0  0  0
  -30.7970  -19.7630   16.9100 N   0  0  0  0  0  0  0  0  0  0  0  0
  -32.4060  -18.1790   17.0140 O   0  0  0  0  0  0  0  0  0  0  0  0
  -30.0390  -20.2060   17.4120 H   0  0  0  0  0  0  0  0  0  0  0  0
  -30.1810  -19.0050   21.1470 C   0  0  0  0  0  3  0  0  0  0  0  0
  -30.6500  -19.4040   19.8770 C   0  0  0  0  0  3  0  0  0  0  0  0
  -30.0550  -17.6400   21.4660 C   0  0  0  0  0  3  0  0  0  0  0  0
  -30.8950  -17.0640   19.2550 C   0  0  0  0  0  3  0  0  0  0  0  0
  -30.9960  -18.4290   18.9130 C   0  0  0  0  0  0  0  0  0  0  0  0
  -30.4230  -16.6530   20.5300 C   0  0  0  0  0  0  0  0  0  0  0  0
  -30.8370  -14.2330   20.2760 C   0  0  0  0  0  0  0  0  0  0  0  0
  -30.3600  -12.1510   19.0760 C   0  0  0  0  0  2  0  0  0  0  0  0
  -29.4080  -12.4750   17.9080 C   0  0  0  0  0  2  0  0  0  0  0  0
  -27.9400  -12.3970   18.3690 C   0  0  0  0  0  2  0  0  0  0  0  0
  -27.6800  -13.1940   19.6760 C   0  0  0  0  0  3  0  0  0  0  0  0
  -28.7520  -12.8820   20.7450 C   0  0  0  0  0  2  0  0  0  0  0  0
  -30.0840  -13.1100   20.1560 N   0  0  0  0  0  0  0  0  0  0  0  0
  -31.9590  -14.3460   19.7750 O   0  0  0  0  0  0  0  0  0  0  0  0
  -30.2430  -15.2790   20.8710 N   0  0  0  0  0  0  0  0  0  0  0  0
  -29.4580  -15.0620   21.4650 H   0  0  0  0  0  0  0  0  0  0  0  0
  -25.3100  -13.8660   20.4270 C   0  0  0  0  0  0  0  0  0  0  0  0
  -24.2280  -13.1230   20.8190 C   0  0  0  0  0  0  0  0  0  0  0  0
  -24.6520  -11.7590   20.7800 C   0  0  0  0  0  0  0  0  0  0  0  0
  -26.3280  -12.9570   20.1800 N   0  0  0  0  0  0  0  0  0  0  0  0
  -25.9350  -11.6850   20.4480 N   0  0  0  0  0  0  0  0  0  0  0  0
  -23.8960  -10.5180   20.9850 C   0  0  0  0  0  0  0  0  0  0  0  0
  -24.3200   -9.5370   21.9110 C   0  0  0  0  0  3  0  0  0  0  0  0
  -23.5680   -8.3590   22.1030 C   0  0  0  0  0  3  0  0  0  0  0  0
  -22.3750   -8.1500   21.3700 C   0  0  0  0  0  0  0  0  0  0  0  0
  -21.9680   -9.1180   20.4340 C   0  0  0  0  0  3  0  0  0  0  0  0
  -22.7230  -10.2880   20.2390 C   0  0  0  0  0  3  0  0  0  0  0  0
  -21.5930   -7.0250   21.4720 O   0  0  0  0  0  0  0  0  0  0  0  0
  -21.5520   -6.2810   22.6240 C   0  0  0  0  0  0  0  0  0  0  0  0
  -21.1700   -6.8440   23.8610 C   0  0  0  0  0  3  0  0  0  0  0  0
  -21.0690   -6.0250   25.0050 C   0  0  0  0  0  3  0  0  0  0  0  0
  -21.3460   -4.6480   24.9130 C   0  0  0  0  0  0  0  0  0  0  0  0
  -21.7220   -4.0860   23.6800 C   0  0  0  0  0  3  0  0  0  0  0  0
  -21.8200   -4.9000   22.5400 C   0  0  0  0  0  0  0  0  0  0  0  0
  -22.1620   -4.3490   21.3490 F   0  0  0  0  0  0  0  0  0  0  0  0
  -21.2440   -3.8610   26.0100 F   0  0  0  0  0  0  0  0  0  0  0  0
  -22.8500  -13.6360   21.1200 C   0  0  0  0  0  0  0  0  0  0  0  0
  -22.1240  -12.9590   22.0020 N   0  0  0  0  0  0  0  0  0  0  0  0
  -22.4270  -14.6720   20.6080 O   0  0  0  0  0  0  0  0  0  0  0  0
  -22.4840  -12.1240   22.4390 H   0  0  0  0  0  0  0  0  0  0  0  0
  -21.1980  -13.2810   22.2450 H   0  0  0  0  0  0  0  0  0  0  0  0
  -25.5120  -15.2290   20.2440 N   0  0  0  0  0  0  0  0  0  0  0  0
  -24.7690  -15.9090   20.3570 H   0  0  0  0  0  0  0  0  0  0  0  0
  -26.3720  -15.6360   19.9000 H   0  0  0  0  0  0  0  0  0  0  0  0
  -31.3320  -21.5980   15.3220 C   0  0  0  0  0  2  0  0  0  0  0  0
  -30.2410  -22.4010   15.7440 O   0  0  0  0  0  0  0  0  0  0  0  0
  -30.4610  -23.7800   15.4730 C   0  0  0  0  0  2  0  0  0  0  0  0
  -29.2730  -24.5910   15.9960 C   0  0  0  0  0  2  0  0  0  0  0  0
  -29.3600  -24.6370   17.4140 O   0  0  0  0  0  0  0  0  0  0  0  0
  -28.4640  -25.5770   17.9830 C   0  0  0  0  0  2  0  0  0  0  0  0
  -28.4830  -25.4370   19.5190 C   0  0  0  0  0  2  0  0  0  0  0  0
  -28.3970  -26.6990   20.1770 O   0  0  0  0  0  0  0  0  0  0  0  0
  -24.5700  -31.8330   23.2420 C   0  0  0  0  0  0  0  0  0  0  0  0
  -27.1980  -27.3760   20.1770 C   0  0  0  0  0  0  0  0  0  0  0  0
  -23.3650  -30.4410   21.5890 C   0  0  0  0  0  3  0  0  0  0  0  0
  -24.8120  -28.8860   20.1870 C   0  0  0  0  0  0  0  0  0  0  0  0
  -25.8950  -30.7760   21.4150 C   0  0  0  0  0  2  0  0  0  0  0  0
  -25.9680  -29.4040   20.7790 C   0  0  0  0  0  0  0  0  0  0  0  0
  -27.1620  -28.6540   20.7760 C   0  0  0  0  0  3  0  0  0  0  0  0
  -26.0100  -26.8560   19.6090 C   0  0  0  0  0  3  0  0  0  0  0  0
  -24.8230  -27.6080   19.6050 C   0  0  0  0  0  3  0  0  0  0  0  0
  -23.5780  -29.7540   20.2140 C   0  0  0  0  0  2  0  0  0  0  0  0
  -24.6280  -31.0320   22.1400 N   0  0  0  0  0  0  0  0  0  0  0  0
  -23.4870  -32.1150   23.7720 O   0  0  0  0  0  0  0  0  0  0  0  0
  -22.7000  -29.4240   22.5440 C   0  0  0  0  0  0  0  0  0  0  0  0
  -21.3760  -29.2510   22.4010 N   0  0  0  0  0  0  0  0  0  0  0  0
  -23.3710  -28.7950   23.3660 O   0  0  0  0  0  0  0  0  0  0  0  0
  -20.8990  -29.8150   21.7110 H   0  0  0  0  0  0  0  0  0  0  0  0
  -17.9890  -28.0830   22.8610 C   0  0  0  0  0  0  0  0  0  0  0  0
  -20.5450  -28.3210   23.1630 C   0  0  0  0  0  3  0  0  0  0  0  0
  -20.6410  -26.8890   22.5910 C   0  0  0  0  0  2  0  0  0  0  0  0
  -19.5500  -26.5710   21.5640 C   0  0  0  0  0  2  0  0  0  0  0  0
  -18.1620  -26.7280   22.1920 C   0  0  0  0  0  2  0  0  0  0  0  0
  -19.1080  -28.8360   23.3030 C   0  0  0  0  0  0  0  0  0  0  0  0
  -18.8970  -30.1020   23.8900 C   0  0  0  0  0  3  0  0  0  0  0  0
  -17.5970  -30.6190   24.0360 C   0  0  0  0  0  3  0  0  0  0  0  0
  -16.4900  -29.8640   23.6100 C   0  0  0  0  0  3  0  0  0  0  0  0
  -16.6860  -28.5970   23.0320 C   0  0  0  0  0  3  0  0  0  0  0  0
  -25.8580  -32.4500   23.8750 C   0  0  0  0  0  3  0  0  0  0  0  0
  -26.3660  -31.6670   25.1460 C   0  0  1  0  0  0  0  0  0  0  0  0
  -25.2660  -31.4250   26.2060 C   0  0  0  0  0  1  0  0  0  0  0  0
  -26.9430  -30.2910   24.7430 C   0  0  0  0  0  1  0  0  0  0  0  0
  -27.5180  -32.4480   25.8190 C   0  0  0  0  0  1  0  0  0  0  0  0
  -25.5570  -33.8490   24.2100 N   0  0  0  0  0  0  0  0  0  0  0  0
  -25.8960  -34.9010   23.4550 C   0  0  0  0  0  0  0  0  0  0  0  0
  -26.5700  -34.7990   22.4260 O   0  0  0  0  0  0  0  0  0  0  0  0
  -24.9650  -34.0060   25.0130 H   0  0  0  0  0  0  0  0  0  0  0  0
  -24.1750  -36.6980   23.0990 C   0  0  0  0  0  1  0  0  0  0  0  0
  -25.4110  -36.2890   23.9150 C   0  0  0  0  0  3  0  0  0  0  0  0
  -27.5430  -37.1590   24.7650 C   0  0  0  0  0  1  0  0  0  0  0  0
  -26.4480  -37.3380   23.8140 N   0  0  0  0  0  0  0  0  0  0  0  0
  -26.0460  -38.2600   23.9590 H   0  0  0  0  0  0  0  0  0  0  0  0
  1  3  1  0
  2 10  1  0
  3  5  1  0
  3  2  1  0
  4  2  2  0
  6  8  1  0
  7  6  2  0
  9 11  1  0
 10  9  2  0
 10  7  1  0
 11 20  1  0
 11  8  2  0
 12 20  1  0
 13 18  1  0
 14 15  1  0
 14 13  1  0
 16 15  1  0
 16 25  1  0
 16 17  1  0
 18 12  1  0
 18 17  1  0
 19 12  2  0
 20 21  1  0
 22 23  2  0
 23 42  1  0
 24 23  1  0
 24 27  1  0
 25 22  1  0
 25 26  1  0
 26 24  2  0
 27 28  1  0
 28 29  2  0
 30 33  1  0
 30 29  1  0
 31 30  2  0
 32 31  1  0
 32 27  2  0
 33 34  1  0
 34 35  1  0
 35 36  2  0
 37 36  1  0
 37 41  1  0
 38 37  2  0
 39 34  2  0
 39 38  1  0
 40 39  1  0
 42 43  1  0
 43 46  1  0
 43 45  1  0
 44 42  2  0
 47 48  1  0
 47 22  1  0
 49 47  1  0
 50  1  1  0
 50 51  1  0
 52 51  1  0
 52 53  1  0
 53 54  1  0
 54 55  1  0
 55 56  1  0
 56 57  1  0
 58 69  2  0
 59 57  1  0
 59 64  1  0
 60 68  1  0
 60 70  1  0
 61 67  1  0
 61 63  1  0
 62 68  1  0
 63 62  1  0
 64 63  2  0
 65 59  2  0
 66 65  1  0
 66 61  2  0
 67 60  1  0
 68 58  1  0
 70 72  2  0
 71 70  1  0
 73 71  1  0
 74 83  2  0
 74 79  1  0
 75 71  1  0
 75 79  1  0
 76 75  1  0
 77 78  1  0
 77 76  1  0
 78 74  1  0
 79 80  2  0
 80 81  1  0
 82 81  2  0
 83 82  1  0
 84 58  1  0
 84 89  1  0
 84 85  1  0
 85 88  1  1
 85 86  1  0
 87 85  1  0
 89 92  1  0
 90 94  1  0
 90 89  1  0
 91 90  2  0
 94 93  1  0
 96 94  1  0
 96 97  1  0
 96 95  1  0
M  ISO  4  12 100  20 100  56 101  57 101
M  END
>  <TORSDO>  (5) 
F 25

>  <SCORE>  (5) 
-12.117

>  <name>  (5) 
4

>  <ligand_id>  (5) 
4

>  <original_smiles>  (5) 
[H]c1c([H])c(C(=O)N([H])C([H])([H])C([H])([H])OC([H])([H])C([H])([H])OC([H])([H])C([H])([H])Oc2c([H])c([H])c3c(c2[H])C([H])([H])N(C(=O)C([H])(N([H])C(=O)C([H])(N([H])C([H])([H])[H])C([H])([H])[H])C(C([H])([H])[H])(C([H])([H])[H])C([H])([H])[H])C([H])(C(=O)N([H])C2([H])c4c([H])c([H])c([H])c([H])c4C([H])([H])C([H])([H])C2([H])[H])C3([H])[H])c([H])c(N([H])C(=O)N2C([H])([H])C([H])([H])C([H])([H])C([H])(n3nc(-c4c([H])c([H])c(Oc5c([H])c([H])c(F)c([H])c5F)c([H])c4[H])c(C(=O)N([H])[H])c3N([H])[H])C2([H])[H])c1[H]

>  <smiles>  (5) 
[H]c1c([H])c(C(=O)N([H])C([H])([H])C([H])([H])OC([H])([H])C([H])([H])OC([H])([H])C([H])([H])Oc2c([H])c([H])c3c(c2[H])C([H])([H])N(C(=O)C([H])(N([H])C(=O)C([H])(N([H])C([H])([H])[H])C([H])([H])[H])C(C([H])([H])[H])(C([H])([H])[H])C([H])([H])[H])C([H])(C(=O)N([H])C2([H])c4c([H])c([H])c([H])c([H])c4C([H])([H])C([H])([H])C2([H])[H])C3([H])[H])c([H])c(N([H])C(=O)N2C([H])([H])C([H])([H])C([H])([H])C([H])(n3nc(-c4c([H])c([H])c(Oc5c([H])c([H])c(F)c([H])c5F)c([H])c4[H])c(C(=O)N([H])[H])c3N([H])[H])C2([H])[H])c1[H]

$$$$
5:0:0
     RDKit          3D

106114  0  0  1  0  0  0  0  0999 V2000
  -21.5750  -20.1700   19.6370 C   0  0  0  0  0  2  0  0  0  0  0  0
  -20.5490  -21.1580   19.5370 O   0  0  0  0  0  0  0  0  0  0  0  0
  -20.9950  -22.5100   19.4310 C   0  0  0  0  0  2  0  0  0  0  0  0
  -21.6450  -22.7780   18.0610 C   0  0  0  0  0  2  0  0  0  0  0  0
  -20.6500  -22.6910   17.0460 O   0  0  0  0  0  0  0  0  0  0  0  0
  -20.8160  -23.5960   15.9570 C   0  0  0  0  0  2  0  0  0  0  0  0
  -22.1060  -23.3460   15.1510 C   0  0  0  0  0  2  0  0  0  0  0  0
  -23.1970  -22.9540   15.9800 O   0  0  0  0  0  0  0  0  0  0  0  0
  -23.5730  -23.9320   16.9420 C   0  0  0  0  0  2  0  0  0  0  0  0
  -24.7750  -23.4160   17.7460 C   0  0  0  0  0  2  0  0  0  0  0  0
  -25.3490  -24.4980   18.4650 O   0  0  0  0  0  0  0  0  0  0  0  0
  -26.7140  -24.2900   18.8040 C   0  0  0  0  0  2  0  0  0  0  0  0
  -27.3360  -25.6170   19.2720 C   0  0  0  0  0  2  0  0  0  0  0  0
  -27.0170  -26.6580   18.3540 O   0  0  0  0  0  0  0  0  0  0  0  0
  -23.8470  -31.0880   22.9280 C   0  0  0  0  0  0  0  0  0  0  0  0
  -25.9060  -27.3880   18.6840 C   0  0  0  0  0  0  0  0  0  0  0  0
  -22.4070  -30.1690   21.1340 C   0  0  0  0  0  3  0  0  0  0  0  0
  -23.6240  -28.9300   19.2650 C   0  0  0  0  0  0  0  0  0  0  0  0
  -24.9230  -30.4460   20.7780 C   0  0  0  0  0  2  0  0  0  0  0  0
  -24.8550  -29.2540   19.8490 C   0  0  0  0  0  0  0  0  0  0  0  0
  -26.0020  -28.4850   19.5630 C   0  0  0  0  0  3  0  0  0  0  0  0
  -24.6660  -27.0690   18.0970 C   0  0  0  0  0  3  0  0  0  0  0  0
  -23.5190  -27.8320   18.3920 C   0  0  0  0  0  3  0  0  0  0  0  0
  -22.4510  -29.8160   19.6230 C   0  0  0  0  0  2  0  0  0  0  0  0
  -23.7490  -30.5680   21.6720 N   0  0  0  0  0  0  0  0  0  0  0  0
  -22.8370  -31.2780   23.6200 O   0  0  0  0  0  0  0  0  0  0  0  0
  -21.7690  -28.9860   21.8960 C   0  0  0  0  0  0  0  0  0  0  0  0
  -20.4290  -28.9080   21.8580 N   0  0  0  0  0  0  0  0  0  0  0  0
  -22.4710  -28.1550   22.4770 O   0  0  0  0  0  0  0  0  0  0  0  0
  -19.9260  -29.6270   21.3550 H   0  0  0  0  0  0  0  0  0  0  0  0
  -17.0280  -27.8570   22.4590 C   0  0  0  0  0  0  0  0  0  0  0  0
  -19.6130  -27.8650   22.4740 C   0  0  0  0  0  3  0  0  0  0  0  0
  -19.5220  -26.6200   21.5620 C   0  0  0  0  0  2  0  0  0  0  0  0
  -18.3000  -26.6420   20.6390 C   0  0  0  0  0  2  0  0  0  0  0  0
  -17.0080  -26.7150   21.4580 C   0  0  0  0  0  2  0  0  0  0  0  0
  -18.2520  -28.4090   22.9240 C   0  0  0  0  0  0  0  0  0  0  0  0
  -18.2150  -29.4930   23.8270 C   0  0  0  0  0  3  0  0  0  0  0  0
  -16.9870  -30.0190   24.2700 C   0  0  0  0  0  3  0  0  0  0  0  0
  -15.7790  -29.4610   23.8170 C   0  0  0  0  0  3  0  0  0  0  0  0
  -15.8020  -28.3790   22.9200 C   0  0  0  0  0  3  0  0  0  0  0  0
  -25.2250  -31.4850   23.5440 C   0  0  0  0  0  3  0  0  0  0  0  0
  -25.5860  -30.6670   24.8460 C   0  0  1  0  0  0  0  0  0  0  0  0
  -24.4600  -30.6590   25.9050 C   0  0  0  0  0  1  0  0  0  0  0  0
  -25.9160  -29.1960   24.4940 C   0  0  0  0  0  1  0  0  0  0  0  0
  -26.8550  -31.2590   25.5050 C   0  0  0  0  0  1  0  0  0  0  0  0
  -25.1810  -32.9240   23.8320 N   0  0  0  0  0  0  0  0  0  0  0  0
  -25.7750  -33.8630   23.0820 C   0  0  0  0  0  0  0  0  0  0  0  0
  -26.4810  -33.5970   22.1070 O   0  0  0  0  0  0  0  0  0  0  0  0
  -24.5820  -33.2190   24.5890 H   0  0  0  0  0  0  0  0  0  0  0  0
  -24.5130  -35.9680   22.5250 C   0  0  0  0  0  1  0  0  0  0  0  0
  -25.5420  -35.3360   23.4780 C   0  0  0  0  0  3  0  0  0  0  0  0
  -27.7070  -35.7770   24.5480 C   0  0  0  0  0  1  0  0  0  0  0  0
  -26.7790  -36.1460   23.4820 N   0  0  0  0  0  0  0  0  0  0  0  0
  -26.5610  -37.1340   23.5760 H   0  0  0  0  0  0  0  0  0  0  0  0
  -22.5700  -20.2120   18.4640 C   0  0  0  0  0  2  0  0  0  0  0  0
  -23.9110  -20.2440   18.9430 O   0  0  0  0  0  0  0  0  0  0  0  0
  -24.7990  -20.8730   18.0240 C   0  0  0  0  0  2  0  0  0  0  0  0
  -25.8080  -19.8460   17.5000 C   0  0  0  0  0  2  0  0  0  0  0  0
  -28.1190  -19.1820   17.9670 C   0  0  0  0  0  0  0  0  0  0  0  0
  -26.9430  -19.6540   18.4000 N   0  0  0  0  0  0  0  0  0  0  0  0
  -28.3530  -18.9990   16.7710 O   0  0  0  0  0  0  0  0  0  0  0  0
  -26.7870  -19.7600   19.3910 H   0  0  0  0  0  0  0  0  0  0  0  0
  -30.3290  -19.0260   21.1110 C   0  0  0  0  0  3  0  0  0  0  0  0
  -29.3670  -19.4850   20.1820 C   0  0  0  0  0  3  0  0  0  0  0  0
  -31.0460  -17.8290   20.8830 C   0  0  0  0  0  3  0  0  0  0  0  0
  -29.8560  -17.5690   18.7700 C   0  0  0  0  0  3  0  0  0  0  0  0
  -29.1180  -18.7470   19.0020 C   0  0  0  0  0  0  0  0  0  0  0  0
  -30.7940  -17.0920   19.7050 C   0  0  0  0  0  0  0  0  0  0  0  0
  -32.0960  -14.9750   20.1140 C   0  0  0  0  0  0  0  0  0  0  0  0
  -31.8260  -12.7250   19.2100 C   0  0  0  0  0  2  0  0  0  0  0  0
  -30.8650  -12.8700   18.0050 C   0  0  0  0  0  2  0  0  0  0  0  0
  -29.3890  -12.8050   18.4610 C   0  0  0  0  0  2  0  0  0  0  0  0
  -29.0710  -13.7190   19.6740 C   0  0  0  0  0  3  0  0  0  0  0  0
  -30.1520  -13.5760   20.7760 C   0  0  0  0  0  2  0  0  0  0  0  0
  -31.4780  -13.7740   20.1680 N   0  0  0  0  0  0  0  0  0  0  0  0
  -33.3130  -15.1430   20.0310 O   0  0  0  0  0  0  0  0  0  0  0  0
  -31.3160  -15.8100   19.4200 N   0  0  0  0  0  0  0  0  0  0  0  0
  -30.7430  -15.2980   18.7700 H   0  0  0  0  0  0  0  0  0  0  0  0
  -26.7650  -14.4380   20.5570 C   0  0  0  0  0  0  0  0  0  0  0  0
  -25.6470  -13.7180   20.8790 C   0  0  0  0  0  0  0  0  0  0  0  0
  -25.9930  -12.3450   20.6820 C   0  0  0  0  0  0  0  0  0  0  0  0
  -27.7230  -13.5050   20.1880 N   0  0  0  0  0  0  0  0  0  0  0  0
  -27.2650  -12.2370   20.3210 N   0  0  0  0  0  0  0  0  0  0  0  0
  -25.1750  -11.1300   20.7560 C   0  0  0  0  0  0  0  0  0  0  0  0
  -25.5080  -10.0720   21.6300 C   0  0  0  0  0  3  0  0  0  0  0  0
  -24.6980   -8.9180   21.6990 C   0  0  0  0  0  3  0  0  0  0  0  0
  -23.5400   -8.8170   20.8920 C   0  0  0  0  0  0  0  0  0  0  0  0
  -23.2230   -9.8650   20.0110 C   0  0  0  0  0  3  0  0  0  0  0  0
  -24.0330  -11.0100   19.9390 C   0  0  0  0  0  3  0  0  0  0  0  0
  -22.7050   -7.7260   20.8760 O   0  0  0  0  0  0  0  0  0  0  0  0
  -22.4520   -6.9970   22.0110 C   0  0  0  0  0  0  0  0  0  0  0  0
  -21.8730   -7.5820   23.1570 C   0  0  0  0  0  3  0  0  0  0  0  0
  -21.5630   -6.7820   24.2760 C   0  0  0  0  0  3  0  0  0  0  0  0
  -21.8200   -5.3990   24.2470 C   0  0  0  0  0  0  0  0  0  0  0  0
  -22.3920   -4.8130   23.1030 C   0  0  0  0  0  3  0  0  0  0  0  0
  -22.7030   -5.6100   21.9870 C   0  0  0  0  0  0  0  0  0  0  0  0
  -23.2350   -5.0370   20.8810 F   0  0  0  0  0  0  0  0  0  0  0  0
  -21.5140   -4.6290   25.3180 F   0  0  0  0  0  0  0  0  0  0  0  0
  -24.3020  -14.2700   21.2550 C   0  0  0  0  0  0  0  0  0  0  0  0
  -23.5390  -13.5390   22.0610 N   0  0  0  0  0  0  0  0  0  0  0  0
  -23.9370  -15.3820   20.8730 O   0  0  0  0  0  0  0  0  0  0  0  0
  -23.8440  -12.6390   22.4010 H   0  0  0  0  0  0  0  0  0  0  0  0
  -22.6340  -13.8870   22.3450 H   0  0  0  0  0  0  0  0  0  0  0  0
  -27.0370  -15.8040   20.5220 N   0  0  0  0  0  0  0  0  0  0  0  0
  -26.3260  -16.4970   20.7210 H   0  0  0  0  0  0  0  0  0  0  0  0
  -27.9240  -16.2130   20.2500 H   0  0  0  0  0  0  0  0  0  0  0  0
  2  1  1  0
  3  2  1  0
  4  3  1  0
  5  4  1  0
  6  5  1  0
  7  6  1  0
  7  8  1  0
  8  9  1  0
  9 10  1  0
 10 11  1  0
 11 12  1  0
 12 13  1  0
 14 16  1  0
 14 13  1  0
 15 26  2  0
 16 21  1  0
 17 25  1  0
 17 27  1  0
 18 24  1  0
 18 20  1  0
 19 25  1  0
 20 19  1  0
 21 20  2  0
 22 23  1  0
 22 16  2  0
 23 18  2  0
 24 17  1  0
 25 15  1  0
 27 29  2  0
 28 27  1  0
 30 28  1  0
 31 40  2  0
 31 36  1  0
 32 28  1  0
 32 36  1  0
 33 32  1  0
 34 35  1  0
 34 33  1  0
 35 31  1  0
 36 37  2  0
 37 38  1  0
 39 38  2  0
 40 39  1  0
 41 15  1  0
 41 46  1  0
 41 42  1  0
 42 45  1  1
 42 43  1  0
 44 42  1  0
 46 49  1  0
 47 51  1  0
 47 46  1  0
 48 47  2  0
 51 50  1  0
 51 53  1  0
 53 54  1  0
 53 52  1  0
 55 56  1  0
 55  1  1  0
 57 56  1  0
 58 57  1  0
 58 60  1  0
 59 60  1  0
 59 67  1  0
 60 62  1  0
 61 59  2  0
 64 63  2  0
 65 63  1  0
 66 67  2  0
 66 68  1  0
 67 64  1  0
 68 65  2  0
 69 75  1  0
 70 75  1  0
 71 72  1  0
 71 70  1  0
 73 72  1  0
 73 82  1  0
 73 74  1  0
 75 74  1  0
 76 69  2  0
 77 68  1  0
 77 69  1  0
 78 77  1  0
 79 80  2  0
 80 99  1  0
 81 84  1  0
 81 80  1  0
 82 83  1  0
 82 79  1  0
 83 81  2  0
 84 85  1  0
 85 86  2  0
 87 86  1  0
 88 87  2  0
 89 88  1  0
 89 84  2  0
 90 87  1  0
 90 91  1  0
 91 92  1  0
 92 93  2  0
 94 93  1  0
 94 98  1  0
 95 94  2  0
 96 91  2  0
 96 95  1  0
 97 96  1  0
 99100  1  0
100103  1  0
100102  1  0
101 99  2  0
104 79  1  0
104105  1  0
106104  1  0
M  ISO  4  13 101  14 101  69 100  77 100
M  END
>  <TORSDO>  (6) 
F 34

>  <SCORE>  (6) 
7.743

>  <name>  (6) 
5

>  <ligand_id>  (6) 
5

>  <original_smiles>  (6) 
[H]c1c([H])c(C(=O)N([H])C([H])([H])C([H])([H])OC([H])([H])C([H])([H])OC([H])([H])C([H])([H])OC([H])([H])C([H])([H])OC([H])([H])C([H])([H])OC([H])([H])C([H])([H])Oc2c([H])c([H])c3c(c2[H])C([H])([H])N(C(=O)C([H])(N([H])C(=O)C([H])(N([H])C([H])([H])[H])C([H])([H])[H])C(C([H])([H])[H])(C([H])([H])[H])C([H])([H])[H])C([H])(C(=O)N([H])C2([H])c4c([H])c([H])c([H])c([H])c4C([H])([H])C([H])([H])C2([H])[H])C3([H])[H])c([H])c(N([H])C(=O)N2C([H])([H])C([H])([H])C([H])([H])C([H])(n3nc(-c4c([H])c([H])c(Oc5c([H])c([H])c(F)c([H])c5F)c([H])c4[H])c(C(=O)N([H])[H])c3N([H])[H])C2([H])[H])c1[H]

>  <smiles>  (6) 
[H]c1c([H])c(C(=O)N([H])C([H])([H])C([H])([H])OC([H])([H])C([H])([H])OC([H])([H])C([H])([H])OC([H])([H])C([H])([H])OC([H])([H])C([H])([H])OC([H])([H])C([H])([H])Oc2c([H])c([H])c3c(c2[H])C([H])([H])N(C(=O)C([H])(N([H])C(=O)C([H])(N([H])C([H])([H])[H])C([H])([H])[H])C(C([H])([H])[H])(C([H])([H])[H])C([H])([H])[H])C([H])(C(=O)N([H])C2([H])c4c([H])c([H])c([H])c([H])c4C([H])([H])C([H])([H])C2([H])[H])C3([H])[H])c([H])c(N([H])C(=O)N2C([H])([H])C([H])([H])C([H])([H])C([H])(n3nc(-c4c([H])c([H])c(Oc5c([H])c([H])c(F)c([H])c5F)c([H])c4[H])c(C(=O)N([H])[H])c3N([H])[H])C2([H])[H])c1[H]

$$$$
6:0:0
     RDKit          3D

 86 93  0  0  1  0  0  0  0  0999 V2000
  -28.6720  -23.7700   19.9440 C   0  0  0  0  0  3  0  0  0  0  0  0
  -28.2190  -25.0910   20.7410 C   0  0  0  0  0  2  0  0  0  0  0  0
  -28.3430  -26.4570   20.1560 O   0  0  0  0  0  0  0  0  0  0  0  0
  -24.6310  -31.8710   23.2290 C   0  0  0  0  0  0  0  0  0  0  0  0
  -27.2220  -27.3030   20.1680 C   0  0  0  0  0  0  0  0  0  0  0  0
  -23.4160  -30.4700   21.5970 C   0  0  0  0  0  3  0  0  0  0  0  0
  -24.8570  -28.9120   20.1660 C   0  0  0  0  0  0  0  0  0  0  0  0
  -25.9520  -30.7900   21.3930 C   0  0  0  0  0  2  0  0  0  0  0  0
  -26.0300  -29.4080   20.7510 C   0  0  0  0  0  0  0  0  0  0  0  0
  -27.2190  -28.6170   20.7360 C   0  0  0  0  0  3  0  0  0  0  0  0
  -26.0280  -26.8560   19.5680 C   0  0  0  0  0  3  0  0  0  0  0  0
  -24.8580  -27.6420   19.5660 C   0  0  0  0  0  3  0  0  0  0  0  0
  -23.6210  -29.7890   20.2180 C   0  0  0  0  0  2  0  0  0  0  0  0
  -24.6860  -31.0620   22.1300 N   0  0  0  0  0  0  0  0  0  0  0  0
  -23.5520  -32.1480   23.7710 O   0  0  0  0  0  0  0  0  0  0  0  0
  -22.7600  -29.4560   22.5650 C   0  0  0  0  0  0  0  0  0  0  0  0
  -21.4320  -29.2780   22.4470 N   0  0  0  0  0  0  0  0  0  0  0  0
  -23.4430  -28.8320   23.3800 O   0  0  0  0  0  0  0  0  0  0  0  0
  -20.9390  -29.8330   21.7620 H   0  0  0  0  0  0  0  0  0  0  0  0
  -18.0610  -28.0720   22.9610 C   0  0  0  0  0  0  0  0  0  0  0  0
  -20.6180  -28.3420   23.2240 C   0  0  0  0  0  3  0  0  0  0  0  0
  -20.7260  -26.9080   22.6560 C   0  0  0  0  0  2  0  0  0  0  0  0
  -19.6230  -26.5770   21.6450 C   0  0  0  0  0  2  0  0  0  0  0  0
  -18.2420  -26.7200   22.2920 C   0  0  0  0  0  2  0  0  0  0  0  0
  -19.1780  -28.8410   23.3840 C   0  0  0  0  0  0  0  0  0  0  0  0
  -18.9550  -30.1060   23.9700 C   0  0  0  0  0  3  0  0  0  0  0  0
  -17.6480  -30.6030   24.1360 C   0  0  0  0  0  3  0  0  0  0  0  0
  -16.5460  -29.8320   23.7280 C   0  0  0  0  0  3  0  0  0  0  0  0
  -16.7530  -28.5680   23.1460 C   0  0  0  0  0  3  0  0  0  0  0  0
  -25.9190  -32.5040   23.8420 C   0  0  0  0  0  3  0  0  0  0  0  0
  -26.4500  -31.7270   25.1080 C   0  0  1  0  0  0  0  0  0  0  0  0
  -25.3700  -31.4840   26.1880 C   0  0  0  0  0  1  0  0  0  0  0  0
  -27.0290  -30.3510   24.7030 C   0  0  0  0  0  1  0  0  0  0  0  0
  -27.6090  -32.5180   25.7610 C   0  0  0  0  0  1  0  0  0  0  0  0
  -25.6080  -33.8990   24.1840 N   0  0  0  0  0  0  0  0  0  0  0  0
  -25.9280  -34.9580   23.4280 C   0  0  0  0  0  0  0  0  0  0  0  0
  -26.5840  -34.8640   22.3870 O   0  0  0  0  0  0  0  0  0  0  0  0
  -25.0250  -34.0460   24.9950 H   0  0  0  0  0  0  0  0  0  0  0  0
  -24.1860  -36.7460   23.1160 C   0  0  0  0  0  1  0  0  0  0  0  0
  -25.4440  -36.3430   23.9020 C   0  0  0  0  0  3  0  0  0  0  0  0
  -27.5920  -37.2310   24.6940 C   0  0  0  0  0  1  0  0  0  0  0  0
  -26.4690  -37.4000   23.7750 N   0  0  0  0  0  0  0  0  0  0  0  0
  -26.0630  -38.3180   23.9370 H   0  0  0  0  0  0  0  0  0  0  0  0
  -28.8900  -22.4000   20.7680 C   0  0  0  0  0  3  0  0  0  0  0  0
  -29.0280  -21.1070   20.0540 O   0  0  0  0  0  0  0  0  0  0  0  0
  -29.5860  -19.9460   20.7910 C   0  0  0  0  0  3  0  0  0  0  0  0
  -29.3710  -18.4490   20.2310 C   0  0  0  0  0  3  0  0  0  0  0  0
  -30.2390  -17.2470   20.8600 C   0  0  0  0  0  2  0  0  0  0  0  0
  -30.5850  -14.6890   20.3700 C   0  0  0  0  0  0  0  0  0  0  0  0
  -30.3560  -12.4350   19.3300 C   0  0  0  0  0  2  0  0  0  0  0  0
  -29.4000  -12.5300   18.1210 C   0  0  0  0  0  2  0  0  0  0  0  0
  -27.9350  -12.3670   18.5710 C   0  0  0  0  0  2  0  0  0  0  0  0
  -27.5820  -13.2470   19.8010 C   0  0  0  0  0  3  0  0  0  0  0  0
  -28.6560  -13.1330   20.9060 C   0  0  0  0  0  2  0  0  0  0  0  0
  -29.9470  -13.4750   20.2960 N   0  0  0  0  0  0  0  0  0  0  0  0
  -31.7640  -14.8020   20.0280 O   0  0  0  0  0  0  0  0  0  0  0  0
  -29.8180  -15.8000   20.6520 N   0  0  0  0  0  0  0  0  0  0  0  0
  -28.8500  -15.5990   20.8480 H   0  0  0  0  0  0  0  0  0  0  0  0
  -25.2040  -13.8450   20.5600 C   0  0  0  0  0  0  0  0  0  0  0  0
  -24.1410  -13.0720   20.9420 C   0  0  0  0  0  0  0  0  0  0  0  0
  -24.6010  -11.7200   20.9010 C   0  0  0  0  0  0  0  0  0  0  0  0
  -26.2430  -12.9630   20.3080 N   0  0  0  0  0  0  0  0  0  0  0  0
  -25.8880  -11.6800   20.5760 N   0  0  0  0  0  0  0  0  0  0  0  0
  -23.8750  -10.4580   21.0970 C   0  0  0  0  0  0  0  0  0  0  0  0
  -24.3340   -9.4730   21.9980 C   0  0  0  0  0  3  0  0  0  0  0  0
  -23.6070   -8.2760   22.1820 C   0  0  0  0  0  3  0  0  0  0  0  0
  -22.4070   -8.0570   21.4650 C   0  0  0  0  0  0  0  0  0  0  0  0
  -21.9670   -9.0320   20.5520 C   0  0  0  0  0  3  0  0  0  0  0  0
  -22.6940  -10.2200   20.3650 C   0  0  0  0  0  3  0  0  0  0  0  0
  -21.6490   -6.9150   21.5600 O   0  0  0  0  0  0  0  0  0  0  0  0
  -21.6580   -6.1390   22.6910 C   0  0  0  0  0  0  0  0  0  0  0  0
  -21.3230   -6.6630   23.9590 C   0  0  0  0  0  3  0  0  0  0  0  0
  -21.2750   -5.8140   25.0820 C   0  0  0  0  0  3  0  0  0  0  0  0
  -21.5540   -4.4410   24.9400 C   0  0  0  0  0  0  0  0  0  0  0  0
  -21.8830   -3.9170   23.6780 C   0  0  0  0  0  3  0  0  0  0  0  0
  -21.9310   -4.7620   22.5560 C   0  0  0  0  0  0  0  0  0  0  0  0
  -22.2270   -4.2470   21.3390 F   0  0  0  0  0  0  0  0  0  0  0  0
  -21.5020   -3.6230   26.0180 F   0  0  0  0  0  0  0  0  0  0  0  0
  -22.7480  -13.5510   21.2300 C   0  0  0  0  0  0  0  0  0  0  0  0
  -22.0290  -12.8560   22.1060 N   0  0  0  0  0  0  0  0  0  0  0  0
  -22.3050  -14.5760   20.7150 O   0  0  0  0  0  0  0  0  0  0  0  0
  -22.4020  -12.0270   22.5460 H   0  0  0  0  0  0  0  0  0  0  0  0
  -21.0950  -13.1600   22.3420 H   0  0  0  0  0  0  0  0  0  0  0  0
  -25.3670  -15.2150   20.3830 N   0  0  0  0  0  0  0  0  0  0  0  0
  -24.6000  -15.8680   20.5010 H   0  0  0  0  0  0  0  0  0  0  0  0
  -26.2040  -15.6530   20.0200 H   0  0  0  0  0  0  0  0  0  0  0  0
  1  2  1  0
  1 44  2  0
  3  5  1  0
  3  2  1  0
  4 15  2  0
  5 10  1  0
  6 14  1  0
  6 16  1  0
  7 13  1  0
  7  9  1  0
  8 14  1  0
  9  8  1  0
 10  9  2  0
 11  5  2  0
 12 11  1  0
 12  7  2  0
 13  6  1  0
 14  4  1  0
 16 18  2  0
 17 16  1  0
 19 17  1  0
 20 29  2  0
 20 25  1  0
 21 17  1  0
 21 25  1  0
 22 21  1  0
 23 24  1  0
 23 22  1  0
 24 20  1  0
 25 26  2  0
 26 27  1  0
 28 27  2  0
 29 28  1  0
 30  4  1  0
 30 35  1  0
 30 31  1  0
 31 34  1  1
 31 32  1  0
 33 31  1  0
 35 38  1  0
 36 40  1  0
 36 35  1  0
 37 36  2  0
 40 39  1  0
 42 40  1  0
 42 43  1  0
 42 41  1  0
 45 44  1  0
 45 46  1  0
 47 46  2  0
 47 48  1  0
 49 57  1  0
 50 55  1  0
 51 52  1  0
 51 50  1  0
 53 52  1  0
 53 62  1  0
 53 54  1  0
 55 49  1  0
 55 54  1  0
 56 49  2  0
 57 58  1  0
 57 48  1  0
 59 60  2  0
 60 79  1  0
 61 60  1  0
 61 64  1  0
 62 59  1  0
 62 63  1  0
 63 61  2  0
 64 65  1  0
 65 66  2  0
 67 70  1  0
 67 66  1  0
 68 67  2  0
 69 68  1  0
 69 64  2  0
 70 71  1  0
 71 72  1  0
 72 73  2  0
 74 73  1  0
 74 78  1  0
 75 74  2  0
 76 71  2  0
 76 75  1  0
 77 76  1  0
 79 80  1  0
 80 83  1  0
 80 82  1  0
 81 79  2  0
 84 85  1  0
 84 59  1  0
 86 84  1  0
M  ISO  4   2 101   3 101  49 100  57 100
M  END
>  <TORSDO>  (7) 
F 22

>  <SCORE>  (7) 
-12.830

>  <name>  (7) 
6

>  <ligand_id>  (7) 
6

>  <original_smiles>  (7) 
[H]c1c([H])c([H])c2c(c1[H])C([H])([H])C([H])([H])C([H])([H])C2([H])N([H])C(=O)C1([H])N(C(=O)C([H])(N([H])C(=O)C([H])(N([H])C([H])([H])[H])C([H])([H])[H])C(C([H])([H])[H])(C([H])([H])[H])C([H])([H])[H])C([H])([H])c2c([H])c(OC([H])([H])C([H])([H])C([H])([H])OC([H])([H])C([H])([H])C([H])([H])N([H])C(=O)N3C([H])([H])C([H])([H])C([H])([H])C([H])(n4nc(-c5c([H])c([H])c(Oc6c([H])c([H])c(F)c([H])c6F)c([H])c5[H])c(C(=O)N([H])[H])c4N([H])[H])C3([H])[H])c([H])c([H])c2C1([H])[H]

>  <smiles>  (7) 
[H]c1c([H])c([H])c2c(c1[H])C([H])([H])C([H])([H])C([H])([H])C2([H])N([H])C(=O)C1([H])N(C(=O)C([H])(N([H])C(=O)C([H])(N([H])C([H])([H])[H])C([H])([H])[H])C(C([H])([H])[H])(C([H])([H])[H])C([H])([H])[H])C([H])([H])c2c([H])c(OC([H])([H])C([H])([H])C([H])([H])OC([H])([H])C([H])([H])C([H])([H])N([H])C(=O)N3C([H])([H])C([H])([H])C([H])([H])C([H])(n4nc(-c5c([H])c([H])c(Oc6c([H])c([H])c(F)c([H])c6F)c([H])c5[H])c(C(=O)N([H])[H])c4N([H])[H])C3([H])[H])c([H])c([H])c2C1([H])[H]

$$$$
7:0:0
     RDKit          3D

 91 98  0  0  1  0  0  0  0  0999 V2000
  -31.2390  -22.6880   18.0780 C   0  0  0  0  0  2  0  0  0  0  0  0
  -30.2500  -23.3400   18.8620 O   0  0  0  0  0  0  0  0  0  0  0  0
  -30.7420  -24.3830   19.6920 C   0  0  0  0  0  2  0  0  0  0  0  0
  -29.6450  -24.6750   20.7250 C   0  0  0  0  0  2  0  0  0  0  0  0
  -28.3580  -25.2650   20.1230 C   0  0  0  0  0  2  0  0  0  0  0  0
  -28.4190  -26.6870   20.1630 O   0  0  0  0  0  0  0  0  0  0  0  0
  -24.5810  -31.7900   23.2440 C   0  0  0  0  0  0  0  0  0  0  0  0
  -27.2240  -27.3700   20.1540 C   0  0  0  0  0  0  0  0  0  0  0  0
  -23.3740  -30.4070   21.5840 C   0  0  0  0  0  3  0  0  0  0  0  0
  -24.8260  -28.8650   20.1640 C   0  0  0  0  0  0  0  0  0  0  0  0
  -25.9000  -30.7550   21.4030 C   0  0  0  0  0  2  0  0  0  0  0  0
  -25.9800  -29.3880   20.7590 C   0  0  0  0  0  0  0  0  0  0  0  0
  -27.1820  -28.6470   20.7490 C   0  0  0  0  0  3  0  0  0  0  0  0
  -26.0490  -26.8510   19.5610 C   0  0  0  0  0  3  0  0  0  0  0  0
  -24.8540  -27.5930   19.5660 C   0  0  0  0  0  3  0  0  0  0  0  0
  -23.5850  -29.7290   20.2050 C   0  0  0  0  0  2  0  0  0  0  0  0
  -24.6360  -30.9980   22.1370 N   0  0  0  0  0  0  0  0  0  0  0  0
  -23.4990  -32.0670   23.7790 O   0  0  0  0  0  0  0  0  0  0  0  0
  -22.7080  -29.3890   22.5350 C   0  0  0  0  0  0  0  0  0  0  0  0
  -21.3800  -29.2270   22.4010 N   0  0  0  0  0  0  0  0  0  0  0  0
  -23.3800  -28.7440   23.3450 O   0  0  0  0  0  0  0  0  0  0  0  0
  -20.8990  -29.7940   21.7170 H   0  0  0  0  0  0  0  0  0  0  0  0
  -17.9900  -28.0860   22.8920 C   0  0  0  0  0  0  0  0  0  0  0  0
  -20.5500  -28.2950   23.1640 C   0  0  0  0  0  3  0  0  0  0  0  0
  -20.6290  -26.8700   22.5720 C   0  0  0  0  0  2  0  0  0  0  0  0
  -19.5220  -26.5780   21.5540 C   0  0  0  0  0  2  0  0  0  0  0  0
  -18.1440  -26.7420   22.2000 C   0  0  0  0  0  2  0  0  0  0  0  0
  -19.1210  -28.8220   23.3310 C   0  0  0  0  0  0  0  0  0  0  0  0
  -18.9270  -30.0830   23.9360 C   0  0  0  0  0  3  0  0  0  0  0  0
  -17.6330  -30.6090   24.1050 C   0  0  0  0  0  3  0  0  0  0  0  0
  -16.5140  -29.8690   23.6840 C   0  0  0  0  0  3  0  0  0  0  0  0
  -16.6930  -28.6080   23.0840 C   0  0  0  0  0  3  0  0  0  0  0  0
  -25.8680  -32.4060   23.8770 C   0  0  0  0  0  3  0  0  0  0  0  0
  -26.3830  -31.6120   25.1400 C   0  0  1  0  0  0  0  0  0  0  0  0
  -25.2920  -31.3610   26.2060 C   0  0  0  0  0  1  0  0  0  0  0  0
  -26.9570  -30.2390   24.7220 C   0  0  0  0  0  1  0  0  0  0  0  0
  -27.5400  -32.3900   25.8100 C   0  0  0  0  0  1  0  0  0  0  0  0
  -25.5650  -33.8010   24.2250 N   0  0  0  0  0  0  0  0  0  0  0  0
  -25.9050  -34.8590   23.4780 C   0  0  0  0  0  0  0  0  0  0  0  0
  -26.5780  -34.7650   22.4480 O   0  0  0  0  0  0  0  0  0  0  0  0
  -24.9660  -33.9470   25.0240 H   0  0  0  0  0  0  0  0  0  0  0  0
  -24.1840  -36.6640   23.1420 C   0  0  0  0  0  1  0  0  0  0  0  0
  -25.4230  -36.2460   23.9510 C   0  0  0  0  0  3  0  0  0  0  0  0
  -27.5630  -37.1080   24.7880 C   0  0  0  0  0  1  0  0  0  0  0  0
  -26.4570  -37.2970   23.8530 N   0  0  0  0  0  0  0  0  0  0  0  0
  -26.0560  -38.2150   24.0210 H   0  0  0  0  0  0  0  0  0  0  0  0
  -30.5720  -21.4970   17.3710 C   0  0  0  0  0  2  0  0  0  0  0  0
  -30.1060  -20.5770   18.3550 O   0  0  0  0  0  0  0  0  0  0  0  0
  -29.3800  -19.4790   17.8140 C   0  0  0  0  0  2  0  0  0  0  0  0
  -28.6630  -18.7400   18.9540 C   0  0  0  0  0  2  0  0  0  0  0  0
  -29.5720  -17.9120   19.6770 O   0  0  0  0  0  0  0  0  0  0  0  0
  -28.9790  -17.3220   20.8340 C   0  0  0  0  0  2  0  0  0  0  0  0
  -29.8000  -16.0960   21.2650 C   0  0  0  0  0  2  0  0  0  0  0  0
  -30.8730  -14.2270   20.0320 C   0  0  0  0  0  0  0  0  0  0  0  0
  -30.4380  -12.1100   18.8790 C   0  0  0  0  0  2  0  0  0  0  0  0
  -29.4420  -12.3880   17.7320 C   0  0  0  0  0  2  0  0  0  0  0  0
  -27.9880  -12.3180   18.2430 C   0  0  0  0  0  2  0  0  0  0  0  0
  -27.7560  -13.1430   19.5370 C   0  0  0  0  0  3  0  0  0  0  0  0
  -28.8540  -12.8350   20.5790 C   0  0  0  0  0  2  0  0  0  0  0  0
  -30.1550  -13.0810   19.9420 N   0  0  0  0  0  0  0  0  0  0  0  0
  -32.0240  -14.3470   19.6130 O   0  0  0  0  0  0  0  0  0  0  0  0
  -30.1120  -15.3220   20.0720 N   0  0  0  0  0  0  0  0  0  0  0  0
  -30.3890  -15.9830   19.3570 H   0  0  0  0  0  0  0  0  0  0  0  0
  -25.4170  -13.8530   20.3500 C   0  0  0  0  0  0  0  0  0  0  0  0
  -24.3330  -13.1240   20.7630 C   0  0  0  0  0  0  0  0  0  0  0  0
  -24.7370  -11.7540   20.7120 C   0  0  0  0  0  0  0  0  0  0  0  0
  -26.4160  -12.9290   20.0780 N   0  0  0  0  0  0  0  0  0  0  0  0
  -26.0110  -11.6630   20.3500 N   0  0  0  0  0  0  0  0  0  0  0  0
  -23.9710  -10.5200   20.9280 C   0  0  0  0  0  0  0  0  0  0  0  0
  -24.4010   -9.5340   21.8430 C   0  0  0  0  0  3  0  0  0  0  0  0
  -23.6350   -8.3660   22.0490 C   0  0  0  0  0  3  0  0  0  0  0  0
  -22.4250   -8.1770   21.3390 C   0  0  0  0  0  0  0  0  0  0  0  0
  -22.0160   -9.1510   20.4110 C   0  0  0  0  0  3  0  0  0  0  0  0
  -22.7810  -10.3100   20.2030 C   0  0  0  0  0  3  0  0  0  0  0  0
  -21.6300   -7.0630   21.4540 O   0  0  0  0  0  0  0  0  0  0  0  0
  -21.5930   -6.3220   22.6090 C   0  0  0  0  0  0  0  0  0  0  0  0
  -21.2490   -6.9010   23.8510 C   0  0  0  0  0  3  0  0  0  0  0  0
  -21.1540   -6.0910   25.0010 C   0  0  0  0  0  3  0  0  0  0  0  0
  -21.3940   -4.7080   24.9090 C   0  0  0  0  0  0  0  0  0  0  0  0
  -21.7310   -4.1310   23.6720 C   0  0  0  0  0  3  0  0  0  0  0  0
  -21.8280   -4.9360   22.5240 C   0  0  0  0  0  0  0  0  0  0  0  0
  -22.1340   -4.3720   21.3300 F   0  0  0  0  0  0  0  0  0  0  0  0
  -21.2940   -3.9280   26.0110 F   0  0  0  0  0  0  0  0  0  0  0  0
  -22.9680  -13.6580   21.0920 C   0  0  0  0  0  0  0  0  0  0  0  0
  -22.2500  -12.9900   21.9890 N   0  0  0  0  0  0  0  0  0  0  0  0
  -22.5460  -14.6990   20.5900 O   0  0  0  0  0  0  0  0  0  0  0  0
  -22.6020  -12.1470   22.4160 H   0  0  0  0  0  0  0  0  0  0  0  0
  -21.3380  -13.3320   22.2590 H   0  0  0  0  0  0  0  0  0  0  0  0
  -25.6310  -15.2160   20.1630 N   0  0  0  0  0  0  0  0  0  0  0  0
  -24.8940  -15.9000   20.2950 H   0  0  0  0  0  0  0  0  0  0  0  0
  -26.4860  -15.6110   19.7970 H   0  0  0  0  0  0  0  0  0  0  0  0
  1  2  1  0
  2  3  1  0
  3  4  1  0
  5  6  1  0
  5  4  1  0
  7 18  2  0
  8  6  1  0
  8 13  1  0
  9 17  1  0
  9 19  1  0
 10 16  1  0
 10 12  1  0
 11 17  1  0
 12 11  1  0
 13 12  2  0
 14 15  1  0
 14  8  2  0
 15 10  2  0
 16  9  1  0
 17  7  1  0
 19 21  2  0
 20 19  1  0
 22 20  1  0
 23 32  2  0
 23 28  1  0
 24 20  1  0
 24 28  1  0
 25 24  1  0
 26 27  1  0
 26 25  1  0
 27 23  1  0
 28 29  2  0
 29 30  1  0
 31 30  2  0
 32 31  1  0
 33  7  1  0
 33 38  1  0
 33 34  1  0
 34 37  1  1
 34 35  1  0
 36 34  1  0
 38 41  1  0
 39 43  1  0
 39 38  1  0
 40 39  2  0
 43 42  1  0
 45 43  1  0
 45 46  1  0
 45 44  1  0
 47  1  1  0
 47 48  1  0
 49 48  1  0
 49 50  1  0
 50 51  1  0
 51 52  1  0
 52 53  1  0
 54 62  1  0
 55 60  1  0
 56 57  1  0
 56 55  1  0
 58 57  1  0
 58 67  1  0
 58 59  1  0
 60 54  1  0
 60 59  1  0
 61 54  2  0
 62 53  1  0
 63 62  1  0
 64 65  2  0
 65 84  1  0
 66 65  1  0
 66 69  1  0
 67 64  1  0
 67 68  1  0
 68 66  2  0
 69 70  1  0
 70 71  2  0
 72 75  1  0
 72 71  1  0
 73 72  2  0
 74 73  1  0
 74 69  2  0
 75 76  1  0
 76 77  1  0
 77 78  2  0
 79 78  1  0
 79 83  1  0
 80 79  2  0
 81 76  2  0
 81 80  1  0
 82 81  1  0
 84 85  1  0
 85 88  1  0
 85 87  1  0
 86 84  2  0
 89 90  1  0
 89 64  1  0
 91 89  1  0
M  ISO  4   5 101   6 101  54 100  62 100
M  END
>  <TORSDO>  (8) 
F 27

>  <SCORE>  (8) 
-11.387

>  <name>  (8) 
7

>  <ligand_id>  (8) 
7

>  <original_smiles>  (8) 
[H]c1c([H])c([H])c2c(c1[H])C([H])([H])C([H])([H])C([H])([H])C2([H])N([H])C(=O)C1([H])N(C(=O)C([H])(N([H])C(=O)C([H])(N([H])C([H])([H])[H])C([H])([H])[H])C(C([H])([H])[H])(C([H])([H])[H])C([H])([H])[H])C([H])([H])c2c([H])c(OC([H])([H])C([H])([H])C([H])([H])OC([H])([H])C([H])([H])OC([H])([H])C([H])([H])OC([H])([H])C([H])([H])N([H])C(=O)N3C([H])([H])C([H])([H])C([H])([H])C([H])(n4nc(-c5c([H])c([H])c(Oc6c([H])c([H])c(F)c([H])c6F)c([H])c5[H])c(C(=O)N([H])[H])c4N([H])[H])C3([H])[H])c([H])c([H])c2C1([H])[H]

>  <smiles>  (8) 
[H]c1c([H])c([H])c2c(c1[H])C([H])([H])C([H])([H])C([H])([H])C2([H])N([H])C(=O)C1([H])N(C(=O)C([H])(N([H])C(=O)C([H])(N([H])C([H])([H])[H])C([H])([H])[H])C(C([H])([H])[H])(C([H])([H])[H])C([H])([H])[H])C([H])([H])c2c([H])c(OC([H])([H])C([H])([H])C([H])([H])OC([H])([H])C([H])([H])OC([H])([H])C([H])([H])OC([H])([H])C([H])([H])N([H])C(=O)N3C([H])([H])C([H])([H])C([H])([H])C([H])(n4nc(-c5c([H])c([H])c(Oc6c([H])c([H])c(F)c([H])c6F)c([H])c5[H])c(C(=O)N([H])[H])c4N([H])[H])C3([H])[H])c([H])c([H])c2C1([H])[H]

$$$$
8:0:0
     RDKit          3D

 93100  0  0  1  0  0  0  0  0999 V2000
  -25.1720  -23.3380   22.0120 O   0  0  0  0  0  0  0  0  0  0  0  0
  -26.2330  -22.5500   22.5490 C   0  0  0  0  0  2  0  0  0  0  0  0
  -27.1620  -22.1360   21.4030 C   0  0  0  0  0  2  0  0  0  0  0  0
  -27.8580  -23.2870   20.9350 O   0  0  0  0  0  0  0  0  0  0  0  0
  -28.6680  -23.0240   19.7970 C   0  0  0  0  0  2  0  0  0  0  0  0
  -29.5750  -24.2400   19.5130 C   0  0  0  0  0  2  0  0  0  0  0  0
  -30.8040  -24.2090   20.2400 O   0  0  0  0  0  0  0  0  0  0  0  0
  -31.4300  -22.9330   20.2120 C   0  0  0  0  0  2  0  0  0  0  0  0
  -32.7020  -22.9100   21.0740 C   0  0  0  0  0  2  0  0  0  0  0  0
  -33.9700  -20.7620   21.0540 C   0  0  0  0  0  0  0  0  0  0  0  0
  -34.6360  -18.4370   20.5590 C   0  0  0  0  0  2  0  0  0  0  0  0
  -34.2500  -18.0470   19.1180 C   0  0  0  0  0  2  0  0  0  0  0  0
  -32.7880  -17.5610   19.0440 C   0  0  0  0  0  2  0  0  0  0  0  0
  -31.8040  -18.5330   19.7430 C   0  0  0  0  0  3  0  0  0  0  0  0
  -32.3180  -18.8710   21.1600 C   0  0  0  0  0  2  0  0  0  0  0  0
  -33.6770  -19.4380   21.0480 N   0  0  0  0  0  0  0  0  0  0  0  0
  -35.0520  -21.2340   20.6970 O   0  0  0  0  0  0  0  0  0  0  0  0
  -32.9600  -21.5300   21.4660 N   0  0  0  0  0  0  0  0  0  0  0  0
  -32.1740  -21.0280   21.8550 H   0  0  0  0  0  0  0  0  0  0  0  0
  -29.2290  -18.6350   19.6990 C   0  0  0  0  0  0  0  0  0  0  0  0
  -28.2770  -17.6520   19.7250 C   0  0  0  0  0  0  0  0  0  0  0  0
  -28.9880  -16.4160   19.8140 C   0  0  0  0  0  0  0  0  0  0  0  0
  -30.4510  -17.9850   19.7830 N   0  0  0  0  0  0  0  0  0  0  0  0
  -30.2910  -16.6430   19.9070 N   0  0  0  0  0  0  0  0  0  0  0  0
  -28.5070  -15.0300   19.7650 C   0  0  0  0  0  0  0  0  0  0  0  0
  -28.7270  -14.1350   20.8330 C   0  0  0  0  0  3  0  0  0  0  0  0
  -28.2440  -12.8100   20.7690 C   0  0  0  0  0  3  0  0  0  0  0  0
  -27.5260  -12.3710   19.6300 C   0  0  0  0  0  0  0  0  0  0  0  0
  -27.3310  -13.2600   18.5580 C   0  0  0  0  0  3  0  0  0  0  0  0
  -27.8180  -14.5750   18.6210 C   0  0  0  0  0  3  0  0  0  0  0  0
  -27.0370  -11.0970   19.4710 O   0  0  0  0  0  0  0  0  0  0  0  0
  -26.5820  -10.3630   20.5370 C   0  0  0  0  0  0  0  0  0  0  0  0
  -25.5340  -10.8190   21.3660 C   0  0  0  0  0  3  0  0  0  0  0  0
  -25.0500   -9.9980   22.4040 C   0  0  0  0  0  3  0  0  0  0  0  0
  -25.6010   -8.7200   22.6100 C   0  0  0  0  0  0  0  0  0  0  0  0
  -26.6430   -8.2630   21.7820 C   0  0  0  0  0  3  0  0  0  0  0  0
  -27.1270   -9.0800   20.7470 C   0  0  0  0  0  0  0  0  0  0  0  0
  -28.1140   -8.6240   19.9380 F   0  0  0  0  0  0  0  0  0  0  0  0
  -25.1330   -7.9280   23.6030 F   0  0  0  0  0  0  0  0  0  0  0  0
  -26.7940  -17.8330   19.5780 C   0  0  0  0  0  0  0  0  0  0  0  0
  -26.0020  -16.9500   20.1780 N   0  0  0  0  0  0  0  0  0  0  0  0
  -26.3260  -18.7950   18.9700 O   0  0  0  0  0  0  0  0  0  0  0  0
  -26.3800  -16.1720   20.6990 H   0  0  0  0  0  0  0  0  0  0  0  0
  -24.9990  -17.0520   20.1100 H   0  0  0  0  0  0  0  0  0  0  0  0
  -29.1610  -20.0220   19.5910 N   0  0  0  0  0  0  0  0  0  0  0  0
  -28.2780  -20.4970   19.4340 H   0  0  0  0  0  0  0  0  0  0  0  0
  -29.9640  -20.6210   19.4610 H   0  0  0  0  0  0  0  0  0  0  0  0
  -24.9040  -24.5320   22.7430 C   0  0  0  0  0  2  0  0  0  0  0  0
  -26.0460  -25.5490   22.5820 C   0  0  0  0  0  2  0  0  0  0  0  0
  -26.3250  -25.7290   21.1990 O   0  0  0  0  0  0  0  0  0  0  0  0
  -27.7110  -25.8930   20.9330 C   0  0  0  0  0  2  0  0  0  0  0  0
  -27.9270  -26.4910   19.5320 C   0  0  0  0  0  2  0  0  0  0  0  0
  -27.9490  -27.9210   19.5800 O   0  0  0  0  0  0  0  0  0  0  0  0
  -24.5820  -32.4860   23.8510 C   0  0  0  0  0  0  0  0  0  0  0  0
  -26.7770  -28.6050   19.8200 C   0  0  0  0  0  0  0  0  0  0  0  0
  -23.1840  -31.4170   22.1130 C   0  0  0  0  0  3  0  0  0  0  0  0
  -24.4440  -30.1210   20.3180 C   0  0  0  0  0  0  0  0  0  0  0  0
  -25.6910  -31.7550   21.7440 C   0  0  0  0  0  2  0  0  0  0  0  0
  -25.6680  -30.5160   20.8720 C   0  0  0  0  0  0  0  0  0  0  0  0
  -26.8360  -29.7680   20.6170 C   0  0  0  0  0  3  0  0  0  0  0  0
  -25.5330  -28.2160   19.2720 C   0  0  0  0  0  3  0  0  0  0  0  0
  -24.3700  -28.9690   19.5180 C   0  0  0  0  0  3  0  0  0  0  0  0
  -23.2430  -30.9840   20.6240 C   0  0  0  0  0  2  0  0  0  0  0  0
  -24.5100  -31.8890   22.6270 N   0  0  0  0  0  0  0  0  0  0  0  0
  -23.5650  -32.6820   24.5290 O   0  0  0  0  0  0  0  0  0  0  0  0
  -22.5850  -30.2560   22.9400 C   0  0  0  0  0  0  0  0  0  0  0  0
  -21.2770  -30.0070   22.7620 N   0  0  0  0  0  0  0  0  0  0  0  0
  -23.2940  -29.5870   23.6960 O   0  0  0  0  0  0  0  0  0  0  0  0
  -20.7650  -30.6070   22.1320 H   0  0  0  0  0  0  0  0  0  0  0  0
  -18.0310  -28.4260   22.8830 C   0  0  0  0  0  0  0  0  0  0  0  0
  -20.5100  -28.9410   23.4050 C   0  0  0  0  0  3  0  0  0  0  0  0
  -20.8240  -27.5670   22.7700 C   0  0  0  0  0  2  0  0  0  0  0  0
  -19.8570  -27.1890   21.6430 C   0  0  0  0  0  2  0  0  0  0  0  0
  -18.4170  -27.1460   22.1610 C   0  0  0  0  0  2  0  0  0  0  0  0
  -19.0150  -29.2770   23.4520 C   0  0  0  0  0  0  0  0  0  0  0  0
  -18.6040  -30.4740   24.0810 C   0  0  0  0  0  3  0  0  0  0  0  0
  -17.2410  -30.8200   24.1480 C   0  0  0  0  0  3  0  0  0  0  0  0
  -16.2710  -29.9670   23.5960 C   0  0  0  0  0  3  0  0  0  0  0  0
  -16.6660  -28.7710   22.9690 C   0  0  0  0  0  3  0  0  0  0  0  0
  -25.9420  -32.9700   24.4450 C   0  0  0  0  0  3  0  0  0  0  0  0
  -26.4700  -32.0580   25.6190 C   0  0  1  0  0  0  0  0  0  0  0  0
  -25.4150  -31.7830   26.7150 C   0  0  0  0  0  1  0  0  0  0  0  0
  -26.9540  -30.6940   25.0750 C   0  0  0  0  0  1  0  0  0  0  0  0
  -27.6960  -32.7260   26.2880 C   0  0  0  0  0  1  0  0  0  0  0  0
  -25.7540  -34.3520   24.9040 N   0  0  0  0  0  0  0  0  0  0  0  0
  -26.1440  -35.4400   24.2250 C   0  0  0  0  0  0  0  0  0  0  0  0
  -26.7700  -35.3760   23.1640 O   0  0  0  0  0  0  0  0  0  0  0  0
  -25.2020  -34.4810   25.7390 H   0  0  0  0  0  0  0  0  0  0  0  0
  -24.5540  -37.3820   24.0820 C   0  0  0  0  0  1  0  0  0  0  0  0
  -25.7800  -36.8150   24.8160 C   0  0  0  0  0  3  0  0  0  0  0  0
  -27.9990  -37.4550   25.6470 C   0  0  0  0  0  1  0  0  0  0  0  0
  -26.8890  -37.7920   24.7600 N   0  0  0  0  0  0  0  0  0  0  0  0
  -26.5620  -38.7240   25.0000 H   0  0  0  0  0  0  0  0  0  0  0  0
  1  2  1  0
  1 48  1  0
  3  2  1  0
  4  3  1  0
  5  4  1  0
  6  5  1  0
  6  7  1  0
  8  7  1  0
  8  9  1  0
  9 18  1  0
 10 18  1  0
 11 16  1  0
 12 11  1  0
 13 12  1  0
 14 13  1  0
 14 23  1  0
 14 15  1  0
 16 10  1  0
 16 15  1  0
 17 10  2  0
 18 19  1  0
 20 21  2  0
 20 23  1  0
 21 22  1  0
 22 24  2  0
 23 24  1  0
 25 22  1  0
 25 26  1  0
 27 26  2  0
 28 27  1  0
 29 30  1  0
 29 28  2  0
 30 25  2  0
 31 28  1  0
 31 32  1  0
 32 37  2  0
 32 33  1  0
 33 34  2  0
 34 35  1  0
 35 39  1  0
 36 35  2  0
 37 36  1  0
 38 37  1  0
 40 21  1  0
 40 41  1  0
 41 43  1  0
 42 40  2  0
 44 41  1  0
 45 20  1  0
 46 45  1  0
 47 45  1  0
 49 48  1  0
 50 49  1  0
 51 50  1  0
 52 53  1  0
 52 51  1  0
 53 55  1  0
 54 65  2  0
 55 60  1  0
 56 64  1  0
 56 66  1  0
 57 63  1  0
 57 59  1  0
 58 64  1  0
 59 58  1  0
 60 59  2  0
 61 62  1  0
 61 55  2  0
 62 57  2  0
 63 56  1  0
 64 54  1  0
 66 68  2  0
 67 66  1  0
 69 67  1  0
 70 79  2  0
 70 75  1  0
 71 67  1  0
 71 75  1  0
 72 71  1  0
 73 74  1  0
 73 72  1  0
 74 70  1  0
 75 76  2  0
 76 77  1  0
 78 77  2  0
 79 78  1  0
 80 54  1  0
 80 85  1  0
 80 81  1  0
 81 84  1  1
 81 82  1  0
 83 81  1  0
 85 88  1  0
 86 90  1  0
 86 85  1  0
 87 86  2  0
 90 89  1  0
 92 90  1  0
 92 93  1  0
 92 91  1  0
M  ISO  4  10 100  18 100  52 101  53 101
M  END
>  <TORSDO>  (9) 
F 29

>  <SCORE>  (9) 
-2.990

>  <name>  (9) 
8

>  <ligand_id>  (9) 
8

>  <original_smiles>  (9) 
[H]c1c([H])c([H])c2c(c1[H])C([H])([H])C([H])([H])C([H])([H])C2([H])N([H])C(=O)C1([H])N(C(=O)C([H])(N([H])C(=O)C([H])(N([H])C([H])([H])[H])C([H])([H])[H])C(C([H])([H])[H])(C([H])([H])[H])C([H])([H])[H])C([H])([H])c2c([H])c(OC([H])([H])C([H])([H])OC([H])([H])C([H])([H])OC([H])([H])C([H])([H])OC([H])([H])C([H])([H])OC([H])([H])C([H])([H])N([H])C(=O)N3C([H])([H])C([H])([H])C([H])([H])C([H])(n4nc(-c5c([H])c([H])c(Oc6c([H])c([H])c(F)c([H])c6F)c([H])c5[H])c(C(=O)N([H])[H])c4N([H])[H])C3([H])[H])c([H])c([H])c2C1([H])[H]

>  <smiles>  (9) 
[H]c1c([H])c([H])c2c(c1[H])C([H])([H])C([H])([H])C([H])([H])C2([H])N([H])C(=O)C1([H])N(C(=O)C([H])(N([H])C(=O)C([H])(N([H])C([H])([H])[H])C([H])([H])[H])C(C([H])([H])[H])(C([H])([H])[H])C([H])([H])[H])C([H])([H])c2c([H])c(OC([H])([H])C([H])([H])OC([H])([H])C([H])([H])OC([H])([H])C([H])([H])OC([H])([H])C([H])([H])OC([H])([H])C([H])([H])N([H])C(=O)N3C([H])([H])C([H])([H])C([H])([H])C([H])(n4nc(-c5c([H])c([H])c(Oc6c([H])c([H])c(F)c([H])c6F)c([H])c5[H])c(C(=O)N([H])[H])c4N([H])[H])C3([H])[H])c([H])c([H])c2C1([H])[H]

$$$$
9:0:0
     RDKit          3D

105112  0  0  1  0  0  0  0  0999 V2000
  -22.7690  -24.0700   23.2930 C   0  0  0  0  0  2  0  0  0  0  0  0
  -23.8180  -24.1170   22.3410 O   0  0  0  0  0  0  0  0  0  0  0  0
  -23.3970  -23.9520   20.9970 C   0  0  0  0  0  2  0  0  0  0  0  0
  -24.5920  -24.2880   20.1010 C   0  0  0  0  0  0  0  0  0  0  0  0
  -24.9790  -23.3540   19.2190 N   0  0  0  0  0  0  0  0  0  0  0  0
  -25.1620  -25.3720   20.2430 O   0  0  0  0  0  0  0  0  0  0  0  0
  -24.4310  -22.5030   19.2230 H   0  0  0  0  0  0  0  0  0  0  0  0
  -26.1160  -23.3610   18.2900 C   0  0  0  0  0  2  0  0  0  0  0  0
  -26.7340  -24.7440   17.9940 C   0  0  0  0  0  2  0  0  0  0  0  0
  -27.5800  -24.6810   16.8560 O   0  0  0  0  0  0  0  0  0  0  0  0
  -28.4210  -25.8220   16.6740 C   0  0  0  0  0  2  0  0  0  0  0  0
  -27.6920  -27.1860   16.6560 C   0  0  0  0  0  2  0  0  0  0  0  0
  -27.5920  -27.6960   17.9910 O   0  0  0  0  0  0  0  0  0  0  0  0
  -24.5820  -31.7690   22.9820 C   0  0  0  0  0  0  0  0  0  0  0  0
  -26.4300  -28.3080   18.4080 C   0  0  0  0  0  0  0  0  0  0  0  0
  -23.0250  -30.7000   21.3840 C   0  0  0  0  0  3  0  0  0  0  0  0
  -24.1020  -29.6080   19.3490 C   0  0  0  0  0  0  0  0  0  0  0  0
  -25.4310  -31.2330   20.7020 C   0  0  0  0  0  2  0  0  0  0  0  0
  -25.3630  -30.0470   19.7650 C   0  0  0  0  0  0  0  0  0  0  0  0
  -26.5280  -29.3910   19.3100 C   0  0  0  0  0  3  0  0  0  0  0  0
  -25.1440  -27.8770   18.0050 C   0  0  0  0  0  3  0  0  0  0  0  0
  -23.9850  -28.5150   18.4770 C   0  0  0  0  0  3  0  0  0  0  0  0
  -22.9020  -30.3610   19.8760 C   0  0  0  0  0  2  0  0  0  0  0  0
  -24.3780  -31.2360   21.7430 N   0  0  0  0  0  0  0  0  0  0  0  0
  -23.6580  -31.8550   23.8010 O   0  0  0  0  0  0  0  0  0  0  0  0
  -22.6220  -29.4540   22.2040 C   0  0  0  0  0  0  0  0  0  0  0  0
  -21.3360  -29.0790   22.1270 N   0  0  0  0  0  0  0  0  0  0  0  0
  -23.4590  -28.8370   22.8680 O   0  0  0  0  0  0  0  0  0  0  0  0
  -20.7090  -29.6450   21.5700 H   0  0  0  0  0  0  0  0  0  0  0  0
  -18.3560  -27.0420   22.2980 C   0  0  0  0  0  0  0  0  0  0  0  0
  -20.7390  -27.9180   22.7870 C   0  0  0  0  0  3  0  0  0  0  0  0
  -21.2420  -26.5990   22.1580 C   0  0  0  0  0  2  0  0  0  0  0  0
  -20.3300  -26.0710   21.0470 C   0  0  0  0  0  2  0  0  0  0  0  0
  -18.9170  -25.8250   21.5840 C   0  0  0  0  0  2  0  0  0  0  0  0
  -19.2110  -28.0330   22.8510 C   0  0  0  0  0  0  0  0  0  0  0  0
  -18.6390  -29.1620   23.4760 C   0  0  0  0  0  3  0  0  0  0  0  0
  -17.2400  -29.3070   23.5580 C   0  0  0  0  0  3  0  0  0  0  0  0
  -16.3990  -28.3150   23.0250 C   0  0  0  0  0  3  0  0  0  0  0  0
  -16.9570  -27.1860   22.4000 C   0  0  0  0  0  3  0  0  0  0  0  0
  -25.9780  -32.3130   23.4180 C   0  0  0  0  0  3  0  0  0  0  0  0
  -26.7740  -31.3130   24.3430 C   0  0  1  0  0  0  0  0  0  0  0  0
  -25.9480  -30.7900   25.5420 C   0  0  0  0  0  1  0  0  0  0  0  0
  -27.2570  -30.0870   23.5320 C   0  0  0  0  0  1  0  0  0  0  0  0
  -28.0420  -32.0030   24.8980 C   0  0  0  0  0  1  0  0  0  0  0  0
  -25.7590  -33.5940   24.1050 N   0  0  0  0  0  0  0  0  0  0  0  0
  -25.9660  -34.7980   23.5530 C   0  0  0  0  0  0  0  0  0  0  0  0
  -26.4410  -34.9440   22.4230 O   0  0  0  0  0  0  0  0  0  0  0  0
  -25.3210  -33.5510   25.0130 H   0  0  0  0  0  0  0  0  0  0  0  0
  -24.2580  -36.6150   23.8700 C   0  0  0  0  0  1  0  0  0  0  0  0
  -25.5850  -36.0360   24.3860 C   0  0  0  0  0  3  0  0  0  0  0  0
  -27.8390  -36.7030   25.0970 C   0  0  0  0  0  1  0  0  0  0  0  0
  -26.6240  -37.0880   24.3830 N   0  0  0  0  0  0  0  0  0  0  0  0
  -26.2710  -37.9470   24.7980 H   0  0  0  0  0  0  0  0  0  0  0  0
  -23.2850  -24.7690   24.5550 C   0  0  0  0  0  2  0  0  0  0  0  0
  -23.5490  -26.1350   24.2350 O   0  0  0  0  0  0  0  0  0  0  0  0
  -24.3810  -26.8110   25.1720 C   0  0  0  0  0  2  0  0  0  0  0  0
  -25.6980  -27.2880   24.5270 C   0  0  0  0  0  2  0  0  0  0  0  0
  -26.4990  -26.1810   24.1310 O   0  0  0  0  0  0  0  0  0  0  0  0
  -27.8860  -26.3340   24.4080 C   0  0  0  0  0  2  0  0  0  0  0  0
  -28.6570  -26.4930   23.0910 C   0  0  0  0  0  2  0  0  0  0  0  0
  -30.1730  -26.5790   23.3060 C   0  0  0  0  0  2  0  0  0  0  0  0
  -30.7440  -27.2070   22.1690 O   0  0  0  0  0  0  0  0  0  0  0  0
  -32.1520  -27.3860   22.2690 C   0  0  0  0  0  2  0  0  0  0  0  0
  -32.5820  -28.3300   21.1380 C   0  0  0  0  0  2  0  0  0  0  0  0
  -33.9860  -28.2540   20.9180 O   0  0  0  0  0  0  0  0  0  0  0  0
  -34.4150  -29.1440   19.8970 C   0  0  0  0  0  2  0  0  0  0  0  0
  -35.8820  -28.8690   19.5420 C   0  0  0  0  0  2  0  0  0  0  0  0
  -36.7860  -30.7420   18.1390 C   0  0  0  0  0  0  0  0  0  0  0  0
  -37.7360  -32.2740   16.4510 C   0  0  0  0  0  2  0  0  0  0  0  0
  -36.7750  -33.4110   16.0650 C   0  0  0  0  0  2  0  0  0  0  0  0
  -35.8050  -32.9610   14.9550 C   0  0  0  0  0  2  0  0  0  0  0  0
  -35.1180  -31.6100   15.2820 C   0  0  0  0  0  3  0  0  0  0  0  0
  -36.1680  -30.5630   15.7050 C   0  0  0  0  0  2  0  0  0  0  0  0
  -36.9460  -31.0990   16.8400 N   0  0  0  0  0  0  0  0  0  0  0  0
  -37.1940  -31.4070   19.0950 O   0  0  0  0  0  0  0  0  0  0  0  0
  -36.2330  -29.5360   18.2950 N   0  0  0  0  0  0  0  0  0  0  0  0
  -35.9980  -29.0510   17.4430 H   0  0  0  0  0  0  0  0  0  0  0  0
  -32.9620  -30.8040   14.1210 C   0  0  0  0  0  0  0  0  0  0  0  0
  -32.6880  -30.4940   12.8150 C   0  0  0  0  0  0  0  0  0  0  0  0
  -33.9120  -30.6740   12.1020 C   0  0  0  0  0  0  0  0  0  0  0  0
  -34.3080  -31.1410   14.1590 N   0  0  0  0  0  0  0  0  0  0  0  0
  -34.8870  -31.0110   12.9370 N   0  0  0  0  0  0  0  0  0  0  0  0
  -34.2010  -30.6010   10.6630 C   0  0  0  0  0  0  0  0  0  0  0  0
  -35.2330  -29.7790   10.1580 C   0  0  0  0  0  3  0  0  0  0  0  0
  -35.4790  -29.7110    8.7700 C   0  0  0  0  0  3  0  0  0  0  0  0
  -34.6900  -30.4670    7.8710 C   0  0  0  0  0  0  0  0  0  0  0  0
  -33.6790  -31.3010    8.3810 C   0  0  0  0  0  3  0  0  0  0  0  0
  -33.4390  -31.3710    9.7640 C   0  0  0  0  0  3  0  0  0  0  0  0
  -34.8720  -30.4840    6.5100 O   0  0  0  0  0  0  0  0  0  0  0  0
  -35.4420  -29.4260    5.8460 C   0  0  0  0  0  0  0  0  0  0  0  0
  -34.8890  -28.1290    5.8990 C   0  0  0  0  0  3  0  0  0  0  0  0
  -35.4670  -27.0850    5.1490 C   0  0  0  0  0  3  0  0  0  0  0  0
  -36.5890  -27.3380    4.3390 C   0  0  0  0  0  0  0  0  0  0  0  0
  -37.1380  -28.6310    4.2800 C   0  0  0  0  0  3  0  0  0  0  0  0
  -36.5650  -29.6730    5.0310 C   0  0  0  0  0  0  0  0  0  0  0  0
  -37.0850  -30.9210    4.9550 F   0  0  0  0  0  0  0  0  0  0  0  0
  -37.1400  -26.3390    3.6100 F   0  0  0  0  0  0  0  0  0  0  0  0
  -31.3460  -30.1420   12.2400 C   0  0  0  0  0  0  0  0  0  0  0  0
  -31.3180  -29.2780   11.2320 N   0  0  0  0  0  0  0  0  0  0  0  0
  -30.3070  -30.5990   12.7170 O   0  0  0  0  0  0  0  0  0  0  0  0
  -32.1690  -28.8880   10.8530 H   0  0  0  0  0  0  0  0  0  0  0  0
  -30.4320  -28.9980   10.8340 H   0  0  0  0  0  0  0  0  0  0  0  0
  -32.1800  -30.8420   15.2710 N   0  0  0  0  0  0  0  0  0  0  0  0
  -31.1840  -30.6540   15.2550 H   0  0  0  0  0  0  0  0  0  0  0  0
  -32.5140  -31.1370   16.1800 H   0  0  0  0  0  0  0  0  0  0  0  0
  1 54  1  0
  2  1  1  0
  3  2  1  0
  4  6  2  0
  4  3  1  0
  5  7  1  0
  5  4  1  0
  8  5  1  0
  9  8  1  0
 10  9  1  0
 11 10  1  0
 12 11  1  0
 12 13  1  0
 13 15  1  0
 14 25  2  0
 15 20  1  0
 16 24  1  0
 16 26  1  0
 17 19  1  0
 17 23  1  0
 18 24  1  0
 19 18  1  0
 20 19  2  0
 21 15  2  0
 21 22  1  0
 22 17  2  0
 23 16  1  0
 24 14  1  0
 26 28  2  0
 27 26  1  0
 29 27  1  0
 30 39  2  0
 30 35  1  0
 31 27  1  0
 31 35  1  0
 32 31  1  0
 33 34  1  0
 33 32  1  0
 34 30  1  0
 35 36  2  0
 36 37  1  0
 38 37  2  0
 39 38  1  0
 40 14  1  0
 40 45  1  0
 40 41  1  0
 41 44  1  1
 41 42  1  0
 43 41  1  0
 45 48  1  0
 46 45  1  0
 46 50  1  0
 47 46  2  0
 50 49  1  0
 52 50  1  0
 52 53  1  0
 52 51  1  0
 55 54  1  0
 55 56  1  0
 57 56  1  0
 58 59  1  0
 58 57  1  0
 60 61  1  0
 60 59  1  0
 62 63  1  0
 62 61  1  0
 64 63  1  0
 65 64  1  0
 66 65  1  0
 67 66  1  0
 68 76  1  0
 68 75  2  0
 69 74  1  0
 70 69  1  0
 71 72  1  0
 71 70  1  0
 72 81  1  0
 72 73  1  0
 73 74  1  0
 74 68  1  0
 76 67  1  0
 77 76  1  0
 78 81  1  0
 78103  1  0
 79 78  2  0
 80 79  1  0
 80 82  2  0
 82 81  1  0
 83 80  1  0
 84 83  1  0
 85 84  2  0
 86 87  2  0
 86 85  1  0
 87 88  1  0
 88 83  2  0
 89 86  1  0
 90 91  1  0
 90 89  1  0
 92 91  2  0
 93 92  1  0
 94 93  2  0
 94 95  1  0
 95 90  2  0
 96 95  1  0
 97 93  1  0
 98100  2  0
 98 79  1  0
 99 98  1  0
101 99  1  0
102 99  1  0
103105  1  0
104103  1  0
M  ISO  4  12 101  13 101  68 100  76 100
M  END
>  <TORSDO>  (10) 
F 38

>  <SCORE>  (10) 
-2.868

>  <name>  (10) 
9

>  <ligand_id>  (10) 
9

>  <original_smiles>  (10) 
[H]c1c([H])c([H])c2c(c1[H])C([H])([H])C([H])([H])C([H])([H])C2([H])N([H])C(=O)C1([H])N(C(=O)C([H])(N([H])C(=O)C([H])(N([H])C([H])([H])[H])C([H])([H])[H])C(C([H])([H])[H])(C([H])([H])[H])C([H])([H])[H])C([H])([H])c2c([H])c(OC([H])([H])C([H])([H])OC([H])([H])C([H])([H])N([H])C(=O)C([H])([H])OC([H])([H])C([H])([H])OC([H])([H])C([H])([H])OC([H])([H])C([H])([H])C([H])([H])OC([H])([H])C([H])([H])OC([H])([H])C([H])([H])N([H])C(=O)N3C([H])([H])C([H])([H])C([H])([H])C([H])(n4nc(-c5c([H])c([H])c(Oc6c([H])c([H])c(F)c([H])c6F)c([H])c5[H])c(C(=O)N([H])[H])c4N([H])[H])C3([H])[H])c([H])c([H])c2C1([H])[H]

>  <smiles>  (10) 
[H]c1c([H])c([H])c2c(c1[H])C([H])([H])C([H])([H])C([H])([H])C2([H])N([H])C(=O)C1([H])N(C(=O)C([H])(N([H])C(=O)C([H])(N([H])C([H])([H])[H])C([H])([H])[H])C(C([H])([H])[H])(C([H])([H])[H])C([H])([H])[H])C([H])([H])c2c([H])c(OC([H])([H])C([H])([H])OC([H])([H])C([H])([H])N([H])C(=O)C([H])([H])OC([H])([H])C([H])([H])OC([H])([H])C([H])([H])OC([H])([H])C([H])([H])C([H])([H])OC([H])([H])C([H])([H])OC([H])([H])C([H])([H])N([H])C(=O)N3C([H])([H])C([H])([H])C([H])([H])C([H])(n4nc(-c5c([H])c([H])c(Oc6c([H])c([H])c(F)c([H])c6F)c([H])c5[H])c(C(=O)N([H])[H])c4N([H])[H])C3([H])[H])c([H])c([H])c2C1([H])[H]

$$$$
10:0:0
     RDKit          3D

 95103  0  0  1  0  0  0  0  0999 V2000
  -32.2830  -21.5660   14.5710 C   0  0  0  0  0  3  0  0  0  0  0  0
  -31.7310  -20.8450   16.8270 C   0  0  0  0  0  3  0  0  0  0  0  0
  -32.1710  -20.2400   14.1170 C   0  0  0  0  0  3  0  0  0  0  0  0
  -31.5480  -19.5250   16.3540 C   0  0  0  0  0  3  0  0  0  0  0  0
  -32.1490  -21.8580   15.9430 C   0  0  0  0  0  0  0  0  0  0  0  0
  -31.7970  -19.2050   15.0040 C   0  0  0  0  0  0  0  0  0  0  0  0
  -31.8690  -23.9020   17.2460 C   0  0  0  0  0  0  0  0  0  0  0  0
  -32.5560  -23.1400   16.3820 N   0  0  0  0  0  0  0  0  0  0  0  0
  -32.0950  -23.8450   18.4550 O   0  0  0  0  0  0  0  0  0  0  0  0
  -33.5560  -23.1530   16.5270 H   0  0  0  0  0  0  0  0  0  0  0  0
  -30.8050  -24.8560   16.6900 C   0  0  0  0  0  2  0  0  0  0  0  0
  -29.9770  -24.1380   15.6230 C   0  0  0  0  0  2  0  0  0  0  0  0
  -30.3080  -24.4800   14.2770 O   0  0  0  0  0  0  0  0  0  0  0  0
  -26.6860  -23.9290    8.2060 C   0  0  0  0  0  0  0  0  0  0  0  0
  -29.2530  -24.9560   13.5220 C   0  0  0  0  0  0  0  0  0  0  0  0
  -26.1870  -25.9190    9.5680 C   0  0  0  0  0  3  0  0  0  0  0  0
  -27.1320  -25.9100   11.9270 C   0  0  0  0  0  0  0  0  0  0  0  0
  -26.9670  -23.7470   10.6720 C   0  0  0  0  0  2  0  0  0  0  0  0
  -27.6070  -24.6070   11.7510 C   0  0  0  0  0  0  0  0  0  0  0  0
  -28.6650  -24.1200   12.5500 C   0  0  0  0  0  3  0  0  0  0  0  0
  -28.7300  -26.2610   13.6990 C   0  0  0  0  0  3  0  0  0  0  0  0
  -27.7010  -26.7490   12.8890 C   0  0  0  0  0  3  0  0  0  0  0  0
  -25.9960  -26.3530   11.0440 C   0  0  0  0  0  2  0  0  0  0  0  0
  -26.6560  -24.5040    9.4380 N   0  0  0  0  0  0  0  0  0  0  0  0
  -26.3030  -24.5430    7.1990 O   0  0  0  0  0  0  0  0  0  0  0  0
  -27.1280  -26.9480    8.8900 C   0  0  0  0  0  0  0  0  0  0  0  0
  -26.6940  -27.4800    7.7320 N   0  0  0  0  0  0  0  0  0  0  0  0
  -28.1990  -27.2730    9.4110 O   0  0  0  0  0  0  0  0  0  0  0  0
  -25.8090  -27.1480    7.3620 H   0  0  0  0  0  0  0  0  0  0  0  0
  -27.3630  -28.6120    4.3580 C   0  0  0  0  0  0  0  0  0  0  0  0
  -27.3850  -28.5000    6.9370 C   0  0  0  0  0  3  0  0  0  0  0  0
  -26.5910  -29.8320    6.8970 C   0  0  0  0  0  2  0  0  0  0  0  0
  -25.6710  -29.9560    5.6800 C   0  0  0  0  0  2  0  0  0  0  0  0
  -26.4900  -29.8580    4.3900 C   0  0  0  0  0  2  0  0  0  0  0  0
  -27.7720  -27.9680    5.5550 C   0  0  0  0  0  0  0  0  0  0  0  0
  -28.5590  -26.7950    5.4770 C   0  0  0  0  0  3  0  0  0  0  0  0
  -28.9470  -26.2720    4.2290 C   0  0  0  0  0  3  0  0  0  0  0  0
  -28.5540  -26.9250    3.0470 C   0  0  0  0  0  3  0  0  0  0  0  0
  -27.7700  -28.0910    3.1150 C   0  0  0  0  0  3  0  0  0  0  0  0
  -27.2030  -22.4720    7.9960 C   0  0  0  0  0  3  0  0  0  0  0  0
  -26.1910  -21.7560    7.2080 N   0  0  0  0  0  0  0  0  0  0  0  0
  -25.1120  -21.1590    7.7300 C   0  0  0  0  0  0  0  0  0  0  0  0
  -24.9080  -21.0800    8.9460 O   0  0  0  0  0  0  0  0  0  0  0  0
  -26.2480  -21.8320    6.2020 H   0  0  0  0  0  0  0  0  0  0  0  0
  -23.0470  -21.5810    6.3630 C   0  0  0  0  0  1  0  0  0  0  0  0
  -24.1050  -20.5350    6.7480 C   0  0  0  0  0  3  0  0  0  0  0  0
  -24.2770  -18.1320    7.2240 C   0  0  0  0  0  1  0  0  0  0  0  0
  -23.4350  -19.3270    7.2770 N   0  0  0  0  0  0  0  0  0  0  0  0
  -22.5780  -19.1410    6.7650 H   0  0  0  0  0  0  0  0  0  0  0  0
  -28.6140  -22.3960    7.2930 C   0  0  1  0  0  0  0  0  0  0  0  0
  -28.5390  -22.5340    5.7540 C   0  0  0  0  0  1  0  0  0  0  0  0
  -29.5520  -23.5070    7.8290 C   0  0  0  0  0  1  0  0  0  0  0  0
  -29.2910  -21.0450    7.6230 C   0  0  0  0  0  1  0  0  0  0  0  0
  -31.6360  -17.8830   14.6580 O   0  0  0  0  0  0  0  0  0  0  0  0
  -32.4180  -16.8820   15.2940 C   0  0  0  0  0  2  0  0  0  0  0  0
  -33.9380  -17.0960   15.0680 C   0  0  0  0  0  2  0  0  0  0  0  0
  -34.3830  -17.4650   13.6000 C   0  0  0  0  0  2  0  0  0  0  0  0
  -34.7060  -15.2350   12.3910 C   0  0  0  0  0  0  0  0  0  0  0  0
  -35.2740  -12.8120   12.2080 C   0  0  0  0  0  2  0  0  0  0  0  0
  -34.3080  -11.8650   12.9510 C   0  0  0  0  0  2  0  0  0  0  0  0
  -34.6270  -11.7650   14.4520 C   0  0  0  0  0  2  0  0  0  0  0  0
  -34.7790  -13.1630   15.0960 C   0  0  0  0  0  3  0  0  0  0  0  0
  -35.7840  -13.9990   14.2810 C   0  0  0  0  0  2  0  0  0  0  0  0
  -35.3260  -14.1220   12.8820 N   0  0  0  0  0  0  0  0  0  0  0  0
  -33.9260  -15.2110   11.4320 O   0  0  0  0  0  0  0  0  0  0  0  0
  -35.1510  -16.3930   12.9360 N   0  0  0  0  0  0  0  0  0  0  0  0
  -36.1670  -16.4280   13.1250 H   0  0  0  0  0  0  0  0  0  0  0  0
  -34.4370  -12.7390   17.6120 C   0  0  0  0  0  0  0  0  0  0  0  0
  -35.3070  -12.7290   18.6600 C   0  0  0  0  0  0  0  0  0  0  0  0
  -36.5850  -13.0690   18.1140 C   0  0  0  0  0  0  0  0  0  0  0  0
  -35.1860  -13.0680   16.4930 N   0  0  0  0  0  0  0  0  0  0  0  0
  -36.4790  -13.3180   16.8150 N   0  0  0  0  0  0  0  0  0  0  0  0
  -37.9130  -13.1150   18.7370 C   0  0  0  0  0  0  0  0  0  0  0  0
  -38.4230  -14.3040   19.2990 C   0  0  0  0  0  3  0  0  0  0  0  0
  -39.6960  -14.3210   19.9030 C   0  0  0  0  0  3  0  0  0  0  0  0
  -40.4740  -13.1420   19.9490 C   0  0  0  0  0  0  0  0  0  0  0  0
  -39.9760  -11.9660   19.3620 C   0  0  0  0  0  3  0  0  0  0  0  0
  -38.7090  -11.9530   18.7560 C   0  0  0  0  0  3  0  0  0  0  0  0
  -41.7320  -13.0730   20.4930 O   0  0  0  0  0  0  0  0  0  0  0  0
  -41.9380  -13.1110   21.8470 C   0  0  0  0  0  0  0  0  0  0  0  0
  -41.7460  -11.9700   22.6550 C   0  0  0  0  0  3  0  0  0  0  0  0
  -42.0390  -12.0240   24.0330 C   0  0  0  0  0  3  0  0  0  0  0  0
  -42.5220  -13.2180   24.6040 C   0  0  0  0  0  0  0  0  0  0  0  0
  -42.7070  -14.3580   23.8020 C   0  0  0  0  0  3  0  0  0  0  0  0
  -42.4200  -14.3020   22.4270 C   0  0  0  0  0  0  0  0  0  0  0  0
  -42.6240  -15.3930   21.6470 F   0  0  0  0  0  0  0  0  0  0  0  0
  -42.8070  -13.2770   25.9250 F   0  0  0  0  0  0  0  0  0  0  0  0
  -35.0040  -12.3480   20.0820 C   0  0  0  0  0  0  0  0  0  0  0  0
  -35.3310  -13.2090   21.0370 N   0  0  0  0  0  0  0  0  0  0  0  0
  -34.4420  -11.2860   20.3520 O   0  0  0  0  0  0  0  0  0  0  0  0
  -35.7740  -14.0910   20.8170 H   0  0  0  0  0  0  0  0  0  0  0  0
  -35.1270  -12.9980   22.0060 H   0  0  0  0  0  0  0  0  0  0  0  0
  -33.0700  -12.4930   17.4970 N   0  0  0  0  0  0  0  0  0  0  0  0
  -32.4580  -12.2990   18.2850 H   0  0  0  0  0  0  0  0  0  0  0  0
  -32.5850  -12.5880   16.6140 H   0  0  0  0  0  0  0  0  0  0  0  0
  1  5  1  0
  3  1  2  0
  3  6  1  0
  4  2  1  0
  5  8  1  0
  5  2  2  0
  6  4  2  0
  7  9  2  0
  8 10  1  0
  8  7  1  0
 11  7  1  0
 12 11  1  0
 13 12  1  0
 14 24  1  0
 15 21  1  0
 15 13  1  0
 16 26  1  0
 16 23  1  0
 17 22  1  0
 18 19  1  0
 19 17  2  0
 19 20  1  0
 20 15  2  0
 22 21  2  0
 23 17  1  0
 24 16  1  0
 24 18  1  0
 25 14  2  0
 26 28  2  0
 27 26  1  0
 29 27  1  0
 30 34  1  0
 30 35  1  0
 31 27  1  0
 32 31  1  0
 33 32  1  0
 34 33  1  0
 35 31  1  0
 36 35  2  0
 37 36  1  0
 38 39  1  0
 38 37  2  0
 39 30  2  0
 40 14  1  0
 41 42  1  0
 41 40  1  0
 42 43  2  0
 44 41  1  0
 46 45  1  0
 46 48  1  0
 46 42  1  0
 47 48  1  0
 49 48  1  0
 50 53  1  6
 50 52  1  0
 50 40  1  0
 51 50  1  0
 54  6  1  0
 54 55  1  0
 56 55  1  0
 57 56  1  0
 58 64  1  0
 58 66  1  0
 59 64  1  0
 59 60  1  0
 60 61  1  0
 61 62  1  0
 62 63  1  0
 62 71  1  0
 64 63  1  0
 65 58  2  0
 66 67  1  0
 66 57  1  0
 68 69  2  0
 69 88  1  0
 70 69  1  0
 70 73  1  0
 71 72  1  0
 71 68  1  0
 72 70  2  0
 73 78  2  0
 73 74  1  0
 74 75  2  0
 75 76  1  0
 76 79  1  0
 77 76  2  0
 78 77  1  0
 79 80  1  0
 80 85  2  0
 80 81  1  0
 81 82  2  0
 82 83  1  0
 83 87  1  0
 84 83  2  0
 85 84  1  0
 86 85  1  0
 88 90  2  0
 88 89  1  0
 89 92  1  0
 91 89  1  0
 93 68  1  0
 93 94  1  0
 95 93  1  0
M  ISO  4  12 101  13 101  58 100  66 100
M  END
>  <TORSDO>  (11) 
F 23

>  <SCORE>  (11) 
-3.241

>  <name>  (11) 
10

>  <ligand_id>  (11) 
10

>  <original_smiles>  (11) 
[H]c1c([H])c([H])c2c(c1[H])C([H])([H])C([H])([H])C([H])([H])C2([H])N([H])C(=O)C1([H])N(C(=O)C([H])(N([H])C(=O)C([H])(N([H])C([H])([H])[H])C([H])([H])[H])C(C([H])([H])[H])(C([H])([H])[H])C([H])([H])[H])C([H])([H])c2c([H])c(OC([H])([H])C([H])([H])C(=O)N([H])c3c([H])c([H])c(OC([H])([H])C([H])([H])C([H])([H])N([H])C(=O)N4C([H])([H])C([H])([H])C([H])([H])C([H])(n5nc(-c6c([H])c([H])c(Oc7c([H])c([H])c(F)c([H])c7F)c([H])c6[H])c(C(=O)N([H])[H])c5N([H])[H])C4([H])[H])c([H])c3[H])c([H])c([H])c2C1([H])[H]

>  <smiles>  (11) 
[H]c1c([H])c([H])c2c(c1[H])C([H])([H])C([H])([H])C([H])([H])C2([H])N([H])C(=O)C1([H])N(C(=O)C([H])(N([H])C(=O)C([H])(N([H])C([H])([H])[H])C([H])([H])[H])C(C([H])([H])[H])(C([H])([H])[H])C([H])([H])[H])C([H])([H])c2c([H])c(OC([H])([H])C([H])([H])C(=O)N([H])c3c([H])c([H])c(OC([H])([H])C([H])([H])C([H])([H])N([H])C(=O)N4C([H])([H])C([H])([H])C([H])([H])C([H])(n5nc(-c6c([H])c([H])c(Oc7c([H])c([H])c(F)c([H])c7F)c([H])c6[H])c(C(=O)N([H])[H])c5N([H])[H])C4([H])[H])c([H])c3[H])c([H])c([H])c2C1([H])[H]

$$$$
11:0:0
     RDKit          3D

118126  0  0  1  0  0  0  0  0999 V2000
  -24.1510  -19.2410   17.0210 C   0  0  0  0  0  0  0  0  0  0  0  0
  -25.4540  -19.6110   17.0890 N   0  0  0  0  0  0  0  0  0  0  0  0
  -23.7730  -18.0840   17.2430 O   0  0  0  0  0  0  0  0  0  0  0  0
  -27.3200  -18.4980   20.1050 C   0  0  0  0  0  3  0  0  0  0  0  0
  -28.5560  -17.8310   18.1110 C   0  0  0  0  0  3  0  0  0  0  0  0
  -26.2700  -18.9730   19.2980 C   0  0  0  0  0  3  0  0  0  0  0  0
  -27.5160  -18.3180   17.3000 C   0  0  0  0  0  3  0  0  0  0  0  0
  -28.4680  -17.9250   19.5200 C   0  0  0  0  0  0  0  0  0  0  0  0
  -26.3770  -18.8970   17.8930 C   0  0  0  0  0  0  0  0  0  0  0  0
  -29.5860  -17.4470   20.3930 C   0  0  0  0  0  0  0  0  0  0  0  0
  -30.0970  -16.2560   20.0710 N   0  0  0  0  0  0  0  0  0  0  0  0
  -29.9680  -18.1100   21.3600 O   0  0  0  0  0  0  0  0  0  0  0  0
  -29.7260  -15.7960   19.2510 H   0  0  0  0  0  0  0  0  0  0  0  0
  -31.1990  -15.6050   20.7630 C   0  0  0  0  0  2  0  0  0  0  0  0
  -32.5600  -16.0270   20.1810 C   0  0  0  0  0  2  0  0  0  0  0  0
  -33.1420  -14.9320   19.4830 O   0  0  0  0  0  0  0  0  0  0  0  0
  -32.7710  -14.8370   18.1100 C   0  0  0  0  0  2  0  0  0  0  0  0
  -33.1630  -13.4540   17.5600 C   0  0  0  0  0  2  0  0  0  0  0  0
  -32.4900  -12.4130   18.2670 O   0  0  0  0  0  0  0  0  0  0  0  0
  -33.0530  -12.1180   19.5430 C   0  0  0  0  0  2  0  0  0  0  0  0
  -32.2150  -11.0280   20.2330 C   0  0  0  0  0  2  0  0  0  0  0  0
  -32.8500   -9.4710   21.9780 C   0  0  0  0  0  0  0  0  0  0  0  0
  -31.8750   -7.6200   23.2780 C   0  0  0  0  0  2  0  0  0  0  0  0
  -31.0810   -6.6590   22.3760 C   0  0  0  0  0  2  0  0  0  0  0  0
  -29.6290   -7.1510   22.2350 C   0  0  0  0  0  2  0  0  0  0  0  0
  -29.5380   -8.6460   21.8370 C   0  0  0  0  0  3  0  0  0  0  0  0
  -30.4430   -9.5190   22.7340 C   0  0  0  0  0  2  0  0  0  0  0  0
  -31.8100   -8.9670   22.6900 N   0  0  0  0  0  0  0  0  0  0  0  0
  -33.9140   -8.8740   21.8070 O   0  0  0  0  0  0  0  0  0  0  0  0
  -32.7340  -10.7350   21.5670 N   0  0  0  0  0  0  0  0  0  0  0  0
  -33.6080  -11.2220   21.7060 H   0  0  0  0  0  0  0  0  0  0  0  0
  -27.6510  -10.3840   21.6110 C   0  0  0  0  0  0  0  0  0  0  0  0
  -26.2920  -10.2790   21.6720 C   0  0  0  0  0  0  0  0  0  0  0  0
  -26.0170   -8.9020   21.9340 C   0  0  0  0  0  0  0  0  0  0  0  0
  -28.1520   -9.1130   21.8440 N   0  0  0  0  0  0  0  0  0  0  0  0
  -27.1500   -8.2260   22.0870 N   0  0  0  0  0  0  0  0  0  0  0  0
  -24.7430   -8.1770   21.9870 C   0  0  0  0  0  0  0  0  0  0  0  0
  -24.3180   -7.5100   23.1560 C   0  0  0  0  0  3  0  0  0  0  0  0
  -23.0750   -6.8410   23.1900 C   0  0  0  0  0  3  0  0  0  0  0  0
  -22.2420   -6.8370   22.0450 C   0  0  0  0  0  0  0  0  0  0  0  0
  -22.6800   -7.4820   20.8750 C   0  0  0  0  0  3  0  0  0  0  0  0
  -23.9200   -8.1400   20.8430 C   0  0  0  0  0  3  0  0  0  0  0  0
  -21.0340   -6.1840   21.9810 O   0  0  0  0  0  0  0  0  0  0  0  0
  -20.2420   -6.0250   23.0890 C   0  0  0  0  0  0  0  0  0  0  0  0
  -19.7820   -7.1280   23.8430 C   0  0  0  0  0  3  0  0  0  0  0  0
  -18.9130   -6.9240   24.9330 C   0  0  0  0  0  3  0  0  0  0  0  0
  -18.4930   -5.6210   25.2650 C   0  0  0  0  0  0  0  0  0  0  0  0
  -18.9450   -4.5230   24.5140 C   0  0  0  0  0  3  0  0  0  0  0  0
  -19.8140   -4.7240   23.4280 C   0  0  0  0  0  0  0  0  0  0  0  0
  -20.2310   -3.6640   22.6950 F   0  0  0  0  0  0  0  0  0  0  0  0
  -17.6520   -5.4260   26.3050 F   0  0  0  0  0  0  0  0  0  0  0  0
  -25.2880  -11.3650   21.3980 C   0  0  0  0  0  0  0  0  0  0  0  0
  -24.1420  -11.3330   22.0620 N   0  0  0  0  0  0  0  0  0  0  0  0
  -25.5320  -12.2760   20.6080 O   0  0  0  0  0  0  0  0  0  0  0  0
  -23.9230  -10.5930   22.7120 H   0  0  0  0  0  0  0  0  0  0  0  0
  -23.4590  -12.0600   21.9100 H   0  0  0  0  0  0  0  0  0  0  0  0
  -28.5210  -11.4400   21.3610 N   0  0  0  0  0  0  0  0  0  0  0  0
  -28.1960  -12.3710   21.1210 H   0  0  0  0  0  0  0  0  0  0  0  0
  -29.5190  -11.3470   21.2580 H   0  0  0  0  0  0  0  0  0  0  0  0
  -23.2460  -20.3260   16.6870 C   0  0  0  0  0  3  0  0  0  0  0  0
  -22.5320  -20.3300   15.5510 C   0  0  0  0  0  3  0  0  0  0  0  0
  -22.0600  -22.2640   14.0010 C   0  0  0  0  0  1  0  0  0  0  0  0
  -21.5690  -21.4410   15.1950 C   0  0  0  0  0  2  0  0  0  0  0  0
  -26.0210  -20.7980   16.4300 C   0  0  0  0  0  2  0  0  0  0  0  0
  -26.4780  -21.8200   17.4840 C   0  0  0  0  0  2  0  0  0  0  0  0
  -25.4690  -22.8110   17.6900 O   0  0  0  0  0  0  0  0  0  0  0  0
  -25.6610  -23.6330   18.8430 C   0  0  0  0  0  2  0  0  0  0  0  0
  -26.6260  -24.7890   18.5480 C   0  0  0  0  0  2  0  0  0  0  0  0
  -27.9840  -24.3760   18.6370 O   0  0  0  0  0  0  0  0  0  0  0  0
  -28.6540  -24.2410   17.3800 C   0  0  0  0  0  2  0  0  0  0  0  0
  -29.9840  -23.4890   17.6060 C   0  0  0  0  0  2  0  0  0  0  0  0
  -29.8410  -22.5530   18.6750 O   0  0  0  0  0  0  0  0  0  0  0  0
  -30.9260  -21.6440   18.8130 C   0  0  0  0  0  2  0  0  0  0  0  0
  -30.5930  -20.2420   18.2850 C   0  0  0  0  0  2  0  0  0  0  0  0
  -31.7750  -19.4760   18.4230 O   0  0  0  0  0  0  0  0  0  0  0  0
  -31.7730  -18.2230   17.7580 C   0  0  0  0  0  2  0  0  0  0  0  0
  -33.2430  -17.7660   17.6260 C   0  0  0  0  0  2  0  0  0  0  0  0
  -33.8950  -18.2060   16.4240 O   0  0  0  0  0  0  0  0  0  0  0  0
  -38.1140  -23.7050   18.1820 C   0  0  0  0  0  0  0  0  0  0  0  0
  -34.1630  -19.5540   16.3230 C   0  0  0  0  0  0  0  0  0  0  0  0
  -36.0160  -24.2830   17.0010 C   0  0  0  0  0  3  0  0  0  0  0  0
  -34.7160  -22.3140   16.0340 C   0  0  0  0  0  0  0  0  0  0  0  0
  -37.1110  -21.9960   16.6650 C   0  0  0  0  0  2  0  0  0  0  0  0
  -35.7270  -21.4310   16.4350 C   0  0  0  0  0  0  0  0  0  0  0  0
  -35.4570  -20.0530   16.5870 C   0  0  0  0  0  3  0  0  0  0  0  0
  -33.1740  -20.4450   15.8630 C   0  0  0  0  0  3  0  0  0  0  0  0
  -33.4280  -21.8270   15.7500 C   0  0  0  0  0  3  0  0  0  0  0  0
  -35.1020  -23.7650   15.8560 C   0  0  0  0  0  2  0  0  0  0  0  0
  -37.1190  -23.3230   17.3280 N   0  0  0  0  0  0  0  0  0  0  0  0
  -38.1480  -24.8450   18.6630 O   0  0  0  0  0  0  0  0  0  0  0  0
  -35.1310  -24.6360   18.2190 C   0  0  0  0  0  0  0  0  0  0  0  0
  -34.4790  -25.8080   18.1750 N   0  0  0  0  0  0  0  0  0  0  0  0
  -35.0220  -23.8510   19.1650 O   0  0  0  0  0  0  0  0  0  0  0  0
  -34.6130  -26.3910   17.3610 H   0  0  0  0  0  0  0  0  0  0  0  0
  -32.3890  -28.6170   19.1070 C   0  0  0  0  0  0  0  0  0  0  0  0
  -33.5600  -26.3080   19.1990 C   0  0  0  0  0  3  0  0  0  0  0  0
  -32.1530  -25.6950   19.0160 C   0  0  0  0  0  2  0  0  0  0  0  0
  -31.2090  -26.5860   18.1990 C   0  0  0  0  0  2  0  0  0  0  0  0
  -31.0460  -27.9590   18.8510 C   0  0  0  0  0  2  0  0  0  0  0  0
  -33.5650  -27.8390   19.2700 C   0  0  0  0  0  0  0  0  0  0  0  0
  -34.7940  -28.4930   19.4890 C   0  0  0  0  0  3  0  0  0  0  0  0
  -34.8590  -29.8960   19.5610 C   0  0  0  0  0  3  0  0  0  0  0  0
  -33.6910  -30.6630   19.4090 C   0  0  0  0  0  3  0  0  0  0  0  0
  -32.4600  -30.0250   19.1810 C   0  0  0  0  0  3  0  0  0  0  0  0
  -39.2680  -22.7340   18.5780 C   0  0  0  0  0  3  0  0  0  0  0  0
  -40.5160  -23.5050   18.5310 N   0  0  0  0  0  0  0  0  0  0  0  0
  -41.3700  -23.5040   17.4990 C   0  0  0  0  0  0  0  0  0  0  0  0
  -41.2220  -22.7850   16.5050 O   0  0  0  0  0  0  0  0  0  0  0  0
  -40.6750  -24.1490   19.2920 H   0  0  0  0  0  0  0  0  0  0  0  0
  -42.3230  -25.7000   16.7270 C   0  0  0  0  0  1  0  0  0  0  0  0
  -42.5850  -24.4470   17.5790 C   0  0  0  0  0  3  0  0  0  0  0  0
  -44.3230  -22.7790   18.0550 C   0  0  0  0  0  1  0  0  0  0  0  0
  -43.8490  -23.8160   17.1440 N   0  0  0  0  0  0  0  0  0  0  0  0
  -44.5800  -24.5120   17.0430 H   0  0  0  0  0  0  0  0  0  0  0  0
  -39.0660  -22.0780   19.9980 C   0  0  1  0  0  0  0  0  0  0  0  0
  -38.7730  -23.0870   21.1330 C   0  0  0  0  0  1  0  0  0  0  0  0
  -37.9040  -21.0590   19.9610 C   0  0  0  0  0  1  0  0  0  0  0  0
  -40.3320  -21.2840   20.3830 C   0  0  0  0  0  1  0  0  0  0  0  0
  1  2  1  0
  1  3  2  0
  2  9  1  0
  5  8  2  0
  6  4  2  0
  7  9  2  0
  7  5  1  0
  8  4  1  0
  8 10  1  0
  9  6  1  0
 10 12  2  0
 11 10  1  0
 11 14  1  0
 13 11  1  0
 15 14  1  0
 16 15  1  0
 17 16  1  0
 18 17  1  0
 18 19  1  0
 19 20  1  0
 20 21  1  0
 21 30  1  0
 22 28  1  0
 24 23  1  0
 25 24  1  0
 26 35  1  0
 26 25  1  0
 26 27  1  0
 28 27  1  0
 28 23  1  0
 29 22  2  0
 30 31  1  0
 30 22  1  0
 32 33  2  0
 32 35  1  0
 33 34  1  0
 34 37  1  0
 34 36  2  0
 35 36  1  0
 37 38  1  0
 38 39  2  0
 40 39  1  0
 41 40  2  0
 42 41  1  0
 42 37  2  0
 43 40  1  0
 43 44  1  0
 44 49  2  0
 44 45  1  0
 45 46  2  0
 46 47  1  0
 47 51  1  0
 48 47  2  0
 49 48  1  0
 50 49  1  0
 52 33  1  0
 52 53  1  0
 53 55  1  0
 54 52  2  0
 56 53  1  0
 57 32  1  0
 58 57  1  0
 59 57  1  0
 60  1  1  0
 61 60  2  0
 62 63  1  0
 63 61  1  0
 64  2  1  0
 64 65  1  0
 65 66  1  0
 66 67  1  0
 68 69  1  0
 68 67  1  0
 70 71  1  0
 70 69  1  0
 71 72  1  0
 72 73  1  0
 74 75  1  0
 74 73  1  0
 76 75  1  0
 77 76  1  0
 78 77  1  0
 79 90  2  0
 80 78  1  0
 80 85  1  0
 81 89  1  0
 81 91  1  0
 82 84  1  0
 83 89  1  0
 84 85  2  0
 84 83  1  0
 86 80  2  0
 87 86  1  0
 87 82  2  0
 88 82  1  0
 88 81  1  0
 89 79  1  0
 91 93  2  0
 92 91  1  0
 94 92  1  0
 95104  2  0
 95100  1  0
 96 92  1  0
 96100  1  0
 97 96  1  0
 98 99  1  0
 98 97  1  0
 99 95  1  0
100101  2  0
101102  1  0
103102  2  0
104103  1  0
105 79  1  0
105115  1  0
106105  1  0
106109  1  0
107111  1  0
107106  1  0
108107  2  0
111110  1  0
113111  1  0
113112  1  0
114113  1  0
115118  1  1
115116  1  0
117115  1  0
M  ISO  4  22 100  30 100  77 101  78 101
M  END
>  <TORSDO>  (12) 
F 42

>  <SCORE>  (12) 
2.630

>  <name>  (12) 
11

>  <ligand_id>  (12) 
11

>  <original_smiles>  (12) 
[H]C(C(=O)N(c1c([H])c([H])c(C(=O)N([H])C([H])([H])C([H])([H])OC([H])([H])C([H])([H])OC([H])([H])C([H])([H])N([H])C(=O)N2C([H])([H])C([H])([H])C([H])([H])C([H])(n3nc(-c4c([H])c([H])c(Oc5c([H])c([H])c(F)c([H])c5F)c([H])c4[H])c(C(=O)N([H])[H])c3N([H])[H])C2([H])[H])c([H])c1[H])C([H])([H])C([H])([H])OC([H])([H])C([H])([H])OC([H])([H])C([H])([H])OC([H])([H])C([H])([H])OC([H])([H])C([H])([H])Oc1c([H])c([H])c2c(c1[H])C([H])([H])N(C(=O)C([H])(N([H])C(=O)C([H])(N([H])C([H])([H])[H])C([H])([H])[H])C(C([H])([H])[H])(C([H])([H])[H])C([H])([H])[H])C([H])(C(=O)N([H])C1([H])c3c([H])c([H])c([H])c([H])c3C([H])([H])C([H])([H])C1([H])[H])C2([H])[H])=C([H])C([H])([H])C([H])([H])[H]

>  <smiles>  (12) 
[H]C(C(=O)N(c1c([H])c([H])c(C(=O)N([H])C([H])([H])C([H])([H])OC([H])([H])C([H])([H])OC([H])([H])C([H])([H])N([H])C(=O)N2C([H])([H])C([H])([H])C([H])([H])C([H])(n3nc(-c4c([H])c([H])c(Oc5c([H])c([H])c(F)c([H])c5F)c([H])c4[H])c(C(=O)N([H])[H])c3N([H])[H])C2([H])[H])c([H])c1[H])C([H])([H])C([H])([H])OC([H])([H])C([H])([H])OC([H])([H])C([H])([H])OC([H])([H])C([H])([H])OC([H])([H])C([H])([H])Oc1c([H])c([H])c2c(c1[H])C([H])([H])N(C(=O)C([H])(N([H])C(=O)C([H])(N([H])C([H])([H])[H])C([H])([H])[H])C(C([H])([H])[H])(C([H])([H])[H])C([H])([H])[H])C([H])(C(=O)N([H])C1([H])c3c([H])c([H])c([H])c([H])c3C([H])([H])C([H])([H])C1([H])[H])C2([H])[H])=C([H])C([H])([H])C([H])([H])[H]

$$$$
12:0:0
     RDKit          3D

 92 98  0  0  1  0  0  0  0  0999 V2000
  -25.0750  -24.4490   22.9850 C   0  0  0  0  0  2  0  0  0  0  0  0
  -24.3620  -23.2700   22.2730 C   0  0  0  0  0  2  0  0  0  0  0  0
  -24.9820  -22.6530   20.9800 C   0  0  0  0  0  2  0  0  0  0  0  0
  -26.5260  -22.8100   20.7570 C   0  0  0  0  0  0  0  0  0  0  0  0
  -27.1520  -21.8220   21.1900 O   0  0  0  0  0  0  0  0  0  0  0  0
  -27.7580  -25.9030   19.4840 O   0  0  0  0  0  1  0  0  0  0  0  0
  -24.9190  -32.4370   23.5620 C   0  0  0  0  0  0  0  0  0  0  0  0
  -27.0420  -27.4440   19.6860 C   0  0  0  0  0  0  0  0  0  0  0  0
  -23.5820  -31.2610   21.8780 C   0  0  0  0  0  3  0  0  0  0  0  0
  -24.8800  -29.7500   20.1370 C   0  0  0  0  0  0  0  0  0  0  0  0
  -26.1630  -31.2720   21.5840 C   0  0  0  0  0  2  0  0  0  0  0  0
  -26.1370  -29.9010   20.7350 C   0  0  0  0  0  0  0  0  0  0  0  0
  -27.1770  -28.7870   20.4990 C   0  0  0  0  0  3  0  0  0  0  0  0
  -25.7890  -27.6790   19.0170 C   0  0  0  0  0  3  0  0  0  0  0  0
  -24.7710  -28.6710   19.2470 C   0  0  0  0  0  3  0  0  0  0  0  0
  -23.7100  -30.7300   20.4180 C   0  0  0  0  0  2  0  0  0  0  0  0
  -24.9210  -31.6920   22.3930 N   0  0  0  0  0  0  0  0  0  0  0  0
  -23.8720  -32.6980   24.1830 O   0  0  0  0  0  0  0  0  0  0  0  0
  -22.9010  -30.2000   22.7910 C   0  0  0  0  0  0  0  0  0  0  0  0
  -21.5790  -29.9780   22.6540 N   0  0  0  0  0  0  0  0  0  0  0  0
  -23.5860  -29.5750   23.6040 O   0  0  0  0  0  0  0  0  0  0  0  0
  -21.0650  -30.5380   21.9870 H   0  0  0  0  0  0  0  0  0  0  0  0
  -18.3230  -28.3640   22.9580 C   0  0  0  0  0  0  0  0  0  0  0  0
  -20.8140  -28.9410   23.3680 C   0  0  0  0  0  3  0  0  0  0  0  0
  -21.1180  -27.5360   22.7940 C   0  0  0  0  0  2  0  0  0  0  0  0
  -20.1260  -27.1000   21.7110 C   0  0  0  0  0  2  0  0  0  0  0  0
  -18.7020  -27.0620   22.2730 C   0  0  0  0  0  2  0  0  0  0  0  0
  -19.3130  -29.2550   23.4570 C   0  0  0  0  0  0  0  0  0  0  0  0
  -18.9010  -30.4610   24.0640 C   0  0  0  0  0  3  0  0  0  0  0  0
  -17.5350  -30.7850   24.1710 C   0  0  0  0  0  3  0  0  0  0  0  0
  -16.5600  -29.8970   23.6830 C   0  0  0  0  0  3  0  0  0  0  0  0
  -16.9550  -28.6880   23.0840 C   0  0  0  0  0  3  0  0  0  0  0  0
  -26.2300  -33.0110   24.1810 C   0  0  0  0  0  3  0  0  0  0  0  0
  -25.9700  -34.3910   24.6490 N   0  0  0  0  0  0  0  0  0  0  0  0
  -26.3230  -35.5150   24.0080 C   0  0  0  0  0  0  0  0  0  0  0  0
  -26.9520  -35.4980   22.9490 O   0  0  0  0  0  0  0  0  0  0  0  0
  -25.4060  -34.4790   25.4820 H   0  0  0  0  0  0  0  0  0  0  0  0
  -24.6690  -37.4200   23.9410 C   0  0  0  0  0  1  0  0  0  0  0  0
  -25.9240  -36.8690   24.6380 C   0  0  0  0  0  3  0  0  0  0  0  0
  -28.1330  -37.5790   25.4500 C   0  0  0  0  0  1  0  0  0  0  0  0
  -26.9980  -37.8870   24.5850 N   0  0  0  0  0  0  0  0  0  0  0  0
  -26.6390  -38.8020   24.8460 H   0  0  0  0  0  0  0  0  0  0  0  0
  -26.7700  -32.1450   25.3880 C   0  0  1  0  0  0  0  0  0  0  0  0
  -25.7090  -31.8660   26.4810 C   0  0  0  0  0  1  0  0  0  0  0  0
  -27.3010  -30.7790   24.9070 C   0  0  0  0  0  1  0  0  0  0  0  0
  -27.9650  -32.8640   26.0560 C   0  0  0  0  0  1  0  0  0  0  0  0
  -25.6870  -25.3350   22.0650 O   0  0  0  0  0  0  0  0  0  0  0  0
  -28.1050  -22.9890   19.5490 C   0  0  0  0  0  2  0  0  0  0  0  0
  -29.3820  -23.3170   21.7050 C   0  0  0  0  0  2  0  0  0  0  0  0
  -26.8570  -24.0360   19.9690 C   0  0  0  0  0  3  0  0  0  0  0  0
  -28.2560  -24.3780   22.4130 C   0  0  0  0  0  3  0  0  0  0  0  0
  -29.2400  -22.2210   20.4620 C   0  0  0  0  0  2  0  0  0  0  0  0
  -26.7980  -24.7480   21.5490 C   0  0  0  0  0  0  0  0  0  0  0  0
  -30.0410  -20.3030   20.3360 C   0  0  0  0  0 15  0  0  0  0  0  0
  -30.6590  -16.8040   20.4720 C   0  0  0  0  0  0  0  0  0  0  0  0
  -30.9760  -14.1100   19.7580 C   0  0  0  0  0  2  0  0  0  0  0  0
  -30.2470  -13.4050   18.5580 C   0  0  0  0  0  2  0  0  0  0  0  0
  -28.8390  -12.9340   18.9390 C   0  0  0  0  0  2  0  0  0  0  0  0
  -28.1710  -13.9740   19.8550 C   0  0  0  0  0  3  0  0  0  0  0  0
  -29.0830  -14.5420   20.9900 C   0  0  0  0  0  2  0  0  0  0  0  0
  -30.2000  -15.3400   20.3660 N   0  0  0  0  0  0  0  0  0  0  0  0
  -31.9070  -16.6360   20.4520 O   0  0  0  0  0  0  0  0  0  0  0  0
  -29.9300  -18.3340   20.4390 N   0  0  0  0  0  2  0  0  0  0  0  0
  -28.9410  -18.1240   20.4260 H   0  0  0  0  0  0  0  0  0  0  0  0
  -25.7540  -14.4300   20.4320 C   0  0  0  0  0  0  0  0  0  0  0  0
  -24.6890  -13.6330   20.7370 C   0  0  0  0  0  0  0  0  0  0  0  0
  -25.1920  -12.2960   20.7860 C   0  0  0  0  0  0  0  0  0  0  0  0
  -26.8380  -13.5860   20.3020 N   0  0  0  0  0  0  0  0  0  0  0  0
  -26.5100  -12.2920   20.5770 N   0  0  0  0  0  0  0  0  0  0  0  0
  -24.4730  -11.0230   20.9570 C   0  0  0  0  0  0  0  0  0  0  0  0
  -24.8010  -10.1180   21.9910 C   0  0  0  0  0  3  0  0  0  0  0  0
  -24.0740   -8.9180   22.1530 C   0  0  0  0  0  3  0  0  0  0  0  0
  -23.0050   -8.6120   21.2790 C   0  0  0  0  0  0  0  0  0  0  0  0
  -22.6950   -9.5040   20.2370 C   0  0  0  0  0  3  0  0  0  0  0  0
  -23.4220  -10.6960   20.0750 C   0  0  0  0  0  3  0  0  0  0  0  0
  -22.2620   -7.4560   21.3440 O   0  0  0  0  0  0  0  0  0  0  0  0
  -22.0270   -6.8160   22.5340 C   0  0  0  0  0  0  0  0  0  0  0  0
  -21.4200   -7.4730   23.6270 C   0  0  0  0  0  3  0  0  0  0  0  0
  -21.1350   -6.7580   24.8080 C   0  0  0  0  0  3  0  0  0  0  0  0
  -21.4460   -5.3880   24.8960 C   0  0  0  0  0  0  0  0  0  0  0  0
  -22.0450   -4.7310   23.8070 C   0  0  0  0  0  3  0  0  0  0  0  0
  -22.3310   -5.4420   22.6290 C   0  0  0  0  0  0  0  0  0  0  0  0
  -22.8890   -4.7970   21.5750 F   0  0  0  0  0  0  0  0  0  0  0  0
  -21.1660   -4.7000   26.0270 F   0  0  0  0  0  0  0  0  0  0  0  0
  -23.2640  -14.0850   20.8670 C   0  0  0  0  0  0  0  0  0  0  0  0
  -22.4840  -13.4180   21.7090 N   0  0  0  0  0  0  0  0  0  0  0  0
  -22.8500  -15.0710   20.2560 O   0  0  0  0  0  0  0  0  0  0  0  0
  -22.8300  -12.6220   22.2230 H   0  0  0  0  0  0  0  0  0  0  0  0
  -21.5240  -13.7050   21.8390 H   0  0  0  0  0  0  0  0  0  0  0  0
  -25.8920  -15.7980   20.2180 N   0  0  0  0  0  0  0  0  0  0  0  0
  -25.1010  -16.4340   20.2410 H   0  0  0  0  0  0  0  0  0  0  0  0
  -26.7490  -16.2440   19.9210 H   0  0  0  0  0  0  0  0  0  0  0  0
  2  1  1  0
  3  2  1  0
  4  3  1  0
  4  5  2  0
  6  8  1  0
  7 18  2  0
  8 13  1  0
  9 17  1  0
  9 19  1  0
 10 16  1  0
 10 12  1  0
 11 17  1  0
 12 11  1  0
 13 12  2  0
 14 15  1  0
 14  8  2  0
 15 10  2  0
 16  9  1  0
 17  7  1  0
 19 21  2  0
 20 19  1  0
 22 20  1  0
 23 32  2  0
 23 28  1  0
 24 20  1  0
 24 28  1  0
 25 24  1  0
 26 27  1  0
 26 25  1  0
 27 23  1  0
 28 29  2  0
 29 30  1  0
 31 30  2  0
 32 31  1  0
 33  7  1  0
 33 34  1  0
 33 43  1  0
 34 37  1  0
 35 39  1  0
 35 34  1  0
 36 35  2  0
 39 38  1  0
 41 39  1  0
 41 42  1  0
 41 40  1  0
 43 46  1  1
 43 44  1  0
 45 43  1  0
 47  1  1  0
 48 52  1  0
 49 51  1  0
 50 48  1  0
 50  4  1  0
 50 53  1  0
 52 49  1  0
 53 47  1  0
 53 51  2  0
 56 61  1  0
 57 58  1  0
 57 56  1  0
 59 58  1  0
 59 68  1  0
 59 60  1  0
 61 55  1  0
 61 60  1  0
 62 55  2  0
 63 55  1  0
 64 63  1  0
 65 66  2  0
 66 67  1  0
 66 85  1  0
 67 70  1  0
 68 65  1  0
 68 69  1  0
 69 67  2  0
 70 71  1  0
 71 72  2  0
 73 76  1  0
 73 72  1  0
 74 73  2  0
 75 74  1  0
 75 70  2  0
 76 77  1  0
 77 82  2  0
 77 78  1  0
 78 79  2  0
 79 80  1  0
 80 84  1  0
 81 80  2  0
 82 81  1  0
 83 82  1  0
 85 86  1  0
 86 89  1  0
 86 88  1  0
 87 85  2  0
 90 91  1  0
 90 65  1  0
 92 90  1  0
M  ISO  4   4 101   6 101  55 100  63 100
M  END
>  <TORSDO>  (13) 
F 22

>  <SCORE>  (13) 
-10.678

>  <name>  (13) 
12

>  <ligand_id>  (13) 
12

>  <original_smiles>  (13) 
[H]c1c([H])c([H])c2c(c1[H])C([H])([H])C([H])([H])C([H])([H])C2([H])N([H])C(=O)C1([H])N(C(=O)C([H])(N([H])C(=O)C([H])(N([H])C([H])([H])[H])C([H])([H])[H])C(C([H])([H])[H])(C([H])([H])[H])C([H])([H])[H])C([H])([H])c2c([H])c(OC(=O)C([H])([H])C([H])([H])C([H])([H])Oc3c([H])c([H])c(C([H])([H])N([H])C(=O)N4C([H])([H])C([H])([H])C([H])([H])C([H])(n5nc(-c6c([H])c([H])c(Oc7c([H])c([H])c(F)c([H])c7F)c([H])c6[H])c(C(=O)N([H])[H])c5N([H])[H])C4([H])[H])c([H])c3[H])c([H])c([H])c2C1([H])[H]

>  <smiles>  (13) 
[H]c1c([H])c([H])c2c(c1[H])C([H])([H])C([H])([H])C([H])([H])C2([H])N([H])C(=O)C1([H])N(C(=O)C([H])(N([H])C(=O)C([H])(N([H])C([H])([H])[H])C([H])([H])[H])C(C([H])([H])[H])(C([H])([H])[H])C([H])([H])[H])C([H])([H])c2c([H])c(OC(=O)C([H])([H])C([H])([H])C([H])([H])Oc3c([H])c([H])c(C([H])([H])N([H])C(=O)N4C([H])([H])C([H])([H])C([H])([H])C([H])(n5nc(-c6c([H])c([H])c(Oc7c([H])c([H])c(F)c([H])c7F)c([H])c6[H])c(C(=O)N([H])[H])c5N([H])[H])C4([H])[H])c([H])c3[H])c([H])c([H])c2C1([H])[H]

$$$$
13:0:0
     RDKit          3D

108116  0  0  1  0  0  0  0  0999 V2000
  -18.9980  -14.6350   22.9600 C   0  0  0  0  0  2  0  0  0  0  0  0
  -18.1420  -15.4940   23.9020 C   0  0  0  0  0  2  0  0  0  0  0  0
  -18.5820  -16.8430   23.8280 O   0  0  0  0  0  0  0  0  0  0  0  0
  -17.8340  -17.7390   24.6430 C   0  0  0  0  0  2  0  0  0  0  0  0
  -18.5730  -19.0830   24.6870 C   0  0  0  0  0  2  0  0  0  0  0  0
  -18.4490  -19.8930   23.3930 C   0  0  0  0  0  2  0  0  0  0  0  0
  -19.1670  -21.1090   23.5570 O   0  0  0  0  0  0  0  0  0  0  0  0
  -19.0730  -21.9720   22.4330 C   0  0  0  0  0  2  0  0  0  0  0  0
  -20.1480  -23.0550   22.5880 C   0  0  0  0  0  2  0  0  0  0  0  0
  -20.3250  -23.9120   21.3290 C   0  0  0  0  0  2  0  0  0  0  0  0
  -21.4310  -24.7880   21.5100 O   0  0  0  0  0  0  0  0  0  0  0  0
  -21.6410  -25.6430   20.3930 C   0  0  0  0  0  2  0  0  0  0  0  0
  -22.9430  -26.4300   20.5900 C   0  0  0  0  0  2  0  0  0  0  0  0
  -23.0680  -27.6120   19.6030 C   0  0  0  0  0  2  0  0  0  0  0  0
  -24.1000  -28.5170   19.9950 O   0  0  0  0  0  0  0  0  0  0  0  0
  -27.6480  -31.9860   25.0700 C   0  0  0  0  0  0  0  0  0  0  0  0
  -24.0150  -29.1110   21.2400 C   0  0  0  0  0  0  0  0  0  0  0  0
  -25.3880  -31.2000   25.6950 C   0  0  0  0  0  3  0  0  0  0  0  0
  -23.9410  -30.3690   23.7740 C   0  0  0  0  0  0  0  0  0  0  0  0
  -25.9560  -31.7500   23.2590 C   0  0  0  0  0  2  0  0  0  0  0  0
  -24.9390  -30.7070   22.8510 C   0  0  0  0  0  0  0  0  0  0  0  0
  -24.9830  -30.0790   21.5890 C   0  0  0  0  0  3  0  0  0  0  0  0
  -23.0080  -28.7930   22.1860 C   0  0  0  0  0  3  0  0  0  0  0  0
  -22.9750  -29.4060   23.4490 C   0  0  0  0  0  3  0  0  0  0  0  0
  -23.9590  -31.0780   25.1070 C   0  0  0  0  0  2  0  0  0  0  0  0
  -26.3930  -31.6370   24.6700 N   0  0  0  0  0  0  0  0  0  0  0  0
  -27.9630  -31.9840   26.2680 O   0  0  0  0  0  0  0  0  0  0  0  0
  -25.7600  -29.8680   26.3870 C   0  0  0  0  0  0  0  0  0  0  0  0
  -25.4540  -29.7610   27.6900 N   0  0  0  0  0  0  0  0  0  0  0  0
  -26.2850  -28.9510   25.7470 O   0  0  0  0  0  0  0  0  0  0  0  0
  -25.0270  -30.5550   28.1450 H   0  0  0  0  0  0  0  0  0  0  0  0
  -25.2150  -28.5220   31.0730 C   0  0  0  0  0  0  0  0  0  0  0  0
  -25.6760  -28.5860   28.5330 C   0  0  0  0  0  3  0  0  0  0  0  0
  -24.5150  -27.5740   28.4020 C   0  0  0  0  0  2  0  0  0  0  0  0
  -23.4180  -27.7690   29.4570 C   0  0  0  0  0  2  0  0  0  0  0  0
  -24.0040  -27.6300   30.8640 C   0  0  0  0  0  2  0  0  0  0  0  0
  -25.9890  -28.9840   29.9780 C   0  0  0  0  0  0  0  0  0  0  0  0
  -27.0840  -29.8410   30.2250 C   0  0  0  0  0  3  0  0  0  0  0  0
  -27.4090  -30.2340   31.5370 C   0  0  0  0  0  3  0  0  0  0  0  0
  -26.6460  -29.7570   32.6190 C   0  0  0  0  0  3  0  0  0  0  0  0
  -25.5560  -28.9010   32.3860 C   0  0  0  0  0  3  0  0  0  0  0  0
  -28.7370  -32.4250   24.0420 C   0  0  0  0  0  3  0  0  0  0  0  0
  -29.8160  -31.3090   23.7620 C   0  0  1  0  0  0  0  0  0  0  0  0
  -30.5110  -30.7810   25.0390 C   0  0  0  0  0  1  0  0  0  0  0  0
  -29.1810  -30.1030   23.0340 C   0  0  0  0  0  1  0  0  0  0  0  0
  -30.9090  -31.8610   22.8180 C   0  0  0  0  0  1  0  0  0  0  0  0
  -29.3710  -33.6410   24.5670 N   0  0  0  0  0  0  0  0  0  0  0  0
  -29.0620  -34.8880   24.1870 C   0  0  0  0  0  0  0  0  0  0  0  0
  -28.2490  -35.1300   23.2900 O   0  0  0  0  0  0  0  0  0  0  0  0
  -30.0170  -33.5200   25.3350 H   0  0  0  0  0  0  0  0  0  0  0  0
  -28.8230  -36.6290   25.9850 C   0  0  0  0  0  1  0  0  0  0  0  0
  -29.7640  -36.0510   24.9160 C   0  0  0  0  0  3  0  0  0  0  0  0
  -31.3020  -36.7290   23.1240 C   0  0  0  0  0  1  0  0  0  0  0  0
  -30.2120  -37.1300   24.0090 N   0  0  0  0  0  0  0  0  0  0  0  0
  -30.5120  -37.9440   24.5370 H   0  0  0  0  0  0  0  0  0  0  0  0
  -20.4720  -14.5970   23.4070 C   0  0  0  0  0  2  0  0  0  0  0  0
  -21.2630  -13.5610   22.7120 N   0  0  0  0  0  4  0  0  0  0  0  0
  -20.6950  -12.7310   22.6330 H   0  0  0  0  0  0  0  0  0  0  0  0
  -21.5150  -13.8570   21.7840 H   0  0  0  0  0  0  0  0  0  0  0  0
  -22.4970  -13.1640   23.4120 C   0  0  0  0  0  2  0  0  0  0  0  0
  -24.5230  -12.6310   21.9770 C   0  0  0  0  0  3  0  0  0  0  0  0
  -24.2060  -14.9300   22.7090 C   0  0  0  0  0  3  0  0  0  0  0  0
  -25.7610  -12.9860   21.4110 C   0  0  0  0  0  3  0  0  0  0  0  0
  -25.4470  -15.2850   22.1370 C   0  0  0  0  0  3  0  0  0  0  0  0
  -23.7550  -13.5940   22.6660 C   0  0  0  0  0  0  0  0  0  0  0  0
  -26.2550  -14.3000   21.5190 C   0  0  0  0  0  0  0  0  0  0  0  0
  -27.5210  -14.5170   21.0280 O   0  0  0  0  0  0  0  0  0  0  0  0
  -27.9470  -15.8410   20.7340 C   0  0  0  0  0  2  0  0  0  0  0  0
  -29.3920  -15.9610   21.2630 C   0  0  0  0  0  2  0  0  0  0  0  0
  -30.5120  -15.9700   20.2010 C   0  0  0  0  0  2  0  0  0  0  0  0
  -31.3990  -13.7120   19.7650 C   0  0  0  0  0  0  0  0  0  0  0  0
  -31.4310  -11.3440   20.4650 C   0  0  0  0  0  2  0  0  0  0  0  0
  -30.9060  -10.4440   19.3290 C   0  0  0  0  0  2  0  0  0  0  0  0
  -29.3670  -10.3400   19.3640 C   0  0  0  0  0  2  0  0  0  0  0  0
  -28.6840  -11.7270   19.4680 C   0  0  0  0  0  3  0  0  0  0  0  0
  -29.3310  -12.5420   20.6010 C   0  0  0  0  0  2  0  0  0  0  0  0
  -30.7760  -12.6520   20.3410 N   0  0  0  0  0  0  0  0  0  0  0  0
  -32.5920  -13.7110   19.4470 O   0  0  0  0  0  0  0  0  0  0  0  0
  -30.6000  -14.7320   19.4230 N   0  0  0  0  0  0  0  0  0  0  0  0
  -30.7350  -14.9590   18.4480 H   0  0  0  0  0  0  0  0  0  0  0  0
  -26.2360  -12.5340   19.3640 C   0  0  0  0  0  0  0  0  0  0  0  0
  -25.0560  -11.9050   19.6560 C   0  0  0  0  0  0  0  0  0  0  0  0
  -25.4070  -10.5990   20.1180 C   0  0  0  0  0  0  0  0  0  0  0  0
  -27.2370  -11.6160   19.6510 N   0  0  0  0  0  0  0  0  0  0  0  0
  -26.7270  -10.4670   20.1590 N   0  0  0  0  0  0  0  0  0  0  0  0
  -24.5630   -9.4500   20.4700 C   0  0  0  0  0  0  0  0  0  0  0  0
  -24.7040   -8.7930   21.7110 C   0  0  0  0  0  3  0  0  0  0  0  0
  -23.8710   -7.7030   22.0440 C   0  0  0  0  0  3  0  0  0  0  0  0
  -22.8850   -7.2610   21.1310 C   0  0  0  0  0  0  0  0  0  0  0  0
  -22.7670   -7.9000   19.8850 C   0  0  0  0  0  3  0  0  0  0  0  0
  -23.6020   -8.9800   19.5520 C   0  0  0  0  0  3  0  0  0  0  0  0
  -22.0500   -6.1940   21.3530 O   0  0  0  0  0  0  0  0  0  0  0  0
  -21.7420   -5.7730   22.6220 C   0  0  0  0  0  0  0  0  0  0  0  0
  -21.0990   -6.6170   23.5520 C   0  0  0  0  0  3  0  0  0  0  0  0
  -20.7370   -6.1180   24.8190 C   0  0  0  0  0  3  0  0  0  0  0  0
  -21.0120   -4.7800   25.1560 C   0  0  0  0  0  0  0  0  0  0  0  0
  -21.6510   -3.9380   24.2280 C   0  0  0  0  0  3  0  0  0  0  0  0
  -22.0110   -4.4330   22.9620 C   0  0  0  0  0  0  0  0  0  0  0  0
  -22.6020   -3.6110   22.0630 F   0  0  0  0  0  0  0  0  0  0  0  0
  -20.6590   -4.2990   26.3710 F   0  0  0  0  0  0  0  0  0  0  0  0
  -23.6730  -12.4360   19.4140 C   0  0  0  0  0  0  0  0  0  0  0  0
  -22.6810  -11.8940   20.1100 N   0  0  0  0  0  0  0  0  0  0  0  0
  -23.4670  -13.3480   18.6130 O   0  0  0  0  0  0  0  0  0  0  0  0
  -22.8710  -11.1060   20.7140 H   0  0  0  0  0  0  0  0  0  0  0  0
  -21.7360  -12.0860   19.8200 H   0  0  0  0  0  0  0  0  0  0  0  0
  -26.5330  -13.7930   18.8490 N   0  0  0  0  0  0  0  0  0  0  0  0
  -25.7980  -14.4390   18.5790 H   0  0  0  0  0  0  0  0  0  0  0  0
  -27.4600  -14.1300   18.6290 H   0  0  0  0  0  0  0  0  0  0  0  0
  1 56  1  0
  1  2  1  0
  3  2  1  0
  3  4  1  0
  4  5  1  0
  6  7  1  0
  6  5  1  0
  8  9  1  0
  8  7  1  0
 10 11  1  0
 10  9  1  0
 12 13  1  0
 12 11  1  0
 14 15  1  0
 14 13  1  0
 15 17  1  0
 16 27  2  0
 17 22  2  0
 17 23  1  0
 18 28  1  0
 19 25  1  0
 20 26  1  0
 21 20  1  0
 21 19  2  0
 22 21  1  0
 23 24  2  0
 24 19  1  0
 25 18  1  0
 26 16  1  0
 26 18  1  0
 28 29  1  0
 29 31  1  0
 30 28  2  0
 32 41  1  0
 33 29  1  0
 33 37  1  0
 34 33  1  0
 34 35  1  0
 35 36  1  0
 36 32  1  0
 37 38  1  0
 37 32  2  0
 38 39  2  0
 39 40  1  0
 41 40  2  0
 42 47  1  0
 42 16  1  0
 43 42  1  0
 43 44  1  1
 45 43  1  0
 46 43  1  0
 47 50  1  0
 48 47  1  0
 48 52  1  0
 49 48  2  0
 52 51  1  0
 53 54  1  0
 54 55  1  0
 54 52  1  0
 57 56  1  0
 57 60  1  0
 58 57  1  0
 59 57  1  0
 61 65  1  0
 63 66  1  0
 63 61  2  0
 64 62  1  0
 65 62  2  0
 65 60  1  0
 66 64  2  0
 67 66  1  0
 68 67  1  0
 68 69  1  0
 70 69  1  0
 71 77  1  0
 73 74  1  0
 73 72  1  0
 75 74  1  0
 75 84  1  0
 75 76  1  0
 77 72  1  0
 77 76  1  0
 78 71  2  0
 79 71  1  0
 79 70  1  0
 80 79  1  0
 81 84  1  0
 81 82  2  0
 82 83  1  0
 83 85  2  0
 83 86  1  0
 84 85  1  0
 86 87  1  0
 87 88  2  0
 89 92  1  0
 89 88  1  0
 90 89  2  0
 91 90  1  0
 91 86  2  0
 92 93  1  0
 93 98  2  0
 93 94  1  0
 94 95  2  0
 95 96  1  0
 96100  1  0
 97 96  2  0
 98 97  1  0
 99 98  1  0
101 82  1  0
101102  1  0
102104  1  0
103101  2  0
105102  1  0
106 81  1  0
107106  1  0
108106  1  0
M  ISO  4  14 101  15 101  71 100  79 100
M  END
>  <TORSDO>  (14) 
F 37

>  <SCORE>  (14) 
23.584

>  <name>  (14) 
13

>  <ligand_id>  (14) 
13

>  <original_smiles>  (14) 
[H]c1c([H])c([H])c2c(c1[H])C([H])([H])C([H])([H])C([H])([H])C2([H])N([H])C(=O)C1([H])N(C(=O)C([H])(N([H])C(=O)C([H])(N([H])C([H])([H])[H])C([H])([H])[H])C(C([H])([H])[H])(C([H])([H])[H])C([H])([H])[H])C([H])([H])c2c([H])c(OC([H])([H])C([H])([H])C([H])([H])OC([H])([H])C([H])([H])C([H])([H])OC([H])([H])C([H])([H])C([H])([H])OC([H])([H])C([H])([H])C([H])([H])[N+]([H])([H])C([H])([H])c3c([H])c([H])c(OC([H])([H])C([H])([H])C([H])([H])N([H])C(=O)N4C([H])([H])C([H])([H])C([H])([H])C([H])(n5nc(-c6c([H])c([H])c(Oc7c([H])c([H])c(F)c([H])c7F)c([H])c6[H])c(C(=O)N([H])[H])c5N([H])[H])C4([H])[H])c([H])c3[H])c([H])c([H])c2C1([H])[H]

>  <smiles>  (14) 
[H]c1c([H])c([H])c2c(c1[H])C([H])([H])C([H])([H])C([H])([H])C2([H])N([H])C(=O)C1([H])N(C(=O)C([H])(N([H])C(=O)C([H])(N([H])C([H])([H])[H])C([H])([H])[H])C(C([H])([H])[H])(C([H])([H])[H])C([H])([H])[H])C([H])([H])c2c([H])c(OC([H])([H])C([H])([H])C([H])([H])OC([H])([H])C([H])([H])C([H])([H])OC([H])([H])C([H])([H])C([H])([H])OC([H])([H])C([H])([H])C([H])([H])[N+]([H])([H])C([H])([H])c3c([H])c([H])c(OC([H])([H])C([H])([H])C([H])([H])N([H])C(=O)N4C([H])([H])C([H])([H])C([H])([H])C([H])(n5nc(-c6c([H])c([H])c(Oc7c([H])c([H])c(F)c([H])c7F)c([H])c6[H])c(C(=O)N([H])[H])c5N([H])[H])C4([H])[H])c([H])c3[H])c([H])c([H])c2C1([H])[H]

$$$$
14:0:0
     RDKit          3D

 86 93  0  0  1  0  0  0  0  0999 V2000
  -28.1520  -24.0360   19.9640 C   0  0  0  0  0  2  0  0  0  0  0  0
  -28.3920  -25.3500   20.7900 C   0  0  0  0  0  2  0  0  0  0  0  0
  -28.3770  -26.6310   20.0960 O   0  0  0  0  0  0  0  0  0  0  0  0
  -24.5990  -31.8740   23.2160 C   0  0  0  0  0  0  0  0  0  0  0  0
  -27.2150  -27.3850   20.1400 C   0  0  0  0  0  0  0  0  0  0  0  0
  -23.3840  -30.4740   21.5800 C   0  0  0  0  0  3  0  0  0  0  0  0
  -24.8290  -28.9240   20.1520 C   0  0  0  0  0  0  0  0  0  0  0  0
  -25.9130  -30.8190   21.3710 C   0  0  0  0  0  2  0  0  0  0  0  0
  -25.9940  -29.4420   20.7330 C   0  0  0  0  0  0  0  0  0  0  0  0
  -27.1920  -28.6830   20.7140 C   0  0  0  0  0  3  0  0  0  0  0  0
  -26.0330  -26.8880   19.5570 C   0  0  0  0  0  3  0  0  0  0  0  0
  -24.8460  -27.6490   19.5580 C   0  0  0  0  0  3  0  0  0  0  0  0
  -23.5880  -29.7890   20.2000 C   0  0  0  0  0  2  0  0  0  0  0  0
  -24.6500  -31.0720   22.1130 N   0  0  0  0  0  0  0  0  0  0  0  0
  -23.5200  -32.1480   23.7600 O   0  0  0  0  0  0  0  0  0  0  0  0
  -22.7330  -29.4560   22.5450 C   0  0  0  0  0  0  0  0  0  0  0  0
  -21.4080  -29.2750   22.4230 N   0  0  0  0  0  0  0  0  0  0  0  0
  -23.4180  -28.8320   23.3590 O   0  0  0  0  0  0  0  0  0  0  0  0
  -20.9160  -29.8300   21.7370 H   0  0  0  0  0  0  0  0  0  0  0  0
  -18.0370  -28.0680   22.9220 C   0  0  0  0  0  0  0  0  0  0  0  0
  -20.5930  -28.3370   23.1960 C   0  0  0  0  0  3  0  0  0  0  0  0
  -20.7010  -26.9040   22.6240 C   0  0  0  0  0  2  0  0  0  0  0  0
  -19.6020  -26.5740   21.6090 C   0  0  0  0  0  2  0  0  0  0  0  0
  -18.2190  -26.7170   22.2510 C   0  0  0  0  0  2  0  0  0  0  0  0
  -19.1520  -28.8360   23.3510 C   0  0  0  0  0  0  0  0  0  0  0  0
  -18.9290  -30.1010   23.9370 C   0  0  0  0  0  3  0  0  0  0  0  0
  -17.6230  -30.5990   24.0990 C   0  0  0  0  0  3  0  0  0  0  0  0
  -16.5210  -29.8280   23.6870 C   0  0  0  0  0  3  0  0  0  0  0  0
  -16.7290  -28.5660   23.1040 C   0  0  0  0  0  3  0  0  0  0  0  0
  -25.8870  -32.5040   23.8300 C   0  0  0  0  0  3  0  0  0  0  0  0
  -26.4150  -31.7260   25.0990 C   0  0  1  0  0  0  0  0  0  0  0  0
  -25.3310  -31.4830   26.1750 C   0  0  0  0  0  1  0  0  0  0  0  0
  -26.9930  -30.3500   24.6930 C   0  0  0  0  0  1  0  0  0  0  0  0
  -27.5720  -32.5160   25.7540 C   0  0  0  0  0  1  0  0  0  0  0  0
  -25.5800  -33.9010   24.1710 N   0  0  0  0  0  0  0  0  0  0  0  0
  -25.9080  -34.9570   23.4150 C   0  0  0  0  0  0  0  0  0  0  0  0
  -26.5710  -34.8590   22.3790 O   0  0  0  0  0  0  0  0  0  0  0  0
  -24.9910  -34.0510   24.9760 H   0  0  0  0  0  0  0  0  0  0  0  0
  -24.1760  -36.7500   23.0790 C   0  0  0  0  0  1  0  0  0  0  0  0
  -25.4220  -36.3430   23.8810 C   0  0  0  0  0  3  0  0  0  0  0  0
  -27.5630  -37.2230   24.6990 C   0  0  0  0  0  1  0  0  0  0  0  0
  -26.4530  -37.3970   23.7660 N   0  0  0  0  0  0  0  0  0  0  0  0
  -26.0480  -38.3160   23.9220 H   0  0  0  0  0  0  0  0  0  0  0  0
  -28.9100  -22.8780   20.4230 O   0  0  0  0  0  0  0  0  0  0  0  0
  -28.3720  -21.5820   20.0450 C   0  0  0  0  0  2  0  0  0  0  0  0
  -29.4000  -20.4060   19.8200 C   0  0  0  0  0  2  0  0  0  0  0  0
  -29.3490  -19.2780   20.7360 O   0  0  0  0  0  0  0  0  0  0  0  0
  -29.7840  -18.0010   20.1830 C   0  0  0  0  0  2  0  0  0  0  0  0
  -30.1970  -16.9170   21.2400 C   0  0  0  0  0  2  0  0  0  0  0  0
  -29.7780  -15.5490   20.9980 O   0  0  0  0  0  0  0  0  0  0  0  0
  -30.6130  -14.5690   20.4860 C   0  0  0  0  0  0  0  0  0  0  0  0
  -30.3590  -12.3550   19.3530 C   0  0  0  0  0  2  0  0  0  0  0  0
  -29.4220  -12.5490   18.1410 C   0  0  0  0  0  2  0  0  0  0  0  0
  -27.9430  -12.4080   18.5590 C   0  0  0  0  0  2  0  0  0  0  0  0
  -27.5900  -13.2510   19.8140 C   0  0  0  0  0  3  0  0  0  0  0  0
  -28.6310  -13.0410   20.9330 C   0  0  0  0  0  2  0  0  0  0  0  0
  -29.9560  -13.3290   20.3760 N   0  0  0  0  0  0  0  0  0  0  0  0
  -31.7500  -14.7950   20.0640 O   0  0  0  0  0  0  0  0  0  0  0  0
  -25.1880  -13.8620   20.5000 C   0  0  0  0  0  0  0  0  0  0  0  0
  -24.1170  -13.0940   20.8650 C   0  0  0  0  0  0  0  0  0  0  0  0
  -24.5770  -11.7420   20.8520 C   0  0  0  0  0  0  0  0  0  0  0  0
  -26.2340  -12.9790   20.2830 N   0  0  0  0  0  0  0  0  0  0  0  0
  -25.8710  -11.6980   20.5550 N   0  0  0  0  0  0  0  0  0  0  0  0
  -23.8490  -10.4810   21.0480 C   0  0  0  0  0  0  0  0  0  0  0  0
  -24.2860   -9.5120   21.9780 C   0  0  0  0  0  3  0  0  0  0  0  0
  -23.5580   -8.3160   22.1610 C   0  0  0  0  0  3  0  0  0  0  0  0
  -22.3790   -8.0820   21.4130 C   0  0  0  0  0  0  0  0  0  0  0  0
  -21.9620   -9.0400   20.4730 C   0  0  0  0  0  3  0  0  0  0  0  0
  -22.6910  -10.2270   20.2880 C   0  0  0  0  0  3  0  0  0  0  0  0
  -21.6230   -6.9390   21.5050 O   0  0  0  0  0  0  0  0  0  0  0  0
  -21.5930   -6.1860   22.6520 C   0  0  0  0  0  0  0  0  0  0  0  0
  -21.2090   -6.7350   23.8940 C   0  0  0  0  0  3  0  0  0  0  0  0
  -21.1250   -5.9090   25.0330 C   0  0  0  0  0  3  0  0  0  0  0  0
  -21.4160   -4.5360   24.9310 C   0  0  0  0  0  0  0  0  0  0  0  0
  -21.7920   -3.9860   23.6930 C   0  0  0  0  0  3  0  0  0  0  0  0
  -21.8780   -4.8080   22.5560 C   0  0  0  0  0  0  0  0  0  0  0  0
  -22.2210   -4.2700   21.3610 F   0  0  0  0  0  0  0  0  0  0  0  0
  -21.3270   -3.7400   26.0220 F   0  0  0  0  0  0  0  0  0  0  0  0
  -22.7180  -13.5740   21.1220 C   0  0  0  0  0  0  0  0  0  0  0  0
  -21.9840  -12.8850   21.9900 N   0  0  0  0  0  0  0  0  0  0  0  0
  -22.2830  -14.5940   20.5890 O   0  0  0  0  0  0  0  0  0  0  0  0
  -22.3470  -12.0600   22.4420 H   0  0  0  0  0  0  0  0  0  0  0  0
  -21.0440  -13.1890   22.2050 H   0  0  0  0  0  0  0  0  0  0  0  0
  -25.3570  -15.2310   20.3150 N   0  0  0  0  0  0  0  0  0  0  0  0
  -24.5960  -15.8930   20.4210 H   0  0  0  0  0  0  0  0  0  0  0  0
  -26.2240  -15.6670   20.0240 H   0  0  0  0  0  0  0  0  0  0  0  0
  1 44  1  0
  1  2  1  0
  3  5  1  0
  3  2  1  0
  4 15  2  0
  5 10  1  0
  6 14  1  0
  6 16  1  0
  7 13  1  0
  7  9  1  0
  8 14  1  0
  9  8  1  0
 10  9  2  0
 11 12  1  0
 11  5  2  0
 12  7  2  0
 13  6  1  0
 14  4  1  0
 16 18  2  0
 17 16  1  0
 19 17  1  0
 20 29  2  0
 20 25  1  0
 21 17  1  0
 21 25  1  0
 22 21  1  0
 23 24  1  0
 23 22  1  0
 24 20  1  0
 25 26  2  0
 26 27  1  0
 28 27  2  0
 29 28  1  0
 30  4  1  0
 30 35  1  0
 30 31  1  0
 31 34  1  1
 31 32  1  0
 33 31  1  0
 35 38  1  0
 36 40  1  0
 36 35  1  0
 37 36  2  0
 40 39  1  0
 42 40  1  0
 42 43  1  0
 42 41  1  0
 45 44  1  0
 46 45  1  0
 46 47  1  0
 48 47  1  0
 48 49  1  0
 50 49  1  0
 51 50  1  0
 52 57  1  0
 53 54  1  0
 53 52  1  0
 55 54  1  0
 55 62  1  0
 55 56  1  0
 57 51  1  0
 57 56  1  0
 58 51  2  0
 59 60  2  0
 60 79  1  0
 61 60  1  0
 61 64  1  0
 62 59  1  0
 62 63  1  0
 63 61  2  0
 64 65  1  0
 65 66  2  0
 67 70  1  0
 67 66  1  0
 68 67  2  0
 69 68  1  0
 69 64  2  0
 70 71  1  0
 71 72  1  0
 72 73  2  0
 74 73  1  0
 74 78  1  0
 75 74  2  0
 76 71  2  0
 76 75  1  0
 77 76  1  0
 79 80  1  0
 80 83  1  0
 80 82  1  0
 81 79  2  0
 84 85  1  0
 84 59  1  0
 86 84  1  0
M  ISO  4   2 101   3 101  50 100  51 100
M  END
>  <TORSDO>  (15) 
F 24

>  <SCORE>  (15) 
-12.330

>  <name>  (15) 
14

>  <ligand_id>  (15) 
14

>  <original_smiles>  (15) 
[H]c1c([H])c([H])c2c(c1[H])C([H])([H])C([H])([H])C([H])([H])C2([H])N([H])C(=O)C1([H])N(C(=O)C([H])(N([H])C(=O)C([H])(N([H])C([H])([H])[H])C([H])([H])[H])C(C([H])([H])[H])(C([H])([H])[H])C([H])([H])[H])C([H])([H])c2c([H])c(OC([H])([H])C([H])([H])OC([H])([H])C([H])([H])OC([H])([H])C([H])([H])OC(=O)N3C([H])([H])C([H])([H])C([H])([H])C([H])(n4nc(-c5c([H])c([H])c(Oc6c([H])c([H])c(F)c([H])c6F)c([H])c5[H])c(C(=O)N([H])[H])c4N([H])[H])C3([H])[H])c([H])c([H])c2C1([H])[H]

>  <smiles>  (15) 
[H]c1c([H])c([H])c2c(c1[H])C([H])([H])C([H])([H])C([H])([H])C2([H])N([H])C(=O)C1([H])N(C(=O)C([H])(N([H])C(=O)C([H])(N([H])C([H])([H])[H])C([H])([H])[H])C(C([H])([H])[H])(C([H])([H])[H])C([H])([H])[H])C([H])([H])c2c([H])c(OC([H])([H])C([H])([H])OC([H])([H])C([H])([H])OC([H])([H])C([H])([H])OC(=O)N3C([H])([H])C([H])([H])C([H])([H])C([H])(n4nc(-c5c([H])c([H])c(Oc6c([H])c([H])c(F)c([H])c6F)c([H])c5[H])c(C(=O)N([H])[H])c4N([H])[H])C3([H])[H])c([H])c([H])c2C1([H])[H]

$$$$
15:0:0
     RDKit          3D

110119  0  0  1  0  0  0  0  0999 V2000
  -23.8750  -22.2110   25.2130 O   0  0  0  0  0  0  0  0  0  0  0  0
  -24.0210  -19.7350   25.7050 O   0  0  0  0  0  0  0  0  0  0  0  0
  -23.6000  -20.8210   24.8070 S   0  0  1  0  0  0  0  0  0  0  0  0
  -21.8080  -20.6330   24.4450 C   0  0  0  0  0  2  0  0  0  0  0  0
  -21.2720  -21.6970   23.4740 C   0  0  0  0  0  2  0  0  0  0  0  0
  -21.4180  -21.2540   22.1260 O   0  0  0  0  0  0  0  0  0  0  0  0
  -21.1570  -22.2640   21.1540 C   0  0  0  0  0  2  0  0  0  0  0  0
  -22.4640  -22.9010   20.6460 C   0  0  0  0  0  2  0  0  0  0  0  0
  -23.1440  -23.6210   21.6700 O   0  0  0  0  0  0  0  0  0  0  0  0
  -24.4160  -24.1210   21.2470 C   0  0  0  0  0  2  0  0  0  0  0  0
  -25.0560  -24.9740   22.3590 C   0  0  0  0  0  0  0  0  0  0  0  0
  -26.3720  -25.2390   22.3500 N   0  0  0  0  0  0  0  0  0  0  0  0
  -24.3490  -25.4260   23.2610 O   0  0  0  0  0  0  0  0  0  0  0  0
  -26.6930  -25.8340   23.0990 H   0  0  0  0  0  0  0  0  0  0  0  0
  -27.4100  -24.7680   21.4280 C   0  0  0  0  0  2  0  0  0  0  0  0
  -28.5200  -25.8290   21.2230 C   0  0  0  0  0  2  0  0  0  0  0  0
  -28.3510  -26.6820   20.0870 O   0  0  0  0  0  0  0  0  0  0  0  0
  -24.6140  -31.8700   23.2160 C   0  0  0  0  0  0  0  0  0  0  0  0
  -27.2160  -27.4460   20.1060 C   0  0  0  0  0  0  0  0  0  0  0  0
  -23.4010  -30.4980   21.5520 C   0  0  0  0  0  3  0  0  0  0  0  0
  -24.8450  -28.9620   20.1160 C   0  0  0  0  0  0  0  0  0  0  0  0
  -25.9270  -30.8360   21.3690 C   0  0  0  0  0  2  0  0  0  0  0  0
  -26.0020  -29.4680   20.7250 C   0  0  0  0  0  0  0  0  0  0  0  0
  -27.1920  -28.7100   20.7290 C   0  0  0  0  0  3  0  0  0  0  0  0
  -26.0600  -26.9600   19.4660 C   0  0  0  0  0  3  0  0  0  0  0  0
  -24.8670  -27.7050   19.4840 C   0  0  0  0  0  3  0  0  0  0  0  0
  -23.6080  -29.8280   20.1670 C   0  0  0  0  0  2  0  0  0  0  0  0
  -24.6640  -31.0840   22.1030 N   0  0  0  0  0  0  0  0  0  0  0  0
  -23.5350  -32.1440   23.7570 O   0  0  0  0  0  0  0  0  0  0  0  0
  -22.7440  -29.4720   22.5020 C   0  0  0  0  0  0  0  0  0  0  0  0
  -21.4170  -29.3130   22.3770 N   0  0  0  0  0  0  0  0  0  0  0  0
  -23.4220  -28.8290   23.3060 O   0  0  0  0  0  0  0  0  0  0  0  0
  -20.9340  -29.9090   21.7180 H   0  0  0  0  0  0  0  0  0  0  0  0
  -18.0330  -28.1420   22.8480 C   0  0  0  0  0  0  0  0  0  0  0  0
  -20.5910  -28.3680   23.1300 C   0  0  0  0  0  3  0  0  0  0  0  0
  -20.6770  -26.9480   22.5280 C   0  0  0  0  0  2  0  0  0  0  0  0
  -19.5750  -26.6620   21.5010 C   0  0  0  0  0  2  0  0  0  0  0  0
  -18.1970  -26.8020   22.1510 C   0  0  0  0  0  2  0  0  0  0  0  0
  -19.1590  -28.8860   23.2920 C   0  0  0  0  0  0  0  0  0  0  0  0
  -18.9560  -30.1470   23.8920 C   0  0  0  0  0  3  0  0  0  0  0  0
  -17.6570  -30.6630   24.0580 C   0  0  0  0  0  3  0  0  0  0  0  0
  -16.5460  -29.9130   23.6350 C   0  0  0  0  0  3  0  0  0  0  0  0
  -16.7330  -28.6550   23.0350 C   0  0  0  0  0  3  0  0  0  0  0  0
  -25.9050  -32.4840   23.8440 C   0  0  0  0  0  3  0  0  0  0  0  0
  -26.4480  -31.6620   25.0760 C   0  0  1  0  0  0  0  0  0  0  0  0
  -25.3770  -31.3740   26.1550 C   0  0  0  0  0  1  0  0  0  0  0  0
  -27.0300  -30.3050   24.6140 C   0  0  0  0  0  1  0  0  0  0  0  0
  -27.6040  -32.4350   25.7530 C   0  0  0  0  0  1  0  0  0  0  0  0
  -25.5900  -33.8620   24.2360 N   0  0  0  0  0  0  0  0  0  0  0  0
  -25.9030  -34.9470   23.5140 C   0  0  0  0  0  0  0  0  0  0  0  0
  -26.5580  -34.8920   22.4690 O   0  0  0  0  0  0  0  0  0  0  0  0
  -25.0080  -33.9780   25.0530 H   0  0  0  0  0  0  0  0  0  0  0  0
  -24.1490  -36.7320   23.2620 C   0  0  0  0  0  1  0  0  0  0  0  0
  -25.4100  -36.3100   24.0340 C   0  0  0  0  0  3  0  0  0  0  0  0
  -27.5580  -37.1800   24.8460 C   0  0  0  0  0  1  0  0  0  0  0  0
  -26.4290  -37.3790   23.9400 N   0  0  0  0  0  0  0  0  0  0  0  0
  -26.0170  -38.2870   24.1370 H   0  0  0  0  0  0  0  0  0  0  0  0
  -24.3840  -20.5430   23.1790 C   0  0  0  0  0  2  0  0  0  0  0  0
  -25.8680  -20.9210   23.2000 C   0  0  0  0  0  2  0  0  0  0  0  0
  -28.9610  -20.3050   22.9250 C   0  0  0  0  0  3  0  0  0  0  0  0
  -30.2760  -19.9370   22.5920 C   0  0  0  0  0  3  0  0  0  0  0  0
  -27.0070  -19.8730   19.8720 C   0  0  0  0  0  3  0  0  0  0  0  0
  -29.5490  -19.3980   20.3230 C   0  0  0  0  0  3  0  0  0  0  0  0
  -26.0400  -20.3090   20.7370 C   0  0  0  0  0  3  0  0  0  0  0  0
  -28.2240  -19.7920   20.6220 C   0  0  0  0  0  0  0  0  0  0  0  0
  -27.9480  -20.2250   21.9530 C   0  0  0  0  0  0  0  0  0  0  0  0
  -30.5680  -19.4590   21.2990 C   0  0  0  0  0  0  0  0  0  0  0  0
  -26.5860  -20.4910   22.0070 N   0  0  0  0  0  0  0  0  0  0  0  0
  -31.8540  -19.0880   21.0090 O   0  0  0  0  0  0  0  0  0  0  0  0
  -32.0500  -17.7130   20.6850 C   0  0  0  0  0  2  0  0  0  0  0  0
  -32.1670  -16.8660   21.9700 C   0  0  0  0  0  2  0  0  0  0  0  0
  -30.8450  -16.2390   22.4670 C   0  0  0  0  0  2  0  0  0  0  0  0
  -30.7720  -14.3450   20.7160 C   0  0  0  0  0  0  0  0  0  0  0  0
  -30.4200  -12.2940   19.3870 C   0  0  0  0  0  2  0  0  0  0  0  0
  -29.4820  -12.5350   18.1900 C   0  0  0  0  0  2  0  0  0  0  0  0
  -28.0070  -12.3820   18.6080 C   0  0  0  0  0  2  0  0  0  0  0  0
  -27.6670  -13.1990   19.8820 C   0  0  0  0  0  3  0  0  0  0  0  0
  -28.7030  -12.9250   20.9930 C   0  0  0  0  0  2  0  0  0  0  0  0
  -30.0500  -13.2240   20.4630 N   0  0  0  0  0  0  0  0  0  0  0  0
  -31.7640  -14.6660   20.0550 O   0  0  0  0  0  0  0  0  0  0  0  0
  -30.3520  -15.0300   21.7910 N   0  0  0  0  0  0  0  0  0  0  0  0
  -29.5480  -14.6080   22.2340 H   0  0  0  0  0  0  0  0  0  0  0  0
  -25.2610  -13.8160   20.5670 C   0  0  0  0  0  0  0  0  0  0  0  0
  -24.1840  -13.0440   20.9160 C   0  0  0  0  0  0  0  0  0  0  0  0
  -24.6380  -11.6910   20.8720 C   0  0  0  0  0  0  0  0  0  0  0  0
  -26.3040  -12.9310   20.3380 N   0  0  0  0  0  0  0  0  0  0  0  0
  -25.9300  -11.6480   20.5760 N   0  0  0  0  0  0  0  0  0  0  0  0
  -23.9040  -10.4300   21.0400 C   0  0  0  0  0  0  0  0  0  0  0  0
  -24.3600   -9.4210   21.9180 C   0  0  0  0  0  3  0  0  0  0  0  0
  -23.6280   -8.2250   22.0750 C   0  0  0  0  0  3  0  0  0  0  0  0
  -22.4270   -8.0280   21.3540 C   0  0  0  0  0  0  0  0  0  0  0  0
  -21.9890   -9.0250   20.4640 C   0  0  0  0  0  3  0  0  0  0  0  0
  -22.7220  -10.2130   20.3050 C   0  0  0  0  0  3  0  0  0  0  0  0
  -21.6630   -6.8880   21.4240 O   0  0  0  0  0  0  0  0  0  0  0  0
  -21.6850   -6.0740   22.5280 C   0  0  0  0  0  0  0  0  0  0  0  0
  -21.4010   -6.5640   23.8220 C   0  0  0  0  0  3  0  0  0  0  0  0
  -21.3660   -5.6790   24.9180 C   0  0  0  0  0  3  0  0  0  0  0  0
  -21.6040   -4.3050   24.7230 C   0  0  0  0  0  0  0  0  0  0  0  0
  -21.8820   -3.8140   23.4350 C   0  0  0  0  0  3  0  0  0  0  0  0
  -21.9190   -4.6960   22.3400 C   0  0  0  0  0  0  0  0  0  0  0  0
  -22.1660   -4.2150   21.0980 F   0  0  0  0  0  0  0  0  0  0  0  0
  -21.5630   -3.4540   25.7740 F   0  0  0  0  0  0  0  0  0  0  0  0
  -22.7870  -13.5250   21.1830 C   0  0  0  0  0  0  0  0  0  0  0  0
  -22.0500  -12.8240   22.0400 N   0  0  0  0  0  0  0  0  0  0  0  0
  -22.3550  -14.5560   20.6700 O   0  0  0  0  0  0  0  0  0  0  0  0
  -22.4110  -11.9890   22.4780 H   0  0  0  0  0  0  0  0  0  0  0  0
  -21.1130  -13.1280   22.2610 H   0  0  0  0  0  0  0  0  0  0  0  0
  -25.4350  -15.1860   20.4090 N   0  0  0  0  0  0  0  0  0  0  0  0
  -24.6750  -15.8480   20.5200 H   0  0  0  0  0  0  0  0  0  0  0  0
  -26.3000  -15.6240   20.1140 H   0  0  0  0  0  0  0  0  0  0  0  0
  3  1  2  0
  3  2  2  0
  3  4  1  6
  5  4  1  0
  6  5  1  0
  7  6  1  0
  8  7  1  0
  8  9  1  0
 10  9  1  0
 10 11  1  0
 11 13  2  0
 12 11  1  0
 12 14  1  0
 15 12  1  0
 16 15  1  0
 17 19  1  0
 17 16  1  0
 18 29  2  0
 19 24  1  0
 20 28  1  0
 20 30  1  0
 21 27  1  0
 21 23  1  0
 22 28  1  0
 23 24  2  0
 23 22  1  0
 25 26  1  0
 25 19  2  0
 26 21  2  0
 27 20  1  0
 28 18  1  0
 30 32  2  0
 31 30  1  0
 33 31  1  0
 34 43  2  0
 34 39  1  0
 35 31  1  0
 35 39  1  0
 36 35  1  0
 37 38  1  0
 37 36  1  0
 38 34  1  0
 39 40  2  0
 40 41  1  0
 42 41  2  0
 43 42  1  0
 44 18  1  0
 44 49  1  0
 44 45  1  0
 45 48  1  1
 45 46  1  0
 47 45  1  0
 49 52  1  0
 50 54  1  0
 50 49  1  0
 51 50  2  0
 54 53  1  0
 56 54  1  0
 56 57  1  0
 56 55  1  0
 58 59  1  0
 58  3  1  0
 61 60  1  0
 62 65  1  0
 62 64  2  0
 63 65  2  0
 63 67  1  0
 64 68  1  0
 65 66  1  0
 66 68  1  0
 66 60  2  0
 67 61  2  0
 68 59  1  0
 69 67  1  0
 70 69  1  0
 70 71  1  0
 71 72  1  0
 73 81  1  0
 74 79  1  0
 75 76  1  0
 75 74  1  0
 77 76  1  0
 77 86  1  0
 77 78  1  0
 79 73  1  0
 79 78  1  0
 80 73  2  0
 81 82  1  0
 81 72  1  0
 83 84  2  0
 84103  1  0
 85 84  1  0
 85 88  1  0
 86 83  1  0
 86 87  1  0
 87 85  2  0
 88 89  1  0
 89 90  2  0
 91 94  1  0
 91 90  1  0
 92 91  2  0
 93 92  1  0
 93 88  2  0
 94 95  1  0
 95 96  1  0
 96 97  2  0
 98 97  1  0
 98102  1  0
 99 98  2  0
100 95  2  0
100 99  1  0
101100  1  0
103104  1  0
104107  1  0
104106  1  0
105103  2  0
108109  1  0
108 83  1  0
110108  1  0
M  ISO  4  16 101  17 101  73 100  81 100
M  END
>  <TORSDO>  (16) 
F 33

>  <SCORE>  (16) 
37.158

>  <name>  (16) 
15

>  <ligand_id>  (16) 
15

>  <original_smiles>  (16) 
[H]c1c([H])c([H])c2c(c1[H])C([H])([H])C([H])([H])C([H])([H])C2([H])N([H])C(=O)C1([H])N(C(=O)C([H])(N([H])C(=O)C([H])(N([H])C([H])([H])[H])C([H])([H])[H])C(C([H])([H])[H])(C([H])([H])[H])C([H])([H])[H])C([H])([H])c2c([H])c(OC([H])([H])C([H])([H])N([H])C(=O)C([H])([H])OC([H])([H])C([H])([H])OC([H])([H])C([H])([H])S(=O)(=O)C([H])([H])C([H])([H])n3c([H])c([H])c4c([H])c(OC([H])([H])C([H])([H])C([H])([H])N([H])C(=O)N5C([H])([H])C([H])([H])C([H])([H])C([H])(n6nc(-c7c([H])c([H])c(Oc8c([H])c([H])c(F)c([H])c8F)c([H])c7[H])c(C(=O)N([H])[H])c6N([H])[H])C5([H])[H])c([H])c([H])c43)c([H])c([H])c2C1([H])[H]

>  <smiles>  (16) 
[H]c1c([H])c([H])c2c(c1[H])C([H])([H])C([H])([H])C([H])([H])C2([H])N([H])C(=O)C1([H])N(C(=O)C([H])(N([H])C(=O)C([H])(N([H])C([H])([H])[H])C([H])([H])[H])C(C([H])([H])[H])(C([H])([H])[H])C([H])([H])[H])C([H])([H])c2c([H])c(OC([H])([H])C([H])([H])N([H])C(=O)C([H])([H])OC([H])([H])C([H])([H])OC([H])([H])C([H])([H])S(=O)(=O)C([H])([H])C([H])([H])n3c([H])c([H])c4c([H])c(OC([H])([H])C([H])([H])C([H])([H])N([H])C(=O)N5C([H])([H])C([H])([H])C([H])([H])C([H])(n6nc(-c7c([H])c([H])c(Oc8c([H])c([H])c(F)c([H])c8F)c([H])c7[H])c(C(=O)N([H])[H])c6N([H])[H])C5([H])[H])c([H])c([H])c43)c([H])c([H])c2C1([H])[H]

$$$$
16:0:0
     RDKit          3D

111120  0  0  1  0  0  0  0  0999 V2000
  -28.8020  -23.8020   23.7720 C   0  0  0  0  0  0  0  0  0  0  0  0
  -28.9210  -22.4770   23.6530 N   0  0  0  0  0  0  0  0  0  0  0  0
  -29.7710  -24.5410   23.9320 O   0  0  0  0  0  0  0  0  0  0  0  0
  -28.0490  -21.9620   23.5950 H   0  0  0  0  0  0  0  0  0  0  0  0
  -25.4090  -20.2370   25.2550 C   0  0  0  0  0  3  0  0  0  0  0  0
  -25.2010  -19.7920   23.9350 C   0  0  0  0  0  3  0  0  0  0  0  0
  -25.7700  -21.5770   25.4970 C   0  0  0  0  0  3  0  0  0  0  0  0
  -25.3550  -20.6880   22.8590 C   0  0  0  0  0  3  0  0  0  0  0  0
  -25.9430  -22.4630   24.4140 C   0  0  0  0  0  0  0  0  0  0  0  0
  -25.7410  -22.0250   23.0980 C   0  0  0  0  0  0  0  0  0  0  0  0
  -27.5630  -24.6010   21.0530 C   0  0  0  0  0  0  0  0  0  0  0  0
  -26.3850  -23.8930   24.6150 C   0  0  0  0  0  2  0  0  0  0  0  0
  -25.9560  -22.9940   21.9410 C   0  0  0  0  0  2  0  0  0  0  0  0
  -27.3940  -24.3910   23.5470 C   0  0  0  0  0  3  0  0  0  0  0  0
  -26.9640  -24.0660   22.1550 N   0  0  0  0  0  0  0  0  0  0  0  0
  -27.3570  -24.1480   19.9210 O   0  0  0  0  0  0  0  0  0  0  0  0
  -28.5290  -25.8100   21.1590 C   0  0  0  0  0  2  0  0  0  0  0  0
  -28.3680  -26.7070   20.0510 O   0  0  0  0  0  0  0  0  0  0  0  0
  -24.6140  -31.8730   23.2170 C   0  0  0  0  0  0  0  0  0  0  0  0
  -27.2210  -27.4600   20.0850 C   0  0  0  0  0  0  0  0  0  0  0  0
  -23.3980  -30.4990   21.5600 C   0  0  0  0  0  3  0  0  0  0  0  0
  -24.8390  -28.9720   20.1180 C   0  0  0  0  0  0  0  0  0  0  0  0
  -25.9240  -30.8430   21.3690 C   0  0  0  0  0  2  0  0  0  0  0  0
  -25.9970  -29.4750   20.7250 C   0  0  0  0  0  0  0  0  0  0  0  0
  -27.1910  -28.7210   20.7180 C   0  0  0  0  0  3  0  0  0  0  0  0
  -26.0560  -26.9790   19.4520 C   0  0  0  0  0  3  0  0  0  0  0  0
  -24.8610  -27.7200   19.4800 C   0  0  0  0  0  3  0  0  0  0  0  0
  -23.6010  -29.8390   20.1700 C   0  0  0  0  0  2  0  0  0  0  0  0
  -24.6640  -31.0870   22.1070 N   0  0  0  0  0  0  0  0  0  0  0  0
  -23.5330  -32.1470   23.7570 O   0  0  0  0  0  0  0  0  0  0  0  0
  -22.7400  -29.4690   22.5050 C   0  0  0  0  0  0  0  0  0  0  0  0
  -21.4130  -29.3040   22.3770 N   0  0  0  0  0  0  0  0  0  0  0  0
  -23.4190  -28.8200   23.3060 O   0  0  0  0  0  0  0  0  0  0  0  0
  -20.9280  -29.8820   21.7040 H   0  0  0  0  0  0  0  0  0  0  0  0
  -18.0270  -28.1390   22.8540 C   0  0  0  0  0  0  0  0  0  0  0  0
  -20.5860  -28.3670   23.1350 C   0  0  0  0  0  3  0  0  0  0  0  0
  -20.6770  -26.9410   22.5450 C   0  0  0  0  0  2  0  0  0  0  0  0
  -19.5740  -26.6410   21.5230 C   0  0  0  0  0  2  0  0  0  0  0  0
  -18.1920  -26.7950   22.1650 C   0  0  0  0  0  2  0  0  0  0  0  0
  -19.1520  -28.8840   23.2950 C   0  0  0  0  0  0  0  0  0  0  0  0
  -18.9440  -30.1450   23.8960 C   0  0  0  0  0  3  0  0  0  0  0  0
  -17.6440  -30.6590   24.0580 C   0  0  0  0  0  3  0  0  0  0  0  0
  -16.5340  -29.9120   23.6300 C   0  0  0  0  0  3  0  0  0  0  0  0
  -16.7270  -28.6540   23.0320 C   0  0  0  0  0  3  0  0  0  0  0  0
  -25.9050  -32.4840   23.8450 C   0  0  0  0  0  3  0  0  0  0  0  0
  -25.5910  -33.8620   24.2390 N   0  0  0  0  0  0  0  0  0  0  0  0
  -25.9010  -34.9480   23.5170 C   0  0  0  0  0  0  0  0  0  0  0  0
  -26.5530  -34.8930   22.4710 O   0  0  0  0  0  0  0  0  0  0  0  0
  -25.0120  -33.9770   25.0570 H   0  0  0  0  0  0  0  0  0  0  0  0
  -24.1450  -36.7310   23.2630 C   0  0  0  0  0  1  0  0  0  0  0  0
  -25.4070  -36.3120   24.0360 C   0  0  0  0  0  3  0  0  0  0  0  0
  -27.5580  -37.1800   24.8460 C   0  0  0  0  0  1  0  0  0  0  0  0
  -26.4260  -37.3810   23.9450 N   0  0  0  0  0  0  0  0  0  0  0  0
  -26.0160  -38.2890   24.1480 H   0  0  0  0  0  0  0  0  0  0  0  0
  -26.4480  -31.6590   25.0750 C   0  0  1  0  0  0  0  0  0  0  0  0
  -25.3770  -31.3750   26.1520 C   0  0  0  0  0  1  0  0  0  0  0  0
  -27.0250  -30.3020   24.6080 C   0  0  0  0  0  1  0  0  0  0  0  0
  -27.6070  -32.4290   25.7510 C   0  0  0  0  0  1  0  0  0  0  0  0
  -30.1480  -21.7290   23.3670 C   0  0  0  0  0  3  0  0  0  0  0  0
  -29.7920  -20.5550   22.4300 C   0  0  0  0  0  2  0  0  0  0  0  0
  -30.9700  -19.9900   21.8600 O   0  0  0  0  0  0  0  0  0  0  0  0
  -31.3200  -20.5210   20.5840 C   0  0  0  0  0  2  0  0  0  0  0  0
  -32.7450  -20.0810   20.2140 C   0  0  0  0  0  2  0  0  0  0  0  0
  -32.8900  -18.5670   19.9570 C   0  0  0  0  0  2  0  0  0  0  0  0
  -33.8650  -17.9560   20.8060 O   0  0  0  0  0  0  0  0  0  0  0  0
  -33.4580  -17.6550   22.1430 C   0  0  0  0  0  2  0  0  0  0  0  0
  -32.8680  -16.2350   22.2700 C   0  0  0  0  0  2  0  0  0  0  0  0
  -31.3190  -16.1990   22.1990 C   0  0  0  0  0  2  0  0  0  0  0  0
  -30.8570  -14.2940   20.6990 C   0  0  0  0  0  0  0  0  0  0  0  0
  -30.4220  -12.2510   19.4200 C   0  0  0  0  0  2  0  0  0  0  0  0
  -29.5080  -12.5600   18.2230 C   0  0  0  0  0  2  0  0  0  0  0  0
  -28.0320  -12.4040   18.6300 C   0  0  0  0  0  2  0  0  0  0  0  0
  -27.6890  -13.2130   19.9110 C   0  0  0  0  0  3  0  0  0  0  0  0
  -28.7320  -12.9850   21.0370 C   0  0  0  0  0  2  0  0  0  0  0  0
  -30.0960  -13.1880   20.5060 N   0  0  0  0  0  0  0  0  0  0  0  0
  -31.7050  -14.6790   19.8920 O   0  0  0  0  0  0  0  0  0  0  0  0
  -30.7470  -14.8820   21.8960 N   0  0  0  0  0  0  0  0  0  0  0  0
  -30.1320  -14.4500   22.5720 H   0  0  0  0  0  0  0  0  0  0  0  0
  -25.2680  -13.8160   20.5700 C   0  0  0  0  0  0  0  0  0  0  0  0
  -24.1940  -13.0440   20.9160 C   0  0  0  0  0  0  0  0  0  0  0  0
  -24.6490  -11.6900   20.8750 C   0  0  0  0  0  0  0  0  0  0  0  0
  -26.3210  -12.9370   20.3570 N   0  0  0  0  0  0  0  0  0  0  0  0
  -25.9440  -11.6500   20.5830 N   0  0  0  0  0  0  0  0  0  0  0  0
  -23.9130  -10.4310   21.0400 C   0  0  0  0  0  0  0  0  0  0  0  0
  -24.3650   -9.4220   21.9190 C   0  0  0  0  0  3  0  0  0  0  0  0
  -23.6310   -8.2260   22.0750 C   0  0  0  0  0  3  0  0  0  0  0  0
  -22.4290   -8.0290   21.3530 C   0  0  0  0  0  0  0  0  0  0  0  0
  -21.9960   -9.0300   20.4650 C   0  0  0  0  0  3  0  0  0  0  0  0
  -22.7300  -10.2170   20.3050 C   0  0  0  0  0  3  0  0  0  0  0  0
  -21.6630   -6.8890   21.4220 O   0  0  0  0  0  0  0  0  0  0  0  0
  -21.6860   -6.0740   22.5270 C   0  0  0  0  0  0  0  0  0  0  0  0
  -21.4030   -6.5640   23.8200 C   0  0  0  0  0  3  0  0  0  0  0  0
  -21.3670   -5.6790   24.9180 C   0  0  0  0  0  3  0  0  0  0  0  0
  -21.6040   -4.3050   24.7190 C   0  0  0  0  0  0  0  0  0  0  0  0
  -21.8830   -3.8140   23.4330 C   0  0  0  0  0  3  0  0  0  0  0  0
  -21.9210   -4.6970   22.3390 C   0  0  0  0  0  0  0  0  0  0  0  0
  -22.1660   -4.2170   21.0960 F   0  0  0  0  0  0  0  0  0  0  0  0
  -21.5640   -3.4520   25.7700 F   0  0  0  0  0  0  0  0  0  0  0  0
  -22.7940  -13.5240   21.1790 C   0  0  0  0  0  0  0  0  0  0  0  0
  -22.0560  -12.8260   22.0350 N   0  0  0  0  0  0  0  0  0  0  0  0
  -22.3640  -14.5580   20.6670 O   0  0  0  0  0  0  0  0  0  0  0  0
  -22.4060  -11.9850   22.4690 H   0  0  0  0  0  0  0  0  0  0  0  0
  -21.1200  -13.1370   22.2510 H   0  0  0  0  0  0  0  0  0  0  0  0
  -25.4340  -15.1880   20.3920 N   0  0  0  0  0  0  0  0  0  0  0  0
  -24.6610  -15.8410   20.4510 H   0  0  0  0  0  0  0  0  0  0  0  0
  -26.2850  -15.6230   20.0550 H   0  0  0  0  0  0  0  0  0  0  0  0
  -30.8730  -21.2380   24.6510 C   0  0  0  0  0  3  0  0  0  0  0  0
  -31.9760  -22.2070   25.1080 C   0  0  0  0  0  3  0  0  0  0  0  0
  -33.0510  -22.2760   24.5030 O   0  0  0  0  0  0  0  0  0  0  0  0
  -29.9530  -20.9940   25.7130 O   0  0  0  0  0  0  0  0  0  0  0  0
  -29.4850  -21.8070   25.8580 H   0  0  0  0  0  0  0  0  0  0  0  0
  1  3  2  0
  2  1  1  0
  4  2  1  0
  5  7  1  0
  6  5  2  0
  8 10  2  0
  8  6  1  0
  9 12  1  0
  9  7  2  0
 10  9  1  0
 11 17  1  0
 11 15  1  0
 13 15  1  0
 13 10  1  0
 14  1  1  0
 14 12  1  0
 15 14  1  0
 16 11  2  0
 18 20  1  0
 18 17  1  0
 19 30  2  0
 20 25  1  0
 21 29  1  0
 21 31  1  0
 22 28  1  0
 22 24  1  0
 23 29  1  0
 24 23  1  0
 25 24  2  0
 26 27  1  0
 26 20  2  0
 27 22  2  0
 28 21  1  0
 29 19  1  0
 31 33  2  0
 32 31  1  0
 34 32  1  0
 35 44  2  0
 35 40  1  0
 36 32  1  0
 36 40  1  0
 37 36  1  0
 38 39  1  0
 38 37  1  0
 39 35  1  0
 40 41  2  0
 41 42  1  0
 43 42  2  0
 44 43  1  0
 45 19  1  0
 45 46  1  0
 45 55  1  0
 46 49  1  0
 47 51  1  0
 47 46  1  0
 48 47  2  0
 51 50  1  0
 53 51  1  0
 53 54  1  0
 53 52  1  0
 55 58  1  1
 55 56  1  0
 57 55  1  0
 59 60  1  0
 59  2  1  0
 59107  1  0
 61 60  1  0
 62 61  1  0
 63 62  1  0
 64 63  1  0
 64 65  1  0
 65 66  1  0
 66 67  1  0
 68 67  1  0
 69 77  1  0
 70 75  1  0
 71 72  1  0
 71 70  1  0
 73 72  1  0
 73 82  1  0
 73 74  1  0
 75 69  1  0
 75 74  1  0
 76 69  2  0
 77 68  1  0
 77 78  1  0
 79 80  2  0
 80 99  1  0
 81 80  1  0
 81 84  1  0
 82 79  1  0
 82 83  1  0
 83 81  2  0
 84 85  1  0
 85 86  2  0
 87 90  1  0
 87 86  1  0
 88 87  2  0
 89 88  1  0
 89 84  2  0
 90 91  1  0
 91 92  1  0
 92 93  2  0
 94 93  1  0
 94 98  1  0
 95 94  2  0
 96 91  2  0
 96 95  1  0
 97 96  1  0
 99100  1  0
100103  1  0
100102  1  0
101 99  2  0
104105  1  0
104 79  1  0
106104  1  0
107108  1  0
107110  1  0
109108  2  0
110111  1  0
M  ISO  4  17 101  18 101  69 100  77 100
M  END
>  <TORSDO>  (17) 
F 31

>  <SCORE>  (17) 
46.725

>  <name>  (17) 
16

>  <ligand_id>  (17) 
16

>  <original_smiles>  (17) 
[H]OC([H])(C([H])=O)C([H])(N([H])C(=O)C1([H])N(C(=O)C([H])([H])Oc2c([H])c([H])c3c(c2[H])C([H])([H])N(C(=O)C([H])(N([H])C(=O)C([H])(N([H])C([H])([H])[H])C([H])([H])[H])C(C([H])([H])[H])(C([H])([H])[H])C([H])([H])[H])C([H])(C(=O)N([H])C2([H])c4c([H])c([H])c([H])c([H])c4C([H])([H])C([H])([H])C2([H])[H])C3([H])[H])C([H])([H])c2c([H])c([H])c([H])c([H])c2C1([H])[H])C([H])([H])OC([H])([H])C([H])([H])C([H])([H])OC([H])([H])C([H])([H])C([H])([H])N([H])C(=O)N1C([H])([H])C([H])([H])C([H])([H])C([H])(n2nc(-c3c([H])c([H])c(Oc4c([H])c([H])c(F)c([H])c4F)c([H])c3[H])c(C(=O)N([H])[H])c2N([H])[H])C1([H])[H]

>  <smiles>  (17) 
[H]OC([H])(C([H])=O)C([H])(N([H])C(=O)C1([H])N(C(=O)C([H])([H])Oc2c([H])c([H])c3c(c2[H])C([H])([H])N(C(=O)C([H])(N([H])C(=O)C([H])(N([H])C([H])([H])[H])C([H])([H])[H])C(C([H])([H])[H])(C([H])([H])[H])C([H])([H])[H])C([H])(C(=O)N([H])C2([H])c4c([H])c([H])c([H])c([H])c4C([H])([H])C([H])([H])C2([H])[H])C3([H])[H])C([H])([H])c2c([H])c([H])c([H])c([H])c2C1([H])[H])C([H])([H])OC([H])([H])C([H])([H])C([H])([H])OC([H])([H])C([H])([H])C([H])([H])N([H])C(=O)N1C([H])([H])C([H])([H])C([H])([H])C([H])(n2nc(-c3c([H])c([H])c(Oc4c([H])c([H])c(F)c([H])c4F)c([H])c3[H])c(C(=O)N([H])[H])c2N([H])[H])C1([H])[H]

$$$$
17:0:0
     RDKit          3D

 87 94  0  0  1  0  0  0  0  0999 V2000
  -28.8250  -22.9320   20.1570 O   0  0  0  0  0  0  0  0  0  0  0  0
  -29.3050  -24.2770   20.3550 C   0  0  0  0  0  2  0  0  0  0  0  0
  -28.2420  -25.2780   19.8270 C   0  0  0  0  0  2  0  0  0  0  0  0
  -28.3660  -26.6610   20.2500 O   0  0  0  0  0  0  0  0  0  0  0  0
  -24.5660  -31.8600   23.3610 C   0  0  0  0  0  0  0  0  0  0  0  0
  -27.2130  -27.4380   20.2130 C   0  0  0  0  0  0  0  0  0  0  0  0
  -23.3680  -30.4870   21.6930 C   0  0  0  0  0  3  0  0  0  0  0  0
  -24.8250  -28.9790   20.2420 C   0  0  0  0  0  0  0  0  0  0  0  0
  -25.8990  -30.8390   21.5120 C   0  0  0  0  0  2  0  0  0  0  0  0
  -25.9850  -29.4770   20.8500 C   0  0  0  0  0  0  0  0  0  0  0  0
  -27.1790  -28.7120   20.8370 C   0  0  0  0  0  3  0  0  0  0  0  0
  -26.0320  -26.9840   19.5720 C   0  0  0  0  0  3  0  0  0  0  0  0
  -24.8460  -27.7340   19.6010 C   0  0  0  0  0  3  0  0  0  0  0  0
  -23.5840  -29.8400   20.3000 C   0  0  0  0  0  2  0  0  0  0  0  0
  -24.6300  -31.0760   22.2470 N   0  0  0  0  0  0  0  0  0  0  0  0
  -23.4830  -32.1220   23.9020 O   0  0  0  0  0  0  0  0  0  0  0  0
  -22.7150  -29.4450   22.6320 C   0  0  0  0  0  0  0  0  0  0  0  0
  -21.3920  -29.2600   22.4940 N   0  0  0  0  0  0  0  0  0  0  0  0
  -23.3950  -28.8120   23.4420 O   0  0  0  0  0  0  0  0  0  0  0  0
  -20.9040  -29.8260   21.8140 H   0  0  0  0  0  0  0  0  0  0  0  0
  -18.0190  -28.0360   22.9420 C   0  0  0  0  0  0  0  0  0  0  0  0
  -20.5730  -28.3070   23.2440 C   0  0  0  0  0  3  0  0  0  0  0  0
  -20.6900  -26.8840   22.6510 C   0  0  0  0  0  2  0  0  0  0  0  0
  -19.6000  -26.5650   21.6230 C   0  0  0  0  0  2  0  0  0  0  0  0
  -18.2110  -26.6950   22.2540 C   0  0  0  0  0  2  0  0  0  0  0  0
  -19.1290  -28.8000   23.3920 C   0  0  0  0  0  0  0  0  0  0  0  0
  -18.8950  -30.0550   23.9950 C   0  0  0  0  0  3  0  0  0  0  0  0
  -17.5860  -30.5470   24.1510 C   0  0  0  0  0  3  0  0  0  0  0  0
  -16.4920  -29.7810   23.7170 C   0  0  0  0  0  3  0  0  0  0  0  0
  -16.7080  -28.5270   23.1170 C   0  0  0  0  0  3  0  0  0  0  0  0
  -25.8490  -32.4830   23.9930 C   0  0  0  0  0  3  0  0  0  0  0  0
  -26.3460  -31.7090   25.2750 C   0  0  1  0  0  0  0  0  0  0  0  0
  -25.2410  -31.4810   26.3330 C   0  0  0  0  0  1  0  0  0  0  0  0
  -26.9230  -30.3280   24.8870 C   0  0  0  0  0  1  0  0  0  0  0  0
  -27.4930  -32.4980   25.9510 C   0  0  0  0  0  1  0  0  0  0  0  0
  -25.5470  -33.8840   24.3160 N   0  0  0  0  0  0  0  0  0  0  0  0
  -25.8730  -34.9300   23.5440 C   0  0  0  0  0  0  0  0  0  0  0  0
  -26.5320  -34.8170   22.5070 O   0  0  0  0  0  0  0  0  0  0  0  0
  -24.9600  -34.0460   25.1210 H   0  0  0  0  0  0  0  0  0  0  0  0
  -24.1290  -36.7120   23.2110 C   0  0  0  0  0  1  0  0  0  0  0  0
  -25.3930  -36.3220   23.9950 C   0  0  0  0  0  3  0  0  0  0  0  0
  -27.5450  -37.2260   24.7590 C   0  0  0  0  0  1  0  0  0  0  0  0
  -26.4190  -37.3770   23.8410 N   0  0  0  0  0  0  0  0  0  0  0  0
  -26.0130  -38.2970   23.9870 H   0  0  0  0  0  0  0  0  0  0  0  0
  -29.7440  -21.8780   20.4850 C   0  0  0  0  0  2  0  0  0  0  0  0
  -29.0790  -20.4750   20.3430 C   0  0  0  0  0  2  0  0  0  0  0  0
  -30.0350  -19.3980   20.3270 O   0  0  0  0  0  0  0  0  0  0  0  0
  -29.4720  -18.0790   20.4560 C   0  0  0  0  0  2  0  0  0  0  0  0
  -30.5860  -16.9990   20.3180 C   0  0  0  0  0  2  0  0  0  0  0  0
  -30.7590  -14.5450   20.0460 C   0  0  0  0  0  0  0  0  0  0  0  0
  -30.3360  -12.4140   18.8470 C   0  0  0  0  0  2  0  0  0  0  0  0
  -29.3220  -12.6290   17.7030 C   0  0  0  0  0  2  0  0  0  0  0  0
  -27.8780  -12.4800   18.2220 C   0  0  0  0  0  2  0  0  0  0  0  0
  -27.6250  -13.2730   19.5300 C   0  0  0  0  0  3  0  0  0  0  0  0
  -28.7530  -13.0390   20.5550 C   0  0  0  0  0  2  0  0  0  0  0  0
  -30.0340  -13.3880   19.9160 N   0  0  0  0  0  0  0  0  0  0  0  0
  -31.8070  -14.7050   19.4080 O   0  0  0  0  0  0  0  0  0  0  0  0
  -30.0000  -15.5020   22.1670 C   0  0  0  0  0  1  0  0  0  0  0  0
  -30.2120  -15.6060   20.7150 N   0  0  0  0  0  0  0  0  0  0  0  0
  -25.2900  -13.8420   20.4370 C   0  0  0  0  0  0  0  0  0  0  0  0
  -24.2520  -13.0560   20.8610 C   0  0  0  0  0  0  0  0  0  0  0  0
  -24.7110  -11.7070   20.7580 C   0  0  0  0  0  0  0  0  0  0  0  0
  -26.3150  -12.9720   20.1000 N   0  0  0  0  0  0  0  0  0  0  0  0
  -25.9740  -11.6810   20.3510 N   0  0  0  0  0  0  0  0  0  0  0  0
  -24.0010  -10.4390   20.9690 C   0  0  0  0  0  0  0  0  0  0  0  0
  -24.4690   -9.4720   21.8860 C   0  0  0  0  0  3  0  0  0  0  0  0
  -23.7600   -8.2670   22.0800 C   0  0  0  0  0  3  0  0  0  0  0  0
  -22.5700   -8.0180   21.3570 C   0  0  0  0  0  0  0  0  0  0  0  0
  -22.1200   -8.9740   20.4300 C   0  0  0  0  0  3  0  0  0  0  0  0
  -22.8290  -10.1710   20.2330 C   0  0  0  0  0  3  0  0  0  0  0  0
  -21.8290   -6.8650   21.4620 O   0  0  0  0  0  0  0  0  0  0  0  0
  -21.7770   -6.1480   22.6310 C   0  0  0  0  0  0  0  0  0  0  0  0
  -21.3300   -6.7250   23.8400 C   0  0  0  0  0  3  0  0  0  0  0  0
  -21.2300   -5.9330   25.0020 C   0  0  0  0  0  3  0  0  0  0  0  0
  -21.5620   -4.5660   24.9550 C   0  0  0  0  0  0  0  0  0  0  0  0
  -21.9980   -3.9880   23.7490 C   0  0  0  0  0  3  0  0  0  0  0  0
  -22.1030   -4.7770   22.5900 C   0  0  0  0  0  0  0  0  0  0  0  0
  -22.5060   -4.2120   21.4280 F   0  0  0  0  0  0  0  0  0  0  0  0
  -21.4560   -3.8030   26.0680 F   0  0  0  0  0  0  0  0  0  0  0  0
  -22.8800  -13.5220   21.2520 C   0  0  0  0  0  0  0  0  0  0  0  0
  -22.2290  -12.8180   22.1720 N   0  0  0  0  0  0  0  0  0  0  0  0
  -22.3940  -14.5480   20.7760 O   0  0  0  0  0  0  0  0  0  0  0  0
  -22.6340  -11.9880   22.5780 H   0  0  0  0  0  0  0  0  0  0  0  0
  -21.3130  -13.1150   22.4760 H   0  0  0  0  0  0  0  0  0  0  0  0
  -25.4430  -15.2160   20.2890 N   0  0  0  0  0  0  0  0  0  0  0  0
  -24.6900  -15.8730   20.4590 H   0  0  0  0  0  0  0  0  0  0  0  0
  -26.2870  -15.6570   19.9440 H   0  0  0  0  0  0  0  0  0  0  0  0
  1  2  1  0
  1 45  1  0
  3  4  1  0
  3  2  1  0
  5 16  2  0
  6  4  1  0
  6 11  1  0
  7 15  1  0
  7 17  1  0
  8 14  1  0
  8 10  1  0
  9 15  1  0
 10  9  1  0
 11 10  2  0
 12 13  1  0
 12  6  2  0
 13  8  2  0
 14  7  1  0
 15  5  1  0
 17 19  2  0
 18 17  1  0
 20 18  1  0
 21 30  2  0
 21 26  1  0
 22 18  1  0
 22 26  1  0
 23 22  1  0
 24 25  1  0
 24 23  1  0
 25 21  1  0
 26 27  2  0
 27 28  1  0
 29 28  2  0
 30 29  1  0
 31  5  1  0
 31 36  1  0
 31 32  1  0
 32 35  1  1
 32 33  1  0
 34 32  1  0
 36 39  1  0
 37 41  1  0
 37 36  1  0
 38 37  2  0
 41 40  1  0
 43 44  1  0
 43 41  1  0
 43 42  1  0
 46 45  1  0
 47 46  1  0
 47 48  1  0
 49 48  1  0
 49 59  1  0
 50 59  1  0
 51 56  1  0
 52 53  1  0
 52 51  1  0
 54 53  1  0
 54 63  1  0
 54 55  1  0
 56 50  1  0
 56 55  1  0
 57 50  2  0
 59 58  1  0
 60 61  2  0
 61 80  1  0
 62 61  1  0
 62 65  1  0
 63 64  1  0
 63 60  1  0
 64 62  2  0
 65 66  1  0
 66 67  2  0
 68 71  1  0
 68 67  1  0
 69 68  2  0
 70 69  1  0
 70 65  2  0
 71 72  1  0
 72 73  1  0
 73 74  2  0
 75 74  1  0
 75 79  1  0
 76 75  2  0
 77 72  2  0
 77 76  1  0
 78 77  1  0
 80 81  1  0
 81 84  1  0
 81 83  1  0
 82 80  2  0
 85 60  1  0
 85 86  1  0
 87 85  1  0
M  ISO  4   3 101   4 101  50 100  59 100
M  END
>  <TORSDO>  (18) 
F 23

>  <SCORE>  (18) 
-11.701

>  <name>  (18) 
17

>  <ligand_id>  (18) 
17

>  <original_smiles>  (18) 
[H]c1c([H])c([H])c2c(c1[H])C([H])([H])C([H])([H])C([H])([H])C2([H])N([H])C(=O)C1([H])N(C(=O)C([H])(N([H])C(=O)C([H])(N([H])C([H])([H])[H])C([H])([H])[H])C(C([H])([H])[H])(C([H])([H])[H])C([H])([H])[H])C([H])([H])c2c([H])c(OC([H])([H])C([H])([H])OC([H])([H])C([H])([H])OC([H])([H])C([H])([H])N(C(=O)N3C([H])([H])C([H])([H])C([H])([H])C([H])(n4nc(-c5c([H])c([H])c(Oc6c([H])c([H])c(F)c([H])c6F)c([H])c5[H])c(C(=O)N([H])[H])c4N([H])[H])C3([H])[H])C([H])([H])[H])c([H])c([H])c2C1([H])[H]

>  <smiles>  (18) 
[H]c1c([H])c([H])c2c(c1[H])C([H])([H])C([H])([H])C([H])([H])C2([H])N([H])C(=O)C1([H])N(C(=O)C([H])(N([H])C(=O)C([H])(N([H])C([H])([H])[H])C([H])([H])[H])C(C([H])([H])[H])(C([H])([H])[H])C([H])([H])[H])C([H])([H])c2c([H])c(OC([H])([H])C([H])([H])OC([H])([H])C([H])([H])OC([H])([H])C([H])([H])N(C(=O)N3C([H])([H])C([H])([H])C([H])([H])C([H])(n4nc(-c5c([H])c([H])c(Oc6c([H])c([H])c(F)c([H])c6F)c([H])c5[H])c(C(=O)N([H])[H])c4N([H])[H])C3([H])[H])C([H])([H])[H])c([H])c([H])c2C1([H])[H]

$$$$
18:0:0
     RDKit          3D

 90 97  0  0  1  0  0  0  0  0999 V2000
  -27.8060  -22.7890   22.0570 C   0  0  0  0  0  2  0  0  0  0  0  0
  -28.1210  -23.6690   20.9800 O   0  0  0  0  0  0  0  0  0  0  0  0
  -28.3570  -25.0040   21.4180 C   0  0  0  0  0  2  0  0  0  0  0  0
  -29.0330  -25.8100   20.2920 C   0  0  0  0  0  2  0  0  0  0  0  0
  -28.9770  -27.2200   20.5330 O   0  0  0  0  0  0  0  0  0  0  0  0
  -24.8130  -32.1180   23.5430 C   0  0  0  0  0  0  0  0  0  0  0  0
  -27.7520  -27.8490   20.4980 C   0  0  0  0  0  0  0  0  0  0  0  0
  -23.7220  -30.6820   21.8480 C   0  0  0  0  0  3  0  0  0  0  0  0
  -25.2850  -29.2330   20.4560 C   0  0  0  0  0  0  0  0  0  0  0  0
  -26.2290  -31.1650   21.7290 C   0  0  0  0  0  2  0  0  0  0  0  0
  -26.3990  -29.8060   21.0820 C   0  0  0  0  0  0  0  0  0  0  0  0
  -27.6340  -29.1210   21.0980 C   0  0  0  0  0  3  0  0  0  0  0  0
  -26.6140  -27.2830   19.8740 C   0  0  0  0  0  3  0  0  0  0  0  0
  -25.3870  -27.9680   19.8540 C   0  0  0  0  0  3  0  0  0  0  0  0
  -24.0040  -30.0320   20.4680 C   0  0  0  0  0  2  0  0  0  0  0  0
  -24.9370  -31.3350   22.4330 N   0  0  0  0  0  0  0  0  0  0  0  0
  -23.7050  -32.3340   24.0530 O   0  0  0  0  0  0  0  0  0  0  0  0
  -23.0900  -29.6210   22.7760 C   0  0  0  0  0  0  0  0  0  0  0  0
  -21.7860  -29.3620   22.5830 N   0  0  0  0  0  0  0  0  0  0  0  0
  -23.7700  -29.0330   23.6190 O   0  0  0  0  0  0  0  0  0  0  0  0
  -21.2950  -29.8870   21.8700 H   0  0  0  0  0  0  0  0  0  0  0  0
  -18.4720  -27.9650   22.9140 C   0  0  0  0  0  0  0  0  0  0  0  0
  -20.9920  -28.3730   23.3120 C   0  0  0  0  0  3  0  0  0  0  0  0
  -21.2090  -26.9500   22.7440 C   0  0  0  0  0  2  0  0  0  0  0  0
  -20.1790  -26.5620   21.6760 C   0  0  0  0  0  2  0  0  0  0  0  0
  -18.7620  -26.6280   22.2540 C   0  0  0  0  0  2  0  0  0  0  0  0
  -19.5210  -28.7900   23.3990 C   0  0  0  0  0  0  0  0  0  0  0  0
  -19.2030  -30.0400   23.9710 C   0  0  0  0  0  3  0  0  0  0  0  0
  -17.8650  -30.4650   24.0730 C   0  0  0  0  0  3  0  0  0  0  0  0
  -16.8290  -29.6370   23.6090 C   0  0  0  0  0  3  0  0  0  0  0  0
  -17.1330  -28.3910   23.0320 C   0  0  0  0  0  3  0  0  0  0  0  0
  -26.0510  -32.7960   24.2080 C   0  0  0  0  0  3  0  0  0  0  0  0
  -26.4950  -32.0970   25.5500 C   0  0  1  0  0  0  0  0  0  0  0  0
  -25.3360  -31.8630   26.5460 C   0  0  0  0  0  1  0  0  0  0  0  0
  -27.1490  -30.7280   25.2540 C   0  0  0  0  0  1  0  0  0  0  0  0
  -27.5660  -32.9570   26.2590 C   0  0  0  0  0  1  0  0  0  0  0  0
  -25.7090  -34.2050   24.4420 N   0  0  0  0  0  0  0  0  0  0  0  0
  -26.0740  -35.2180   23.6420 C   0  0  0  0  0  0  0  0  0  0  0  0
  -26.8020  -35.0650   22.6570 O   0  0  0  0  0  0  0  0  0  0  0  0
  -25.0670  -34.3930   25.1980 H   0  0  0  0  0  0  0  0  0  0  0  0
  -24.3440  -36.9560   23.0900 C   0  0  0  0  0  1  0  0  0  0  0  0
  -25.5440  -36.6220   23.9910 C   0  0  0  0  0  3  0  0  0  0  0  0
  -27.6240  -37.5810   24.8740 C   0  0  0  0  0  1  0  0  0  0  0  0
  -26.5690  -37.6810   23.8690 N   0  0  0  0  0  0  0  0  0  0  0  0
  -26.1450  -38.6010   23.9460 H   0  0  0  0  0  0  0  0  0  0  0  0
  -27.4930  -21.3830   21.5210 C   0  0  0  0  0  2  0  0  0  0  0  0
  -28.6650  -20.7680   20.9950 O   0  0  0  0  0  0  0  0  0  0  0  0
  -28.3670  -19.5800   20.2660 C   0  0  0  0  0  2  0  0  0  0  0  0
  -29.6620  -18.8370   19.8940 C   0  0  0  0  0  2  0  0  0  0  0  0
  -30.0630  -17.9670   20.9490 O   0  0  0  0  0  0  0  0  0  0  0  0
  -31.4690  -17.8850   21.1710 C   0  0  0  0  0  2  0  0  0  0  0  0
  -32.1640  -16.8510   20.2700 C   0  0  0  0  0  2  0  0  0  0  0  0
  -31.9300  -14.4640   19.7030 C   0  0  0  0  0  0  0  0  0  0  0  0
  -31.3700  -12.1870   18.9420 C   0  0  0  0  0  2  0  0  0  0  0  0
  -30.3890  -12.2580   17.7560 C   0  0  0  0  0  2  0  0  0  0  0  0
  -28.9350  -12.3150   18.2570 C   0  0  0  0  0  2  0  0  0  0  0  0
  -28.7260  -13.3820   19.3650 C   0  0  0  0  0  3  0  0  0  0  0  0
  -29.8210  -13.2870   20.4530 C   0  0  0  0  0  2  0  0  0  0  0  0
  -31.1380  -13.3620   19.7950 N   0  0  0  0  0  0  0  0  0  0  0  0
  -32.9520  -14.5110   19.0150 O   0  0  0  0  0  0  0  0  0  0  0  0
  -31.5220  -15.5410   20.3790 N   0  0  0  0  0  0  0  0  0  0  0  0
  -30.6870  -15.4770   20.9440 H   0  0  0  0  0  0  0  0  0  0  0  0
  -26.5230  -14.3100   20.3180 C   0  0  0  0  0  0  0  0  0  0  0  0
  -25.3730  -13.6950   20.7340 C   0  0  0  0  0  0  0  0  0  0  0  0
  -25.5970  -12.2930   20.5790 C   0  0  0  0  0  0  0  0  0  0  0  0
  -27.3840  -13.2930   19.9390 N   0  0  0  0  0  0  0  0  0  0  0  0
  -26.8320  -12.0680   20.1490 N   0  0  0  0  0  0  0  0  0  0  0  0
  -24.6860  -11.1530   20.7540 C   0  0  0  0  0  0  0  0  0  0  0  0
  -25.0150  -10.0650   21.5910 C   0  0  0  0  0  3  0  0  0  0  0  0
  -24.1140   -8.9910   21.7570 C   0  0  0  0  0  3  0  0  0  0  0  0
  -22.8680   -9.0000   21.0880 C   0  0  0  0  0  0  0  0  0  0  0  0
  -22.5550  -10.0750   20.2360 C   0  0  0  0  0  3  0  0  0  0  0  0
  -23.4560  -11.1380   20.0660 C   0  0  0  0  0  3  0  0  0  0  0  0
  -21.9430   -7.9870   21.1680 O   0  0  0  0  0  0  0  0  0  0  0  0
  -21.8340   -7.1990   22.2860 C   0  0  0  0  0  0  0  0  0  0  0  0
  -21.5870   -7.7470   23.5640 C   0  0  0  0  0  3  0  0  0  0  0  0
  -21.4110   -6.8960   24.6730 C   0  0  0  0  0  3  0  0  0  0  0  0
  -21.4730   -5.4990   24.5060 C   0  0  0  0  0  0  0  0  0  0  0  0
  -21.7140   -4.9520   23.2340 C   0  0  0  0  0  3  0  0  0  0  0  0
  -21.8900   -5.8000   22.1260 C   0  0  0  0  0  0  0  0  0  0  0  0
  -22.1010   -5.2670   20.8980 F   0  0  0  0  0  0  0  0  0  0  0  0
  -21.2960   -4.6800   25.5700 F   0  0  0  0  0  0  0  0  0  0  0  0
  -24.1040  -14.3690   21.1660 C   0  0  0  0  0  0  0  0  0  0  0  0
  -23.3490  -13.7420   22.0620 N   0  0  0  0  0  0  0  0  0  0  0  0
  -23.7960  -15.4850   20.7480 O   0  0  0  0  0  0  0  0  0  0  0  0
  -23.6150  -12.8390   22.4260 H   0  0  0  0  0  0  0  0  0  0  0  0
  -22.4980  -14.1770   22.3890 H   0  0  0  0  0  0  0  0  0  0  0  0
  -26.9010  -15.6450   20.2170 N   0  0  0  0  0  0  0  0  0  0  0  0
  -26.2750  -16.4070   20.4510 H   0  0  0  0  0  0  0  0  0  0  0  0
  -27.7960  -15.9620   19.8690 H   0  0  0  0  0  0  0  0  0  0  0  0
  2  3  1  0
  2  1  1  0
  4  5  1  0
  4  3  1  0
  6 17  2  0
  7  5  1  0
  7 12  1  0
  8 16  1  0
  8 18  1  0
  9 15  1  0
  9 11  1  0
 10 16  1  0
 11 12  2  0
 11 10  1  0
 13  7  2  0
 14 13  1  0
 14  9  2  0
 15  8  1  0
 16  6  1  0
 18 20  2  0
 19 18  1  0
 21 19  1  0
 22 31  2  0
 22 27  1  0
 23 19  1  0
 23 27  1  0
 24 23  1  0
 25 26  1  0
 25 24  1  0
 26 22  1  0
 27 28  2  0
 28 29  1  0
 30 29  2  0
 31 30  1  0
 32  6  1  0
 32 37  1  0
 32 33  1  0
 33 36  1  1
 33 34  1  0
 35 33  1  0
 37 40  1  0
 38 42  1  0
 38 37  1  0
 39 38  2  0
 42 41  1  0
 44 45  1  0
 44 42  1  0
 44 43  1  0
 46  1  1  0
 47 46  1  0
 48 47  1  0
 49 48  1  0
 49 50  1  0
 50 51  1  0
 52 61  1  0
 52 51  1  0
 53 59  1  0
 53 61  1  0
 54 59  1  0
 55 56  1  0
 55 54  1  0
 57 56  1  0
 57 66  1  0
 57 58  1  0
 59 58  1  0
 60 53  2  0
 61 62  1  0
 63 64  2  0
 64 83  1  0
 65 64  1  0
 65 68  1  0
 66 67  1  0
 66 63  1  0
 67 65  2  0
 68 69  1  0
 69 70  2  0
 71 74  1  0
 71 70  1  0
 72 71  2  0
 73 72  1  0
 73 68  2  0
 74 75  1  0
 75 76  1  0
 76 77  2  0
 78 77  1  0
 78 82  1  0
 79 78  2  0
 80 75  2  0
 80 79  1  0
 81 80  1  0
 83 84  1  0
 84 87  1  0
 84 86  1  0
 85 83  2  0
 88 63  1  0
 88 89  1  0
 90 88  1  0
M  ISO  4   4 101   5 101  53 100  61 100
M  END
>  <TORSDO>  (19) 
F 26

>  <SCORE>  (19) 
-9.736

>  <name>  (19) 
18

>  <ligand_id>  (19) 
18

>  <original_smiles>  (19) 
[H]c1c([H])c([H])c2c(c1[H])C([H])([H])C([H])([H])C([H])([H])C2([H])N([H])C(=O)C1([H])N(C(=O)C([H])(N([H])C(=O)C([H])(N([H])C([H])([H])[H])C([H])([H])[H])C(C([H])([H])[H])(C([H])([H])[H])C([H])([H])[H])C([H])([H])c2c([H])c(OC([H])([H])C([H])([H])OC([H])([H])C([H])([H])OC([H])([H])C([H])([H])OC([H])([H])C([H])([H])N([H])C(=O)N3C([H])([H])C([H])([H])C([H])([H])C([H])(n4nc(-c5c([H])c([H])c(Oc6c([H])c([H])c(F)c([H])c6F)c([H])c5[H])c(C(=O)N([H])[H])c4N([H])[H])C3([H])[H])c([H])c([H])c2C1([H])[H]

>  <smiles>  (19) 
[H]c1c([H])c([H])c2c(c1[H])C([H])([H])C([H])([H])C([H])([H])C2([H])N([H])C(=O)C1([H])N(C(=O)C([H])(N([H])C(=O)C([H])(N([H])C([H])([H])[H])C([H])([H])[H])C(C([H])([H])[H])(C([H])([H])[H])C([H])([H])[H])C([H])([H])c2c([H])c(OC([H])([H])C([H])([H])OC([H])([H])C([H])([H])OC([H])([H])C([H])([H])OC([H])([H])C([H])([H])N([H])C(=O)N3C([H])([H])C([H])([H])C([H])([H])C([H])(n4nc(-c5c([H])c([H])c(Oc6c([H])c([H])c(F)c([H])c6F)c([H])c5[H])c(C(=O)N([H])[H])c4N([H])[H])C3([H])[H])c([H])c([H])c2C1([H])[H]

$$$$
19:0:0
     RDKit          3D

 84 91  0  0  1  0  0  0  0  0999 V2000
  -28.7200  -22.8200   19.9390 C   0  0  0  0  0  2  0  0  0  0  0  0
  -28.9750  -21.2040   20.6560 C   0  0  0  0  0  2  0  0  0  0  0  0
  -29.1120  -19.5470   20.0050 C   0  0  0  0  0  2  0  0  0  0  0  0
  -29.8670  -18.0600   20.6330 C   0  0  0  0  0  2  0  0  0  0  0  0
  -30.3960  -15.2010   20.2700 C   0  0  0  0  0  0  0  0  0  0  0  0
  -30.3500  -12.7810   19.3600 C   0  0  0  0  0  2  0  0  0  0  0  0
  -29.4120  -12.6020   18.1410 C   0  0  0  0  0  2  0  0  0  0  0  0
  -27.9650  -12.3420   18.5970 C   0  0  0  0  0  2  0  0  0  0  0  0
  -27.5320  -13.3000   19.7350 C   0  0  0  0  0  3  0  0  0  0  0  0
  -28.5930  -13.4210   20.8470 C   0  0  0  0  0  2  0  0  0  0  0  0
  -29.8190  -13.9100   20.2000 N   0  0  0  0  0  0  0  0  0  0  0  0
  -31.6200  -15.2130   20.0850 O   0  0  0  0  0  0  0  0  0  0  0  0
  -29.6200  -16.4480   20.3470 N   0  0  0  0  0  0  0  0  0  0  0  0
  -28.6340  -16.2300   20.3490 H   0  0  0  0  0  0  0  0  0  0  0  0
  -25.1640  -13.8590   20.5070 C   0  0  0  0  0  0  0  0  0  0  0  0
  -24.1070  -13.0800   20.8850 C   0  0  0  0  0  0  0  0  0  0  0  0
  -24.5780  -11.7320   20.8550 C   0  0  0  0  0  0  0  0  0  0  0  0
  -26.2080  -12.9850   20.2570 N   0  0  0  0  0  0  0  0  0  0  0  0
  -25.8670  -11.7000   20.5360 N   0  0  0  0  0  0  0  0  0  0  0  0
  -23.8560  -10.4680   21.0510 C   0  0  0  0  0  0  0  0  0  0  0  0
  -24.3040   -9.4940   21.9700 C   0  0  0  0  0  3  0  0  0  0  0  0
  -23.5790   -8.2970   22.1560 C   0  0  0  0  0  3  0  0  0  0  0  0
  -22.3920   -8.0650   21.4220 C   0  0  0  0  0  0  0  0  0  0  0  0
  -21.9620   -9.0270   20.4910 C   0  0  0  0  0  3  0  0  0  0  0  0
  -22.6880  -10.2150   20.3040 C   0  0  0  0  0  3  0  0  0  0  0  0
  -21.6370   -6.9210   21.5170 O   0  0  0  0  0  0  0  0  0  0  0  0
  -21.6230   -6.1620   22.6600 C   0  0  0  0  0  0  0  0  0  0  0  0
  -21.2490   -6.7030   23.9090 C   0  0  0  0  0  3  0  0  0  0  0  0
  -21.1820   -5.8710   25.0460 C   0  0  0  0  0  3  0  0  0  0  0  0
  -21.4760   -4.4990   24.9330 C   0  0  0  0  0  0  0  0  0  0  0  0
  -21.8430   -3.9570   23.6880 C   0  0  0  0  0  3  0  0  0  0  0  0
  -21.9120   -4.7860   22.5540 C   0  0  0  0  0  0  0  0  0  0  0  0
  -22.2450   -4.2550   21.3530 F   0  0  0  0  0  0  0  0  0  0  0  0
  -21.4040   -3.6980   26.0210 F   0  0  0  0  0  0  0  0  0  0  0  0
  -22.7100  -13.5540   21.1580 C   0  0  0  0  0  0  0  0  0  0  0  0
  -21.9870  -12.8610   22.0310 N   0  0  0  0  0  0  0  0  0  0  0  0
  -22.2690  -14.5760   20.6330 O   0  0  0  0  0  0  0  0  0  0  0  0
  -22.3580  -12.0360   22.4770 H   0  0  0  0  0  0  0  0  0  0  0  0
  -21.0490  -13.1600   22.2560 H   0  0  0  0  0  0  0  0  0  0  0  0
  -25.3190  -15.2300   20.3220 N   0  0  0  0  0  0  0  0  0  0  0  0
  -24.5440  -15.8760   20.4320 H   0  0  0  0  0  0  0  0  0  0  0  0
  -26.1490  -15.6710   19.9480 H   0  0  0  0  0  0  0  0  0  0  0  0
  -28.0700  -24.3570   20.5690 C   0  0  0  0  0  2  0  0  0  0  0  0
  -28.2440  -25.9400   20.2190 O   0  0  0  0  0  0  0  0  0  0  0  0
  -24.6360  -31.8510   23.1910 C   0  0  0  0  0  0  0  0  0  0  0  0
  -27.2030  -26.9910   20.2220 C   0  0  0  0  0  0  0  0  0  0  0  0
  -23.4440  -30.4430   21.5620 C   0  0  0  0  0  3  0  0  0  0  0  0
  -24.8930  -28.8310   20.1590 C   0  0  0  0  0  0  0  0  0  0  0  0
  -26.0070  -30.6690   21.4100 C   0  0  0  0  0  2  0  0  0  0  0  0
  -26.0800  -29.2570   20.7700 C   0  0  0  0  0  0  0  0  0  0  0  0
  -27.2330  -28.3580   20.7710 C   0  0  0  0  0  3  0  0  0  0  0  0
  -25.9840  -26.6990   19.5730 C   0  0  0  0  0  3  0  0  0  0  0  0
  -24.8670  -27.5710   19.5410 C   0  0  0  0  0  3  0  0  0  0  0  0
  -23.6730  -29.7490   20.1920 C   0  0  0  0  0  2  0  0  0  0  0  0
  -24.7180  -31.0140   22.1080 N   0  0  0  0  0  0  0  0  0  0  0  0
  -23.5480  -32.1440   23.7100 O   0  0  0  0  0  0  0  0  0  0  0  0
  -22.7520  -29.4530   22.5340 C   0  0  0  0  0  0  0  0  0  0  0  0
  -21.4230  -29.2840   22.4070 N   0  0  0  0  0  0  0  0  0  0  0  0
  -23.4180  -28.8350   23.3680 O   0  0  0  0  0  0  0  0  0  0  0  0
  -20.9400  -29.8330   21.7090 H   0  0  0  0  0  0  0  0  0  0  0  0
  -18.0440  -28.0620   22.9000 C   0  0  0  0  0  0  0  0  0  0  0  0
  -20.5990  -28.3520   23.1830 C   0  0  0  0  0  3  0  0  0  0  0  0
  -20.7170  -26.9120   22.6300 C   0  0  0  0  0  2  0  0  0  0  0  0
  -19.6270  -26.5660   21.6110 C   0  0  0  0  0  2  0  0  0  0  0  0
  -18.2380  -26.7060   22.2410 C   0  0  0  0  0  2  0  0  0  0  0  0
  -19.1530  -28.8410   23.3270 C   0  0  0  0  0  0  0  0  0  0  0  0
  -18.9150  -30.1070   23.9070 C   0  0  0  0  0  3  0  0  0  0  0  0
  -17.6030  -30.5950   24.0600 C   0  0  0  0  0  3  0  0  0  0  0  0
  -16.5100  -29.8140   23.6450 C   0  0  0  0  0  3  0  0  0  0  0  0
  -16.7310  -28.5490   23.0720 C   0  0  0  0  0  3  0  0  0  0  0  0
  -25.9090  -32.4980   23.8200 C   0  0  0  0  0  3  0  0  0  0  0  0
  -26.4210  -31.7340   25.1030 C   0  0  1  0  0  0  0  0  0  0  0  0
  -25.3240  -31.5030   26.1710 C   0  0  0  0  0  1  0  0  0  0  0  0
  -27.0060  -30.3530   24.7280 C   0  0  0  0  0  1  0  0  0  0  0  0
  -27.5690  -32.5320   25.7650 C   0  0  0  0  0  1  0  0  0  0  0  0
  -25.5860  -33.8960   24.1570 N   0  0  0  0  0  0  0  0  0  0  0  0
  -25.9120  -34.9590   23.4110 C   0  0  0  0  0  0  0  0  0  0  0  0
  -26.5790  -34.8680   22.3770 O   0  0  0  0  0  0  0  0  0  0  0  0
  -24.9920  -34.0390   24.9610 H   0  0  0  0  0  0  0  0  0  0  0  0
  -24.1740  -36.7540   23.0900 C   0  0  0  0  0  1  0  0  0  0  0  0
  -25.4240  -36.3440   23.8850 C   0  0  0  0  0  3  0  0  0  0  0  0
  -27.5630  -37.2340   24.7020 C   0  0  0  0  0  1  0  0  0  0  0  0
  -26.4510  -37.4030   23.7700 N   0  0  0  0  0  0  0  0  0  0  0  0
  -26.0430  -38.3200   23.9280 H   0  0  0  0  0  0  0  0  0  0  0  0
  1 43  1  0
  1  2  1  0
  3  4  1  0
  3  2  1  0
  5 13  1  0
  6 11  1  0
  7  8  1  0
  7  6  1  0
  9  8  1  0
  9 18  1  0
  9 10  1  0
 11  5  1  0
 11 10  1  0
 12  5  2  0
 13 14  1  0
 13  4  1  0
 15 16  2  0
 16 35  1  0
 17 16  1  0
 17 20  1  0
 18 15  1  0
 18 19  1  0
 19 17  2  0
 20 21  1  0
 21 22  2  0
 23 26  1  0
 23 22  1  0
 24 23  2  0
 25 24  1  0
 25 20  2  0
 26 27  1  0
 27 28  1  0
 28 29  2  0
 30 29  1  0
 30 34  1  0
 31 30  2  0
 32 27  2  0
 32 31  1  0
 33 32  1  0
 35 36  1  0
 36 39  1  0
 36 38  1  0
 37 35  2  0
 40 41  1  0
 40 15  1  0
 42 40  1  0
 44 46  1  0
 44 43  1  0
 45 56  2  0
 46 51  1  0
 47 55  1  0
 47 57  1  0
 48 54  1  0
 48 50  1  0
 49 55  1  0
 50 51  2  0
 50 49  1  0
 52 46  2  0
 53 52  1  0
 53 48  2  0
 54 47  1  0
 55 45  1  0
 57 59  2  0
 58 57  1  0
 60 58  1  0
 61 70  2  0
 61 66  1  0
 62 58  1  0
 62 66  1  0
 63 62  1  0
 64 65  1  0
 64 63  1  0
 65 61  1  0
 66 67  2  0
 67 68  1  0
 69 68  2  0
 70 69  1  0
 71 45  1  0
 71 76  1  0
 71 72  1  0
 72 75  1  1
 72 73  1  0
 74 72  1  0
 76 79  1  0
 77 81  1  0
 77 76  1  0
 78 77  2  0
 81 80  1  0
 83 81  1  0
 83 84  1  0
 83 82  1  0
M  ISO  4   5 100  13 100  43 101  44 101
M  END
>  <TORSDO>  (20) 
F 20

>  <SCORE>  (20) 
-15.593

>  <name>  (20) 
19

>  <ligand_id>  (20) 
19

>  <original_smiles>  (20) 
[H]c1c([H])c([H])c2c(c1[H])C([H])([H])C([H])([H])C([H])([H])C2([H])N([H])C(=O)C1([H])N(C(=O)C([H])(N([H])C(=O)C([H])(N([H])C([H])([H])[H])C([H])([H])[H])C(C([H])([H])[H])(C([H])([H])[H])C([H])([H])[H])C([H])([H])c2c([H])c(OC([H])([H])C([H])([H])C([H])([H])C([H])([H])C([H])([H])N([H])C(=O)N3C([H])([H])C([H])([H])C([H])([H])C([H])(n4nc(-c5c([H])c([H])c(Oc6c([H])c([H])c(F)c([H])c6F)c([H])c5[H])c(C(=O)N([H])[H])c4N([H])[H])C3([H])[H])c([H])c([H])c2C1([H])[H]

>  <smiles>  (20) 
[H]c1c([H])c([H])c2c(c1[H])C([H])([H])C([H])([H])C([H])([H])C2([H])N([H])C(=O)C1([H])N(C(=O)C([H])(N([H])C(=O)C([H])(N([H])C([H])([H])[H])C([H])([H])[H])C(C([H])([H])[H])(C([H])([H])[H])C([H])([H])[H])C([H])([H])c2c([H])c(OC([H])([H])C([H])([H])C([H])([H])C([H])([H])C([H])([H])N([H])C(=O)N3C([H])([H])C([H])([H])C([H])([H])C([H])(n4nc(-c5c([H])c([H])c(Oc6c([H])c([H])c(F)c([H])c6F)c([H])c5[H])c(C(=O)N([H])[H])c4N([H])[H])C3([H])[H])c([H])c([H])c2C1([H])[H]

$$$$
20:0:0
     RDKit          3D

 87 94  0  0  1  0  0  0  0  0999 V2000
  -29.1130  -22.7980   20.1480 O   0  0  0  0  0  0  0  0  0  0  0  0
  -29.2650  -24.1800   20.5710 C   0  0  0  0  0  2  0  0  0  0  0  0
  -28.1950  -25.1410   19.9510 C   0  0  0  0  0  2  0  0  0  0  0  0
  -28.3440  -26.5690   20.2300 O   0  0  0  0  0  0  0  0  0  0  0  0
  -24.6030  -31.8820   23.2540 C   0  0  0  0  0  0  0  0  0  0  0  0
  -27.2030  -27.3700   20.1730 C   0  0  0  0  0  0  0  0  0  0  0  0
  -23.3880  -30.4910   21.6140 C   0  0  0  0  0  3  0  0  0  0  0  0
  -24.8290  -28.9470   20.1790 C   0  0  0  0  0  0  0  0  0  0  0  0
  -25.9230  -30.8160   21.4190 C   0  0  0  0  0  2  0  0  0  0  0  0
  -25.9960  -29.4430   20.7740 C   0  0  0  0  0  0  0  0  0  0  0  0
  -27.1840  -28.6630   20.7670 C   0  0  0  0  0  3  0  0  0  0  0  0
  -26.0140  -26.9200   19.5460 C   0  0  0  0  0  3  0  0  0  0  0  0
  -24.8370  -27.6890   19.5590 C   0  0  0  0  0  3  0  0  0  0  0  0
  -23.5920  -29.8180   20.2320 C   0  0  0  0  0  2  0  0  0  0  0  0
  -24.6560  -31.0790   22.1530 N   0  0  0  0  0  0  0  0  0  0  0  0
  -23.5240  -32.1610   23.7950 O   0  0  0  0  0  0  0  0  0  0  0  0
  -22.7290  -29.4710   22.5730 C   0  0  0  0  0  0  0  0  0  0  0  0
  -21.4040  -29.2960   22.4460 N   0  0  0  0  0  0  0  0  0  0  0  0
  -23.4090  -28.8420   23.3890 O   0  0  0  0  0  0  0  0  0  0  0  0
  -20.9160  -29.8550   21.7610 H   0  0  0  0  0  0  0  0  0  0  0  0
  -18.0240  -28.1080   22.9390 C   0  0  0  0  0  0  0  0  0  0  0  0
  -20.5820  -28.3620   23.2170 C   0  0  0  0  0  3  0  0  0  0  0  0
  -20.6820  -26.9290   22.6440 C   0  0  0  0  0  2  0  0  0  0  0  0
  -19.5830  -26.6070   21.6270 C   0  0  0  0  0  2  0  0  0  0  0  0
  -18.2000  -26.7570   22.2670 C   0  0  0  0  0  2  0  0  0  0  0  0
  -19.1430  -28.8680   23.3700 C   0  0  0  0  0  0  0  0  0  0  0  0
  -18.9250  -30.1340   23.9590 C   0  0  0  0  0  3  0  0  0  0  0  0
  -17.6220  -30.6390   24.1180 C   0  0  0  0  0  3  0  0  0  0  0  0
  -16.5170  -29.8760   23.7040 C   0  0  0  0  0  3  0  0  0  0  0  0
  -16.7190  -28.6120   23.1200 C   0  0  0  0  0  3  0  0  0  0  0  0
  -25.8930  -32.5060   23.8720 C   0  0  0  0  0  3  0  0  0  0  0  0
  -26.4080  -31.7310   25.1470 C   0  0  1  0  0  0  0  0  0  0  0  0
  -25.3180  -31.5010   26.2190 C   0  0  0  0  0  1  0  0  0  0  0  0
  -26.9820  -30.3500   24.7520 C   0  0  0  0  0  1  0  0  0  0  0  0
  -27.5640  -32.5190   25.8080 C   0  0  0  0  0  1  0  0  0  0  0  0
  -25.5920  -33.9060   24.2030 N   0  0  0  0  0  0  0  0  0  0  0  0
  -25.9250  -34.9570   23.4410 C   0  0  0  0  0  0  0  0  0  0  0  0
  -26.5890  -34.8480   22.4060 O   0  0  0  0  0  0  0  0  0  0  0  0
  -25.0030  -34.0650   25.0080 H   0  0  0  0  0  0  0  0  0  0  0  0
  -24.2020  -36.7560   23.0930 C   0  0  0  0  0  1  0  0  0  0  0  0
  -25.4460  -36.3470   23.8980 C   0  0  0  0  0  3  0  0  0  0  0  0
  -27.5900  -37.2240   24.7140 C   0  0  0  0  0  1  0  0  0  0  0  0
  -26.4820  -37.3950   23.7780 N   0  0  0  0  0  0  0  0  0  0  0  0
  -26.0800  -38.3170   23.9270 H   0  0  0  0  0  0  0  0  0  0  0  0
  -29.8660  -21.8260   20.9130 C   0  0  0  0  0  2  0  0  0  0  0  0
  -29.9940  -20.3890   20.2800 C   0  0  0  0  0  2  0  0  0  0  0  0
  -29.6060  -19.3250   21.1790 O   0  0  0  0  0  0  0  0  0  0  0  0
  -30.3560  -18.0820   21.1900 C   0  0  0  0  0  2  0  0  0  0  0  0
  -29.9920  -17.0260   20.1000 C   0  0  0  0  0  2  0  0  0  0  0  0
  -30.6580  -14.5630   20.1340 C   0  0  0  0  0  0  0  0  0  0  0  0
  -30.3320  -12.3860   19.0110 C   0  0  0  0  0  2  0  0  0  0  0  0
  -29.3420  -12.5990   17.8440 C   0  0  0  0  0  2  0  0  0  0  0  0
  -27.8850  -12.4670   18.3310 C   0  0  0  0  0  2  0  0  0  0  0  0
  -27.6040  -13.2910   19.6150 C   0  0  0  0  0  3  0  0  0  0  0  0
  -28.7030  -13.0590   20.6790 C   0  0  0  0  0  2  0  0  0  0  0  0
  -30.0040  -13.3660   20.0610 N   0  0  0  0  0  0  0  0  0  0  0  0
  -31.7760  -14.7380   19.6440 O   0  0  0  0  0  0  0  0  0  0  0  0
  -29.9110  -15.6090   20.5580 N   0  0  0  0  0  0  0  0  0  0  0  0
  -29.0360  -15.3490   20.9880 H   0  0  0  0  0  0  0  0  0  0  0  0
  -25.2410  -13.9170   20.4180 C   0  0  0  0  0  0  0  0  0  0  0  0
  -24.1800  -13.1550   20.8240 C   0  0  0  0  0  0  0  0  0  0  0  0
  -24.6260  -11.7980   20.7700 C   0  0  0  0  0  0  0  0  0  0  0  0
  -26.2680  -13.0270   20.1440 N   0  0  0  0  0  0  0  0  0  0  0  0
  -25.9040  -11.7470   20.4140 N   0  0  0  0  0  0  0  0  0  0  0  0
  -23.8950  -10.5420   20.9820 C   0  0  0  0  0  0  0  0  0  0  0  0
  -24.3570   -9.5630   21.8880 C   0  0  0  0  0  3  0  0  0  0  0  0
  -23.6260   -8.3710   22.0880 C   0  0  0  0  0  3  0  0  0  0  0  0
  -22.4190   -8.1520   21.3830 C   0  0  0  0  0  0  0  0  0  0  0  0
  -21.9750   -9.1210   20.4660 C   0  0  0  0  0  3  0  0  0  0  0  0
  -22.7060  -10.3040   20.2640 C   0  0  0  0  0  3  0  0  0  0  0  0
  -21.6570   -7.0150   21.4950 O   0  0  0  0  0  0  0  0  0  0  0  0
  -21.6560   -6.2580   22.6390 C   0  0  0  0  0  0  0  0  0  0  0  0
  -21.3040   -6.8040   23.8930 C   0  0  0  0  0  3  0  0  0  0  0  0
  -21.2500   -5.9740   25.0310 C   0  0  0  0  0  3  0  0  0  0  0  0
  -21.5350   -4.6010   24.9170 C   0  0  0  0  0  0  0  0  0  0  0  0
  -21.8800   -4.0550   23.6680 C   0  0  0  0  0  3  0  0  0  0  0  0
  -21.9370   -4.8820   22.5310 C   0  0  0  0  0  0  0  0  0  0  0  0
  -22.2490   -4.3460   21.3260 F   0  0  0  0  0  0  0  0  0  0  0  0
  -21.4760   -3.8020   26.0080 F   0  0  0  0  0  0  0  0  0  0  0  0
  -22.7990  -13.6450   21.1510 C   0  0  0  0  0  0  0  0  0  0  0  0
  -22.0980  -12.9520   22.0420 N   0  0  0  0  0  0  0  0  0  0  0  0
  -22.3520  -14.6760   20.6520 O   0  0  0  0  0  0  0  0  0  0  0  0
  -22.4730  -12.1180   22.4680 H   0  0  0  0  0  0  0  0  0  0  0  0
  -21.1730  -13.2630   22.3040 H   0  0  0  0  0  0  0  0  0  0  0  0
  -25.4140  -15.2870   20.2390 N   0  0  0  0  0  0  0  0  0  0  0  0
  -24.6560  -15.9470   20.3780 H   0  0  0  0  0  0  0  0  0  0  0  0
  -26.2510  -15.7180   19.8670 H   0  0  0  0  0  0  0  0  0  0  0  0
  1  2  1  0
  1 45  1  0
  3  4  1  0
  3  2  1  0
  5 16  2  0
  6  4  1  0
  6 11  1  0
  7 15  1  0
  7 17  1  0
  8 14  1  0
  8 10  1  0
  9 15  1  0
 10  9  1  0
 11 10  2  0
 12 13  1  0
 12  6  2  0
 13  8  2  0
 14  7  1  0
 15  5  1  0
 17 19  2  0
 18 17  1  0
 20 18  1  0
 21 30  2  0
 21 26  1  0
 22 18  1  0
 22 26  1  0
 23 22  1  0
 24 25  1  0
 24 23  1  0
 25 21  1  0
 26 27  2  0
 27 28  1  0
 29 28  2  0
 30 29  1  0
 31  5  1  0
 31 36  1  0
 31 32  1  0
 32 35  1  1
 32 33  1  0
 34 32  1  0
 36 39  1  0
 37 41  1  0
 37 36  1  0
 38 37  2  0
 41 40  1  0
 43 41  1  0
 43 44  1  0
 43 42  1  0
 46 45  1  0
 46 47  1  0
 47 48  1  0
 49 58  1  0
 49 48  1  0
 50 58  1  0
 51 56  1  0
 52 53  1  0
 52 51  1  0
 54 53  1  0
 54 63  1  0
 54 55  1  0
 56 50  1  0
 56 55  1  0
 57 50  2  0
 58 59  1  0
 60 61  2  0
 61 80  1  0
 62 61  1  0
 62 65  1  0
 63 64  1  0
 63 60  1  0
 64 62  2  0
 65 66  1  0
 66 67  2  0
 68 71  1  0
 68 67  1  0
 69 68  2  0
 70 69  1  0
 70 65  2  0
 71 72  1  0
 72 73  1  0
 73 74  2  0
 75 74  1  0
 75 79  1  0
 76 75  2  0
 77 72  2  0
 77 76  1  0
 78 77  1  0
 80 81  1  0
 81 84  1  0
 81 83  1  0
 82 80  2  0
 85 86  1  0
 85 60  1  0
 87 85  1  0
M  ISO  4   3 101   4 101  50 100  58 100
M  END
>  <TORSDO>  (21) 
F 23

>  <SCORE>  (21) 
-12.462

>  <name>  (21) 
20

>  <ligand_id>  (21) 
20

>  <original_smiles>  (21) 
[H]c1c([H])c([H])c2c(c1[H])C([H])([H])C([H])([H])C([H])([H])C2([H])N([H])C(=O)C1([H])N(C(=O)C([H])(N([H])C(=O)C([H])(N([H])C([H])([H])[H])C([H])([H])[H])C(C([H])([H])[H])(C([H])([H])[H])C([H])([H])[H])C([H])([H])c2c([H])c(OC([H])([H])C([H])([H])OC([H])([H])C([H])([H])OC([H])([H])C([H])([H])N([H])C(=O)N3C([H])([H])C([H])([H])C([H])([H])C([H])(n4nc(-c5c([H])c([H])c(Oc6c([H])c([H])c(F)c([H])c6F)c([H])c5[H])c(C(=O)N([H])[H])c4N([H])[H])C3([H])[H])c([H])c([H])c2C1([H])[H]

>  <smiles>  (21) 
[H]c1c([H])c([H])c2c(c1[H])C([H])([H])C([H])([H])C([H])([H])C2([H])N([H])C(=O)C1([H])N(C(=O)C([H])(N([H])C(=O)C([H])(N([H])C([H])([H])[H])C([H])([H])[H])C(C([H])([H])[H])(C([H])([H])[H])C([H])([H])[H])C([H])([H])c2c([H])c(OC([H])([H])C([H])([H])OC([H])([H])C([H])([H])OC([H])([H])C([H])([H])N([H])C(=O)N3C([H])([H])C([H])([H])C([H])([H])C([H])(n4nc(-c5c([H])c([H])c(Oc6c([H])c([H])c(F)c([H])c6F)c([H])c5[H])c(C(=O)N([H])[H])c4N([H])[H])C3([H])[H])c([H])c([H])c2C1([H])[H]

$$$$
21:0:0
     RDKit          3D

 90 97  0  0  1  0  0  0  0  0999 V2000
  -27.8060  -22.7890   22.0570 C   0  0  0  0  0  2  0  0  0  0  0  0
  -28.1210  -23.6690   20.9800 O   0  0  0  0  0  0  0  0  0  0  0  0
  -28.3570  -25.0040   21.4180 C   0  0  0  0  0  2  0  0  0  0  0  0
  -29.0330  -25.8100   20.2920 C   0  0  0  0  0  2  0  0  0  0  0  0
  -28.9770  -27.2200   20.5330 O   0  0  0  0  0  0  0  0  0  0  0  0
  -24.8130  -32.1180   23.5430 C   0  0  0  0  0  0  0  0  0  0  0  0
  -27.7520  -27.8490   20.4980 C   0  0  0  0  0  0  0  0  0  0  0  0
  -23.7220  -30.6820   21.8480 C   0  0  0  0  0  3  0  0  0  0  0  0
  -25.2850  -29.2330   20.4560 C   0  0  0  0  0  0  0  0  0  0  0  0
  -26.2290  -31.1650   21.7290 C   0  0  0  0  0  2  0  0  0  0  0  0
  -26.3990  -29.8060   21.0820 C   0  0  0  0  0  0  0  0  0  0  0  0
  -27.6340  -29.1210   21.0980 C   0  0  0  0  0  3  0  0  0  0  0  0
  -26.6140  -27.2830   19.8740 C   0  0  0  0  0  3  0  0  0  0  0  0
  -25.3870  -27.9680   19.8540 C   0  0  0  0  0  3  0  0  0  0  0  0
  -24.0040  -30.0320   20.4680 C   0  0  0  0  0  2  0  0  0  0  0  0
  -24.9370  -31.3350   22.4330 N   0  0  0  0  0  0  0  0  0  0  0  0
  -23.7050  -32.3340   24.0530 O   0  0  0  0  0  0  0  0  0  0  0  0
  -23.0900  -29.6210   22.7760 C   0  0  0  0  0  0  0  0  0  0  0  0
  -21.7860  -29.3620   22.5830 N   0  0  0  0  0  0  0  0  0  0  0  0
  -23.7700  -29.0330   23.6190 O   0  0  0  0  0  0  0  0  0  0  0  0
  -21.2950  -29.8870   21.8700 H   0  0  0  0  0  0  0  0  0  0  0  0
  -18.4720  -27.9650   22.9140 C   0  0  0  0  0  0  0  0  0  0  0  0
  -20.9920  -28.3730   23.3120 C   0  0  0  0  0  3  0  0  0  0  0  0
  -21.2090  -26.9500   22.7440 C   0  0  0  0  0  2  0  0  0  0  0  0
  -20.1790  -26.5620   21.6760 C   0  0  0  0  0  2  0  0  0  0  0  0
  -18.7620  -26.6280   22.2540 C   0  0  0  0  0  2  0  0  0  0  0  0
  -19.5210  -28.7900   23.3990 C   0  0  0  0  0  0  0  0  0  0  0  0
  -19.2030  -30.0400   23.9710 C   0  0  0  0  0  3  0  0  0  0  0  0
  -17.8650  -30.4650   24.0730 C   0  0  0  0  0  3  0  0  0  0  0  0
  -16.8290  -29.6370   23.6090 C   0  0  0  0  0  3  0  0  0  0  0  0
  -17.1330  -28.3910   23.0320 C   0  0  0  0  0  3  0  0  0  0  0  0
  -26.0510  -32.7960   24.2080 C   0  0  0  0  0  3  0  0  0  0  0  0
  -26.4950  -32.0970   25.5500 C   0  0  1  0  0  0  0  0  0  0  0  0
  -25.3360  -31.8630   26.5460 C   0  0  0  0  0  1  0  0  0  0  0  0
  -27.1490  -30.7280   25.2540 C   0  0  0  0  0  1  0  0  0  0  0  0
  -27.5660  -32.9570   26.2590 C   0  0  0  0  0  1  0  0  0  0  0  0
  -25.7090  -34.2050   24.4420 N   0  0  0  0  0  0  0  0  0  0  0  0
  -26.0740  -35.2180   23.6420 C   0  0  0  0  0  0  0  0  0  0  0  0
  -26.8020  -35.0650   22.6570 O   0  0  0  0  0  0  0  0  0  0  0  0
  -25.0670  -34.3930   25.1980 H   0  0  0  0  0  0  0  0  0  0  0  0
  -24.3440  -36.9560   23.0900 C   0  0  0  0  0  1  0  0  0  0  0  0
  -25.5440  -36.6220   23.9910 C   0  0  0  0  0  3  0  0  0  0  0  0
  -27.6240  -37.5810   24.8740 C   0  0  0  0  0  1  0  0  0  0  0  0
  -26.5690  -37.6810   23.8690 N   0  0  0  0  0  0  0  0  0  0  0  0
  -26.1450  -38.6010   23.9460 H   0  0  0  0  0  0  0  0  0  0  0  0
  -27.4930  -21.3830   21.5210 C   0  0  0  0  0  2  0  0  0  0  0  0
  -28.6650  -20.7680   20.9950 O   0  0  0  0  0  0  0  0  0  0  0  0
  -28.3670  -19.5800   20.2660 C   0  0  0  0  0  2  0  0  0  0  0  0
  -29.6620  -18.8370   19.8940 C   0  0  0  0  0  2  0  0  0  0  0  0
  -30.0630  -17.9670   20.9490 O   0  0  0  0  0  0  0  0  0  0  0  0
  -31.4690  -17.8850   21.1710 C   0  0  0  0  0  2  0  0  0  0  0  0
  -32.1640  -16.8510   20.2700 C   0  0  0  0  0  2  0  0  0  0  0  0
  -31.9300  -14.4640   19.7030 C   0  0  0  0  0  0  0  0  0  0  0  0
  -31.3700  -12.1870   18.9420 C   0  0  0  0  0  2  0  0  0  0  0  0
  -30.3890  -12.2580   17.7560 C   0  0  0  0  0  2  0  0  0  0  0  0
  -28.9350  -12.3150   18.2570 C   0  0  0  0  0  2  0  0  0  0  0  0
  -28.7260  -13.3820   19.3650 C   0  0  0  0  0  3  0  0  0  0  0  0
  -29.8210  -13.2870   20.4530 C   0  0  0  0  0  2  0  0  0  0  0  0
  -31.1380  -13.3620   19.7950 N   0  0  0  0  0  0  0  0  0  0  0  0
  -32.9520  -14.5110   19.0150 O   0  0  0  0  0  0  0  0  0  0  0  0
  -31.5220  -15.5410   20.3790 N   0  0  0  0  0  0  0  0  0  0  0  0
  -30.6870  -15.4770   20.9440 H   0  0  0  0  0  0  0  0  0  0  0  0
  -26.5230  -14.3100   20.3180 C   0  0  0  0  0  0  0  0  0  0  0  0
  -25.3730  -13.6950   20.7340 C   0  0  0  0  0  0  0  0  0  0  0  0
  -25.5970  -12.2930   20.5790 C   0  0  0  0  0  0  0  0  0  0  0  0
  -27.3840  -13.2930   19.9390 N   0  0  0  0  0  0  0  0  0  0  0  0
  -26.8320  -12.0680   20.1490 N   0  0  0  0  0  0  0  0  0  0  0  0
  -24.6860  -11.1530   20.7540 C   0  0  0  0  0  0  0  0  0  0  0  0
  -25.0150  -10.0650   21.5910 C   0  0  0  0  0  3  0  0  0  0  0  0
  -24.1140   -8.9910   21.7570 C   0  0  0  0  0  3  0  0  0  0  0  0
  -22.8680   -9.0000   21.0880 C   0  0  0  0  0  0  0  0  0  0  0  0
  -22.5550  -10.0750   20.2360 C   0  0  0  0  0  3  0  0  0  0  0  0
  -23.4560  -11.1380   20.0660 C   0  0  0  0  0  3  0  0  0  0  0  0
  -21.9430   -7.9870   21.1680 O   0  0  0  0  0  0  0  0  0  0  0  0
  -21.8340   -7.1990   22.2860 C   0  0  0  0  0  0  0  0  0  0  0  0
  -21.5870   -7.7470   23.5640 C   0  0  0  0  0  3  0  0  0  0  0  0
  -21.4110   -6.8960   24.6730 C   0  0  0  0  0  3  0  0  0  0  0  0
  -21.4730   -5.4990   24.5060 C   0  0  0  0  0  0  0  0  0  0  0  0
  -21.7140   -4.9520   23.2340 C   0  0  0  0  0  3  0  0  0  0  0  0
  -21.8900   -5.8000   22.1260 C   0  0  0  0  0  0  0  0  0  0  0  0
  -22.1010   -5.2670   20.8980 F   0  0  0  0  0  0  0  0  0  0  0  0
  -21.2960   -4.6800   25.5700 F   0  0  0  0  0  0  0  0  0  0  0  0
  -24.1040  -14.3690   21.1660 C   0  0  0  0  0  0  0  0  0  0  0  0
  -23.3490  -13.7420   22.0620 N   0  0  0  0  0  0  0  0  0  0  0  0
  -23.7960  -15.4850   20.7480 O   0  0  0  0  0  0  0  0  0  0  0  0
  -23.6150  -12.8390   22.4260 H   0  0  0  0  0  0  0  0  0  0  0  0
  -22.4980  -14.1770   22.3890 H   0  0  0  0  0  0  0  0  0  0  0  0
  -26.9010  -15.6450   20.2170 N   0  0  0  0  0  0  0  0  0  0  0  0
  -26.2750  -16.4070   20.4510 H   0  0  0  0  0  0  0  0  0  0  0  0
  -27.7960  -15.9620   19.8690 H   0  0  0  0  0  0  0  0  0  0  0  0
  2  3  1  0
  2  1  1  0
  4  5  1  0
  4  3  1  0
  6 17  2  0
  7  5  1  0
  7 12  1  0
  8 16  1  0
  8 18  1  0
  9 15  1  0
  9 11  1  0
 10 16  1  0
 11 12  2  0
 11 10  1  0
 13  7  2  0
 14 13  1  0
 14  9  2  0
 15  8  1  0
 16  6  1  0
 18 20  2  0
 19 18  1  0
 21 19  1  0
 22 31  2  0
 22 27  1  0
 23 19  1  0
 23 27  1  0
 24 23  1  0
 25 26  1  0
 25 24  1  0
 26 22  1  0
 27 28  2  0
 28 29  1  0
 30 29  2  0
 31 30  1  0
 32  6  1  0
 32 37  1  0
 32 33  1  0
 33 36  1  1
 33 34  1  0
 35 33  1  0
 37 40  1  0
 38 42  1  0
 38 37  1  0
 39 38  2  0
 42 41  1  0
 44 45  1  0
 44 42  1  0
 44 43  1  0
 46  1  1  0
 47 46  1  0
 48 47  1  0
 49 48  1  0
 49 50  1  0
 50 51  1  0
 52 61  1  0
 52 51  1  0
 53 59  1  0
 53 61  1  0
 54 59  1  0
 55 56  1  0
 55 54  1  0
 57 56  1  0
 57 66  1  0
 57 58  1  0
 59 58  1  0
 60 53  2  0
 61 62  1  0
 63 64  2  0
 64 83  1  0
 65 64  1  0
 65 68  1  0
 66 67  1  0
 66 63  1  0
 67 65  2  0
 68 69  1  0
 69 70  2  0
 71 74  1  0
 71 70  1  0
 72 71  2  0
 73 72  1  0
 73 68  2  0
 74 75  1  0
 75 76  1  0
 76 77  2  0
 78 77  1  0
 78 82  1  0
 79 78  2  0
 80 75  2  0
 80 79  1  0
 81 80  1  0
 83 84  1  0
 84 87  1  0
 84 86  1  0
 85 83  2  0
 88 63  1  0
 88 89  1  0
 90 88  1  0
M  ISO  4   4 101   5 101  53 100  61 100
M  END
>  <TORSDO>  (22) 
F 26

>  <SCORE>  (22) 
-9.736

>  <name>  (22) 
21

>  <ligand_id>  (22) 
21

>  <original_smiles>  (22) 
[H]c1c([H])c([H])c2c(c1[H])C([H])([H])C([H])([H])C([H])([H])C2([H])N([H])C(=O)C1([H])N(C(=O)C([H])(N([H])C(=O)C([H])(N([H])C([H])([H])[H])C([H])([H])[H])C(C([H])([H])[H])(C([H])([H])[H])C([H])([H])[H])C([H])([H])c2c([H])c(OC([H])([H])C([H])([H])OC([H])([H])C([H])([H])OC([H])([H])C([H])([H])OC([H])([H])C([H])([H])N([H])C(=O)N3C([H])([H])C([H])([H])C([H])([H])C([H])(n4nc(-c5c([H])c([H])c(Oc6c([H])c([H])c(F)c([H])c6F)c([H])c5[H])c(C(=O)N([H])[H])c4N([H])[H])C3([H])[H])c([H])c([H])c2C1([H])[H]

>  <smiles>  (22) 
[H]c1c([H])c([H])c2c(c1[H])C([H])([H])C([H])([H])C([H])([H])C2([H])N([H])C(=O)C1([H])N(C(=O)C([H])(N([H])C(=O)C([H])(N([H])C([H])([H])[H])C([H])([H])[H])C(C([H])([H])[H])(C([H])([H])[H])C([H])([H])[H])C([H])([H])c2c([H])c(OC([H])([H])C([H])([H])OC([H])([H])C([H])([H])OC([H])([H])C([H])([H])OC([H])([H])C([H])([H])N([H])C(=O)N3C([H])([H])C([H])([H])C([H])([H])C([H])(n4nc(-c5c([H])c([H])c(Oc6c([H])c([H])c(F)c([H])c6F)c([H])c5[H])c(C(=O)N([H])[H])c4N([H])[H])C3([H])[H])c([H])c([H])c2C1([H])[H]

$$$$
22:0:0
     RDKit          3D

 93100  0  0  1  0  0  0  0  0999 V2000
  -25.1720  -23.3380   22.0120 O   0  0  0  0  0  0  0  0  0  0  0  0
  -26.2330  -22.5500   22.5490 C   0  0  0  0  0  2  0  0  0  0  0  0
  -27.1620  -22.1360   21.4030 C   0  0  0  0  0  2  0  0  0  0  0  0
  -27.8580  -23.2870   20.9350 O   0  0  0  0  0  0  0  0  0  0  0  0
  -28.6680  -23.0240   19.7970 C   0  0  0  0  0  2  0  0  0  0  0  0
  -29.5750  -24.2400   19.5130 C   0  0  0  0  0  2  0  0  0  0  0  0
  -30.8040  -24.2090   20.2400 O   0  0  0  0  0  0  0  0  0  0  0  0
  -31.4300  -22.9330   20.2120 C   0  0  0  0  0  2  0  0  0  0  0  0
  -32.7020  -22.9100   21.0740 C   0  0  0  0  0  2  0  0  0  0  0  0
  -33.9700  -20.7620   21.0540 C   0  0  0  0  0  0  0  0  0  0  0  0
  -34.6360  -18.4370   20.5590 C   0  0  0  0  0  2  0  0  0  0  0  0
  -34.2500  -18.0470   19.1180 C   0  0  0  0  0  2  0  0  0  0  0  0
  -32.7880  -17.5610   19.0440 C   0  0  0  0  0  2  0  0  0  0  0  0
  -31.8040  -18.5330   19.7430 C   0  0  0  0  0  3  0  0  0  0  0  0
  -32.3180  -18.8710   21.1600 C   0  0  0  0  0  2  0  0  0  0  0  0
  -33.6770  -19.4380   21.0480 N   0  0  0  0  0  0  0  0  0  0  0  0
  -35.0520  -21.2340   20.6970 O   0  0  0  0  0  0  0  0  0  0  0  0
  -32.9600  -21.5300   21.4660 N   0  0  0  0  0  0  0  0  0  0  0  0
  -32.1740  -21.0280   21.8550 H   0  0  0  0  0  0  0  0  0  0  0  0
  -29.2290  -18.6350   19.6990 C   0  0  0  0  0  0  0  0  0  0  0  0
  -28.2770  -17.6520   19.7250 C   0  0  0  0  0  0  0  0  0  0  0  0
  -28.9880  -16.4160   19.8140 C   0  0  0  0  0  0  0  0  0  0  0  0
  -30.4510  -17.9850   19.7830 N   0  0  0  0  0  0  0  0  0  0  0  0
  -30.2910  -16.6430   19.9070 N   0  0  0  0  0  0  0  0  0  0  0  0
  -28.5070  -15.0300   19.7650 C   0  0  0  0  0  0  0  0  0  0  0  0
  -28.7270  -14.1350   20.8330 C   0  0  0  0  0  3  0  0  0  0  0  0
  -28.2440  -12.8100   20.7690 C   0  0  0  0  0  3  0  0  0  0  0  0
  -27.5260  -12.3710   19.6300 C   0  0  0  0  0  0  0  0  0  0  0  0
  -27.3310  -13.2600   18.5580 C   0  0  0  0  0  3  0  0  0  0  0  0
  -27.8180  -14.5750   18.6210 C   0  0  0  0  0  3  0  0  0  0  0  0
  -27.0370  -11.0970   19.4710 O   0  0  0  0  0  0  0  0  0  0  0  0
  -26.5820  -10.3630   20.5370 C   0  0  0  0  0  0  0  0  0  0  0  0
  -25.5340  -10.8190   21.3660 C   0  0  0  0  0  3  0  0  0  0  0  0
  -25.0500   -9.9980   22.4040 C   0  0  0  0  0  3  0  0  0  0  0  0
  -25.6010   -8.7200   22.6100 C   0  0  0  0  0  0  0  0  0  0  0  0
  -26.6430   -8.2630   21.7820 C   0  0  0  0  0  3  0  0  0  0  0  0
  -27.1270   -9.0800   20.7470 C   0  0  0  0  0  0  0  0  0  0  0  0
  -28.1140   -8.6240   19.9380 F   0  0  0  0  0  0  0  0  0  0  0  0
  -25.1330   -7.9280   23.6030 F   0  0  0  0  0  0  0  0  0  0  0  0
  -26.7940  -17.8330   19.5780 C   0  0  0  0  0  0  0  0  0  0  0  0
  -26.0020  -16.9500   20.1780 N   0  0  0  0  0  0  0  0  0  0  0  0
  -26.3260  -18.7950   18.9700 O   0  0  0  0  0  0  0  0  0  0  0  0
  -26.3800  -16.1720   20.6990 H   0  0  0  0  0  0  0  0  0  0  0  0
  -24.9990  -17.0520   20.1100 H   0  0  0  0  0  0  0  0  0  0  0  0
  -29.1610  -20.0220   19.5910 N   0  0  0  0  0  0  0  0  0  0  0  0
  -28.2780  -20.4970   19.4340 H   0  0  0  0  0  0  0  0  0  0  0  0
  -29.9640  -20.6210   19.4610 H   0  0  0  0  0  0  0  0  0  0  0  0
  -24.9040  -24.5320   22.7430 C   0  0  0  0  0  2  0  0  0  0  0  0
  -26.0460  -25.5490   22.5820 C   0  0  0  0  0  2  0  0  0  0  0  0
  -26.3250  -25.7290   21.1990 O   0  0  0  0  0  0  0  0  0  0  0  0
  -27.7110  -25.8930   20.9330 C   0  0  0  0  0  2  0  0  0  0  0  0
  -27.9270  -26.4910   19.5320 C   0  0  0  0  0  2  0  0  0  0  0  0
  -27.9490  -27.9210   19.5800 O   0  0  0  0  0  0  0  0  0  0  0  0
  -24.5820  -32.4860   23.8510 C   0  0  0  0  0  0  0  0  0  0  0  0
  -26.7770  -28.6050   19.8200 C   0  0  0  0  0  0  0  0  0  0  0  0
  -23.1840  -31.4170   22.1130 C   0  0  0  0  0  3  0  0  0  0  0  0
  -24.4440  -30.1210   20.3180 C   0  0  0  0  0  0  0  0  0  0  0  0
  -25.6910  -31.7550   21.7440 C   0  0  0  0  0  2  0  0  0  0  0  0
  -25.6680  -30.5160   20.8720 C   0  0  0  0  0  0  0  0  0  0  0  0
  -26.8360  -29.7680   20.6170 C   0  0  0  0  0  3  0  0  0  0  0  0
  -25.5330  -28.2160   19.2720 C   0  0  0  0  0  3  0  0  0  0  0  0
  -24.3700  -28.9690   19.5180 C   0  0  0  0  0  3  0  0  0  0  0  0
  -23.2430  -30.9840   20.6240 C   0  0  0  0  0  2  0  0  0  0  0  0
  -24.5100  -31.8890   22.6270 N   0  0  0  0  0  0  0  0  0  0  0  0
  -23.5650  -32.6820   24.5290 O   0  0  0  0  0  0  0  0  0  0  0  0
  -22.5850  -30.2560   22.9400 C   0  0  0  0  0  0  0  0  0  0  0  0
  -21.2770  -30.0070   22.7620 N   0  0  0  0  0  0  0  0  0  0  0  0
  -23.2940  -29.5870   23.6960 O   0  0  0  0  0  0  0  0  0  0  0  0
  -20.7650  -30.6070   22.1320 H   0  0  0  0  0  0  0  0  0  0  0  0
  -18.0310  -28.4260   22.8830 C   0  0  0  0  0  0  0  0  0  0  0  0
  -20.5100  -28.9410   23.4050 C   0  0  0  0  0  3  0  0  0  0  0  0
  -20.8240  -27.5670   22.7700 C   0  0  0  0  0  2  0  0  0  0  0  0
  -19.8570  -27.1890   21.6430 C   0  0  0  0  0  2  0  0  0  0  0  0
  -18.4170  -27.1460   22.1610 C   0  0  0  0  0  2  0  0  0  0  0  0
  -19.0150  -29.2770   23.4520 C   0  0  0  0  0  0  0  0  0  0  0  0
  -18.6040  -30.4740   24.0810 C   0  0  0  0  0  3  0  0  0  0  0  0
  -17.2410  -30.8200   24.1480 C   0  0  0  0  0  3  0  0  0  0  0  0
  -16.2710  -29.9670   23.5960 C   0  0  0  0  0  3  0  0  0  0  0  0
  -16.6660  -28.7710   22.9690 C   0  0  0  0  0  3  0  0  0  0  0  0
  -25.9420  -32.9700   24.4450 C   0  0  0  0  0  3  0  0  0  0  0  0
  -26.4700  -32.0580   25.6190 C   0  0  1  0  0  0  0  0  0  0  0  0
  -25.4150  -31.7830   26.7150 C   0  0  0  0  0  1  0  0  0  0  0  0
  -26.9540  -30.6940   25.0750 C   0  0  0  0  0  1  0  0  0  0  0  0
  -27.6960  -32.7260   26.2880 C   0  0  0  0  0  1  0  0  0  0  0  0
  -25.7540  -34.3520   24.9040 N   0  0  0  0  0  0  0  0  0  0  0  0
  -26.1440  -35.4400   24.2250 C   0  0  0  0  0  0  0  0  0  0  0  0
  -26.7700  -35.3760   23.1640 O   0  0  0  0  0  0  0  0  0  0  0  0
  -25.2020  -34.4810   25.7390 H   0  0  0  0  0  0  0  0  0  0  0  0
  -24.5540  -37.3820   24.0820 C   0  0  0  0  0  1  0  0  0  0  0  0
  -25.7800  -36.8150   24.8160 C   0  0  0  0  0  3  0  0  0  0  0  0
  -27.9990  -37.4550   25.6470 C   0  0  0  0  0  1  0  0  0  0  0  0
  -26.8890  -37.7920   24.7600 N   0  0  0  0  0  0  0  0  0  0  0  0
  -26.5620  -38.7240   25.0000 H   0  0  0  0  0  0  0  0  0  0  0  0
  1  2  1  0
  1 48  1  0
  3  2  1  0
  4  3  1  0
  5  4  1  0
  6  5  1  0
  6  7  1  0
  8  7  1  0
  8  9  1  0
  9 18  1  0
 10 18  1  0
 11 16  1  0
 12 11  1  0
 13 12  1  0
 14 13  1  0
 14 23  1  0
 14 15  1  0
 16 10  1  0
 16 15  1  0
 17 10  2  0
 18 19  1  0
 20 21  2  0
 20 23  1  0
 21 22  1  0
 22 24  2  0
 23 24  1  0
 25 22  1  0
 25 26  1  0
 27 26  2  0
 28 27  1  0
 29 30  1  0
 29 28  2  0
 30 25  2  0
 31 28  1  0
 31 32  1  0
 32 37  2  0
 32 33  1  0
 33 34  2  0
 34 35  1  0
 35 39  1  0
 36 35  2  0
 37 36  1  0
 38 37  1  0
 40 21  1  0
 40 41  1  0
 41 43  1  0
 42 40  2  0
 44 41  1  0
 45 20  1  0
 46 45  1  0
 47 45  1  0
 49 48  1  0
 50 49  1  0
 51 50  1  0
 52 53  1  0
 52 51  1  0
 53 55  1  0
 54 65  2  0
 55 60  1  0
 56 64  1  0
 56 66  1  0
 57 63  1  0
 57 59  1  0
 58 64  1  0
 59 58  1  0
 60 59  2  0
 61 62  1  0
 61 55  2  0
 62 57  2  0
 63 56  1  0
 64 54  1  0
 66 68  2  0
 67 66  1  0
 69 67  1  0
 70 79  2  0
 70 75  1  0
 71 67  1  0
 71 75  1  0
 72 71  1  0
 73 74  1  0
 73 72  1  0
 74 70  1  0
 75 76  2  0
 76 77  1  0
 78 77  2  0
 79 78  1  0
 80 54  1  0
 80 85  1  0
 80 81  1  0
 81 84  1  1
 81 82  1  0
 83 81  1  0
 85 88  1  0
 86 90  1  0
 86 85  1  0
 87 86  2  0
 90 89  1  0
 92 90  1  0
 92 93  1  0
 92 91  1  0
M  ISO  4  10 100  18 100  52 101  53 101
M  END
>  <TORSDO>  (23) 
F 29

>  <SCORE>  (23) 
-2.990

>  <name>  (23) 
22

>  <ligand_id>  (23) 
22

>  <original_smiles>  (23) 
[H]c1c([H])c([H])c2c(c1[H])C([H])([H])C([H])([H])C([H])([H])C2([H])N([H])C(=O)C1([H])N(C(=O)C([H])(N([H])C(=O)C([H])(N([H])C([H])([H])[H])C([H])([H])[H])C(C([H])([H])[H])(C([H])([H])[H])C([H])([H])[H])C([H])([H])c2c([H])c(OC([H])([H])C([H])([H])OC([H])([H])C([H])([H])OC([H])([H])C([H])([H])OC([H])([H])C([H])([H])OC([H])([H])C([H])([H])N([H])C(=O)N3C([H])([H])C([H])([H])C([H])([H])C([H])(n4nc(-c5c([H])c([H])c(Oc6c([H])c([H])c(F)c([H])c6F)c([H])c5[H])c(C(=O)N([H])[H])c4N([H])[H])C3([H])[H])c([H])c([H])c2C1([H])[H]

>  <smiles>  (23) 
[H]c1c([H])c([H])c2c(c1[H])C([H])([H])C([H])([H])C([H])([H])C2([H])N([H])C(=O)C1([H])N(C(=O)C([H])(N([H])C(=O)C([H])(N([H])C([H])([H])[H])C([H])([H])[H])C(C([H])([H])[H])(C([H])([H])[H])C([H])([H])[H])C([H])([H])c2c([H])c(OC([H])([H])C([H])([H])OC([H])([H])C([H])([H])OC([H])([H])C([H])([H])OC([H])([H])C([H])([H])OC([H])([H])C([H])([H])N([H])C(=O)N3C([H])([H])C([H])([H])C([H])([H])C([H])(n4nc(-c5c([H])c([H])c(Oc6c([H])c([H])c(F)c([H])c6F)c([H])c5[H])c(C(=O)N([H])[H])c4N([H])[H])C3([H])[H])c([H])c([H])c2C1([H])[H]

$$$$
23:0:0
     RDKit          3D

 99106  0  0  1  0  0  0  0  0999 V2000
  -28.9430  -22.6400   24.7390 O   0  0  0  0  0  0  0  0  0  0  0  0
  -30.2130  -22.3830   24.1490 C   0  0  0  0  0  2  0  0  0  0  0  0
  -30.0480  -21.3780   23.0030 C   0  0  0  0  0  2  0  0  0  0  0  0
  -29.6180  -22.0040   21.7980 O   0  0  0  0  0  0  0  0  0  0  0  0
  -29.4360  -21.0750   20.7290 C   0  0  0  0  0  2  0  0  0  0  0  0
  -30.5930  -21.1460   19.7210 C   0  0  0  0  0  2  0  0  0  0  0  0
  -31.7720  -20.5270   20.2290 O   0  0  0  0  0  0  0  0  0  0  0  0
  -32.2070  -19.3530   19.5440 C   0  0  0  0  0  2  0  0  0  0  0  0
  -32.0750  -18.0760   20.3920 C   0  0  0  0  0  2  0  0  0  0  0  0
  -30.8490  -17.4000   20.1210 O   0  0  0  0  0  0  0  0  0  0  0  0
  -30.3920  -16.5910   21.2000 C   0  0  0  0  0  2  0  0  0  0  0  0
  -31.3670  -15.4680   21.6190 C   0  0  0  0  0  2  0  0  0  0  0  0
  -31.3760  -13.0510   21.0230 C   0  0  0  0  0  0  0  0  0  0  0  0
  -30.9250  -10.9150   19.8880 C   0  0  0  0  0  2  0  0  0  0  0  0
  -30.1680  -11.1990   18.5750 C   0  0  0  0  0  2  0  0  0  0  0  0
  -28.6500  -11.2650   18.8200 C   0  0  0  0  0  2  0  0  0  0  0  0
  -28.2750  -12.1900   20.0070 C   0  0  0  0  0  3  0  0  0  0  0  0
  -29.1510  -11.8880   21.2420 C   0  0  0  0  0  2  0  0  0  0  0  0
  -30.5660  -11.9780   20.8360 N   0  0  0  0  0  0  0  0  0  0  0  0
  -32.5680  -13.0770   20.7160 O   0  0  0  0  0  0  0  0  0  0  0  0
  -30.7500  -14.1570   21.4280 N   0  0  0  0  0  0  0  0  0  0  0  0
  -29.7560  -14.0830   21.5620 H   0  0  0  0  0  0  0  0  0  0  0  0
  -25.8960  -13.1150   20.3390 C   0  0  0  0  0  0  0  0  0  0  0  0
  -24.7030  -12.4990   20.6060 C   0  0  0  0  0  0  0  0  0  0  0  0
  -24.9980  -11.1050   20.7280 C   0  0  0  0  0  0  0  0  0  0  0  0
  -26.8490  -12.1080   20.3180 N   0  0  0  0  0  0  0  0  0  0  0  0
  -26.3030  -10.8990   20.6090 N   0  0  0  0  0  0  0  0  0  0  0  0
  -24.1070   -9.9500   20.8980 C   0  0  0  0  0  0  0  0  0  0  0  0
  -24.3210   -9.0040   21.9250 C   0  0  0  0  0  3  0  0  0  0  0  0
  -23.4450   -7.9090   22.0810 C   0  0  0  0  0  3  0  0  0  0  0  0
  -22.3420   -7.7530   21.2080 C   0  0  0  0  0  0  0  0  0  0  0  0
  -22.1480   -8.6840   20.1730 C   0  0  0  0  0  3  0  0  0  0  0  0
  -23.0220   -9.7730   20.0170 C   0  0  0  0  0  3  0  0  0  0  0  0
  -21.4530   -6.7070   21.2690 O   0  0  0  0  0  0  0  0  0  0  0  0
  -21.1370   -6.0970   22.4570 C   0  0  0  0  0  0  0  0  0  0  0  0
  -20.6050   -6.8180   23.5480 C   0  0  0  0  0  3  0  0  0  0  0  0
  -20.2300   -6.1390   24.7250 C   0  0  0  0  0  3  0  0  0  0  0  0
  -20.3750   -4.7410   24.8100 C   0  0  0  0  0  0  0  0  0  0  0  0
  -20.8980   -4.0200   23.7200 C   0  0  0  0  0  3  0  0  0  0  0  0
  -21.2730   -4.6970   22.5460 C   0  0  0  0  0  0  0  0  0  0  0  0
  -21.7560   -3.9950   21.4930 F   0  0  0  0  0  0  0  0  0  0  0  0
  -20.0090   -4.0860   25.9340 F   0  0  0  0  0  0  0  0  0  0  0  0
  -23.3470  -13.1440   20.6490 C   0  0  0  0  0  0  0  0  0  0  0  0
  -22.4540  -12.6310   21.4870 N   0  0  0  0  0  0  0  0  0  0  0  0
  -23.0870  -14.1370   19.9710 O   0  0  0  0  0  0  0  0  0  0  0  0
  -22.6810  -11.8280   22.0580 H   0  0  0  0  0  0  0  0  0  0  0  0
  -21.5320  -13.0370   21.5560 H   0  0  0  0  0  0  0  0  0  0  0  0
  -26.2560  -14.4380   20.0940 N   0  0  0  0  0  0  0  0  0  0  0  0
  -25.5830  -15.1940   20.0430 H   0  0  0  0  0  0  0  0  0  0  0  0
  -27.1920  -14.7260   19.8350 H   0  0  0  0  0  0  0  0  0  0  0  0
  -28.9670  -23.6100   25.7830 C   0  0  0  0  0  2  0  0  0  0  0  0
  -29.3550  -25.0040   25.2680 C   0  0  0  0  0  2  0  0  0  0  0  0
  -28.1600  -25.7660   25.1990 O   0  0  0  0  0  0  0  0  0  0  0  0
  -28.0690  -26.6390   24.0830 C   0  0  0  0  0  2  0  0  0  0  0  0
  -27.2370  -26.0210   22.9440 C   0  0  0  0  0  2  0  0  0  0  0  0
  -28.0650  -25.6310   21.8440 O   0  0  0  0  0  0  0  0  0  0  0  0
  -27.3580  -25.7180   20.6090 C   0  0  0  0  0  2  0  0  0  0  0  0
  -28.2790  -25.7320   19.3560 C   0  0  0  0  0  2  0  0  0  0  0  0
  -27.6700  -26.2880   18.1730 O   0  0  0  0  0  0  0  0  0  0  0  0
  -24.8390  -30.8730   22.7850 C   0  0  0  0  0  0  0  0  0  0  0  0
  -26.6450  -27.1620   18.4330 C   0  0  0  0  0  0  0  0  0  0  0  0
  -23.3110  -29.9900   21.0520 C   0  0  0  0  0  3  0  0  0  0  0  0
  -24.4230  -28.7510   19.1170 C   0  0  0  0  0  0  0  0  0  0  0  0
  -25.8130  -30.2230   20.5880 C   0  0  0  0  0  2  0  0  0  0  0  0
  -25.6870  -29.0460   19.6460 C   0  0  0  0  0  0  0  0  0  0  0  0
  -26.8050  -28.2530   19.3110 C   0  0  0  0  0  3  0  0  0  0  0  0
  -25.3750  -26.8820   17.8880 C   0  0  0  0  0  3  0  0  0  0  0  0
  -24.2580  -27.6640   18.2390 C   0  0  0  0  0  3  0  0  0  0  0  0
  -23.2770  -29.6430   19.5400 C   0  0  0  0  0  2  0  0  0  0  0  0
  -24.6810  -30.3600   21.5330 N   0  0  0  0  0  0  0  0  0  0  0  0
  -23.8650  -31.0760   23.5220 O   0  0  0  0  0  0  0  0  0  0  0  0
  -22.6840  -28.8150   21.8390 C   0  0  0  0  0  0  0  0  0  0  0  0
  -21.3520  -28.6800   21.7510 N   0  0  0  0  0  0  0  0  0  0  0  0
  -23.3910  -28.0350   22.4820 O   0  0  0  0  0  0  0  0  0  0  0  0
  -20.8440  -29.3560   21.1980 H   0  0  0  0  0  0  0  0  0  0  0  0
  -18.0020  -27.3660   22.0450 C   0  0  0  0  0  0  0  0  0  0  0  0
  -20.5520  -27.6280   22.3750 C   0  0  0  0  0  3  0  0  0  0  0  0
  -20.6890  -26.2960   21.6010 C   0  0  0  0  0  2  0  0  0  0  0  0
  -19.5990  -26.1010   20.5420 C   0  0  0  0  0  2  0  0  0  0  0  0
  -18.2090  -26.1290   21.1870 C   0  0  0  0  0  2  0  0  0  0  0  0
  -19.1010  -28.0780   22.5890 C   0  0  0  0  0  0  0  0  0  0  0  0
  -18.8550  -29.2430   23.3490 C   0  0  0  0  0  3  0  0  0  0  0  0
  -17.5390  -29.6930   23.5710 C   0  0  0  0  0  3  0  0  0  0  0  0
  -16.4550  -28.9720   23.0450 C   0  0  0  0  0  3  0  0  0  0  0  0
  -16.6840  -27.8110   22.2860 C   0  0  0  0  0  3  0  0  0  0  0  0
  -26.2470  -31.2500   23.3430 C   0  0  0  0  0  3  0  0  0  0  0  0
  -26.1540  -32.6090   23.8900 N   0  0  0  0  0  0  0  0  0  0  0  0
  -26.6170  -33.7090   23.2830 C   0  0  0  0  0  0  0  0  0  0  0  0
  -27.2380  -33.6730   22.2170 O   0  0  0  0  0  0  0  0  0  0  0  0
  -25.6090  -32.7190   24.7320 H   0  0  0  0  0  0  0  0  0  0  0  0
  -25.1850  -35.7770   23.2610 C   0  0  0  0  0  1  0  0  0  0  0  0
  -26.3510  -35.0650   23.9670 C   0  0  0  0  0  3  0  0  0  0  0  0
  -28.6010  -35.4670   24.8630 C   0  0  0  0  0  1  0  0  0  0  0  0
  -27.5330  -35.9530   23.9910 N   0  0  0  0  0  0  0  0  0  0  0  0
  -27.2770  -36.8880   24.2960 H   0  0  0  0  0  0  0  0  0  0  0  0
  -26.7710  -30.2400   24.4360 C   0  0  1  0  0  0  0  0  0  0  0  0
  -25.7480  -29.9520   25.5600 C   0  0  0  0  0  1  0  0  0  0  0  0
  -27.1510  -28.8870   23.7890 C   0  0  0  0  0  1  0  0  0  0  0  0
  -28.0530  -30.8000   25.0960 C   0  0  0  0  0  1  0  0  0  0  0  0
  1 51  1  0
  2  1  1  0
  3  2  1  0
  4  3  1  0
  5  4  1  0
  6  7  1  0
  6  5  1  0
  8  7  1  0
  8  9  1  0
 10  9  1  0
 10 11  1  0
 11 12  1  0
 13 21  1  0
 14 19  1  0
 15 16  1  0
 15 14  1  0
 17 16  1  0
 17 26  1  0
 17 18  1  0
 19 13  1  0
 19 18  1  0
 20 13  2  0
 21 22  1  0
 21 12  1  0
 23 24  2  0
 24 43  1  0
 24 25  1  0
 25 28  1  0
 26 23  1  0
 26 27  1  0
 27 25  2  0
 28 29  1  0
 29 30  2  0
 31 34  1  0
 31 30  1  0
 32 31  2  0
 33 32  1  0
 33 28  2  0
 34 35  1  0
 35 40  2  0
 35 36  1  0
 36 37  2  0
 37 38  1  0
 38 42  1  0
 39 38  2  0
 40 39  1  0
 41 40  1  0
 43 44  1  0
 44 47  1  0
 44 46  1  0
 45 43  2  0
 48 23  1  0
 49 48  1  0
 50 48  1  0
 52 51  1  0
 53 52  1  0
 54 53  1  0
 55 54  1  0
 56 55  1  0
 57 56  1  0
 58 57  1  0
 59 61  1  0
 59 58  1  0
 60 71  2  0
 61 66  1  0
 62 70  1  0
 62 72  1  0
 63 69  1  0
 63 65  1  0
 64 70  1  0
 65 64  1  0
 66 65  2  0
 67 68  1  0
 67 61  2  0
 68 63  2  0
 69 62  1  0
 70 60  1  0
 72 74  2  0
 73 72  1  0
 75 73  1  0
 76 85  2  0
 76 81  1  0
 77 73  1  0
 77 81  1  0
 78 77  1  0
 79 80  1  0
 79 78  1  0
 80 76  1  0
 81 82  2  0
 82 83  1  0
 84 83  2  0
 85 84  1  0
 86 60  1  0
 86 87  1  0
 86 96  1  0
 87 90  1  0
 88 87  1  0
 88 92  1  0
 89 88  2  0
 92 91  1  0
 92 94  1  0
 94 95  1  0
 94 93  1  0
 96 99  1  1
 96 97  1  0
 98 96  1  0
M  ISO  4  13 100  21 100  58 101  59 101
M  END
>  <TORSDO>  (24) 
F 35

>  <SCORE>  (24) 
-3.476

>  <name>  (24) 
23

>  <ligand_id>  (24) 
23

>  <original_smiles>  (24) 
[H]c1c([H])c([H])c2c(c1[H])C([H])([H])C([H])([H])C([H])([H])C2([H])N([H])C(=O)C1([H])N(C(=O)C([H])(N([H])C(=O)C([H])(N([H])C([H])([H])[H])C([H])([H])[H])C(C([H])([H])[H])(C([H])([H])[H])C([H])([H])[H])C([H])([H])c2c([H])c(OC([H])([H])C([H])([H])OC([H])([H])C([H])([H])OC([H])([H])C([H])([H])OC([H])([H])C([H])([H])OC([H])([H])C([H])([H])OC([H])([H])C([H])([H])OC([H])([H])C([H])([H])N([H])C(=O)N3C([H])([H])C([H])([H])C([H])([H])C([H])(n4nc(-c5c([H])c([H])c(Oc6c([H])c([H])c(F)c([H])c6F)c([H])c5[H])c(C(=O)N([H])[H])c4N([H])[H])C3([H])[H])c([H])c([H])c2C1([H])[H]

>  <smiles>  (24) 
[H]c1c([H])c([H])c2c(c1[H])C([H])([H])C([H])([H])C([H])([H])C2([H])N([H])C(=O)C1([H])N(C(=O)C([H])(N([H])C(=O)C([H])(N([H])C([H])([H])[H])C([H])([H])[H])C(C([H])([H])[H])(C([H])([H])[H])C([H])([H])[H])C([H])([H])c2c([H])c(OC([H])([H])C([H])([H])OC([H])([H])C([H])([H])OC([H])([H])C([H])([H])OC([H])([H])C([H])([H])OC([H])([H])C([H])([H])OC([H])([H])C([H])([H])OC([H])([H])C([H])([H])N([H])C(=O)N3C([H])([H])C([H])([H])C([H])([H])C([H])(n4nc(-c5c([H])c([H])c(Oc6c([H])c([H])c(F)c([H])c6F)c([H])c5[H])c(C(=O)N([H])[H])c4N([H])[H])C3([H])[H])c([H])c([H])c2C1([H])[H]

$$$$
24:0:0
     RDKit          3D

 91 98  0  0  1  0  0  0  0  0999 V2000
  -31.5490  -23.0530   17.4200 C   0  0  0  0  0  2  0  0  0  0  0  0
  -31.6700  -21.9010   18.2500 O   0  0  0  0  0  0  0  0  0  0  0  0
  -31.9720  -22.1720   19.6160 C   0  0  0  0  0  2  0  0  0  0  0  0
  -31.1020  -21.2770   20.5060 C   0  0  0  0  0  2  0  0  0  0  0  0
  -31.5190  -19.9160   20.4120 O   0  0  0  0  0  0  0  0  0  0  0  0
  -30.5680  -19.0420   21.0070 C   0  0  0  0  0  2  0  0  0  0  0  0
  -31.0100  -17.5700   20.9260 C   0  0  0  0  0  2  0  0  0  0  0  0
  -29.8030  -16.6500   21.1940 C   0  0  0  0  0  2  0  0  0  0  0  0
  -30.6810  -14.3920   20.5050 C   0  0  0  0  0  0  0  0  0  0  0  0
  -30.3640  -12.3100   19.2230 C   0  0  0  0  0  2  0  0  0  0  0  0
  -29.3990  -12.5980   18.0540 C   0  0  0  0  0  2  0  0  0  0  0  0
  -27.9280  -12.4710   18.5020 C   0  0  0  0  0  2  0  0  0  0  0  0
  -27.6290  -13.2520   19.8090 C   0  0  0  0  0  3  0  0  0  0  0  0
  -28.6870  -12.9010   20.8800 C   0  0  0  0  0  2  0  0  0  0  0  0
  -30.0240  -13.2170   20.3300 N   0  0  0  0  0  0  0  0  0  0  0  0
  -31.7000  -14.7090   19.8820 O   0  0  0  0  0  0  0  0  0  0  0  0
  -30.0680  -15.2200   21.3590 N   0  0  0  0  0  0  0  0  0  0  0  0
  -29.3820  -14.7470   21.9270 H   0  0  0  0  0  0  0  0  0  0  0  0
  -25.2330  -13.8880   20.5210 C   0  0  0  0  0  0  0  0  0  0  0  0
  -24.1590  -13.1250   20.8930 C   0  0  0  0  0  0  0  0  0  0  0  0
  -24.6050  -11.7680   20.8490 C   0  0  0  0  0  0  0  0  0  0  0  0
  -26.2710  -12.9970   20.2830 N   0  0  0  0  0  0  0  0  0  0  0  0
  -25.8910  -11.7160   20.5300 N   0  0  0  0  0  0  0  0  0  0  0  0
  -23.8680  -10.5120   21.0370 C   0  0  0  0  0  0  0  0  0  0  0  0
  -24.3220   -9.5200   21.9330 C   0  0  0  0  0  3  0  0  0  0  0  0
  -23.5890   -8.3260   22.1100 C   0  0  0  0  0  3  0  0  0  0  0  0
  -22.3870   -8.1190   21.3910 C   0  0  0  0  0  0  0  0  0  0  0  0
  -21.9520   -9.1010   20.4830 C   0  0  0  0  0  3  0  0  0  0  0  0
  -22.6860  -10.2850   20.3050 C   0  0  0  0  0  3  0  0  0  0  0  0
  -21.6220   -6.9800   21.4790 O   0  0  0  0  0  0  0  0  0  0  0  0
  -21.6270   -6.1950   22.6040 C   0  0  0  0  0  0  0  0  0  0  0  0
  -21.3000   -6.7120   23.8760 C   0  0  0  0  0  3  0  0  0  0  0  0
  -21.2520   -5.8550   24.9930 C   0  0  0  0  0  3  0  0  0  0  0  0
  -21.5180   -4.4820   24.8400 C   0  0  0  0  0  0  0  0  0  0  0  0
  -21.8380   -3.9630   23.5720 C   0  0  0  0  0  3  0  0  0  0  0  0
  -21.8900   -4.8180   22.4580 C   0  0  0  0  0  0  0  0  0  0  0  0
  -22.1780   -4.3100   21.2350 F   0  0  0  0  0  0  0  0  0  0  0  0
  -21.4640   -3.6560   25.9120 F   0  0  0  0  0  0  0  0  0  0  0  0
  -22.7690  -13.6130   21.1840 C   0  0  0  0  0  0  0  0  0  0  0  0
  -22.0440  -12.9170   22.0530 N   0  0  0  0  0  0  0  0  0  0  0  0
  -22.3320  -14.6450   20.6760 O   0  0  0  0  0  0  0  0  0  0  0  0
  -22.4090  -12.0820   22.4880 H   0  0  0  0  0  0  0  0  0  0  0  0
  -21.1100  -13.2230   22.2880 H   0  0  0  0  0  0  0  0  0  0  0  0
  -25.4120  -15.2580   20.3500 N   0  0  0  0  0  0  0  0  0  0  0  0
  -24.6550  -15.9230   20.4680 H   0  0  0  0  0  0  0  0  0  0  0  0
  -26.2710  -15.6880   20.0320 H   0  0  0  0  0  0  0  0  0  0  0  0
  -30.1060  -23.5900   17.4430 C   0  0  0  0  0  2  0  0  0  0  0  0
  -29.8700  -24.3150   18.6410 O   0  0  0  0  0  0  0  0  0  0  0  0
  -28.5020  -24.6470   18.8320 C   0  0  0  0  0  2  0  0  0  0  0  0
  -28.3400  -25.3180   20.2060 C   0  0  0  0  0  2  0  0  0  0  0  0
  -28.4240  -26.7420   20.1230 O   0  0  0  0  0  0  0  0  0  0  0  0
  -24.6140  -31.8640   23.2190 C   0  0  0  0  0  0  0  0  0  0  0  0
  -27.2370  -27.4390   20.1150 C   0  0  0  0  0  0  0  0  0  0  0  0
  -23.3940  -30.4610   21.5870 C   0  0  0  0  0  3  0  0  0  0  0  0
  -24.8350  -28.9260   20.1490 C   0  0  0  0  0  0  0  0  0  0  0  0
  -25.9170  -30.8240   21.3690 C   0  0  0  0  0  2  0  0  0  0  0  0
  -25.9960  -29.4550   20.7280 C   0  0  0  0  0  0  0  0  0  0  0  0
  -27.1990  -28.7200   20.7050 C   0  0  0  0  0  3  0  0  0  0  0  0
  -26.0560  -26.9200   19.5320 C   0  0  0  0  0  3  0  0  0  0  0  0
  -24.8600  -27.6570   19.5480 C   0  0  0  0  0  3  0  0  0  0  0  0
  -23.5920  -29.7820   20.2060 C   0  0  0  0  0  2  0  0  0  0  0  0
  -24.6600  -31.0640   22.1160 N   0  0  0  0  0  0  0  0  0  0  0  0
  -23.5360  -32.1390   23.7660 O   0  0  0  0  0  0  0  0  0  0  0  0
  -22.7510  -29.4390   22.5520 C   0  0  0  0  0  0  0  0  0  0  0  0
  -21.4250  -29.2600   22.4330 N   0  0  0  0  0  0  0  0  0  0  0  0
  -23.4390  -28.8130   23.3610 O   0  0  0  0  0  0  0  0  0  0  0  0
  -20.9330  -29.8170   21.7490 H   0  0  0  0  0  0  0  0  0  0  0  0
  -18.0520  -28.0750   22.9450 C   0  0  0  0  0  0  0  0  0  0  0  0
  -20.6110  -28.3260   23.2080 C   0  0  0  0  0  3  0  0  0  0  0  0
  -20.7100  -26.8940   22.6350 C   0  0  0  0  0  2  0  0  0  0  0  0
  -19.6030  -26.5730   21.6250 C   0  0  0  0  0  2  0  0  0  0  0  0
  -18.2230  -26.7230   22.2730 C   0  0  0  0  0  2  0  0  0  0  0  0
  -19.1750  -28.8350   23.3710 C   0  0  0  0  0  0  0  0  0  0  0  0
  -18.9620  -30.1010   23.9580 C   0  0  0  0  0  3  0  0  0  0  0  0
  -17.6600  -30.6060   24.1280 C   0  0  0  0  0  3  0  0  0  0  0  0
  -16.5510  -29.8440   23.7180 C   0  0  0  0  0  3  0  0  0  0  0  0
  -16.7500  -28.5800   23.1340 C   0  0  0  0  0  3  0  0  0  0  0  0
  -25.9060  -32.4900   23.8300 C   0  0  0  0  0  3  0  0  0  0  0  0
  -26.4410  -31.7060   25.0900 C   0  0  1  0  0  0  0  0  0  0  0  0
  -25.3630  -31.4580   26.1700 C   0  0  0  0  0  1  0  0  0  0  0  0
  -27.0180  -30.3330   24.6730 C   0  0  0  0  0  1  0  0  0  0  0  0
  -27.6010  -32.4950   25.7430 C   0  0  0  0  0  1  0  0  0  0  0  0
  -25.6020  -33.8850   24.1730 N   0  0  0  0  0  0  0  0  0  0  0  0
  -25.9300  -34.9410   23.4170 C   0  0  0  0  0  0  0  0  0  0  0  0
  -26.5920  -34.8440   22.3800 O   0  0  0  0  0  0  0  0  0  0  0  0
  -25.0140  -34.0360   24.9790 H   0  0  0  0  0  0  0  0  0  0  0  0
  -24.1950  -36.7320   23.0880 C   0  0  0  0  0  1  0  0  0  0  0  0
  -25.4440  -36.3260   23.8860 C   0  0  0  0  0  3  0  0  0  0  0  0
  -27.5860  -37.2040   24.7020 C   0  0  0  0  0  1  0  0  0  0  0  0
  -26.4740  -37.3810   23.7710 N   0  0  0  0  0  0  0  0  0  0  0  0
  -26.0700  -38.2990   23.9320 H   0  0  0  0  0  0  0  0  0  0  0  0
  1 47  1  0
  1  2  1  0
  2  3  1  0
  3  4  1  0
  5  4  1  0
  5  6  1  0
  7  6  1  0
  7  8  1  0
  8 17  1  0
  9 17  1  0
 10 15  1  0
 11 12  1  0
 11 10  1  0
 13 12  1  0
 13 22  1  0
 13 14  1  0
 15  9  1  0
 15 14  1  0
 16  9  2  0
 17 18  1  0
 19 20  2  0
 20 39  1  0
 21 20  1  0
 21 24  1  0
 22 19  1  0
 22 23  1  0
 23 21  2  0
 24 25  1  0
 25 26  2  0
 27 30  1  0
 27 26  1  0
 28 27  2  0
 29 28  1  0
 29 24  2  0
 30 31  1  0
 31 32  1  0
 32 33  2  0
 34 33  1  0
 34 38  1  0
 35 34  2  0
 36 31  2  0
 36 35  1  0
 37 36  1  0
 39 40  1  0
 40 43  1  0
 40 42  1  0
 41 39  2  0
 44 45  1  0
 44 19  1  0
 46 44  1  0
 47 48  1  0
 48 49  1  0
 49 50  1  0
 51 50  1  0
 52 63  2  0
 53 51  1  0
 53 58  1  0
 54 62  1  0
 54 64  1  0
 55 61  1  0
 55 57  1  0
 56 62  1  0
 57 56  1  0
 58 57  2  0
 59 60  1  0
 59 53  2  0
 60 55  2  0
 61 54  1  0
 62 52  1  0
 64 66  2  0
 65 64  1  0
 67 65  1  0
 68 77  2  0
 68 73  1  0
 69 65  1  0
 69 73  1  0
 70 69  1  0
 71 72  1  0
 71 70  1  0
 72 68  1  0
 73 74  2  0
 74 75  1  0
 76 75  2  0
 77 76  1  0
 78 52  1  0
 78 83  1  0
 78 79  1  0
 79 82  1  1
 79 80  1  0
 81 79  1  0
 83 86  1  0
 84 88  1  0
 84 83  1  0
 85 84  2  0
 88 87  1  0
 90 88  1  0
 90 91  1  0
 90 89  1  0
M  ISO  4   9 100  17 100  50 101  51 101
M  END
>  <TORSDO>  (25) 
F 27

>  <SCORE>  (25) 
-11.534

>  <name>  (25) 
24

>  <ligand_id>  (25) 
24

>  <original_smiles>  (25) 
[H]c1c([H])c([H])c2c(c1[H])C([H])([H])C([H])([H])C([H])([H])C2([H])N([H])C(=O)C1([H])N(C(=O)C([H])(N([H])C(=O)C([H])(N([H])C([H])([H])[H])C([H])([H])[H])C(C([H])([H])[H])(C([H])([H])[H])C([H])([H])[H])C([H])([H])c2c([H])c(OC([H])([H])C([H])([H])OC([H])([H])C([H])([H])OC([H])([H])C([H])([H])OC([H])([H])C([H])([H])C([H])([H])N([H])C(=O)N3C([H])([H])C([H])([H])C([H])([H])C([H])(n4nc(-c5c([H])c([H])c(Oc6c([H])c([H])c(F)c([H])c6F)c([H])c5[H])c(C(=O)N([H])[H])c4N([H])[H])C3([H])[H])c([H])c([H])c2C1([H])[H]

>  <smiles>  (25) 
[H]c1c([H])c([H])c2c(c1[H])C([H])([H])C([H])([H])C([H])([H])C2([H])N([H])C(=O)C1([H])N(C(=O)C([H])(N([H])C(=O)C([H])(N([H])C([H])([H])[H])C([H])([H])[H])C(C([H])([H])[H])(C([H])([H])[H])C([H])([H])[H])C([H])([H])c2c([H])c(OC([H])([H])C([H])([H])OC([H])([H])C([H])([H])OC([H])([H])C([H])([H])OC([H])([H])C([H])([H])C([H])([H])N([H])C(=O)N3C([H])([H])C([H])([H])C([H])([H])C([H])(n4nc(-c5c([H])c([H])c(Oc6c([H])c([H])c(F)c([H])c6F)c([H])c5[H])c(C(=O)N([H])[H])c4N([H])[H])C3([H])[H])c([H])c([H])c2C1([H])[H]

$$$$
26:0:0
     RDKit          3D

100109  0  0  1  0  0  0  0  0999 V2000
  -26.4980  -17.7970   23.0480 C   0  0  0  0  0  2  0  0  0  0  0  0
  -25.4990  -16.6860   23.4010 C   0  0  0  0  0  2  0  0  0  0  0  0
  -25.6090  -15.5940   22.4100 N   0  0  0  0  0  4  0  0  0  0  0  0
  -25.1330  -15.8510   21.5600 H   0  0  0  0  0  0  0  0  0  0  0  0
  -26.5820  -15.4920   22.1720 H   0  0  0  0  0  0  0  0  0  0  0  0
  -25.1620  -14.2590   22.8410 C   0  0  0  0  0  2  0  0  0  0  0  0
  -27.0460  -11.0680   21.8220 C   0  0  0  0  0  3  0  0  0  0  0  0
  -25.9970  -11.9340   22.1940 C   0  0  0  0  0  3  0  0  0  0  0  0
  -28.3680  -11.5520   21.7440 C   0  0  0  0  0  0  0  0  0  0  0  0
  -27.6050  -13.7470   22.4780 C   0  0  0  0  0  3  0  0  0  0  0  0
  -26.2750  -13.2790   22.5190 C   0  0  0  0  0  0  0  0  0  0  0  0
  -28.6460  -12.8980   22.0610 C   0  0  0  0  0  0  0  0  0  0  0  0
  -30.0290  -13.4730   21.8500 C   0  0  0  0  0  2  0  0  0  0  0  0
  -30.0270  -14.2700   20.6750 O   0  0  0  0  0  0  0  0  0  0  0  0
  -30.1940  -13.6670   19.5040 C   0  0  0  0  0  0  0  0  0  0  0  0
  -29.4230  -11.6710   18.2360 C   0  0  0  0  0  2  0  0  0  0  0  0
  -28.3030  -11.9920   17.2360 C   0  0  0  0  0  2  0  0  0  0  0  0
  -26.9270  -11.9200   17.9250 C   0  0  0  0  0  2  0  0  0  0  0  0
  -26.8730  -12.7460   19.2390 C   0  0  0  0  0  3  0  0  0  0  0  0
  -28.0750  -12.4120   20.1510 C   0  0  0  0  0  3  0  0  0  0  0  0
  -29.3020  -12.6000   19.3600 N   0  0  0  0  0  0  0  0  0  0  0  0
  -31.0960  -13.9710   18.7220 O   0  0  0  0  0  0  0  0  0  0  0  0
  -24.6660  -13.4980   20.3330 C   0  0  0  0  0  0  0  0  0  0  0  0
  -23.6210  -12.7870   20.8650 C   0  0  0  0  0  0  0  0  0  0  0  0
  -23.9800  -11.4100   20.7430 C   0  0  0  0  0  0  0  0  0  0  0  0
  -25.5990  -12.5550   19.9290 N   0  0  0  0  0  0  0  0  0  0  0  0
  -25.1960  -11.2940   20.2270 N   0  0  0  0  0  0  0  0  0  0  0  0
  -23.2130  -10.1930   21.0370 C   0  0  0  0  0  0  0  0  0  0  0  0
  -23.6460   -9.2630   22.0090 C   0  0  0  0  0  3  0  0  0  0  0  0
  -22.8830   -8.1080   22.2850 C   0  0  0  0  0  3  0  0  0  0  0  0
  -21.6710   -7.8760   21.5910 C   0  0  0  0  0  0  0  0  0  0  0  0
  -21.2570   -8.7920   20.6090 C   0  0  0  0  0  3  0  0  0  0  0  0
  -22.0210   -9.9390   20.3320 C   0  0  0  0  0  3  0  0  0  0  0  0
  -20.8780   -6.7690   21.7750 O   0  0  0  0  0  0  0  0  0  0  0  0
  -20.9080   -6.0490   22.9420 C   0  0  0  0  0  0  0  0  0  0  0  0
  -20.4830   -6.6010   24.1710 C   0  0  0  0  0  3  0  0  0  0  0  0
  -20.4630   -5.8050   25.3320 C   0  0  0  0  0  3  0  0  0  0  0  0
  -20.8600   -4.4550   25.2680 C   0  0  0  0  0  0  0  0  0  0  0  0
  -21.2760   -3.9010   24.0450 C   0  0  0  0  0  3  0  0  0  0  0  0
  -21.2990   -4.6960   22.8850 C   0  0  0  0  0  0  0  0  0  0  0  0
  -21.6830   -4.1520   21.7050 F   0  0  0  0  0  0  0  0  0  0  0  0
  -20.8330   -3.6860   26.3810 F   0  0  0  0  0  0  0  0  0  0  0  0
  -22.3240  -13.3480   21.3720 C   0  0  0  0  0  0  0  0  0  0  0  0
  -21.7220  -12.6970   22.3620 N   0  0  0  0  0  0  0  0  0  0  0  0
  -21.8620  -14.3970   20.9260 O   0  0  0  0  0  0  0  0  0  0  0  0
  -22.1180  -11.8530   22.7480 H   0  0  0  0  0  0  0  0  0  0  0  0
  -20.8580  -13.0520   22.7450 H   0  0  0  0  0  0  0  0  0  0  0  0
  -24.8930  -14.8580   20.1460 N   0  0  0  0  0  0  0  0  0  0  0  0
  -24.1880  -15.5560   20.3520 H   0  0  0  0  0  0  0  0  0  0  0  0
  -25.7070  -15.2390   19.6810 H   0  0  0  0  0  0  0  0  0  0  0  0
  -26.7320  -17.7530   21.6470 O   0  0  0  0  0  0  0  0  0  0  0  0
  -28.1100  -17.7990   21.2900 C   0  0  0  0  0  2  0  0  0  0  0  0
  -28.4210  -18.8650   20.2240 C   0  0  0  0  0  2  0  0  0  0  0  0
  -29.6070  -19.5940   20.5370 O   0  0  0  0  0  0  0  0  0  0  0  0
  -29.5180  -20.9350   20.0650 C   0  0  0  0  0  2  0  0  0  0  0  0
  -30.8900  -21.5940   19.8690 C   0  0  0  0  0  2  0  0  0  0  0  0
  -31.0110  -22.1660   18.5650 O   0  0  0  0  0  0  0  0  0  0  0  0
  -31.8470  -23.3200   18.5710 C   0  0  0  0  0  2  0  0  0  0  0  0
  -31.6790  -24.1900   17.3070 C   0  0  0  0  0  2  0  0  0  0  0  0
  -31.5970  -25.5780   17.6590 O   0  0  0  0  0  0  0  0  0  0  0  0
  -25.8540  -28.4020   20.7680 C   0  0  0  0  0  0  0  0  0  0  0  0
  -30.4070  -26.2560   17.4730 C   0  0  0  0  0  0  0  0  0  0  0  0
  -25.8070  -28.3340   18.2940 C   0  0  0  0  0  3  0  0  0  0  0  0
  -28.0080  -27.7250   17.1640 C   0  0  0  0  0  0  0  0  0  0  0  0
  -28.0300  -28.4610   19.5540 C   0  0  0  0  0  2  0  0  0  0  0  0
  -28.6570  -27.6960   18.4040 C   0  0  0  0  0  0  0  0  0  0  0  0
  -29.8590  -26.9710   18.5600 C   0  0  0  0  0  3  0  0  0  0  0  0
  -29.7360  -26.2950   16.2280 C   0  0  0  0  0  3  0  0  0  0  0  0
  -28.5430  -27.0240   16.0710 C   0  0  0  0  0  3  0  0  0  0  0  0
  -26.7390  -28.5400   17.0690 C   0  0  0  0  0  2  0  0  0  0  0  0
  -26.5500  -28.3760   19.5960 N   0  0  0  0  0  0  0  0  0  0  0  0
  -24.6150  -28.4340   20.7790 O   0  0  0  0  0  0  0  0  0  0  0  0
  -25.0050  -27.0290   18.0890 C   0  0  0  0  0  0  0  0  0  0  0  0
  -23.9780  -27.0860   17.2260 N   0  0  0  0  0  0  0  0  0  0  0  0
  -25.3290  -25.9910   18.6740 O   0  0  0  0  0  0  0  0  0  0  0  0
  -23.7750  -27.9770   16.7950 H   0  0  0  0  0  0  0  0  0  0  0  0
  -21.1500  -26.1760   15.1710 C   0  0  0  0  0  0  0  0  0  0  0  0
  -23.1080  -25.9720   16.8460 C   0  0  0  0  0  3  0  0  0  0  0  0
  -23.7890  -25.0760   15.7850 C   0  0  0  0  0  2  0  0  0  0  0  0
  -23.4320  -25.4680   14.3480 C   0  0  0  0  0  2  0  0  0  0  0  0
  -21.9200  -25.3900   14.1240 C   0  0  0  0  0  2  0  0  0  0  0  0
  -21.7140  -26.4630   16.4430 C   0  0  0  0  0  0  0  0  0  0  0  0
  -20.9700  -27.2320   17.3630 C   0  0  0  0  0  3  0  0  0  0  0  0
  -19.6840  -27.7010   17.0360 C   0  0  0  0  0  3  0  0  0  0  0  0
  -19.1220  -27.3960   15.7830 C   0  0  0  0  0  3  0  0  0  0  0  0
  -19.8550  -26.6370   14.8540 C   0  0  0  0  0  3  0  0  0  0  0  0
  -26.5790  -28.4130   22.1510 C   0  0  0  0  0  3  0  0  0  0  0  0
  -25.7830  -29.2460   23.0600 N   0  0  0  0  0  0  0  0  0  0  0  0
  -26.1420  -30.4610   23.4960 C   0  0  0  0  0  0  0  0  0  0  0  0
  -27.2330  -30.9730   23.2270 O   0  0  0  0  0  0  0  0  0  0  0  0
  -24.8570  -28.9070   23.2790 H   0  0  0  0  0  0  0  0  0  0  0  0
  -24.4000  -32.2760   23.5170 C   0  0  0  0  0  1  0  0  0  0  0  0
  -25.1320  -31.2290   24.3680 C   0  0  0  0  0  3  0  0  0  0  0  0
  -26.2250  -30.9450   26.5490 C   0  0  0  0  0  1  0  0  0  0  0  0
  -25.7480  -31.8870   25.5410 N   0  0  0  0  0  0  0  0  0  0  0  0
  -25.0860  -32.5180   25.9840 H   0  0  0  0  0  0  0  0  0  0  0  0
  -26.7870  -26.9700   22.7550 C   0  0  1  0  0  0  0  0  0  0  0  0
  -25.4790  -26.1590   22.8910 C   0  0  0  0  0  1  0  0  0  0  0  0
  -27.7690  -26.1500   21.8840 C   0  0  0  0  0  1  0  0  0  0  0  0
  -27.4180  -27.0770   24.1630 C   0  0  0  0  0  1  0  0  0  0  0  0
  1  2  1  0
  3  6  1  0
  3  2  1  0
  4  3  1  0
  5  3  1  0
  7  8  1  0
  8 11  2  0
  9  7  2  3
  9 12  1  0
 10 11  1  0
 11  6  1  0
 12 10  2  0
 13 12  1  0
 14 13  1  0
 15 14  1  0
 16 21  1  0
 17 18  1  0
 17 16  1  0
 19 18  1  0
 19 26  1  0
 19 20  1  0
 20  9  1  0
 21 15  1  0
 21 20  1  0
 22 15  2  0
 23 24  2  0
 24 43  1  0
 25 24  1  0
 25 28  1  0
 26 27  1  0
 26 23  1  0
 27 25  2  0
 28 29  1  0
 29 30  2  0
 31 34  1  0
 31 30  1  0
 32 31  2  0
 33 32  1  0
 33 28  2  0
 34 35  1  0
 35 36  1  0
 36 37  2  0
 38 37  1  0
 38 42  1  0
 39 38  2  0
 40 35  2  0
 40 39  1  0
 41 40  1  0
 43 44  1  0
 44 47  1  0
 44 46  1  0
 45 43  2  0
 48 23  1  0
 48 49  1  0
 50 48  1  0
 51  1  1  0
 52 51  1  0
 53 54  1  0
 53 52  1  0
 55 54  1  0
 56 55  1  0
 57 58  1  0
 57 56  1  0
 59 60  1  0
 59 58  1  0
 61 72  2  0
 62 60  1  0
 62 67  1  0
 63 73  1  0
 63 71  1  0
 64 66  1  0
 65 71  1  0
 66 67  2  0
 66 65  1  0
 68 62  2  0
 69 68  1  0
 69 64  2  0
 70 64  1  0
 70 63  1  0
 71 61  1  0
 73 75  2  0
 74 73  1  0
 76 74  1  0
 77 82  1  0
 78 74  1  0
 79 78  1  0
 80 79  1  0
 81 80  1  0
 81 77  1  0
 82 78  1  0
 82 83  2  0
 84 83  1  0
 85 84  2  0
 86 77  2  0
 86 85  1  0
 87 61  1  0
 87 97  1  0
 87 88  1  0
 88 91  1  0
 88 89  1  0
 89 93  1  0
 90 89  2  0
 93 92  1  0
 93 95  1  0
 95 96  1  0
 95 94  1  0
 97 98  1  1
 97100  1  0
 99 97  1  0
M  ISO  4  14 100  15 100  59 101  60 101
M  END
>  <TORSDO>  (26) 
F 31

>  <SCORE>  (26) 
15.348

>  <name>  (26) 
26

>  <ligand_id>  (26) 
26

>  <original_smiles>  (26) 
[H]c1c([H])c([H])c2c(c1[H])C([H])([H])C([H])([H])C([H])([H])C2([H])N([H])C(=O)C1([H])N(C(=O)C([H])(N([H])C(=O)C([H])(N([H])C([H])([H])[H])C([H])([H])[H])C(C([H])([H])[H])(C([H])([H])[H])C([H])([H])[H])C([H])([H])c2c([H])c(OC([H])([H])C([H])([H])OC([H])([H])C([H])([H])OC([H])([H])C([H])([H])OC([H])([H])C([H])([H])[N+]([H])([H])C([H])([H])c3c([H])c([H])c([H])c(C([H])([H])OC(=O)N4C([H])([H])C([H])([H])C([H])([H])C([H])(n5nc(-c6c([H])c([H])c(Oc7c([H])c([H])c(F)c([H])c7F)c([H])c6[H])c(C(=O)N([H])[H])c5N([H])[H])C4([H])[H])c3[H])c([H])c([H])c2C1([H])[H]

>  <smiles>  (26) 
[H]c1c([H])c([H])c2c(c1[H])C([H])([H])C([H])([H])C([H])([H])C2([H])N([H])C(=O)C1([H])N(C(=O)C([H])(N([H])C(=O)C([H])(N([H])C([H])([H])[H])C([H])([H])[H])C(C([H])([H])[H])(C([H])([H])[H])C([H])([H])[H])C([H])([H])c2c([H])c(OC([H])([H])C([H])([H])OC([H])([H])C([H])([H])OC([H])([H])C([H])([H])OC([H])([H])C([H])([H])[N+]([H])([H])C([H])([H])c3c([H])c([H])c([H])c(C([H])([H])OC(=O)N4C([H])([H])C([H])([H])C([H])([H])C([H])(n5nc(-c6c([H])c([H])c(Oc7c([H])c([H])c(F)c([H])c7F)c([H])c6[H])c(C(=O)N([H])[H])c5N([H])[H])C4([H])[H])c3[H])c([H])c([H])c2C1([H])[H]

$$$$
28:0:0
     RDKit          3D

101109  0  0  1  0  0  0  0  0999 V2000
  -31.4710  -25.0440    9.2510 C   0  0  0  0  0  0  0  0  0  0  0  0
  -31.5240  -26.3710    9.0870 N   0  0  0  0  0  0  0  0  0  0  0  0
  -31.1880  -24.2710    8.3350 O   0  0  0  0  0  0  0  0  0  0  0  0
  -31.7480  -26.9360    9.8940 H   0  0  0  0  0  0  0  0  0  0  0  0
  -31.1190  -27.0910    7.8850 C   0  0  0  0  0  2  0  0  0  0  0  0
  -32.0150  -28.3220    7.6830 C   0  0  0  0  0  2  0  0  0  0  0  0
  -31.5430  -29.3960    8.4960 O   0  0  0  0  0  0  0  0  0  0  0  0
  -32.5870  -30.2350    8.9820 C   0  0  0  0  0  2  0  0  0  0  0  0
  -32.9400  -29.9250   10.4480 C   0  0  0  0  0  2  0  0  0  0  0  0
  -32.6590  -28.5780   10.8450 O   0  0  0  0  0  0  0  0  0  0  0  0
  -33.8060  -27.9270   11.3830 C   0  0  0  0  0  2  0  0  0  0  0  0
  -33.5700  -27.3130   12.7880 C   0  0  0  0  0  2  0  0  0  0  0  0
  -34.7380  -26.7010   13.3640 O   0  0  0  0  0  0  0  0  0  0  0  0
  -36.6000  -33.0430   15.9710 C   0  0  0  0  0  0  0  0  0  0  0  0
  -35.7510  -27.5850   13.6190 C   0  0  0  0  0  0  0  0  0  0  0  0
  -38.2460  -31.9450   14.4910 C   0  0  0  0  0  3  0  0  0  0  0  0
  -37.7990  -29.4890   13.9640 C   0  0  0  0  0  0  0  0  0  0  0  0
  -36.6150  -30.5580   15.8880 C   0  0  0  0  0  2  0  0  0  0  0  0
  -36.6790  -29.5030   14.8050 C   0  0  0  0  0  0  0  0  0  0  0  0
  -35.6450  -28.5550   14.6350 C   0  0  0  0  0  3  0  0  0  0  0  0
  -36.9060  -27.5470   12.8110 C   0  0  0  0  0  3  0  0  0  0  0  0
  -37.9190  -28.5100   12.9610 C   0  0  0  0  0  3  0  0  0  0  0  0
  -38.8530  -30.5470   14.2020 C   0  0  0  0  0  2  0  0  0  0  0  0
  -37.1060  -31.8860   15.4590 N   0  0  0  0  0  0  0  0  0  0  0  0
  -37.0940  -34.1400   15.6820 O   0  0  0  0  0  0  0  0  0  0  0  0
  -37.8730  -32.6130   13.1490 C   0  0  0  0  0  0  0  0  0  0  0  0
  -38.8700  -33.2210   12.4860 N   0  0  0  0  0  0  0  0  0  0  0  0
  -36.7200  -32.5540   12.7120 O   0  0  0  0  0  0  0  0  0  0  0  0
  -39.7870  -33.2270   12.9150 H   0  0  0  0  0  0  0  0  0  0  0  0
  -40.6860  -35.1810   10.0580 C   0  0  0  0  0  0  0  0  0  0  0  0
  -38.7590  -33.8840   11.1870 C   0  0  0  0  0  3  0  0  0  0  0  0
  -38.8990  -32.8660   10.0330 C   0  0  0  0  0  2  0  0  0  0  0  0
  -40.3360  -32.7320    9.5180 C   0  0  0  0  0  2  0  0  0  0  0  0
  -40.8580  -34.0840    9.0200 C   0  0  0  0  0  2  0  0  0  0  0  0
  -39.7120  -35.0800   11.0850 C   0  0  0  0  0  0  0  0  0  0  0  0
  -39.6150  -36.1110   12.0450 C   0  0  0  0  0  3  0  0  0  0  0  0
  -40.4720  -37.2260   11.9900 C   0  0  0  0  0  3  0  0  0  0  0  0
  -41.4250  -37.3310   10.9610 C   0  0  0  0  0  3  0  0  0  0  0  0
  -41.5270  -36.3130    9.9960 C   0  0  0  0  0  3  0  0  0  0  0  0
  -35.3980  -33.0400   16.9620 C   0  0  0  0  0  3  0  0  0  0  0  0
  -35.7080  -33.9920   18.0370 N   0  0  0  0  0  0  0  0  0  0  0  0
  -36.6010  -33.7740   19.0120 C   0  0  0  0  0  0  0  0  0  0  0  0
  -37.2070  -32.7060   19.1380 O   0  0  0  0  0  0  0  0  0  0  0  0
  -35.2970  -34.9090   17.9630 H   0  0  0  0  0  0  0  0  0  0  0  0
  -37.4520  -36.1300   19.2480 C   0  0  0  0  0  1  0  0  0  0  0  0
  -36.8700  -34.9230   20.0010 C   0  0  0  0  0  3  0  0  0  0  0  0
  -37.0650  -34.2010   22.3390 C   0  0  0  0  0  1  0  0  0  0  0  0
  -37.7750  -34.5450   21.1090 N   0  0  0  0  0  0  0  0  0  0  0  0
  -38.4240  -35.2980   21.3170 H   0  0  0  0  0  0  0  0  0  0  0  0
  -34.0220  -33.4000   16.2770 C   0  0  1  0  0  0  0  0  0  0  0  0
  -33.7810  -34.9230   16.1390 C   0  0  0  0  0  1  0  0  0  0  0  0
  -33.9380  -32.7800   14.8620 C   0  0  0  0  0  1  0  0  0  0  0  0
  -32.8570  -32.7940   17.0930 C   0  0  0  0  0  1  0  0  0  0  0  0
  -31.7330  -24.5180   10.6760 C   0  0  0  0  0  2  0  0  0  0  0  0
  -30.5780  -24.6160   11.5260 O   0  0  0  0  0  0  0  0  0  0  0  0
  -30.7280  -24.1180   12.8570 C   0  0  0  0  0  2  0  0  0  0  0  0
  -29.5220  -24.4840   13.7300 C   0  0  0  0  0  2  0  0  0  0  0  0
  -29.4590  -23.6230   14.8650 O   0  0  0  0  0  0  0  0  0  0  0  0
  -30.4370  -23.9070   15.8660 C   0  0  0  0  0  2  0  0  0  0  0  0
  -28.9460  -25.9440   20.5500 C   0  0  0  0  0  0  0  0  0  0  0  0
  -29.5500  -27.0430   22.6760 C   0  0  0  0  0  2  0  0  0  0  0  0
  -30.0570  -28.4930   22.5690 C   0  0  0  0  0  2  0  0  0  0  0  0
  -31.5760  -28.5200   22.3400 C   0  0  0  0  0  2  0  0  0  0  0  0
  -31.9830  -27.6270   21.1500 C   0  0  0  0  0  3  0  0  0  0  0  0
  -31.3640  -26.2270   21.2600 C   0  0  0  0  0  2  0  0  0  0  0  0
  -29.9030  -26.2830   21.4600 N   0  0  0  0  0  0  0  0  0  0  0  0
  -27.8730  -26.5610   20.5070 O   0  0  0  0  0  0  0  0  0  0  0  0
  -28.5420  -24.4140   17.5080 C   0  0  0  0  0  2  0  0  0  0  0  0
  -30.8840  -23.9630   18.4230 C   0  0  0  0  0  2  0  0  0  0  0  0
  -28.0300  -24.2770   18.9510 C   0  0  0  0  0  2  0  0  0  0  0  0
  -30.2000  -23.8020   19.8020 C   0  0  0  0  0  2  0  0  0  0  0  0
  -29.8750  -23.6670   17.2850 C   0  0  0  0  0  3  0  0  0  0  0  0
  -29.0750  -24.7570   19.8720 N   0  0  0  0  0  0  0  0  0  0  0  0
  -34.2150  -27.6110   19.8620 C   0  0  0  0  0  0  0  0  0  0  0  0
  -35.5130  -27.5230   20.2850 C   0  0  0  0  0  0  0  0  0  0  0  0
  -35.4570  -27.3780   21.7060 C   0  0  0  0  0  0  0  0  0  0  0  0
  -33.4350  -27.5300   21.0070 N   0  0  0  0  0  0  0  0  0  0  0  0
  -34.1960  -27.3270   22.1130 N   0  0  0  0  0  0  0  0  0  0  0  0
  -36.5300  -27.3520   22.7090 C   0  0  0  0  0  0  0  0  0  0  0  0
  -36.8980  -26.1590   23.3680 C   0  0  0  0  0  3  0  0  0  0  0  0
  -37.9430  -26.1580   24.3160 C   0  0  0  0  0  3  0  0  0  0  0  0
  -38.6340  -27.3580   24.6120 C   0  0  0  0  0  0  0  0  0  0  0  0
  -38.2470  -28.5480   23.9690 C   0  0  0  0  0  3  0  0  0  0  0  0
  -37.2050  -28.5470   23.0290 C   0  0  0  0  0  3  0  0  0  0  0  0
  -39.6440  -27.4590   25.5380 O   0  0  0  0  0  0  0  0  0  0  0  0
  -40.9540  -27.2300   25.2030 C   0  0  0  0  0  0  0  0  0  0  0  0
  -41.7580  -28.2320   24.6140 C   0  0  0  0  0  3  0  0  0  0  0  0
  -43.1180  -27.9760   24.3480 C   0  0  0  0  0  3  0  0  0  0  0  0
  -43.6780  -26.7260   24.6760 C   0  0  0  0  0  0  0  0  0  0  0  0
  -42.8810  -25.7300   25.2670 C   0  0  0  0  0  3  0  0  0  0  0  0
  -41.5230  -25.9830   25.5310 C   0  0  0  0  0  0  0  0  0  0  0  0
  -40.7640  -25.0270   26.1200 F   0  0  0  0  0  0  0  0  0  0  0  0
  -44.9860  -26.4830   24.4280 F   0  0  0  0  0  0  0  0  0  0  0  0
  -36.7450  -27.6650   19.4360 C   0  0  0  0  0  0  0  0  0  0  0  0
  -37.6510  -26.6970   19.5030 N   0  0  0  0  0  0  0  0  0  0  0  0
  -36.8850  -28.6160   18.6700 O   0  0  0  0  0  0  0  0  0  0  0  0
  -37.5290  -25.9060   20.1160 H   0  0  0  0  0  0  0  0  0  0  0  0
  -38.4820  -26.7480   18.9290 H   0  0  0  0  0  0  0  0  0  0  0  0
  -33.6290  -27.7740   18.6100 N   0  0  0  0  0  0  0  0  0  0  0  0
  -34.1720  -27.9130   17.7660 H   0  0  0  0  0  0  0  0  0  0  0  0
  -32.6340  -27.8520   18.4510 H   0  0  0  0  0  0  0  0  0  0  0  0
  1 54  1  0
  2  1  1  0
  2  4  1  0
  3  1  2  0
  5  2  1  0
  6  5  1  0
  6  7  1  0
  7  8  1  0
  8  9  1  0
  9 10  1  0
 10 11  1  0
 11 12  1  0
 12 13  1  0
 13 15  1  0
 15 20  1  0
 16 26  1  0
 16 24  1  0
 17 23  1  0
 17 19  1  0
 19 18  1  0
 20 19  2  0
 21 22  1  0
 21 15  2  0
 22 17  2  0
 23 16  1  0
 24 18  1  0
 24 14  1  0
 25 14  2  0
 27 29  1  0
 27 26  1  0
 28 26  2  0
 30 35  1  0
 31 27  1  0
 32 31  1  0
 33 32  1  0
 34 33  1  0
 34 30  1  0
 35 31  1  0
 35 36  2  0
 37 36  1  0
 38 37  2  0
 39 30  2  0
 39 38  1  0
 40 14  1  0
 40 41  1  0
 41 42  1  0
 42 43  2  0
 42 46  1  0
 44 41  1  0
 46 45  1  0
 46 48  1  0
 48 49  1  0
 48 47  1  0
 50 40  1  0
 50 53  1  1
 51 50  1  0
 52 50  1  0
 54 55  1  0
 55 56  1  0
 56 57  1  0
 57 58  1  0
 58 59  1  0
 60 66  1  0
 62 61  1  0
 63 62  1  0
 64 77  1  0
 64 65  1  0
 64 63  1  0
 65 66  1  0
 66 61  1  0
 67 60  2  0
 68 70  1  0
 69 71  1  0
 70 73  1  0
 71 73  1  0
 72 59  1  0
 72 68  1  0
 72 69  1  0
 73 60  1  0
 74 75  2  0
 74 77  1  0
 75 76  1  0
 76 78  2  0
 76 79  1  0
 77 78  1  0
 79 84  2  0
 79 80  1  0
 80 81  2  0
 81 82  1  0
 82 85  1  0
 83 82  2  0
 84 83  1  0
 86 91  1  0
 86 85  1  0
 87 86  2  0
 88 87  1  0
 88 89  2  0
 89 90  1  0
 90 91  2  0
 91 92  1  0
 93 89  1  0
 94 95  1  0
 94 75  1  0
 95 97  1  0
 96 94  2  0
 98 95  1  0
 99 74  1  0
100 99  1  0
101 99  1  0
M  ISO  4  12 101  13 101  60 100  73 100
M  END
>  <TORSDO>  (27) 
F 30

>  <SCORE>  (27) 
-3.058

>  <name>  (27) 
28

>  <ligand_id>  (27) 
28

>  <original_smiles>  (27) 
[H]c1c([H])c([H])c2c(c1[H])C([H])([H])C([H])([H])C([H])([H])C2([H])N([H])C(=O)C1([H])N(C(=O)C([H])(N([H])C(=O)C([H])(N([H])C([H])([H])[H])C([H])([H])[H])C(C([H])([H])[H])(C([H])([H])[H])C([H])([H])[H])C([H])([H])c2c([H])c(OC([H])([H])C([H])([H])OC([H])([H])C([H])([H])OC([H])([H])C([H])([H])N([H])C(=O)C([H])([H])OC([H])([H])C([H])([H])OC([H])([H])C3([H])C([H])([H])C([H])([H])N(C(=O)N4C([H])([H])C([H])([H])C([H])([H])C([H])(n5nc(-c6c([H])c([H])c(Oc7c([H])c([H])c(F)c([H])c7F)c([H])c6[H])c(C(=O)N([H])[H])c5N([H])[H])C4([H])[H])C([H])([H])C3([H])[H])c([H])c([H])c2C1([H])[H]

>  <smiles>  (27) 
[H]c1c([H])c([H])c2c(c1[H])C([H])([H])C([H])([H])C([H])([H])C2([H])N([H])C(=O)C1([H])N(C(=O)C([H])(N([H])C(=O)C([H])(N([H])C([H])([H])[H])C([H])([H])[H])C(C([H])([H])[H])(C([H])([H])[H])C([H])([H])[H])C([H])([H])c2c([H])c(OC([H])([H])C([H])([H])OC([H])([H])C([H])([H])OC([H])([H])C([H])([H])N([H])C(=O)C([H])([H])OC([H])([H])C([H])([H])OC([H])([H])C3([H])C([H])([H])C([H])([H])N(C(=O)N4C([H])([H])C([H])([H])C([H])([H])C([H])(n5nc(-c6c([H])c([H])c(Oc7c([H])c([H])c(F)c([H])c7F)c([H])c6[H])c(C(=O)N([H])[H])c5N([H])[H])C4([H])[H])C([H])([H])C3([H])[H])c([H])c([H])c2C1([H])[H]

$$$$
29:0:0
     RDKit          3D

 92100  0  0  1  0  0  0  0  0999 V2000
  -30.9890  -17.9210   21.0230 C   0  0  0  0  0  3  0  0  0  0  0  0
  -30.9780  -19.3480   21.0220 C   0  0  0  0  0  3  0  0  0  0  0  0
  -28.7590  -19.3690   20.0970 C   0  0  0  0  0  3  0  0  0  0  0  0
  -29.8740  -17.1790   20.5630 C   0  0  0  0  0  0  0  0  0  0  0  0
  -28.7680  -17.9370   20.0850 C   0  0  0  0  0  0  0  0  0  0  0  0
  -29.8680  -20.1170   20.5770 C   0  0  0  0  0  0  0  0  0  0  0  0
  -30.5780  -14.6820   20.4130 C   0  0  0  0  0  0  0  0  0  0  0  0
  -30.3790  -12.4460   19.3460 C   0  0  0  0  0  2  0  0  0  0  0  0
  -29.4230  -12.5780   18.1380 C   0  0  0  0  0  2  0  0  0  0  0  0
  -27.9530  -12.4150   18.5760 C   0  0  0  0  0  2  0  0  0  0  0  0
  -27.5990  -13.2700   19.8220 C   0  0  0  0  0  3  0  0  0  0  0  0
  -28.6670  -13.1100   20.9270 C   0  0  0  0  0  2  0  0  0  0  0  0
  -29.9710  -13.4560   20.3380 N   0  0  0  0  0  0  0  0  0  0  0  0
  -31.7540  -14.8440   20.0730 O   0  0  0  0  0  0  0  0  0  0  0  0
  -29.7340  -15.7300   20.6580 N   0  0  0  0  0  0  0  0  0  0  0  0
  -28.7740  -15.4430   20.7730 H   0  0  0  0  0  0  0  0  0  0  0  0
  -25.2070  -13.8650   20.5530 C   0  0  0  0  0  0  0  0  0  0  0  0
  -24.1430  -13.0880   20.9200 C   0  0  0  0  0  0  0  0  0  0  0  0
  -24.6080  -11.7370   20.8860 C   0  0  0  0  0  0  0  0  0  0  0  0
  -26.2540  -12.9870   20.3120 N   0  0  0  0  0  0  0  0  0  0  0  0
  -25.8980  -11.7030   20.5740 N   0  0  0  0  0  0  0  0  0  0  0  0
  -23.8850  -10.4740   21.0760 C   0  0  0  0  0  0  0  0  0  0  0  0
  -24.3330   -9.4970   21.9930 C   0  0  0  0  0  3  0  0  0  0  0  0
  -23.6090   -8.2980   22.1720 C   0  0  0  0  0  3  0  0  0  0  0  0
  -22.4240   -8.0670   21.4320 C   0  0  0  0  0  0  0  0  0  0  0  0
  -21.9950   -9.0330   20.5060 C   0  0  0  0  0  3  0  0  0  0  0  0
  -22.7190  -10.2230   20.3250 C   0  0  0  0  0  3  0  0  0  0  0  0
  -21.6720   -6.9210   21.5210 O   0  0  0  0  0  0  0  0  0  0  0  0
  -21.6500   -6.1610   22.6630 C   0  0  0  0  0  0  0  0  0  0  0  0
  -21.2570   -6.6970   23.9080 C   0  0  0  0  0  3  0  0  0  0  0  0
  -21.1810   -5.8630   25.0410 C   0  0  0  0  0  3  0  0  0  0  0  0
  -21.4890   -4.4940   24.9310 C   0  0  0  0  0  0  0  0  0  0  0  0
  -21.8760   -3.9560   23.6910 C   0  0  0  0  0  3  0  0  0  0  0  0
  -21.9530   -4.7880   22.5590 C   0  0  0  0  0  0  0  0  0  0  0  0
  -22.3060   -4.2610   21.3620 F   0  0  0  0  0  0  0  0  0  0  0  0
  -21.4090   -3.6920   26.0180 F   0  0  0  0  0  0  0  0  0  0  0  0
  -22.7450  -13.5610   21.1980 C   0  0  0  0  0  0  0  0  0  0  0  0
  -22.0230  -12.8660   22.0700 N   0  0  0  0  0  0  0  0  0  0  0  0
  -22.3020  -14.5850   20.6800 O   0  0  0  0  0  0  0  0  0  0  0  0
  -22.3940  -12.0380   22.5130 H   0  0  0  0  0  0  0  0  0  0  0  0
  -21.0860  -13.1650   22.2970 H   0  0  0  0  0  0  0  0  0  0  0  0
  -25.3590  -15.2390   20.3890 N   0  0  0  0  0  0  0  0  0  0  0  0
  -24.5820  -15.8740   20.5290 H   0  0  0  0  0  0  0  0  0  0  0  0
  -26.2130  -15.7350   20.1410 H   0  0  0  0  0  0  0  0  0  0  0  0
  -27.6730  -17.2460   19.5650 N   0  0  0  0  0  0  0  0  0  0  0  0
  -26.9950  -17.8320   19.0900 H   0  0  0  0  0  0  0  0  0  0  0  0
  -27.9420  -16.4830   18.9550 H   0  0  0  0  0  0  0  0  0  0  0  0
  -29.9600  -21.5260   20.6420 O   0  0  0  0  0  0  0  0  0  0  0  0
  -28.8820  -22.4380   20.2570 C   0  0  0  0  0  2  0  0  0  0  0  0
  -29.2100  -23.9900   20.4660 C   0  0  0  0  0  3  0  0  0  0  0  0
  -28.1010  -25.0550   20.0610 C   0  0  0  0  0  3  0  0  0  0  0  0
  -28.3230  -26.5030   20.2960 O   0  0  0  0  0  0  0  0  0  0  0  0
  -24.6170  -31.9400   23.2740 C   0  0  0  0  0  0  0  0  0  0  0  0
  -27.2080  -27.3600   20.2340 C   0  0  0  0  0  0  0  0  0  0  0  0
  -23.4080  -30.5470   21.6350 C   0  0  0  0  0  3  0  0  0  0  0  0
  -24.8520  -28.9860   20.2160 C   0  0  0  0  0  0  0  0  0  0  0  0
  -25.9500  -30.8460   21.4600 C   0  0  0  0  0  2  0  0  0  0  0  0
  -26.0230  -29.4670   20.8150 C   0  0  0  0  0  0  0  0  0  0  0  0
  -27.2030  -28.6660   20.8160 C   0  0  0  0  0  3  0  0  0  0  0  0
  -26.0120  -26.9350   19.6080 C   0  0  0  0  0  3  0  0  0  0  0  0
  -24.8480  -27.7250   19.6040 C   0  0  0  0  0  3  0  0  0  0  0  0
  -23.6210  -29.8680   20.2570 C   0  0  0  0  0  2  0  0  0  0  0  0
  -24.6770  -31.1280   22.1790 N   0  0  0  0  0  0  0  0  0  0  0  0
  -23.5330  -32.2280   23.8030 O   0  0  0  0  0  0  0  0  0  0  0  0
  -22.7350  -29.5360   22.5940 C   0  0  0  0  0  0  0  0  0  0  0  0
  -21.4070  -29.3720   22.4650 N   0  0  0  0  0  0  0  0  0  0  0  0
  -23.4060  -28.9040   23.4140 O   0  0  0  0  0  0  0  0  0  0  0  0
  -20.9260  -29.9330   21.7750 H   0  0  0  0  0  0  0  0  0  0  0  0
  -18.0160  -28.2170   22.9620 C   0  0  0  0  0  0  0  0  0  0  0  0
  -20.5770  -28.4460   23.2350 C   0  0  0  0  0  3  0  0  0  0  0  0
  -20.6620  -27.0120   22.6620 C   0  0  0  0  0  2  0  0  0  0  0  0
  -19.5570  -26.7010   21.6470 C   0  0  0  0  0  2  0  0  0  0  0  0
  -18.1760  -26.8640   22.2880 C   0  0  0  0  0  2  0  0  0  0  0  0
  -19.1430  -28.9660   23.3930 C   0  0  0  0  0  0  0  0  0  0  0  0
  -18.9380  -30.2320   23.9830 C   0  0  0  0  0  3  0  0  0  0  0  0
  -17.6400  -30.7490   24.1460 C   0  0  0  0  0  3  0  0  0  0  0  0
  -16.5270  -29.9970   23.7320 C   0  0  0  0  0  3  0  0  0  0  0  0
  -16.7160  -28.7320   23.1460 C   0  0  0  0  0  3  0  0  0  0  0  0
  -25.9010  -32.5640   23.8990 C   0  0  0  0  0  3  0  0  0  0  0  0
  -25.6000  -33.9640   24.2300 N   0  0  0  0  0  0  0  0  0  0  0  0
  -25.9210  -35.0140   23.4620 C   0  0  0  0  0  0  0  0  0  0  0  0
  -26.5730  -34.9060   22.4190 O   0  0  0  0  0  0  0  0  0  0  0  0
  -25.0190  -34.1220   25.0390 H   0  0  0  0  0  0  0  0  0  0  0  0
  -24.1800  -36.8010   23.1440 C   0  0  0  0  0  1  0  0  0  0  0  0
  -25.4440  -36.4050   23.9230 C   0  0  0  0  0  3  0  0  0  0  0  0
  -27.6000  -37.3000   24.6860 C   0  0  0  0  0  1  0  0  0  0  0  0
  -26.4710  -37.4580   23.7720 N   0  0  0  0  0  0  0  0  0  0  0  0
  -26.0680  -38.3790   23.9220 H   0  0  0  0  0  0  0  0  0  0  0  0
  -26.4100  -31.7900   25.1770 C   0  0  1  0  0  0  0  0  0  0  0  0
  -25.3120  -31.5600   26.2420 C   0  0  0  0  0  1  0  0  0  0  0  0
  -26.9840  -30.4080   24.7880 C   0  0  0  0  0  1  0  0  0  0  0  0
  -27.5650  -32.5760   25.8410 C   0  0  0  0  0  1  0  0  0  0  0  0
  2  1  1  0
  3  6  1  0
  4 15  1  0
  4  1  2  0
  5  3  2  0
  5  4  1  0
  6 48  1  0
  6  2  2  0
  7 15  1  0
  8 13  1  0
  9 10  1  0
  9  8  1  0
 11 10  1  0
 11 20  1  0
 11 12  1  0
 13  7  1  0
 13 12  1  0
 14  7  2  0
 15 16  1  0
 17 18  2  0
 18 37  1  0
 19 18  1  0
 19 22  1  0
 20 17  1  0
 20 21  1  0
 21 19  2  0
 22 23  1  0
 23 24  2  0
 25 28  1  0
 25 24  1  0
 26 25  2  0
 27 26  1  0
 27 22  2  0
 28 29  1  0
 29 30  1  0
 30 31  2  0
 32 31  1  0
 32 36  1  0
 33 32  2  0
 34 29  2  0
 34 33  1  0
 35 34  1  0
 37 38  1  0
 38 41  1  0
 38 40  1  0
 39 37  2  0
 42 43  1  0
 42 17  1  0
 44 42  1  0
 45  5  1  0
 46 45  1  0
 47 45  1  0
 49 50  1  0
 49 48  1  0
 51 52  1  0
 51 50  2  0
 53 64  2  0
 54 52  1  0
 54 59  1  0
 55 63  1  0
 55 65  1  0
 56 62  1  0
 56 58  1  0
 57 63  1  0
 58 59  2  0
 58 57  1  0
 60 54  2  0
 61 60  1  0
 61 56  2  0
 62 55  1  0
 63 53  1  0
 65 67  2  0
 66 65  1  0
 68 66  1  0
 69 78  2  0
 69 74  1  0
 70 66  1  0
 70 74  1  0
 71 70  1  0
 72 73  1  0
 72 71  1  0
 73 69  1  0
 74 75  2  0
 75 76  1  0
 77 76  2  0
 78 77  1  0
 79 53  1  0
 79 80  1  0
 79 89  1  0
 80 83  1  0
 81 85  1  0
 81 80  1  0
 82 81  2  0
 85 84  1  0
 87 88  1  0
 87 85  1  0
 87 86  1  0
 89 92  1  1
 89 90  1  0
 91 89  1  0
M  ISO  4   7 100  15 100  51 101  52 101
M  END
>  <TORSDO>  (28) 
F 21

>  <SCORE>  (28) 
-13.942

>  <name>  (28) 
29

>  <ligand_id>  (28) 
29

>  <original_smiles>  (28) 
[H]c1c([H])c([H])c2c(c1[H])C([H])([H])C([H])([H])C([H])([H])C2([H])N([H])C(=O)C1([H])N(C(=O)C([H])(N([H])C(=O)C([H])(N([H])C([H])([H])[H])C([H])([H])[H])C(C([H])([H])[H])(C([H])([H])[H])C([H])([H])[H])C([H])([H])c2c([H])c(OC([H])([H])C([H])([H])C([H])([H])Oc3c([H])c([H])c(N([H])C(=O)N4C([H])([H])C([H])([H])C([H])([H])C([H])(n5nc(-c6c([H])c([H])c(Oc7c([H])c([H])c(F)c([H])c7F)c([H])c6[H])c(C(=O)N([H])[H])c5N([H])[H])C4([H])[H])c(N([H])[H])c3[H])c([H])c([H])c2C1([H])[H]

>  <smiles>  (28) 
[H]c1c([H])c([H])c2c(c1[H])C([H])([H])C([H])([H])C([H])([H])C2([H])N([H])C(=O)C1([H])N(C(=O)C([H])(N([H])C(=O)C([H])(N([H])C([H])([H])[H])C([H])([H])[H])C(C([H])([H])[H])(C([H])([H])[H])C([H])([H])[H])C([H])([H])c2c([H])c(OC([H])([H])C([H])([H])C([H])([H])Oc3c([H])c([H])c(N([H])C(=O)N4C([H])([H])C([H])([H])C([H])([H])C([H])(n5nc(-c6c([H])c([H])c(Oc7c([H])c([H])c(F)c([H])c7F)c([H])c6[H])c(C(=O)N([H])[H])c5N([H])[H])C4([H])[H])c(N([H])[H])c3[H])c([H])c([H])c2C1([H])[H]

$$$$
30:0:0
     RDKit          3D

 95103  0  0  1  0  0  0  0  0999 V2000
  -25.9830  -23.5240   21.9710 C   0  0  0  0  0  2  0  0  0  0  0  0
  -25.3170  -23.9160   20.7740 O   0  0  0  0  0  0  0  0  0  0  0  0
  -25.9470  -24.9800   20.0640 C   0  0  0  0  0  2  0  0  0  0  0  0
  -27.1110  -24.4570   19.1950 C   0  0  0  0  0  2  0  0  0  0  0  0
  -28.3440  -24.8990   19.7410 O   0  0  0  0  0  0  0  0  0  0  0  0
  -29.4700  -24.6310   18.9130 C   0  0  0  0  0  2  0  0  0  0  0  0
  -30.5310  -25.7300   19.1180 C   0  0  0  0  0  2  0  0  0  0  0  0
  -30.1780  -26.9400   18.4470 O   0  0  0  0  0  0  0  0  0  0  0  0
  -25.8340  -29.3420   23.5300 C   0  0  0  0  0  0  0  0  0  0  0  0
  -28.9400  -27.4240   18.7770 C   0  0  0  0  0  0  0  0  0  0  0  0
  -24.7790  -28.8740   21.3390 C   0  0  0  0  0  3  0  0  0  0  0  0
  -26.3890  -28.4370   19.4100 C   0  0  0  0  0  0  0  0  0  0  0  0
  -27.2430  -29.5380   21.4910 C   0  0  0  0  0  2  0  0  0  0  0  0
  -27.4780  -28.7040   20.2500 C   0  0  0  0  0  0  0  0  0  0  0  0
  -28.7590  -28.1980   19.9400 C   0  0  0  0  0  3  0  0  0  0  0  0
  -27.8440  -27.1750   17.9270 C   0  0  0  0  0  3  0  0  0  0  0  0
  -26.5650  -27.6680   18.2440 C   0  0  0  0  0  3  0  0  0  0  0  0
  -25.0560  -29.0210   19.8190 C   0  0  0  0  0  2  0  0  0  0  0  0
  -25.9680  -29.2350   22.1780 N   0  0  0  0  0  0  0  0  0  0  0  0
  -24.7350  -29.1870   24.0770 O   0  0  0  0  0  0  0  0  0  0  0  0
  -24.2520  -27.4470   21.6080 C   0  0  0  0  0  0  0  0  0  0  0  0
  -23.0040  -27.1830   21.1920 N   0  0  0  0  0  0  0  0  0  0  0  0
  -24.9680  -26.6020   22.1500 O   0  0  0  0  0  0  0  0  0  0  0  0
  -22.4770  -27.9320   20.7680 H   0  0  0  0  0  0  0  0  0  0  0  0
  -19.9160  -25.4630   20.4440 C   0  0  0  0  0  0  0  0  0  0  0  0
  -22.3140  -25.8990   21.3050 C   0  0  0  0  0  3  0  0  0  0  0  0
  -22.7780  -24.9170   20.2030 C   0  0  0  0  0  2  0  0  0  0  0  0
  -21.8940  -24.9480   18.9520 C   0  0  0  0  0  2  0  0  0  0  0  0
  -20.4460  -24.6060   19.3070 C   0  0  0  0  0  2  0  0  0  0  0  0
  -20.7950  -26.0820   21.3740 C   0  0  0  0  0  0  0  0  0  0  0  0
  -20.2510  -26.8970   22.3910 C   0  0  0  0  0  3  0  0  0  0  0  0
  -18.8590  -27.0930   22.4910 C   0  0  0  0  0  3  0  0  0  0  0  0
  -17.9950  -26.4670   21.5760 C   0  0  0  0  0  3  0  0  0  0  0  0
  -18.5240  -25.6520   20.5580 C   0  0  0  0  0  3  0  0  0  0  0  0
  -27.0510  -29.6860   24.4470 C   0  0  0  0  0  3  0  0  0  0  0  0
  -27.3560  -28.5690   25.5190 C   0  0  1  0  0  0  0  0  0  0  0  0
  -26.1260  -28.1640   26.3620 C   0  0  0  0  0  1  0  0  0  0  0  0
  -27.9030  -27.2940   24.8380 C   0  0  0  0  0  1  0  0  0  0  0  0
  -28.4540  -29.0640   26.4910 C   0  0  0  0  0  1  0  0  0  0  0  0
  -26.7630  -30.9710   25.1010 N   0  0  0  0  0  0  0  0  0  0  0  0
  -27.2850  -32.1460   24.7280 C   0  0  0  0  0  0  0  0  0  0  0  0
  -28.1280  -32.2520   23.8310 O   0  0  0  0  0  0  0  0  0  0  0  0
  -26.0430  -30.9670   25.8080 H   0  0  0  0  0  0  0  0  0  0  0  0
  -25.7820  -34.1550   24.5840 C   0  0  0  0  0  1  0  0  0  0  0  0
  -26.7940  -33.4060   25.4650 C   0  0  0  0  0  3  0  0  0  0  0  0
  -28.7390  -33.7800   26.9150 C   0  0  0  0  0  1  0  0  0  0  0  0
  -27.8870  -34.3210   25.8600 N   0  0  0  0  0  0  0  0  0  0  0  0
  -27.5130  -35.2110   26.1780 H   0  0  0  0  0  0  0  0  0  0  0  0
  -26.3300  -22.0330   21.8700 C   0  0  0  0  0  2  0  0  0  0  0  0
  -27.5220  -21.9170   21.1060 O   0  0  0  0  0  0  0  0  0  0  0  0
  -28.1920  -20.6700   21.2780 C   0  0  0  0  0  2  0  0  0  0  0  0
  -32.0990  -15.7430   19.6010 C   0  0  0  0  0  0  0  0  0  0  0  0
  -31.8820  -13.4270   18.8020 C   0  0  0  0  0  2  0  0  0  0  0  0
  -30.8940  -13.4000   17.6160 C   0  0  0  0  0  2  0  0  0  0  0  0
  -29.4420  -13.2480   18.1160 C   0  0  0  0  0  2  0  0  0  0  0  0
  -29.0930  -14.2470   19.2510 C   0  0  0  0  0  3  0  0  0  0  0  0
  -30.1910  -14.2510   20.3340 C   0  0  0  0  0  2  0  0  0  0  0  0
  -31.4800  -14.5350   19.6790 N   0  0  0  0  0  0  0  0  0  0  0  0
  -33.2040  -15.8910   19.0670 O   0  0  0  0  0  0  0  0  0  0  0  0
  -29.1480  -20.4290   20.0940 C   0  0  0  0  0  0  0  0  0  0  0  0
  -31.1030  -19.2390   19.1610 C   0  0  0  0  0  2  0  0  0  0  0  0
  -30.0560  -18.4310   21.2610 C   0  0  0  0  0  2  0  0  0  0  0  0
  -31.1360  -17.7750   18.6940 C   0  0  0  0  0  2  0  0  0  0  0  0
  -31.2020  -17.3990   21.1530 C   0  0  0  0  0  2  0  0  0  0  0  0
  -30.0540  -19.4240   20.1730 N   0  0  0  0  0  0  0  0  0  0  0  0
  -31.3010  -16.8150   19.8040 N   0  0  0  0  0  0  0  0  0  0  0  0
  -29.0810  -21.1810   19.1150 O   0  0  0  0  0  0  0  0  0  0  0  0
  -26.7730  -14.8640   20.1800 C   0  0  0  0  0  0  0  0  0  0  0  0
  -25.7240  -14.0940   20.6000 C   0  0  0  0  0  0  0  0  0  0  0  0
  -26.1570  -12.7370   20.4860 C   0  0  0  0  0  0  0  0  0  0  0  0
  -27.7790  -13.9760   19.8270 N   0  0  0  0  0  0  0  0  0  0  0  0
  -27.4160  -12.6910   20.0690 N   0  0  0  0  0  0  0  0  0  0  0  0
  -25.4310  -11.4780   20.6930 C   0  0  0  0  0  0  0  0  0  0  0  0
  -25.7040  -10.6440   21.7990 C   0  0  0  0  0  3  0  0  0  0  0  0
  -24.9790   -9.4460   21.9870 C   0  0  0  0  0  3  0  0  0  0  0  0
  -23.9700   -9.0740   21.0700 C   0  0  0  0  0  0  0  0  0  0  0  0
  -23.7180   -9.8990   19.9580 C   0  0  0  0  0  3  0  0  0  0  0  0
  -24.4430  -11.0870   19.7690 C   0  0  0  0  0  3  0  0  0  0  0  0
  -23.2330   -7.9200   21.1580 O   0  0  0  0  0  0  0  0  0  0  0  0
  -22.6250   -7.5400   22.3290 C   0  0  0  0  0  0  0  0  0  0  0  0
  -21.8350   -8.4340   23.0840 C   0  0  0  0  0  3  0  0  0  0  0  0
  -21.1720   -7.9830   24.2410 C   0  0  0  0  0  3  0  0  0  0  0  0
  -21.2900   -6.6380   24.6420 C   0  0  0  0  0  0  0  0  0  0  0  0
  -22.0730   -5.7450   23.8900 C   0  0  0  0  0  3  0  0  0  0  0  0
  -22.7360   -6.1940   22.7360 C   0  0  0  0  0  0  0  0  0  0  0  0
  -23.4710   -5.3250   22.0010 F   0  0  0  0  0  0  0  0  0  0  0  0
  -20.6480   -6.2020   25.7510 F   0  0  0  0  0  0  0  0  0  0  0  0
  -24.3590  -14.5780   20.9990 C   0  0  0  0  0  0  0  0  0  0  0  0
  -23.6630  -13.8290   21.8450 N   0  0  0  0  0  0  0  0  0  0  0  0
  -23.9200  -15.6540   20.5910 O   0  0  0  0  0  0  0  0  0  0  0  0
  -24.0330  -12.9580   22.1990 H   0  0  0  0  0  0  0  0  0  0  0  0
  -22.7470  -14.1290   22.1470 H   0  0  0  0  0  0  0  0  0  0  0  0
  -26.9540  -16.2390   20.0540 N   0  0  0  0  0  0  0  0  0  0  0  0
  -26.2270  -16.9020   20.2940 H   0  0  0  0  0  0  0  0  0  0  0  0
  -27.8080  -16.6780   19.7380 H   0  0  0  0  0  0  0  0  0  0  0  0
  2  1  1  0
  3  2  1  0
  4  5  1  0
  4  3  1  0
  6  7  1  0
  6  5  1  0
  8 10  1  0
  8  7  1  0
  9 20  2  0
 10 15  1  0
 11 21  1  0
 11 19  1  0
 12 18  1  0
 12 14  1  0
 13 19  1  0
 14 13  1  0
 15 14  2  0
 16 17  1  0
 16 10  2  0
 17 12  2  0
 18 11  1  0
 19  9  1  0
 21 23  2  0
 22 21  1  0
 24 22  1  0
 25 34  2  0
 25 30  1  0
 26 22  1  0
 26 30  1  0
 27 26  1  0
 28 29  1  0
 28 27  1  0
 29 25  1  0
 30 31  2  0
 31 32  1  0
 33 32  2  0
 34 33  1  0
 35  9  1  0
 35 40  1  0
 35 36  1  0
 36 37  1  1
 36 39  1  0
 38 36  1  0
 40 43  1  0
 41 40  1  0
 41 45  1  0
 42 41  2  0
 45 44  1  0
 45 47  1  0
 47 48  1  0
 47 46  1  0
 49  1  1  0
 50 51  1  0
 50 49  1  0
 52 58  1  0
 52 66  1  0
 53 58  1  0
 54 55  1  0
 54 53  1  0
 56 55  1  0
 56 71  1  0
 56 57  1  0
 58 57  1  0
 59 52  2  0
 60 65  1  0
 60 51  1  0
 61 65  1  0
 63 61  1  0
 63 66  1  0
 64 62  1  0
 65 62  1  0
 66 64  1  0
 67 60  2  0
 68 69  2  0
 69 88  1  0
 70 69  1  0
 70 73  1  0
 71 72  1  0
 71 68  1  0
 72 70  2  0
 73 74  1  0
 74 75  2  0
 76 79  1  0
 76 75  1  0
 77 76  2  0
 78 77  1  0
 78 73  2  0
 79 80  1  0
 80 85  2  0
 80 81  1  0
 81 82  2  0
 82 83  1  0
 83 87  1  0
 84 83  2  0
 85 84  1  0
 86 85  1  0
 88 89  1  0
 89 92  1  0
 89 91  1  0
 90 88  2  0
 93 68  1  0
 93 94  1  0
 95 93  1  0
M  ISO  4   7 101   8 101  52 100  66 100
M  END
>  <TORSDO>  (29) 
F 25

>  <SCORE>  (29) 
-4.523

>  <name>  (29) 
30

>  <ligand_id>  (29) 
30

>  <original_smiles>  (29) 
[H]c1c([H])c([H])c2c(c1[H])C([H])([H])C([H])([H])C([H])([H])C2([H])N([H])C(=O)C1([H])N(C(=O)C([H])(N([H])C(=O)C([H])(N([H])C([H])([H])[H])C([H])([H])[H])C(C([H])([H])[H])(C([H])([H])[H])C([H])([H])[H])C([H])([H])c2c([H])c(OC([H])([H])C([H])([H])OC([H])([H])C([H])([H])OC([H])([H])C([H])([H])OC([H])([H])C(=O)N3C([H])([H])C([H])([H])N(C(=O)N4C([H])([H])C([H])([H])C([H])([H])C([H])(n5nc(-c6c([H])c([H])c(Oc7c([H])c([H])c(F)c([H])c7F)c([H])c6[H])c(C(=O)N([H])[H])c5N([H])[H])C4([H])[H])C([H])([H])C3([H])[H])c([H])c([H])c2C1([H])[H]

>  <smiles>  (29) 
[H]c1c([H])c([H])c2c(c1[H])C([H])([H])C([H])([H])C([H])([H])C2([H])N([H])C(=O)C1([H])N(C(=O)C([H])(N([H])C(=O)C([H])(N([H])C([H])([H])[H])C([H])([H])[H])C(C([H])([H])[H])(C([H])([H])[H])C([H])([H])[H])C([H])([H])c2c([H])c(OC([H])([H])C([H])([H])OC([H])([H])C([H])([H])OC([H])([H])C([H])([H])OC([H])([H])C(=O)N3C([H])([H])C([H])([H])N(C(=O)N4C([H])([H])C([H])([H])C([H])([H])C([H])(n5nc(-c6c([H])c([H])c(Oc7c([H])c([H])c(F)c([H])c7F)c([H])c6[H])c(C(=O)N([H])[H])c5N([H])[H])C4([H])[H])C([H])([H])C3([H])[H])c([H])c([H])c2C1([H])[H]

$$$$
31:0:0
     RDKit          3D

104112  0  0  1  0  0  0  0  0999 V2000
  -25.5930  -22.5670   19.3240 C   0  0  0  0  0  2  0  0  0  0  0  0
  -26.9830  -22.6300   19.0330 O   0  0  0  0  0  0  0  0  0  0  0  0
  -27.7940  -22.1460   20.0940 C   0  0  0  0  0  2  0  0  0  0  0  0
  -29.2190  -22.6290   19.8160 C   0  0  0  0  0  2  0  0  0  0  0  0
  -29.6350  -22.2820   18.4370 N   0  0  0  0  0  4  0  0  0  0  0  0
  -29.8250  -21.2950   18.3770 H   0  0  0  0  0  0  0  0  0  0  0  0
  -28.8620  -22.4780   17.8190 H   0  0  0  0  0  0  0  0  0  0  0  0
  -30.8200  -23.0200   17.9680 C   0  0  0  0  0  2  0  0  0  0  0  0
  -32.6570  -21.4100   15.0080 C   0  0  0  0  0  3  0  0  0  0  0  0
  -30.9120  -22.8720   14.1320 C   0  0  0  0  0  3  0  0  0  0  0  0
  -32.2650  -21.7280   16.3230 C   0  0  0  0  0  3  0  0  0  0  0  0
  -30.5170  -23.1870   15.4470 C   0  0  0  0  0  3  0  0  0  0  0  0
  -31.9920  -21.9910   13.9100 C   0  0  0  0  0  0  0  0  0  0  0  0
  -31.2000  -22.6280   16.5490 C   0  0  0  0  0  0  0  0  0  0  0  0
  -32.4500  -21.6800   12.4990 C   0  0  0  0  0  2  0  0  0  0  0  0
  -31.4790  -19.5650   11.6230 C   0  0  0  0  0  0  0  0  0  0  0  0
  -31.0910  -17.5770   10.2230 C   0  0  0  0  0  2  0  0  0  0  0  0
  -30.2250  -16.5010   10.8970 C   0  0  0  0  0  2  0  0  0  0  0  0
  -31.0990  -15.5590   11.7420 C   0  0  0  0  0  2  0  0  0  0  0  0
  -32.0330  -16.3310   12.7100 C   0  0  0  0  0  3  0  0  0  0  0  0
  -32.7990  -17.4490   11.9680 C   0  0  0  0  0  2  0  0  0  0  0  0
  -31.8320  -18.3090   11.2590 N   0  0  0  0  0  0  0  0  0  0  0  0
  -30.4270  -20.1090   11.2750 O   0  0  0  0  0  0  0  0  0  0  0  0
  -32.4570  -20.2480   12.2250 N   0  0  0  0  0  0  0  0  0  0  0  0
  -33.3120  -19.7460   12.4150 H   0  0  0  0  0  0  0  0  0  0  0  0
  -33.2150  -15.3110   14.7600 C   0  0  0  0  0  0  0  0  0  0  0  0
  -34.0840  -14.2600   14.8850 C   0  0  0  0  0  0  0  0  0  0  0  0
  -34.2980  -13.7650   13.5630 C   0  0  0  0  0  0  0  0  0  0  0  0
  -32.9440  -15.4210   13.4040 N   0  0  0  0  0  0  0  0  0  0  0  0
  -33.6470  -14.5130   12.6810 N   0  0  0  0  0  0  0  0  0  0  0  0
  -35.0390  -12.5890   13.0900 C   0  0  0  0  0  0  0  0  0  0  0  0
  -36.0580  -12.6980   12.1180 C   0  0  0  0  0  3  0  0  0  0  0  0
  -36.7690  -11.5550   11.6930 C   0  0  0  0  0  3  0  0  0  0  0  0
  -36.4660  -10.2870   12.2420 C   0  0  0  0  0  0  0  0  0  0  0  0
  -35.4350  -10.1790   13.1920 C   0  0  0  0  0  3  0  0  0  0  0  0
  -34.7250  -11.3170   13.6100 C   0  0  0  0  0  3  0  0  0  0  0  0
  -37.0850   -9.1170   11.8690 O   0  0  0  0  0  0  0  0  0  0  0  0
  -38.3740   -9.1030   11.4000 C   0  0  0  0  0  0  0  0  0  0  0  0
  -39.4500   -9.6070   12.1610 C   0  0  0  0  0  3  0  0  0  0  0  0
  -40.7670   -9.5100   11.6690 C   0  0  0  0  0  3  0  0  0  0  0  0
  -41.0100   -8.9030   10.4220 C   0  0  0  0  0  0  0  0  0  0  0  0
  -39.9390   -8.3960    9.6650 C   0  0  0  0  0  3  0  0  0  0  0  0
  -38.6250   -8.4940   10.1540 C   0  0  0  0  0  0  0  0  0  0  0  0
  -37.6000   -7.9830    9.4300 F   0  0  0  0  0  0  0  0  0  0  0  0
  -42.2750   -8.8010    9.9520 F   0  0  0  0  0  0  0  0  0  0  0  0
  -34.6120  -13.6840   16.1660 C   0  0  0  0  0  0  0  0  0  0  0  0
  -35.8250  -13.1430   16.1410 N   0  0  0  0  0  0  0  0  0  0  0  0
  -33.9680  -13.7540   17.2120 O   0  0  0  0  0  0  0  0  0  0  0  0
  -36.3630  -13.1050   15.2880 H   0  0  0  0  0  0  0  0  0  0  0  0
  -36.2230  -12.7630   16.9880 H   0  0  0  0  0  0  0  0  0  0  0  0
  -32.6230  -16.1700   15.6810 N   0  0  0  0  0  0  0  0  0  0  0  0
  -32.7720  -16.0810   16.6790 H   0  0  0  0  0  0  0  0  0  0  0  0
  -31.9770  -16.9110   15.4390 H   0  0  0  0  0  0  0  0  0  0  0  0
  -24.8230  -22.8080   18.0220 C   0  0  0  0  0  2  0  0  0  0  0  0
  -24.7650  -24.2010   17.7480 O   0  0  0  0  0  0  0  0  0  0  0  0
  -24.0850  -24.4740   16.5280 C   0  0  0  0  0  2  0  0  0  0  0  0
  -24.2490  -25.9500   16.1480 C   0  0  0  0  0  2  0  0  0  0  0  0
  -25.6270  -26.2930   16.2230 O   0  0  0  0  0  0  0  0  0  0  0  0
  -25.8840  -27.6510   15.8930 C   0  0  0  0  0  2  0  0  0  0  0  0
  -27.2760  -28.0200   16.4190 C   0  0  0  0  0  2  0  0  0  0  0  0
  -27.1980  -28.0170   17.8370 O   0  0  0  0  0  0  0  0  0  0  0  0
  -28.2620  -27.3350   18.4840 C   0  0  0  0  0  2  0  0  0  0  0  0
  -28.2290  -27.7440   19.9600 C   0  0  0  0  0  2  0  0  0  0  0  0
  -27.1180  -27.0820   20.5620 O   0  0  0  0  0  0  0  0  0  0  0  0
  -27.2010  -31.8520   25.8850 C   0  0  0  0  0  0  0  0  0  0  0  0
  -26.5090  -27.6630   21.6510 C   0  0  0  0  0  0  0  0  0  0  0  0
  -25.4200  -30.1350   25.9850 C   0  0  0  0  0  3  0  0  0  0  0  0
  -25.1310  -28.7200   23.8850 C   0  0  0  0  0  0  0  0  0  0  0  0
  -26.3890  -30.8770   23.7440 C   0  0  0  0  0  2  0  0  0  0  0  0
  -26.1070  -29.4830   23.2320 C   0  0  0  0  0  0  0  0  0  0  0  0
  -26.8040  -28.9610   22.1260 C   0  0  0  0  0  3  0  0  0  0  0  0
  -25.5280  -26.9000   22.3210 C   0  0  0  0  0  3  0  0  0  0  0  0
  -24.8380  -27.4190   23.4360 C   0  0  0  0  0  3  0  0  0  0  0  0
  -24.4340  -29.3710   25.0590 C   0  0  0  0  0  2  0  0  0  0  0  0
  -26.3950  -30.9780   25.2200 N   0  0  0  0  0  0  0  0  0  0  0  0
  -27.1120  -31.9990   27.1120 O   0  0  0  0  0  0  0  0  0  0  0  0
  -26.1000  -29.1180   26.9270 C   0  0  0  0  0  0  0  0  0  0  0  0
  -25.5930  -29.0200   28.1650 N   0  0  0  0  0  0  0  0  0  0  0  0
  -27.0400  -28.4220   26.5340 O   0  0  0  0  0  0  0  0  0  0  0  0
  -24.8290  -29.6360   28.4120 H   0  0  0  0  0  0  0  0  0  0  0  0
  -25.2770  -28.2350   31.6770 C   0  0  0  0  0  0  0  0  0  0  0  0
  -26.0430  -28.1030   29.2120 C   0  0  0  0  0  3  0  0  0  0  0  0
  -25.2720  -26.7650   29.1480 C   0  0  0  0  0  2  0  0  0  0  0  0
  -24.0380  -26.7360   30.0550 C   0  0  0  0  0  2  0  0  0  0  0  0
  -24.4380  -26.9790   31.5140 C   0  0  0  0  0  2  0  0  0  0  0  0
  -26.0180  -28.7710   30.5910 C   0  0  0  0  0  0  0  0  0  0  0  0
  -26.7520  -29.9610   30.7850 C   0  0  0  0  0  3  0  0  0  0  0  0
  -26.7600  -30.6080   32.0350 C   0  0  0  0  0  3  0  0  0  0  0  0
  -26.0350  -30.0650   33.1110 C   0  0  0  0  0  3  0  0  0  0  0  0
  -25.2990  -28.8810   32.9300 C   0  0  0  0  0  3  0  0  0  0  0  0
  -28.2550  -32.7260   25.1360 C   0  0  0  0  0  3  0  0  0  0  0  0
  -27.7760  -34.1130   25.1590 N   0  0  0  0  0  0  0  0  0  0  0  0
  -27.3200  -34.7780   24.0880 C   0  0  0  0  0  0  0  0  0  0  0  0
  -27.3280  -34.3020   22.9490 O   0  0  0  0  0  0  0  0  0  0  0  0
  -27.6940  -34.5470   26.0680 H   0  0  0  0  0  0  0  0  0  0  0  0
  -25.2330  -36.1720   24.2080 C   0  0  0  0  0  1  0  0  0  0  0  0
  -26.7670  -36.1970   24.3170 C   0  0  0  0  0  3  0  0  0  0  0  0
  -28.7310  -37.4880   23.6070 C   0  0  0  0  0  1  0  0  0  0  0  0
  -27.3170  -37.2000   23.3820 N   0  0  0  0  0  0  0  0  0  0  0  0
  -26.8020  -38.0740   23.4460 H   0  0  0  0  0  0  0  0  0  0  0  0
  -29.7030  -32.6230   25.7540 C   0  0  1  0  0  0  0  0  0  0  0  0
  -29.7740  -33.0350   27.2430 C   0  0  0  0  0  1  0  0  0  0  0  0
  -30.2430  -31.1800   25.6300 C   0  0  0  0  0  1  0  0  0  0  0  0
  -30.6780  -33.5300   24.9650 C   0  0  0  0  0  1  0  0  0  0  0  0
  2  1  1  0
  2  3  1  0
  4  3  1  0
  5  4  1  0
  6  5  1  0
  7  5  1  0
  8  5  1  0
  9 11  1  0
 10 12  2  0
 11 14  2  0
 12 14  1  0
 13 10  1  0
 13  9  2  0
 14  8  1  0
 15 13  1  0
 16 24  1  0
 17 18  1  0
 17 22  1  0
 18 19  1  0
 20 19  1  0
 20 29  1  0
 21 20  1  0
 22 16  1  0
 22 21  1  0
 23 16  2  0
 24 25  1  0
 24 15  1  0
 26 27  2  0
 26 51  1  0
 27 46  1  0
 28 27  1  0
 29 26  1  0
 30 29  1  0
 30 28  2  0
 31 28  1  0
 31 36  1  0
 32 31  2  0
 33 32  1  0
 33 34  2  0
 34 35  1  0
 35 36  2  0
 37 34  1  0
 38 37  1  0
 38 39  1  0
 40 39  2  0
 41 40  1  0
 42 43  1  0
 42 41  2  0
 43 38  2  0
 44 43  1  0
 45 41  1  0
 46 48  2  0
 47 46  1  0
 47 50  1  0
 49 47  1  0
 51 52  1  0
 53 51  1  0
 54  1  1  0
 55 54  1  0
 56 55  1  0
 57 58  1  0
 57 56  1  0
 59 58  1  0
 59 60  1  0
 60 61  1  0
 61 62  1  0
 62 63  1  0
 63 64  1  0
 64 66  1  0
 65 76  2  0
 66 71  2  0
 66 72  1  0
 67 77  1  0
 68 74  1  0
 69 75  1  0
 70 69  1  0
 70 68  2  0
 71 70  1  0
 72 73  2  0
 73 68  1  0
 74 67  1  0
 75 65  1  0
 75 67  1  0
 77 78  1  0
 78 80  1  0
 79 77  2  0
 81 90  1  0
 82 78  1  0
 82 86  1  0
 83 82  1  0
 83 84  1  0
 84 85  1  0
 85 81  1  0
 86 87  1  0
 86 81  2  0
 87 88  2  0
 88 89  1  0
 90 89  2  0
 91 92  1  0
 91101  1  0
 91 65  1  0
 92 95  1  0
 93 97  1  0
 93 92  1  0
 94 93  2  0
 97 96  1  0
 99100  1  0
 99 98  1  0
 99 97  1  0
101102  1  1
103101  1  0
104101  1  0
M  ISO  4  16 100  24 100  63 101  64 101
M  END
>  <TORSDO>  (30) 
F 33

>  <SCORE>  (30) 
-4.508

>  <name>  (30) 
31

>  <ligand_id>  (30) 
31

>  <original_smiles>  (30) 
[H]c1c([H])c([H])c2c(c1[H])C([H])([H])C([H])([H])C([H])([H])C2([H])N([H])C(=O)C1([H])N(C(=O)C([H])(N([H])C(=O)C([H])(N([H])C([H])([H])[H])C([H])([H])[H])C(C([H])([H])[H])(C([H])([H])[H])C([H])([H])[H])C([H])([H])c2c([H])c(OC([H])([H])C([H])([H])OC([H])([H])C([H])([H])OC([H])([H])C([H])([H])OC([H])([H])C([H])([H])OC([H])([H])C([H])([H])[N+]([H])([H])C([H])([H])c3c([H])c([H])c(C([H])([H])N([H])C(=O)N4C([H])([H])C([H])([H])C([H])([H])C([H])(n5nc(-c6c([H])c([H])c(Oc7c([H])c([H])c(F)c([H])c7F)c([H])c6[H])c(C(=O)N([H])[H])c5N([H])[H])C4([H])[H])c([H])c3[H])c([H])c([H])c2C1([H])[H]

>  <smiles>  (30) 
[H]c1c([H])c([H])c2c(c1[H])C([H])([H])C([H])([H])C([H])([H])C2([H])N([H])C(=O)C1([H])N(C(=O)C([H])(N([H])C(=O)C([H])(N([H])C([H])([H])[H])C([H])([H])[H])C(C([H])([H])[H])(C([H])([H])[H])C([H])([H])[H])C([H])([H])c2c([H])c(OC([H])([H])C([H])([H])OC([H])([H])C([H])([H])OC([H])([H])C([H])([H])OC([H])([H])C([H])([H])OC([H])([H])C([H])([H])[N+]([H])([H])C([H])([H])c3c([H])c([H])c(C([H])([H])N([H])C(=O)N4C([H])([H])C([H])([H])C([H])([H])C([H])(n5nc(-c6c([H])c([H])c(Oc7c([H])c([H])c(F)c([H])c7F)c([H])c6[H])c(C(=O)N([H])[H])c5N([H])[H])C4([H])[H])c([H])c3[H])c([H])c([H])c2C1([H])[H]

$$$$
32:0:0
     RDKit          3D

108117  0  0  1  0  0  0  0  0999 V2000
  -32.7600  -24.2890   19.3130 C   0  0  0  0  0  0  0  0  0  0  0  0
  -33.7960  -25.0000   19.7660 N   0  0  0  0  0  0  0  0  0  0  0  0
  -31.9980  -24.6830   18.4290 O   0  0  0  0  0  0  0  0  0  0  0  0
  -34.3690  -24.5810   20.4840 H   0  0  0  0  0  0  0  0  0  0  0  0
  -32.6120  -22.6640   21.2580 C   0  0  0  0  0  3  0  0  0  0  0  0
  -32.5480  -21.3400   21.7430 C   0  0  0  0  0  3  0  0  0  0  0  0
  -32.5990  -21.8140   18.9710 C   0  0  0  0  0  3  0  0  0  0  0  0
  -32.6490  -22.9040   19.8660 C   0  0  0  0  0  0  0  0  0  0  0  0
  -32.5410  -20.2490   20.8460 C   0  0  0  0  0  0  0  0  0  0  0  0
  -32.5680  -20.4950   19.4540 C   0  0  0  0  0  0  0  0  0  0  0  0
  -32.5780  -19.4670   18.5720 F   0  0  0  0  0  0  0  0  0  0  0  0
  -32.5410  -18.9650   21.3380 O   0  0  0  0  0  0  0  0  0  0  0  0
  -29.1040  -17.8380   20.5240 C   0  0  0  0  0  3  0  0  0  0  0  0
  -29.2700  -16.4440   20.5840 C   0  0  0  0  0  3  0  0  0  0  0  0
  -30.1970  -18.6910   20.7690 C   0  0  0  0  0  3  0  0  0  0  0  0
  -31.6350  -16.7480   21.1130 C   0  0  0  0  0  3  0  0  0  0  0  0
  -30.5360  -15.8950   20.8720 C   0  0  0  0  0  0  0  0  0  0  0  0
  -31.4710  -18.1510   21.0590 C   0  0  0  0  0  0  0  0  0  0  0  0
  -31.0220  -13.6440   20.0450 C   0  0  0  0  0  0  0  0  0  0  0  0
  -30.6200  -11.3820   19.1320 C   0  0  0  0  0  2  0  0  0  0  0  0
  -29.6430  -11.4290   17.9400 C   0  0  0  0  0  2  0  0  0  0  0  0
  -28.1770  -11.4010   18.4180 C   0  0  0  0  0  2  0  0  0  0  0  0
  -27.8990  -12.4340   19.5390 C   0  0  0  0  0  3  0  0  0  0  0  0
  -28.9680  -12.3180   20.6460 C   0  0  0  0  0  2  0  0  0  0  0  0
  -30.3040  -12.4930   20.0350 N   0  0  0  0  0  0  0  0  0  0  0  0
  -32.0000  -13.8550   19.3160 O   0  0  0  0  0  0  0  0  0  0  0  0
  -30.6310  -14.4920   21.0020 N   0  0  0  0  0  0  0  0  0  0  0  0
  -29.9190  -14.0760   21.5820 H   0  0  0  0  0  0  0  0  0  0  0  0
  -25.5910  -13.2620   20.3450 C   0  0  0  0  0  0  0  0  0  0  0  0
  -24.4850  -12.5900   20.7870 C   0  0  0  0  0  0  0  0  0  0  0  0
  -24.8320  -11.2040   20.7730 C   0  0  0  0  0  0  0  0  0  0  0  0
  -26.5480  -12.2900   20.0850 N   0  0  0  0  0  0  0  0  0  0  0  0
  -26.0950  -11.0490   20.3970 N   0  0  0  0  0  0  0  0  0  0  0  0
  -24.0180  -10.0110   21.0400 C   0  0  0  0  0  0  0  0  0  0  0  0
  -24.4050   -9.0560   22.0060 C   0  0  0  0  0  3  0  0  0  0  0  0
  -23.6000   -7.9240   22.2550 C   0  0  0  0  0  3  0  0  0  0  0  0
  -22.3940   -7.7390   21.5380 C   0  0  0  0  0  0  0  0  0  0  0  0
  -22.0240   -8.6820   20.5610 C   0  0  0  0  0  3  0  0  0  0  0  0
  -22.8290   -9.8050   20.3110 C   0  0  0  0  0  3  0  0  0  0  0  0
  -21.5610   -6.6580   21.6950 O   0  0  0  0  0  0  0  0  0  0  0  0
  -21.4750   -5.9810   22.8860 C   0  0  0  0  0  0  0  0  0  0  0  0
  -21.0940   -6.6260   24.0830 C   0  0  0  0  0  3  0  0  0  0  0  0
  -20.9500   -5.8800   25.2690 C   0  0  0  0  0  3  0  0  0  0  0  0
  -21.1760   -4.4900   25.2590 C   0  0  0  0  0  0  0  0  0  0  0  0
  -21.5480   -3.8450   24.0670 C   0  0  0  0  0  3  0  0  0  0  0  0
  -21.6960   -4.5890   22.8820 C   0  0  0  0  0  0  0  0  0  0  0  0
  -22.0350   -3.9600   21.7320 F   0  0  0  0  0  0  0  0  0  0  0  0
  -21.0300   -3.7720   26.3960 F   0  0  0  0  0  0  0  0  0  0  0  0
  -23.1460  -13.1870   21.1170 C   0  0  0  0  0  0  0  0  0  0  0  0
  -22.4120  -12.5800   22.0410 N   0  0  0  0  0  0  0  0  0  0  0  0
  -22.7600  -14.2290   20.5850 O   0  0  0  0  0  0  0  0  0  0  0  0
  -22.7360  -11.7400   22.4980 H   0  0  0  0  0  0  0  0  0  0  0  0
  -21.5140  -12.9650   22.2990 H   0  0  0  0  0  0  0  0  0  0  0  0
  -25.8610  -14.6110   20.1280 N   0  0  0  0  0  0  0  0  0  0  0  0
  -25.1670  -15.3380   20.2720 H   0  0  0  0  0  0  0  0  0  0  0  0
  -26.7230  -14.9630   19.7320 H   0  0  0  0  0  0  0  0  0  0  0  0
  -34.2420  -26.2760   19.2170 C   0  0  0  0  0  2  0  0  0  0  0  0
  -33.3440  -27.4380   19.6610 C   0  0  0  0  0  2  0  0  0  0  0  0
  -33.2990  -27.4790   21.0810 O   0  0  0  0  0  0  0  0  0  0  0  0
  -32.5700  -28.6010   21.5610 C   0  0  0  0  0  2  0  0  0  0  0  0
  -32.5130  -28.5570   23.0960 C   0  0  0  0  0  2  0  0  0  0  0  0
  -31.6310  -27.5340   23.5470 O   0  0  0  0  0  0  0  0  0  0  0  0
  -30.2680  -27.9390   23.6430 C   0  0  0  0  0  2  0  0  0  0  0  0
  -29.4410  -26.7440   24.1380 C   0  0  0  0  0  2  0  0  0  0  0  0
  -29.2710  -25.7380   23.1360 O   0  0  0  0  0  0  0  0  0  0  0  0
  -28.2320  -25.9890   22.1890 C   0  0  0  0  0  2  0  0  0  0  0  0
  -28.8000  -26.3490   20.7960 C   0  0  0  0  0  2  0  0  0  0  0  0
  -27.8100  -26.2900   19.7660 O   0  0  0  0  0  0  0  0  0  0  0  0
  -24.3830  -31.6100   23.0720 C   0  0  0  0  0  0  0  0  0  0  0  0
  -26.7250  -27.1340   19.8390 C   0  0  0  0  0  0  0  0  0  0  0  0
  -23.0630  -30.3150   21.4240 C   0  0  0  0  0  3  0  0  0  0  0  0
  -24.3990  -28.7350   19.9340 C   0  0  0  0  0  0  0  0  0  0  0  0
  -25.5930  -30.5550   21.1710 C   0  0  0  0  0  2  0  0  0  0  0  0
  -25.5910  -29.1990   20.5020 C   0  0  0  0  0  0  0  0  0  0  0  0
  -26.7570  -28.4100   20.4470 C   0  0  0  0  0  3  0  0  0  0  0  0
  -25.5200  -26.6850   19.2620 C   0  0  0  0  0  3  0  0  0  0  0  0
  -24.3550  -27.4760   19.3080 C   0  0  0  0  0  3  0  0  0  0  0  0
  -23.2030  -29.6550   20.0250 C   0  0  0  0  0  2  0  0  0  0  0  0
  -24.3670  -30.8390   21.9470 N   0  0  0  0  0  0  0  0  0  0  0  0
  -23.3320  -31.9270   23.6440 O   0  0  0  0  0  0  0  0  0  0  0  0
  -22.3810  -29.3090   22.3790 C   0  0  0  0  0  0  0  0  0  0  0  0
  -21.0460  -29.2080   22.2830 N   0  0  0  0  0  0  0  0  0  0  0  0
  -23.0470  -28.6270   23.1610 O   0  0  0  0  0  0  0  0  0  0  0  0
  -20.5730  -29.8090   21.6220 H   0  0  0  0  0  0  0  0  0  0  0  0
  -17.6190  -28.2170   22.8500 C   0  0  0  0  0  0  0  0  0  0  0  0
  -20.1940  -28.3010   23.0520 C   0  0  0  0  0  3  0  0  0  0  0  0
  -20.1900  -26.8830   22.4360 C   0  0  0  0  0  2  0  0  0  0  0  0
  -19.0410  -26.6610   21.4460 C   0  0  0  0  0  2  0  0  0  0  0  0
  -17.6890  -26.8790   22.1330 C   0  0  0  0  0  2  0  0  0  0  0  0
  -18.7970  -28.8900   23.2670 C   0  0  0  0  0  0  0  0  0  0  0  0
  -18.6770  -30.1470   23.9000 C   0  0  0  0  0  3  0  0  0  0  0  0
  -17.4130  -30.7290   24.1160 C   0  0  0  0  0  3  0  0  0  0  0  0
  -16.2500  -30.0480   23.7170 C   0  0  0  0  0  3  0  0  0  0  0  0
  -16.3550  -28.7930   23.0910 C   0  0  0  0  0  3  0  0  0  0  0  0
  -25.7190  -32.1520   23.6750 C   0  0  0  0  0  3  0  0  0  0  0  0
  -25.4870  -33.5470   24.0750 N   0  0  0  0  0  0  0  0  0  0  0  0
  -25.8530  -34.6140   23.3520 C   0  0  0  0  0  0  0  0  0  0  0  0
  -26.4880  -34.5200   22.2970 O   0  0  0  0  0  0  0  0  0  0  0  0
  -24.9230  -33.7000   24.8970 H   0  0  0  0  0  0  0  0  0  0  0  0
  -24.2040  -36.4960   23.1190 C   0  0  0  0  0  1  0  0  0  0  0  0
  -25.4460  -36.0030   23.8790 C   0  0  0  0  0  3  0  0  0  0  0  0
  -27.6450  -36.7470   24.6830 C   0  0  0  0  0  1  0  0  0  0  0  0
  -26.5270  -37.0070   23.7790 N   0  0  0  0  0  0  0  0  0  0  0  0
  -26.1710  -37.9390   23.9740 H   0  0  0  0  0  0  0  0  0  0  0  0
  -26.2430  -31.3000   24.8970 C   0  0  1  0  0  0  0  0  0  0  0  0
  -25.1770  -31.0700   25.9930 C   0  0  0  0  0  1  0  0  0  0  0  0
  -26.7440  -29.9180   24.4220 C   0  0  0  0  0  1  0  0  0  0  0  0
  -27.4530  -32.0090   25.5520 C   0  0  0  0  0  1  0  0  0  0  0  0
  1  2  1  0
  1  8  1  0
  2  4  1  0
  3  1  2  0
  5  6  1  0
  7 10  2  0
  7  8  1  0
  8  5  2  0
  9 12  1  0
  9  6  2  0
 10  9  1  0
 11 10  1  0
 13 14  2  0
 13 15  1  0
 14 17  1  0
 15 18  2  0
 17 27  1  0
 17 16  2  0
 18 16  1  0
 18 12  1  0
 19 27  1  0
 20 25  1  0
 21 22  1  0
 21 20  1  0
 23 22  1  0
 23 32  1  0
 23 24  1  0
 25 19  1  0
 25 24  1  0
 26 19  2  0
 27 28  1  0
 29 30  2  0
 30 49  1  0
 31 30  1  0
 31 34  1  0
 32 29  1  0
 32 33  1  0
 33 31  2  0
 34 35  1  0
 35 36  2  0
 37 40  1  0
 37 36  1  0
 38 37  2  0
 39 38  1  0
 39 34  2  0
 40 41  1  0
 41 42  1  0
 42 43  2  0
 44 43  1  0
 44 48  1  0
 45 44  2  0
 46 41  2  0
 46 45  1  0
 47 46  1  0
 49 50  1  0
 50 53  1  0
 50 52  1  0
 51 49  2  0
 54 55  1  0
 54 29  1  0
 56 54  1  0
 57 58  1  0
 57  2  1  0
 58 59  1  0
 59 60  1  0
 60 61  1  0
 61 62  1  0
 62 63  1  0
 63 64  1  0
 65 64  1  0
 66 65  1  0
 67 66  1  0
 68 70  1  0
 68 67  1  0
 69 80  2  0
 70 75  1  0
 71 79  1  0
 71 81  1  0
 72 78  1  0
 72 74  1  0
 73 79  1  0
 74 73  1  0
 75 74  2  0
 76 77  1  0
 76 70  2  0
 77 72  2  0
 78 71  1  0
 79 69  1  0
 81 83  2  0
 82 81  1  0
 84 82  1  0
 85 94  2  0
 85 90  1  0
 86 82  1  0
 86 90  1  0
 87 86  1  0
 88 89  1  0
 88 87  1  0
 89 85  1  0
 90 91  2  0
 91 92  1  0
 93 92  2  0
 94 93  1  0
 95 69  1  0
 95 96  1  0
 95105  1  0
 96 99  1  0
 97101  1  0
 97 96  1  0
 98 97  2  0
101100  1  0
103101  1  0
103104  1  0
103102  1  0
105108  1  1
105106  1  0
107105  1  0
M  ISO  4  19 100  27 100  67 101  68 101
M  END
>  <TORSDO>  (31) 
F 30

>  <SCORE>  (31) 
-9.791

>  <name>  (31) 
32

>  <ligand_id>  (31) 
32

>  <original_smiles>  (31) 
[H]c1c([H])c(Oc2c([H])c([H])c(C(=O)N([H])C([H])([H])C([H])([H])OC([H])([H])C([H])([H])OC([H])([H])C([H])([H])OC([H])([H])C([H])([H])Oc3c([H])c([H])c4c(c3[H])C([H])([H])N(C(=O)C([H])(N([H])C(=O)C([H])(N([H])C([H])([H])[H])C([H])([H])[H])C(C([H])([H])[H])(C([H])([H])[H])C([H])([H])[H])C([H])(C(=O)N([H])C3([H])c5c([H])c([H])c([H])c([H])c5C([H])([H])C([H])([H])C3([H])[H])C4([H])[H])c([H])c2F)c([H])c(N([H])C(=O)N2C([H])([H])C([H])([H])C([H])([H])C([H])(n3nc(-c4c([H])c([H])c(Oc5c([H])c([H])c(F)c([H])c5F)c([H])c4[H])c(C(=O)N([H])[H])c3N([H])[H])C2([H])[H])c1[H]

>  <smiles>  (31) 
[H]c1c([H])c(Oc2c([H])c([H])c(C(=O)N([H])C([H])([H])C([H])([H])OC([H])([H])C([H])([H])OC([H])([H])C([H])([H])OC([H])([H])C([H])([H])Oc3c([H])c([H])c4c(c3[H])C([H])([H])N(C(=O)C([H])(N([H])C(=O)C([H])(N([H])C([H])([H])[H])C([H])([H])[H])C(C([H])([H])[H])(C([H])([H])[H])C([H])([H])[H])C([H])(C(=O)N([H])C3([H])c5c([H])c([H])c([H])c([H])c5C([H])([H])C([H])([H])C3([H])[H])C4([H])[H])c([H])c2F)c([H])c(N([H])C(=O)N2C([H])([H])C([H])([H])C([H])([H])C([H])(n3nc(-c4c([H])c([H])c(Oc5c([H])c([H])c(F)c([H])c5F)c([H])c4[H])c(C(=O)N([H])[H])c3N([H])[H])C2([H])[H])c1[H]

$$$$
33:0:0
     RDKit          3D

 99107  0  0  1  0  0  0  0  0999 V2000
  -24.8590  -20.1140   17.1900 O   0  0  0  0  0  0  0  0  0  0  0  0
  -25.5130  -18.8490   17.1650 C   0  0  0  0  0  2  0  0  0  0  0  0
  -26.8370  -18.9330   17.9450 C   0  0  0  0  0  2  0  0  0  0  0  0
  -27.4350  -17.5470   18.2410 C   0  0  0  0  0  2  0  0  0  0  0  0
  -28.4500  -17.6260   19.2450 O   0  0  0  0  0  0  0  0  0  0  0  0
  -32.2570  -19.2060   18.3600 C   0  0  0  0  0  3  0  0  0  0  0  0
  -31.3500  -18.9770   17.3120 C   0  0  0  0  0  3  0  0  0  0  0  0
  -31.8830  -18.9110   19.6820 C   0  0  0  0  0  3  0  0  0  0  0  0
  -30.0700  -18.4610   17.5880 C   0  0  0  0  0  3  0  0  0  0  0  0
  -30.6120  -18.3680   19.9700 C   0  0  0  0  0  0  0  0  0  0  0  0
  -29.6840  -18.1540   18.9190 C   0  0  0  0  0  0  0  0  0  0  0  0
  -30.2910  -17.9920   21.4190 C   0  0  0  0  0  2  0  0  0  0  0  0
  -30.9160  -15.5850   21.3240 C   0  0  0  0  0  0  0  0  0  0  0  0
  -30.8570  -13.5820   19.9210 C   0  0  0  0  0  2  0  0  0  0  0  0
  -30.0570  -13.9520   18.6540 C   0  0  0  0  0  2  0  0  0  0  0  0
  -28.5490  -13.7230   18.8800 C   0  0  0  0  0  2  0  0  0  0  0  0
  -28.0310  -14.3590   20.1980 C   0  0  0  0  0  3  0  0  0  0  0  0
  -28.9600  -14.0090   21.3830 C   0  0  0  0  0  2  0  0  0  0  0  0
  -30.3300  -14.4020   21.0180 N   0  0  0  0  0  0  0  0  0  0  0  0
  -32.1060  -15.8300   21.1150 O   0  0  0  0  0  0  0  0  0  0  0  0
  -30.0460  -16.5620   21.6080 N   0  0  0  0  0  0  0  0  0  0  0  0
  -29.0890  -16.2890   21.7630 H   0  0  0  0  0  0  0  0  0  0  0  0
  -25.5110  -14.7880   20.5000 C   0  0  0  0  0  0  0  0  0  0  0  0
  -24.4600  -13.9400   20.7120 C   0  0  0  0  0  0  0  0  0  0  0  0
  -25.0230  -12.6310   20.8110 C   0  0  0  0  0  0  0  0  0  0  0  0
  -26.6440  -13.9900   20.4650 N   0  0  0  0  0  0  0  0  0  0  0  0
  -26.3440  -12.6890   20.7110 N   0  0  0  0  0  0  0  0  0  0  0  0
  -24.3750  -11.3190   20.9390 C   0  0  0  0  0  0  0  0  0  0  0  0
  -24.7170  -10.4290   21.9810 C   0  0  0  0  0  3  0  0  0  0  0  0
  -24.0710   -9.1800   22.0950 C   0  0  0  0  0  3  0  0  0  0  0  0
  -23.0680   -8.8120   21.1670 C   0  0  0  0  0  0  0  0  0  0  0  0
  -22.7470   -9.6930   20.1180 C   0  0  0  0  0  3  0  0  0  0  0  0
  -23.3940  -10.9330   20.0040 C   0  0  0  0  0  3  0  0  0  0  0  0
  -22.4070   -7.6090   21.1830 O   0  0  0  0  0  0  0  0  0  0  0  0
  -22.1510   -6.9420   22.3540 C   0  0  0  0  0  0  0  0  0  0  0  0
  -21.4550   -7.5520   23.4220 C   0  0  0  0  0  3  0  0  0  0  0  0
  -21.1560   -6.8090   24.5810 C   0  0  0  0  0  3  0  0  0  0  0  0
  -21.5400   -5.4590   24.6720 C   0  0  0  0  0  0  0  0  0  0  0  0
  -22.2260   -4.8480   23.6080 C   0  0  0  0  0  3  0  0  0  0  0  0
  -22.5270   -5.5880   22.4510 C   0  0  0  0  0  0  0  0  0  0  0  0
  -23.1730   -4.9910   21.4190 F   0  0  0  0  0  0  0  0  0  0  0  0
  -21.2440   -4.7410   25.7810 F   0  0  0  0  0  0  0  0  0  0  0  0
  -23.0040  -14.3070   20.7370 C   0  0  0  0  0  0  0  0  0  0  0  0
  -22.2080  -13.5980   21.5280 N   0  0  0  0  0  0  0  0  0  0  0  0
  -22.5730  -15.2560   20.0830 O   0  0  0  0  0  0  0  0  0  0  0  0
  -22.5670  -12.8340   22.0800 H   0  0  0  0  0  0  0  0  0  0  0  0
  -21.2240  -13.8240   21.5850 H   0  0  0  0  0  0  0  0  0  0  0  0
  -25.5940  -16.1640   20.3240 N   0  0  0  0  0  0  0  0  0  0  0  0
  -24.7710  -16.7550   20.3060 H   0  0  0  0  0  0  0  0  0  0  0  0
  -26.4540  -16.6660   20.1410 H   0  0  0  0  0  0  0  0  0  0  0  0
  -24.0920  -20.3070   18.3730 C   0  0  0  0  0  2  0  0  0  0  0  0
  -24.1810  -21.7650   18.8310 C   0  0  0  0  0  2  0  0  0  0  0  0
  -25.6180  -22.1600   19.1980 C   0  0  0  0  0  2  0  0  0  0  0  0
  -25.6980  -23.3530   20.1530 C   0  0  0  0  0  2  0  0  0  0  0  0
  -27.0770  -23.5940   20.3520 O   0  0  0  0  0  0  0  0  0  0  0  0
  -27.3600  -24.5070   21.3970 C   0  0  0  0  0  2  0  0  0  0  0  0
  -28.8160  -24.9560   21.2080 C   0  0  0  0  0  2  0  0  0  0  0  0
  -29.1080  -25.6190   19.8440 C   0  0  0  0  0  2  0  0  0  0  0  0
  -28.9340  -27.0310   19.9010 O   0  0  0  0  0  0  0  0  0  0  0  0
  -24.6270  -31.6260   23.1340 C   0  0  0  0  0  0  0  0  0  0  0  0
  -27.6700  -27.5730   19.9120 C   0  0  0  0  0  0  0  0  0  0  0  0
  -23.5560  -30.2000   21.4190 C   0  0  0  0  0  3  0  0  0  0  0  0
  -25.1470  -28.8440   19.9580 C   0  0  0  0  0  0  0  0  0  0  0  0
  -26.0420  -30.7780   21.2700 C   0  0  0  0  0  2  0  0  0  0  0  0
  -26.2460  -29.4470   20.5810 C   0  0  0  0  0  0  0  0  0  0  0  0
  -27.5070  -28.8160   20.5550 C   0  0  0  0  0  3  0  0  0  0  0  0
  -26.5500  -26.9720   19.2890 C   0  0  0  0  0  3  0  0  0  0  0  0
  -25.2920  -27.6030   19.3120 C   0  0  0  0  0  3  0  0  0  0  0  0
  -23.8360  -29.5930   20.0170 C   0  0  0  0  0  2  0  0  0  0  0  0
  -24.7580  -30.8820   22.0020 N   0  0  0  0  0  0  0  0  0  0  0  0
  -23.5230  -31.7870   23.6700 O   0  0  0  0  0  0  0  0  0  0  0  0
  -22.9800  -29.0900   22.3280 C   0  0  0  0  0  0  0  0  0  0  0  0
  -21.6920  -28.7650   22.1320 N   0  0  0  0  0  0  0  0  0  0  0  0
  -23.6910  -28.5220   23.1620 O   0  0  0  0  0  0  0  0  0  0  0  0
  -21.1730  -29.2850   21.4380 H   0  0  0  0  0  0  0  0  0  0  0  0
  -18.4730  -27.1510   22.3910 C   0  0  0  0  0  0  0  0  0  0  0  0
  -20.9510  -27.7240   22.8430 C   0  0  0  0  0  3  0  0  0  0  0  0
  -21.2710  -26.3210   22.2760 C   0  0  0  0  0  2  0  0  0  0  0  0
  -20.2920  -25.8730   21.1850 C   0  0  0  0  0  2  0  0  0  0  0  0
  -18.8620  -25.8400   21.7290 C   0  0  0  0  0  2  0  0  0  0  0  0
  -19.4540  -28.0430   22.8990 C   0  0  0  0  0  0  0  0  0  0  0  0
  -19.0370  -29.2670   23.4700 C   0  0  0  0  0  3  0  0  0  0  0  0
  -17.6710  -29.6000   23.5390 C   0  0  0  0  0  3  0  0  0  0  0  0
  -16.7040  -28.7050   23.0470 C   0  0  0  0  0  3  0  0  0  0  0  0
  -17.1060  -27.4840   22.4800 C   0  0  0  0  0  3  0  0  0  0  0  0
  -25.8520  -32.3310   23.7980 C   0  0  0  0  0  3  0  0  0  0  0  0
  -25.4490  -33.7070   24.1210 N   0  0  0  0  0  0  0  0  0  0  0  0
  -25.7400  -34.7790   23.3750 C   0  0  0  0  0  0  0  0  0  0  0  0
  -26.4500  -34.7210   22.3660 O   0  0  0  0  0  0  0  0  0  0  0  0
  -24.8240  -33.8220   24.9040 H   0  0  0  0  0  0  0  0  0  0  0  0
  -23.9160  -36.4610   22.9610 C   0  0  0  0  0  1  0  0  0  0  0  0
  -25.1510  -36.1330   23.8160 C   0  0  0  0  0  3  0  0  0  0  0  0
  -27.2010  -37.1450   24.7150 C   0  0  0  0  0  1  0  0  0  0  0  0
  -26.1190  -37.2490   23.7400 N   0  0  0  0  0  0  0  0  0  0  0  0
  -25.6530  -38.1420   23.8770 H   0  0  0  0  0  0  0  0  0  0  0  0
  -26.3770  -31.5860   25.0870 C   0  0  1  0  0  0  0  0  0  0  0  0
  -25.2700  -31.2690   26.1180 C   0  0  0  0  0  1  0  0  0  0  0  0
  -27.0660  -30.2560   24.7050 C   0  0  0  0  0  1  0  0  0  0  0  0
  -27.4470  -32.4530   25.7930 C   0  0  0  0  0  1  0  0  0  0  0  0
  1 51  1  0
  2  1  1  0
  2  3  1  0
  3  4  1  0
  4  5  1  0
  6  8  1  0
  7  9  1  0
  7  6  2  0
  8 10  2  0
  9 11  2  0
 10 12  1  0
 11  5  1  0
 11 10  1  0
 12 21  1  0
 13 21  1  0
 14 19  1  0
 15 16  1  0
 15 14  1  0
 17 16  1  0
 17 26  1  0
 17 18  1  0
 19 13  1  0
 19 18  1  0
 20 13  2  0
 21 22  1  0
 23 24  2  0
 24 43  1  0
 24 25  1  0
 25 28  1  0
 26 23  1  0
 26 27  1  0
 27 25  2  0
 28 29  1  0
 29 30  2  0
 31 34  1  0
 31 30  1  0
 32 31  2  0
 33 32  1  0
 33 28  2  0
 34 35  1  0
 35 40  2  0
 35 36  1  0
 36 37  2  0
 37 38  1  0
 38 42  1  0
 39 38  2  0
 40 39  1  0
 41 40  1  0
 43 44  1  0
 44 47  1  0
 44 46  1  0
 45 43  2  0
 48 23  1  0
 49 48  1  0
 50 48  1  0
 51 52  1  0
 52 53  1  0
 53 54  1  0
 54 55  1  0
 55 56  1  0
 57 56  1  0
 58 59  1  0
 58 57  1  0
 59 61  1  0
 60 71  2  0
 61 66  1  0
 62 70  1  0
 62 72  1  0
 63 69  1  0
 63 65  1  0
 64 70  1  0
 65 64  1  0
 66 65  2  0
 67 68  1  0
 67 61  2  0
 68 63  2  0
 69 62  1  0
 70 60  1  0
 72 74  2  0
 73 72  1  0
 75 73  1  0
 76 85  2  0
 76 81  1  0
 77 73  1  0
 77 81  1  0
 78 77  1  0
 79 80  1  0
 79 78  1  0
 80 76  1  0
 81 82  2  0
 82 83  1  0
 84 83  2  0
 85 84  1  0
 86 60  1  0
 86 87  1  0
 86 96  1  0
 87 90  1  0
 88 92  1  0
 88 87  1  0
 89 88  2  0
 92 91  1  0
 94 92  1  0
 94 95  1  0
 94 93  1  0
 96 99  1  1
 96 97  1  0
 98 96  1  0
M  ISO  4  13 100  21 100  58 101  59 101
M  END
>  <TORSDO>  (32) 
F 30

>  <SCORE>  (32) 
-6.143

>  <name>  (32) 
33

>  <ligand_id>  (32) 
33

>  <original_smiles>  (32) 
[H]c1c([H])c([H])c(C([H])([H])N([H])C(=O)N2C([H])([H])C([H])([H])C([H])([H])C([H])(n3nc(-c4c([H])c([H])c(Oc5c([H])c([H])c(F)c([H])c5F)c([H])c4[H])c(C(=O)N([H])[H])c3N([H])[H])C2([H])[H])c(OC([H])([H])C([H])([H])C([H])([H])OC([H])([H])C([H])([H])C([H])([H])C([H])([H])OC([H])([H])C([H])([H])C([H])([H])Oc2c([H])c([H])c3c(c2[H])C([H])([H])N(C(=O)C([H])(N([H])C(=O)C([H])(N([H])C([H])([H])[H])C([H])([H])[H])C(C([H])([H])[H])(C([H])([H])[H])C([H])([H])[H])C([H])(C(=O)N([H])C2([H])c4c([H])c([H])c([H])c([H])c4C([H])([H])C([H])([H])C2([H])[H])C3([H])[H])c1[H]

>  <smiles>  (32) 
[H]c1c([H])c([H])c(C([H])([H])N([H])C(=O)N2C([H])([H])C([H])([H])C([H])([H])C([H])(n3nc(-c4c([H])c([H])c(Oc5c([H])c([H])c(F)c([H])c5F)c([H])c4[H])c(C(=O)N([H])[H])c3N([H])[H])C2([H])[H])c(OC([H])([H])C([H])([H])C([H])([H])OC([H])([H])C([H])([H])C([H])([H])C([H])([H])OC([H])([H])C([H])([H])C([H])([H])Oc2c([H])c([H])c3c(c2[H])C([H])([H])N(C(=O)C([H])(N([H])C(=O)C([H])(N([H])C([H])([H])[H])C([H])([H])[H])C(C([H])([H])[H])(C([H])([H])[H])C([H])([H])[H])C([H])(C(=O)N([H])C2([H])c4c([H])c([H])c([H])c([H])c4C([H])([H])C([H])([H])C2([H])[H])C3([H])[H])c1[H]

$$$$
34:0:0
     RDKit          3D

 86 94  0  0  1  0  0  0  0  0999 V2000
  -26.5990  -21.9870   20.5570 C   0  0  0  0  0  3  0  0  0  0  0  0
  -27.4920  -20.8700   20.4110 C   0  0  0  0  0  3  0  0  0  0  0  0
  -26.9010  -23.3880   20.4480 C   0  0  0  0  0  3  0  0  0  0  0  0
  -29.1150  -22.5910   20.0270 C   0  0  0  0  0  3  0  0  0  0  0  0
  -28.8770  -20.9670   20.1300 C   0  0  0  0  0  0  0  0  0  0  0  0
  -28.1790  -23.9350   20.1660 C   0  0  0  0  0  0  0  0  0  0  0  0
  -28.2790  -25.5900   20.1230 O   0  0  0  0  0  0  0  0  0  0  0  0
  -24.7630  -31.9440   23.2280 C   0  0  0  0  0  0  0  0  0  0  0  0
  -27.3020  -26.8420   20.1480 C   0  0  0  0  0  0  0  0  0  0  0  0
  -23.5790  -30.5650   21.5730 C   0  0  0  0  0  3  0  0  0  0  0  0
  -25.0320  -28.9320   20.1320 C   0  0  0  0  0  0  0  0  0  0  0  0
  -26.1610  -30.6930   21.4570 C   0  0  0  0  0  2  0  0  0  0  0  0
  -26.2280  -29.2590   20.7800 C   0  0  0  0  0  0  0  0  0  0  0  0
  -27.3390  -28.2450   20.7580 C   0  0  0  0  0  3  0  0  0  0  0  0
  -26.0730  -26.7620   19.4350 C   0  0  0  0  0  3  0  0  0  0  0  0
  -24.9980  -27.7100   19.4360 C   0  0  0  0  0  3  0  0  0  0  0  0
  -23.8230  -29.8870   20.1930 C   0  0  0  0  0  2  0  0  0  0  0  0
  -24.8600  -31.1030   22.1390 N   0  0  0  0  0  0  0  0  0  0  0  0
  -23.6680  -32.2320   23.7440 O   0  0  0  0  0  0  0  0  0  0  0  0
  -22.8650  -29.5750   22.5330 C   0  0  0  0  0  0  0  0  0  0  0  0
  -21.5350  -29.4030   22.3990 N   0  0  0  0  0  0  0  0  0  0  0  0
  -23.5210  -28.9560   23.3740 O   0  0  0  0  0  0  0  0  0  0  0  0
  -21.0520  -29.9530   21.7010 H   0  0  0  0  0  0  0  0  0  0  0  0
  -18.1610  -28.1420   22.8970 C   0  0  0  0  0  0  0  0  0  0  0  0
  -20.7180  -28.4460   23.1580 C   0  0  0  0  0  3  0  0  0  0  0  0
  -20.8390  -27.0220   22.5650 C   0  0  0  0  0  2  0  0  0  0  0  0
  -19.7400  -26.6990   21.5470 C   0  0  0  0  0  2  0  0  0  0  0  0
  -18.3580  -26.8090   22.1950 C   0  0  0  0  0  2  0  0  0  0  0  0
  -19.2670  -28.9180   23.3350 C   0  0  0  0  0  0  0  0  0  0  0  0
  -19.0260  -30.1610   23.9580 C   0  0  0  0  0  3  0  0  0  0  0  0
  -17.7120  -30.6310   24.1450 C   0  0  0  0  0  3  0  0  0  0  0  0
  -16.6210  -29.8540   23.7180 C   0  0  0  0  0  3  0  0  0  0  0  0
  -16.8450  -28.6100   23.1020 C   0  0  0  0  0  3  0  0  0  0  0  0
  -26.0210  -32.5950   23.8780 C   0  0  0  0  0  3  0  0  0  0  0  0
  -25.6920  -33.9930   24.2280 N   0  0  0  0  0  0  0  0  0  0  0  0
  -25.9920  -35.0690   23.4880 C   0  0  0  0  0  0  0  0  0  0  0  0
  -26.6300  -34.9900   22.4360 O   0  0  0  0  0  0  0  0  0  0  0  0
  -25.1170  -34.1250   25.0480 H   0  0  0  0  0  0  0  0  0  0  0  0
  -24.2270  -36.8540   23.2530 C   0  0  0  0  0  1  0  0  0  0  0  0
  -25.5140  -36.4490   23.9900 C   0  0  0  0  0  3  0  0  0  0  0  0
  -27.6710  -37.3690   24.7270 C   0  0  0  0  0  1  0  0  0  0  0  0
  -26.5260  -37.5190   23.8330 N   0  0  0  0  0  0  0  0  0  0  0  0
  -26.1130  -38.4330   23.9970 H   0  0  0  0  0  0  0  0  0  0  0  0
  -26.5160  -31.8280   25.1680 C   0  0  1  0  0  0  0  0  0  0  0  0
  -25.4050  -31.5930   26.2190 C   0  0  0  0  0  1  0  0  0  0  0  0
  -27.1080  -30.4500   24.8040 C   0  0  0  0  0  1  0  0  0  0  0  0
  -27.6550  -32.6260   25.8460 C   0  0  0  0  0  1  0  0  0  0  0  0
  -29.8430  -19.3070   20.0050 C   0  0  0  0  0  2  0  0  0  0  0  0
  -30.4500  -16.0790   19.9870 C   0  0  0  0  0  0  0  0  0  0  0  0
  -30.6000  -13.4980   19.1790 C   0  0  0  0  0  2  0  0  0  0  0  0
  -29.6870  -12.9980   18.0180 C   0  0  0  0  0  2  0  0  0  0  0  0
  -28.3040  -12.5850   18.5390 C   0  0  0  0  0  2  0  0  0  0  0  0
  -27.7940  -13.5890   19.5940 C   0  0  0  0  0  3  0  0  0  0  0  0
  -28.8510  -13.9910   20.6540 C   0  0  0  0  0  2  0  0  0  0  0  0
  -29.9570  -14.6810   19.9380 N   0  0  0  0  0  0  0  0  0  0  0  0
  -31.6790  -16.0010   19.7760 O   0  0  0  0  0  0  0  0  0  0  0  0
  -29.6890  -17.4810   20.0810 N   0  0  0  0  0  0  0  0  0  0  0  0
  -28.7130  -17.2610   20.2160 H   0  0  0  0  0  0  0  0  0  0  0  0
  -25.4750  -14.0620   20.5010 C   0  0  0  0  0  0  0  0  0  0  0  0
  -24.4420  -13.2600   20.8920 C   0  0  0  0  0  0  0  0  0  0  0  0
  -24.9200  -11.9170   20.7870 C   0  0  0  0  0  0  0  0  0  0  0  0
  -26.5120  -13.2120   20.1720 N   0  0  0  0  0  0  0  0  0  0  0  0
  -26.1970  -11.9110   20.4090 N   0  0  0  0  0  0  0  0  0  0  0  0
  -24.2090  -10.6440   20.9650 C   0  0  0  0  0  0  0  0  0  0  0  0
  -24.6290   -9.6870   21.9140 C   0  0  0  0  0  3  0  0  0  0  0  0
  -23.9130   -8.4810   22.0820 C   0  0  0  0  0  3  0  0  0  0  0  0
  -22.7620   -8.2240   21.3010 C   0  0  0  0  0  0  0  0  0  0  0  0
  -22.3600   -9.1700   20.3410 C   0  0  0  0  0  3  0  0  0  0  0  0
  -23.0780  -10.3650   20.1710 C   0  0  0  0  0  3  0  0  0  0  0  0
  -22.0190   -7.0700   21.3780 O   0  0  0  0  0  0  0  0  0  0  0  0
  -21.8620   -6.3920   22.5600 C   0  0  0  0  0  0  0  0  0  0  0  0
  -21.2590   -6.9900   23.6880 C   0  0  0  0  0  3  0  0  0  0  0  0
  -21.0540   -6.2360   24.8600 C   0  0  0  0  0  3  0  0  0  0  0  0
  -21.4420   -4.8840   24.9050 C   0  0  0  0  0  0  0  0  0  0  0  0
  -22.0390   -4.2840   23.7810 C   0  0  0  0  0  3  0  0  0  0  0  0
  -22.2440   -5.0360   22.6110 C   0  0  0  0  0  0  0  0  0  0  0  0
  -22.7990   -4.4490   21.5240 F   0  0  0  0  0  0  0  0  0  0  0  0
  -21.2400   -4.1560   26.0280 F   0  0  0  0  0  0  0  0  0  0  0  0
  -23.0560  -13.7160   21.2400 C   0  0  0  0  0  0  0  0  0  0  0  0
  -22.3770  -12.9930   22.1220 N   0  0  0  0  0  0  0  0  0  0  0  0
  -22.5880  -14.7510   20.7680 O   0  0  0  0  0  0  0  0  0  0  0  0
  -22.7710  -12.1560   22.5260 H   0  0  0  0  0  0  0  0  0  0  0  0
  -21.4480  -13.2790   22.3970 H   0  0  0  0  0  0  0  0  0  0  0  0
  -25.6140  -15.4410   20.3640 N   0  0  0  0  0  0  0  0  0  0  0  0
  -24.8430  -16.0790   20.5290 H   0  0  0  0  0  0  0  0  0  0  0  0
  -26.4300  -15.8970   19.9770 H   0  0  0  0  0  0  0  0  0  0  0  0
  2  1  2  0
  3  1  1  0
  4  5  2  0
  4  6  1  0
  5  2  1  0
  6  3  2  0
  7  9  1  0
  7  6  1  0
  8 19  2  0
  9 14  1  0
 10 18  1  0
 10 20  1  0
 11 17  1  0
 11 13  1  0
 12 18  1  0
 13 12  1  0
 14 13  2  0
 15 16  1  0
 15  9  2  0
 16 11  2  0
 17 10  1  0
 18  8  1  0
 20 22  2  0
 21 20  1  0
 23 21  1  0
 24 33  2  0
 24 29  1  0
 25 21  1  0
 25 29  1  0
 26 25  1  0
 27 28  1  0
 27 26  1  0
 28 24  1  0
 29 30  2  0
 30 31  1  0
 32 31  2  0
 33 32  1  0
 34  8  1  0
 34 35  1  0
 34 44  1  0
 35 38  1  0
 36 40  1  0
 36 35  1  0
 37 36  2  0
 40 39  1  0
 42 40  1  0
 42 43  1  0
 42 41  1  0
 44 47  1  1
 44 45  1  0
 46 44  1  0
 48 57  1  0
 48  5  1  0
 49 57  1  0
 50 55  1  0
 51 52  1  0
 51 50  1  0
 53 52  1  0
 53 62  1  0
 53 54  1  0
 55 49  1  0
 55 54  1  0
 56 49  2  0
 57 58  1  0
 59 60  2  0
 60 79  1  0
 61 60  1  0
 61 64  1  0
 62 63  1  0
 62 59  1  0
 63 61  2  0
 64 65  1  0
 65 66  2  0
 67 70  1  0
 67 66  1  0
 68 67  2  0
 69 68  1  0
 69 64  2  0
 70 71  1  0
 71 76  2  0
 71 72  1  0
 72 73  2  0
 73 74  1  0
 74 78  1  0
 75 74  2  0
 76 75  1  0
 77 76  1  0
 79 80  1  0
 80 83  1  0
 80 82  1  0
 81 79  2  0
 84 59  1  0
 84 85  1  0
 86 84  1  0
M  ISO  4   6 101   7 101  49 100  57 100
M  END
>  <TORSDO>  (33) 
F 17

>  <SCORE>  (33) 
-15.190

>  <name>  (33) 
34

>  <ligand_id>  (33) 
34

>  <original_smiles>  (33) 
[H]c1c([H])c(Oc2c([H])c([H])c3c(c2[H])C([H])([H])N(C(=O)C([H])(N([H])C(=O)C([H])(N([H])C([H])([H])[H])C([H])([H])[H])C(C([H])([H])[H])(C([H])([H])[H])C([H])([H])[H])C([H])(C(=O)N([H])C2([H])c4c([H])c([H])c([H])c([H])c4C([H])([H])C([H])([H])C2([H])[H])C3([H])[H])c([H])c(C([H])([H])N([H])C(=O)N2C([H])([H])C([H])([H])C([H])([H])C([H])(n3nc(-c4c([H])c([H])c(Oc5c([H])c([H])c(F)c([H])c5F)c([H])c4[H])c(C(=O)N([H])[H])c3N([H])[H])C2([H])[H])c1[H]

>  <smiles>  (33) 
[H]c1c([H])c(Oc2c([H])c([H])c3c(c2[H])C([H])([H])N(C(=O)C([H])(N([H])C(=O)C([H])(N([H])C([H])([H])[H])C([H])([H])[H])C(C([H])([H])[H])(C([H])([H])[H])C([H])([H])[H])C([H])(C(=O)N([H])C2([H])c4c([H])c([H])c([H])c([H])c4C([H])([H])C([H])([H])C2([H])[H])C3([H])[H])c([H])c(C([H])([H])N([H])C(=O)N2C([H])([H])C([H])([H])C([H])([H])C([H])(n3nc(-c4c([H])c([H])c(Oc5c([H])c([H])c(F)c([H])c5F)c([H])c4[H])c(C(=O)N([H])[H])c3N([H])[H])C2([H])[H])c1[H]

$$$$
35:0:0
     RDKit          3D

109117  0  0  1  0  0  0  0  0999 V2000
  -26.6970  -17.0950   20.0420 C   0  0  0  0  0  3  0  0  0  0  0  0
  -28.5800  -18.4130   19.2920 C   0  0  0  0  0  3  0  0  0  0  0  0
  -27.0510  -19.3370   20.9400 C   0  0  0  0  0  3  0  0  0  0  0  0
  -27.8870  -17.1360   19.2930 C   0  0  0  0  0  0  0  0  0  0  0  0
  -26.3210  -18.1260   20.9290 C   0  0  0  0  0  0  0  0  0  0  0  0
  -28.1640  -19.5530   20.0900 C   0  0  0  0  0  0  0  0  0  0  0  0
  -28.2900  -15.8860   18.4610 C   0  0  0  0  0  0  0  0  0  0  0  0
  -28.0660  -14.6180   18.9540 N   0  0  0  0  0  0  0  0  0  0  0  0
  -28.7990  -16.0470   17.3520 O   0  0  0  0  0  0  0  0  0  0  0  0
  -27.7850  -14.6250   19.9370 H   0  0  0  0  0  0  0  0  0  0  0  0
  -27.7140  -13.3290   18.2230 C   0  0  0  0  0  2  0  0  0  0  0  0
  -28.5910  -11.9630   18.2220 C   0  0  0  0  0  2  0  0  0  0  0  0
  -28.5930  -10.9230   19.2520 O   0  0  0  0  0  0  0  0  0  0  0  0
  -29.1260   -9.5760   18.9370 C   0  0  0  0  0  2  0  0  0  0  0  0
  -29.1600   -8.3750   20.0570 C   0  0  0  0  0  2  0  0  0  0  0  0
  -29.7490   -8.5560   21.4120 O   0  0  0  0  0  0  0  0  0  0  0  0
  -30.7020   -7.6610   22.0520 C   0  0  0  0  0  2  0  0  0  0  0  0
  -31.4390   -8.0970   23.4480 C   0  0  0  0  0  2  0  0  0  0  0  0
  -32.8700   -8.4780   23.4530 O   0  0  0  0  0  0  0  0  0  0  0  0
  -33.4540  -10.8040   23.0640 C   0  0  0  0  0  0  0  0  0  0  0  0
  -32.9220   -9.8350   21.0470 C   0  0  0  0  0  2  0  0  0  0  0  0
  -32.3250  -10.3670   19.8010 C   0  0  0  0  0  2  0  0  0  0  0  0
  -30.8560  -10.6530   19.9880 C   0  0  0  0  0  2  0  0  0  0  0  0
  -30.3950  -11.4530   21.2270 C   0  0  0  0  0  3  0  0  0  0  0  0
  -31.1390  -11.1070   22.4870 C   0  0  0  0  0  2  0  0  0  0  0  0
  -32.5080  -10.6570   22.1850 N   0  0  0  0  0  0  0  0  0  0  0  0
  -34.5030  -11.4270   22.8170 O   0  0  0  0  0  0  0  0  0  0  0  0
  -33.2670   -9.8000   23.9760 N   0  0  0  0  0  0  0  0  0  0  0  0
  -33.9690   -9.6510   24.6850 H   0  0  0  0  0  0  0  0  0  0  0  0
  -28.1370  -12.6090   21.4680 C   0  0  0  0  0  3  0  0  0  0  0  0
  -26.8400  -12.1710   21.5670 C   0  0  0  0  0  0  0  0  0  0  0  0
  -26.9190  -10.7650   21.7160 C   0  0  0  0  0  0  0  0  0  0  0  0
  -28.9380  -11.5010   21.4730 N   0  0  0  0  0  0  0  0  0  0  0  0
  -28.1910  -10.4210   21.8240 N   0  0  0  0  0  2  0  0  0  0  0  0
  -25.8560   -9.7440   21.7420 C   0  0  0  0  0  0  0  0  0  0  0  0
  -25.6440   -8.9300   22.8770 C   0  0  0  0  0  3  0  0  0  0  0  0
  -24.5870   -7.9990   22.9010 C   0  0  0  0  0  3  0  0  0  0  0  0
  -23.7350   -7.8690   21.7780 C   0  0  0  0  0  0  0  0  0  0  0  0
  -23.9670   -8.6550   20.6380 C   0  0  0  0  0  3  0  0  0  0  0  0
  -25.0340   -9.5760   20.6090 C   0  0  0  0  0  3  0  0  0  0  0  0
  -22.6950   -6.9760   21.7060 O   0  0  0  0  0  0  0  0  0  0  0  0
  -21.7790   -6.8500   22.7160 C   0  0  0  0  0  0  0  0  0  0  0  0
  -21.0200   -7.9530   23.1610 C   0  0  0  0  0  3  0  0  0  0  0  0
  -20.0220   -7.7690   24.1360 C   0  0  0  0  0  3  0  0  0  0  0  0
  -19.7830   -6.4870   24.6700 C   0  0  0  0  0  0  0  0  0  0  0  0
  -20.5410   -5.3830   24.2380 C   0  0  0  0  0  3  0  0  0  0  0  0
  -21.5220   -5.5640   23.2480 C   0  0  0  0  0  0  0  0  0  0  0  0
  -22.2300   -4.4980   22.8050 F   0  0  0  0  0  0  0  0  0  0  0  0
  -18.8120   -6.3150   25.5980 F   0  0  0  0  0  0  0  0  0  0  0  0
  -25.6160  -13.0210   21.4760 C   0  0  0  0  0  0  0  0  0  0  0  0
  -24.5710  -12.6180   22.1960 N   0  0  0  0  0  0  0  0  0  0  0  0
  -25.5980  -14.0590   20.8210 O   0  0  0  0  0  0  0  0  0  0  0  0
  -23.7140  -13.1480   22.1630 H   0  0  0  0  0  0  0  0  0  0  0  0
  -24.5830  -11.7460   22.7090 H   0  0  0  0  0  0  0  0  0  0  0  0
  -28.7090  -13.8520   21.3910 N   0  0  0  0  0  0  0  0  0  0  0  0
  -28.1610  -14.5990   21.8050 H   0  0  0  0  0  0  0  0  0  0  0  0
  -29.6990  -13.9740   21.5740 H   0  0  0  0  0  0  0  0  0  0  0  0
  -28.7930  -20.8270   20.0310 O   0  0  0  0  0  0  0  0  0  0  0  0
  -28.5550  -21.8500   21.0810 C   0  0  0  0  0  3  0  0  0  0  0  0
  -29.1820  -23.3260   20.9810 C   0  0  0  0  0  3  0  0  0  0  0  0
  -29.1590  -24.1840   22.3430 C   0  0  0  0  0  2  0  0  0  0  0  0
  -29.5530  -25.6220   22.4780 O   0  0  0  0  0  0  0  0  0  0  0  0
  -25.4760  -31.1250   25.0040 C   0  0  0  0  0  0  0  0  0  0  0  0
  -28.5510  -26.5860   22.3250 C   0  0  0  0  0  0  0  0  0  0  0  0
  -24.6920  -29.9180   23.0060 C   0  0  0  0  0  3  0  0  0  0  0  0
  -26.3850  -28.3770   21.8870 C   0  0  0  0  0  0  0  0  0  0  0  0
  -27.2080  -30.0560   23.5310 C   0  0  0  0  0  2  0  0  0  0  0  0
  -27.3880  -28.7270   22.8030 C   0  0  0  0  0  0  0  0  0  0  0  0
  -28.4890  -27.8400   23.0200 C   0  0  0  0  0  3  0  0  0  0  0  0
  -27.5220  -26.2960   21.4150 C   0  0  0  0  0  3  0  0  0  0  0  0
  -26.4540  -27.1670   21.1890 C   0  0  0  0  0  3  0  0  0  0  0  0
  -25.2370  -29.3380   21.6820 C   0  0  0  0  0  2  0  0  0  0  0  0
  -25.7980  -30.3770   23.9090 N   0  0  0  0  0  0  0  0  0  0  0  0
  -24.3010  -31.4420   25.2480 O   0  0  0  0  0  0  0  0  0  0  0  0
  -23.7550  -28.8780   23.6670 C   0  0  0  0  0  0  0  0  0  0  0  0
  -22.5800  -28.6470   23.0550 N   0  0  0  0  0  0  0  0  0  0  0  0
  -24.0980  -28.2810   24.6920 O   0  0  0  0  0  0  0  0  0  0  0  0
  -22.3640  -29.1900   22.2300 H   0  0  0  0  0  0  0  0  0  0  0  0
  -19.3490  -27.2540   22.2150 C   0  0  0  0  0  0  0  0  0  0  0  0
  -21.5600  -27.6900   23.4850 C   0  0  0  0  0  3  0  0  0  0  0  0
  -21.9500  -26.2480   23.0900 C   0  0  0  0  0  2  0  0  0  0  0  0
  -21.3740  -25.8110   21.7380 C   0  0  0  0  0  2  0  0  0  0  0  0
  -19.8450  -25.8920   21.7560 C   0  0  0  0  0  2  0  0  0  0  0  0
  -20.1620  -28.1030   23.0150 C   0  0  0  0  0  0  0  0  0  0  0  0
  -19.6640  -29.3710   23.3880 C   0  0  0  0  0  3  0  0  0  0  0  0
  -18.3880  -29.7950   22.9770 C   0  0  0  0  0  3  0  0  0  0  0  0
  -17.5810  -28.9450   22.2000 C   0  0  0  0  0  3  0  0  0  0  0  0
  -18.0600  -27.6770   21.8250 C   0  0  0  0  0  3  0  0  0  0  0  0
  -26.5670  -31.6350   25.9910 C   0  0  0  0  0  3  0  0  0  0  0  0
  -26.6120  -30.8190   27.3430 C   0  0  1  0  0  0  0  0  0  0  0  0
  -25.2250  -30.6280   28.0000 C   0  0  0  0  0  1  0  0  0  0  0  0
  -27.2260  -29.4170   27.1200 C   0  0  0  0  0  1  0  0  0  0  0  0
  -27.5230  -31.5440   28.3650 C   0  0  0  0  0  1  0  0  0  0  0  0
  -26.3020  -33.0550   26.2560 N   0  0  0  0  0  0  0  0  0  0  0  0
  -26.9540  -34.0720   25.6820 C   0  0  0  0  0  0  0  0  0  0  0  0
  -27.9050  -33.9090   24.9140 O   0  0  0  0  0  0  0  0  0  0  0  0
  -25.5000  -33.2660   26.8350 H   0  0  0  0  0  0  0  0  0  0  0  0
  -25.6210  -36.0370   24.8490 C   0  0  0  0  0  1  0  0  0  0  0  0
  -26.4730  -35.4990   26.0090 C   0  0  0  0  0  3  0  0  0  0  0  0
  -28.2830  -36.1520   27.5380 C   0  0  0  0  0  1  0  0  0  0  0  0
  -27.5770  -36.4430   26.2910 N   0  0  0  0  0  0  0  0  0  0  0  0
  -27.2330  -37.3980   26.3360 H   0  0  0  0  0  0  0  0  0  0  0  0
  -25.2370  -17.8820   21.7460 O   0  0  0  0  0  0  0  0  0  0  0  0
  -25.2870  -18.3660   23.0910 C   0  0  0  0  0  2  0  0  0  0  0  0
  -24.7780  -17.2800   24.0470 C   0  0  0  0  0  0  0  0  0  0  0  0
  -24.8820  -17.5060   25.3540 N   0  0  0  0  0  0  0  0  0  0  0  0
  -24.2930  -16.2360   23.6190 O   0  0  0  0  0  0  0  0  0  0  0  0
  -25.2460  -18.3780   25.7180 H   0  0  0  0  0  0  0  0  0  0  0  0
  -24.5850  -16.7940   26.0020 H   0  0  0  0  0  0  0  0  0  0  0  0
  1  5  1  0
  2  4  1  0
  2  6  2  0
  4  1  2  0
  5  3  2  0
  5103  1  0
  6  3  1  0
  7  8  1  0
  7  4  1  0
  8 10  1  0
  9  7  2  0
 11  8  1  0
 12 11  1  0
 12 13  1  0
 14 13  1  0
 14 15  1  0
 15 16  1  0
 16 17  1  0
 17 18  1  0
 18 19  1  0
 19 28  1  0
 20 28  1  0
 21 26  1  0
 22 23  1  0
 22 21  1  0
 24 23  1  0
 24 33  1  0
 24 25  1  0
 26 25  1  0
 26 20  1  0
 27 20  2  0
 28 29  1  0
 30 55  1  0
 30 33  1  0
 30 31  1  0
 31 32  2  0
 32 35  1  0
 32 34  1  0
 33 34  1  0
 35 36  1  0
 36 37  2  0
 38 37  1  0
 39 38  2  0
 40 39  1  0
 40 35  2  0
 41 38  1  0
 41 42  1  0
 42 43  2  0
 42 47  1  0
 43 44  1  0
 44 45  2  0
 45 49  1  0
 46 45  1  0
 47 46  2  0
 48 47  1  0
 50 31  1  0
 50 51  1  0
 51 54  1  0
 52 50  2  0
 53 51  1  0
 55 57  1  0
 55 56  1  0
 58  6  1  0
 58 59  1  0
 60 59  2  0
 60 61  1  0
 61 62  1  0
 63 74  2  0
 64 62  1  0
 64 69  1  0
 65 75  1  0
 65 73  1  0
 66 68  1  0
 67 73  1  0
 68 69  2  0
 68 67  1  0
 70 64  2  0
 71 70  1  0
 71 66  2  0
 72 66  1  0
 72 65  1  0
 73 63  1  0
 75 77  2  0
 76 75  1  0
 78 76  1  0
 79 84  1  0
 80 76  1  0
 81 80  1  0
 82 83  1  0
 82 81  1  0
 83 79  1  0
 84 85  2  0
 84 80  1  0
 86 85  1  0
 87 86  2  0
 88 87  1  0
 88 79  2  0
 89 63  1  0
 89 94  1  0
 89 90  1  0
 90 91  1  1
 90 93  1  0
 92 90  1  0
 94 97  1  0
 95 99  1  0
 95 94  1  0
 96 95  2  0
 99 98  1  0
 99101  1  0
101102  1  0
101100  1  0
103104  1  0
104105  1  0
105106  1  0
106108  1  0
106109  1  0
107105  2  0
M  ISO  4  20 100  28 100  61 101  62 101
M  END
>  <TORSDO>  (34) 
F 33

>  <SCORE>  (34) 
18.488

>  <name>  (34) 
35

>  <ligand_id>  (34) 
35

>  <original_smiles>  (34) 
[H]c1c([H])c([H])c2c(c1[H])C([H])([H])C([H])([H])C([H])([H])C2([H])N([H])C(=O)C1([H])N(C(=O)C([H])(N([H])C(=O)C([H])(N([H])C([H])([H])[H])C([H])([H])[H])C(C([H])([H])[H])(C([H])([H])[H])C([H])([H])[H])C([H])([H])c2c([H])c(OC([H])([H])C([H])([H])C([H])([H])Oc3c([H])c(OC([H])([H])C(=O)N([H])[H])c([H])c(C(=O)N([H])C([H])([H])C([H])([H])OC([H])([H])C([H])([H])OC([H])([H])C([H])([H])ON([H])C(=O)N4C([H])([H])C([H])([H])C([H])([H])C([H])(n5nc(-c6c([H])c([H])c(Oc7c([H])c([H])c(F)c([H])c7F)c([H])c6[H])c(C(=O)N([H])[H])c5N([H])[H])C4([H])[H])c3[H])c([H])c([H])c2C1([H])[H]

>  <smiles>  (34) 
[H]c1c([H])c([H])c2c(c1[H])C([H])([H])C([H])([H])C([H])([H])C2([H])N([H])C(=O)C1([H])N(C(=O)C([H])(N([H])C(=O)C([H])(N([H])C([H])([H])[H])C([H])([H])[H])C(C([H])([H])[H])(C([H])([H])[H])C([H])([H])[H])C([H])([H])c2c([H])c(OC([H])([H])C([H])([H])C([H])([H])Oc3c([H])c(OC([H])([H])C(=O)N([H])[H])c([H])c(C(=O)N([H])C([H])([H])C([H])([H])OC([H])([H])C([H])([H])OC([H])([H])C([H])([H])ON([H])C(=O)N4C([H])([H])C([H])([H])C([H])([H])C([H])(n5nc(-c6c([H])c([H])c(Oc7c([H])c([H])c(F)c([H])c7F)c([H])c6[H])c(C(=O)N([H])[H])c5N([H])[H])C4([H])[H])c3[H])c([H])c([H])c2C1([H])[H]

$$$$
36:0:0
     RDKit          3D

 93101  0  0  1  0  0  0  0  0999 V2000
  -29.6510  -22.5080   23.1740 C   0  0  0  0  0  0  0  0  0  0  0  0
  -28.9930  -22.6110   24.5400 C   0  0  0  0  0  1  0  0  0  0  0  0
  -29.2220  -23.1300   22.1480 N   0  0  0  0  0  0  0  0  0  0  0  0
  -33.1850  -21.2650   23.7330 C   0  0  0  0  0  3  0  0  0  0  0  0
  -32.0380  -22.0790   23.7570 C   0  0  0  0  0  3  0  0  0  0  0  0
  -33.1510  -20.0250   23.0670 C   0  0  0  0  0  3  0  0  0  0  0  0
  -30.8210  -20.4000   22.4680 C   0  0  0  0  0  3  0  0  0  0  0  0
  -30.8520  -21.6520   23.1240 C   0  0  0  0  0  0  0  0  0  0  0  0
  -31.9770  -19.5790   22.4240 C   0  0  0  0  0  0  0  0  0  0  0  0
  -32.0500  -18.3590   21.7870 O   0  0  0  0  0  0  0  0  0  0  0  0
  -30.8850  -17.8150   21.1760 C   0  0  0  0  0  2  0  0  0  0  0  0
  -31.2840  -16.4610   20.5720 C   0  0  0  0  0  2  0  0  0  0  0  0
  -30.0910  -15.5260   20.2330 C   0  0  0  0  0  2  0  0  0  0  0  0
  -30.4570  -14.3590   19.2900 C   0  0  0  0  0  0  0  0  0  0  0  0
  -30.0670  -12.0850   18.4040 C   0  0  0  0  0  2  0  0  0  0  0  0
  -28.9330  -12.0680   17.3630 C   0  0  0  0  0  2  0  0  0  0  0  0
  -27.5710  -11.8880   18.0570 C   0  0  0  0  0  2  0  0  0  0  0  0
  -27.3700  -12.8820   19.2320 C   0  0  0  0  0  3  0  0  0  0  0  0
  -28.6000  -12.8960   20.1670 C   0  0  0  0  0  2  0  0  0  0  0  0
  -29.8000  -13.1710   19.3600 N   0  0  0  0  0  0  0  0  0  0  0  0
  -31.3500  -14.5520   18.4570 O   0  0  0  0  0  0  0  0  0  0  0  0
  -25.1850  -13.4750   20.4600 C   0  0  0  0  0  0  0  0  0  0  0  0
  -24.1950  -12.6950   20.9950 C   0  0  0  0  0  0  0  0  0  0  0  0
  -24.6020  -11.3420   20.7840 C   0  0  0  0  0  0  0  0  0  0  0  0
  -26.1360  -12.5970   19.9640 N   0  0  0  0  0  0  0  0  0  0  0  0
  -25.7990  -11.3050   20.2130 N   0  0  0  0  0  0  0  0  0  0  0  0
  -23.8960  -10.0790   21.0430 C   0  0  0  0  0  0  0  0  0  0  0  0
  -24.3950   -9.1290   21.9610 C   0  0  0  0  0  3  0  0  0  0  0  0
  -23.6900   -7.9320   22.2060 C   0  0  0  0  0  3  0  0  0  0  0  0
  -22.4710   -7.6750   21.5340 C   0  0  0  0  0  0  0  0  0  0  0  0
  -21.9900   -8.6140   20.6050 C   0  0  0  0  0  3  0  0  0  0  0  0
  -22.6960   -9.8030   20.3580 C   0  0  0  0  0  3  0  0  0  0  0  0
  -21.7330   -6.5270   21.6890 O   0  0  0  0  0  0  0  0  0  0  0  0
  -21.6710   -5.8670   22.8890 C   0  0  0  0  0  0  0  0  0  0  0  0
  -21.1590   -6.4820   24.0530 C   0  0  0  0  0  3  0  0  0  0  0  0
  -21.0500   -5.7460   25.2490 C   0  0  0  0  0  3  0  0  0  0  0  0
  -21.4420   -4.3940   25.2830 C   0  0  0  0  0  0  0  0  0  0  0  0
  -21.9470   -3.7780   24.1250 C   0  0  0  0  0  3  0  0  0  0  0  0
  -22.0580   -4.5120   22.9300 C   0  0  0  0  0  0  0  0  0  0  0  0
  -22.5260   -3.9070   21.8120 F   0  0  0  0  0  0  0  0  0  0  0  0
  -21.3300   -3.6840   26.4290 F   0  0  0  0  0  0  0  0  0  0  0  0
  -22.8990  -13.1720   21.5830 C   0  0  0  0  0  0  0  0  0  0  0  0
  -22.3730  -12.4570   22.5720 N   0  0  0  0  0  0  0  0  0  0  0  0
  -22.3670  -14.2120   21.1990 O   0  0  0  0  0  0  0  0  0  0  0  0
  -22.8200  -11.6150   22.9030 H   0  0  0  0  0  0  0  0  0  0  0  0
  -21.5110  -12.7570   23.0050 H   0  0  0  0  0  0  0  0  0  0  0  0
  -25.3480  -14.8520   20.3390 N   0  0  0  0  0  0  0  0  0  0  0  0
  -24.6390  -15.5100   20.6480 H   0  0  0  0  0  0  0  0  0  0  0  0
  -26.1340  -15.3010   19.8870 H   0  0  0  0  0  0  0  0  0  0  0  0
  -28.0820  -23.9050   22.4270 O   0  0  0  0  0  0  0  0  0  0  0  0
  -27.7340  -24.6670   21.2770 C   0  0  0  0  0  2  0  0  0  0  0  0
  -28.6630  -25.8850   21.0750 C   0  0  0  0  0  2  0  0  0  0  0  0
  -28.3340  -26.5860   19.8770 O   0  0  0  0  0  0  0  0  0  0  0  0
  -24.6060  -31.6500   23.2150 C   0  0  0  0  0  0  0  0  0  0  0  0
  -27.1820  -27.3250   19.9490 C   0  0  0  0  0  0  0  0  0  0  0  0
  -23.3720  -30.3250   21.5270 C   0  0  0  0  0  3  0  0  0  0  0  0
  -24.7990  -28.8250   20.0360 C   0  0  0  0  0  0  0  0  0  0  0  0
  -25.8960  -30.6690   21.3240 C   0  0  0  0  0  2  0  0  0  0  0  0
  -25.9620  -29.3200   20.6430 C   0  0  0  0  0  0  0  0  0  0  0  0
  -27.1570  -28.5720   20.6060 C   0  0  0  0  0  3  0  0  0  0  0  0
  -26.0110  -26.8400   19.3290 C   0  0  0  0  0  3  0  0  0  0  0  0
  -24.8160  -27.5800   19.3820 C   0  0  0  0  0  3  0  0  0  0  0  0
  -23.5660  -29.6950   20.1200 C   0  0  0  0  0  2  0  0  0  0  0  0
  -24.6440  -30.8940   22.0800 N   0  0  0  0  0  0  0  0  0  0  0  0
  -23.5320  -31.9160   23.7710 O   0  0  0  0  0  0  0  0  0  0  0  0
  -22.7120  -29.2770   22.4520 C   0  0  0  0  0  0  0  0  0  0  0  0
  -21.3970  -29.0730   22.2790 N   0  0  0  0  0  0  0  0  0  0  0  0
  -23.3830  -28.6540   23.2790 O   0  0  0  0  0  0  0  0  0  0  0  0
  -20.9180  -29.6330   21.5880 H   0  0  0  0  0  0  0  0  0  0  0  0
  -18.0390  -27.7810   22.6160 C   0  0  0  0  0  0  0  0  0  0  0  0
  -20.5730  -28.1070   23.0070 C   0  0  0  0  0  3  0  0  0  0  0  0
  -20.7430  -26.6840   22.4300 C   0  0  0  0  0  2  0  0  0  0  0  0
  -19.6970  -26.3360   21.3650 C   0  0  0  0  0  2  0  0  0  0  0  0
  -18.2850  -26.4400   21.9460 C   0  0  0  0  0  2  0  0  0  0  0  0
  -19.1160  -28.5710   23.1000 C   0  0  0  0  0  0  0  0  0  0  0  0
  -18.8370  -29.8260   23.6850 C   0  0  0  0  0  3  0  0  0  0  0  0
  -17.5140  -30.2920   23.7900 C   0  0  0  0  0  3  0  0  0  0  0  0
  -16.4500  -29.4990   23.3240 C   0  0  0  0  0  3  0  0  0  0  0  0
  -16.7130  -28.2470   22.7420 C   0  0  0  0  0  3  0  0  0  0  0  0
  -25.9060  -32.2370   23.8510 C   0  0  0  0  0  3  0  0  0  0  0  0
  -25.6360  -33.6400   24.1930 N   0  0  0  0  0  0  0  0  0  0  0  0
  -26.0360  -34.6890   23.4620 C   0  0  0  0  0  0  0  0  0  0  0  0
  -26.7420  -34.5740   22.4550 O   0  0  0  0  0  0  0  0  0  0  0  0
  -25.0180  -33.8060   24.9740 H   0  0  0  0  0  0  0  0  0  0  0  0
  -24.4200  -36.5650   23.0340 C   0  0  0  0  0  1  0  0  0  0  0  0
  -25.5810  -36.0870   23.9190 C   0  0  0  0  0  3  0  0  0  0  0  0
  -27.6880  -36.8540   24.9210 C   0  0  0  0  0  1  0  0  0  0  0  0
  -26.6660  -37.0920   23.9040 N   0  0  0  0  0  0  0  0  0  0  0  0
  -26.2940  -38.0290   24.0410 H   0  0  0  0  0  0  0  0  0  0  0  0
  -26.3940  -31.4360   25.1200 C   0  0  1  0  0  0  0  0  0  0  0  0
  -25.2850  -31.2050   26.1750 C   0  0  0  0  0  1  0  0  0  0  0  0
  -26.9510  -30.0530   24.7070 C   0  0  0  0  0  1  0  0  0  0  0  0
  -27.5560  -32.1930   25.8050 C   0  0  0  0  0  1  0  0  0  0  0  0
  1  2  1  0
  3 50  1  0
  3  1  2  0
  4  5  1  0
  6  4  2  0
  7  8  1  0
  8  1  1  0
  8  5  2  0
  9  7  2  0
  9  6  1  0
 10  9  1  0
 11 10  1  0
 12 11  1  0
 13 12  1  0
 14 20  1  0
 14 13  1  0
 15 20  1  0
 16 17  1  0
 16 15  1  0
 18 17  1  0
 18 25  1  0
 18 19  1  0
 20 19  1  0
 21 14  2  0
 22 23  2  0
 23 42  1  0
 24 23  1  0
 24 27  1  0
 25 26  1  0
 25 22  1  0
 26 24  2  0
 27 28  1  0
 28 29  2  0
 30 33  1  0
 30 29  1  0
 31 30  2  0
 32 31  1  0
 32 27  2  0
 33 34  1  0
 34 39  2  0
 34 35  1  0
 35 36  2  0
 36 37  1  0
 37 41  1  0
 38 37  2  0
 39 38  1  0
 40 39  1  0
 42 43  1  0
 43 45  1  0
 43 46  1  0
 44 42  2  0
 47 22  1  0
 47 48  1  0
 49 47  1  0
 51 50  1  0
 52 51  1  0
 53 55  1  0
 53 52  1  0
 54 65  2  0
 55 60  1  0
 56 64  1  0
 56 66  1  0
 57 63  1  0
 57 59  1  0
 58 64  1  0
 59 58  1  0
 60 59  2  0
 61 62  1  0
 61 55  2  0
 62 57  2  0
 63 56  1  0
 64 54  1  0
 66 68  2  0
 67 66  1  0
 69 67  1  0
 70 79  2  0
 70 75  1  0
 71 67  1  0
 71 75  1  0
 72 71  1  0
 73 74  1  0
 73 72  1  0
 74 70  1  0
 75 76  2  0
 76 77  1  0
 78 77  2  0
 79 78  1  0
 80 54  1  0
 80 81  1  0
 80 90  1  0
 81 84  1  0
 82 86  1  0
 82 81  1  0
 83 82  2  0
 86 85  1  0
 88 86  1  0
 88 89  1  0
 88 87  1  0
 90 93  1  1
 90 91  1  0
 92 90  1  0
M  ISO  4  13 100  14 100  52 101  53 101
M  END
>  <TORSDO>  (35) 
F 24

>  <SCORE>  (35) 
-8.199

>  <name>  (35) 
36

>  <ligand_id>  (35) 
36

>  <original_smiles>  (35) 
[H]c1c([H])c(OC([H])([H])C([H])([H])C([H])([H])C(=O)N2C([H])([H])C([H])([H])C([H])([H])C([H])(n3nc(-c4c([H])c([H])c(Oc5c([H])c([H])c(F)c([H])c5F)c([H])c4[H])c(C(=O)N([H])[H])c3N([H])[H])C2([H])[H])c([H])c(C(=NOC([H])([H])C([H])([H])Oc2c([H])c([H])c3c(c2[H])C([H])([H])N(C(=O)C([H])(N([H])C(=O)C([H])(N([H])C([H])([H])[H])C([H])([H])[H])C(C([H])([H])[H])(C([H])([H])[H])C([H])([H])[H])C([H])(C(=O)N([H])C2([H])c4c([H])c([H])c([H])c([H])c4C([H])([H])C([H])([H])C2([H])[H])C3([H])[H])C([H])([H])[H])c1[H]

>  <smiles>  (35) 
[H]c1c([H])c(OC([H])([H])C([H])([H])C([H])([H])C(=O)N2C([H])([H])C([H])([H])C([H])([H])C([H])(n3nc(-c4c([H])c([H])c(Oc5c([H])c([H])c(F)c([H])c5F)c([H])c4[H])c(C(=O)N([H])[H])c3N([H])[H])C2([H])[H])c([H])c(C(=NOC([H])([H])C([H])([H])Oc2c([H])c([H])c3c(c2[H])C([H])([H])N(C(=O)C([H])(N([H])C(=O)C([H])(N([H])C([H])([H])[H])C([H])([H])[H])C(C([H])([H])[H])(C([H])([H])[H])C([H])([H])[H])C([H])(C(=O)N([H])C2([H])c4c([H])c([H])c([H])c([H])c4C([H])([H])C([H])([H])C2([H])[H])C3([H])[H])C([H])([H])[H])c1[H]

$$$$
37:0:0
     RDKit          3D

 90 97  0  0  1  0  0  0  0  0999 V2000
  -27.8060  -22.7890   22.0570 C   0  0  0  0  0  2  0  0  0  0  0  0
  -28.1210  -23.6690   20.9800 O   0  0  0  0  0  0  0  0  0  0  0  0
  -28.3570  -25.0040   21.4180 C   0  0  0  0  0  2  0  0  0  0  0  0
  -29.0330  -25.8100   20.2920 C   0  0  0  0  0  2  0  0  0  0  0  0
  -28.9770  -27.2200   20.5330 O   0  0  0  0  0  0  0  0  0  0  0  0
  -24.8130  -32.1180   23.5430 C   0  0  0  0  0  0  0  0  0  0  0  0
  -27.7520  -27.8490   20.4980 C   0  0  0  0  0  0  0  0  0  0  0  0
  -23.7220  -30.6820   21.8480 C   0  0  0  0  0  3  0  0  0  0  0  0
  -25.2850  -29.2330   20.4560 C   0  0  0  0  0  0  0  0  0  0  0  0
  -26.2290  -31.1650   21.7290 C   0  0  0  0  0  2  0  0  0  0  0  0
  -26.3990  -29.8060   21.0820 C   0  0  0  0  0  0  0  0  0  0  0  0
  -27.6340  -29.1210   21.0980 C   0  0  0  0  0  3  0  0  0  0  0  0
  -26.6140  -27.2830   19.8740 C   0  0  0  0  0  3  0  0  0  0  0  0
  -25.3870  -27.9680   19.8540 C   0  0  0  0  0  3  0  0  0  0  0  0
  -24.0040  -30.0320   20.4680 C   0  0  0  0  0  2  0  0  0  0  0  0
  -24.9370  -31.3350   22.4330 N   0  0  0  0  0  0  0  0  0  0  0  0
  -23.7050  -32.3340   24.0530 O   0  0  0  0  0  0  0  0  0  0  0  0
  -23.0900  -29.6210   22.7760 C   0  0  0  0  0  0  0  0  0  0  0  0
  -21.7860  -29.3620   22.5830 N   0  0  0  0  0  0  0  0  0  0  0  0
  -23.7700  -29.0330   23.6190 O   0  0  0  0  0  0  0  0  0  0  0  0
  -21.2950  -29.8870   21.8700 H   0  0  0  0  0  0  0  0  0  0  0  0
  -18.4720  -27.9650   22.9140 C   0  0  0  0  0  0  0  0  0  0  0  0
  -20.9920  -28.3730   23.3120 C   0  0  0  0  0  3  0  0  0  0  0  0
  -21.2090  -26.9500   22.7440 C   0  0  0  0  0  2  0  0  0  0  0  0
  -20.1790  -26.5620   21.6760 C   0  0  0  0  0  2  0  0  0  0  0  0
  -18.7620  -26.6280   22.2540 C   0  0  0  0  0  2  0  0  0  0  0  0
  -19.5210  -28.7900   23.3990 C   0  0  0  0  0  0  0  0  0  0  0  0
  -19.2030  -30.0400   23.9710 C   0  0  0  0  0  3  0  0  0  0  0  0
  -17.8650  -30.4650   24.0730 C   0  0  0  0  0  3  0  0  0  0  0  0
  -16.8290  -29.6370   23.6090 C   0  0  0  0  0  3  0  0  0  0  0  0
  -17.1330  -28.3910   23.0320 C   0  0  0  0  0  3  0  0  0  0  0  0
  -26.0510  -32.7960   24.2080 C   0  0  0  0  0  3  0  0  0  0  0  0
  -26.4950  -32.0970   25.5500 C   0  0  1  0  0  0  0  0  0  0  0  0
  -25.3360  -31.8630   26.5460 C   0  0  0  0  0  1  0  0  0  0  0  0
  -27.1490  -30.7280   25.2540 C   0  0  0  0  0  1  0  0  0  0  0  0
  -27.5660  -32.9570   26.2590 C   0  0  0  0  0  1  0  0  0  0  0  0
  -25.7090  -34.2050   24.4420 N   0  0  0  0  0  0  0  0  0  0  0  0
  -26.0740  -35.2180   23.6420 C   0  0  0  0  0  0  0  0  0  0  0  0
  -26.8020  -35.0650   22.6570 O   0  0  0  0  0  0  0  0  0  0  0  0
  -25.0670  -34.3930   25.1980 H   0  0  0  0  0  0  0  0  0  0  0  0
  -24.3440  -36.9560   23.0900 C   0  0  0  0  0  1  0  0  0  0  0  0
  -25.5440  -36.6220   23.9910 C   0  0  0  0  0  3  0  0  0  0  0  0
  -27.6240  -37.5810   24.8740 C   0  0  0  0  0  1  0  0  0  0  0  0
  -26.5690  -37.6810   23.8690 N   0  0  0  0  0  0  0  0  0  0  0  0
  -26.1450  -38.6010   23.9460 H   0  0  0  0  0  0  0  0  0  0  0  0
  -27.4930  -21.3830   21.5210 C   0  0  0  0  0  2  0  0  0  0  0  0
  -28.6650  -20.7680   20.9950 O   0  0  0  0  0  0  0  0  0  0  0  0
  -28.3670  -19.5800   20.2660 C   0  0  0  0  0  2  0  0  0  0  0  0
  -29.6620  -18.8370   19.8940 C   0  0  0  0  0  2  0  0  0  0  0  0
  -30.0630  -17.9670   20.9490 O   0  0  0  0  0  0  0  0  0  0  0  0
  -31.4690  -17.8850   21.1710 C   0  0  0  0  0  2  0  0  0  0  0  0
  -32.1640  -16.8510   20.2700 C   0  0  0  0  0  2  0  0  0  0  0  0
  -31.9300  -14.4640   19.7030 C   0  0  0  0  0  0  0  0  0  0  0  0
  -31.3700  -12.1870   18.9420 C   0  0  0  0  0  2  0  0  0  0  0  0
  -30.3890  -12.2580   17.7560 C   0  0  0  0  0  2  0  0  0  0  0  0
  -28.9350  -12.3150   18.2570 C   0  0  0  0  0  2  0  0  0  0  0  0
  -28.7260  -13.3820   19.3650 C   0  0  0  0  0  3  0  0  0  0  0  0
  -29.8210  -13.2870   20.4530 C   0  0  0  0  0  2  0  0  0  0  0  0
  -31.1380  -13.3620   19.7950 N   0  0  0  0  0  0  0  0  0  0  0  0
  -32.9520  -14.5110   19.0150 O   0  0  0  0  0  0  0  0  0  0  0  0
  -31.5220  -15.5410   20.3790 N   0  0  0  0  0  0  0  0  0  0  0  0
  -30.6870  -15.4770   20.9440 H   0  0  0  0  0  0  0  0  0  0  0  0
  -26.5230  -14.3100   20.3180 C   0  0  0  0  0  0  0  0  0  0  0  0
  -25.3730  -13.6950   20.7340 C   0  0  0  0  0  0  0  0  0  0  0  0
  -25.5970  -12.2930   20.5790 C   0  0  0  0  0  0  0  0  0  0  0  0
  -27.3840  -13.2930   19.9390 N   0  0  0  0  0  0  0  0  0  0  0  0
  -26.8320  -12.0680   20.1490 N   0  0  0  0  0  0  0  0  0  0  0  0
  -24.6860  -11.1530   20.7540 C   0  0  0  0  0  0  0  0  0  0  0  0
  -25.0150  -10.0650   21.5910 C   0  0  0  0  0  3  0  0  0  0  0  0
  -24.1140   -8.9910   21.7570 C   0  0  0  0  0  3  0  0  0  0  0  0
  -22.8680   -9.0000   21.0880 C   0  0  0  0  0  0  0  0  0  0  0  0
  -22.5550  -10.0750   20.2360 C   0  0  0  0  0  3  0  0  0  0  0  0
  -23.4560  -11.1380   20.0660 C   0  0  0  0  0  3  0  0  0  0  0  0
  -21.9430   -7.9870   21.1680 O   0  0  0  0  0  0  0  0  0  0  0  0
  -21.8340   -7.1990   22.2860 C   0  0  0  0  0  0  0  0  0  0  0  0
  -21.5870   -7.7470   23.5640 C   0  0  0  0  0  3  0  0  0  0  0  0
  -21.4110   -6.8960   24.6730 C   0  0  0  0  0  3  0  0  0  0  0  0
  -21.4730   -5.4990   24.5060 C   0  0  0  0  0  0  0  0  0  0  0  0
  -21.7140   -4.9520   23.2340 C   0  0  0  0  0  3  0  0  0  0  0  0
  -21.8900   -5.8000   22.1260 C   0  0  0  0  0  0  0  0  0  0  0  0
  -22.1010   -5.2670   20.8980 F   0  0  0  0  0  0  0  0  0  0  0  0
  -21.2960   -4.6800   25.5700 F   0  0  0  0  0  0  0  0  0  0  0  0
  -24.1040  -14.3690   21.1660 C   0  0  0  0  0  0  0  0  0  0  0  0
  -23.3490  -13.7420   22.0620 N   0  0  0  0  0  0  0  0  0  0  0  0
  -23.7960  -15.4850   20.7480 O   0  0  0  0  0  0  0  0  0  0  0  0
  -23.6150  -12.8390   22.4260 H   0  0  0  0  0  0  0  0  0  0  0  0
  -22.4980  -14.1770   22.3890 H   0  0  0  0  0  0  0  0  0  0  0  0
  -26.9010  -15.6450   20.2170 N   0  0  0  0  0  0  0  0  0  0  0  0
  -26.2750  -16.4070   20.4510 H   0  0  0  0  0  0  0  0  0  0  0  0
  -27.7960  -15.9620   19.8690 H   0  0  0  0  0  0  0  0  0  0  0  0
  2  3  1  0
  2  1  1  0
  4  5  1  0
  4  3  1  0
  6 17  2  0
  7  5  1  0
  7 12  1  0
  8 16  1  0
  8 18  1  0
  9 15  1  0
  9 11  1  0
 10 16  1  0
 11 12  2  0
 11 10  1  0
 13  7  2  0
 14 13  1  0
 14  9  2  0
 15  8  1  0
 16  6  1  0
 18 20  2  0
 19 18  1  0
 21 19  1  0
 22 31  2  0
 22 27  1  0
 23 19  1  0
 23 27  1  0
 24 23  1  0
 25 26  1  0
 25 24  1  0
 26 22  1  0
 27 28  2  0
 28 29  1  0
 30 29  2  0
 31 30  1  0
 32  6  1  0
 32 37  1  0
 32 33  1  0
 33 36  1  1
 33 34  1  0
 35 33  1  0
 37 40  1  0
 38 42  1  0
 38 37  1  0
 39 38  2  0
 42 41  1  0
 44 45  1  0
 44 42  1  0
 44 43  1  0
 46  1  1  0
 47 46  1  0
 48 47  1  0
 49 48  1  0
 49 50  1  0
 50 51  1  0
 52 61  1  0
 52 51  1  0
 53 59  1  0
 53 61  1  0
 54 59  1  0
 55 56  1  0
 55 54  1  0
 57 56  1  0
 57 66  1  0
 57 58  1  0
 59 58  1  0
 60 53  2  0
 61 62  1  0
 63 64  2  0
 64 83  1  0
 65 64  1  0
 65 68  1  0
 66 67  1  0
 66 63  1  0
 67 65  2  0
 68 69  1  0
 69 70  2  0
 71 74  1  0
 71 70  1  0
 72 71  2  0
 73 72  1  0
 73 68  2  0
 74 75  1  0
 75 76  1  0
 76 77  2  0
 78 77  1  0
 78 82  1  0
 79 78  2  0
 80 75  2  0
 80 79  1  0
 81 80  1  0
 83 84  1  0
 84 87  1  0
 84 86  1  0
 85 83  2  0
 88 63  1  0
 88 89  1  0
 90 88  1  0
M  ISO  4   4 101   5 101  53 100  61 100
M  END
>  <TORSDO>  (36) 
F 26

>  <SCORE>  (36) 
-9.736

>  <name>  (36) 
37

>  <ligand_id>  (36) 
37

>  <original_smiles>  (36) 
[H]c1c([H])c([H])c2c(c1[H])C([H])([H])C([H])([H])C([H])([H])C2([H])N([H])C(=O)C1([H])N(C(=O)C([H])(N([H])C(=O)C([H])(N([H])C([H])([H])[H])C([H])([H])[H])C(C([H])([H])[H])(C([H])([H])[H])C([H])([H])[H])C([H])([H])c2c([H])c(OC([H])([H])C([H])([H])OC([H])([H])C([H])([H])OC([H])([H])C([H])([H])OC([H])([H])C([H])([H])N([H])C(=O)N3C([H])([H])C([H])([H])C([H])([H])C([H])(n4nc(-c5c([H])c([H])c(Oc6c([H])c([H])c(F)c([H])c6F)c([H])c5[H])c(C(=O)N([H])[H])c4N([H])[H])C3([H])[H])c([H])c([H])c2C1([H])[H]

>  <smiles>  (36) 
[H]c1c([H])c([H])c2c(c1[H])C([H])([H])C([H])([H])C([H])([H])C2([H])N([H])C(=O)C1([H])N(C(=O)C([H])(N([H])C(=O)C([H])(N([H])C([H])([H])[H])C([H])([H])[H])C(C([H])([H])[H])(C([H])([H])[H])C([H])([H])[H])C([H])([H])c2c([H])c(OC([H])([H])C([H])([H])OC([H])([H])C([H])([H])OC([H])([H])C([H])([H])OC([H])([H])C([H])([H])N([H])C(=O)N3C([H])([H])C([H])([H])C([H])([H])C([H])(n4nc(-c5c([H])c([H])c(Oc6c([H])c([H])c(F)c([H])c6F)c([H])c5[H])c(C(=O)N([H])[H])c4N([H])[H])C3([H])[H])c([H])c([H])c2C1([H])[H]

$$$$
38:0:0
     RDKit          3D

 97104  0  0  1  0  0  0  0  0999 V2000
  -28.3440  -23.3630   25.6940 C   0  0  0  0  0  2  0  0  0  0  0  0
  -28.7680  -24.7970   26.0370 C   0  0  0  0  0  2  0  0  0  0  0  0
  -27.6130  -25.6220   26.1000 O   0  0  0  0  0  0  0  0  0  0  0  0
  -27.9110  -27.0130   26.1530 C   0  0  0  0  0  2  0  0  0  0  0  0
  -27.6450  -27.6190   24.7700 C   0  0  0  0  0  2  0  0  0  0  0  0
  -28.4990  -27.0170   23.8030 O   0  0  0  0  0  0  0  0  0  0  0  0
  -28.0100  -27.2000   22.4810 C   0  0  0  0  0  2  0  0  0  0  0  0
  -28.7400  -26.2850   21.4750 C   0  0  0  0  0  2  0  0  0  0  0  0
  -28.2370  -26.4180   20.1430 O   0  0  0  0  0  0  0  0  0  0  0  0
  -24.3100  -31.6630   22.8490 C   0  0  0  0  0  0  0  0  0  0  0  0
  -27.0760  -27.1420   20.0580 C   0  0  0  0  0  0  0  0  0  0  0  0
  -23.1670  -30.2030   21.2070 C   0  0  0  0  0  3  0  0  0  0  0  0
  -24.6750  -28.6100   19.9070 C   0  0  0  0  0  0  0  0  0  0  0  0
  -25.6970  -30.5610   21.1050 C   0  0  0  0  0  2  0  0  0  0  0  0
  -25.8070  -29.1760   20.5080 C   0  0  0  0  0  0  0  0  0  0  0  0
  -27.0130  -28.4530   20.5720 C   0  0  0  0  0  3  0  0  0  0  0  0
  -25.9350  -26.5760   19.4550 C   0  0  0  0  0  3  0  0  0  0  0  0
  -24.7310  -27.3040   19.3780 C   0  0  0  0  0  3  0  0  0  0  0  0
  -23.4300  -29.4650   19.8660 C   0  0  0  0  0  2  0  0  0  0  0  0
  -24.4060  -30.8260   21.7780 N   0  0  0  0  0  0  0  0  0  0  0  0
  -23.2100  -31.9580   23.3340 O   0  0  0  0  0  0  0  0  0  0  0  0
  -22.4740  -29.2230   22.1810 C   0  0  0  0  0  0  0  0  0  0  0  0
  -21.1670  -29.0000   21.9720 N   0  0  0  0  0  0  0  0  0  0  0  0
  -23.1130  -28.6620   23.0740 O   0  0  0  0  0  0  0  0  0  0  0  0
  -20.7150  -29.5030   21.2200 H   0  0  0  0  0  0  0  0  0  0  0  0
  -17.7880  -27.7700   22.3190 C   0  0  0  0  0  0  0  0  0  0  0  0
  -20.3190  -28.0870   22.7370 C   0  0  0  0  0  3  0  0  0  0  0  0
  -20.4820  -26.6310   22.2380 C   0  0  0  0  0  2  0  0  0  0  0  0
  -19.4490  -26.2410   21.1750 C   0  0  0  0  0  2  0  0  0  0  0  0
  -18.0270  -26.3940   21.7240 C   0  0  0  0  0  2  0  0  0  0  0  0
  -18.8660  -28.5710   22.7820 C   0  0  0  0  0  0  0  0  0  0  0  0
  -18.5930  -29.8580   23.2930 C   0  0  0  0  0  3  0  0  0  0  0  0
  -17.2730  -30.3440   23.3540 C   0  0  0  0  0  3  0  0  0  0  0  0
  -16.2100  -29.5420   22.9060 C   0  0  0  0  0  3  0  0  0  0  0  0
  -16.4670  -28.2580   22.3940 C   0  0  0  0  0  3  0  0  0  0  0  0
  -25.5730  -32.3100   23.4970 C   0  0  0  0  0  3  0  0  0  0  0  0
  -25.2150  -33.6800   23.8900 N   0  0  0  0  0  0  0  0  0  0  0  0
  -25.6890  -34.7890   23.3050 C   0  0  0  0  0  0  0  0  0  0  0  0
  -26.5440  -34.7650   22.4160 O   0  0  0  0  0  0  0  0  0  0  0  0
  -24.4830  -33.7730   24.5790 H   0  0  0  0  0  0  0  0  0  0  0  0
  -24.1350  -36.6790   22.7450 C   0  0  0  0  0  1  0  0  0  0  0  0
  -25.1280  -36.1410   23.7850 C   0  0  0  0  0  3  0  0  0  0  0  0
  -27.0340  -36.8150   25.1790 C   0  0  0  0  0  1  0  0  0  0  0  0
  -26.1750  -37.1520   24.0450 N   0  0  0  0  0  0  0  0  0  0  0  0
  -25.7610  -38.0620   24.2240 H   0  0  0  0  0  0  0  0  0  0  0  0
  -26.1250  -31.4970   24.7340 C   0  0  1  0  0  0  0  0  0  0  0  0
  -25.0360  -31.1230   25.7640 C   0  0  0  0  0  1  0  0  0  0  0  0
  -26.8050  -30.1840   24.2730 C   0  0  0  0  0  1  0  0  0  0  0  0
  -27.2070  -32.3250   25.4670 C   0  0  0  0  0  1  0  0  0  0  0  0
  -29.4990  -22.5320   25.1160 C   0  0  0  0  0  2  0  0  0  0  0  0
  -30.0570  -23.2140   24.0030 O   0  0  0  0  0  0  0  0  0  0  0  0
  -31.2340  -22.5900   23.4940 C   0  0  0  0  0  2  0  0  0  0  0  0
  -31.5050  -23.0880   22.0670 C   0  0  0  0  0  0  0  0  0  0  0  0
  -31.9320  -22.1840   21.1750 N   0  0  0  0  0  0  0  0  0  0  0  0
  -31.3170  -24.2720   21.7690 O   0  0  0  0  0  0  0  0  0  0  0  0
  -32.0470  -21.2310   21.4980 H   0  0  0  0  0  0  0  0  0  0  0  0
  -32.1450  -22.4410   19.7510 C   0  0  0  0  0  2  0  0  0  0  0  0
  -33.6170  -22.7490   19.4050 C   0  0  0  0  0  2  0  0  0  0  0  0
  -34.6480  -21.7540   19.9780 C   0  0  0  0  0  2  0  0  0  0  0  0
  -34.9480  -19.7080   18.5720 C   0  0  0  0  0  0  0  0  0  0  0  0
  -35.0110  -17.5790   17.3240 C   0  0  0  0  0  2  0  0  0  0  0  0
  -34.0570  -17.6060   16.1150 C   0  0  0  0  0  2  0  0  0  0  0  0
  -32.6310  -17.1960   16.5290 C   0  0  0  0  0  2  0  0  0  0  0  0
  -32.1320  -17.9700   17.7780 C   0  0  0  0  0  3  0  0  0  0  0  0
  -33.1920  -17.9290   18.9020 C   0  0  0  0  0  2  0  0  0  0  0  0
  -34.4630  -18.4560   18.3690 N   0  0  0  0  0  0  0  0  0  0  0  0
  -35.8750  -20.1960   17.9180 O   0  0  0  0  0  0  0  0  0  0  0  0
  -34.3660  -20.3770   19.5760 N   0  0  0  0  0  0  0  0  0  0  0  0
  -33.6650  -19.8750   20.1010 H   0  0  0  0  0  0  0  0  0  0  0  0
  -29.6470  -18.1410   18.4390 C   0  0  0  0  0  0  0  0  0  0  0  0
  -28.7320  -17.1920   18.8070 C   0  0  0  0  0  0  0  0  0  0  0  0
  -29.4320  -15.9460   18.8010 C   0  0  0  0  0  0  0  0  0  0  0  0
  -30.8400  -17.4620   18.2370 N   0  0  0  0  0  0  0  0  0  0  0  0
  -30.7120  -16.1390   18.5070 N   0  0  0  0  0  0  0  0  0  0  0  0
  -28.9460  -14.5750   19.0010 C   0  0  0  0  0  0  0  0  0  0  0  0
  -29.4610  -13.7510   20.0260 C   0  0  0  0  0  3  0  0  0  0  0  0
  -28.9650  -12.4420   20.2100 C   0  0  0  0  0  3  0  0  0  0  0  0
  -27.9420  -11.9470   19.3670 C   0  0  0  0  0  0  0  0  0  0  0  0
  -27.4480  -12.7620   18.3340 C   0  0  0  0  0  3  0  0  0  0  0  0
  -27.9470  -14.0630   18.1500 C   0  0  0  0  0  3  0  0  0  0  0  0
  -27.4180  -10.6800   19.4550 O   0  0  0  0  0  0  0  0  0  0  0  0
  -27.1790  -10.0820   20.6670 C   0  0  0  0  0  0  0  0  0  0  0  0
  -26.3620  -10.6860   21.6470 C   0  0  0  0  0  3  0  0  0  0  0  0
  -26.0860  -10.0050   22.8510 C   0  0  0  0  0  3  0  0  0  0  0  0
  -26.6180   -8.7190   23.0700 C   0  0  0  0  0  0  0  0  0  0  0  0
  -27.4260   -8.1150   22.0920 C   0  0  0  0  0  3  0  0  0  0  0  0
  -27.7030   -8.7930   20.8930 C   0  0  0  0  0  0  0  0  0  0  0  0
  -28.4660   -8.1970   19.9450 F   0  0  0  0  0  0  0  0  0  0  0  0
  -26.3470   -8.0620   24.2220 F   0  0  0  0  0  0  0  0  0  0  0  0
  -27.2680  -17.4080   19.0570 C   0  0  0  0  0  0  0  0  0  0  0  0
  -26.6680  -16.6010   19.9260 N   0  0  0  0  0  0  0  0  0  0  0  0
  -26.6570  -18.3300   18.5190 O   0  0  0  0  0  0  0  0  0  0  0  0
  -27.1750  -15.8570   20.3840 H   0  0  0  0  0  0  0  0  0  0  0  0
  -25.6880  -16.7270   20.1360 H   0  0  0  0  0  0  0  0  0  0  0  0
  -29.5630  -19.5160   18.2430 N   0  0  0  0  0  0  0  0  0  0  0  0
  -28.6880  -20.0210   18.3290 H   0  0  0  0  0  0  0  0  0  0  0  0
  -30.3220  -20.0920   17.9040 H   0  0  0  0  0  0  0  0  0  0  0  0
  1  2  1  0
  2  3  1  0
  3  4  1  0
  5  4  1  0
  6  5  1  0
  7  6  1  0
  8  7  1  0
  9  8  1  0
 10 21  2  0
 11  9  1  0
 11 16  1  0
 12 20  1  0
 12 22  1  0
 13 15  1  0
 14 20  1  0
 15 16  2  0
 15 14  1  0
 17 11  2  0
 18 17  1  0
 18 13  2  0
 19 13  1  0
 19 12  1  0
 20 10  1  0
 22 24  2  0
 23 22  1  0
 25 23  1  0
 26 35  2  0
 26 31  1  0
 27 23  1  0
 27 31  1  0
 28 27  1  0
 29 30  1  0
 29 28  1  0
 30 26  1  0
 31 32  2  0
 32 33  1  0
 34 33  2  0
 35 34  1  0
 36 10  1  0
 36 37  1  0
 36 46  1  0
 37 40  1  0
 38 42  1  0
 38 37  1  0
 39 38  2  0
 42 41  1  0
 42 44  1  0
 44 45  1  0
 44 43  1  0
 46 49  1  1
 46 47  1  0
 48 46  1  0
 50  1  1  0
 51 50  1  0
 52 51  1  0
 53 52  1  0
 54 56  1  0
 54 53  1  0
 55 53  2  0
 57 54  1  0
 58 57  1  0
 58 59  1  0
 60 68  1  0
 61 66  1  0
 62 63  1  0
 62 61  1  0
 64 63  1  0
 64 73  1  0
 64 65  1  0
 66 60  1  0
 66 65  1  0
 67 60  2  0
 68 59  1  0
 68 69  1  0
 70 71  2  0
 71 90  1  0
 72 71  1  0
 72 75  1  0
 73 70  1  0
 73 74  1  0
 74 72  2  0
 75 76  1  0
 76 77  2  0
 78 81  1  0
 78 77  1  0
 79 78  2  0
 80 79  1  0
 80 75  2  0
 81 82  1  0
 82 87  2  0
 82 83  1  0
 83 84  2  0
 84 85  1  0
 85 89  1  0
 86 85  2  0
 87 86  1  0
 88 87  1  0
 90 91  1  0
 91 94  1  0
 91 93  1  0
 92 90  2  0
 95 96  1  0
 95 70  1  0
 97 95  1  0
M  ISO  4   8 101   9 101  60 100  68 100
M  END
>  <TORSDO>  (37) 
F 30

>  <SCORE>  (37) 
3.025

>  <name>  (37) 
38

>  <ligand_id>  (37) 
38

>  <original_smiles>  (37) 
[H]c1c([H])c([H])c2c(c1[H])C([H])([H])C([H])([H])C([H])([H])C2([H])N([H])C(=O)C1([H])N(C(=O)C([H])(N([H])C(=O)C([H])(N([H])C([H])([H])[H])C([H])([H])[H])C(C([H])([H])[H])(C([H])([H])[H])C([H])([H])[H])C([H])([H])c2c([H])c(OC([H])([H])C([H])([H])OC([H])([H])C([H])([H])OC([H])([H])C([H])([H])C([H])([H])OC([H])([H])C(=O)N([H])C([H])([H])C([H])([H])C([H])([H])N([H])C(=O)N3C([H])([H])C([H])([H])C([H])([H])C([H])(n4nc(-c5c([H])c([H])c(Oc6c([H])c([H])c(F)c([H])c6F)c([H])c5[H])c(C(=O)N([H])[H])c4N([H])[H])C3([H])[H])c([H])c([H])c2C1([H])[H]

>  <smiles>  (37) 
[H]c1c([H])c([H])c2c(c1[H])C([H])([H])C([H])([H])C([H])([H])C2([H])N([H])C(=O)C1([H])N(C(=O)C([H])(N([H])C(=O)C([H])(N([H])C([H])([H])[H])C([H])([H])[H])C(C([H])([H])[H])(C([H])([H])[H])C([H])([H])[H])C([H])([H])c2c([H])c(OC([H])([H])C([H])([H])OC([H])([H])C([H])([H])OC([H])([H])C([H])([H])C([H])([H])OC([H])([H])C(=O)N([H])C([H])([H])C([H])([H])C([H])([H])N([H])C(=O)N3C([H])([H])C([H])([H])C([H])([H])C([H])(n4nc(-c5c([H])c([H])c(Oc6c([H])c([H])c(F)c([H])c6F)c([H])c5[H])c(C(=O)N([H])[H])c4N([H])[H])C3([H])[H])c([H])c([H])c2C1([H])[H]

$$$$
39:0:0
     RDKit          3D

 88 95  0  0  1  0  0  0  0  0999 V2000
  -29.0440  -22.3870   20.0410 C   0  0  0  0  0  0  0  0  0  0  0  0
  -29.7110  -21.3960   22.2010 C   0  0  0  0  0  1  0  0  0  0  0  0
  -29.4410  -21.2700   20.7670 N   0  0  0  0  0  0  0  0  0  0  0  0
  -28.7800  -22.2760   18.8410 O   0  0  0  0  0  0  0  0  0  0  0  0
  -28.9770  -23.8570   20.6640 C   0  0  0  0  0  3  0  0  0  0  0  0
  -28.1600  -24.9970   19.8850 C   0  0  0  0  0  3  0  0  0  0  0  0
  -28.3010  -26.4430   20.2430 O   0  0  0  0  0  0  0  0  0  0  0  0
  -24.6230  -31.8900   23.2430 C   0  0  0  0  0  0  0  0  0  0  0  0
  -27.1920  -27.3130   20.1610 C   0  0  0  0  0  0  0  0  0  0  0  0
  -23.4010  -30.4970   21.6110 C   0  0  0  0  0  3  0  0  0  0  0  0
  -24.8370  -28.9510   20.1650 C   0  0  0  0  0  0  0  0  0  0  0  0
  -25.9420  -30.8040   21.4100 C   0  0  0  0  0  2  0  0  0  0  0  0
  -26.0110  -29.4260   20.7610 C   0  0  0  0  0  0  0  0  0  0  0  0
  -27.1880  -28.6170   20.7550 C   0  0  0  0  0  3  0  0  0  0  0  0
  -26.0010  -26.9140   19.5090 C   0  0  0  0  0  3  0  0  0  0  0  0
  -24.8360  -27.7030   19.5270 C   0  0  0  0  0  3  0  0  0  0  0  0
  -23.6020  -29.8270   20.2260 C   0  0  0  0  0  2  0  0  0  0  0  0
  -24.6740  -31.0830   22.1440 N   0  0  0  0  0  0  0  0  0  0  0  0
  -23.5430  -32.1690   23.7870 O   0  0  0  0  0  0  0  0  0  0  0  0
  -22.7470  -29.4780   22.5740 C   0  0  0  0  0  0  0  0  0  0  0  0
  -21.4210  -29.2920   22.4500 N   0  0  0  0  0  0  0  0  0  0  0  0
  -23.4300  -28.8580   23.3930 O   0  0  0  0  0  0  0  0  0  0  0  0
  -20.9290  -29.8450   21.7620 H   0  0  0  0  0  0  0  0  0  0  0  0
  -18.0530  -28.0670   22.9440 C   0  0  0  0  0  0  0  0  0  0  0  0
  -20.6070  -28.3540   23.2250 C   0  0  0  0  0  3  0  0  0  0  0  0
  -20.7270  -26.9180   22.6640 C   0  0  0  0  0  2  0  0  0  0  0  0
  -19.6330  -26.5750   21.6470 C   0  0  0  0  0  2  0  0  0  0  0  0
  -18.2460  -26.7130   22.2820 C   0  0  0  0  0  2  0  0  0  0  0  0
  -19.1620  -28.8440   23.3730 C   0  0  0  0  0  0  0  0  0  0  0  0
  -18.9280  -30.1100   23.9500 C   0  0  0  0  0  3  0  0  0  0  0  0
  -17.6170  -30.5990   24.1070 C   0  0  0  0  0  3  0  0  0  0  0  0
  -16.5230  -29.8190   23.6940 C   0  0  0  0  0  3  0  0  0  0  0  0
  -16.7420  -28.5550   23.1170 C   0  0  0  0  0  3  0  0  0  0  0  0
  -25.9110  -32.5190   23.8550 C   0  0  0  0  0  3  0  0  0  0  0  0
  -25.6080  -33.9200   24.1850 N   0  0  0  0  0  0  0  0  0  0  0  0
  -25.9340  -34.9710   23.4220 C   0  0  0  0  0  0  0  0  0  0  0  0
  -26.5940  -34.8650   22.3850 O   0  0  0  0  0  0  0  0  0  0  0  0
  -25.0200  -34.0760   24.9910 H   0  0  0  0  0  0  0  0  0  0  0  0
  -24.2080  -36.7700   23.0840 C   0  0  0  0  0  1  0  0  0  0  0  0
  -25.4550  -36.3610   23.8850 C   0  0  0  0  0  3  0  0  0  0  0  0
  -27.5990  -37.2410   24.6950 C   0  0  0  0  0  1  0  0  0  0  0  0
  -26.4900  -37.4120   23.7620 N   0  0  0  0  0  0  0  0  0  0  0  0
  -26.0870  -38.3320   23.9110 H   0  0  0  0  0  0  0  0  0  0  0  0
  -26.4340  -31.7500   25.1290 C   0  0  1  0  0  0  0  0  0  0  0  0
  -25.3480  -31.5200   26.2050 C   0  0  0  0  0  1  0  0  0  0  0  0
  -27.0090  -30.3690   24.7380 C   0  0  0  0  0  1  0  0  0  0  0  0
  -27.5910  -32.5420   25.7810 C   0  0  0  0  0  1  0  0  0  0  0  0
  -29.9200  -19.9520   20.1630 C   0  0  0  0  0  2  0  0  0  0  0  0
  -29.4920  -18.5220   20.7670 C   0  0  0  0  0  3  0  0  0  0  0  0
  -30.3030  -17.2520   20.2150 C   0  0  0  0  0  3  0  0  0  0  0  0
  -30.6100  -14.6960   20.2840 C   0  0  0  0  0  0  0  0  0  0  0  0
  -30.3260  -12.4640   19.2280 C   0  0  0  0  0  2  0  0  0  0  0  0
  -29.3750  -12.6040   18.0210 C   0  0  0  0  0  2  0  0  0  0  0  0
  -27.9080  -12.4570   18.4670 C   0  0  0  0  0  2  0  0  0  0  0  0
  -27.5730  -13.3170   19.7160 C   0  0  0  0  0  3  0  0  0  0  0  0
  -28.6470  -13.1760   20.8180 C   0  0  0  0  0  2  0  0  0  0  0  0
  -29.9460  -13.4970   20.2160 N   0  0  0  0  0  0  0  0  0  0  0  0
  -31.7770  -14.7900   19.8920 O   0  0  0  0  0  0  0  0  0  0  0  0
  -29.8870  -15.8350   20.5640 N   0  0  0  0  0  0  0  0  0  0  0  0
  -28.9320  -15.6930   20.8550 H   0  0  0  0  0  0  0  0  0  0  0  0
  -25.1940  -13.9200   20.4690 C   0  0  0  0  0  0  0  0  0  0  0  0
  -24.1300  -13.1500   20.8540 C   0  0  0  0  0  0  0  0  0  0  0  0
  -24.5880  -11.7970   20.8220 C   0  0  0  0  0  0  0  0  0  0  0  0
  -26.2330  -13.0360   20.2230 N   0  0  0  0  0  0  0  0  0  0  0  0
  -25.8750  -11.7540   20.4980 N   0  0  0  0  0  0  0  0  0  0  0  0
  -23.8610  -10.5380   21.0250 C   0  0  0  0  0  0  0  0  0  0  0  0
  -24.3060   -9.5680   21.9500 C   0  0  0  0  0  3  0  0  0  0  0  0
  -23.5780   -8.3740   22.1410 C   0  0  0  0  0  3  0  0  0  0  0  0
  -22.3910   -8.1410   21.4080 C   0  0  0  0  0  0  0  0  0  0  0  0
  -21.9650   -9.0980   20.4700 C   0  0  0  0  0  3  0  0  0  0  0  0
  -22.6930  -10.2850   20.2780 C   0  0  0  0  0  3  0  0  0  0  0  0
  -21.6340   -7.0000   21.5080 O   0  0  0  0  0  0  0  0  0  0  0  0
  -21.6080   -6.2510   22.6580 C   0  0  0  0  0  0  0  0  0  0  0  0
  -21.2140   -6.8020   23.8970 C   0  0  0  0  0  3  0  0  0  0  0  0
  -21.1360   -5.9810   25.0400 C   0  0  0  0  0  3  0  0  0  0  0  0
  -21.4410   -4.6100   24.9450 C   0  0  0  0  0  0  0  0  0  0  0  0
  -21.8260   -4.0580   23.7100 C   0  0  0  0  0  3  0  0  0  0  0  0
  -21.9080   -4.8760   22.5700 C   0  0  0  0  0  0  0  0  0  0  0  0
  -22.2590   -4.3340   21.3790 F   0  0  0  0  0  0  0  0  0  0  0  0
  -21.3570   -3.8190   26.0410 F   0  0  0  0  0  0  0  0  0  0  0  0
  -22.7370  -13.6330   21.1390 C   0  0  0  0  0  0  0  0  0  0  0  0
  -22.0170  -12.9440   22.0170 N   0  0  0  0  0  0  0  0  0  0  0  0
  -22.2970  -14.6560   20.6170 O   0  0  0  0  0  0  0  0  0  0  0  0
  -22.3870  -12.1170   22.4610 H   0  0  0  0  0  0  0  0  0  0  0  0
  -21.0820  -13.2470   22.2460 H   0  0  0  0  0  0  0  0  0  0  0  0
  -25.3590  -15.2900   20.2810 N   0  0  0  0  0  0  0  0  0  0  0  0
  -24.5920  -15.9430   20.4000 H   0  0  0  0  0  0  0  0  0  0  0  0
  -26.1940  -15.7250   19.9140 H   0  0  0  0  0  0  0  0  0  0  0  0
  1  5  1  0
  1  3  1  0
  3  2  1  0
  4  1  2  0
  6  7  1  0
  6  5  2  0
  8 19  2  0
  9  7  1  0
  9 14  1  0
 10 18  1  0
 10 20  1  0
 11 17  1  0
 11 13  1  0
 12 18  1  0
 13 12  1  0
 14 13  2  0
 15 16  1  0
 15  9  2  0
 16 11  2  0
 17 10  1  0
 18  8  1  0
 20 22  2  0
 21 20  1  0
 23 21  1  0
 24 33  2  0
 24 29  1  0
 25 21  1  0
 25 29  1  0
 26 25  1  0
 27 28  1  0
 27 26  1  0
 28 24  1  0
 29 30  2  0
 30 31  1  0
 32 31  2  0
 33 32  1  0
 34  8  1  0
 34 35  1  0
 34 44  1  0
 35 38  1  0
 36 40  1  0
 36 35  1  0
 37 36  2  0
 40 39  1  0
 42 40  1  0
 42 43  1  0
 42 41  1  0
 44 47  1  1
 44 45  1  0
 46 44  1  0
 48  3  1  0
 48 49  1  0
 50 59  1  0
 50 49  2  0
 51 59  1  0
 52 57  1  0
 53 54  1  0
 53 52  1  0
 55 54  1  0
 55 64  1  0
 55 56  1  0
 57 51  1  0
 57 56  1  0
 58 51  2  0
 59 60  1  0
 61 62  2  0
 62 81  1  0
 63 62  1  0
 63 66  1  0
 64 61  1  0
 64 65  1  0
 65 63  2  0
 66 67  1  0
 67 68  2  0
 69 72  1  0
 69 68  1  0
 70 69  2  0
 71 70  1  0
 71 66  2  0
 72 73  1  0
 73 74  1  0
 74 75  2  0
 76 75  1  0
 76 80  1  0
 77 76  2  0
 78 73  2  0
 78 77  1  0
 79 78  1  0
 81 82  1  0
 82 85  1  0
 82 84  1  0
 83 81  2  0
 86 87  1  0
 86 61  1  0
 88 86  1  0
M  ISO  4   6 101   7 101  51 100  59 100
M  END
>  <TORSDO>  (38) 
F 21

>  <SCORE>  (38) 
-13.311

>  <name>  (38) 
39

>  <ligand_id>  (38) 
39

>  <original_smiles>  (38) 
[H]c1c([H])c([H])c2c(c1[H])C([H])([H])C([H])([H])C([H])([H])C2([H])N([H])C(=O)C1([H])N(C(=O)C([H])(N([H])C(=O)C([H])(N([H])C([H])([H])[H])C([H])([H])[H])C(C([H])([H])[H])(C([H])([H])[H])C([H])([H])[H])C([H])([H])c2c([H])c(OC([H])([H])C([H])([H])C(=O)N(C([H])([H])[H])C([H])([H])C([H])([H])C([H])([H])N([H])C(=O)N3C([H])([H])C([H])([H])C([H])([H])C([H])(n4nc(-c5c([H])c([H])c(Oc6c([H])c([H])c(F)c([H])c6F)c([H])c5[H])c(C(=O)N([H])[H])c4N([H])[H])C3([H])[H])c([H])c([H])c2C1([H])[H]

>  <smiles>  (38) 
[H]c1c([H])c([H])c2c(c1[H])C([H])([H])C([H])([H])C([H])([H])C2([H])N([H])C(=O)C1([H])N(C(=O)C([H])(N([H])C(=O)C([H])(N([H])C([H])([H])[H])C([H])([H])[H])C(C([H])([H])[H])(C([H])([H])[H])C([H])([H])[H])C([H])([H])c2c([H])c(OC([H])([H])C([H])([H])C(=O)N(C([H])([H])[H])C([H])([H])C([H])([H])C([H])([H])N([H])C(=O)N3C([H])([H])C([H])([H])C([H])([H])C([H])(n4nc(-c5c([H])c([H])c(Oc6c([H])c([H])c(F)c([H])c6F)c([H])c5[H])c(C(=O)N([H])[H])c4N([H])[H])C3([H])[H])c([H])c([H])c2C1([H])[H]

$$$$
40:0:0
     RDKit          3D

 92100  0  0  1  0  0  0  0  0999 V2000
  -29.1880  -22.9750   20.9330 C   0  0  0  0  0  2  0  0  0  0  0  0
  -28.6970  -24.1930   20.0850 C   0  0  0  0  0  3  0  0  0  0  0  0
  -27.4480  -23.8260   19.5240 O   0  0  0  0  0  0  0  0  0  0  0  0
  -27.0930  -24.6030   19.1070 H   0  0  0  0  0  0  0  0  0  0  0  0
  -28.4750  -25.4980   20.9220 C   0  0  0  0  0  2  0  0  0  0  0  0
  -28.5140  -26.7290   20.1670 O   0  0  0  0  0  0  0  0  0  0  0  0
  -24.6620  -31.8920   23.2690 C   0  0  0  0  0  0  0  0  0  0  0  0
  -27.3580  -27.4830   20.1810 C   0  0  0  0  0  0  0  0  0  0  0  0
  -23.4810  -30.5070   21.5920 C   0  0  0  0  0  3  0  0  0  0  0  0
  -24.9610  -28.9910   20.1700 C   0  0  0  0  0  0  0  0  0  0  0  0
  -26.0090  -30.8750   21.4320 C   0  0  0  0  0  2  0  0  0  0  0  0
  -26.1100  -29.5090   20.7820 C   0  0  0  0  0  0  0  0  0  0  0  0
  -27.3130  -28.7630   20.7850 C   0  0  0  0  0  3  0  0  0  0  0  0
  -26.1960  -26.9890   19.5540 C   0  0  0  0  0  3  0  0  0  0  0  0
  -24.9990  -27.7300   19.5530 C   0  0  0  0  0  3  0  0  0  0  0  0
  -23.7150  -29.8480   20.2080 C   0  0  0  0  0  2  0  0  0  0  0  0
  -24.7340  -31.1060   22.1560 N   0  0  0  0  0  0  0  0  0  0  0  0
  -23.5740  -32.1530   23.7990 O   0  0  0  0  0  0  0  0  0  0  0  0
  -22.8210  -29.4720   22.5310 C   0  0  0  0  0  0  0  0  0  0  0  0
  -21.4970  -29.2960   22.3970 N   0  0  0  0  0  0  0  0  0  0  0  0
  -23.5000  -28.8300   23.3380 O   0  0  0  0  0  0  0  0  0  0  0  0
  -21.0130  -29.8580   21.7090 H   0  0  0  0  0  0  0  0  0  0  0  0
  -18.1130  -28.1330   22.8850 C   0  0  0  0  0  0  0  0  0  0  0  0
  -20.6740  -28.3500   23.1490 C   0  0  0  0  0  3  0  0  0  0  0  0
  -20.7530  -26.9330   22.5350 C   0  0  0  0  0  2  0  0  0  0  0  0
  -19.6420  -26.6580   21.5160 C   0  0  0  0  0  2  0  0  0  0  0  0
  -18.2670  -26.7990   22.1720 C   0  0  0  0  0  2  0  0  0  0  0  0
  -19.2430  -28.8680   23.3290 C   0  0  0  0  0  0  0  0  0  0  0  0
  -19.0430  -30.1170   23.9570 C   0  0  0  0  0  3  0  0  0  0  0  0
  -17.7480  -30.6330   24.1410 C   0  0  0  0  0  3  0  0  0  0  0  0
  -16.6310  -29.8940   23.7110 C   0  0  0  0  0  3  0  0  0  0  0  0
  -16.8160  -28.6460   23.0890 C   0  0  0  0  0  3  0  0  0  0  0  0
  -25.9390  -32.5170   23.9120 C   0  0  0  0  0  3  0  0  0  0  0  0
  -25.6270  -33.9140   24.2450 N   0  0  0  0  0  0  0  0  0  0  0  0
  -25.9710  -34.9680   23.4950 C   0  0  0  0  0  0  0  0  0  0  0  0
  -26.6590  -34.8700   22.4740 O   0  0  0  0  0  0  0  0  0  0  0  0
  -25.0170  -34.0650   25.0350 H   0  0  0  0  0  0  0  0  0  0  0  0
  -24.2520  -36.7650   23.1170 C   0  0  0  0  0  1  0  0  0  0  0  0
  -25.4760  -36.3540   23.9500 C   0  0  0  0  0  3  0  0  0  0  0  0
  -27.5950  -37.2330   24.8270 C   0  0  0  0  0  1  0  0  0  0  0  0
  -26.5120  -37.4070   23.8620 N   0  0  0  0  0  0  0  0  0  0  0  0
  -26.1040  -38.3270   24.0070 H   0  0  0  0  0  0  0  0  0  0  0  0
  -26.4380  -31.7360   25.1890 C   0  0  1  0  0  0  0  0  0  0  0  0
  -25.3290  -31.4840   26.2360 C   0  0  0  0  0  1  0  0  0  0  0  0
  -27.0340  -30.3650   24.7910 C   0  0  0  0  0  1  0  0  0  0  0  0
  -27.5730  -32.5300   25.8780 C   0  0  0  0  0  1  0  0  0  0  0  0
  -29.8860  -21.9670   20.1680 O   0  0  0  0  0  0  0  0  0  0  0  0
  -27.5670  -19.0520   19.8250 C   0  0  0  0  0  3  0  0  0  0  0  0
  -28.4640  -17.9780   19.9860 C   0  0  0  0  0  3  0  0  0  0  0  0
  -28.0180  -20.3860   19.8880 C   0  0  0  0  0  3  0  0  0  0  0  0
  -30.2810  -19.5800   20.2440 C   0  0  0  0  0  3  0  0  0  0  0  0
  -29.8370  -18.2300   20.1930 C   0  0  0  0  0  0  0  0  0  0  0  0
  -29.3830  -20.6740   20.1140 C   0  0  0  0  0  0  0  0  0  0  0  0
  -30.8570  -17.0960   20.3830 C   0  0  0  0  0  2  0  0  0  0  0  0
  -31.0370  -14.6180   20.2130 C   0  0  0  0  0  0  0  0  0  0  0  0
  -30.7270  -12.3670   19.2660 C   0  0  0  0  0  2  0  0  0  0  0  0
  -29.7980  -12.4700   18.0410 C   0  0  0  0  0  2  0  0  0  0  0  0
  -28.3260  -12.3540   18.4820 C   0  0  0  0  0  2  0  0  0  0  0  0
  -27.9780  -13.3040   19.6580 C   0  0  0  0  0  3  0  0  0  0  0  0
  -29.0250  -13.1970   20.7890 C   0  0  0  0  0  2  0  0  0  0  0  0
  -30.3510  -13.4420   20.1990 N   0  0  0  0  0  0  0  0  0  0  0  0
  -32.1750  -14.7210   19.7550 O   0  0  0  0  0  0  0  0  0  0  0  0
  -30.3500  -15.7200   20.5850 N   0  0  0  0  0  0  0  0  0  0  0  0
  -29.4200  -15.5990   20.9520 H   0  0  0  0  0  0  0  0  0  0  0  0
  -25.6100  -13.9880   20.3990 C   0  0  0  0  0  0  0  0  0  0  0  0
  -24.5230  -13.2490   20.7780 C   0  0  0  0  0  0  0  0  0  0  0  0
  -24.9380  -11.8830   20.7370 C   0  0  0  0  0  0  0  0  0  0  0  0
  -26.6220  -13.0730   20.1500 N   0  0  0  0  0  0  0  0  0  0  0  0
  -26.2220  -11.8020   20.4110 N   0  0  0  0  0  0  0  0  0  0  0  0
  -24.1740  -10.6440   20.9300 C   0  0  0  0  0  0  0  0  0  0  0  0
  -24.5720   -9.6710   21.8740 C   0  0  0  0  0  3  0  0  0  0  0  0
  -23.8100   -8.4970   22.0560 C   0  0  0  0  0  3  0  0  0  0  0  0
  -22.6380   -8.2870   21.2930 C   0  0  0  0  0  0  0  0  0  0  0  0
  -22.2570   -9.2490   20.3400 C   0  0  0  0  0  3  0  0  0  0  0  0
  -23.0180  -10.4160   20.1560 C   0  0  0  0  0  3  0  0  0  0  0  0
  -21.8490   -7.1660   21.3820 O   0  0  0  0  0  0  0  0  0  0  0  0
  -21.7520   -6.4450   22.5450 C   0  0  0  0  0  0  0  0  0  0  0  0
  -21.3180   -7.0350   23.7530 C   0  0  0  0  0  3  0  0  0  0  0  0
  -21.1670   -6.2420   24.9080 C   0  0  0  0  0  3  0  0  0  0  0  0
  -21.4390   -4.8610   24.8570 C   0  0  0  0  0  0  0  0  0  0  0  0
  -21.8660   -4.2720   23.6540 C   0  0  0  0  0  3  0  0  0  0  0  0
  -22.0190   -5.0620   22.5010 C   0  0  0  0  0  0  0  0  0  0  0  0
  -22.4100   -4.4850   21.3390 F   0  0  0  0  0  0  0  0  0  0  0  0
  -21.2870   -4.0990   25.9640 F   0  0  0  0  0  0  0  0  0  0  0  0
  -23.1440  -13.7710   21.0660 C   0  0  0  0  0  0  0  0  0  0  0  0
  -22.4060  -13.1060   21.9470 N   0  0  0  0  0  0  0  0  0  0  0  0
  -22.7290  -14.8030   20.5410 O   0  0  0  0  0  0  0  0  0  0  0  0
  -22.7570  -12.2740   22.4000 H   0  0  0  0  0  0  0  0  0  0  0  0
  -21.4790  -13.4350   22.1770 H   0  0  0  0  0  0  0  0  0  0  0  0
  -25.8160  -15.3530   20.2260 N   0  0  0  0  0  0  0  0  0  0  0  0
  -25.0660  -16.0250   20.3450 H   0  0  0  0  0  0  0  0  0  0  0  0
  -26.6650  -15.7680   19.8660 H   0  0  0  0  0  0  0  0  0  0  0  0
  2  5  1  0
  2  1  1  0
  3  2  1  0
  4  3  1  0
  6  8  1  0
  6  5  1  0
  7 18  2  0
  8 13  1  0
  9 17  1  0
  9 19  1  0
 10 16  1  0
 10 12  1  0
 11 17  1  0
 12 13  2  0
 12 11  1  0
 14  8  2  0
 15 14  1  0
 15 10  2  0
 16  9  1  0
 17  7  1  0
 19 21  2  0
 20 19  1  0
 22 20  1  0
 23 32  2  0
 23 28  1  0
 24 20  1  0
 24 28  1  0
 25 24  1  0
 26 27  1  0
 26 25  1  0
 27 23  1  0
 28 29  2  0
 29 30  1  0
 31 30  2  0
 32 31  1  0
 33  7  1  0
 33 34  1  0
 33 43  1  0
 34 37  1  0
 35 39  1  0
 35 34  1  0
 36 35  2  0
 39 38  1  0
 41 39  1  0
 41 42  1  0
 41 40  1  0
 43 46  1  1
 43 44  1  0
 45 43  1  0
 47  1  1  0
 48 50  2  0
 48 49  1  0
 49 52  2  0
 50 53  1  0
 52 51  1  0
 52 54  1  0
 53 47  1  0
 53 51  2  0
 54 63  1  0
 55 63  1  0
 56 61  1  0
 57 58  1  0
 57 56  1  0
 59 58  1  0
 59 68  1  0
 59 60  1  0
 61 55  1  0
 61 60  1  0
 62 55  2  0
 63 64  1  0
 65 66  2  0
 66 85  1  0
 67 66  1  0
 67 70  1  0
 68 65  1  0
 68 69  1  0
 69 67  2  0
 70 71  1  0
 71 72  2  0
 73 76  1  0
 73 72  1  0
 74 73  2  0
 75 74  1  0
 75 70  2  0
 76 77  1  0
 77 78  1  0
 78 79  2  0
 80 79  1  0
 80 84  1  0
 81 80  2  0
 82 77  2  0
 82 81  1  0
 83 82  1  0
 85 86  1  0
 86 89  1  0
 86 88  1  0
 87 85  2  0
 90 91  1  0
 90 65  1  0
 92 90  1  0
M  ISO  4   5 101   6 101  55 100  63 100
M  END
>  <TORSDO>  (39) 
F 22

>  <SCORE>  (39) 
-13.275

>  <name>  (39) 
40

>  <ligand_id>  (39) 
40

>  <original_smiles>  (39) 
[H]OC([H])(C([H])([H])Oc1c([H])c([H])c([H])c(C([H])([H])N([H])C(=O)N2C([H])([H])C([H])([H])C([H])([H])C([H])(n3nc(-c4c([H])c([H])c(Oc5c([H])c([H])c(F)c([H])c5F)c([H])c4[H])c(C(=O)N([H])[H])c3N([H])[H])C2([H])[H])c1[H])C([H])([H])Oc1c([H])c([H])c2c(c1[H])C([H])([H])N(C(=O)C([H])(N([H])C(=O)C([H])(N([H])C([H])([H])[H])C([H])([H])[H])C(C([H])([H])[H])(C([H])([H])[H])C([H])([H])[H])C([H])(C(=O)N([H])C1([H])c3c([H])c([H])c([H])c([H])c3C([H])([H])C([H])([H])C1([H])[H])C2([H])[H]

>  <smiles>  (39) 
[H]OC([H])(C([H])([H])Oc1c([H])c([H])c([H])c(C([H])([H])N([H])C(=O)N2C([H])([H])C([H])([H])C([H])([H])C([H])(n3nc(-c4c([H])c([H])c(Oc5c([H])c([H])c(F)c([H])c5F)c([H])c4[H])c(C(=O)N([H])[H])c3N([H])[H])C2([H])[H])c1[H])C([H])([H])Oc1c([H])c([H])c2c(c1[H])C([H])([H])N(C(=O)C([H])(N([H])C(=O)C([H])(N([H])C([H])([H])[H])C([H])([H])[H])C(C([H])([H])[H])(C([H])([H])[H])C([H])([H])[H])C([H])(C(=O)N([H])C1([H])c3c([H])c([H])c([H])c([H])c3C([H])([H])C([H])([H])C1([H])[H])C2([H])[H]

$$$$
41:0:0
     RDKit          3D

 95102  0  0  1  0  0  0  0  0999 V2000
  -29.6710  -19.0210   20.0930 C   0  0  0  0  0  3  0  0  0  0  0  0
  -29.7140  -19.0890   18.6070 N   0  0  0  0  0  4  0  0  0  0  0  0
  -29.9400  -20.0410   18.3520 H   0  0  0  0  0  0  0  0  0  0  0  0
  -30.4370  -18.4980   18.2280 H   0  0  0  0  0  0  0  0  0  0  0  0
  -28.2270  -17.2860   17.7530 C   0  0  0  0  0  1  0  0  0  0  0  0
  -28.4300  -18.8070   17.9190 C   0  0  0  0  0  3  0  0  0  0  0  0
  -29.4640  -19.3510   15.6040 C   0  0  0  0  0  1  0  0  0  0  0  0
  -28.1910  -21.1280   16.8610 C   0  0  0  0  0  1  0  0  0  0  0  0
  -28.3200  -19.6200   16.5890 C   0  0  2  0  0  0  0  0  0  0  0  0
  -27.0960  -19.2490   15.9070 N   0  0  0  0  0  0  0  0  0  0  0  0
  -26.9750  -19.8810   15.1250 H   0  0  0  0  0  0  0  0  0  0  0  0
  -26.3150  -19.4520   16.5190 H   0  0  0  0  0  0  0  0  0  0  0  0
  -29.9200  -20.5950   20.6430 C   0  0  0  0  0  2  0  0  0  0  0  0
  -29.0570  -21.8110   20.2340 O   0  0  0  0  0  0  0  0  0  0  0  0
  -29.3420  -23.2900   20.5990 C   0  0  0  0  0  3  0  0  0  0  0  0
  -28.3330  -24.5990   20.2530 C   0  0  0  0  0  3  0  0  0  0  0  0
  -28.5600  -26.1240   20.5040 O   0  0  0  0  0  0  0  0  0  0  0  0
  -24.5990  -31.7100   23.2550 C   0  0  0  0  0  0  0  0  0  0  0  0
  -27.4900  -27.0870   20.3800 C   0  0  0  0  0  0  0  0  0  0  0  0
  -23.5630  -30.3300   21.4970 C   0  0  0  0  0  3  0  0  0  0  0  0
  -25.1480  -28.8030   20.1750 C   0  0  0  0  0  0  0  0  0  0  0  0
  -26.1170  -30.6320   21.5540 C   0  0  0  0  0  2  0  0  0  0  0  0
  -26.2660  -29.2530   20.8880 C   0  0  0  0  0  0  0  0  0  0  0  0
  -27.4390  -28.4130   20.9730 C   0  0  0  0  0  3  0  0  0  0  0  0
  -26.3480  -26.7430   19.6220 C   0  0  0  0  0  3  0  0  0  0  0  0
  -25.2040  -27.5620   19.5270 C   0  0  0  0  0  3  0  0  0  0  0  0
  -23.9080  -29.6820   20.1310 C   0  0  0  0  0  2  0  0  0  0  0  0
  -24.7750  -30.9110   22.1590 N   0  0  0  0  0  0  0  0  0  0  0  0
  -23.4700  -31.9700   23.6940 O   0  0  0  0  0  0  0  0  0  0  0  0
  -22.8200  -29.2950   22.3800 C   0  0  0  0  0  0  0  0  0  0  0  0
  -21.4940  -29.1650   22.1900 N   0  0  0  0  0  0  0  0  0  0  0  0
  -23.4400  -28.6130   23.2000 O   0  0  0  0  0  0  0  0  0  0  0  0
  -21.0520  -29.7680   21.5100 H   0  0  0  0  0  0  0  0  0  0  0  0
  -18.0460  -28.1430   22.6180 C   0  0  0  0  0  0  0  0  0  0  0  0
  -20.6180  -28.2150   22.8800 C   0  0  0  0  0  3  0  0  0  0  0  0
  -20.6240  -26.8380   22.1770 C   0  0  0  0  0  2  0  0  0  0  0  0
  -19.4980  -26.6820   21.1490 C   0  0  0  0  0  2  0  0  0  0  0  0
  -18.1320  -26.8540   21.8180 C   0  0  0  0  0  2  0  0  0  0  0  0
  -19.2140  -28.7910   23.1030 C   0  0  0  0  0  0  0  0  0  0  0  0
  -19.0790  -30.0020   23.8140 C   0  0  0  0  0  3  0  0  0  0  0  0
  -17.8100  -30.5660   24.0440 C   0  0  0  0  0  3  0  0  0  0  0  0
  -16.6560  -29.9140   23.5730 C   0  0  0  0  0  3  0  0  0  0  0  0
  -16.7760  -28.7030   22.8660 C   0  0  0  0  0  3  0  0  0  0  0  0
  -25.8120  -32.3500   23.9990 C   0  0  0  0  0  3  0  0  0  0  0  0
  -26.1830  -31.6010   25.3390 C   0  0  1  0  0  0  0  0  0  0  0  0
  -24.9800  -31.3870   26.2870 C   0  0  0  0  0  1  0  0  0  0  0  0
  -26.7980  -30.2140   25.0410 C   0  0  0  0  0  1  0  0  0  0  0  0
  -27.2590  -32.4050   26.1060 C   0  0  0  0  0  1  0  0  0  0  0  0
  -25.4740  -33.7550   24.2750 N   0  0  0  0  0  0  0  0  0  0  0  0
  -25.8590  -34.7960   23.5250 C   0  0  0  0  0  0  0  0  0  0  0  0
  -26.6000  -34.6740   22.5450 O   0  0  0  0  0  0  0  0  0  0  0  0
  -24.8240  -33.9240   25.0290 H   0  0  0  0  0  0  0  0  0  0  0  0
  -24.1510  -36.5780   23.0280 C   0  0  0  0  0  1  0  0  0  0  0  0
  -25.3420  -36.1940   23.9210 C   0  0  0  0  0  3  0  0  0  0  0  0
  -27.4180  -37.1110   24.8620 C   0  0  0  0  0  1  0  0  0  0  0  0
  -26.3780  -37.2480   23.8460 N   0  0  0  0  0  0  0  0  0  0  0  0
  -25.9610  -38.1690   23.9430 H   0  0  0  0  0  0  0  0  0  0  0  0
  -30.4870  -17.6390   20.6460 C   0  0  0  0  0  2  0  0  0  0  0  0
  -30.0120  -16.1650   20.5710 O   0  0  0  0  0  0  0  0  0  0  0  0
  -30.9060  -14.9240   20.5450 C   0  0  0  0  0  0  0  0  0  0  0  0
  -30.8340  -12.4370   19.9670 C   0  0  0  0  0  2  0  0  0  0  0  0
  -30.0300  -12.2350   18.6620 C   0  0  0  0  0  2  0  0  0  0  0  0
  -28.5320  -12.0660   18.9730 C   0  0  0  0  0  2  0  0  0  0  0  0
  -28.0100  -13.1440   19.9590 C   0  0  0  0  0  3  0  0  0  0  0  0
  -28.9380  -13.3460   21.1720 C   0  0  0  0  0  2  0  0  0  0  0  0
  -30.2810  -13.6300   20.6640 N   0  0  0  0  0  0  0  0  0  0  0  0
  -32.1080  -14.9890   20.2830 O   0  0  0  0  0  0  0  0  0  0  0  0
  -25.6060  -13.8000   20.5240 C   0  0  0  0  0  0  0  0  0  0  0  0
  -24.4990  -13.0670   20.8470 C   0  0  0  0  0  0  0  0  0  0  0  0
  -24.9230  -11.7030   20.8720 C   0  0  0  0  0  0  0  0  0  0  0  0
  -26.6340  -12.8890   20.3700 N   0  0  0  0  0  0  0  0  0  0  0  0
  -26.2300  -11.6220   20.6460 N   0  0  0  0  0  0  0  0  0  0  0  0
  -24.1470  -10.4670   21.0350 C   0  0  0  0  0  0  0  0  0  0  0  0
  -24.4920   -9.4990   22.0040 C   0  0  0  0  0  3  0  0  0  0  0  0
  -23.7170   -8.3290   22.1550 C   0  0  0  0  0  3  0  0  0  0  0  0
  -22.5840   -8.1180   21.3350 C   0  0  0  0  0  0  0  0  0  0  0  0
  -22.2580   -9.0730   20.3550 C   0  0  0  0  0  3  0  0  0  0  0  0
  -23.0330  -10.2340   20.2030 C   0  0  0  0  0  3  0  0  0  0  0  0
  -21.7870   -7.0000   21.3930 O   0  0  0  0  0  0  0  0  0  0  0  0
  -21.6030   -6.3080   22.5630 C   0  0  0  0  0  0  0  0  0  0  0  0
  -21.0790   -6.9250   23.7190 C   0  0  0  0  0  3  0  0  0  0  0  0
  -20.8420   -6.1600   24.8800 C   0  0  0  0  0  3  0  0  0  0  0  0
  -21.1170   -4.7800   24.8810 C   0  0  0  0  0  0  0  0  0  0  0  0
  -21.6330   -4.1630   23.7290 C   0  0  0  0  0  3  0  0  0  0  0  0
  -21.8720   -4.9240   22.5720 C   0  0  0  0  0  0  0  0  0  0  0  0
  -22.3490   -4.3200   21.4570 F   0  0  0  0  0  0  0  0  0  0  0  0
  -20.8810   -4.0430   25.9930 F   0  0  0  0  0  0  0  0  0  0  0  0
  -23.1030  -13.5920   21.0140 C   0  0  0  0  0  0  0  0  0  0  0  0
  -22.3060  -12.9530   21.8630 N   0  0  0  0  0  0  0  0  0  0  0  0
  -22.7270  -14.6050   20.4260 O   0  0  0  0  0  0  0  0  0  0  0  0
  -22.6230  -12.1340   22.3600 H   0  0  0  0  0  0  0  0  0  0  0  0
  -21.3660  -13.2890   22.0180 H   0  0  0  0  0  0  0  0  0  0  0  0
  -25.8240  -15.1560   20.3130 N   0  0  0  0  0  0  0  0  0  0  0  0
  -25.0570  -15.8200   20.3060 H   0  0  0  0  0  0  0  0  0  0  0  0
  -26.6750  -15.5110   19.9020 H   0  0  0  0  0  0  0  0  0  0  0  0
  1 13  1  0
  1 58  1  0
  2  1  1  0
  3  2  1  0
  4  2  1  0
  6  5  1  0
  6  2  1  0
  9  7  1  6
  9  8  1  0
  9  6  1  0
 10 12  1  0
 10  9  1  0
 11 10  1  0
 14 15  1  0
 14 13  1  0
 16 17  1  0
 16 15  2  0
 18 29  2  0
 19 17  1  0
 19 24  1  0
 20 28  1  0
 20 30  1  0
 21 23  1  0
 22 28  1  0
 23 24  2  0
 23 22  1  0
 25 19  2  0
 26 25  1  0
 26 21  2  0
 27 21  1  0
 27 20  1  0
 28 18  1  0
 30 32  2  0
 31 30  1  0
 33 31  1  0
 34 43  2  0
 34 39  1  0
 35 31  1  0
 35 39  1  0
 36 35  1  0
 37 38  1  0
 37 36  1  0
 38 34  1  0
 39 40  2  0
 40 41  1  0
 42 41  2  0
 43 42  1  0
 44 18  1  0
 44 49  1  0
 44 45  1  0
 45 48  1  1
 45 46  1  0
 47 45  1  0
 49 52  1  0
 50 54  1  0
 50 49  1  0
 51 50  2  0
 54 53  1  0
 56 54  1  0
 56 57  1  0
 56 55  1  0
 59 58  1  0
 60 59  1  0
 60 66  1  0
 61 66  1  0
 62 63  1  0
 62 61  1  0
 64 63  1  0
 64 71  1  0
 64 65  1  0
 66 65  1  0
 67 60  2  0
 68 69  2  0
 69 70  1  0
 69 88  1  0
 70 73  1  0
 71 68  1  0
 71 72  1  0
 72 70  2  0
 73 74  1  0
 74 75  2  0
 76 79  1  0
 76 75  1  0
 77 76  2  0
 78 77  1  0
 78 73  2  0
 79 80  1  0
 80 85  2  0
 80 81  1  0
 81 82  2  0
 82 83  1  0
 83 87  1  0
 84 83  2  0
 85 84  1  0
 86 85  1  0
 88 89  1  0
 89 92  1  0
 89 91  1  0
 90 88  2  0
 93 68  1  0
 94 93  1  0
 95 93  1  0
M  ISO  4  16 101  17 101  59 100  60 100
M  END
>  <TORSDO>  (40) 
F 26

>  <SCORE>  (40) 
-11.095

>  <name>  (40) 
41

>  <ligand_id>  (40) 
41

>  <original_smiles>  (40) 
[H]c1c([H])c([H])c2c(c1[H])C([H])([H])C([H])([H])C([H])([H])C2([H])N([H])C(=O)C1([H])N(C(=O)C([H])(N([H])C(=O)C([H])(N([H])C([H])([H])[H])C([H])([H])[H])C(C([H])([H])[H])(C([H])([H])[H])C([H])([H])[H])C([H])([H])c2c([H])c(OC([H])([H])C([H])([H])OC([H])([H])C([H])(C([H])([H])OC(=O)N3C([H])([H])C([H])([H])C([H])([H])C([H])(n4nc(-c5c([H])c([H])c(Oc6c([H])c([H])c(F)c([H])c6F)c([H])c5[H])c(C(=O)N([H])[H])c4N([H])[H])C3([H])[H])[N+]([H])([H])C([H])(C([H])([H])[H])C(N([H])[H])(C([H])([H])[H])C([H])([H])[H])c([H])c([H])c2C1([H])[H]

>  <smiles>  (40) 
[H]c1c([H])c([H])c2c(c1[H])C([H])([H])C([H])([H])C([H])([H])C2([H])N([H])C(=O)C1([H])N(C(=O)C([H])(N([H])C(=O)C([H])(N([H])C([H])([H])[H])C([H])([H])[H])C(C([H])([H])[H])(C([H])([H])[H])C([H])([H])[H])C([H])([H])c2c([H])c(OC([H])([H])C([H])([H])OC([H])([H])C([H])(C([H])([H])OC(=O)N3C([H])([H])C([H])([H])C([H])([H])C([H])(n4nc(-c5c([H])c([H])c(Oc6c([H])c([H])c(F)c([H])c6F)c([H])c5[H])c(C(=O)N([H])[H])c4N([H])[H])C3([H])[H])[N+]([H])([H])C([H])(C([H])([H])[H])C(N([H])[H])(C([H])([H])[H])C([H])([H])[H])c([H])c([H])c2C1([H])[H]

$$$$
42:0:0
     RDKit          3D

101109  0  0  1  0  0  0  0  0999 V2000
  -30.1030  -21.2570   26.7710 C   0  0  0  0  0  3  0  0  0  0  0  0
  -30.3740  -22.2890   27.5890 C   0  0  0  0  0  3  0  0  0  0  0  0
  -32.4220  -21.1060   23.7520 C   0  0  0  0  0  3  0  0  0  0  0  0
  -31.9700  -21.3310   25.0660 C   0  0  0  0  0  3  0  0  0  0  0  0
  -31.5430  -20.6130   22.7690 C   0  0  0  0  0  3  0  0  0  0  0  0
  -29.7510  -20.5870   24.4130 C   0  0  0  0  0  3  0  0  0  0  0  0
  -30.6290  -21.0550   25.4120 C   0  0  0  0  0  0  0  0  0  0  0  0
  -30.1900  -20.3560   23.0940 C   0  0  0  0  0  0  0  0  0  0  0  0
  -29.2330  -19.9250   22.2060 O   0  0  0  0  0  0  0  0  0  0  0  0
  -29.5850  -19.0100   21.1710 C   0  0  0  0  0  2  0  0  0  0  0  0
  -28.9110  -19.5050   19.8800 C   0  0  0  0  0  2  0  0  0  0  0  0
  -29.8410  -20.0140   18.9230 O   0  0  0  0  0  0  0  0  0  0  0  0
  -31.0540  -20.5730   19.4290 C   0  0  0  0  0  2  0  0  0  0  0  0
  -30.8280  -21.7500   20.4000 C   0  0  0  0  0  2  0  0  0  0  0  0
  -30.0230  -23.4900   18.7960 C   0  0  0  0  0  0  0  0  0  0  0  0
  -28.8760  -25.0760   17.2990 C   0  0  0  0  0  2  0  0  0  0  0  0
  -29.3420  -26.5250   17.5210 C   0  0  0  0  0  2  0  0  0  0  0  0
  -28.5310  -27.1900   18.6460 C   0  0  0  0  0  2  0  0  0  0  0  0
  -28.4780  -26.3220   19.9300 C   0  0  0  0  0  3  0  0  0  0  0  0
  -28.0720  -24.8690   19.5930 C   0  0  0  0  0  2  0  0  0  0  0  0
  -28.9940  -24.3420   18.5670 N   0  0  0  0  0  0  0  0  0  0  0  0
  -30.9730  -23.3380   18.0210 O   0  0  0  0  0  0  0  0  0  0  0  0
  -29.8850  -22.7430   19.8920 N   0  0  0  0  0  0  0  0  0  0  0  0
  -29.0420  -22.8930   20.4290 H   0  0  0  0  0  0  0  0  0  0  0  0
  -27.9070  -27.5920   22.0990 C   0  0  0  0  0  0  0  0  0  0  0  0
  -26.7130  -27.9950   22.6350 C   0  0  0  0  0  0  0  0  0  0  0  0
  -25.7010  -27.5340   21.7370 C   0  0  0  0  0  0  0  0  0  0  0  0
  -27.5910  -26.9120   20.9330 N   0  0  0  0  0  0  0  0  0  0  0  0
  -26.2470  -26.8370   20.7480 N   0  0  0  0  0  0  0  0  0  0  0  0
  -24.2510  -27.7620   21.7310 C   0  0  0  0  0  0  0  0  0  0  0  0
  -23.3380  -26.7040   21.5220 C   0  0  0  0  0  3  0  0  0  0  0  0
  -21.9480  -26.9460   21.5390 C   0  0  0  0  0  3  0  0  0  0  0  0
  -21.4560  -28.2540   21.7680 C   0  0  0  0  0  0  0  0  0  0  0  0
  -22.3700  -29.3070   21.9520 C   0  0  0  0  0  3  0  0  0  0  0  0
  -23.7540  -29.0660   21.9300 C   0  0  0  0  0  3  0  0  0  0  0  0
  -20.1230  -28.5870   21.7750 O   0  0  0  0  0  0  0  0  0  0  0  0
  -19.1510  -27.6600   22.0520 C   0  0  0  0  0  0  0  0  0  0  0  0
  -19.0880  -26.9940   23.2950 C   0  0  0  0  0  3  0  0  0  0  0  0
  -18.0320  -26.1000   23.5630 C   0  0  0  0  0  3  0  0  0  0  0  0
  -17.0360  -25.8770   22.5940 C   0  0  0  0  0  0  0  0  0  0  0  0
  -17.0930  -26.5430   21.3580 C   0  0  0  0  0  3  0  0  0  0  0  0
  -18.1470  -27.4340   21.0890 C   0  0  0  0  0  0  0  0  0  0  0  0
  -18.1860  -28.0890   19.9030 F   0  0  0  0  0  0  0  0  0  0  0  0
  -16.0170  -25.0250   22.8530 F   0  0  0  0  0  0  0  0  0  0  0  0
  -26.5190  -28.8410   23.8610 C   0  0  0  0  0  0  0  0  0  0  0  0
  -25.4160  -28.6410   24.5750 N   0  0  0  0  0  0  0  0  0  0  0  0
  -27.3730  -29.6500   24.2210 O   0  0  0  0  0  0  0  0  0  0  0  0
  -24.7260  -27.9630   24.2890 H   0  0  0  0  0  0  0  0  0  0  0  0
  -25.2620  -29.1740   25.4200 H   0  0  0  0  0  0  0  0  0  0  0  0
  -29.2300  -27.7630   22.4950 N   0  0  0  0  0  0  0  0  0  0  0  0
  -29.4870  -28.3000   23.3160 H   0  0  0  0  0  0  0  0  0  0  0  0
  -30.0310  -27.4220   21.9780 H   0  0  0  0  0  0  0  0  0  0  0  0
  -29.8440  -22.3930   29.0060 C   0  0  0  0  0  2  0  0  0  0  0  0
  -28.6860  -23.3860   29.1540 C   0  0  0  0  0  2  0  0  0  0  0  0
  -29.1460  -24.7020   28.8730 O   0  0  0  0  0  0  0  0  0  0  0  0
  -28.5400  -25.7140   29.6770 C   0  0  0  0  0  2  0  0  0  0  0  0
  -27.0030  -25.6390   29.7190 C   0  0  0  0  0  2  0  0  0  0  0  0
  -26.4620  -26.0020   28.4530 O   0  0  0  0  0  0  0  0  0  0  0  0
  -25.0400  -26.0150   28.4580 C   0  0  0  0  0  2  0  0  0  0  0  0
  -24.5100  -26.9090   27.3140 C   0  0  0  0  0  2  0  0  0  0  0  0
  -23.2090  -27.4270   27.6000 O   0  0  0  0  0  0  0  0  0  0  0  0
  -26.4940  -31.7030   32.2580 C   0  0  0  0  0  0  0  0  0  0  0  0
  -23.1220  -28.2170   28.7210 C   0  0  0  0  0  0  0  0  0  0  0  0
  -24.2710  -30.8470   32.9380 C   0  0  0  0  0  3  0  0  0  0  0  0
  -22.9140  -29.7090   31.1040 C   0  0  0  0  0  0  0  0  0  0  0  0
  -24.8480  -31.1660   30.4710 C   0  0  0  0  0  2  0  0  0  0  0  0
  -23.9060  -30.0210   30.1670 C   0  0  0  0  0  0  0  0  0  0  0  0
  -24.0170  -29.2790   28.9750 C   0  0  0  0  0  3  0  0  0  0  0  0
  -22.1180  -27.9180   29.6640 C   0  0  0  0  0  3  0  0  0  0  0  0
  -22.0160  -28.6530   30.8610 C   0  0  0  0  0  3  0  0  0  0  0  0
  -22.8630  -30.5610   32.3490 C   0  0  0  0  0  2  0  0  0  0  0  0
  -25.2670  -31.2370   31.8890 N   0  0  0  0  0  0  0  0  0  0  0  0
  -26.7870  -31.8550   33.4520 O   0  0  0  0  0  0  0  0  0  0  0  0
  -24.7110  -29.6280   33.7780 C   0  0  0  0  0  0  0  0  0  0  0  0
  -24.1520  -29.5090   34.9920 N   0  0  0  0  0  0  0  0  0  0  0  0
  -25.5120  -28.8040   33.3280 O   0  0  0  0  0  0  0  0  0  0  0  0
  -23.5080  -30.2300   35.2870 H   0  0  0  0  0  0  0  0  0  0  0  0
  -23.2130  -28.2390   38.2410 C   0  0  0  0  0  0  0  0  0  0  0  0
  -24.3840  -28.4230   35.9440 C   0  0  0  0  0  3  0  0  0  0  0  0
  -23.5870  -27.1580   35.5500 C   0  0  0  0  0  2  0  0  0  0  0  0
  -22.2160  -27.0730   36.2270 C   0  0  0  0  0  2  0  0  0  0  0  0
  -22.3690  -27.0740   37.7500 C   0  0  0  0  0  2  0  0  0  0  0  0
  -24.1470  -28.8820   37.3870 C   0  0  0  0  0  0  0  0  0  0  0  0
  -24.8810  -29.9830   37.8820 C   0  0  0  0  0  3  0  0  0  0  0  0
  -24.6960  -30.4370   39.2020 C   0  0  0  0  0  3  0  0  0  0  0  0
  -23.7820  -29.7850   40.0470 C   0  0  0  0  0  3  0  0  0  0  0  0
  -23.0450  -28.6870   39.5680 C   0  0  0  0  0  3  0  0  0  0  0  0
  -27.5770  -32.0860   31.2010 C   0  0  0  0  0  3  0  0  0  0  0  0
  -27.9710  -33.4780   31.4520 N   0  0  0  0  0  0  0  0  0  0  0  0
  -27.5420  -34.5290   30.7390 C   0  0  0  0  0  0  0  0  0  0  0  0
  -26.8230  -34.4140   29.7420 O   0  0  0  0  0  0  0  0  0  0  0  0
  -28.5180  -33.6510   32.2830 H   0  0  0  0  0  0  0  0  0  0  0  0
  -26.8440  -36.5750   32.0200 C   0  0  0  0  0  1  0  0  0  0  0  0
  -27.9780  -35.9300   31.2080 C   0  0  0  0  0  3  0  0  0  0  0  0
  -29.6020  -36.4090   29.4310 C   0  0  0  0  0  1  0  0  0  0  0  0
  -28.3720  -36.8260   30.0990 N   0  0  0  0  0  0  0  0  0  0  0  0
  -28.5030  -37.7770   30.4320 H   0  0  0  0  0  0  0  0  0  0  0  0
  -28.8360  -31.1340   31.2250 C   0  0  1  0  0  0  0  0  0  0  0  0
  -29.4630  -30.9720   32.6290 C   0  0  0  0  0  1  0  0  0  0  0  0
  -28.4620  -29.7240   30.7080 C   0  0  0  0  0  1  0  0  0  0  0  0
  -29.9290  -31.6790   30.2750 C   0  0  0  0  0  1  0  0  0  0  0  0
  1  2  2  0
  2 53  1  0
  3  4  1  0
  4  7  2  0
  5  8  1  0
  5  3  2  0
  6  7  1  0
  7  1  1  0
  8  6  2  0
  9  8  1  0
 10  9  1  0
 11 10  1  0
 12 13  1  0
 12 11  1  0
 13 14  1  0
 15 23  1  0
 16 17  1  0
 16 21  1  0
 17 18  1  0
 19 18  1  0
 19 28  1  0
 20 19  1  0
 21 15  1  0
 21 20  1  0
 22 15  2  0
 23 14  1  0
 23 24  1  0
 25 50  1  0
 25 26  2  0
 26 45  1  0
 27 26  1  0
 28 25  1  0
 29 28  1  0
 29 27  2  0
 30 27  1  0
 30 35  1  0
 31 32  1  0
 31 30  2  0
 32 33  2  0
 33 36  1  0
 33 34  1  0
 35 34  2  0
 36 37  1  0
 37 38  1  0
 38 39  2  0
 40 44  1  0
 40 39  1  0
 41 40  2  0
 42 41  1  0
 42 37  2  0
 43 42  1  0
 45 47  2  0
 45 46  1  0
 46 49  1  0
 48 46  1  0
 50 51  1  0
 52 50  1  0
 53 54  1  0
 55 54  1  0
 55 56  1  0
 56 57  1  0
 58 59  1  0
 58 57  1  0
 60 61  1  0
 60 59  1  0
 61 63  1  0
 62 73  2  0
 63 68  2  0
 63 69  1  0
 64 74  1  0
 65 71  1  0
 66 72  1  0
 67 66  1  0
 67 65  2  0
 68 67  1  0
 69 70  2  0
 70 65  1  0
 71 64  1  0
 72 62  1  0
 72 64  1  0
 74 75  1  0
 75 77  1  0
 76 74  2  0
 78 87  1  0
 79 75  1  0
 79 83  1  0
 80 79  1  0
 80 81  1  0
 81 82  1  0
 82 78  1  0
 83 84  1  0
 83 78  2  0
 84 85  2  0
 85 86  1  0
 87 86  2  0
 88 98  1  0
 88 89  1  0
 88 62  1  0
 89 92  1  0
 90 94  1  0
 90 89  1  0
 91 90  2  0
 94 93  1  0
 95 96  1  0
 96 97  1  0
 96 94  1  0
 98 99  1  1
100 98  1  0
101 98  1  0
M  ISO  4  15 100  23 100  60 101  61 101
M  END
>  <TORSDO>  (41) 
F 31

>  <SCORE>  (41) 
27.836

>  <name>  (41) 
42

>  <ligand_id>  (41) 
42

>  <original_smiles>  (41) 
[H]C(=C([H])C([H])([H])C([H])([H])OC([H])([H])C([H])([H])OC([H])([H])C([H])([H])Oc1c([H])c([H])c2c(c1[H])C([H])([H])N(C(=O)C([H])(N([H])C(=O)C([H])(N([H])C([H])([H])[H])C([H])([H])[H])C(C([H])([H])[H])(C([H])([H])[H])C([H])([H])[H])C([H])(C(=O)N([H])C1([H])c3c([H])c([H])c([H])c([H])c3C([H])([H])C([H])([H])C1([H])[H])C2([H])[H])c1c([H])c([H])c([H])c(OC([H])([H])C([H])([H])OC([H])([H])C([H])([H])N([H])C(=O)N2C([H])([H])C([H])([H])C([H])([H])C([H])(n3nc(-c4c([H])c([H])c(Oc5c([H])c([H])c(F)c([H])c5F)c([H])c4[H])c(C(=O)N([H])[H])c3N([H])[H])C2([H])[H])c1[H]

>  <smiles>  (41) 
[H]C(=C([H])C([H])([H])C([H])([H])OC([H])([H])C([H])([H])OC([H])([H])C([H])([H])Oc1c([H])c([H])c2c(c1[H])C([H])([H])N(C(=O)C([H])(N([H])C(=O)C([H])(N([H])C([H])([H])[H])C([H])([H])[H])C(C([H])([H])[H])(C([H])([H])[H])C([H])([H])[H])C([H])(C(=O)N([H])C1([H])c3c([H])c([H])c([H])c([H])c3C([H])([H])C([H])([H])C1([H])[H])C2([H])[H])c1c([H])c([H])c([H])c(OC([H])([H])C([H])([H])OC([H])([H])C([H])([H])N([H])C(=O)N2C([H])([H])C([H])([H])C([H])([H])C([H])(n3nc(-c4c([H])c([H])c(Oc5c([H])c([H])c(F)c([H])c5F)c([H])c4[H])c(C(=O)N([H])[H])c3N([H])[H])C2([H])[H])c1[H]

$$$$
43:0:0
     RDKit          3D

 89 97  0  0  1  0  0  0  0  0999 V2000
  -29.5440  -21.4810   19.8000 O   0  0  0  0  0  0  0  0  0  0  0  0
  -30.2950  -17.8220   19.2330 C   0  0  0  0  0  3  0  0  0  0  0  0
  -29.6100  -18.0620   21.5290 C   0  0  0  0  0  3  0  0  0  0  0  0
  -30.1380  -19.2310   19.0550 C   0  0  0  0  0  3  0  0  0  0  0  0
  -29.4900  -19.4810   21.3580 C   0  0  0  0  0  3  0  0  0  0  0  0
  -30.0110  -17.1830   20.4750 C   0  0  0  0  0  0  0  0  0  0  0  0
  -29.7280  -20.1090   20.1010 C   0  0  0  0  0  0  0  0  0  0  0  0
  -30.6810  -14.6900   20.0640 C   0  0  0  0  0  0  0  0  0  0  0  0
  -30.4070  -12.4780   18.9480 C   0  0  0  0  0  2  0  0  0  0  0  0
  -29.4060  -12.6530   17.7840 C   0  0  0  0  0  2  0  0  0  0  0  0
  -27.9570  -12.4770   18.2740 C   0  0  0  0  0  2  0  0  0  0  0  0
  -27.6670  -13.2830   19.5690 C   0  0  0  0  0  3  0  0  0  0  0  0
  -28.7820  -13.0970   20.6240 C   0  0  0  0  0  2  0  0  0  0  0  0
  -30.0640  -13.4630   19.9990 N   0  0  0  0  0  0  0  0  0  0  0  0
  -31.7780  -14.8690   19.5220 O   0  0  0  0  0  0  0  0  0  0  0  0
  -30.0080  -15.7210   20.6770 N   0  0  0  0  0  0  0  0  0  0  0  0
  -29.2980  -15.3940   21.3180 H   0  0  0  0  0  0  0  0  0  0  0  0
  -25.3150  -13.8610   20.4180 C   0  0  0  0  0  0  0  0  0  0  0  0
  -24.2640  -13.0810   20.8230 C   0  0  0  0  0  0  0  0  0  0  0  0
  -24.7220  -11.7300   20.7360 C   0  0  0  0  0  0  0  0  0  0  0  0
  -26.3440  -12.9850   20.1100 N   0  0  0  0  0  0  0  0  0  0  0  0
  -25.9970  -11.6970   20.3590 N   0  0  0  0  0  0  0  0  0  0  0  0
  -24.0000  -10.4630   20.9290 C   0  0  0  0  0  0  0  0  0  0  0  0
  -24.4340   -9.5050   21.8700 C   0  0  0  0  0  3  0  0  0  0  0  0
  -23.7110   -8.3070   22.0570 C   0  0  0  0  0  3  0  0  0  0  0  0
  -22.5420   -8.0580   21.3020 C   0  0  0  0  0  0  0  0  0  0  0  0
  -22.1280   -9.0050   20.3490 C   0  0  0  0  0  3  0  0  0  0  0  0
  -22.8510  -10.1940   20.1600 C   0  0  0  0  0  3  0  0  0  0  0  0
  -21.7930   -6.9100   21.3950 O   0  0  0  0  0  0  0  0  0  0  0  0
  -21.6850   -6.2140   22.5740 C   0  0  0  0  0  0  0  0  0  0  0  0
  -21.1710   -6.8070   23.7460 C   0  0  0  0  0  3  0  0  0  0  0  0
  -21.0150   -6.0350   24.9150 C   0  0  0  0  0  3  0  0  0  0  0  0
  -21.3580   -4.6720   24.9110 C   0  0  0  0  0  0  0  0  0  0  0  0
  -21.8680   -4.0770   23.7420 C   0  0  0  0  0  3  0  0  0  0  0  0
  -22.0250   -4.8450   22.5760 C   0  0  0  0  0  0  0  0  0  0  0  0
  -22.4920   -4.2620   21.4470 F   0  0  0  0  0  0  0  0  0  0  0  0
  -21.2020   -3.9290   26.0300 F   0  0  0  0  0  0  0  0  0  0  0  0
  -22.8840  -13.5550   21.1750 C   0  0  0  0  0  0  0  0  0  0  0  0
  -22.1950  -12.8410   22.0630 N   0  0  0  0  0  0  0  0  0  0  0  0
  -22.4230  -14.5940   20.7030 O   0  0  0  0  0  0  0  0  0  0  0  0
  -22.5800  -12.0020   22.4720 H   0  0  0  0  0  0  0  0  0  0  0  0
  -21.2690  -13.1360   22.3320 H   0  0  0  0  0  0  0  0  0  0  0  0
  -25.4750  -15.2350   20.2710 N   0  0  0  0  0  0  0  0  0  0  0  0
  -24.7240  -15.8930   20.4490 H   0  0  0  0  0  0  0  0  0  0  0  0
  -26.3150  -15.6820   19.9300 H   0  0  0  0  0  0  0  0  0  0  0  0
  -29.5360  -22.5380   20.8210 C   0  0  0  0  0  2  0  0  0  0  0  0
  -29.6060  -24.0830   20.3680 C   0  0  0  0  0  3  0  0  0  0  0  0
  -28.3060  -24.9980   20.2520 C   0  0  0  0  0  3  0  0  0  0  0  0
  -28.4640  -26.4780   20.2340 O   0  0  0  0  0  0  0  0  0  0  0  0
  -24.6350  -31.8460   23.2070 C   0  0  0  0  0  0  0  0  0  0  0  0
  -27.3140  -27.2920   20.1940 C   0  0  0  0  0  0  0  0  0  0  0  0
  -23.4500  -30.4330   21.5650 C   0  0  0  0  0  3  0  0  0  0  0  0
  -24.9230  -28.8770   20.1610 C   0  0  0  0  0  0  0  0  0  0  0  0
  -25.9890  -30.7640   21.3990 C   0  0  0  0  0  2  0  0  0  0  0  0
  -26.0830  -29.3840   20.7600 C   0  0  0  0  0  0  0  0  0  0  0  0
  -27.2790  -28.6040   20.7640 C   0  0  0  0  0  3  0  0  0  0  0  0
  -26.1260  -26.8340   19.5790 C   0  0  0  0  0  3  0  0  0  0  0  0
  -24.9470  -27.6060   19.5630 C   0  0  0  0  0  3  0  0  0  0  0  0
  -23.6760  -29.7400   20.1940 C   0  0  0  0  0  2  0  0  0  0  0  0
  -24.7100  -31.0330   22.1130 N   0  0  0  0  0  0  0  0  0  0  0  0
  -23.5480  -32.1220   23.7320 O   0  0  0  0  0  0  0  0  0  0  0  0
  -22.7860  -29.4210   22.5280 C   0  0  0  0  0  0  0  0  0  0  0  0
  -21.4620  -29.2400   22.3930 N   0  0  0  0  0  0  0  0  0  0  0  0
  -23.4610  -28.7970   23.3520 O   0  0  0  0  0  0  0  0  0  0  0  0
  -20.9810  -29.7870   21.6940 H   0  0  0  0  0  0  0  0  0  0  0  0
  -18.0800  -28.0600   22.8960 C   0  0  0  0  0  0  0  0  0  0  0  0
  -20.6400  -28.3050   23.1600 C   0  0  0  0  0  3  0  0  0  0  0  0
  -20.7370  -26.8770   22.5740 C   0  0  0  0  0  2  0  0  0  0  0  0
  -19.6290  -26.5640   21.5650 C   0  0  0  0  0  2  0  0  0  0  0  0
  -18.2490  -26.7140   22.2100 C   0  0  0  0  0  2  0  0  0  0  0  0
  -19.2040  -28.8150   23.3260 C   0  0  0  0  0  0  0  0  0  0  0  0
  -18.9940  -30.0760   23.9240 C   0  0  0  0  0  3  0  0  0  0  0  0
  -17.6920  -30.5810   24.1000 C   0  0  0  0  0  3  0  0  0  0  0  0
  -16.5830  -29.8240   23.6860 C   0  0  0  0  0  3  0  0  0  0  0  0
  -16.7780  -28.5660   23.0900 C   0  0  0  0  0  3  0  0  0  0  0  0
  -25.9120  -32.4860   23.8370 C   0  0  0  0  0  3  0  0  0  0  0  0
  -26.4240  -31.7160   25.1150 C   0  0  1  0  0  0  0  0  0  0  0  0
  -25.3250  -31.4660   26.1740 C   0  0  0  0  0  1  0  0  0  0  0  0
  -27.0240  -30.3450   24.7260 C   0  0  0  0  0  1  0  0  0  0  0  0
  -27.5650  -32.5170   25.7860 C   0  0  0  0  0  1  0  0  0  0  0  0
  -25.5930  -33.8820   24.1710 N   0  0  0  0  0  0  0  0  0  0  0  0
  -25.9220  -34.9400   23.4160 C   0  0  0  0  0  0  0  0  0  0  0  0
  -26.5960  -34.8420   22.3870 O   0  0  0  0  0  0  0  0  0  0  0  0
  -25.0020  -34.0290   24.9740 H   0  0  0  0  0  0  0  0  0  0  0  0
  -24.1860  -36.7230   23.0530 C   0  0  0  0  0  1  0  0  0  0  0  0
  -25.4230  -36.3230   23.8750 C   0  0  0  0  0  3  0  0  0  0  0  0
  -27.5440  -37.2150   24.7320 C   0  0  0  0  0  1  0  0  0  0  0  0
  -26.4500  -37.3830   23.7760 N   0  0  0  0  0  0  0  0  0  0  0  0
  -26.0400  -38.3000   23.9230 H   0  0  0  0  0  0  0  0  0  0  0  0
  1  7  1  0
  1 46  1  0
  2  6  1  0
  4  2  2  0
  4  7  1  0
  5  3  1  0
  6 16  1  0
  6  3  2  0
  7  5  2  0
  8 16  1  0
  9 14  1  0
 10 11  1  0
 10  9  1  0
 12 11  1  0
 12 21  1  0
 12 13  1  0
 14  8  1  0
 14 13  1  0
 15  8  2  0
 16 17  1  0
 18 19  2  0
 19 38  1  0
 20 19  1  0
 20 23  1  0
 21 22  1  0
 21 18  1  0
 22 20  2  0
 23 24  1  0
 24 25  2  0
 26 29  1  0
 26 25  1  0
 27 26  2  0
 28 27  1  0
 28 23  2  0
 29 30  1  0
 30 35  2  0
 30 31  1  0
 31 32  2  0
 33 32  1  0
 33 37  1  0
 34 33  2  0
 35 34  1  0
 36 35  1  0
 38 39  1  0
 39 42  1  0
 39 41  1  0
 40 38  2  0
 43 18  1  0
 43 44  1  0
 45 43  1  0
 47 46  1  0
 48 47  2  0
 49 48  1  0
 50 61  2  0
 51 49  1  0
 51 56  1  0
 52 60  1  0
 52 62  1  0
 53 59  1  0
 53 55  1  0
 54 60  1  0
 55 56  2  0
 55 54  1  0
 57 51  2  0
 58 57  1  0
 58 53  2  0
 59 52  1  0
 60 50  1  0
 62 64  2  0
 63 62  1  0
 65 63  1  0
 66 75  2  0
 66 71  1  0
 67 63  1  0
 67 71  1  0
 68 67  1  0
 69 70  1  0
 69 68  1  0
 70 66  1  0
 71 72  2  0
 72 73  1  0
 74 73  2  0
 75 74  1  0
 76 50  1  0
 76 81  1  0
 76 77  1  0
 77 80  1  1
 77 78  1  0
 79 77  1  0
 81 84  1  0
 82 86  1  0
 82 81  1  0
 83 82  2  0
 86 85  1  0
 88 86  1  0
 88 89  1  0
 88 87  1  0
M  ISO  4   8 100  16 100  48 101  49 101
M  END
>  <TORSDO>  (42) 
F 20

>  <SCORE>  (42) 
-13.067

>  <name>  (42) 
43

>  <ligand_id>  (42) 
43

>  <original_smiles>  (42) 
[H]c1c([H])c([H])c2c(c1[H])C([H])([H])C([H])([H])C([H])([H])C2([H])N([H])C(=O)C1([H])N(C(=O)C([H])(N([H])C(=O)C([H])(N([H])C([H])([H])[H])C([H])([H])[H])C(C([H])([H])[H])(C([H])([H])[H])C([H])([H])[H])C([H])([H])c2c([H])c(OC([H])([H])C([H])([H])C([H])([H])Oc3c([H])c([H])c(N([H])C(=O)N4C([H])([H])C([H])([H])C([H])([H])C([H])(n5nc(-c6c([H])c([H])c(Oc7c([H])c([H])c(F)c([H])c7F)c([H])c6[H])c(C(=O)N([H])[H])c5N([H])[H])C4([H])[H])c([H])c3[H])c([H])c([H])c2C1([H])[H]

>  <smiles>  (42) 
[H]c1c([H])c([H])c2c(c1[H])C([H])([H])C([H])([H])C([H])([H])C2([H])N([H])C(=O)C1([H])N(C(=O)C([H])(N([H])C(=O)C([H])(N([H])C([H])([H])[H])C([H])([H])[H])C(C([H])([H])[H])(C([H])([H])[H])C([H])([H])[H])C([H])([H])c2c([H])c(OC([H])([H])C([H])([H])C([H])([H])Oc3c([H])c([H])c(N([H])C(=O)N4C([H])([H])C([H])([H])C([H])([H])C([H])(n5nc(-c6c([H])c([H])c(Oc7c([H])c([H])c(F)c([H])c7F)c([H])c6[H])c(C(=O)N([H])[H])c5N([H])[H])C4([H])[H])c([H])c3[H])c([H])c([H])c2C1([H])[H]

$$$$
44:0:0
     RDKit          3D

 96103  0  0  1  0  0  0  0  0999 V2000
  -23.6270  -23.5610   23.8160 C   0  0  0  0  0  2  0  0  0  0  0  0
  -23.2910  -24.6590   22.9650 O   0  0  0  0  0  0  0  0  0  0  0  0
  -24.3950  -25.4510   22.5370 C   0  0  0  0  0  2  0  0  0  0  0  0
  -24.8300  -25.0720   21.1150 C   0  0  0  0  0  2  0  0  0  0  0  0
  -26.0530  -25.7260   20.8190 O   0  0  0  0  0  0  0  0  0  0  0  0
  -26.7990  -25.0740   19.7990 C   0  0  0  0  0  2  0  0  0  0  0  0
  -27.7360  -26.0700   19.0930 C   0  0  0  0  0  2  0  0  0  0  0  0
  -27.0220  -26.8020   18.0990 O   0  0  0  0  0  0  0  0  0  0  0  0
  -24.9810  -31.4750   23.0820 C   0  0  0  0  0  0  0  0  0  0  0  0
  -26.0640  -27.6510   18.5830 C   0  0  0  0  0  0  0  0  0  0  0  0
  -23.2240  -30.7090   21.5140 C   0  0  0  0  0  3  0  0  0  0  0  0
  -24.0440  -29.3880   19.4940 C   0  0  0  0  0  0  0  0  0  0  0  0
  -25.6780  -30.7590   20.8020 C   0  0  0  0  0  2  0  0  0  0  0  0
  -25.3720  -29.5880   19.8900 C   0  0  0  0  0  0  0  0  0  0  0  0
  -26.3880  -28.7200   19.4440 C   0  0  0  0  0  3  0  0  0  0  0  0
  -24.7280  -27.4560   18.1830 C   0  0  0  0  0  3  0  0  0  0  0  0
  -23.7130  -28.3190   18.6420 C   0  0  0  0  0  3  0  0  0  0  0  0
  -23.0220  -30.3740   20.0120 C   0  0  0  0  0  2  0  0  0  0  0  0
  -24.6590  -30.9790   21.8540 N   0  0  0  0  0  0  0  0  0  0  0  0
  -24.1040  -31.7550   23.9110 O   0  0  0  0  0  0  0  0  0  0  0  0
  -22.5910  -29.5850   22.3650 C   0  0  0  0  0  0  0  0  0  0  0  0
  -21.2500  -29.5200   22.3650 N   0  0  0  0  0  0  0  0  0  0  0  0
  -23.3000  -28.7800   22.9730 O   0  0  0  0  0  0  0  0  0  0  0  0
  -20.7410  -30.2250   21.8490 H   0  0  0  0  0  0  0  0  0  0  0  0
  -17.8690  -28.3520   22.8570 C   0  0  0  0  0  0  0  0  0  0  0  0
  -20.4400  -28.5240   23.0640 C   0  0  0  0  0  3  0  0  0  0  0  0
  -20.4910  -27.1610   22.3380 C   0  0  0  0  0  2  0  0  0  0  0  0
  -19.3450  -26.9590   21.3400 C   0  0  0  0  0  2  0  0  0  0  0  0
  -17.9890  -27.0740   22.0450 C   0  0  0  0  0  2  0  0  0  0  0  0
  -19.0190  -29.0410   23.3220 C   0  0  0  0  0  0  0  0  0  0  0  0
  -18.8550  -30.2430   24.0460 C   0  0  0  0  0  3  0  0  0  0  0  0
  -17.5690  -30.7490   24.3140 C   0  0  0  0  0  3  0  0  0  0  0  0
  -16.4320  -30.0570   23.8640 C   0  0  0  0  0  3  0  0  0  0  0  0
  -16.5830  -28.8630   23.1390 C   0  0  0  0  0  3  0  0  0  0  0  0
  -26.4650  -31.7380   23.4940 C   0  0  0  0  0  3  0  0  0  0  0  0
  -26.5290  -33.0770   24.0940 N   0  0  0  0  0  0  0  0  0  0  0  0
  -26.9630  -34.1760   23.4610 C   0  0  0  0  0  0  0  0  0  0  0  0
  -27.4300  -34.1520   22.3180 O   0  0  0  0  0  0  0  0  0  0  0  0
  -26.1170  -33.1800   25.0110 H   0  0  0  0  0  0  0  0  0  0  0  0
  -25.6420  -36.3000   23.7110 C   0  0  0  0  0  1  0  0  0  0  0  0
  -26.8630  -35.5150   24.2150 C   0  0  0  0  0  3  0  0  0  0  0  0
  -29.2350  -35.7870   24.7810 C   0  0  0  0  0  1  0  0  0  0  0  0
  -28.0780  -36.3490   24.0940 N   0  0  0  0  0  0  0  0  0  0  0  0
  -27.9120  -37.2800   24.4670 H   0  0  0  0  0  0  0  0  0  0  0  0
  -27.0380  -30.6530   24.4840 C   0  0  1  0  0  0  0  0  0  0  0  0
  -26.1400  -30.4030   25.7160 C   0  0  0  0  0  1  0  0  0  0  0  0
  -27.2330  -29.3040   23.7560 C   0  0  0  0  0  1  0  0  0  0  0  0
  -28.4340  -31.0890   24.9920 C   0  0  0  0  0  1  0  0  0  0  0  0
  -24.4460  -22.4720   23.0970 C   0  0  0  0  0  2  0  0  0  0  0  0
  -25.4800  -23.0590   22.3220 O   0  0  0  0  0  0  0  0  0  0  0  0
  -26.4100  -22.1240   21.7940 C   0  0  0  0  0  2  0  0  0  0  0  0
  -26.9940  -22.7070   20.4980 C   0  0  0  0  0  2  0  0  0  0  0  0
  -28.1460  -21.9860   20.0940 O   0  0  0  0  0  0  0  0  0  0  0  0
  -28.6020  -22.3830   18.8030 C   0  0  0  0  0  2  0  0  0  0  0  0
  -29.8270  -21.5350   18.4450 C   0  0  0  0  0  2  0  0  0  0  0  0
  -29.4060  -20.1820   18.3190 O   0  0  0  0  0  0  0  0  0  0  0  0
  -30.1140  -19.2700   19.1470 C   0  0  0  0  0  2  0  0  0  0  0  0
  -29.6490  -17.8660   18.7350 C   0  0  0  0  0  2  0  0  0  0  0  0
  -30.6810  -15.9390   19.9030 C   0  0  0  0  0  0  0  0  0  0  0  0
  -30.9940  -13.5110   20.1520 C   0  0  0  0  0  2  0  0  0  0  0  0
  -30.3260  -12.8060   18.9520 C   0  0  0  0  0  2  0  0  0  0  0  0
  -28.8280  -12.5540   19.2240 C   0  0  0  0  0  2  0  0  0  0  0  0
  -28.0930  -13.8120   19.7570 C   0  0  0  0  0  3  0  0  0  0  0  0
  -28.8940  -14.4700   20.9050 C   0  0  0  0  0  2  0  0  0  0  0  0
  -30.2560  -14.7540   20.4150 N   0  0  0  0  0  0  0  0  0  0  0  0
  -31.8020  -16.1150   19.4180 O   0  0  0  0  0  0  0  0  0  0  0  0
  -29.7270  -16.8730   19.8040 N   0  0  0  0  0  0  0  0  0  0  0  0
  -28.8660  -16.6720   20.2900 H   0  0  0  0  0  0  0  0  0  0  0  0
  -25.6370  -14.3520   20.3220 C   0  0  0  0  0  0  0  0  0  0  0  0
  -24.5780  -13.5510   20.6560 C   0  0  0  0  0  0  0  0  0  0  0  0
  -25.0850  -12.2170   20.6800 C   0  0  0  0  0  0  0  0  0  0  0  0
  -26.7220  -13.5020   20.1650 N   0  0  0  0  0  0  0  0  0  0  0  0
  -26.3890  -12.2140   20.4340 N   0  0  0  0  0  0  0  0  0  0  0  0
  -24.3940  -10.9340   20.8650 C   0  0  0  0  0  0  0  0  0  0  0  0
  -24.7510  -10.0450   21.9040 C   0  0  0  0  0  3  0  0  0  0  0  0
  -24.0590   -8.8270   22.0710 C   0  0  0  0  0  3  0  0  0  0  0  0
  -22.9970   -8.4870   21.2000 C   0  0  0  0  0  0  0  0  0  0  0  0
  -22.6600   -9.3660   20.1560 C   0  0  0  0  0  3  0  0  0  0  0  0
  -23.3530  -10.5750   19.9860 C   0  0  0  0  0  3  0  0  0  0  0  0
  -22.2870   -7.3130   21.2710 O   0  0  0  0  0  0  0  0  0  0  0  0
  -22.0370   -6.6940   22.4690 C   0  0  0  0  0  0  0  0  0  0  0  0
  -21.3580   -7.3480   23.5190 C   0  0  0  0  0  3  0  0  0  0  0  0
  -21.0580   -6.6520   24.7070 C   0  0  0  0  0  3  0  0  0  0  0  0
  -21.4320   -5.3020   24.8450 C   0  0  0  0  0  0  0  0  0  0  0  0
  -22.1050   -4.6450   23.7990 C   0  0  0  0  0  3  0  0  0  0  0  0
  -22.4030   -5.3410   22.6130 C   0  0  0  0  0  0  0  0  0  0  0  0
  -23.0330   -4.6970   21.6010 F   0  0  0  0  0  0  0  0  0  0  0  0
  -21.1390   -4.6300   25.9840 F   0  0  0  0  0  0  0  0  0  0  0  0
  -23.1530  -13.9870   20.8510 C   0  0  0  0  0  0  0  0  0  0  0  0
  -22.4120  -13.2930   21.7080 N   0  0  0  0  0  0  0  0  0  0  0  0
  -22.7020  -14.9770   20.2790 O   0  0  0  0  0  0  0  0  0  0  0  0
  -22.7860  -12.4950   22.1970 H   0  0  0  0  0  0  0  0  0  0  0  0
  -21.4540  -13.5650   21.8770 H   0  0  0  0  0  0  0  0  0  0  0  0
  -25.7640  -15.7250   20.1220 N   0  0  0  0  0  0  0  0  0  0  0  0
  -24.9690  -16.3540   20.1780 H   0  0  0  0  0  0  0  0  0  0  0  0
  -26.6190  -16.1880   19.8390 H   0  0  0  0  0  0  0  0  0  0  0  0
  2  1  1  0
  3  2  1  0
  4  3  1  0
  5  4  1  0
  6  5  1  0
  7  6  1  0
  8 10  1  0
  8  7  1  0
  9 20  2  0
 10 15  1  0
 11 19  1  0
 11 21  1  0
 12 14  1  0
 12 18  1  0
 13 19  1  0
 14 13  1  0
 15 14  2  0
 16 10  2  0
 16 17  1  0
 17 12  2  0
 18 11  1  0
 19  9  1  0
 21 22  1  0
 21 23  2  0
 24 22  1  0
 25 34  2  0
 25 30  1  0
 26 22  1  0
 26 30  1  0
 27 26  1  0
 28 29  1  0
 28 27  1  0
 29 25  1  0
 30 31  2  0
 31 32  1  0
 33 32  2  0
 34 33  1  0
 35  9  1  0
 35 36  1  0
 35 45  1  0
 36 39  1  0
 37 36  1  0
 37 41  1  0
 38 37  2  0
 41 40  1  0
 43 41  1  0
 43 44  1  0
 43 42  1  0
 45 48  1  1
 45 46  1  0
 47 45  1  0
 49  1  1  0
 50 49  1  0
 51 50  1  0
 52 51  1  0
 53 52  1  0
 54 53  1  0
 55 54  1  0
 56 55  1  0
 56 57  1  0
 58 57  1  0
 58 67  1  0
 59 65  1  0
 60 65  1  0
 61 62  1  0
 61 60  1  0
 63 62  1  0
 63 72  1  0
 63 64  1  0
 65 64  1  0
 66 59  2  0
 67 59  1  0
 67 68  1  0
 69 70  2  0
 70 71  1  0
 70 89  1  0
 71 74  1  0
 72 69  1  0
 72 73  1  0
 73 71  2  0
 74 75  1  0
 75 76  2  0
 77 80  1  0
 77 76  1  0
 78 77  2  0
 79 78  1  0
 79 74  2  0
 80 81  1  0
 81 86  2  0
 81 82  1  0
 82 83  2  0
 83 84  1  0
 84 88  1  0
 85 84  2  0
 86 85  1  0
 87 86  1  0
 89 90  1  0
 90 93  1  0
 90 92  1  0
 91 89  2  0
 94 95  1  0
 94 69  1  0
 96 94  1  0
M  ISO  4   7 101   8 101  59 100  67 100
M  END
>  <TORSDO>  (43) 
F 32

>  <SCORE>  (43) 
-4.596

>  <name>  (43) 
44

>  <ligand_id>  (43) 
44

>  <original_smiles>  (43) 
[H]c1c([H])c([H])c2c(c1[H])C([H])([H])C([H])([H])C([H])([H])C2([H])N([H])C(=O)C1([H])N(C(=O)C([H])(N([H])C(=O)C([H])(N([H])C([H])([H])[H])C([H])([H])[H])C(C([H])([H])[H])(C([H])([H])[H])C([H])([H])[H])C([H])([H])c2c([H])c(OC([H])([H])C([H])([H])OC([H])([H])C([H])([H])OC([H])([H])C([H])([H])OC([H])([H])C([H])([H])OC([H])([H])C([H])([H])OC([H])([H])C([H])([H])N([H])C(=O)N3C([H])([H])C([H])([H])C([H])([H])C([H])(n4nc(-c5c([H])c([H])c(Oc6c([H])c([H])c(F)c([H])c6F)c([H])c5[H])c(C(=O)N([H])[H])c4N([H])[H])C3([H])[H])c([H])c([H])c2C1([H])[H]

>  <smiles>  (43) 
[H]c1c([H])c([H])c2c(c1[H])C([H])([H])C([H])([H])C([H])([H])C2([H])N([H])C(=O)C1([H])N(C(=O)C([H])(N([H])C(=O)C([H])(N([H])C([H])([H])[H])C([H])([H])[H])C(C([H])([H])[H])(C([H])([H])[H])C([H])([H])[H])C([H])([H])c2c([H])c(OC([H])([H])C([H])([H])OC([H])([H])C([H])([H])OC([H])([H])C([H])([H])OC([H])([H])C([H])([H])OC([H])([H])C([H])([H])OC([H])([H])C([H])([H])N([H])C(=O)N3C([H])([H])C([H])([H])C([H])([H])C([H])(n4nc(-c5c([H])c([H])c(Oc6c([H])c([H])c(F)c([H])c6F)c([H])c5[H])c(C(=O)N([H])[H])c4N([H])[H])C3([H])[H])c([H])c([H])c2C1([H])[H]

$$$$
45:0:0
     RDKit          3D

102111  0  0  1  0  0  0  0  0999 V2000
  -31.4610  -20.6660   17.9610 C   0  0  0  0  0  3  0  0  0  0  0  0
  -29.4190  -21.9390   17.7310 C   0  0  0  0  0  3  0  0  0  0  0  0
  -31.7560  -21.0020   16.6300 C   0  0  0  0  0  3  0  0  0  0  0  0
  -30.2670  -21.1470   18.5260 C   0  0  0  0  0  0  0  0  0  0  0  0
  -29.8090  -22.2370   16.4170 C   0  0  0  0  0  0  0  0  0  0  0  0
  -30.9540  -21.7790   15.8700 N   0  0  0  0  0  0  0  0  0  0  0  0
  -29.0330  -23.0860   15.6300 N   0  0  0  0  0  0  0  0  0  0  0  0
  -28.1340  -23.3150   16.0410 H   0  0  0  0  0  0  0  0  0  0  0  0
  -29.9420  -20.9050   19.8370 O   0  0  0  0  0  0  0  0  0  0  0  0
  -28.9090  -17.3970   20.3080 C   0  0  0  0  0  3  0  0  0  0  0  0
  -30.9730  -17.7960   21.5480 C   0  0  0  0  0  3  0  0  0  0  0  0
  -28.9070  -18.7310   19.8660 C   0  0  0  0  0  3  0  0  0  0  0  0
  -30.9630  -19.1370   21.1140 C   0  0  0  0  0  3  0  0  0  0  0  0
  -29.9490  -16.9180   21.1300 C   0  0  0  0  0  0  0  0  0  0  0  0
  -29.9410  -19.6030   20.2600 C   0  0  0  0  0  0  0  0  0  0  0  0
  -30.6540  -14.5910   21.0380 C   0  0  0  0  0  0  0  0  0  0  0  0
  -30.4930  -12.3670   19.9900 C   0  0  0  0  0  2  0  0  0  0  0  0
  -29.6700  -12.4750   18.6890 C   0  0  0  0  0  2  0  0  0  0  0  0
  -28.1590  -12.3630   18.9770 C   0  0  0  0  0  2  0  0  0  0  0  0
  -27.6950  -13.2780   20.1410 C   0  0  0  0  0  3  0  0  0  0  0  0
  -28.6320  -13.1190   21.3590 C   0  0  0  0  0  2  0  0  0  0  0  0
  -30.0120  -13.4000   20.9180 N   0  0  0  0  0  0  0  0  0  0  0  0
  -31.8010  -14.7900   20.6290 O   0  0  0  0  0  0  0  0  0  0  0  0
  -29.9000  -15.5710   21.5560 N   0  0  0  0  0  0  0  0  0  0  0  0
  -28.9890  -15.2430   21.8370 H   0  0  0  0  0  0  0  0  0  0  0  0
  -25.2510  -13.9260   20.6300 C   0  0  0  0  0  0  0  0  0  0  0  0
  -24.1430  -13.1700   20.9040 C   0  0  0  0  0  0  0  0  0  0  0  0
  -24.5840  -11.8110   20.9090 C   0  0  0  0  0  0  0  0  0  0  0  0
  -26.2990  -13.0270   20.4930 N   0  0  0  0  0  0  0  0  0  0  0  0
  -25.8950  -11.7500   20.7140 N   0  0  0  0  0  0  0  0  0  0  0  0
  -23.8250  -10.5620   21.0300 C   0  0  0  0  0  0  0  0  0  0  0  0
  -24.1450   -9.5960   22.0100 C   0  0  0  0  0  3  0  0  0  0  0  0
  -23.3890   -8.4070   22.1180 C   0  0  0  0  0  3  0  0  0  0  0  0
  -22.2990   -8.1780   21.2460 C   0  0  0  0  0  0  0  0  0  0  0  0
  -21.9990   -9.1320   20.2560 C   0  0  0  0  0  3  0  0  0  0  0  0
  -22.7550  -10.3110   20.1480 C   0  0  0  0  0  3  0  0  0  0  0  0
  -21.5250   -7.0430   21.2600 O   0  0  0  0  0  0  0  0  0  0  0  0
  -21.3290   -6.3200   22.4090 C   0  0  0  0  0  0  0  0  0  0  0  0
  -20.7170   -6.8840   23.5490 C   0  0  0  0  0  3  0  0  0  0  0  0
  -20.4730   -6.0860   24.6860 C   0  0  0  0  0  3  0  0  0  0  0  0
  -20.8320   -4.7250   24.6810 C   0  0  0  0  0  0  0  0  0  0  0  0
  -21.4360   -4.1600   23.5430 C   0  0  0  0  0  3  0  0  0  0  0  0
  -21.6820   -4.9550   22.4100 C   0  0  0  0  0  0  0  0  0  0  0  0
  -22.2450   -4.4000   21.3100 F   0  0  0  0  0  0  0  0  0  0  0  0
  -20.5900   -3.9560   25.7680 F   0  0  0  0  0  0  0  0  0  0  0  0
  -22.7330  -13.6680   21.0540 C   0  0  0  0  0  0  0  0  0  0  0  0
  -21.9200  -12.9750   21.8450 N   0  0  0  0  0  0  0  0  0  0  0  0
  -22.3580  -14.7030   20.5060 O   0  0  0  0  0  0  0  0  0  0  0  0
  -22.2330  -12.1360   22.3090 H   0  0  0  0  0  0  0  0  0  0  0  0
  -20.9700  -13.2890   21.9850 H   0  0  0  0  0  0  0  0  0  0  0  0
  -25.4530  -15.2920   20.4670 N   0  0  0  0  0  0  0  0  0  0  0  0
  -24.6910  -15.9610   20.5040 H   0  0  0  0  0  0  0  0  0  0  0  0
  -26.3280  -15.7040   20.1690 H   0  0  0  0  0  0  0  0  0  0  0  0
  -29.7450  -24.2630   15.1450 C   0  0  0  0  0  2  0  0  0  0  0  0
  -28.8660  -25.5130   15.2440 C   0  0  0  0  0  2  0  0  0  0  0  0
  -29.6890  -26.6640   15.1530 O   0  0  0  0  0  0  0  0  0  0  0  0
  -28.9930  -27.8660   15.4580 C   0  0  0  0  0  2  0  0  0  0  0  0
  -29.8550  -28.7360   16.3910 C   0  0  0  0  0  2  0  0  0  0  0  0
  -29.5990  -28.4490   17.7640 O   0  0  0  0  0  0  0  0  0  0  0  0
  -30.2210  -27.2720   18.2750 C   0  0  0  0  0  2  0  0  0  0  0  0
  -29.7130  -27.0000   19.7000 C   0  0  0  0  0  2  0  0  0  0  0  0
  -28.4310  -26.3670   19.6510 O   0  0  0  0  0  0  0  0  0  0  0  0
  -24.5390  -31.3950   22.9080 C   0  0  0  0  0  0  0  0  0  0  0  0
  -27.3000  -27.1520   19.6890 C   0  0  0  0  0  0  0  0  0  0  0  0
  -23.4010  -30.1360   21.1030 C   0  0  0  0  0  3  0  0  0  0  0  0
  -24.9080  -28.6630   19.6680 C   0  0  0  0  0  0  0  0  0  0  0  0
  -25.9320  -30.4660   21.0690 C   0  0  0  0  0  2  0  0  0  0  0  0
  -26.0330  -29.1400   20.3470 C   0  0  0  0  0  0  0  0  0  0  0  0
  -27.2270  -28.3930   20.3630 C   0  0  0  0  0  3  0  0  0  0  0  0
  -26.1470  -26.6660   19.0370 C   0  0  0  0  0  3  0  0  0  0  0  0
  -24.9540  -27.4180   19.0180 C   0  0  0  0  0  3  0  0  0  0  0  0
  -23.6780  -29.5410   19.6960 C   0  0  0  0  0  2  0  0  0  0  0  0
  -24.6370  -30.6740   21.7550 N   0  0  0  0  0  0  0  0  0  0  0  0
  -23.4350  -31.6550   23.4080 O   0  0  0  0  0  0  0  0  0  0  0  0
  -22.6750  -29.0700   21.9560 C   0  0  0  0  0  0  0  0  0  0  0  0
  -21.3350  -29.0440   21.8670 N   0  0  0  0  0  0  0  0  0  0  0  0
  -23.3130  -28.2750   22.6510 O   0  0  0  0  0  0  0  0  0  0  0  0
  -20.8870  -29.7340   21.2790 H   0  0  0  0  0  0  0  0  0  0  0  0
  -17.8680  -28.2840   22.5300 C   0  0  0  0  0  0  0  0  0  0  0  0
  -20.4460  -28.1040   22.5460 C   0  0  0  0  0  3  0  0  0  0  0  0
  -20.2610  -26.8150   21.7120 C   0  0  0  0  0  2  0  0  0  0  0  0
  -19.0380  -26.8630   20.7910 C   0  0  0  0  0  2  0  0  0  0  0  0
  -17.7590  -27.0820   21.6070 C   0  0  0  0  0  2  0  0  0  0  0  0
  -19.1300  -28.7740   22.9570 C   0  0  0  0  0  0  0  0  0  0  0  0
  -19.1780  -29.9170   23.7840 C   0  0  0  0  0  3  0  0  0  0  0  0
  -17.9950  -30.5650   24.1850 C   0  0  0  0  0  3  0  0  0  0  0  0
  -16.7480  -30.0650   23.7740 C   0  0  0  0  0  3  0  0  0  0  0  0
  -16.6850  -28.9260   22.9520 C   0  0  0  0  0  3  0  0  0  0  0  0
  -25.8040  -31.9500   23.6390 C   0  0  0  0  0  3  0  0  0  0  0  0
  -26.2350  -31.0800   24.8830 C   0  0  1  0  0  0  0  0  0  0  0  0
  -25.0840  -30.8090   25.8800 C   0  0  0  0  0  1  0  0  0  0  0  0
  -26.7950  -29.7130   24.4250 C   0  0  0  0  0  1  0  0  0  0  0  0
  -27.3760  -31.7880   25.6520 C   0  0  0  0  0  1  0  0  0  0  0  0
  -25.5120  -33.3290   24.0470 N   0  0  0  0  0  0  0  0  0  0  0  0
  -25.8670  -34.4180   23.3520 C   0  0  0  0  0  0  0  0  0  0  0  0
  -26.5510  -34.3640   22.3260 O   0  0  0  0  0  0  0  0  0  0  0  0
  -24.9120  -33.4450   24.8510 H   0  0  0  0  0  0  0  0  0  0  0  0
  -24.1600  -36.2410   23.0750 C   0  0  0  0  0  1  0  0  0  0  0  0
  -25.3880  -35.7840   23.8790 C   0  0  0  0  0  3  0  0  0  0  0  0
  -27.5110  -36.6070   24.7940 C   0  0  0  0  0  1  0  0  0  0  0  0
  -26.4310  -36.8300   23.8350 N   0  0  0  0  0  0  0  0  0  0  0  0
  -26.0320  -37.7470   24.0180 H   0  0  0  0  0  0  0  0  0  0  0  0
  1  4  1  0
  2  4  2  0
  3  1  2  0
  4  9  1  0
  5  2  1  0
  6  5  2  0
  6  3  1  0
  7  8  1  0
  7  5  1  0
  9 15  1  0
 10 14  1  0
 12 15  1  0
 12 10  2  0
 13 11  1  0
 14 11  2  0
 14 24  1  0
 15 13  2  0
 16 24  1  0
 17 22  1  0
 18 19  1  0
 18 17  1  0
 20 19  1  0
 20 29  1  0
 20 21  1  0
 22 16  1  0
 22 21  1  0
 23 16  2  0
 24 25  1  0
 26 27  2  0
 27 28  1  0
 27 46  1  0
 28 31  1  0
 29 26  1  0
 29 30  1  0
 30 28  2  0
 31 32  1  0
 32 33  2  0
 34 37  1  0
 34 33  1  0
 35 34  2  0
 36 35  1  0
 36 31  2  0
 37 38  1  0
 38 43  2  0
 38 39  1  0
 39 40  2  0
 41 40  1  0
 41 45  1  0
 42 41  2  0
 43 42  1  0
 44 43  1  0
 46 47  1  0
 47 50  1  0
 47 49  1  0
 48 46  2  0
 51 52  1  0
 51 26  1  0
 53 51  1  0
 54 55  1  0
 54  7  1  0
 56 55  1  0
 56 57  1  0
 57 58  1  0
 58 59  1  0
 59 60  1  0
 60 61  1  0
 62 64  1  0
 62 61  1  0
 63 74  2  0
 64 69  1  0
 65 73  1  0
 65 75  1  0
 66 72  1  0
 66 68  1  0
 67 73  1  0
 68 69  2  0
 68 67  1  0
 70 64  2  0
 71 70  1  0
 71 66  2  0
 72 65  1  0
 73 63  1  0
 75 77  2  0
 76 75  1  0
 78 76  1  0
 79 88  2  0
 79 84  1  0
 80 76  1  0
 80 84  1  0
 81 80  1  0
 82 83  1  0
 82 81  1  0
 83 79  1  0
 84 85  2  0
 85 86  1  0
 87 86  2  0
 88 87  1  0
 89 63  1  0
 89 94  1  0
 89 90  1  0
 90 93  1  1
 90 91  1  0
 92 90  1  0
 94 97  1  0
 95 99  1  0
 95 94  1  0
 96 95  2  0
 99 98  1  0
101 99  1  0
101102  1  0
101100  1  0
M  ISO  4  16 100  24 100  61 101  62 101
M  END
>  <TORSDO>  (44) 
F 26

>  <SCORE>  (44) 
-10.673

>  <name>  (44) 
45

>  <ligand_id>  (44) 
45

>  <original_smiles>  (44) 
[H]c1nc(N([H])C([H])([H])C([H])([H])OC([H])([H])C([H])([H])OC([H])([H])C([H])([H])Oc2c([H])c([H])c3c(c2[H])C([H])([H])N(C(=O)C([H])(N([H])C(=O)C([H])(N([H])C([H])([H])[H])C([H])([H])[H])C(C([H])([H])[H])(C([H])([H])[H])C([H])([H])[H])C([H])(C(=O)N([H])C2([H])c4c([H])c([H])c([H])c([H])c4C([H])([H])C([H])([H])C2([H])[H])C3([H])[H])c([H])c(Oc2c([H])c([H])c(N([H])C(=O)N3C([H])([H])C([H])([H])C([H])([H])C([H])(n4nc(-c5c([H])c([H])c(Oc6c([H])c([H])c(F)c([H])c6F)c([H])c5[H])c(C(=O)N([H])[H])c4N([H])[H])C3([H])[H])c([H])c2[H])c1[H]

>  <smiles>  (44) 
[H]c1nc(N([H])C([H])([H])C([H])([H])OC([H])([H])C([H])([H])OC([H])([H])C([H])([H])Oc2c([H])c([H])c3c(c2[H])C([H])([H])N(C(=O)C([H])(N([H])C(=O)C([H])(N([H])C([H])([H])[H])C([H])([H])[H])C(C([H])([H])[H])(C([H])([H])[H])C([H])([H])[H])C([H])(C(=O)N([H])C2([H])c4c([H])c([H])c([H])c([H])c4C([H])([H])C([H])([H])C2([H])[H])C3([H])[H])c([H])c(Oc2c([H])c([H])c(N([H])C(=O)N3C([H])([H])C([H])([H])C([H])([H])C([H])(n4nc(-c5c([H])c([H])c(Oc6c([H])c([H])c(F)c([H])c6F)c([H])c5[H])c(C(=O)N([H])[H])c4N([H])[H])C3([H])[H])c([H])c2[H])c1[H]

$$$$
46:0:0
     RDKit          3D

108115  0  0  1  0  0  0  0  0999 V2000
  -26.1680  -18.9040   18.3220 C   0  0  0  0  0  2  0  0  0  0  0  0
  -26.8270  -19.9550   19.0160 O   0  0  0  0  0  0  0  0  0  0  0  0
  -26.7610  -21.1920   18.3100 C   0  0  0  0  0  2  0  0  0  0  0  0
  -26.9340  -22.3630   19.2850 C   0  0  0  0  0  0  0  0  0  0  0  0
  -27.5690  -23.4460   18.8190 N   0  0  0  0  0  0  0  0  0  0  0  0
  -26.4540  -22.3140   20.4190 O   0  0  0  0  0  0  0  0  0  0  0  0
  -27.9490  -23.4020   17.8820 H   0  0  0  0  0  0  0  0  0  0  0  0
  -27.5730  -24.7510   19.4670 C   0  0  0  0  0  2  0  0  0  0  0  0
  -28.5130  -24.8150   20.6850 C   0  0  0  0  0  2  0  0  0  0  0  0
  -29.2530  -27.1940   20.5850 C   0  0  0  0  0  0  0  0  0  0  0  0
  -28.5580  -26.1760   21.2090 N   0  0  0  0  0  0  0  0  0  0  0  0
  -30.0540  -27.0270   19.6640 O   0  0  0  0  0  0  0  0  0  0  0  0
  -27.9410  -26.4470   21.9620 H   0  0  0  0  0  0  0  0  0  0  0  0
  -28.9770  -28.4450   21.0650 O   0  0  0  0  0  0  0  0  0  0  0  0
  -28.4710  -32.9750   26.4980 C   0  0  0  0  0  0  0  0  0  0  0  0
  -28.1970  -28.8390   22.1380 C   0  0  0  0  0  0  0  0  0  0  0  0
  -26.6580  -31.2940   26.3590 C   0  0  0  0  0  3  0  0  0  0  0  0
  -26.5960  -29.9100   24.2170 C   0  0  0  0  0  0  0  0  0  0  0  0
  -27.9150  -32.0370   24.2600 C   0  0  0  0  0  2  0  0  0  0  0  0
  -27.6600  -30.6540   23.6990 C   0  0  0  0  0  0  0  0  0  0  0  0
  -28.4640  -30.1190   22.6720 C   0  0  0  0  0  3  0  0  0  0  0  0
  -27.1050  -28.1030   22.6630 C   0  0  0  0  0  3  0  0  0  0  0  0
  -26.3210  -28.6270   23.7100 C   0  0  0  0  0  3  0  0  0  0  0  0
  -25.7770  -30.5610   25.3080 C   0  0  0  0  0  2  0  0  0  0  0  0
  -27.7350  -32.1260   25.7280 N   0  0  0  0  0  0  0  0  0  0  0  0
  -28.2390  -33.1050   27.7080 O   0  0  0  0  0  0  0  0  0  0  0  0
  -27.2030  -30.2480   27.3580 C   0  0  0  0  0  0  0  0  0  0  0  0
  -26.6280  -30.2250   28.5700 N   0  0  0  0  0  0  0  0  0  0  0  0
  -28.0980  -29.4660   27.0280 O   0  0  0  0  0  0  0  0  0  0  0  0
  -25.9090  -30.9060   28.7650 H   0  0  0  0  0  0  0  0  0  0  0  0
  -26.2200  -29.6470   32.1120 C   0  0  0  0  0  0  0  0  0  0  0  0
  -26.9490  -29.3010   29.6560 C   0  0  0  0  0  3  0  0  0  0  0  0
  -25.9950  -28.0830   29.6530 C   0  0  0  0  0  2  0  0  0  0  0  0
  -24.7730  -28.2690   30.5570 C   0  0  0  0  0  2  0  0  0  0  0  0
  -25.2100  -28.5150   32.0040 C   0  0  0  0  0  2  0  0  0  0  0  0
  -27.0250  -30.0260   31.0050 C   0  0  0  0  0  0  0  0  0  0  0  0
  -27.9230  -31.1050   31.1480 C   0  0  0  0  0  3  0  0  0  0  0  0
  -28.0250  -31.8000   32.3680 C   0  0  0  0  0  3  0  0  0  0  0  0
  -27.2370  -31.4100   33.4660 C   0  0  0  0  0  3  0  0  0  0  0  0
  -26.3410  -30.3330   33.3380 C   0  0  0  0  0  3  0  0  0  0  0  0
  -29.6230  -33.8410   25.8960 C   0  0  0  0  0  3  0  0  0  0  0  0
  -31.0410  -33.5070   26.5030 C   0  0  1  0  0  0  0  0  0  0  0  0
  -31.0870  -33.5580   28.0470 C   0  0  0  0  0  1  0  0  0  0  0  0
  -31.5020  -32.0970   26.0670 C   0  0  0  0  0  1  0  0  0  0  0  0
  -32.0910  -34.5070   25.9640 C   0  0  0  0  0  1  0  0  0  0  0  0
  -29.2780  -35.2510   26.1190 N   0  0  0  0  0  0  0  0  0  0  0  0
  -28.9590  -36.1190   25.1510 C   0  0  0  0  0  0  0  0  0  0  0  0
  -28.9920  -35.8270   23.9530 O   0  0  0  0  0  0  0  0  0  0  0  0
  -29.1720  -35.5450   27.0800 H   0  0  0  0  0  0  0  0  0  0  0  0
  -27.0280  -37.7240   25.3310 C   0  0  0  0  0  1  0  0  0  0  0  0
  -28.5340  -37.5370   25.5810 C   0  0  0  0  0  3  0  0  0  0  0  0
  -30.6820  -38.7000   25.3220 C   0  0  0  0  0  1  0  0  0  0  0  0
  -29.2870  -38.6120   24.8980 N   0  0  0  0  0  0  0  0  0  0  0  0
  -28.8470  -39.5150   25.0530 H   0  0  0  0  0  0  0  0  0  0  0  0
  -26.3180  -17.5690   19.0680 C   0  0  0  0  0  2  0  0  0  0  0  0
  -26.7880  -17.7280   20.4090 O   0  0  0  0  0  0  0  0  0  0  0  0
  -28.1350  -18.1790   20.5390 C   0  0  0  0  0  2  0  0  0  0  0  0
  -29.1040  -17.3160   19.6880 C   0  0  0  0  0  2  0  0  0  0  0  0
  -30.1060  -18.0510   18.9870 O   0  0  0  0  0  0  0  0  0  0  0  0
  -29.6110  -18.8490   17.9180 C   0  0  0  0  0  2  0  0  0  0  0  0
  -30.7670  -19.4230   17.0790 C   0  0  0  0  0  2  0  0  0  0  0  0
  -31.4180  -18.4340   16.2850 O   0  0  0  0  0  0  0  0  0  0  0  0
  -30.6010  -17.7380   15.3390 C   0  0  0  0  0  2  0  0  0  0  0  0
  -30.3470  -18.5280   14.0410 C   0  0  0  0  0  2  0  0  0  0  0  0
  -29.4980  -19.6440   14.2880 O   0  0  0  0  0  0  0  0  0  0  0  0
  -28.1300  -19.4690   13.9250 C   0  0  0  0  0  2  0  0  0  0  0  0
  -27.2270  -19.2450   15.1550 C   0  0  0  0  0  2  0  0  0  0  0  0
  -26.4050  -18.0890   14.9800 O   0  0  0  0  0  0  0  0  0  0  0  0
  -25.1700  -18.2010   15.6790 C   0  0  0  0  0  2  0  0  0  0  0  0
  -24.0990  -17.2800   15.0760 C   0  0  0  0  0  2  0  0  0  0  0  0
  -22.4740  -16.5680   16.8150 C   0  0  0  0  0  0  0  0  0  0  0  0
  -21.1960  -15.8610   18.7990 C   0  0  0  0  0  2  0  0  0  0  0  0
  -21.9830  -16.1920   20.0830 C   0  0  0  0  0  2  0  0  0  0  0  0
  -22.9480  -15.0420   20.4300 C   0  0  0  0  0  2  0  0  0  0  0  0
  -23.8110  -14.5950   19.2210 C   0  0  0  0  0  3  0  0  0  0  0  0
  -22.9330  -14.3730   17.9710 C   0  0  0  0  0  2  0  0  0  0  0  0
  -22.1700  -15.6080   17.7240 N   0  0  0  0  0  0  0  0  0  0  0  0
  -21.8410  -17.6220   16.7130 O   0  0  0  0  0  0  0  0  0  0  0  0
  -23.5550  -16.3370   16.0570 N   0  0  0  0  0  0  0  0  0  0  0  0
  -24.0500  -15.4670   16.1900 H   0  0  0  0  0  0  0  0  0  0  0  0
  -25.9750  -13.2340   19.5030 C   0  0  0  0  0  0  0  0  0  0  0  0
  -26.2070  -11.9650   19.9590 C   0  0  0  0  0  0  0  0  0  0  0  0
  -24.9230  -11.4220   20.2760 C   0  0  0  0  0  0  0  0  0  0  0  0
  -24.6010  -13.4090   19.5410 N   0  0  0  0  0  0  0  0  0  0  0  0
  -23.9680  -12.2860   19.9620 N   0  0  0  0  0  0  0  0  0  0  0  0
  -24.5520  -10.1500   20.9110 C   0  0  0  0  0  0  0  0  0  0  0  0
  -23.4100   -9.4250   20.5060 C   0  0  0  0  0  3  0  0  0  0  0  0
  -23.0840   -8.1980   21.1210 C   0  0  0  0  0  3  0  0  0  0  0  0
  -23.9030   -7.6810   22.1530 C   0  0  0  0  0  0  0  0  0  0  0  0
  -25.0260   -8.4170   22.5680 C   0  0  0  0  0  3  0  0  0  0  0  0
  -25.3480   -9.6410   21.9590 C   0  0  0  0  0  3  0  0  0  0  0  0
  -23.6490   -6.5090   22.8250 O   0  0  0  0  0  0  0  0  0  0  0  0
  -22.7720   -5.5750   22.3360 C   0  0  0  0  0  0  0  0  0  0  0  0
  -23.0260   -4.8700   21.1390 C   0  0  0  0  0  3  0  0  0  0  0  0
  -22.1340   -3.8680   20.7100 C   0  0  0  0  0  3  0  0  0  0  0  0
  -20.9930   -3.5640   21.4770 C   0  0  0  0  0  0  0  0  0  0  0  0
  -20.7390   -4.2630   22.6690 C   0  0  0  0  0  3  0  0  0  0  0  0
  -21.6280   -5.2640   23.0980 C   0  0  0  0  0  0  0  0  0  0  0  0
  -21.3890   -5.9190   24.2610 F   0  0  0  0  0  0  0  0  0  0  0  0
  -20.1390   -2.5960   21.0660 F   0  0  0  0  0  0  0  0  0  0  0  0
  -27.5440  -11.3220   20.1800 C   0  0  0  0  0  0  0  0  0  0  0  0
  -27.6350  -10.0130   19.9830 N   0  0  0  0  0  0  0  0  0  0  0  0
  -28.5310  -11.9940   20.4810 O   0  0  0  0  0  0  0  0  0  0  0  0
  -26.8280   -9.4710   19.7090 H   0  0  0  0  0  0  0  0  0  0  0  0
  -28.5220   -9.5460   20.1050 H   0  0  0  0  0  0  0  0  0  0  0  0
  -26.8110  -14.2630   19.0780 N   0  0  0  0  0  0  0  0  0  0  0  0
  -27.8170  -14.1940   19.1410 H   0  0  0  0  0  0  0  0  0  0  0  0
  -26.4850  -15.1780   18.7910 H   0  0  0  0  0  0  0  0  0  0  0  0
  1  2  1  0
  1 55  1  0
  3  2  1  0
  3  4  1  0
  4  6  2  0
  5  4  1  0
  5  8  1  0
  7  5  1  0
  8  9  1  0
  9 11  1  0
 10 14  1  0
 10 11  1  0
 11 13  1  0
 12 10  2  0
 14 16  1  0
 15 26  2  0
 16 22  2  0
 16 21  1  0
 17 27  1  0
 18 24  1  0
 19 25  1  0
 20 18  1  0
 20 19  1  0
 21 20  2  0
 22 23  1  0
 23 18  2  0
 24 17  1  0
 25 17  1  0
 25 15  1  0
 27 28  1  0
 28 30  1  0
 29 27  2  0
 31 40  1  0
 32 28  1  0
 32 36  1  0
 33 32  1  0
 33 34  1  0
 34 35  1  0
 35 31  1  0
 36 37  1  0
 36 31  2  0
 37 38  2  0
 38 39  1  0
 40 39  2  0
 41 46  1  0
 41 15  1  0
 41 42  1  0
 42 43  1  1
 44 42  1  0
 45 42  1  0
 46 49  1  0
 47 51  1  0
 47 46  1  0
 48 47  2  0
 51 50  1  0
 53 54  1  0
 53 52  1  0
 53 51  1  0
 55 56  1  0
 56 57  1  0
 58 57  1  0
 59 58  1  0
 60 59  1  0
 61 60  1  0
 62 61  1  0
 63 62  1  0
 64 65  1  0
 64 63  1  0
 66 65  1  0
 66 67  1  0
 68 67  1  0
 68 69  1  0
 70 69  1  0
 70 79  1  0
 71 77  1  0
 72 73  1  0
 73 74  1  0
 75 76  1  0
 75 84  1  0
 75 74  1  0
 77 76  1  0
 77 72  1  0
 78 71  2  0
 79 80  1  0
 79 71  1  0
 81 84  1  0
 81 82  2  0
 82101  1  0
 82 83  1  0
 83 86  1  0
 84 85  1  0
 85 83  2  0
 86 91  1  0
 87 86  2  0
 87 88  1  0
 88 89  2  0
 89 90  1  0
 89 92  1  0
 91 90  2  0
 93 92  1  0
 93 98  1  0
 94 93  2  0
 95 94  1  0
 95 96  2  0
 96 97  1  0
 97 98  2  0
 98 99  1  0
100 96  1  0
101103  2  0
102105  1  0
102101  1  0
104102  1  0
106107  1  0
106 81  1  0
108106  1  0
M  ISO  4  10 101  14 101  71 100  79 100
M  END
>  <TORSDO>  (45) 
F 38

>  <SCORE>  (45) 
19.574

>  <name>  (45) 
46

>  <ligand_id>  (45) 
46

>  <original_smiles>  (45) 
[H]c1c([H])c([H])c2c(c1[H])C([H])([H])C([H])([H])C([H])([H])C2([H])N([H])C(=O)C1([H])N(C(=O)C([H])(N([H])C(=O)C([H])(N([H])C([H])([H])[H])C([H])([H])[H])C(C([H])([H])[H])(C([H])([H])[H])C([H])([H])[H])C([H])([H])c2c([H])c(OC(=O)N([H])C([H])([H])C([H])([H])N([H])C(=O)C([H])([H])OC([H])([H])C([H])([H])OC([H])([H])C([H])([H])OC([H])([H])C([H])([H])OC([H])([H])C([H])([H])OC([H])([H])C([H])([H])OC([H])([H])C([H])([H])N([H])C(=O)N3C([H])([H])C([H])([H])C([H])([H])C([H])(n4nc(-c5c([H])c([H])c(Oc6c([H])c([H])c(F)c([H])c6F)c([H])c5[H])c(C(=O)N([H])[H])c4N([H])[H])C3([H])[H])c([H])c([H])c2C1([H])[H]

>  <smiles>  (45) 
[H]c1c([H])c([H])c2c(c1[H])C([H])([H])C([H])([H])C([H])([H])C2([H])N([H])C(=O)C1([H])N(C(=O)C([H])(N([H])C(=O)C([H])(N([H])C([H])([H])[H])C([H])([H])[H])C(C([H])([H])[H])(C([H])([H])[H])C([H])([H])[H])C([H])([H])c2c([H])c(OC(=O)N([H])C([H])([H])C([H])([H])N([H])C(=O)C([H])([H])OC([H])([H])C([H])([H])OC([H])([H])C([H])([H])OC([H])([H])C([H])([H])OC([H])([H])C([H])([H])OC([H])([H])C([H])([H])OC([H])([H])C([H])([H])N([H])C(=O)N3C([H])([H])C([H])([H])C([H])([H])C([H])(n4nc(-c5c([H])c([H])c(Oc6c([H])c([H])c(F)c([H])c6F)c([H])c5[H])c(C(=O)N([H])[H])c4N([H])[H])C3([H])[H])c([H])c([H])c2C1([H])[H]

$$$$
47:0:0
     RDKit          3D

121129  0  0  1  0  0  0  0  0999 V2000
  -32.1390  -24.2820   17.5170 C   0  0  0  0  0  3  0  0  0  0  0  0
  -32.8740  -25.2570   18.4650 C   0  0  0  0  0  0  0  0  0  0  0  0
  -32.7350  -25.1250   19.7960 N   0  0  0  0  0  0  0  0  0  0  0  0
  -33.5530  -26.1660   17.9850 O   0  0  0  0  0  0  0  0  0  0  0  0
  -32.2500  -24.3180   20.1700 H   0  0  0  0  0  0  0  0  0  0  0  0
  -33.3670  -26.0070   20.7840 C   0  0  0  0  0  2  0  0  0  0  0  0
  -32.6650  -27.3770   20.8800 C   0  0  0  0  0  2  0  0  0  0  0  0
  -31.2930  -27.2580   21.2350 O   0  0  0  0  0  0  0  0  0  0  0  0
  -31.0440  -27.1270   22.6310 C   0  0  0  0  0  2  0  0  0  0  0  0
  -29.5420  -26.8810   22.8590 C   0  0  0  0  0  2  0  0  0  0  0  0
  -29.1590  -25.5240   22.6420 O   0  0  0  0  0  0  0  0  0  0  0  0
  -29.2140  -25.0490   21.2990 C   0  0  0  0  0  2  0  0  0  0  0  0
  -28.0520  -25.5390   20.4170 C   0  0  0  0  0  2  0  0  0  0  0  0
  -28.2450  -26.8680   19.9100 O   0  0  0  0  0  0  0  0  0  0  0  0
  -24.4910  -31.9210   23.1410 C   0  0  0  0  0  0  0  0  0  0  0  0
  -27.0870  -27.6080   19.8900 C   0  0  0  0  0  0  0  0  0  0  0  0
  -23.2480  -30.5400   21.5070 C   0  0  0  0  0  3  0  0  0  0  0  0
  -24.6740  -29.0620   19.9960 C   0  0  0  0  0  0  0  0  0  0  0  0
  -25.7540  -30.9540   21.2250 C   0  0  0  0  0  2  0  0  0  0  0  0
  -25.8410  -29.6010   20.5510 C   0  0  0  0  0  0  0  0  0  0  0  0
  -27.0550  -28.8840   20.4880 C   0  0  0  0  0  3  0  0  0  0  0  0
  -25.9070  -27.0800   19.3230 C   0  0  0  0  0  3  0  0  0  0  0  0
  -24.7020  -27.8020   19.3730 C   0  0  0  0  0  3  0  0  0  0  0  0
  -23.4190  -29.8930   20.1060 C   0  0  0  0  0  2  0  0  0  0  0  0
  -24.5180  -31.1520   22.0160 N   0  0  0  0  0  0  0  0  0  0  0  0
  -23.4270  -32.1640   23.7270 O   0  0  0  0  0  0  0  0  0  0  0  0
  -22.6450  -29.4900   22.4650 C   0  0  0  0  0  0  0  0  0  0  0  0
  -21.3200  -29.2860   22.3720 N   0  0  0  0  0  0  0  0  0  0  0  0
  -23.3630  -28.8590   23.2450 O   0  0  0  0  0  0  0  0  0  0  0  0
  -20.8000  -29.8510   21.7150 H   0  0  0  0  0  0  0  0  0  0  0  0
  -17.9820  -28.0270   22.9380 C   0  0  0  0  0  0  0  0  0  0  0  0
  -20.5410  -28.3190   23.1450 C   0  0  0  0  0  3  0  0  0  0  0  0
  -20.6500  -26.9010   22.5360 C   0  0  0  0  0  2  0  0  0  0  0  0
  -19.5250  -26.5840   21.5450 C   0  0  0  0  0  2  0  0  0  0  0  0
  -18.1590  -26.6950   22.2300 C   0  0  0  0  0  2  0  0  0  0  0  0
  -19.1000  -28.7970   23.3530 C   0  0  0  0  0  0  0  0  0  0  0  0
  -18.8800  -30.0450   23.9740 C   0  0  0  0  0  3  0  0  0  0  0  0
  -17.5720  -30.5230   24.1850 C   0  0  0  0  0  3  0  0  0  0  0  0
  -16.4680  -29.7490   23.7860 C   0  0  0  0  0  3  0  0  0  0  0  0
  -16.6740  -28.5030   23.1670 C   0  0  0  0  0  3  0  0  0  0  0  0
  -25.7900  -32.5540   23.7290 C   0  0  0  0  0  3  0  0  0  0  0  0
  -26.3740  -31.7460   24.9520 C   0  0  1  0  0  0  0  0  0  0  0  0
  -25.3370  -31.4650   26.0640 C   0  0  0  0  0  1  0  0  0  0  0  0
  -26.9490  -30.3870   24.4870 C   0  0  0  0  0  1  0  0  0  0  0  0
  -27.5460  -32.5310   25.5850 C   0  0  0  0  0  1  0  0  0  0  0  0
  -25.4770  -33.9360   24.1140 N   0  0  0  0  0  0  0  0  0  0  0  0
  -25.7660  -35.0160   23.3750 C   0  0  0  0  0  0  0  0  0  0  0  0
  -26.3960  -34.9540   22.3160 O   0  0  0  0  0  0  0  0  0  0  0  0
  -24.9100  -34.0580   24.9410 H   0  0  0  0  0  0  0  0  0  0  0  0
  -23.9950  -36.7870   23.1460 C   0  0  0  0  0  1  0  0  0  0  0  0
  -25.2770  -36.3830   23.8920 C   0  0  0  0  0  3  0  0  0  0  0  0
  -27.4340  -37.2760   24.6530 C   0  0  0  0  0  1  0  0  0  0  0  0
  -26.2870  -37.4560   23.7680 N   0  0  0  0  0  0  0  0  0  0  0  0
  -25.8740  -38.3630   23.9690 H   0  0  0  0  0  0  0  0  0  0  0  0
  -30.7400  -24.0480   17.9550 N   0  0  0  0  0  4  0  0  0  0  0  0
  -30.7730  -23.3560   18.6890 H   0  0  0  0  0  0  0  0  0  0  0  0
  -30.3800  -24.9120   18.3290 H   0  0  0  0  0  0  0  0  0  0  0  0
  -29.8100  -23.5800   16.9070 C   0  0  0  0  0  2  0  0  0  0  0  0
  -25.7640  -23.3100   18.4320 C   0  0  0  0  0  3  0  0  0  0  0  0
  -26.1470  -24.4140   17.6460 C   0  0  0  0  0  3  0  0  0  0  0  0
  -26.6950  -22.2900   18.7140 C   0  0  0  0  0  3  0  0  0  0  0  0
  -27.4630  -24.5100   17.1560 C   0  0  0  0  0  3  0  0  0  0  0  0
  -28.0060  -22.3750   18.2090 C   0  0  0  0  0  3  0  0  0  0  0  0
  -28.3970  -23.4940   17.4410 C   0  0  0  0  0  0  0  0  0  0  0  0
  -32.9620  -22.9730   17.2490 C   0  0  0  0  0  3  0  0  0  0  0  0
  -32.4650  -21.7120   17.9950 C   0  0  0  0  0  0  0  0  0  0  0  0
  -33.1760  -20.5980   17.7880 N   0  0  0  0  0  0  0  0  0  0  0  0
  -31.4400  -21.7450   18.6830 O   0  0  0  0  0  0  0  0  0  0  0  0
  -33.9560  -20.7060   17.1520 H   0  0  0  0  0  0  0  0  0  0  0  0
  -32.8690  -19.2400   18.2350 C   0  0  0  0  0  2  0  0  0  0  0  0
  -32.5320  -19.1440   19.7370 C   0  0  0  0  0  2  0  0  0  0  0  0
  -32.7470  -17.7260   20.2940 C   0  0  0  0  0  2  0  0  0  0  0  0
  -31.6200  -17.2630   21.2310 C   0  0  0  0  0  2  0  0  0  0  0  0
  -30.4380  -17.2050   20.4550 O   0  0  0  0  0  0  0  0  0  0  0  0
  -29.3030  -16.6950   21.1350 C   0  0  0  0  0  2  0  0  0  0  0  0
  -28.1060  -16.7680   20.1750 C   0  0  0  0  0  2  0  0  0  0  0  0
  -27.5780  -18.1970   19.9180 C   0  0  0  0  0  2  0  0  0  0  0  0
  -27.7420  -18.6440   18.5700 O   0  0  0  0  0  0  0  0  0  0  0  0
  -29.0720  -18.9680   18.1880 C   0  0  0  0  0  2  0  0  0  0  0  0
  -29.3640  -18.2540   16.8640 C   0  0  0  0  0  2  0  0  0  0  0  0
  -30.8590  -17.9820   16.6180 C   0  0  0  0  0  2  0  0  0  0  0  0
  -32.2490  -17.3010   14.6630 C   0  0  0  0  0  0  0  0  0  0  0  0
  -33.4640  -16.9950   12.5430 C   0  0  0  0  0  2  0  0  0  0  0  0
  -34.0170  -18.3450   12.0470 C   0  0  0  0  0  2  0  0  0  0  0  0
  -32.9670  -19.0760   11.1880 C   0  0  0  0  0  2  0  0  0  0  0  0
  -31.5920  -19.1670   11.9010 C   0  0  0  0  0  3  0  0  0  0  0  0
  -31.1630  -17.7850   12.4390 C   0  0  0  0  0  2  0  0  0  0  0  0
  -32.2380  -17.2590   13.3070 N   0  0  0  0  0  0  0  0  0  0  0  0
  -33.2480  -17.0630   15.3520 O   0  0  0  0  0  0  0  0  0  0  0  0
  -31.0830  -17.6450   15.2170 N   0  0  0  0  0  0  0  0  0  0  0  0
  -30.3130  -17.7800   14.5800 H   0  0  0  0  0  0  0  0  0  0  0  0
  -29.7650  -20.8540   11.2270 C   0  0  0  0  0  0  0  0  0  0  0  0
  -29.0300  -20.9940   10.0770 C   0  0  0  0  0  0  0  0  0  0  0  0
  -29.4350  -19.9280    9.2180 C   0  0  0  0  0  0  0  0  0  0  0  0
  -30.5680  -19.7410   11.0290 N   0  0  0  0  0  0  0  0  0  0  0  0
  -30.3220  -19.1550    9.8310 N   0  0  0  0  0  0  0  0  0  0  0  0
  -29.0750  -19.6300    7.8240 C   0  0  0  0  0  0  0  0  0  0  0  0
  -28.5460  -18.3750    7.4500 C   0  0  0  0  0  3  0  0  0  0  0  0
  -28.1870  -18.1190    6.1090 C   0  0  0  0  0  3  0  0  0  0  0  0
  -28.3570  -19.1230    5.1260 C   0  0  0  0  0  0  0  0  0  0  0  0
  -28.9020  -20.3640    5.5010 C   0  0  0  0  0  3  0  0  0  0  0  0
  -29.2620  -20.6150    6.8350 C   0  0  0  0  0  3  0  0  0  0  0  0
  -28.0720  -18.9550    3.7930 O   0  0  0  0  0  0  0  0  0  0  0  0
  -27.0990  -18.0850    3.3720 C   0  0  0  0  0  0  0  0  0  0  0  0
  -25.7650  -18.1820    3.8280 C   0  0  0  0  0  3  0  0  0  0  0  0
  -24.7820  -17.3150    3.3130 C   0  0  0  0  0  3  0  0  0  0  0  0
  -25.1250  -16.3560    2.3420 C   0  0  0  0  0  0  0  0  0  0  0  0
  -26.4510  -16.2610    1.8840 C   0  0  0  0  0  3  0  0  0  0  0  0
  -27.4340  -17.1250    2.3970 C   0  0  0  0  0  0  0  0  0  0  0  0
  -28.7050  -17.0460    1.9350 F   0  0  0  0  0  0  0  0  0  0  0  0
  -24.1800  -15.5230    1.8450 F   0  0  0  0  0  0  0  0  0  0  0  0
  -28.0720  -22.1060    9.7570 C   0  0  0  0  0  0  0  0  0  0  0  0
  -27.0320  -21.8150    8.9800 N   0  0  0  0  0  0  0  0  0  0  0  0
  -28.2100  -23.2290   10.2350 O   0  0  0  0  0  0  0  0  0  0  0  0
  -26.9100  -20.8890    8.6000 H   0  0  0  0  0  0  0  0  0  0  0  0
  -26.3570  -22.5340    8.7590 H   0  0  0  0  0  0  0  0  0  0  0  0
  -29.8340  -21.5900   12.4050 N   0  0  0  0  0  0  0  0  0  0  0  0
  -29.2960  -22.4370   12.5500 H   0  0  0  0  0  0  0  0  0  0  0  0
  -30.4550  -21.3790   13.1760 H   0  0  0  0  0  0  0  0  0  0  0  0
  -33.0740  -22.6790   15.8530 O   0  0  0  0  0  0  0  0  0  0  0  0
  -33.5420  -23.3890   15.4210 H   0  0  0  0  0  0  0  0  0  0  0  0
  1 55  1  0
  1  2  1  0
  2  3  1  0
  3  5  1  0
  3  6  1  0
  4  2  2  0
  6  7  1  0
  7  8  1  0
  8  9  1  0
  9 10  1  0
 11 10  1  0
 12 11  1  0
 13 12  1  0
 14 13  1  0
 15 26  2  0
 16 14  1  0
 16 21  1  0
 17 25  1  0
 17 27  1  0
 18 24  1  0
 18 20  1  0
 19 25  1  0
 20 19  1  0
 21 20  2  0
 22 23  1  0
 22 16  2  0
 23 18  2  0
 24 17  1  0
 25 15  1  0
 27 29  2  0
 28 27  1  0
 30 28  1  0
 31 40  2  0
 31 36  1  0
 32 28  1  0
 32 36  1  0
 33 32  1  0
 34 35  1  0
 34 33  1  0
 35 31  1  0
 36 37  2  0
 37 38  1  0
 39 38  2  0
 40 39  1  0
 41 15  1  0
 41 46  1  0
 41 42  1  0
 42 45  1  1
 42 43  1  0
 44 42  1  0
 46 49  1  0
 47 51  1  0
 47 46  1  0
 48 47  2  0
 51 50  1  0
 53 51  1  0
 53 54  1  0
 53 52  1  0
 55 57  1  0
 55 56  1  0
 58 64  1  0
 58 55  1  0
 59 61  1  0
 60 59  2  0
 62 64  2  0
 62 60  1  0
 63 61  2  0
 64 63  1  0
 65120  1  0
 65  1  1  0
 65 66  1  0
 66 68  2  0
 67 66  1  0
 67 70  1  0
 69 67  1  0
 70 71  1  0
 71 72  1  0
 72 73  1  0
 74 75  1  0
 74 73  1  0
 76 75  1  0
 77 76  1  0
 78 77  1  0
 79 78  1  0
 80 79  1  0
 81 80  1  0
 82 90  1  0
 82 89  2  0
 83 88  1  0
 84 83  1  0
 85 86  1  0
 85 84  1  0
 86 95  1  0
 86 87  1  0
 87 88  1  0
 88 82  1  0
 90 81  1  0
 91 90  1  0
 92117  1  0
 93 92  2  0
 94 96  2  0
 94 93  1  0
 95 92  1  0
 96 95  1  0
 97 94  1  0
 98 97  1  0
 99 98  2  0
100101  2  0
100 99  1  0
101102  1  0
102 97  2  0
103100  1  0
104103  1  0
104105  1  0
106105  2  0
107106  1  0
108107  2  0
108109  1  0
109104  2  0
110109  1  0
111107  1  0
112 93  1  0
112114  2  0
113112  1  0
115113  1  0
116113  1  0
117118  1  0
117119  1  0
121120  1  0
M  ISO  4  13 101  14 101  82 100  90 100
M  END
>  <TORSDO>  (46) 
F 43

>  <SCORE>  (46) 
-5.464

>  <name>  (46) 
47

>  <ligand_id>  (46) 
47

>  <original_smiles>  (46) 
[H]OC([H])(C(=O)N([H])C([H])([H])C([H])([H])C([H])([H])C([H])([H])OC([H])([H])C([H])([H])C([H])([H])OC([H])([H])C([H])([H])C([H])([H])N([H])C(=O)N1C([H])([H])C([H])([H])C([H])([H])C([H])(n2nc(-c3c([H])c([H])c(Oc4c([H])c([H])c(F)c([H])c4F)c([H])c3[H])c(C(=O)N([H])[H])c2N([H])[H])C1([H])[H])C([H])(C(=O)N([H])C([H])([H])C([H])([H])OC([H])([H])C([H])([H])OC([H])([H])C([H])([H])Oc1c([H])c([H])c2c(c1[H])C([H])([H])N(C(=O)C([H])(N([H])C(=O)C([H])(N([H])C([H])([H])[H])C([H])([H])[H])C(C([H])([H])[H])(C([H])([H])[H])C([H])([H])[H])C([H])(C(=O)N([H])C1([H])c3c([H])c([H])c([H])c([H])c3C([H])([H])C([H])([H])C1([H])[H])C2([H])[H])[N+]([H])([H])C([H])([H])c1c([H])c([H])c([H])c([H])c1[H]

>  <smiles>  (46) 
[H]OC([H])(C(=O)N([H])C([H])([H])C([H])([H])C([H])([H])C([H])([H])OC([H])([H])C([H])([H])C([H])([H])OC([H])([H])C([H])([H])C([H])([H])N([H])C(=O)N1C([H])([H])C([H])([H])C([H])([H])C([H])(n2nc(-c3c([H])c([H])c(Oc4c([H])c([H])c(F)c([H])c4F)c([H])c3[H])c(C(=O)N([H])[H])c2N([H])[H])C1([H])[H])C([H])(C(=O)N([H])C([H])([H])C([H])([H])OC([H])([H])C([H])([H])OC([H])([H])C([H])([H])Oc1c([H])c([H])c2c(c1[H])C([H])([H])N(C(=O)C([H])(N([H])C(=O)C([H])(N([H])C([H])([H])[H])C([H])([H])[H])C(C([H])([H])[H])(C([H])([H])[H])C([H])([H])[H])C([H])(C(=O)N([H])C1([H])c3c([H])c([H])c([H])c([H])c3C([H])([H])C([H])([H])C1([H])[H])C2([H])[H])[N+]([H])([H])C([H])([H])c1c([H])c([H])c([H])c([H])c1[H]

$$$$
48:0:0
     RDKit          3D

 87 94  0  0  1  0  0  0  0  0999 V2000
  -28.7610  -22.8550   19.8730 C   0  0  0  0  0  2  0  0  0  0  0  0
  -28.6970  -24.2760   20.5050 C   0  0  0  0  0  2  0  0  0  0  0  0
  -28.5710  -25.4360   19.4830 C   0  0  0  0  0  2  0  0  0  0  0  0
  -28.4290  -26.7240   20.1180 O   0  0  0  0  0  0  0  0  0  0  0  0
  -24.6090  -31.8790   23.2320 C   0  0  0  0  0  0  0  0  0  0  0  0
  -27.2240  -27.4120   20.1260 C   0  0  0  0  0  0  0  0  0  0  0  0
  -23.3870  -30.4750   21.6060 C   0  0  0  0  0  3  0  0  0  0  0  0
  -24.8250  -28.9330   20.1720 C   0  0  0  0  0  0  0  0  0  0  0  0
  -25.9140  -30.8260   21.3840 C   0  0  0  0  0  2  0  0  0  0  0  0
  -25.9910  -29.4530   20.7430 C   0  0  0  0  0  0  0  0  0  0  0  0
  -27.1890  -28.6990   20.7180 C   0  0  0  0  0  3  0  0  0  0  0  0
  -26.0230  -26.9010   19.5760 C   0  0  0  0  0  3  0  0  0  0  0  0
  -24.8350  -27.6550   19.5910 C   0  0  0  0  0  3  0  0  0  0  0  0
  -23.5840  -29.7950   20.2260 C   0  0  0  0  0  2  0  0  0  0  0  0
  -24.6560  -31.0750   22.1310 N   0  0  0  0  0  0  0  0  0  0  0  0
  -23.5320  -32.1530   23.7800 O   0  0  0  0  0  0  0  0  0  0  0  0
  -22.7460  -29.4530   22.5720 C   0  0  0  0  0  0  0  0  0  0  0  0
  -21.4190  -29.2700   22.4550 N   0  0  0  0  0  0  0  0  0  0  0  0
  -23.4360  -28.8290   23.3820 O   0  0  0  0  0  0  0  0  0  0  0  0
  -20.9230  -29.8240   21.7710 H   0  0  0  0  0  0  0  0  0  0  0  0
  -18.0520  -28.0680   22.9710 C   0  0  0  0  0  0  0  0  0  0  0  0
  -20.6090  -28.3350   23.2340 C   0  0  0  0  0  3  0  0  0  0  0  0
  -20.7150  -26.9010   22.6660 C   0  0  0  0  0  2  0  0  0  0  0  0
  -19.6110  -26.5690   21.6570 C   0  0  0  0  0  2  0  0  0  0  0  0
  -18.2310  -26.7150   22.3040 C   0  0  0  0  0  2  0  0  0  0  0  0
  -19.1700  -28.8350   23.3930 C   0  0  0  0  0  0  0  0  0  0  0  0
  -18.9500  -30.1030   23.9760 C   0  0  0  0  0  3  0  0  0  0  0  0
  -17.6440  -30.6020   24.1420 C   0  0  0  0  0  3  0  0  0  0  0  0
  -16.5400  -29.8310   23.7360 C   0  0  0  0  0  3  0  0  0  0  0  0
  -16.7440  -28.5660   23.1560 C   0  0  0  0  0  3  0  0  0  0  0  0
  -25.9000  -32.5110   23.8380 C   0  0  0  0  0  3  0  0  0  0  0  0
  -26.4410  -31.7310   25.0990 C   0  0  1  0  0  0  0  0  0  0  0  0
  -25.3660  -31.4800   26.1820 C   0  0  0  0  0  1  0  0  0  0  0  0
  -27.0230  -30.3590   24.6870 C   0  0  0  0  0  1  0  0  0  0  0  0
  -27.6000  -32.5240   25.7480 C   0  0  0  0  0  1  0  0  0  0  0  0
  -25.5890  -33.9040   24.1820 N   0  0  0  0  0  0  0  0  0  0  0  0
  -25.9060  -34.9620   23.4230 C   0  0  0  0  0  0  0  0  0  0  0  0
  -26.5630  -34.8680   22.3830 O   0  0  0  0  0  0  0  0  0  0  0  0
  -24.9990  -34.0500   24.9890 H   0  0  0  0  0  0  0  0  0  0  0  0
  -24.1600  -36.7450   23.1070 C   0  0  0  0  0  1  0  0  0  0  0  0
  -25.4180  -36.3460   23.8940 C   0  0  0  0  0  3  0  0  0  0  0  0
  -27.5640  -37.2370   24.6880 C   0  0  0  0  0  1  0  0  0  0  0  0
  -26.4430  -37.4060   23.7680 N   0  0  0  0  0  0  0  0  0  0  0  0
  -26.0330  -38.3220   23.9350 H   0  0  0  0  0  0  0  0  0  0  0  0
  -29.2420  -21.7430   20.8440 C   0  0  0  0  0  2  0  0  0  0  0  0
  -29.1310  -20.4270   20.2750 O   0  0  0  0  0  0  0  0  0  0  0  0
  -29.8140  -19.4130   21.0320 C   0  0  0  0  0  2  0  0  0  0  0  0
  -29.4840  -17.9650   20.5710 C   0  0  0  0  0  2  0  0  0  0  0  0
  -30.3480  -16.8800   21.2800 C   0  0  0  0  0  2  0  0  0  0  0  0
  -30.6360  -14.4870   20.4750 C   0  0  0  0  0  0  0  0  0  0  0  0
  -30.3490  -12.3230   19.3160 C   0  0  0  0  0  2  0  0  0  0  0  0
  -29.3870  -12.5170   18.1260 C   0  0  0  0  0  2  0  0  0  0  0  0
  -27.9190  -12.3760   18.5750 C   0  0  0  0  0  2  0  0  0  0  0  0
  -27.5960  -13.2170   19.8380 C   0  0  0  0  0  3  0  0  0  0  0  0
  -28.6620  -12.9880   20.9340 C   0  0  0  0  0  2  0  0  0  0  0  0
  -29.9760  -13.3030   20.3500 N   0  0  0  0  0  0  0  0  0  0  0  0
  -31.7620  -14.6790   20.0080 O   0  0  0  0  0  0  0  0  0  0  0  0
  -29.9190  -15.4890   21.0280 N   0  0  0  0  0  0  0  0  0  0  0  0
  -28.9950  -15.2350   21.3430 H   0  0  0  0  0  0  0  0  0  0  0  0
  -25.2080  -13.8370   20.5710 C   0  0  0  0  0  0  0  0  0  0  0  0
  -24.1400  -13.0700   20.9490 C   0  0  0  0  0  0  0  0  0  0  0  0
  -24.5950  -11.7160   20.9130 C   0  0  0  0  0  0  0  0  0  0  0  0
  -26.2470  -12.9500   20.3300 N   0  0  0  0  0  0  0  0  0  0  0  0
  -25.8820  -11.6690   20.5940 N   0  0  0  0  0  0  0  0  0  0  0  0
  -23.8660  -10.4570   21.1110 C   0  0  0  0  0  0  0  0  0  0  0  0
  -24.3260   -9.4700   22.0110 C   0  0  0  0  0  3  0  0  0  0  0  0
  -23.5980   -8.2750   22.1960 C   0  0  0  0  0  3  0  0  0  0  0  0
  -22.3970   -8.0590   21.4810 C   0  0  0  0  0  0  0  0  0  0  0  0
  -21.9550   -9.0330   20.5690 C   0  0  0  0  0  3  0  0  0  0  0  0
  -22.6830  -10.2200   20.3820 C   0  0  0  0  0  3  0  0  0  0  0  0
  -21.6380   -6.9170   21.5770 O   0  0  0  0  0  0  0  0  0  0  0  0
  -21.6480   -6.1390   22.7060 C   0  0  0  0  0  0  0  0  0  0  0  0
  -21.3240   -6.6640   23.9760 C   0  0  0  0  0  3  0  0  0  0  0  0
  -21.2810   -5.8130   25.0990 C   0  0  0  0  0  3  0  0  0  0  0  0
  -21.5500   -4.4400   24.9530 C   0  0  0  0  0  0  0  0  0  0  0  0
  -21.8680   -3.9140   23.6880 C   0  0  0  0  0  3  0  0  0  0  0  0
  -21.9140   -4.7620   22.5680 C   0  0  0  0  0  0  0  0  0  0  0  0
  -22.2000   -4.2460   21.3480 F   0  0  0  0  0  0  0  0  0  0  0  0
  -21.5010   -3.6210   26.0300 F   0  0  0  0  0  0  0  0  0  0  0  0
  -22.7480  -13.5530   21.2350 C   0  0  0  0  0  0  0  0  0  0  0  0
  -22.0280  -12.8610   22.1110 N   0  0  0  0  0  0  0  0  0  0  0  0
  -22.3080  -14.5780   20.7180 O   0  0  0  0  0  0  0  0  0  0  0  0
  -22.3960  -12.0310   22.5500 H   0  0  0  0  0  0  0  0  0  0  0  0
  -21.0950  -13.1670   22.3460 H   0  0  0  0  0  0  0  0  0  0  0  0
  -25.3790  -15.2070   20.3910 N   0  0  0  0  0  0  0  0  0  0  0  0
  -24.6160  -15.8650   20.5060 H   0  0  0  0  0  0  0  0  0  0  0  0
  -26.2250  -15.6400   20.0440 H   0  0  0  0  0  0  0  0  0  0  0  0
  1  2  1  0
  1 45  1  0
  3  4  1  0
  3  2  1  0
  4  6  1  0
  5 16  2  0
  6 11  1  0
  7 15  1  0
  7 17  1  0
  8 14  1  0
  8 10  1  0
  9 15  1  0
 10  9  1  0
 11 10  2  0
 12 13  1  0
 12  6  2  0
 13  8  2  0
 14  7  1  0
 15  5  1  0
 17 19  2  0
 18 17  1  0
 20 18  1  0
 21 30  2  0
 21 26  1  0
 22 18  1  0
 22 26  1  0
 23 22  1  0
 24 25  1  0
 24 23  1  0
 25 21  1  0
 26 27  2  0
 27 28  1  0
 29 28  2  0
 30 29  1  0
 31  5  1  0
 31 36  1  0
 31 32  1  0
 32 35  1  1
 32 33  1  0
 34 32  1  0
 36 39  1  0
 37 41  1  0
 37 36  1  0
 38 37  2  0
 41 40  1  0
 43 41  1  0
 43 44  1  0
 43 42  1  0
 46 45  1  0
 46 47  1  0
 48 47  1  0
 48 49  1  0
 50 58  1  0
 51 56  1  0
 52 53  1  0
 52 51  1  0
 54 53  1  0
 54 63  1  0
 54 55  1  0
 56 50  1  0
 56 55  1  0
 57 50  2  0
 58 49  1  0
 58 59  1  0
 60 61  2  0
 61 80  1  0
 62 61  1  0
 62 65  1  0
 63 60  1  0
 63 64  1  0
 64 62  2  0
 65 66  1  0
 66 67  2  0
 68 71  1  0
 68 67  1  0
 69 68  2  0
 70 69  1  0
 70 65  2  0
 71 72  1  0
 72 73  1  0
 73 74  2  0
 75 74  1  0
 75 79  1  0
 76 75  2  0
 77 72  2  0
 77 76  1  0
 78 77  1  0
 80 81  1  0
 81 84  1  0
 81 83  1  0
 82 80  2  0
 85 86  1  0
 85 60  1  0
 87 85  1  0
M  ISO  4   3 101   4 101  50 100  58 100
M  END
>  <TORSDO>  (47) 
F 23

>  <SCORE>  (47) 
-12.551

>  <name>  (47) 
48

>  <ligand_id>  (47) 
48

>  <original_smiles>  (47) 
[H]c1c([H])c([H])c2c(c1[H])C([H])([H])C([H])([H])C([H])([H])C2([H])N([H])C(=O)C1([H])N(C(=O)C([H])(N([H])C(=O)C([H])(N([H])C([H])([H])[H])C([H])([H])[H])C(C([H])([H])[H])(C([H])([H])[H])C([H])([H])[H])C([H])([H])c2c([H])c(OC([H])([H])C([H])([H])C([H])([H])C([H])([H])OC([H])([H])C([H])([H])C([H])([H])N([H])C(=O)N3C([H])([H])C([H])([H])C([H])([H])C([H])(n4nc(-c5c([H])c([H])c(Oc6c([H])c([H])c(F)c([H])c6F)c([H])c5[H])c(C(=O)N([H])[H])c4N([H])[H])C3([H])[H])c([H])c([H])c2C1([H])[H]

>  <smiles>  (47) 
[H]c1c([H])c([H])c2c(c1[H])C([H])([H])C([H])([H])C([H])([H])C2([H])N([H])C(=O)C1([H])N(C(=O)C([H])(N([H])C(=O)C([H])(N([H])C([H])([H])[H])C([H])([H])[H])C(C([H])([H])[H])(C([H])([H])[H])C([H])([H])[H])C([H])([H])c2c([H])c(OC([H])([H])C([H])([H])C([H])([H])C([H])([H])OC([H])([H])C([H])([H])C([H])([H])N([H])C(=O)N3C([H])([H])C([H])([H])C([H])([H])C([H])(n4nc(-c5c([H])c([H])c(Oc6c([H])c([H])c(F)c([H])c6F)c([H])c5[H])c(C(=O)N([H])[H])c4N([H])[H])C3([H])[H])c([H])c([H])c2C1([H])[H]

$$$$
49:0:0
     RDKit          3D

106115  0  0  1  0  0  0  0  0999 V2000
  -28.4580  -24.7930   25.4680 C   0  0  0  0  0  2  0  0  0  0  0  0
  -30.4980  -24.1130   26.9330 C   0  0  0  0  0  2  0  0  0  0  0  0
  -28.4810  -26.1390   26.2130 C   0  0  0  0  0  2  0  0  0  0  0  0
  -30.3590  -25.4770   27.6170 C   0  0  0  0  0  2  0  0  0  0  0  0
  -29.2120  -23.6410   26.1950 C   0  0  0  0  0  3  0  0  0  0  0  0
  -29.8800  -26.4210   26.5920 N   0  0  2  0  0  4  0  0  0  0  0  0
  -30.4380  -26.1690   25.7860 H   0  0  0  0  0  0  0  0  0  0  0  0
  -30.3080  -27.8270   26.7140 C   0  0  0  0  0  2  0  0  0  0  0  0
  -31.5010  -27.9690   25.7700 C   0  0  0  0  0  0  0  0  0  0  0  0
  -31.6200  -29.0810   25.0410 N   0  0  0  0  0  0  0  0  0  0  0  0
  -32.2830  -27.0240   25.6500 O   0  0  0  0  0  0  0  0  0  0  0  0
  -30.9540  -29.8280   25.1910 H   0  0  0  0  0  0  0  0  0  0  0  0
  -32.5810  -29.2410   23.9490 C   0  0  0  0  0  2  0  0  0  0  0  0
  -31.8790  -29.1470   22.5850 C   0  0  0  0  0  2  0  0  0  0  0  0
  -31.2400  -27.8770   22.3870 O   0  0  0  0  0  0  0  0  0  0  0  0
  -30.0250  -28.0330   21.6580 C   0  0  0  0  0  2  0  0  0  0  0  0
  -29.3030  -26.7240   21.2390 C   0  0  0  0  0  2  0  0  0  0  0  0
  -28.4610  -26.7900   20.0680 O   0  0  0  0  0  0  0  0  0  0  0  0
  -24.6040  -31.8700   23.2130 C   0  0  0  0  0  0  0  0  0  0  0  0
  -27.2810  -27.5050   20.1250 C   0  0  0  0  0  0  0  0  0  0  0  0
  -23.3840  -30.4880   21.5510 C   0  0  0  0  0  3  0  0  0  0  0  0
  -24.8350  -28.9450   20.1250 C   0  0  0  0  0  0  0  0  0  0  0  0
  -25.8950  -30.8660   21.3410 C   0  0  0  0  0  2  0  0  0  0  0  0
  -25.9790  -29.5000   20.7010 C   0  0  0  0  0  0  0  0  0  0  0  0
  -27.1930  -28.8010   20.6770 C   0  0  0  0  0  3  0  0  0  0  0  0
  -26.1190  -26.9560   19.5370 C   0  0  0  0  0  3  0  0  0  0  0  0
  -24.8960  -27.6670   19.5350 C   0  0  0  0  0  3  0  0  0  0  0  0
  -23.5880  -29.8020   20.1710 C   0  0  0  0  0  2  0  0  0  0  0  0
  -24.6450  -31.0890   22.0960 N   0  0  0  0  0  0  0  0  0  0  0  0
  -23.5280  -32.1400   23.7620 O   0  0  0  0  0  0  0  0  0  0  0  0
  -22.7320  -29.4650   22.5040 C   0  0  0  0  0  0  0  0  0  0  0  0
  -21.4060  -29.2980   22.3790 N   0  0  0  0  0  0  0  0  0  0  0  0
  -23.4140  -28.8230   23.3060 O   0  0  0  0  0  0  0  0  0  0  0  0
  -20.9200  -29.8660   21.7000 H   0  0  0  0  0  0  0  0  0  0  0  0
  -18.0240  -28.1370   22.8500 C   0  0  0  0  0  0  0  0  0  0  0  0
  -20.5810  -28.3610   23.1390 C   0  0  0  0  0  3  0  0  0  0  0  0
  -20.6730  -26.9360   22.5450 C   0  0  0  0  0  2  0  0  0  0  0  0
  -19.5730  -26.6390   21.5220 C   0  0  0  0  0  2  0  0  0  0  0  0
  -18.1890  -26.7930   22.1620 C   0  0  0  0  0  2  0  0  0  0  0  0
  -19.1490  -28.8810   23.2960 C   0  0  0  0  0  0  0  0  0  0  0  0
  -18.9420  -30.1450   23.8940 C   0  0  0  0  0  3  0  0  0  0  0  0
  -17.6430  -30.6590   24.0570 C   0  0  0  0  0  3  0  0  0  0  0  0
  -16.5320  -29.9090   23.6350 C   0  0  0  0  0  3  0  0  0  0  0  0
  -16.7230  -28.6530   23.0330 C   0  0  0  0  0  3  0  0  0  0  0  0
  -25.8980  -32.4840   23.8410 C   0  0  0  0  0  3  0  0  0  0  0  0
  -25.5890  -33.8640   24.2370 N   0  0  0  0  0  0  0  0  0  0  0  0
  -25.9000  -34.9510   23.5160 C   0  0  0  0  0  0  0  0  0  0  0  0
  -26.5530  -34.8960   22.4700 O   0  0  0  0  0  0  0  0  0  0  0  0
  -25.0050  -33.9770   25.0530 H   0  0  0  0  0  0  0  0  0  0  0  0
  -24.1460  -36.7350   23.2650 C   0  0  0  0  0  1  0  0  0  0  0  0
  -25.4070  -36.3150   24.0350 C   0  0  0  0  0  3  0  0  0  0  0  0
  -27.5560  -37.1800   24.8440 C   0  0  0  0  0  1  0  0  0  0  0  0
  -26.4270  -37.3820   23.9400 N   0  0  0  0  0  0  0  0  0  0  0  0
  -26.0190  -38.2930   24.1350 H   0  0  0  0  0  0  0  0  0  0  0  0
  -26.4490  -31.6580   25.0710 C   0  0  1  0  0  0  0  0  0  0  0  0
  -25.3840  -31.3640   26.1530 C   0  0  0  0  0  1  0  0  0  0  0  0
  -27.0240  -30.3020   24.6000 C   0  0  0  0  0  1  0  0  0  0  0  0
  -27.6120  -32.4220   25.7440 C   0  0  0  0  0  1  0  0  0  0  0  0
  -29.5540  -22.5500   25.1560 C   0  0  0  0  0  2  0  0  0  0  0  0
  -30.3480  -21.3520   25.6990 C   0  0  0  0  0  2  0  0  0  0  0  0
  -30.8310  -20.4340   24.5780 C   0  0  0  0  0  2  0  0  0  0  0  0
  -29.6950  -19.8400   23.9720 O   0  0  0  0  0  0  0  0  0  0  0  0
  -29.1510  -16.3350   23.0750 C   0  0  0  0  0  3  0  0  0  0  0  0
  -31.3140  -17.0260   22.1670 C   0  0  0  0  0  3  0  0  0  0  0  0
  -28.9350  -17.6350   23.5580 C   0  0  0  0  0  3  0  0  0  0  0  0
  -31.1010  -18.3230   22.6690 C   0  0  0  0  0  3  0  0  0  0  0  0
  -30.3420  -16.0280   22.3870 C   0  0  0  0  0  0  0  0  0  0  0  0
  -29.9210  -18.6230   23.3900 C   0  0  0  0  0  0  0  0  0  0  0  0
  -30.7830  -14.2680   20.7560 C   0  0  0  0  0  0  0  0  0  0  0  0
  -30.4190  -12.2760   19.3450 C   0  0  0  0  0  2  0  0  0  0  0  0
  -29.4710  -12.5490   18.1650 C   0  0  0  0  0  2  0  0  0  0  0  0
  -27.9990  -12.3920   18.5900 C   0  0  0  0  0  2  0  0  0  0  0  0
  -27.6700  -13.1920   19.8750 C   0  0  0  0  0  3  0  0  0  0  0  0
  -28.7050  -12.8820   20.9740 C   0  0  0  0  0  2  0  0  0  0  0  0
  -30.0610  -13.1650   20.4540 N   0  0  0  0  0  0  0  0  0  0  0  0
  -31.7100  -14.7090   20.0650 O   0  0  0  0  0  0  0  0  0  0  0  0
  -30.5300  -14.6920   21.9960 N   0  0  0  0  0  0  0  0  0  0  0  0
  -29.9420  -14.0340   22.4850 H   0  0  0  0  0  0  0  0  0  0  0  0
  -25.2640  -13.8140   20.5660 C   0  0  0  0  0  0  0  0  0  0  0  0
  -24.1860  -13.0430   20.9150 C   0  0  0  0  0  0  0  0  0  0  0  0
  -24.6390  -11.6900   20.8700 C   0  0  0  0  0  0  0  0  0  0  0  0
  -26.3060  -12.9280   20.3330 N   0  0  0  0  0  0  0  0  0  0  0  0
  -25.9310  -11.6450   20.5700 N   0  0  0  0  0  0  0  0  0  0  0  0
  -23.9050  -10.4290   21.0390 C   0  0  0  0  0  0  0  0  0  0  0  0
  -24.3610   -9.4210   21.9170 C   0  0  0  0  0  3  0  0  0  0  0  0
  -23.6280   -8.2250   22.0760 C   0  0  0  0  0  3  0  0  0  0  0  0
  -22.4260   -8.0280   21.3550 C   0  0  0  0  0  0  0  0  0  0  0  0
  -21.9890   -9.0260   20.4650 C   0  0  0  0  0  3  0  0  0  0  0  0
  -22.7220  -10.2130   20.3050 C   0  0  0  0  0  3  0  0  0  0  0  0
  -21.6640   -6.8880   21.4240 O   0  0  0  0  0  0  0  0  0  0  0  0
  -21.6850   -6.0730   22.5280 C   0  0  0  0  0  0  0  0  0  0  0  0
  -21.4020   -6.5640   23.8210 C   0  0  0  0  0  3  0  0  0  0  0  0
  -21.3660   -5.6790   24.9180 C   0  0  0  0  0  3  0  0  0  0  0  0
  -21.6040   -4.3050   24.7230 C   0  0  0  0  0  0  0  0  0  0  0  0
  -21.8820   -3.8140   23.4350 C   0  0  0  0  0  3  0  0  0  0  0  0
  -21.9200   -4.6960   22.3400 C   0  0  0  0  0  0  0  0  0  0  0  0
  -22.1660   -4.2150   21.0980 F   0  0  0  0  0  0  0  0  0  0  0  0
  -21.5630   -3.4540   25.7740 F   0  0  0  0  0  0  0  0  0  0  0  0
  -22.7890  -13.5250   21.1820 C   0  0  0  0  0  0  0  0  0  0  0  0
  -22.0530  -12.8260   22.0390 N   0  0  0  0  0  0  0  0  0  0  0  0
  -22.3590  -14.5570   20.6690 O   0  0  0  0  0  0  0  0  0  0  0  0
  -22.4130  -11.9910   22.4770 H   0  0  0  0  0  0  0  0  0  0  0  0
  -21.1160  -13.1310   22.2610 H   0  0  0  0  0  0  0  0  0  0  0  0
  -25.4400  -15.1850   20.4080 N   0  0  0  0  0  0  0  0  0  0  0  0
  -24.6800  -15.8470   20.5220 H   0  0  0  0  0  0  0  0  0  0  0  0
  -26.3050  -15.6220   20.1150 H   0  0  0  0  0  0  0  0  0  0  0  0
  1  5  1  0
  1  3  1  0
  2  4  1  0
  3  6  1  0
  5 59  1  0
  5  2  1  0
  6  8  1  0
  6  4  1  0
  6  7  1  6
  9  8  1  0
 10 12  1  0
 10  9  1  0
 11  9  2  0
 13 10  1  0
 14 13  1  0
 15 14  1  0
 16 15  1  0
 17 16  1  0
 18 20  1  0
 18 17  1  0
 19 30  2  0
 20 25  1  0
 21 29  1  0
 21 31  1  0
 22 28  1  0
 22 24  1  0
 23 29  1  0
 24 23  1  0
 25 24  2  0
 26 20  2  0
 27 26  1  0
 27 22  2  0
 28 21  1  0
 29 19  1  0
 31 33  2  0
 32 31  1  0
 34 32  1  0
 35 44  2  0
 35 40  1  0
 36 32  1  0
 36 40  1  0
 37 36  1  0
 38 39  1  0
 38 37  1  0
 39 35  1  0
 40 41  2  0
 41 42  1  0
 43 42  2  0
 44 43  1  0
 45 19  1  0
 45 46  1  0
 45 55  1  0
 46 49  1  0
 47 51  1  0
 47 46  1  0
 48 47  2  0
 51 50  1  0
 53 51  1  0
 53 54  1  0
 53 52  1  0
 55 58  1  1
 55 56  1  0
 57 55  1  0
 59 60  1  0
 61 60  1  0
 62 61  1  0
 63 65  1  0
 64 67  1  0
 64 66  2  0
 66 68  1  0
 67 63  2  0
 68 65  2  0
 68 62  1  0
 69 77  1  0
 70 75  1  0
 71 72  1  0
 71 70  1  0
 73 72  1  0
 73 82  1  0
 73 74  1  0
 75 69  1  0
 75 74  1  0
 76 69  2  0
 77 67  1  0
 77 78  1  0
 79 80  2  0
 80 99  1  0
 81 80  1  0
 81 84  1  0
 82 79  1  0
 82 83  1  0
 83 81  2  0
 84 85  1  0
 85 86  2  0
 87 90  1  0
 87 86  1  0
 88 87  2  0
 89 88  1  0
 89 84  2  0
 90 91  1  0
 91 92  1  0
 92 93  2  0
 94 93  1  0
 94 98  1  0
 95 94  2  0
 96 91  2  0
 96 95  1  0
 97 96  1  0
 99100  1  0
100103  1  0
100102  1  0
101 99  2  0
104105  1  0
104 79  1  0
106104  1  0
M  ISO  4  17 101  18 101  69 100  77 100
M  END
>  <TORSDO>  (48) 
F 28

>  <SCORE>  (48) 
29.012

>  <name>  (48) 
49

>  <ligand_id>  (48) 
49

>  <original_smiles>  (48) 
[H]c1c([H])c([H])c2c(c1[H])C([H])([H])C([H])([H])C([H])([H])C2([H])N([H])C(=O)C1([H])N(C(=O)C([H])(N([H])C(=O)C([H])(N([H])C([H])([H])[H])C([H])([H])[H])C(C([H])([H])[H])(C([H])([H])[H])C([H])([H])[H])C([H])([H])c2c([H])c(OC([H])([H])C([H])([H])OC([H])([H])C([H])([H])N([H])C(=O)C([H])([H])[N+]3([H])C([H])([H])C([H])([H])C([H])(C([H])([H])C([H])([H])C([H])([H])Oc4c([H])c([H])c(N([H])C(=O)N5C([H])([H])C([H])([H])C([H])([H])C([H])(n6nc(-c7c([H])c([H])c(Oc8c([H])c([H])c(F)c([H])c8F)c([H])c7[H])c(C(=O)N([H])[H])c6N([H])[H])C5([H])[H])c([H])c4[H])C([H])([H])C3([H])[H])c([H])c([H])c2C1([H])[H]

>  <smiles>  (48) 
[H]c1c([H])c([H])c2c(c1[H])C([H])([H])C([H])([H])C([H])([H])C2([H])N([H])C(=O)C1([H])N(C(=O)C([H])(N([H])C(=O)C([H])(N([H])C([H])([H])[H])C([H])([H])[H])C(C([H])([H])[H])(C([H])([H])[H])C([H])([H])[H])C([H])([H])c2c([H])c(OC([H])([H])C([H])([H])OC([H])([H])C([H])([H])N([H])C(=O)C([H])([H])[N+]3([H])C([H])([H])C([H])([H])C([H])(C([H])([H])C([H])([H])C([H])([H])Oc4c([H])c([H])c(N([H])C(=O)N5C([H])([H])C([H])([H])C([H])([H])C([H])(n6nc(-c7c([H])c([H])c(Oc8c([H])c([H])c(F)c([H])c8F)c([H])c7[H])c(C(=O)N([H])[H])c6N([H])[H])C5([H])[H])c([H])c4[H])C([H])([H])C3([H])[H])c([H])c([H])c2C1([H])[H]

$$$$
50:0:0
     RDKit          3D

100109  0  0  1  0  0  0  0  0999 V2000
  -30.5010  -25.5730   20.2310 C   0  0  0  0  0  2  0  0  0  0  0  0
  -29.4830  -24.2380   22.0940 C   0  0  0  0  0  2  0  0  0  0  0  0
  -31.8710  -24.9380   20.5440 C   0  0  0  0  0  2  0  0  0  0  0  0
  -30.8870  -23.6760   22.4220 C   0  0  0  0  0  2  0  0  0  0  0  0
  -29.2940  -24.6520   20.5980 C   0  0  2  0  0  0  0  0  0  0  0  0
  -31.9660  -24.5830   21.9770 N   0  0  0  0  0  4  0  0  0  0  0  0
  -31.9520  -25.4230   22.5350 H   0  0  0  0  0  0  0  0  0  0  0  0
  -32.8570  -24.1400   22.1530 H   0  0  0  0  0  0  0  0  0  0  0  0
  -29.2410  -23.3930   19.6760 C   0  0  0  0  0  0  0  0  0  0  0  0
  -28.6140  -22.2840   20.1260 N   0  0  0  0  0  0  0  0  0  0  0  0
  -29.7840  -23.4250   18.5670 O   0  0  0  0  0  0  0  0  0  0  0  0
  -27.9000  -22.4210   20.8280 H   0  0  0  0  0  0  0  0  0  0  0  0
  -28.4520  -18.5270   19.8750 C   0  0  0  0  0  3  0  0  0  0  0  0
  -30.6910  -19.2670   19.2810 C   0  0  0  0  0  3  0  0  0  0  0  0
  -28.0730  -19.8780   20.0740 C   0  0  0  0  0  3  0  0  0  0  0  0
  -30.3220  -20.6030   19.5050 C   0  0  0  0  0  3  0  0  0  0  0  0
  -29.7660  -18.2130   19.4510 C   0  0  0  0  0  0  0  0  0  0  0  0
  -28.9980  -20.9310   19.8700 C   0  0  0  0  0  0  0  0  0  0  0  0
  -30.2170  -16.8100   19.0440 C   0  0  0  0  0  2  0  0  0  0  0  0
  -30.6230  -14.5250   19.8310 C   0  0  0  0  0  0  0  0  0  0  0  0
  -30.2460  -12.3090   18.8650 C   0  0  0  0  0  2  0  0  0  0  0  0
  -29.2430  -12.4920   17.7070 C   0  0  0  0  0  2  0  0  0  0  0  0
  -27.8010  -12.3450   18.2300 C   0  0  0  0  0  2  0  0  0  0  0  0
  -27.5310  -13.2050   19.4960 C   0  0  0  0  0  3  0  0  0  0  0  0
  -28.6670  -13.1020   20.5390 C   0  0  0  0  0  2  0  0  0  0  0  0
  -29.9420  -13.3520   19.8570 N   0  0  0  0  0  0  0  0  0  0  0  0
  -31.7920  -14.5950   19.4440 O   0  0  0  0  0  0  0  0  0  0  0  0
  -29.8710  -15.6470   19.8840 N   0  0  0  0  0  0  0  0  0  0  0  0
  -28.9120  -15.5530   20.1810 H   0  0  0  0  0  0  0  0  0  0  0  0
  -25.1950  -13.7620   20.4070 C   0  0  0  0  0  0  0  0  0  0  0  0
  -24.1770  -12.9680   20.8620 C   0  0  0  0  0  0  0  0  0  0  0  0
  -24.6610  -11.6260   20.7920 C   0  0  0  0  0  0  0  0  0  0  0  0
  -26.2330  -12.9010   20.0880 N   0  0  0  0  0  0  0  0  0  0  0  0
  -25.9230  -11.6120   20.3820 N   0  0  0  0  0  0  0  0  0  0  0  0
  -23.9770  -10.3520   21.0390 C   0  0  0  0  0  0  0  0  0  0  0  0
  -24.4450   -9.4340   22.0030 C   0  0  0  0  0  3  0  0  0  0  0  0
  -23.7570   -8.2230   22.2360 C   0  0  0  0  0  3  0  0  0  0  0  0
  -22.5870   -7.9200   21.5000 C   0  0  0  0  0  0  0  0  0  0  0  0
  -22.1380   -8.8250   20.5220 C   0  0  0  0  0  3  0  0  0  0  0  0
  -22.8270  -10.0270   20.2900 C   0  0  0  0  0  3  0  0  0  0  0  0
  -21.8670   -6.7580   21.6370 O   0  0  0  0  0  0  0  0  0  0  0  0
  -21.7910   -6.0960   22.8360 C   0  0  0  0  0  0  0  0  0  0  0  0
  -21.2750   -6.7120   23.9980 C   0  0  0  0  0  3  0  0  0  0  0  0
  -21.1540   -5.9720   25.1910 C   0  0  0  0  0  3  0  0  0  0  0  0
  -21.5350   -4.6170   25.2220 C   0  0  0  0  0  0  0  0  0  0  0  0
  -22.0440   -4.0010   24.0660 C   0  0  0  0  0  3  0  0  0  0  0  0
  -22.1700   -4.7390   22.8750 C   0  0  0  0  0  0  0  0  0  0  0  0
  -22.6410   -4.1340   21.7570 F   0  0  0  0  0  0  0  0  0  0  0  0
  -21.4110   -3.9050   26.3670 F   0  0  0  0  0  0  0  0  0  0  0  0
  -22.7950  -13.4180   21.2410 C   0  0  0  0  0  0  0  0  0  0  0  0
  -22.1550  -12.7030   22.1600 N   0  0  0  0  0  0  0  0  0  0  0  0
  -22.2990  -14.4360   20.7620 O   0  0  0  0  0  0  0  0  0  0  0  0
  -22.5760  -11.8800   22.5640 H   0  0  0  0  0  0  0  0  0  0  0  0
  -21.2300  -12.9780   22.4590 H   0  0  0  0  0  0  0  0  0  0  0  0
  -25.3150  -15.1350   20.2200 N   0  0  0  0  0  0  0  0  0  0  0  0
  -24.5280  -15.7570   20.3700 H   0  0  0  0  0  0  0  0  0  0  0  0
  -26.1120  -15.5970   19.8030 H   0  0  0  0  0  0  0  0  0  0  0  0
  -27.9590  -25.4280   20.4600 C   0  0  0  0  0  0  0  0  0  0  0  0
  -26.9290  -24.9760   20.9730 O   0  0  0  0  0  0  0  0  0  0  0  0
  -28.0400  -26.6440   19.8060 O   0  0  0  0  0  0  0  0  0  0  0  0
  -24.3270  -31.7160   23.1420 C   0  0  0  0  0  0  0  0  0  0  0  0
  -26.9280  -27.4530   19.7950 C   0  0  0  0  0  0  0  0  0  0  0  0
  -23.1250  -30.4530   21.3900 C   0  0  0  0  0  3  0  0  0  0  0  0
  -24.5750  -29.0080   19.8650 C   0  0  0  0  0  0  0  0  0  0  0  0
  -25.6560  -30.7860   21.2500 C   0  0  0  0  0  2  0  0  0  0  0  0
  -25.7290  -29.4610   20.5180 C   0  0  0  0  0  0  0  0  0  0  0  0
  -26.9110  -28.6880   20.4840 C   0  0  0  0  0  3  0  0  0  0  0  0
  -25.7720  -27.0390   19.0970 C   0  0  0  0  0  3  0  0  0  0  0  0
  -24.5940  -27.8010   19.1460 C   0  0  0  0  0  3  0  0  0  0  0  0
  -23.3410  -29.8730   19.9670 C   0  0  0  0  0  2  0  0  0  0  0  0
  -24.3880  -30.9940   21.9890 N   0  0  0  0  0  0  0  0  0  0  0  0
  -23.2410  -31.9650   23.6850 O   0  0  0  0  0  0  0  0  0  0  0  0
  -22.4480  -29.3760   22.2680 C   0  0  0  0  0  0  0  0  0  0  0  0
  -21.1200  -29.2360   22.1200 N   0  0  0  0  0  0  0  0  0  0  0  0
  -23.1100  -28.6750   23.0370 O   0  0  0  0  0  0  0  0  0  0  0  0
  -20.6490  -29.8510   21.4750 H   0  0  0  0  0  0  0  0  0  0  0  0
  -17.7040  -28.1240   22.5360 C   0  0  0  0  0  0  0  0  0  0  0  0
  -20.2730  -28.2640   22.8140 C   0  0  0  0  0  3  0  0  0  0  0  0
  -20.3220  -26.8850   22.1150 C   0  0  0  0  0  2  0  0  0  0  0  0
  -19.2050  -26.6940   21.0850 C   0  0  0  0  0  2  0  0  0  0  0  0
  -17.8310  -26.8330   21.7470 C   0  0  0  0  0  2  0  0  0  0  0  0
  -18.8520  -28.8050   23.0210 C   0  0  0  0  0  0  0  0  0  0  0  0
  -18.6800  -30.0200   23.7170 C   0  0  0  0  0  3  0  0  0  0  0  0
  -17.3950  -30.5490   23.9380 C   0  0  0  0  0  3  0  0  0  0  0  0
  -16.2620  -29.8610   23.4720 C   0  0  0  0  0  3  0  0  0  0  0  0
  -16.4180  -28.6530   22.7710 C   0  0  0  0  0  3  0  0  0  0  0  0
  -25.6100  -32.2850   23.8240 C   0  0  0  0  0  3  0  0  0  0  0  0
  -26.0870  -31.4240   25.0560 C   0  0  1  0  0  0  0  0  0  0  0  0
  -24.9680  -31.1360   26.0850 C   0  0  0  0  0  1  0  0  0  0  0  0
  -26.6550  -30.0660   24.5810 C   0  0  0  0  0  1  0  0  0  0  0  0
  -27.2390  -32.1510   25.7860 C   0  0  0  0  0  1  0  0  0  0  0  0
  -25.3220  -33.6650   24.2340 N   0  0  0  0  0  0  0  0  0  0  0  0
  -25.6890  -34.7550   23.5460 C   0  0  0  0  0  0  0  0  0  0  0  0
  -26.3770  -34.7000   22.5220 O   0  0  0  0  0  0  0  0  0  0  0  0
  -24.7090  -33.7800   25.0280 H   0  0  0  0  0  0  0  0  0  0  0  0
  -23.9920  -36.5920   23.2810 C   0  0  0  0  0  1  0  0  0  0  0  0
  -25.2200  -36.1220   24.0770 C   0  0  0  0  0  3  0  0  0  0  0  0
  -27.3580  -36.9250   24.9770 C   0  0  0  0  0  1  0  0  0  0  0  0
  -26.2700  -37.1630   24.0320 N   0  0  0  0  0  0  0  0  0  0  0  0
  -25.8790  -38.0820   24.2240 H   0  0  0  0  0  0  0  0  0  0  0  0
  1  3  1  0
  1  5  1  0
  2  4  1  0
  3  6  1  0
  5  2  1  0
  6  8  1  0
  6  4  1  0
  6  7  1  0
  9 10  1  0
  5  9  1  6
 10 12  1  0
 11  9  2  0
 13 15  1  0
 14 17  1  0
 14 16  2  0
 16 18  1  0
 17 13  2  0
 18 15  2  0
 18 10  1  0
 19 17  1  0
 19 28  1  0
 20 26  1  0
 20 28  1  0
 21 26  1  0
 22 23  1  0
 22 21  1  0
 24 23  1  0
 24 33  1  0
 24 25  1  0
 26 25  1  0
 27 20  2  0
 28 29  1  0
 30 31  2  0
 31 50  1  0
 32 31  1  0
 32 35  1  0
 33 34  1  0
 33 30  1  0
 34 32  2  0
 35 36  1  0
 36 37  2  0
 38 41  1  0
 38 37  1  0
 39 38  2  0
 40 39  1  0
 40 35  2  0
 41 42  1  0
 42 47  2  0
 42 43  1  0
 43 44  2  0
 44 45  1  0
 45 49  1  0
 46 45  2  0
 47 46  1  0
 48 47  1  0
 50 51  1  0
 51 54  1  0
 51 53  1  0
 52 50  2  0
 55 56  1  0
 55 30  1  0
 57 55  1  0
 58  5  1  0
 58 59  2  0
 60 58  1  0
 61 72  2  0
 62 60  1  0
 62 67  1  0
 63 71  1  0
 63 73  1  0
 64 70  1  0
 64 66  1  0
 65 71  1  0
 66 65  1  0
 67 66  2  0
 68 69  1  0
 68 62  2  0
 69 64  2  0
 70 63  1  0
 71 61  1  0
 73 75  2  0
 74 73  1  0
 76 74  1  0
 77 86  2  0
 77 82  1  0
 78 74  1  0
 78 82  1  0
 79 78  1  0
 80 81  1  0
 80 79  1  0
 81 77  1  0
 82 83  2  0
 83 84  1  0
 85 84  2  0
 86 85  1  0
 87 61  1  0
 87 92  1  0
 87 88  1  0
 88 91  1  1
 88 89  1  0
 90 88  1  0
 92 95  1  0
 93 97  1  0
 93 92  1  0
 94 93  2  0
 97 96  1  0
 99 97  1  0
 99100  1  0
 99 98  1  0
M  ISO  4  20 100  28 100  58 101  60 101
M  END
>  <TORSDO>  (49) 
F 20

>  <SCORE>  (49) 
-11.261

>  <name>  (49) 
50

>  <ligand_id>  (49) 
50

>  <original_smiles>  (49) 
[H]c1c([H])c([H])c2c(c1[H])C([H])([H])C([H])([H])C([H])([H])C2([H])N([H])C(=O)C1([H])N(C(=O)C([H])(N([H])C(=O)C([H])(N([H])C([H])([H])[H])C([H])([H])[H])C(C([H])([H])[H])(C([H])([H])[H])C([H])([H])[H])C([H])([H])c2c([H])c(OC(=O)C3(C(=O)N([H])c4c([H])c([H])c(C([H])([H])N([H])C(=O)N5C([H])([H])C([H])([H])C([H])([H])C([H])(n6nc(-c7c([H])c([H])c(Oc8c([H])c([H])c(F)c([H])c8F)c([H])c7[H])c(C(=O)N([H])[H])c6N([H])[H])C5([H])[H])c([H])c4[H])C([H])([H])C([H])([H])[N+]([H])([H])C([H])([H])C3([H])[H])c([H])c([H])c2C1([H])[H]

>  <smiles>  (49) 
[H]c1c([H])c([H])c2c(c1[H])C([H])([H])C([H])([H])C([H])([H])C2([H])N([H])C(=O)C1([H])N(C(=O)C([H])(N([H])C(=O)C([H])(N([H])C([H])([H])[H])C([H])([H])[H])C(C([H])([H])[H])(C([H])([H])[H])C([H])([H])[H])C([H])([H])c2c([H])c(OC(=O)C3(C(=O)N([H])c4c([H])c([H])c(C([H])([H])N([H])C(=O)N5C([H])([H])C([H])([H])C([H])([H])C([H])(n6nc(-c7c([H])c([H])c(Oc8c([H])c([H])c(F)c([H])c8F)c([H])c7[H])c(C(=O)N([H])[H])c6N([H])[H])C5([H])[H])c([H])c4[H])C([H])([H])C([H])([H])[N+]([H])([H])C([H])([H])C3([H])[H])c([H])c([H])c2C1([H])[H]

$$$$
51:0:0
     RDKit          3D

103111  0  0  1  0  0  0  0  0999 V2000
  -26.8260  -21.5880   19.8440 C   0  0  0  0  0  3  0  0  0  0  0  0
  -24.8100  -21.9480   18.5260 C   0  0  0  0  0  3  0  0  0  0  0  0
  -25.5020  -23.6060   20.1730 C   0  0  0  0  0  3  0  0  0  0  0  0
  -25.9180  -21.1390   18.8660 C   0  0  0  0  0  0  0  0  0  0  0  0
  -26.6170  -22.8110   20.4970 C   0  0  0  0  0  0  0  0  0  0  0  0
  -24.5880  -23.1860   19.1730 C   0  0  0  0  0  0  0  0  0  0  0  0
  -26.1770  -19.8450   18.1510 C   0  0  0  0  0  0  0  0  0  0  0  0
  -27.0980  -19.0130   18.6590 N   0  0  0  0  0  0  0  0  0  0  0  0
  -25.5820  -19.5850   17.1060 O   0  0  0  0  0  0  0  0  0  0  0  0
  -27.3480  -18.2350   18.0660 H   0  0  0  0  0  0  0  0  0  0  0  0
  -27.5800  -18.9710   20.0430 C   0  0  0  0  0  2  0  0  0  0  0  0
  -28.9780  -18.3570   20.1290 C   0  0  0  0  0  2  0  0  0  0  0  0
  -29.5170  -18.3400   21.5740 C   0  0  0  0  0  2  0  0  0  0  0  0
  -30.8040  -17.5100   21.7500 C   0  0  0  0  0  2  0  0  0  0  0  0
  -30.9430  -15.3800   20.4490 C   0  0  0  0  0  0  0  0  0  0  0  0
  -30.7430  -13.1910   19.3320 C   0  0  0  0  0  2  0  0  0  0  0  0
  -29.8160  -13.2250   18.1070 C   0  0  0  0  0  2  0  0  0  0  0  0
  -28.3430  -13.0360   18.5110 C   0  0  0  0  0  2  0  0  0  0  0  0
  -27.9220  -13.9580   19.6830 C   0  0  0  0  0  3  0  0  0  0  0  0
  -28.9490  -13.8800   20.8340 C   0  0  0  0  0  2  0  0  0  0  0  0
  -30.2930  -14.1980   20.3010 N   0  0  0  0  0  0  0  0  0  0  0  0
  -31.8880  -15.7440   19.7400 O   0  0  0  0  0  0  0  0  0  0  0  0
  -30.5160  -16.1070   21.4860 N   0  0  0  0  0  0  0  0  0  0  0  0
  -29.8280  -15.6620   22.0770 H   0  0  0  0  0  0  0  0  0  0  0  0
  -25.5090  -14.4900   20.4160 C   0  0  0  0  0  0  0  0  0  0  0  0
  -24.4520  -13.6830   20.7420 C   0  0  0  0  0  0  0  0  0  0  0  0
  -24.9350  -12.3430   20.6430 C   0  0  0  0  0  0  0  0  0  0  0  0
  -26.5690  -13.6410   20.1420 N   0  0  0  0  0  0  0  0  0  0  0  0
  -26.2250  -12.3410   20.3310 N   0  0  0  0  0  0  0  0  0  0  0  0
  -24.2310  -11.0590   20.7630 C   0  0  0  0  0  0  0  0  0  0  0  0
  -24.6490  -10.0660   21.6770 C   0  0  0  0  0  3  0  0  0  0  0  0
  -23.9450   -8.8470   21.7770 C   0  0  0  0  0  3  0  0  0  0  0  0
  -22.8030   -8.6150   20.9760 C   0  0  0  0  0  0  0  0  0  0  0  0
  -22.4060   -9.5980   20.0520 C   0  0  0  0  0  3  0  0  0  0  0  0
  -23.1140  -10.8070   19.9430 C   0  0  0  0  0  3  0  0  0  0  0  0
  -22.0690   -7.4550   21.0010 O   0  0  0  0  0  0  0  0  0  0  0  0
  -21.9410   -6.7070   22.1440 C   0  0  0  0  0  0  0  0  0  0  0  0
  -21.4030   -7.2500   23.3310 C   0  0  0  0  0  3  0  0  0  0  0  0
  -21.2210   -6.4270   24.4600 C   0  0  0  0  0  3  0  0  0  0  0  0
  -21.5630   -5.0640   24.4010 C   0  0  0  0  0  0  0  0  0  0  0  0
  -22.0920   -4.5210   23.2180 C   0  0  0  0  0  3  0  0  0  0  0  0
  -22.2790   -5.3390   22.0910 C   0  0  0  0  0  0  0  0  0  0  0  0
  -22.7690   -4.8070   20.9470 F   0  0  0  0  0  0  0  0  0  0  0  0
  -21.3820   -4.2710   25.4830 F   0  0  0  0  0  0  0  0  0  0  0  0
  -23.0470  -14.1220   21.0390 C   0  0  0  0  0  0  0  0  0  0  0  0
  -22.3320  -13.3780   21.8770 N   0  0  0  0  0  0  0  0  0  0  0  0
  -22.5850  -15.1610   20.5640 O   0  0  0  0  0  0  0  0  0  0  0  0
  -22.7210  -12.5440   22.2930 H   0  0  0  0  0  0  0  0  0  0  0  0
  -21.3880  -13.6500   22.1170 H   0  0  0  0  0  0  0  0  0  0  0  0
  -25.6540  -15.8690   20.3140 N   0  0  0  0  0  0  0  0  0  0  0  0
  -24.8940  -16.5140   20.4970 H   0  0  0  0  0  0  0  0  0  0  0  0
  -26.5070  -16.3250   20.0190 H   0  0  0  0  0  0  0  0  0  0  0  0
  -23.4890  -23.9230   18.7860 O   0  0  0  0  0  0  0  0  0  0  0  0
  -23.4320  -25.2990   19.1660 C   0  0  0  0  0  2  0  0  0  0  0  0
  -22.4370  -26.0200   18.2490 C   0  0  0  0  0  2  0  0  0  0  0  0
  -23.0440  -26.1500   16.9710 O   0  0  0  0  0  0  0  0  0  0  0  0
  -22.8590  -26.5450   14.6370 C   0  0  0  0  0  1  0  0  0  0  0  0
  -22.2030  -26.7540   16.0010 C   0  0  0  0  0  2  0  0  0  0  0  0
  -27.5270  -23.2350   21.4220 O   0  0  0  0  0  0  0  0  0  0  0  0
  -28.1030  -24.4920   21.0930 C   0  0  0  0  0  2  0  0  0  0  0  0
  -29.6110  -24.4330   21.3560 C   0  0  0  0  0  2  0  0  0  0  0  0
  -30.3760  -25.6910   20.9110 C   0  0  0  0  0  2  0  0  0  0  0  0
  -29.9130  -26.8550   21.5990 O   0  0  0  0  0  0  0  0  0  0  0  0
  -25.0760  -31.6750   23.5670 C   0  0  0  0  0  0  0  0  0  0  0  0
  -28.6600  -27.3770   21.3450 C   0  0  0  0  0  0  0  0  0  0  0  0
  -24.3280  -30.0490   21.8610 C   0  0  0  0  0  3  0  0  0  0  0  0
  -26.1520  -28.5930   20.8470 C   0  0  0  0  0  0  0  0  0  0  0  0
  -26.8010  -30.6670   22.0800 C   0  0  0  0  0  2  0  0  0  0  0  0
  -27.1300  -29.2780   21.5770 C   0  0  0  0  0  0  0  0  0  0  0  0
  -28.3810  -28.6740   21.8280 C   0  0  0  0  0  3  0  0  0  0  0  0
  -27.6490  -26.6900   20.6270 C   0  0  0  0  0  3  0  0  0  0  0  0
  -26.4040  -27.2930   20.3790 C   0  0  0  0  0  3  0  0  0  0  0  0
  -24.8470  -29.3130   20.6000 C   0  0  0  0  0  2  0  0  0  0  0  0
  -25.4070  -30.8190   22.5600 N   0  0  0  0  0  0  0  0  0  0  0  0
  -23.8930  -31.8610   23.8850 O   0  0  0  0  0  0  0  0  0  0  0  0
  -23.6140  -29.0240   22.7710 C   0  0  0  0  0  0  0  0  0  0  0  0
  -22.3360  -28.7500   22.4710 N   0  0  0  0  0  0  0  0  0  0  0  0
  -24.2140  -28.4780   23.7000 O   0  0  0  0  0  0  0  0  0  0  0  0
  -21.9140  -29.2430   21.6960 H   0  0  0  0  0  0  0  0  0  0  0  0
  -18.9640  -27.4590   22.6490 C   0  0  0  0  0  0  0  0  0  0  0  0
  -21.4760  -27.7900   23.1630 C   0  0  0  0  0  3  0  0  0  0  0  0
  -21.6750  -26.3620   22.6040 C   0  0  0  0  0  2  0  0  0  0  0  0
  -20.6820  -26.0050   21.4930 C   0  0  0  0  0  2  0  0  0  0  0  0
  -19.2430  -26.1120   22.0060 C   0  0  0  0  0  2  0  0  0  0  0  0
  -20.0150  -28.2540   23.1810 C   0  0  0  0  0  0  0  0  0  0  0  0
  -19.7060  -29.5130   23.7380 C   0  0  0  0  0  3  0  0  0  0  0  0
  -18.3770  -29.9780   23.7740 C   0  0  0  0  0  3  0  0  0  0  0  0
  -17.3390  -29.1800   23.2610 C   0  0  0  0  0  3  0  0  0  0  0  0
  -17.6340  -27.9240   22.7040 C   0  0  0  0  0  3  0  0  0  0  0  0
  -26.1620  -32.4760   24.3520 C   0  0  0  0  0  3  0  0  0  0  0  0
  -25.6940  -33.8630   24.4540 N   0  0  0  0  0  0  0  0  0  0  0  0
  -26.0880  -34.8610   23.6500 C   0  0  0  0  0  0  0  0  0  0  0  0
  -26.9500  -34.7170   22.7790 O   0  0  0  0  0  0  0  0  0  0  0  0
  -24.9470  -34.0430   25.1090 H   0  0  0  0  0  0  0  0  0  0  0  0
  -24.3350  -36.4360   22.7740 C   0  0  0  0  0  1  0  0  0  0  0  0
  -25.4200  -36.2360   23.8430 C   0  0  0  0  0  3  0  0  0  0  0  0
  -27.2840  -37.3950   24.9440 C   0  0  0  0  0  1  0  0  0  0  0  0
  -26.3740  -37.3650   23.8010 N   0  0  0  0  0  0  0  0  0  0  0  0
  -25.8820  -38.2530   23.7640 H   0  0  0  0  0  0  0  0  0  0  0  0
  -26.4640  -31.8800   25.7820 C   0  0  1  0  0  0  0  0  0  0  0  0
  -25.1960  -31.6300   26.6320 C   0  0  0  0  0  1  0  0  0  0  0  0
  -27.2270  -30.5400   25.6650 C   0  0  0  0  0  1  0  0  0  0  0  0
  -27.3830  -32.8460   26.5660 C   0  0  0  0  0  1  0  0  0  0  0  0
  1  5  1  0
  2  4  1  0
  2  6  2  0
  3  5  2  0
  4  1  2  0
  5 59  1  0
  6  3  1  0
  7  8  1  0
  7  4  1  0
  8 11  1  0
  9  7  2  0
 10  8  1  0
 11 12  1  0
 12 13  1  0
 13 14  1  0
 15 23  1  0
 16 21  1  0
 17 18  1  0
 17 16  1  0
 19 18  1  0
 19 28  1  0
 19 20  1  0
 21 15  1  0
 21 20  1  0
 22 15  2  0
 23 14  1  0
 23 24  1  0
 25 26  2  0
 26 45  1  0
 27 26  1  0
 27 30  1  0
 28 29  1  0
 28 25  1  0
 29 27  2  0
 30 31  1  0
 31 32  2  0
 33 36  1  0
 33 32  1  0
 34 33  2  0
 35 34  1  0
 35 30  2  0
 36 37  1  0
 37 38  1  0
 38 39  2  0
 40 39  1  0
 40 44  1  0
 41 40  2  0
 42 37  2  0
 42 41  1  0
 43 42  1  0
 45 46  1  0
 46 49  1  0
 46 48  1  0
 47 45  2  0
 50 25  1  0
 50 51  1  0
 52 50  1  0
 53 54  1  0
 53  6  1  0
 55 54  1  0
 56 55  1  0
 57 58  1  0
 58 56  1  0
 60 61  1  0
 60 59  1  0
 62 61  1  0
 62 63  1  0
 64 75  2  0
 65 63  1  0
 65 70  1  0
 66 74  1  0
 66 76  1  0
 67 69  1  0
 68 74  1  0
 69 70  2  0
 69 68  1  0
 71 65  2  0
 72 71  1  0
 72 67  2  0
 73 67  1  0
 73 66  1  0
 74 64  1  0
 76 78  2  0
 77 76  1  0
 79 77  1  0
 80 89  2  0
 80 85  1  0
 81 77  1  0
 81 85  1  0
 82 81  1  0
 83 84  1  0
 83 82  1  0
 84 80  1  0
 85 86  2  0
 86 87  1  0
 88 87  2  0
 89 88  1  0
 90 64  1  0
 90 91  1  0
 90100  1  0
 91 94  1  0
 92 96  1  0
 92 91  1  0
 93 92  2  0
 96 95  1  0
 98 96  1  0
 98 97  1  0
 99 98  1  0
100103  1  1
100101  1  0
102100  1  0
M  ISO  4  15 100  23 100  62 101  63 101
M  END
>  <TORSDO>  (50) 
F 30

>  <SCORE>  (50) 
-8.705

>  <name>  (50) 
51

>  <ligand_id>  (50) 
51

>  <original_smiles>  (50) 
[H]c1c([H])c([H])c2c(c1[H])C([H])([H])C([H])([H])C([H])([H])C2([H])N([H])C(=O)C1([H])N(C(=O)C([H])(N([H])C(=O)C([H])(N([H])C([H])([H])[H])C([H])([H])[H])C(C([H])([H])[H])(C([H])([H])[H])C([H])([H])[H])C([H])([H])c2c([H])c(OC([H])([H])C([H])([H])C([H])([H])Oc3c([H])c(OC([H])([H])C([H])([H])OC([H])([H])C([H])([H])[H])c([H])c(C(=O)N([H])C([H])([H])C([H])([H])C([H])([H])C([H])([H])N([H])C(=O)N4C([H])([H])C([H])([H])C([H])([H])C([H])(n5nc(-c6c([H])c([H])c(Oc7c([H])c([H])c(F)c([H])c7F)c([H])c6[H])c(C(=O)N([H])[H])c5N([H])[H])C4([H])[H])c3[H])c([H])c([H])c2C1([H])[H]

>  <smiles>  (50) 
[H]c1c([H])c([H])c2c(c1[H])C([H])([H])C([H])([H])C([H])([H])C2([H])N([H])C(=O)C1([H])N(C(=O)C([H])(N([H])C(=O)C([H])(N([H])C([H])([H])[H])C([H])([H])[H])C(C([H])([H])[H])(C([H])([H])[H])C([H])([H])[H])C([H])([H])c2c([H])c(OC([H])([H])C([H])([H])C([H])([H])Oc3c([H])c(OC([H])([H])C([H])([H])OC([H])([H])C([H])([H])[H])c([H])c(C(=O)N([H])C([H])([H])C([H])([H])C([H])([H])C([H])([H])N([H])C(=O)N4C([H])([H])C([H])([H])C([H])([H])C([H])(n5nc(-c6c([H])c([H])c(Oc7c([H])c([H])c(F)c([H])c7F)c([H])c6[H])c(C(=O)N([H])[H])c5N([H])[H])C4([H])[H])c3[H])c([H])c([H])c2C1([H])[H]

$$$$
52:0:0
     RDKit          3D

 90 97  0  0  1  0  0  0  0  0999 V2000
  -27.8060  -22.7890   22.0570 C   0  0  0  0  0  2  0  0  0  0  0  0
  -28.1210  -23.6690   20.9800 O   0  0  0  0  0  0  0  0  0  0  0  0
  -28.3570  -25.0040   21.4180 C   0  0  0  0  0  2  0  0  0  0  0  0
  -29.0330  -25.8100   20.2920 C   0  0  0  0  0  2  0  0  0  0  0  0
  -28.9770  -27.2200   20.5330 O   0  0  0  0  0  0  0  0  0  0  0  0
  -24.8130  -32.1180   23.5430 C   0  0  0  0  0  0  0  0  0  0  0  0
  -27.7520  -27.8490   20.4980 C   0  0  0  0  0  0  0  0  0  0  0  0
  -23.7220  -30.6820   21.8480 C   0  0  0  0  0  3  0  0  0  0  0  0
  -25.2850  -29.2330   20.4560 C   0  0  0  0  0  0  0  0  0  0  0  0
  -26.2290  -31.1650   21.7290 C   0  0  0  0  0  2  0  0  0  0  0  0
  -26.3990  -29.8060   21.0820 C   0  0  0  0  0  0  0  0  0  0  0  0
  -27.6340  -29.1210   21.0980 C   0  0  0  0  0  3  0  0  0  0  0  0
  -26.6140  -27.2830   19.8740 C   0  0  0  0  0  3  0  0  0  0  0  0
  -25.3870  -27.9680   19.8540 C   0  0  0  0  0  3  0  0  0  0  0  0
  -24.0040  -30.0320   20.4680 C   0  0  0  0  0  2  0  0  0  0  0  0
  -24.9370  -31.3350   22.4330 N   0  0  0  0  0  0  0  0  0  0  0  0
  -23.7050  -32.3340   24.0530 O   0  0  0  0  0  0  0  0  0  0  0  0
  -23.0900  -29.6210   22.7760 C   0  0  0  0  0  0  0  0  0  0  0  0
  -21.7860  -29.3620   22.5830 N   0  0  0  0  0  0  0  0  0  0  0  0
  -23.7700  -29.0330   23.6190 O   0  0  0  0  0  0  0  0  0  0  0  0
  -21.2950  -29.8870   21.8700 H   0  0  0  0  0  0  0  0  0  0  0  0
  -18.4720  -27.9650   22.9140 C   0  0  0  0  0  0  0  0  0  0  0  0
  -20.9920  -28.3730   23.3120 C   0  0  0  0  0  3  0  0  0  0  0  0
  -21.2090  -26.9500   22.7440 C   0  0  0  0  0  2  0  0  0  0  0  0
  -20.1790  -26.5620   21.6760 C   0  0  0  0  0  2  0  0  0  0  0  0
  -18.7620  -26.6280   22.2540 C   0  0  0  0  0  2  0  0  0  0  0  0
  -19.5210  -28.7900   23.3990 C   0  0  0  0  0  0  0  0  0  0  0  0
  -19.2030  -30.0400   23.9710 C   0  0  0  0  0  3  0  0  0  0  0  0
  -17.8650  -30.4650   24.0730 C   0  0  0  0  0  3  0  0  0  0  0  0
  -16.8290  -29.6370   23.6090 C   0  0  0  0  0  3  0  0  0  0  0  0
  -17.1330  -28.3910   23.0320 C   0  0  0  0  0  3  0  0  0  0  0  0
  -26.0510  -32.7960   24.2080 C   0  0  0  0  0  3  0  0  0  0  0  0
  -26.4950  -32.0970   25.5500 C   0  0  1  0  0  0  0  0  0  0  0  0
  -25.3360  -31.8630   26.5460 C   0  0  0  0  0  1  0  0  0  0  0  0
  -27.1490  -30.7280   25.2540 C   0  0  0  0  0  1  0  0  0  0  0  0
  -27.5660  -32.9570   26.2590 C   0  0  0  0  0  1  0  0  0  0  0  0
  -25.7090  -34.2050   24.4420 N   0  0  0  0  0  0  0  0  0  0  0  0
  -26.0740  -35.2180   23.6420 C   0  0  0  0  0  0  0  0  0  0  0  0
  -26.8020  -35.0650   22.6570 O   0  0  0  0  0  0  0  0  0  0  0  0
  -25.0670  -34.3930   25.1980 H   0  0  0  0  0  0  0  0  0  0  0  0
  -24.3440  -36.9560   23.0900 C   0  0  0  0  0  1  0  0  0  0  0  0
  -25.5440  -36.6220   23.9910 C   0  0  0  0  0  3  0  0  0  0  0  0
  -27.6240  -37.5810   24.8740 C   0  0  0  0  0  1  0  0  0  0  0  0
  -26.5690  -37.6810   23.8690 N   0  0  0  0  0  0  0  0  0  0  0  0
  -26.1450  -38.6010   23.9460 H   0  0  0  0  0  0  0  0  0  0  0  0
  -27.4930  -21.3830   21.5210 C   0  0  0  0  0  2  0  0  0  0  0  0
  -28.6650  -20.7680   20.9950 O   0  0  0  0  0  0  0  0  0  0  0  0
  -28.3670  -19.5800   20.2660 C   0  0  0  0  0  2  0  0  0  0  0  0
  -29.6620  -18.8370   19.8940 C   0  0  0  0  0  2  0  0  0  0  0  0
  -30.0630  -17.9670   20.9490 O   0  0  0  0  0  0  0  0  0  0  0  0
  -31.4690  -17.8850   21.1710 C   0  0  0  0  0  2  0  0  0  0  0  0
  -32.1640  -16.8510   20.2700 C   0  0  0  0  0  2  0  0  0  0  0  0
  -31.9300  -14.4640   19.7030 C   0  0  0  0  0  0  0  0  0  0  0  0
  -31.3700  -12.1870   18.9420 C   0  0  0  0  0  2  0  0  0  0  0  0
  -30.3890  -12.2580   17.7560 C   0  0  0  0  0  2  0  0  0  0  0  0
  -28.9350  -12.3150   18.2570 C   0  0  0  0  0  2  0  0  0  0  0  0
  -28.7260  -13.3820   19.3650 C   0  0  0  0  0  3  0  0  0  0  0  0
  -29.8210  -13.2870   20.4530 C   0  0  0  0  0  2  0  0  0  0  0  0
  -31.1380  -13.3620   19.7950 N   0  0  0  0  0  0  0  0  0  0  0  0
  -32.9520  -14.5110   19.0150 O   0  0  0  0  0  0  0  0  0  0  0  0
  -31.5220  -15.5410   20.3790 N   0  0  0  0  0  0  0  0  0  0  0  0
  -30.6870  -15.4770   20.9440 H   0  0  0  0  0  0  0  0  0  0  0  0
  -26.5230  -14.3100   20.3180 C   0  0  0  0  0  0  0  0  0  0  0  0
  -25.3730  -13.6950   20.7340 C   0  0  0  0  0  0  0  0  0  0  0  0
  -25.5970  -12.2930   20.5790 C   0  0  0  0  0  0  0  0  0  0  0  0
  -27.3840  -13.2930   19.9390 N   0  0  0  0  0  0  0  0  0  0  0  0
  -26.8320  -12.0680   20.1490 N   0  0  0  0  0  0  0  0  0  0  0  0
  -24.6860  -11.1530   20.7540 C   0  0  0  0  0  0  0  0  0  0  0  0
  -25.0150  -10.0650   21.5910 C   0  0  0  0  0  3  0  0  0  0  0  0
  -24.1140   -8.9910   21.7570 C   0  0  0  0  0  3  0  0  0  0  0  0
  -22.8680   -9.0000   21.0880 C   0  0  0  0  0  0  0  0  0  0  0  0
  -22.5550  -10.0750   20.2360 C   0  0  0  0  0  3  0  0  0  0  0  0
  -23.4560  -11.1380   20.0660 C   0  0  0  0  0  3  0  0  0  0  0  0
  -21.9430   -7.9870   21.1680 O   0  0  0  0  0  0  0  0  0  0  0  0
  -21.8340   -7.1990   22.2860 C   0  0  0  0  0  0  0  0  0  0  0  0
  -21.5870   -7.7470   23.5640 C   0  0  0  0  0  3  0  0  0  0  0  0
  -21.4110   -6.8960   24.6730 C   0  0  0  0  0  3  0  0  0  0  0  0
  -21.4730   -5.4990   24.5060 C   0  0  0  0  0  0  0  0  0  0  0  0
  -21.7140   -4.9520   23.2340 C   0  0  0  0  0  3  0  0  0  0  0  0
  -21.8900   -5.8000   22.1260 C   0  0  0  0  0  0  0  0  0  0  0  0
  -22.1010   -5.2670   20.8980 F   0  0  0  0  0  0  0  0  0  0  0  0
  -21.2960   -4.6800   25.5700 F   0  0  0  0  0  0  0  0  0  0  0  0
  -24.1040  -14.3690   21.1660 C   0  0  0  0  0  0  0  0  0  0  0  0
  -23.3490  -13.7420   22.0620 N   0  0  0  0  0  0  0  0  0  0  0  0
  -23.7960  -15.4850   20.7480 O   0  0  0  0  0  0  0  0  0  0  0  0
  -23.6150  -12.8390   22.4260 H   0  0  0  0  0  0  0  0  0  0  0  0
  -22.4980  -14.1770   22.3890 H   0  0  0  0  0  0  0  0  0  0  0  0
  -26.9010  -15.6450   20.2170 N   0  0  0  0  0  0  0  0  0  0  0  0
  -26.2750  -16.4070   20.4510 H   0  0  0  0  0  0  0  0  0  0  0  0
  -27.7960  -15.9620   19.8690 H   0  0  0  0  0  0  0  0  0  0  0  0
  2  3  1  0
  2  1  1  0
  4  5  1  0
  4  3  1  0
  6 17  2  0
  7  5  1  0
  7 12  1  0
  8 16  1  0
  8 18  1  0
  9 15  1  0
  9 11  1  0
 10 16  1  0
 11 12  2  0
 11 10  1  0
 13  7  2  0
 14 13  1  0
 14  9  2  0
 15  8  1  0
 16  6  1  0
 18 20  2  0
 19 18  1  0
 21 19  1  0
 22 31  2  0
 22 27  1  0
 23 19  1  0
 23 27  1  0
 24 23  1  0
 25 26  1  0
 25 24  1  0
 26 22  1  0
 27 28  2  0
 28 29  1  0
 30 29  2  0
 31 30  1  0
 32  6  1  0
 32 37  1  0
 32 33  1  0
 33 36  1  1
 33 34  1  0
 35 33  1  0
 37 40  1  0
 38 42  1  0
 38 37  1  0
 39 38  2  0
 42 41  1  0
 44 45  1  0
 44 42  1  0
 44 43  1  0
 46  1  1  0
 47 46  1  0
 48 47  1  0
 49 48  1  0
 49 50  1  0
 50 51  1  0
 52 61  1  0
 52 51  1  0
 53 59  1  0
 53 61  1  0
 54 59  1  0
 55 56  1  0
 55 54  1  0
 57 56  1  0
 57 66  1  0
 57 58  1  0
 59 58  1  0
 60 53  2  0
 61 62  1  0
 63 64  2  0
 64 83  1  0
 65 64  1  0
 65 68  1  0
 66 67  1  0
 66 63  1  0
 67 65  2  0
 68 69  1  0
 69 70  2  0
 71 74  1  0
 71 70  1  0
 72 71  2  0
 73 72  1  0
 73 68  2  0
 74 75  1  0
 75 76  1  0
 76 77  2  0
 78 77  1  0
 78 82  1  0
 79 78  2  0
 80 75  2  0
 80 79  1  0
 81 80  1  0
 83 84  1  0
 84 87  1  0
 84 86  1  0
 85 83  2  0
 88 63  1  0
 88 89  1  0
 90 88  1  0
M  ISO  4   4 101   5 101  53 100  61 100
M  END
>  <TORSDO>  (51) 
F 26

>  <SCORE>  (51) 
-9.736

>  <name>  (51) 
52

>  <ligand_id>  (51) 
52

>  <original_smiles>  (51) 
[H]c1c([H])c([H])c2c(c1[H])C([H])([H])C([H])([H])C([H])([H])C2([H])N([H])C(=O)C1([H])N(C(=O)C([H])(N([H])C(=O)C([H])(N([H])C([H])([H])[H])C([H])([H])[H])C(C([H])([H])[H])(C([H])([H])[H])C([H])([H])[H])C([H])([H])c2c([H])c(OC([H])([H])C([H])([H])OC([H])([H])C([H])([H])OC([H])([H])C([H])([H])OC([H])([H])C([H])([H])N([H])C(=O)N3C([H])([H])C([H])([H])C([H])([H])C([H])(n4nc(-c5c([H])c([H])c(Oc6c([H])c([H])c(F)c([H])c6F)c([H])c5[H])c(C(=O)N([H])[H])c4N([H])[H])C3([H])[H])c([H])c([H])c2C1([H])[H]

>  <smiles>  (51) 
[H]c1c([H])c([H])c2c(c1[H])C([H])([H])C([H])([H])C([H])([H])C2([H])N([H])C(=O)C1([H])N(C(=O)C([H])(N([H])C(=O)C([H])(N([H])C([H])([H])[H])C([H])([H])[H])C(C([H])([H])[H])(C([H])([H])[H])C([H])([H])[H])C([H])([H])c2c([H])c(OC([H])([H])C([H])([H])OC([H])([H])C([H])([H])OC([H])([H])C([H])([H])OC([H])([H])C([H])([H])N([H])C(=O)N3C([H])([H])C([H])([H])C([H])([H])C([H])(n4nc(-c5c([H])c([H])c(Oc6c([H])c([H])c(F)c([H])c6F)c([H])c5[H])c(C(=O)N([H])[H])c4N([H])[H])C3([H])[H])c([H])c([H])c2C1([H])[H]

$$$$
53:0:0
     RDKit          3D

 87 94  0  0  1  0  0  0  0  0999 V2000
  -29.1130  -22.7980   20.1480 O   0  0  0  0  0  0  0  0  0  0  0  0
  -29.2650  -24.1800   20.5710 C   0  0  0  0  0  2  0  0  0  0  0  0
  -28.1950  -25.1410   19.9510 C   0  0  0  0  0  2  0  0  0  0  0  0
  -28.3440  -26.5690   20.2300 O   0  0  0  0  0  0  0  0  0  0  0  0
  -24.6030  -31.8820   23.2540 C   0  0  0  0  0  0  0  0  0  0  0  0
  -27.2030  -27.3700   20.1730 C   0  0  0  0  0  0  0  0  0  0  0  0
  -23.3880  -30.4910   21.6140 C   0  0  0  0  0  3  0  0  0  0  0  0
  -24.8290  -28.9470   20.1790 C   0  0  0  0  0  0  0  0  0  0  0  0
  -25.9230  -30.8160   21.4190 C   0  0  0  0  0  2  0  0  0  0  0  0
  -25.9960  -29.4430   20.7740 C   0  0  0  0  0  0  0  0  0  0  0  0
  -27.1840  -28.6630   20.7670 C   0  0  0  0  0  3  0  0  0  0  0  0
  -26.0140  -26.9200   19.5460 C   0  0  0  0  0  3  0  0  0  0  0  0
  -24.8370  -27.6890   19.5590 C   0  0  0  0  0  3  0  0  0  0  0  0
  -23.5920  -29.8180   20.2320 C   0  0  0  0  0  2  0  0  0  0  0  0
  -24.6560  -31.0790   22.1530 N   0  0  0  0  0  0  0  0  0  0  0  0
  -23.5240  -32.1610   23.7950 O   0  0  0  0  0  0  0  0  0  0  0  0
  -22.7290  -29.4710   22.5730 C   0  0  0  0  0  0  0  0  0  0  0  0
  -21.4040  -29.2960   22.4460 N   0  0  0  0  0  0  0  0  0  0  0  0
  -23.4090  -28.8420   23.3890 O   0  0  0  0  0  0  0  0  0  0  0  0
  -20.9160  -29.8550   21.7610 H   0  0  0  0  0  0  0  0  0  0  0  0
  -18.0240  -28.1080   22.9390 C   0  0  0  0  0  0  0  0  0  0  0  0
  -20.5820  -28.3620   23.2170 C   0  0  0  0  0  3  0  0  0  0  0  0
  -20.6820  -26.9290   22.6440 C   0  0  0  0  0  2  0  0  0  0  0  0
  -19.5830  -26.6070   21.6270 C   0  0  0  0  0  2  0  0  0  0  0  0
  -18.2000  -26.7570   22.2670 C   0  0  0  0  0  2  0  0  0  0  0  0
  -19.1430  -28.8680   23.3700 C   0  0  0  0  0  0  0  0  0  0  0  0
  -18.9250  -30.1340   23.9590 C   0  0  0  0  0  3  0  0  0  0  0  0
  -17.6220  -30.6390   24.1180 C   0  0  0  0  0  3  0  0  0  0  0  0
  -16.5170  -29.8760   23.7040 C   0  0  0  0  0  3  0  0  0  0  0  0
  -16.7190  -28.6120   23.1200 C   0  0  0  0  0  3  0  0  0  0  0  0
  -25.8930  -32.5060   23.8720 C   0  0  0  0  0  3  0  0  0  0  0  0
  -26.4080  -31.7310   25.1470 C   0  0  1  0  0  0  0  0  0  0  0  0
  -25.3180  -31.5010   26.2190 C   0  0  0  0  0  1  0  0  0  0  0  0
  -26.9820  -30.3500   24.7520 C   0  0  0  0  0  1  0  0  0  0  0  0
  -27.5640  -32.5190   25.8080 C   0  0  0  0  0  1  0  0  0  0  0  0
  -25.5920  -33.9060   24.2030 N   0  0  0  0  0  0  0  0  0  0  0  0
  -25.9250  -34.9570   23.4410 C   0  0  0  0  0  0  0  0  0  0  0  0
  -26.5890  -34.8480   22.4060 O   0  0  0  0  0  0  0  0  0  0  0  0
  -25.0030  -34.0650   25.0080 H   0  0  0  0  0  0  0  0  0  0  0  0
  -24.2020  -36.7560   23.0930 C   0  0  0  0  0  1  0  0  0  0  0  0
  -25.4460  -36.3470   23.8980 C   0  0  0  0  0  3  0  0  0  0  0  0
  -27.5900  -37.2240   24.7140 C   0  0  0  0  0  1  0  0  0  0  0  0
  -26.4820  -37.3950   23.7780 N   0  0  0  0  0  0  0  0  0  0  0  0
  -26.0800  -38.3170   23.9270 H   0  0  0  0  0  0  0  0  0  0  0  0
  -29.8660  -21.8260   20.9130 C   0  0  0  0  0  2  0  0  0  0  0  0
  -29.9940  -20.3890   20.2800 C   0  0  0  0  0  2  0  0  0  0  0  0
  -29.6060  -19.3250   21.1790 O   0  0  0  0  0  0  0  0  0  0  0  0
  -30.3560  -18.0820   21.1900 C   0  0  0  0  0  2  0  0  0  0  0  0
  -29.9920  -17.0260   20.1000 C   0  0  0  0  0  2  0  0  0  0  0  0
  -30.6580  -14.5630   20.1340 C   0  0  0  0  0  0  0  0  0  0  0  0
  -30.3320  -12.3860   19.0110 C   0  0  0  0  0  2  0  0  0  0  0  0
  -29.3420  -12.5990   17.8440 C   0  0  0  0  0  2  0  0  0  0  0  0
  -27.8850  -12.4670   18.3310 C   0  0  0  0  0  2  0  0  0  0  0  0
  -27.6040  -13.2910   19.6150 C   0  0  0  0  0  3  0  0  0  0  0  0
  -28.7030  -13.0590   20.6790 C   0  0  0  0  0  2  0  0  0  0  0  0
  -30.0040  -13.3660   20.0610 N   0  0  0  0  0  0  0  0  0  0  0  0
  -31.7760  -14.7380   19.6440 O   0  0  0  0  0  0  0  0  0  0  0  0
  -29.9110  -15.6090   20.5580 N   0  0  0  0  0  0  0  0  0  0  0  0
  -29.0360  -15.3490   20.9880 H   0  0  0  0  0  0  0  0  0  0  0  0
  -25.2410  -13.9170   20.4180 C   0  0  0  0  0  0  0  0  0  0  0  0
  -24.1800  -13.1550   20.8240 C   0  0  0  0  0  0  0  0  0  0  0  0
  -24.6260  -11.7980   20.7700 C   0  0  0  0  0  0  0  0  0  0  0  0
  -26.2680  -13.0270   20.1440 N   0  0  0  0  0  0  0  0  0  0  0  0
  -25.9040  -11.7470   20.4140 N   0  0  0  0  0  0  0  0  0  0  0  0
  -23.8950  -10.5420   20.9820 C   0  0  0  0  0  0  0  0  0  0  0  0
  -24.3570   -9.5630   21.8880 C   0  0  0  0  0  3  0  0  0  0  0  0
  -23.6260   -8.3710   22.0880 C   0  0  0  0  0  3  0  0  0  0  0  0
  -22.4190   -8.1520   21.3830 C   0  0  0  0  0  0  0  0  0  0  0  0
  -21.9750   -9.1210   20.4660 C   0  0  0  0  0  3  0  0  0  0  0  0
  -22.7060  -10.3040   20.2640 C   0  0  0  0  0  3  0  0  0  0  0  0
  -21.6570   -7.0150   21.4950 O   0  0  0  0  0  0  0  0  0  0  0  0
  -21.6560   -6.2580   22.6390 C   0  0  0  0  0  0  0  0  0  0  0  0
  -21.3040   -6.8040   23.8930 C   0  0  0  0  0  3  0  0  0  0  0  0
  -21.2500   -5.9740   25.0310 C   0  0  0  0  0  3  0  0  0  0  0  0
  -21.5350   -4.6010   24.9170 C   0  0  0  0  0  0  0  0  0  0  0  0
  -21.8800   -4.0550   23.6680 C   0  0  0  0  0  3  0  0  0  0  0  0
  -21.9370   -4.8820   22.5310 C   0  0  0  0  0  0  0  0  0  0  0  0
  -22.2490   -4.3460   21.3260 F   0  0  0  0  0  0  0  0  0  0  0  0
  -21.4760   -3.8020   26.0080 F   0  0  0  0  0  0  0  0  0  0  0  0
  -22.7990  -13.6450   21.1510 C   0  0  0  0  0  0  0  0  0  0  0  0
  -22.0980  -12.9520   22.0420 N   0  0  0  0  0  0  0  0  0  0  0  0
  -22.3520  -14.6760   20.6520 O   0  0  0  0  0  0  0  0  0  0  0  0
  -22.4730  -12.1180   22.4680 H   0  0  0  0  0  0  0  0  0  0  0  0
  -21.1730  -13.2630   22.3040 H   0  0  0  0  0  0  0  0  0  0  0  0
  -25.4140  -15.2870   20.2390 N   0  0  0  0  0  0  0  0  0  0  0  0
  -24.6560  -15.9470   20.3780 H   0  0  0  0  0  0  0  0  0  0  0  0
  -26.2510  -15.7180   19.8670 H   0  0  0  0  0  0  0  0  0  0  0  0
  1  2  1  0
  1 45  1  0
  3  4  1  0
  3  2  1  0
  5 16  2  0
  6  4  1  0
  6 11  1  0
  7 15  1  0
  7 17  1  0
  8 14  1  0
  8 10  1  0
  9 15  1  0
 10  9  1  0
 11 10  2  0
 12 13  1  0
 12  6  2  0
 13  8  2  0
 14  7  1  0
 15  5  1  0
 17 19  2  0
 18 17  1  0
 20 18  1  0
 21 30  2  0
 21 26  1  0
 22 18  1  0
 22 26  1  0
 23 22  1  0
 24 25  1  0
 24 23  1  0
 25 21  1  0
 26 27  2  0
 27 28  1  0
 29 28  2  0
 30 29  1  0
 31  5  1  0
 31 36  1  0
 31 32  1  0
 32 35  1  1
 32 33  1  0
 34 32  1  0
 36 39  1  0
 37 41  1  0
 37 36  1  0
 38 37  2  0
 41 40  1  0
 43 41  1  0
 43 44  1  0
 43 42  1  0
 46 45  1  0
 46 47  1  0
 47 48  1  0
 49 58  1  0
 49 48  1  0
 50 58  1  0
 51 56  1  0
 52 53  1  0
 52 51  1  0
 54 53  1  0
 54 63  1  0
 54 55  1  0
 56 50  1  0
 56 55  1  0
 57 50  2  0
 58 59  1  0
 60 61  2  0
 61 80  1  0
 62 61  1  0
 62 65  1  0
 63 64  1  0
 63 60  1  0
 64 62  2  0
 65 66  1  0
 66 67  2  0
 68 71  1  0
 68 67  1  0
 69 68  2  0
 70 69  1  0
 70 65  2  0
 71 72  1  0
 72 73  1  0
 73 74  2  0
 75 74  1  0
 75 79  1  0
 76 75  2  0
 77 72  2  0
 77 76  1  0
 78 77  1  0
 80 81  1  0
 81 84  1  0
 81 83  1  0
 82 80  2  0
 85 86  1  0
 85 60  1  0
 87 85  1  0
M  ISO  4   3 101   4 101  50 100  58 100
M  END
>  <TORSDO>  (52) 
F 23

>  <SCORE>  (52) 
-12.462

>  <name>  (52) 
53

>  <ligand_id>  (52) 
53

>  <original_smiles>  (52) 
[H]c1c([H])c([H])c2c(c1[H])C([H])([H])C([H])([H])C([H])([H])C2([H])N([H])C(=O)C1([H])N(C(=O)C([H])(N([H])C(=O)C([H])(N([H])C([H])([H])[H])C([H])([H])[H])C(C([H])([H])[H])(C([H])([H])[H])C([H])([H])[H])C([H])([H])c2c([H])c(OC([H])([H])C([H])([H])OC([H])([H])C([H])([H])OC([H])([H])C([H])([H])N([H])C(=O)N3C([H])([H])C([H])([H])C([H])([H])C([H])(n4nc(-c5c([H])c([H])c(Oc6c([H])c([H])c(F)c([H])c6F)c([H])c5[H])c(C(=O)N([H])[H])c4N([H])[H])C3([H])[H])c([H])c([H])c2C1([H])[H]

>  <smiles>  (52) 
[H]c1c([H])c([H])c2c(c1[H])C([H])([H])C([H])([H])C([H])([H])C2([H])N([H])C(=O)C1([H])N(C(=O)C([H])(N([H])C(=O)C([H])(N([H])C([H])([H])[H])C([H])([H])[H])C(C([H])([H])[H])(C([H])([H])[H])C([H])([H])[H])C([H])([H])c2c([H])c(OC([H])([H])C([H])([H])OC([H])([H])C([H])([H])OC([H])([H])C([H])([H])N([H])C(=O)N3C([H])([H])C([H])([H])C([H])([H])C([H])(n4nc(-c5c([H])c([H])c(Oc6c([H])c([H])c(F)c([H])c6F)c([H])c5[H])c(C(=O)N([H])[H])c4N([H])[H])C3([H])[H])c([H])c([H])c2C1([H])[H]

$$$$
54:0:0
     RDKit          3D

 91 99  0  0  1  0  0  0  0  0999 V2000
  -29.6700  -23.8810   20.4620 C   0  0  0  0  0  3  0  0  0  0  0  0
  -27.5960  -23.8410   21.7320 C   0  0  0  0  0  3  0  0  0  0  0  0
  -29.6670  -22.4730   20.4080 C   0  0  0  0  0  3  0  0  0  0  0  0
  -27.5910  -22.4300   21.6710 C   0  0  0  0  0  3  0  0  0  0  0  0
  -28.6520  -24.5720   21.1510 C   0  0  0  0  0  0  0  0  0  0  0  0
  -28.6430  -21.7270   21.0450 C   0  0  0  0  0  0  0  0  0  0  0  0
  -28.7300  -26.0860   21.3000 C   0  0  0  0  0  2  0  0  0  0  0  0
  -28.4090  -26.7680   20.0920 O   0  0  0  0  0  0  0  0  0  0  0  0
  -24.5930  -31.8890   23.2570 C   0  0  0  0  0  0  0  0  0  0  0  0
  -27.2510  -27.4970   20.1440 C   0  0  0  0  0  0  0  0  0  0  0  0
  -23.3900  -30.4960   21.6020 C   0  0  0  0  0  3  0  0  0  0  0  0
  -24.8490  -28.9690   20.1710 C   0  0  0  0  0  0  0  0  0  0  0  0
  -25.9120  -30.8680   21.4080 C   0  0  0  0  0  2  0  0  0  0  0  0
  -26.0010  -29.5010   20.7650 C   0  0  0  0  0  0  0  0  0  0  0  0
  -27.2070  -28.7690   20.7560 C   0  0  0  0  0  3  0  0  0  0  0  0
  -26.0890  -26.9690   19.5490 C   0  0  0  0  0  3  0  0  0  0  0  0
  -24.8840  -27.6990   19.5650 C   0  0  0  0  0  3  0  0  0  0  0  0
  -23.6030  -29.8220   20.2190 C   0  0  0  0  0  2  0  0  0  0  0  0
  -24.6500  -31.0990   22.1470 N   0  0  0  0  0  0  0  0  0  0  0  0
  -23.5110  -32.1550   23.7980 O   0  0  0  0  0  0  0  0  0  0  0  0
  -22.7410  -29.4690   22.5550 C   0  0  0  0  0  0  0  0  0  0  0  0
  -21.4150  -29.2910   22.4290 N   0  0  0  0  0  0  0  0  0  0  0  0
  -23.4240  -28.8340   23.3630 O   0  0  0  0  0  0  0  0  0  0  0  0
  -20.9260  -29.8540   21.7480 H   0  0  0  0  0  0  0  0  0  0  0  0
  -18.0380  -28.1070   22.9260 C   0  0  0  0  0  0  0  0  0  0  0  0
  -20.5970  -28.3500   23.1940 C   0  0  0  0  0  3  0  0  0  0  0  0
  -20.6910  -26.9250   22.6020 C   0  0  0  0  0  2  0  0  0  0  0  0
  -19.5840  -26.6170   21.5890 C   0  0  0  0  0  2  0  0  0  0  0  0
  -18.2050  -26.7650   22.2360 C   0  0  0  0  0  2  0  0  0  0  0  0
  -19.1610  -28.8600   23.3610 C   0  0  0  0  0  0  0  0  0  0  0  0
  -18.9500  -30.1190   23.9640 C   0  0  0  0  0  3  0  0  0  0  0  0
  -17.6470  -30.6240   24.1390 C   0  0  0  0  0  3  0  0  0  0  0  0
  -16.5390  -29.8690   23.7180 C   0  0  0  0  0  3  0  0  0  0  0  0
  -16.7350  -28.6130   23.1180 C   0  0  0  0  0  3  0  0  0  0  0  0
  -25.8790  -32.5150   23.8820 C   0  0  0  0  0  3  0  0  0  0  0  0
  -25.5770  -33.9150   24.2060 N   0  0  0  0  0  0  0  0  0  0  0  0
  -25.9150  -34.9620   23.4400 C   0  0  0  0  0  0  0  0  0  0  0  0
  -26.5870  -34.8500   22.4110 O   0  0  0  0  0  0  0  0  0  0  0  0
  -24.9870  -34.0780   25.0070 H   0  0  0  0  0  0  0  0  0  0  0  0
  -24.1920  -36.7560   23.0700 C   0  0  0  0  0  1  0  0  0  0  0  0
  -25.4300  -36.3540   23.8870 C   0  0  0  0  0  3  0  0  0  0  0  0
  -27.5680  -37.2340   24.7120 C   0  0  0  0  0  1  0  0  0  0  0  0
  -26.4650  -37.4050   23.7710 N   0  0  0  0  0  0  0  0  0  0  0  0
  -26.0610  -38.3260   23.9190 H   0  0  0  0  0  0  0  0  0  0  0  0
  -26.3900  -31.7440   25.1600 C   0  0  1  0  0  0  0  0  0  0  0  0
  -25.2910  -31.5070   26.2250 C   0  0  0  0  0  1  0  0  0  0  0  0
  -26.9690  -30.3640   24.7710 C   0  0  0  0  0  1  0  0  0  0  0  0
  -27.5450  -32.5310   25.8210 C   0  0  0  0  0  1  0  0  0  0  0  0
  -28.6200  -20.3460   21.1030 O   0  0  0  0  0  0  0  0  0  0  0  0
  -29.8310  -19.6570   20.7910 C   0  0  0  0  0  2  0  0  0  0  0  0
  -29.7860  -18.1960   21.2760 C   0  0  0  0  0  2  0  0  0  0  0  0
  -31.1480  -17.5000   21.0830 C   0  0  0  0  0  2  0  0  0  0  0  0
  -31.3200  -16.1430   21.7950 C   0  0  0  0  0  2  0  0  0  0  0  0
  -30.8670  -14.2980   20.1760 C   0  0  0  0  0  0  0  0  0  0  0  0
  -30.4120  -12.2050   18.9430 C   0  0  0  0  0  2  0  0  0  0  0  0
  -29.4340  -12.4180   17.7730 C   0  0  0  0  0  2  0  0  0  0  0  0
  -27.9740  -12.3210   18.2550 C   0  0  0  0  0  2  0  0  0  0  0  0
  -27.7050  -13.1910   19.5090 C   0  0  0  0  0  3  0  0  0  0  0  0
  -28.7790  -12.9440   20.5900 C   0  0  0  0  0  2  0  0  0  0  0  0
  -30.1060  -13.1900   19.9910 N   0  0  0  0  0  0  0  0  0  0  0  0
  -31.8610  -14.5580   19.4890 O   0  0  0  0  0  0  0  0  0  0  0  0
  -30.5170  -15.0640   21.2190 N   0  0  0  0  0  0  0  0  0  0  0  0
  -29.7050  -14.7670   21.7410 H   0  0  0  0  0  0  0  0  0  0  0  0
  -25.3490  -13.8900   20.2770 C   0  0  0  0  0  0  0  0  0  0  0  0
  -24.2670  -13.1580   20.6900 C   0  0  0  0  0  0  0  0  0  0  0  0
  -24.6810  -11.7910   20.6590 C   0  0  0  0  0  0  0  0  0  0  0  0
  -26.3570  -12.9710   20.0290 N   0  0  0  0  0  0  0  0  0  0  0  0
  -25.9580  -11.7040   20.3110 N   0  0  0  0  0  0  0  0  0  0  0  0
  -23.9200  -10.5560   20.8870 C   0  0  0  0  0  0  0  0  0  0  0  0
  -24.3430   -9.5910   21.8280 C   0  0  0  0  0  3  0  0  0  0  0  0
  -23.5850   -8.4200   22.0410 C   0  0  0  0  0  3  0  0  0  0  0  0
  -22.3920   -8.2040   21.3140 C   0  0  0  0  0  0  0  0  0  0  0  0
  -21.9860   -9.1580   20.3630 C   0  0  0  0  0  3  0  0  0  0  0  0
  -22.7440  -10.3210   20.1480 C   0  0  0  0  0  3  0  0  0  0  0  0
  -21.6050   -7.0840   21.4360 O   0  0  0  0  0  0  0  0  0  0  0  0
  -21.5490   -6.3700   22.6050 C   0  0  0  0  0  0  0  0  0  0  0  0
  -21.1750   -6.9700   23.8280 C   0  0  0  0  0  3  0  0  0  0  0  0
  -21.0610   -6.1840   24.9910 C   0  0  0  0  0  3  0  0  0  0  0  0
  -21.3120   -4.8000   24.9360 C   0  0  0  0  0  0  0  0  0  0  0  0
  -21.6770   -4.1990   23.7180 C   0  0  0  0  0  3  0  0  0  0  0  0
  -21.7920   -4.9820   22.5560 C   0  0  0  0  0  0  0  0  0  0  0  0
  -22.1240   -4.3940   21.3800 F   0  0  0  0  0  0  0  0  0  0  0  0
  -21.1950   -4.0420   26.0510 F   0  0  0  0  0  0  0  0  0  0  0  0
  -22.8970  -13.6850   21.0010 C   0  0  0  0  0  0  0  0  0  0  0  0
  -22.1750  -13.0230   21.8990 N   0  0  0  0  0  0  0  0  0  0  0  0
  -22.4760  -14.7190   20.4850 O   0  0  0  0  0  0  0  0  0  0  0  0
  -22.5300  -12.1860   22.3390 H   0  0  0  0  0  0  0  0  0  0  0  0
  -21.2560  -13.3590   22.1510 H   0  0  0  0  0  0  0  0  0  0  0  0
  -25.5580  -15.2510   20.0780 N   0  0  0  0  0  0  0  0  0  0  0  0
  -24.8270  -15.9430   20.2040 H   0  0  0  0  0  0  0  0  0  0  0  0
  -26.4200  -15.6470   19.7240 H   0  0  0  0  0  0  0  0  0  0  0  0
  1  5  1  0
  3  1  2  0
  3  6  1  0
  4  2  1  0
  5  7  1  0
  5  2  2  0
  6 49  1  0
  6  4  2  0
  8 10  1  0
  8  7  1  0
  9 20  2  0
 10 15  1  0
 11 19  1  0
 11 21  1  0
 12 18  1  0
 12 14  1  0
 13 19  1  0
 14 13  1  0
 15 14  2  0
 16 17  1  0
 16 10  2  0
 17 12  2  0
 18 11  1  0
 19  9  1  0
 21 23  2  0
 22 21  1  0
 24 22  1  0
 25 34  2  0
 25 30  1  0
 26 22  1  0
 26 30  1  0
 27 26  1  0
 28 29  1  0
 28 27  1  0
 29 25  1  0
 30 31  2  0
 31 32  1  0
 33 32  2  0
 34 33  1  0
 35  9  1  0
 35 36  1  0
 35 45  1  0
 36 39  1  0
 37 41  1  0
 37 36  1  0
 38 37  2  0
 41 40  1  0
 43 41  1  0
 43 44  1  0
 43 42  1  0
 45 48  1  1
 45 46  1  0
 47 45  1  0
 50 49  1  0
 50 51  1  0
 52 51  1  0
 52 53  1  0
 54 62  1  0
 55 60  1  0
 56 57  1  0
 56 55  1  0
 58 57  1  0
 58 67  1  0
 58 59  1  0
 60 54  1  0
 60 59  1  0
 61 54  2  0
 62 63  1  0
 62 53  1  0
 64 65  2  0
 65 84  1  0
 66 65  1  0
 66 69  1  0
 67 64  1  0
 67 68  1  0
 68 66  2  0
 69 70  1  0
 70 71  2  0
 72 75  1  0
 72 71  1  0
 73 72  2  0
 74 73  1  0
 74 69  2  0
 75 76  1  0
 76 77  1  0
 77 78  2  0
 79 78  1  0
 79 83  1  0
 80 79  2  0
 81 76  2  0
 81 80  1  0
 82 81  1  0
 84 85  1  0
 85 88  1  0
 85 87  1  0
 86 84  2  0
 89 90  1  0
 89 64  1  0
 91 89  1  0
M  ISO  4   7 101   8 101  54 100  62 100
M  END
>  <TORSDO>  (53) 
F 22

>  <SCORE>  (53) 
-12.845

>  <name>  (53) 
54

>  <ligand_id>  (53) 
54

>  <original_smiles>  (53) 
[H]c1c([H])c([H])c2c(c1[H])C([H])([H])C([H])([H])C([H])([H])C2([H])N([H])C(=O)C1([H])N(C(=O)C([H])(N([H])C(=O)C([H])(N([H])C([H])([H])[H])C([H])([H])[H])C(C([H])([H])[H])(C([H])([H])[H])C([H])([H])[H])C([H])([H])c2c([H])c(OC([H])([H])c3c([H])c([H])c(OC([H])([H])C([H])([H])C([H])([H])C([H])([H])N([H])C(=O)N4C([H])([H])C([H])([H])C([H])([H])C([H])(n5nc(-c6c([H])c([H])c(Oc7c([H])c([H])c(F)c([H])c7F)c([H])c6[H])c(C(=O)N([H])[H])c5N([H])[H])C4([H])[H])c([H])c3[H])c([H])c([H])c2C1([H])[H]

>  <smiles>  (53) 
[H]c1c([H])c([H])c2c(c1[H])C([H])([H])C([H])([H])C([H])([H])C2([H])N([H])C(=O)C1([H])N(C(=O)C([H])(N([H])C(=O)C([H])(N([H])C([H])([H])[H])C([H])([H])[H])C(C([H])([H])[H])(C([H])([H])[H])C([H])([H])[H])C([H])([H])c2c([H])c(OC([H])([H])c3c([H])c([H])c(OC([H])([H])C([H])([H])C([H])([H])C([H])([H])N([H])C(=O)N4C([H])([H])C([H])([H])C([H])([H])C([H])(n5nc(-c6c([H])c([H])c(Oc7c([H])c([H])c(F)c([H])c7F)c([H])c6[H])c(C(=O)N([H])[H])c5N([H])[H])C4([H])[H])c([H])c3[H])c([H])c([H])c2C1([H])[H]

$$$$
55:0:0
     RDKit          3D

 89 97  0  0  1  0  0  0  0  0999 V2000
  -30.4280  -19.7210   19.2600 C   0  0  0  0  0  3  0  0  0  0  0  0
  -29.0950  -18.9880   21.1200 C   0  0  0  0  0  3  0  0  0  0  0  0
  -29.9610  -21.0610   19.4170 C   0  0  0  0  0  3  0  0  0  0  0  0
  -28.6270  -20.3300   21.2760 C   0  0  0  0  0  3  0  0  0  0  0  0
  -30.0260  -18.6490   20.1090 C   0  0  0  0  0  0  0  0  0  0  0  0
  -29.0550  -21.4080   20.4500 C   0  0  0  0  0  0  0  0  0  0  0  0
  -30.7550  -17.2590   19.9870 C   0  0  0  0  0  2  0  0  0  0  0  0
  -30.8180  -14.7460   19.9980 C   0  0  0  0  0  0  0  0  0  0  0  0
  -30.4790  -12.5320   18.9350 C   0  0  0  0  0  2  0  0  0  0  0  0
  -29.4900  -12.6800   17.7610 C   0  0  0  0  0  2  0  0  0  0  0  0
  -28.0400  -12.5230   18.2590 C   0  0  0  0  0  2  0  0  0  0  0  0
  -27.7430  -13.3760   19.5220 C   0  0  0  0  0  3  0  0  0  0  0  0
  -28.8560  -13.2430   20.5850 C   0  0  0  0  0  2  0  0  0  0  0  0
  -30.1300  -13.5640   19.9340 N   0  0  0  0  0  0  0  0  0  0  0  0
  -31.9850  -14.8090   19.6030 O   0  0  0  0  0  0  0  0  0  0  0  0
  -30.1420  -15.9120   20.2680 N   0  0  0  0  0  0  0  0  0  0  0  0
  -29.1690  -15.8640   20.5280 H   0  0  0  0  0  0  0  0  0  0  0  0
  -25.3860  -13.9510   20.3630 C   0  0  0  0  0  0  0  0  0  0  0  0
  -24.3430  -13.1680   20.7780 C   0  0  0  0  0  0  0  0  0  0  0  0
  -24.8130  -11.8200   20.7180 C   0  0  0  0  0  0  0  0  0  0  0  0
  -26.4240  -13.0800   20.0740 N   0  0  0  0  0  0  0  0  0  0  0  0
  -26.0880  -11.7930   20.3510 N   0  0  0  0  0  0  0  0  0  0  0  0
  -24.1050  -10.5520   20.9340 C   0  0  0  0  0  0  0  0  0  0  0  0
  -24.5570   -9.6030   21.8780 C   0  0  0  0  0  3  0  0  0  0  0  0
  -23.8480   -8.3990   22.0800 C   0  0  0  0  0  3  0  0  0  0  0  0
  -22.6710   -8.1360   21.3390 C   0  0  0  0  0  0  0  0  0  0  0  0
  -22.2380   -9.0730   20.3850 C   0  0  0  0  0  3  0  0  0  0  0  0
  -22.9480  -10.2680   20.1800 C   0  0  0  0  0  3  0  0  0  0  0  0
  -21.9310   -6.9840   21.4510 O   0  0  0  0  0  0  0  0  0  0  0  0
  -21.8750   -6.2750   22.6250 C   0  0  0  0  0  0  0  0  0  0  0  0
  -21.3740   -6.8450   23.8170 C   0  0  0  0  0  3  0  0  0  0  0  0
  -21.2680   -6.0610   24.9820 C   0  0  0  0  0  3  0  0  0  0  0  0
  -21.6540   -4.7080   24.9580 C   0  0  0  0  0  0  0  0  0  0  0  0
  -22.1490   -4.1370   23.7720 C   0  0  0  0  0  3  0  0  0  0  0  0
  -22.2550   -4.9190   22.6080 C   0  0  0  0  0  0  0  0  0  0  0  0
  -22.7130   -4.3590   21.4620 F   0  0  0  0  0  0  0  0  0  0  0  0
  -21.5460   -3.9510   26.0760 F   0  0  0  0  0  0  0  0  0  0  0  0
  -22.9560  -13.6340   21.1140 C   0  0  0  0  0  0  0  0  0  0  0  0
  -22.2680  -12.9240   22.0020 N   0  0  0  0  0  0  0  0  0  0  0  0
  -22.4910  -14.6620   20.6240 O   0  0  0  0  0  0  0  0  0  0  0  0
  -22.6580  -12.0930   22.4230 H   0  0  0  0  0  0  0  0  0  0  0  0
  -21.3390  -13.2170   22.2670 H   0  0  0  0  0  0  0  0  0  0  0  0
  -25.5310  -15.3230   20.1840 N   0  0  0  0  0  0  0  0  0  0  0  0
  -24.7630  -15.9690   20.3310 H   0  0  0  0  0  0  0  0  0  0  0  0
  -26.3530  -15.7710   19.7980 H   0  0  0  0  0  0  0  0  0  0  0  0
  -28.5650  -22.7020   20.7240 O   0  0  0  0  0  0  0  0  0  0  0  0
  -28.9530  -23.9200   20.0020 C   0  0  0  0  0  2  0  0  0  0  0  0
  -28.2530  -25.2200   20.6080 C   0  0  0  0  0  2  0  0  0  0  0  0
  -28.4570  -26.5740   20.0400 O   0  0  0  0  0  0  0  0  0  0  0  0
  -24.6040  -31.8390   23.1280 C   0  0  0  0  0  0  0  0  0  0  0  0
  -27.3370  -27.4120   20.0150 C   0  0  0  0  0  0  0  0  0  0  0  0
  -23.4500  -30.4680   21.4290 C   0  0  0  0  0  3  0  0  0  0  0  0
  -24.9500  -28.9750   19.9940 C   0  0  0  0  0  0  0  0  0  0  0  0
  -25.9850  -30.8330   21.2980 C   0  0  0  0  0  2  0  0  0  0  0  0
  -26.0990  -29.4720   20.6230 C   0  0  0  0  0  0  0  0  0  0  0  0
  -27.3000  -28.7040   20.6220 C   0  0  0  0  0  3  0  0  0  0  0  0
  -26.1720  -26.9650   19.3580 C   0  0  0  0  0  3  0  0  0  0  0  0
  -24.9870  -27.7260   19.3510 C   0  0  0  0  0  3  0  0  0  0  0  0
  -23.6990  -29.8290   20.0370 C   0  0  0  0  0  2  0  0  0  0  0  0
  -24.6970  -31.0620   22.0100 N   0  0  0  0  0  0  0  0  0  0  0  0
  -23.5070  -32.0880   23.6500 O   0  0  0  0  0  0  0  0  0  0  0  0
  -22.7840  -29.4180   22.3510 C   0  0  0  0  0  0  0  0  0  0  0  0
  -21.4610  -29.2390   22.2030 N   0  0  0  0  0  0  0  0  0  0  0  0
  -23.4570  -28.7700   23.1560 O   0  0  0  0  0  0  0  0  0  0  0  0
  -20.9770  -29.8140   21.5270 H   0  0  0  0  0  0  0  0  0  0  0  0
  -18.0790  -28.0380   22.6530 C   0  0  0  0  0  0  0  0  0  0  0  0
  -20.6380  -28.2740   22.9350 C   0  0  0  0  0  3  0  0  0  0  0  0
  -20.7340  -26.8670   22.3010 C   0  0  0  0  0  2  0  0  0  0  0  0
  -19.6310  -26.5910   21.2750 C   0  0  0  0  0  2  0  0  0  0  0  0
  -18.2490  -26.7170   21.9240 C   0  0  0  0  0  2  0  0  0  0  0  0
  -19.2010  -28.7770   23.1150 C   0  0  0  0  0  0  0  0  0  0  0  0
  -18.9870  -30.0160   23.7570 C   0  0  0  0  0  3  0  0  0  0  0  0
  -17.6840  -30.5160   23.9430 C   0  0  0  0  0  3  0  0  0  0  0  0
  -16.5770  -29.7740   23.4970 C   0  0  0  0  0  3  0  0  0  0  0  0
  -16.7750  -28.5360   22.8590 C   0  0  0  0  0  3  0  0  0  0  0  0
  -25.8670  -32.4720   23.7920 C   0  0  0  0  0  3  0  0  0  0  0  0
  -26.3400  -31.7010   25.0840 C   0  0  1  0  0  0  0  0  0  0  0  0
  -25.2130  -31.4610   26.1140 C   0  0  0  0  0  1  0  0  0  0  0  0
  -26.9380  -30.3240   24.7110 C   0  0  0  0  0  1  0  0  0  0  0  0
  -27.4680  -32.4950   25.7850 C   0  0  0  0  0  1  0  0  0  0  0  0
  -25.5480  -33.8700   24.1120 N   0  0  0  0  0  0  0  0  0  0  0  0
  -25.9030  -34.9230   23.3630 C   0  0  0  0  0  0  0  0  0  0  0  0
  -26.6030  -34.8180   22.3520 O   0  0  0  0  0  0  0  0  0  0  0  0
  -24.9310  -34.0250   24.8950 H   0  0  0  0  0  0  0  0  0  0  0  0
  -24.1980  -36.7240   22.9420 C   0  0  0  0  0  1  0  0  0  0  0  0
  -25.4030  -36.3120   23.8040 C   0  0  0  0  0  3  0  0  0  0  0  0
  -27.5000  -37.1910   24.7330 C   0  0  0  0  0  1  0  0  0  0  0  0
  -26.4450  -37.3600   23.7370 N   0  0  0  0  0  0  0  0  0  0  0  0
  -26.0370  -38.2830   23.8620 H   0  0  0  0  0  0  0  0  0  0  0  0
  1  3  2  0
  1  5  1  0
  2  4  1  0
  3  6  1  0
  5  2  2  0
  6 46  1  0
  6  4  2  0
  7  5  1  0
  7 16  1  0
  8 16  1  0
  9 14  1  0
 10 11  1  0
 10  9  1  0
 12 11  1  0
 12 21  1  0
 12 13  1  0
 14  8  1  0
 14 13  1  0
 15  8  2  0
 16 17  1  0
 18 19  2  0
 19 38  1  0
 20 19  1  0
 20 23  1  0
 21 22  1  0
 21 18  1  0
 22 20  2  0
 23 24  1  0
 24 25  2  0
 26 29  1  0
 26 25  1  0
 27 26  2  0
 28 27  1  0
 28 23  2  0
 29 30  1  0
 30 31  1  0
 31 32  2  0
 33 32  1  0
 33 37  1  0
 34 33  2  0
 35 30  2  0
 35 34  1  0
 36 35  1  0
 38 39  1  0
 39 42  1  0
 39 41  1  0
 40 38  2  0
 43 44  1  0
 43 18  1  0
 45 43  1  0
 47 48  1  0
 47 46  1  0
 49 48  1  0
 50 61  2  0
 51 49  1  0
 51 56  1  0
 52 60  1  0
 52 62  1  0
 53 59  1  0
 53 55  1  0
 54 60  1  0
 55 54  1  0
 56 55  2  0
 57 51  2  0
 58 57  1  0
 58 53  2  0
 59 52  1  0
 60 50  1  0
 62 64  2  0
 63 62  1  0
 65 63  1  0
 66 75  2  0
 66 71  1  0
 67 63  1  0
 67 71  1  0
 68 67  1  0
 69 70  1  0
 69 68  1  0
 70 66  1  0
 71 72  2  0
 72 73  1  0
 74 73  2  0
 75 74  1  0
 76 50  1  0
 76 81  1  0
 76 77  1  0
 77 80  1  1
 77 78  1  0
 79 77  1  0
 81 84  1  0
 82 86  1  0
 82 81  1  0
 83 82  2  0
 86 85  1  0
 88 86  1  0
 88 89  1  0
 88 87  1  0
M  ISO  4   8 100  16 100  48 101  49 101
M  END
>  <TORSDO>  (54) 
F 20

>  <SCORE>  (54) 
-12.786

>  <name>  (54) 
55

>  <ligand_id>  (54) 
55

>  <original_smiles>  (54) 
[H]c1c([H])c([H])c2c(c1[H])C([H])([H])C([H])([H])C([H])([H])C2([H])N([H])C(=O)C1([H])N(C(=O)C([H])(N([H])C(=O)C([H])(N([H])C([H])([H])[H])C([H])([H])[H])C(C([H])([H])[H])(C([H])([H])[H])C([H])([H])[H])C([H])([H])c2c([H])c(OC([H])([H])C([H])([H])Oc3c([H])c([H])c(C([H])([H])N([H])C(=O)N4C([H])([H])C([H])([H])C([H])([H])C([H])(n5nc(-c6c([H])c([H])c(Oc7c([H])c([H])c(F)c([H])c7F)c([H])c6[H])c(C(=O)N([H])[H])c5N([H])[H])C4([H])[H])c([H])c3[H])c([H])c([H])c2C1([H])[H]

>  <smiles>  (54) 
[H]c1c([H])c([H])c2c(c1[H])C([H])([H])C([H])([H])C([H])([H])C2([H])N([H])C(=O)C1([H])N(C(=O)C([H])(N([H])C(=O)C([H])(N([H])C([H])([H])[H])C([H])([H])[H])C(C([H])([H])[H])(C([H])([H])[H])C([H])([H])[H])C([H])([H])c2c([H])c(OC([H])([H])C([H])([H])Oc3c([H])c([H])c(C([H])([H])N([H])C(=O)N4C([H])([H])C([H])([H])C([H])([H])C([H])(n5nc(-c6c([H])c([H])c(Oc7c([H])c([H])c(F)c([H])c7F)c([H])c6[H])c(C(=O)N([H])[H])c5N([H])[H])C4([H])[H])c([H])c3[H])c([H])c([H])c2C1([H])[H]

$$$$
56:0:0
     RDKit          3D

 90 98  0  0  1  0  0  0  0  0999 V2000
  -29.9670  -23.0390   18.4260 C   0  0  0  0  0  3  0  0  0  0  0  0
  -29.5030  -24.2280   19.0250 C   0  0  0  0  0  3  0  0  0  0  0  0
  -29.7940  -21.7950   19.0690 C   0  0  0  0  0  3  0  0  0  0  0  0
  -28.6870  -22.9260   20.9150 C   0  0  0  0  0  3  0  0  0  0  0  0
  -28.8520  -24.1830   20.2760 C   0  0  0  0  0  0  0  0  0  0  0  0
  -29.1560  -21.7240   20.3260 C   0  0  0  0  0  0  0  0  0  0  0  0
  -28.3270  -25.4580   20.9480 C   0  0  0  0  0  2  0  0  0  0  0  0
  -28.4460  -26.6750   20.1790 O   0  0  0  0  0  0  0  0  0  0  0  0
  -24.6140  -31.8760   23.2040 C   0  0  0  0  0  0  0  0  0  0  0  0
  -27.2990  -27.4400   20.1590 C   0  0  0  0  0  0  0  0  0  0  0  0
  -23.4280  -30.4670   21.5540 C   0  0  0  0  0  3  0  0  0  0  0  0
  -24.9010  -28.9360   20.1400 C   0  0  0  0  0  0  0  0  0  0  0  0
  -25.9520  -30.8420   21.3700 C   0  0  0  0  0  2  0  0  0  0  0  0
  -26.0520  -29.4680   20.7360 C   0  0  0  0  0  0  0  0  0  0  0  0
  -27.2580  -28.7290   20.7390 C   0  0  0  0  0  3  0  0  0  0  0  0
  -26.1350  -26.9240   19.5530 C   0  0  0  0  0  3  0  0  0  0  0  0
  -24.9370  -27.6630   19.5440 C   0  0  0  0  0  3  0  0  0  0  0  0
  -23.6500  -29.7870   20.1760 C   0  0  0  0  0  2  0  0  0  0  0  0
  -24.6820  -31.0770   22.1020 N   0  0  0  0  0  0  0  0  0  0  0  0
  -23.5290  -32.1420   23.7370 O   0  0  0  0  0  0  0  0  0  0  0  0
  -22.7740  -29.4430   22.5110 C   0  0  0  0  0  0  0  0  0  0  0  0
  -21.4480  -29.2710   22.3910 N   0  0  0  0  0  0  0  0  0  0  0  0
  -23.4580  -28.8060   23.3170 O   0  0  0  0  0  0  0  0  0  0  0  0
  -20.9570  -29.8370   21.7120 H   0  0  0  0  0  0  0  0  0  0  0  0
  -18.0640  -28.1210   22.9190 C   0  0  0  0  0  0  0  0  0  0  0  0
  -20.6290  -28.3340   23.1580 C   0  0  0  0  0  3  0  0  0  0  0  0
  -20.7010  -26.9120   22.5550 C   0  0  0  0  0  2  0  0  0  0  0  0
  -19.5790  -26.6240   21.5520 C   0  0  0  0  0  2  0  0  0  0  0  0
  -18.2080  -26.7800   22.2200 C   0  0  0  0  0  2  0  0  0  0  0  0
  -19.2000  -28.8570   23.3460 C   0  0  0  0  0  0  0  0  0  0  0  0
  -19.0110  -30.1150   23.9600 C   0  0  0  0  0  3  0  0  0  0  0  0
  -17.7170  -30.6350   24.1520 C   0  0  0  0  0  3  0  0  0  0  0  0
  -16.5950  -29.8940   23.7420 C   0  0  0  0  0  3  0  0  0  0  0  0
  -16.7700  -28.6390   23.1320 C   0  0  0  0  0  3  0  0  0  0  0  0
  -25.8930  -32.5140   23.8330 C   0  0  0  0  0  3  0  0  0  0  0  0
  -25.5730  -33.9060   24.1720 N   0  0  0  0  0  0  0  0  0  0  0  0
  -25.8930  -34.9650   23.4160 C   0  0  0  0  0  0  0  0  0  0  0  0
  -26.5630  -34.8730   22.3830 O   0  0  0  0  0  0  0  0  0  0  0  0
  -24.9810  -34.0520   24.9770 H   0  0  0  0  0  0  0  0  0  0  0  0
  -24.1540  -36.7460   23.0620 C   0  0  0  0  0  1  0  0  0  0  0  0
  -25.3930  -36.3470   23.8790 C   0  0  0  0  0  3  0  0  0  0  0  0
  -27.5130  -37.2450   24.7320 C   0  0  0  0  0  1  0  0  0  0  0  0
  -26.4180  -37.4080   23.7800 N   0  0  0  0  0  0  0  0  0  0  0  0
  -26.0030  -38.3240   23.9250 H   0  0  0  0  0  0  0  0  0  0  0  0
  -26.4140  -31.7360   25.1040 C   0  0  1  0  0  0  0  0  0  0  0  0
  -25.3230  -31.4780   26.1670 C   0  0  0  0  0  1  0  0  0  0  0  0
  -27.0110  -30.3680   24.6970 C   0  0  0  0  0  1  0  0  0  0  0  0
  -27.5570  -32.5340   25.7750 C   0  0  0  0  0  1  0  0  0  0  0  0
  -28.9120  -20.3700   21.0090 C   0  0  0  0  0  2  0  0  0  0  0  0
  -29.7850  -19.3140   20.5760 O   0  0  0  0  0  0  0  0  0  0  0  0
  -29.4090  -18.0120   21.0530 C   0  0  0  0  0  2  0  0  0  0  0  0
  -30.4550  -16.9470   20.6350 C   0  0  0  0  0  2  0  0  0  0  0  0
  -30.6890  -14.4930   20.3170 C   0  0  0  0  0  0  0  0  0  0  0  0
  -30.3310  -12.3500   19.1580 C   0  0  0  0  0  2  0  0  0  0  0  0
  -29.3750  -12.5960   17.9730 C   0  0  0  0  0  2  0  0  0  0  0  0
  -27.9080  -12.4670   18.4280 C   0  0  0  0  0  2  0  0  0  0  0  0
  -27.6040  -13.2840   19.7140 C   0  0  0  0  0  3  0  0  0  0  0  0
  -28.6800  -13.0430   20.7980 C   0  0  0  0  0  2  0  0  0  0  0  0
  -29.9950  -13.3290   20.2050 N   0  0  0  0  0  0  0  0  0  0  0  0
  -31.8130  -14.6510   19.8340 O   0  0  0  0  0  0  0  0  0  0  0  0
  -30.0100  -15.5490   20.8050 N   0  0  0  0  0  0  0  0  0  0  0  0
  -29.0840  -15.3810   21.1700 H   0  0  0  0  0  0  0  0  0  0  0  0
  -25.2250  -13.8990   20.4780 C   0  0  0  0  0  0  0  0  0  0  0  0
  -24.1590  -13.1290   20.8610 C   0  0  0  0  0  0  0  0  0  0  0  0
  -24.6100  -11.7750   20.8050 C   0  0  0  0  0  0  0  0  0  0  0  0
  -26.2580  -13.0130   20.2160 N   0  0  0  0  0  0  0  0  0  0  0  0
  -25.8930  -11.7300   20.4690 N   0  0  0  0  0  0  0  0  0  0  0  0
  -23.8780  -10.5160   20.9970 C   0  0  0  0  0  0  0  0  0  0  0  0
  -24.3120   -9.5430   21.9240 C   0  0  0  0  0  3  0  0  0  0  0  0
  -23.5800   -8.3490   22.1040 C   0  0  0  0  0  3  0  0  0  0  0  0
  -22.4010   -8.1200   21.3560 C   0  0  0  0  0  0  0  0  0  0  0  0
  -21.9860   -9.0820   20.4180 C   0  0  0  0  0  3  0  0  0  0  0  0
  -22.7170  -10.2670   20.2370 C   0  0  0  0  0  3  0  0  0  0  0  0
  -21.6420   -6.9780   21.4450 O   0  0  0  0  0  0  0  0  0  0  0  0
  -21.5830   -6.2390   22.6000 C   0  0  0  0  0  0  0  0  0  0  0  0
  -21.1320   -6.7940   23.8170 C   0  0  0  0  0  3  0  0  0  0  0  0
  -21.0230   -5.9830   24.9640 C   0  0  0  0  0  3  0  0  0  0  0  0
  -21.3550   -4.6160   24.8940 C   0  0  0  0  0  0  0  0  0  0  0  0
  -21.7990   -4.0610   23.6810 C   0  0  0  0  0  3  0  0  0  0  0  0
  -21.9110   -4.8700   22.5370 C   0  0  0  0  0  0  0  0  0  0  0  0
  -22.3200   -4.3250   21.3660 F   0  0  0  0  0  0  0  0  0  0  0  0
  -21.2420   -3.8340   25.9920 F   0  0  0  0  0  0  0  0  0  0  0  0
  -22.7710  -13.6150   21.1700 C   0  0  0  0  0  0  0  0  0  0  0  0
  -22.0540  -12.9110   22.0380 N   0  0  0  0  0  0  0  0  0  0  0  0
  -22.3330  -14.6510   20.6740 O   0  0  0  0  0  0  0  0  0  0  0  0
  -22.4220  -12.0720   22.4630 H   0  0  0  0  0  0  0  0  0  0  0  0
  -21.1240  -13.2170   22.2860 H   0  0  0  0  0  0  0  0  0  0  0  0
  -25.3960  -15.2700   20.3130 N   0  0  0  0  0  0  0  0  0  0  0  0
  -24.6320  -15.9250   20.4390 H   0  0  0  0  0  0  0  0  0  0  0  0
  -26.2380  -15.7060   19.9620 H   0  0  0  0  0  0  0  0  0  0  0  0
  1  2  2  0
  1  3  1  0
  2  5  1  0
  3  6  2  0
  5  4  2  0
  5  7  1  0
  6  4  1  0
  6 49  1  0
  8  7  1  0
  9 20  2  0
 10  8  1  0
 10 15  1  0
 11 19  1  0
 11 21  1  0
 12 18  1  0
 12 14  1  0
 13 19  1  0
 14 15  2  0
 14 13  1  0
 16 10  2  0
 17 16  1  0
 17 12  2  0
 18 11  1  0
 19  9  1  0
 21 23  2  0
 22 21  1  0
 24 22  1  0
 25 34  2  0
 25 30  1  0
 26 22  1  0
 26 30  1  0
 27 26  1  0
 28 29  1  0
 28 27  1  0
 29 25  1  0
 30 31  2  0
 31 32  1  0
 33 32  2  0
 34 33  1  0
 35  9  1  0
 35 36  1  0
 35 45  1  0
 36 39  1  0
 37 41  1  0
 37 36  1  0
 38 37  2  0
 41 40  1  0
 43 41  1  0
 43 44  1  0
 43 42  1  0
 45 48  1  1
 45 46  1  0
 47 45  1  0
 50 49  1  0
 50 51  1  0
 52 61  1  0
 52 51  1  0
 53 61  1  0
 54 59  1  0
 55 56  1  0
 55 54  1  0
 57 56  1  0
 57 66  1  0
 57 58  1  0
 59 53  1  0
 59 58  1  0
 60 53  2  0
 61 62  1  0
 63 64  2  0
 64 83  1  0
 65 64  1  0
 65 68  1  0
 66 67  1  0
 66 63  1  0
 67 65  2  0
 68 69  1  0
 69 70  2  0
 71 74  1  0
 71 70  1  0
 72 71  2  0
 73 72  1  0
 73 68  2  0
 74 75  1  0
 75 76  1  0
 76 77  2  0
 78 77  1  0
 78 82  1  0
 79 78  2  0
 80 75  2  0
 80 79  1  0
 81 80  1  0
 83 84  1  0
 84 87  1  0
 84 86  1  0
 85 83  2  0
 88 89  1  0
 88 63  1  0
 90 88  1  0
M  ISO  4   7 101   8 101  53 100  61 100
M  END
>  <TORSDO>  (55) 
F 21

>  <SCORE>  (55) 
-13.313

>  <name>  (55) 
56

>  <ligand_id>  (55) 
56

>  <original_smiles>  (55) 
[H]c1c([H])c(C([H])([H])Oc2c([H])c([H])c3c(c2[H])C([H])([H])N(C(=O)C([H])(N([H])C(=O)C([H])(N([H])C([H])([H])[H])C([H])([H])[H])C(C([H])([H])[H])(C([H])([H])[H])C([H])([H])[H])C([H])(C(=O)N([H])C2([H])c4c([H])c([H])c([H])c([H])c4C([H])([H])C([H])([H])C2([H])[H])C3([H])[H])c([H])c(C([H])([H])OC([H])([H])C([H])([H])N([H])C(=O)N2C([H])([H])C([H])([H])C([H])([H])C([H])(n3nc(-c4c([H])c([H])c(Oc5c([H])c([H])c(F)c([H])c5F)c([H])c4[H])c(C(=O)N([H])[H])c3N([H])[H])C2([H])[H])c1[H]

>  <smiles>  (55) 
[H]c1c([H])c(C([H])([H])Oc2c([H])c([H])c3c(c2[H])C([H])([H])N(C(=O)C([H])(N([H])C(=O)C([H])(N([H])C([H])([H])[H])C([H])([H])[H])C(C([H])([H])[H])(C([H])([H])[H])C([H])([H])[H])C([H])(C(=O)N([H])C2([H])c4c([H])c([H])c([H])c([H])c4C([H])([H])C([H])([H])C2([H])[H])C3([H])[H])c([H])c(C([H])([H])OC([H])([H])C([H])([H])N([H])C(=O)N2C([H])([H])C([H])([H])C([H])([H])C([H])(n3nc(-c4c([H])c([H])c(Oc5c([H])c([H])c(F)c([H])c5F)c([H])c4[H])c(C(=O)N([H])[H])c3N([H])[H])C2([H])[H])c1[H]

$$$$
57:0:0
     RDKit          3D

 94102  0  0  1  0  0  0  0  0999 V2000
  -24.9080  -20.0840   18.7060 C   0  0  0  0  0  2  0  0  0  0  0  0
  -25.7550  -18.9790   19.3530 C   0  0  0  0  0  2  0  0  0  0  0  0
  -26.8650  -18.6720   18.5180 O   0  0  0  0  0  0  0  0  0  0  0  0
  -29.1890  -16.9940   20.9240 C   0  0  0  0  0  3  0  0  0  0  0  0
  -29.9750  -16.7120   18.6360 C   0  0  0  0  0  3  0  0  0  0  0  0
  -28.0810  -17.7270   20.4540 C   0  0  0  0  0  3  0  0  0  0  0  0
  -28.8730  -17.4530   18.1700 C   0  0  0  0  0  3  0  0  0  0  0  0
  -30.1380  -16.4770   20.0210 C   0  0  0  0  0  0  0  0  0  0  0  0
  -27.9160  -17.9690   19.0660 C   0  0  0  0  0  0  0  0  0  0  0  0
  -31.8340  -14.7140   19.9930 C   0  0  0  0  0  0  0  0  0  0  0  0
  -31.6110  -12.3160   19.4470 C   0  0  0  0  0  2  0  0  0  0  0  0
  -30.7060  -12.0880   18.2240 C   0  0  0  0  0  2  0  0  0  0  0  0
  -29.2330  -11.9940   18.6610 C   0  0  0  0  0  2  0  0  0  0  0  0
  -28.8100  -13.1620   19.5900 C   0  0  0  0  0  3  0  0  0  0  0  0
  -29.8310  -13.3560   20.7320 C   0  0  0  0  0  2  0  0  0  0  0  0
  -31.1600  -13.5400   20.1240 N   0  0  0  0  0  0  0  0  0  0  0  0
  -32.9120  -14.8130   19.4040 O   0  0  0  0  0  0  0  0  0  0  0  0
  -31.2770  -15.8060   20.5360 N   0  0  0  0  0  0  0  0  0  0  0  0
  -31.9840  -16.4550   20.8480 H   0  0  0  0  0  0  0  0  0  0  0  0
  -26.4620  -13.9130   20.3260 C   0  0  0  0  0  0  0  0  0  0  0  0
  -25.3590  -13.2110   20.7220 C   0  0  0  0  0  0  0  0  0  0  0  0
  -25.7470  -11.8350   20.7170 C   0  0  0  0  0  0  0  0  0  0  0  0
  -27.4550  -12.9740   20.0990 N   0  0  0  0  0  0  0  0  0  0  0  0
  -27.0280  -11.7190   20.3910 N   0  0  0  0  0  0  0  0  0  0  0  0
  -24.9590  -10.6210   20.9510 C   0  0  0  0  0  0  0  0  0  0  0  0
  -25.1300   -9.8430   22.1180 C   0  0  0  0  0  3  0  0  0  0  0  0
  -24.3500   -8.6870   22.3280 C   0  0  0  0  0  3  0  0  0  0  0  0
  -23.3840   -8.2990   21.3690 C   0  0  0  0  0  0  0  0  0  0  0  0
  -23.2310   -9.0640   20.1990 C   0  0  0  0  0  3  0  0  0  0  0  0
  -24.0130  -10.2130   19.9890 C   0  0  0  0  0  3  0  0  0  0  0  0
  -22.5990   -7.1750   21.4760 O   0  0  0  0  0  0  0  0  0  0  0  0
  -21.9800   -6.8410   22.6530 C   0  0  0  0  0  0  0  0  0  0  0  0
  -21.0340   -7.6920   23.2660 C   0  0  0  0  0  3  0  0  0  0  0  0
  -20.3720   -7.2790   24.4380 C   0  0  0  0  0  3  0  0  0  0  0  0
  -20.6430   -6.0150   24.9940 C   0  0  0  0  0  0  0  0  0  0  0  0
  -21.5790   -5.1630   24.3810 C   0  0  0  0  0  3  0  0  0  0  0  0
  -22.2440   -5.5750   23.2140 C   0  0  0  0  0  0  0  0  0  0  0  0
  -23.1310   -4.7420   22.6170 F   0  0  0  0  0  0  0  0  0  0  0  0
  -20.0000   -5.6140   26.1160 F   0  0  0  0  0  0  0  0  0  0  0  0
  -23.9960  -13.7710   21.0050 C   0  0  0  0  0  0  0  0  0  0  0  0
  -23.2150  -13.0950   21.8380 N   0  0  0  0  0  0  0  0  0  0  0  0
  -23.6330  -14.8450   20.5260 O   0  0  0  0  0  0  0  0  0  0  0  0
  -23.5200  -12.2230   22.2460 H   0  0  0  0  0  0  0  0  0  0  0  0
  -22.3020  -13.4540   22.0740 H   0  0  0  0  0  0  0  0  0  0  0  0
  -26.6990  -15.2680   20.1250 N   0  0  0  0  0  0  0  0  0  0  0  0
  -26.0000  -15.9720   20.3230 H   0  0  0  0  0  0  0  0  0  0  0  0
  -27.6180  -15.6560   19.9520 H   0  0  0  0  0  0  0  0  0  0  0  0
  -25.5200  -21.3490   18.9390 O   0  0  0  0  0  0  0  0  0  0  0  0
  -26.1210  -21.9330   17.7910 C   0  0  0  0  0  2  0  0  0  0  0  0
  -26.8200  -23.2410   18.1980 C   0  0  0  0  0  2  0  0  0  0  0  0
  -28.2330  -23.0530   18.2600 O   0  0  0  0  0  0  0  0  0  0  0  0
  -28.9070  -23.9830   19.1090 C   0  0  0  0  0  2  0  0  0  0  0  0
  -29.5750  -25.1210   18.2950 C   0  0  0  0  0  2  0  0  0  0  0  0
  -29.5330  -26.3940   18.9560 O   0  0  0  0  0  0  0  0  0  0  0  0
  -25.2980  -29.7960   23.5290 C   0  0  0  0  0  0  0  0  0  0  0  0
  -28.3170  -27.0240   19.1270 C   0  0  0  0  0  0  0  0  0  0  0  0
  -24.2570  -29.1660   21.3740 C   0  0  0  0  0  3  0  0  0  0  0  0
  -25.8630  -28.3580   19.5670 C   0  0  0  0  0  0  0  0  0  0  0  0
  -26.7740  -29.6100   21.5310 C   0  0  0  0  0  2  0  0  0  0  0  0
  -26.9580  -28.6210   20.3990 C   0  0  0  0  0  0  0  0  0  0  0  0
  -28.1880  -27.9580   20.1800 C   0  0  0  0  0  3  0  0  0  0  0  0
  -27.2000  -26.7790   18.2940 C   0  0  0  0  0  3  0  0  0  0  0  0
  -25.9780  -27.4370   18.5140 C   0  0  0  0  0  3  0  0  0  0  0  0
  -24.5800  -29.1000   19.8570 C   0  0  0  0  0  2  0  0  0  0  0  0
  -25.4560  -29.5140   22.2040 N   0  0  0  0  0  0  0  0  0  0  0  0
  -24.1770  -29.8080   24.0550 O   0  0  0  0  0  0  0  0  0  0  0  0
  -23.5980  -27.8330   21.7930 C   0  0  0  0  0  0  0  0  0  0  0  0
  -22.3110  -27.6680   21.4500 N   0  0  0  0  0  0  0  0  0  0  0  0
  -24.2480  -26.9630   22.3800 O   0  0  0  0  0  0  0  0  0  0  0  0
  -21.8480  -28.4350   20.9830 H   0  0  0  0  0  0  0  0  0  0  0  0
  -19.0240  -26.2330   21.0030 C   0  0  0  0  0  0  0  0  0  0  0  0
  -21.5000  -26.4780   21.7010 C   0  0  0  0  0  3  0  0  0  0  0  0
  -21.7940  -25.3640   20.6690 C   0  0  0  0  0  2  0  0  0  0  0  0
  -20.8480  -25.3890   19.4630 C   0  0  0  0  0  2  0  0  0  0  0  0
  -19.3970  -25.2280   19.9260 C   0  0  0  0  0  2  0  0  0  0  0  0
  -20.0130  -26.8290   21.8300 C   0  0  0  0  0  0  0  0  0  0  0  0
  -19.6190  -27.7800   22.7960 C   0  0  0  0  0  3  0  0  0  0  0  0
  -18.2640  -28.1330   22.9440 C   0  0  0  0  0  3  0  0  0  0  0  0
  -17.2880  -27.5280   22.1350 C   0  0  0  0  0  3  0  0  0  0  0  0
  -17.6670  -26.5760   21.1720 C   0  0  0  0  0  3  0  0  0  0  0  0
  -26.5190  -30.1450   24.4370 C   0  0  0  0  0  3  0  0  0  0  0  0
  -26.6870  -29.1620   25.6570 C   0  0  1  0  0  0  0  0  0  0  0  0
  -25.4080  -29.0000   26.5110 C   0  0  0  0  0  1  0  0  0  0  0  0
  -27.1040  -27.7550   25.1710 C   0  0  0  0  0  1  0  0  0  0  0  0
  -27.8200  -29.6640   26.5820 C   0  0  0  0  0  1  0  0  0  0  0  0
  -26.3410  -31.5260   24.9020 N   0  0  0  0  0  0  0  0  0  0  0  0
  -27.0300  -32.5790   24.4420 C   0  0  0  0  0  0  0  0  0  0  0  0
  -27.9470  -32.4750   23.6220 O   0  0  0  0  0  0  0  0  0  0  0  0
  -25.5710  -31.6910   25.5340 H   0  0  0  0  0  0  0  0  0  0  0  0
  -25.8780  -34.7450   23.8980 C   0  0  0  0  0  1  0  0  0  0  0  0
  -26.6440  -33.9690   24.9810 C   0  0  0  0  0  3  0  0  0  0  0  0
  -28.4200  -34.2460   26.6520 C   0  0  0  0  0  1  0  0  0  0  0  0
  -27.8030  -34.7680   25.4350 N   0  0  0  0  0  0  0  0  0  0  0  0
  -27.5310  -35.7310   25.6070 H   0  0  0  0  0  0  0  0  0  0  0  0
  1 48  1  0
  1  2  1  0
  3  9  1  0
  3  2  1  0
  5  8  1  0
  6  4  1  0
  7  5  2  0
  7  9  1  0
  8 18  1  0
  8  4  2  0
  9  6  2  0
 10 16  1  0
 10 18  1  0
 11 16  1  0
 12 13  1  0
 12 11  1  0
 14 13  1  0
 14 23  1  0
 14 15  1  0
 16 15  1  0
 17 10  2  0
 18 19  1  0
 20 21  2  0
 21 40  1  0
 22 21  1  0
 22 25  1  0
 23 20  1  0
 23 24  1  0
 24 22  2  0
 25 26  1  0
 26 27  2  0
 28 31  1  0
 28 27  1  0
 29 28  2  0
 30 29  1  0
 30 25  2  0
 31 32  1  0
 32 37  2  0
 32 33  1  0
 33 34  2  0
 34 35  1  0
 35 39  1  0
 36 35  2  0
 37 36  1  0
 38 37  1  0
 40 41  1  0
 41 44  1  0
 41 43  1  0
 42 40  2  0
 45 46  1  0
 45 20  1  0
 47 45  1  0
 49 50  1  0
 49 48  1  0
 50 51  1  0
 51 52  1  0
 53 54  1  0
 53 52  1  0
 54 56  1  0
 55 66  2  0
 56 61  1  0
 57 67  1  0
 57 65  1  0
 58 64  1  0
 58 60  1  0
 59 65  1  0
 60 59  1  0
 61 60  2  0
 62 63  1  0
 62 56  2  0
 63 58  2  0
 64 57  1  0
 65 55  1  0
 67 69  2  0
 68 67  1  0
 70 68  1  0
 71 80  2  0
 71 76  1  0
 72 68  1  0
 72 76  1  0
 73 72  1  0
 74 75  1  0
 74 73  1  0
 75 71  1  0
 76 77  2  0
 77 78  1  0
 79 78  2  0
 80 79  1  0
 81 55  1  0
 81 86  1  0
 81 82  1  0
 82 83  1  1
 82 85  1  0
 84 82  1  0
 86 89  1  0
 87 86  1  0
 87 91  1  0
 88 87  2  0
 91 90  1  0
 91 93  1  0
 93 94  1  0
 93 92  1  0
M  ISO  4  10 100  18 100  53 101  54 101
M  END
>  <TORSDO>  (56) 
F 25

>  <SCORE>  (56) 
-6.620

>  <name>  (56) 
57

>  <ligand_id>  (56) 
57

>  <original_smiles>  (56) 
[H]c1c([H])c([H])c2c(c1[H])C([H])([H])C([H])([H])C([H])([H])C2([H])N([H])C(=O)C1([H])N(C(=O)C([H])(N([H])C(=O)C([H])(N([H])C([H])([H])[H])C([H])([H])[H])C(C([H])([H])[H])(C([H])([H])[H])C([H])([H])[H])C([H])([H])c2c([H])c(OC([H])([H])C([H])([H])OC([H])([H])C([H])([H])OC([H])([H])C([H])([H])Oc3c([H])c([H])c(N([H])C(=O)N4C([H])([H])C([H])([H])C([H])([H])C([H])(n5nc(-c6c([H])c([H])c(Oc7c([H])c([H])c(F)c([H])c7F)c([H])c6[H])c(C(=O)N([H])[H])c5N([H])[H])C4([H])[H])c([H])c3[H])c([H])c([H])c2C1([H])[H]

>  <smiles>  (56) 
[H]c1c([H])c([H])c2c(c1[H])C([H])([H])C([H])([H])C([H])([H])C2([H])N([H])C(=O)C1([H])N(C(=O)C([H])(N([H])C(=O)C([H])(N([H])C([H])([H])[H])C([H])([H])[H])C(C([H])([H])[H])(C([H])([H])[H])C([H])([H])[H])C([H])([H])c2c([H])c(OC([H])([H])C([H])([H])OC([H])([H])C([H])([H])OC([H])([H])C([H])([H])Oc3c([H])c([H])c(N([H])C(=O)N4C([H])([H])C([H])([H])C([H])([H])C([H])(n5nc(-c6c([H])c([H])c(Oc7c([H])c([H])c(F)c([H])c7F)c([H])c6[H])c(C(=O)N([H])[H])c5N([H])[H])C4([H])[H])c([H])c3[H])c([H])c([H])c2C1([H])[H]

$$$$
58:0:0
     RDKit          3D

 89 97  0  0  1  0  0  0  0  0999 V2000
  -29.5440  -21.4810   19.8000 O   0  0  0  0  0  0  0  0  0  0  0  0
  -30.2950  -17.8220   19.2330 C   0  0  0  0  0  3  0  0  0  0  0  0
  -29.6100  -18.0620   21.5290 C   0  0  0  0  0  3  0  0  0  0  0  0
  -30.1380  -19.2310   19.0550 C   0  0  0  0  0  3  0  0  0  0  0  0
  -29.4900  -19.4810   21.3580 C   0  0  0  0  0  3  0  0  0  0  0  0
  -30.0110  -17.1830   20.4750 C   0  0  0  0  0  0  0  0  0  0  0  0
  -29.7280  -20.1090   20.1010 C   0  0  0  0  0  0  0  0  0  0  0  0
  -30.6810  -14.6900   20.0640 C   0  0  0  0  0  0  0  0  0  0  0  0
  -30.4070  -12.4780   18.9480 C   0  0  0  0  0  2  0  0  0  0  0  0
  -29.4060  -12.6530   17.7840 C   0  0  0  0  0  2  0  0  0  0  0  0
  -27.9570  -12.4770   18.2740 C   0  0  0  0  0  2  0  0  0  0  0  0
  -27.6670  -13.2830   19.5690 C   0  0  0  0  0  3  0  0  0  0  0  0
  -28.7820  -13.0970   20.6240 C   0  0  0  0  0  2  0  0  0  0  0  0
  -30.0640  -13.4630   19.9990 N   0  0  0  0  0  0  0  0  0  0  0  0
  -31.7780  -14.8690   19.5220 O   0  0  0  0  0  0  0  0  0  0  0  0
  -30.0080  -15.7210   20.6770 N   0  0  0  0  0  0  0  0  0  0  0  0
  -29.2980  -15.3940   21.3180 H   0  0  0  0  0  0  0  0  0  0  0  0
  -25.3150  -13.8610   20.4180 C   0  0  0  0  0  0  0  0  0  0  0  0
  -24.2640  -13.0810   20.8230 C   0  0  0  0  0  0  0  0  0  0  0  0
  -24.7220  -11.7300   20.7360 C   0  0  0  0  0  0  0  0  0  0  0  0
  -26.3440  -12.9850   20.1100 N   0  0  0  0  0  0  0  0  0  0  0  0
  -25.9970  -11.6970   20.3590 N   0  0  0  0  0  0  0  0  0  0  0  0
  -24.0000  -10.4630   20.9290 C   0  0  0  0  0  0  0  0  0  0  0  0
  -24.4340   -9.5050   21.8700 C   0  0  0  0  0  3  0  0  0  0  0  0
  -23.7110   -8.3070   22.0570 C   0  0  0  0  0  3  0  0  0  0  0  0
  -22.5420   -8.0580   21.3020 C   0  0  0  0  0  0  0  0  0  0  0  0
  -22.1280   -9.0050   20.3490 C   0  0  0  0  0  3  0  0  0  0  0  0
  -22.8510  -10.1940   20.1600 C   0  0  0  0  0  3  0  0  0  0  0  0
  -21.7930   -6.9100   21.3950 O   0  0  0  0  0  0  0  0  0  0  0  0
  -21.6850   -6.2140   22.5740 C   0  0  0  0  0  0  0  0  0  0  0  0
  -21.1710   -6.8070   23.7460 C   0  0  0  0  0  3  0  0  0  0  0  0
  -21.0150   -6.0350   24.9150 C   0  0  0  0  0  3  0  0  0  0  0  0
  -21.3580   -4.6720   24.9110 C   0  0  0  0  0  0  0  0  0  0  0  0
  -21.8680   -4.0770   23.7420 C   0  0  0  0  0  3  0  0  0  0  0  0
  -22.0250   -4.8450   22.5760 C   0  0  0  0  0  0  0  0  0  0  0  0
  -22.4920   -4.2620   21.4470 F   0  0  0  0  0  0  0  0  0  0  0  0
  -21.2020   -3.9290   26.0300 F   0  0  0  0  0  0  0  0  0  0  0  0
  -22.8840  -13.5550   21.1750 C   0  0  0  0  0  0  0  0  0  0  0  0
  -22.1950  -12.8410   22.0630 N   0  0  0  0  0  0  0  0  0  0  0  0
  -22.4230  -14.5940   20.7030 O   0  0  0  0  0  0  0  0  0  0  0  0
  -22.5800  -12.0020   22.4720 H   0  0  0  0  0  0  0  0  0  0  0  0
  -21.2690  -13.1360   22.3320 H   0  0  0  0  0  0  0  0  0  0  0  0
  -25.4750  -15.2350   20.2710 N   0  0  0  0  0  0  0  0  0  0  0  0
  -24.7240  -15.8930   20.4490 H   0  0  0  0  0  0  0  0  0  0  0  0
  -26.3150  -15.6820   19.9300 H   0  0  0  0  0  0  0  0  0  0  0  0
  -29.5360  -22.5380   20.8210 C   0  0  0  0  0  2  0  0  0  0  0  0
  -29.6060  -24.0830   20.3680 C   0  0  0  0  0  3  0  0  0  0  0  0
  -28.3060  -24.9980   20.2520 C   0  0  0  0  0  3  0  0  0  0  0  0
  -28.4640  -26.4780   20.2340 O   0  0  0  0  0  0  0  0  0  0  0  0
  -24.6350  -31.8460   23.2070 C   0  0  0  0  0  0  0  0  0  0  0  0
  -27.3140  -27.2920   20.1940 C   0  0  0  0  0  0  0  0  0  0  0  0
  -23.4500  -30.4330   21.5650 C   0  0  0  0  0  3  0  0  0  0  0  0
  -24.9230  -28.8770   20.1610 C   0  0  0  0  0  0  0  0  0  0  0  0
  -25.9890  -30.7640   21.3990 C   0  0  0  0  0  2  0  0  0  0  0  0
  -26.0830  -29.3840   20.7600 C   0  0  0  0  0  0  0  0  0  0  0  0
  -27.2790  -28.6040   20.7640 C   0  0  0  0  0  3  0  0  0  0  0  0
  -26.1260  -26.8340   19.5790 C   0  0  0  0  0  3  0  0  0  0  0  0
  -24.9470  -27.6060   19.5630 C   0  0  0  0  0  3  0  0  0  0  0  0
  -23.6760  -29.7400   20.1940 C   0  0  0  0  0  2  0  0  0  0  0  0
  -24.7100  -31.0330   22.1130 N   0  0  0  0  0  0  0  0  0  0  0  0
  -23.5480  -32.1220   23.7320 O   0  0  0  0  0  0  0  0  0  0  0  0
  -22.7860  -29.4210   22.5280 C   0  0  0  0  0  0  0  0  0  0  0  0
  -21.4620  -29.2400   22.3930 N   0  0  0  0  0  0  0  0  0  0  0  0
  -23.4610  -28.7970   23.3520 O   0  0  0  0  0  0  0  0  0  0  0  0
  -20.9810  -29.7870   21.6940 H   0  0  0  0  0  0  0  0  0  0  0  0
  -18.0800  -28.0600   22.8960 C   0  0  0  0  0  0  0  0  0  0  0  0
  -20.6400  -28.3050   23.1600 C   0  0  0  0  0  3  0  0  0  0  0  0
  -20.7370  -26.8770   22.5740 C   0  0  0  0  0  2  0  0  0  0  0  0
  -19.6290  -26.5640   21.5650 C   0  0  0  0  0  2  0  0  0  0  0  0
  -18.2490  -26.7140   22.2100 C   0  0  0  0  0  2  0  0  0  0  0  0
  -19.2040  -28.8150   23.3260 C   0  0  0  0  0  0  0  0  0  0  0  0
  -18.9940  -30.0760   23.9240 C   0  0  0  0  0  3  0  0  0  0  0  0
  -17.6920  -30.5810   24.1000 C   0  0  0  0  0  3  0  0  0  0  0  0
  -16.5830  -29.8240   23.6860 C   0  0  0  0  0  3  0  0  0  0  0  0
  -16.7780  -28.5660   23.0900 C   0  0  0  0  0  3  0  0  0  0  0  0
  -25.9120  -32.4860   23.8370 C   0  0  0  0  0  3  0  0  0  0  0  0
  -26.4240  -31.7160   25.1150 C   0  0  1  0  0  0  0  0  0  0  0  0
  -25.3250  -31.4660   26.1740 C   0  0  0  0  0  1  0  0  0  0  0  0
  -27.0240  -30.3450   24.7260 C   0  0  0  0  0  1  0  0  0  0  0  0
  -27.5650  -32.5170   25.7860 C   0  0  0  0  0  1  0  0  0  0  0  0
  -25.5930  -33.8820   24.1710 N   0  0  0  0  0  0  0  0  0  0  0  0
  -25.9220  -34.9400   23.4160 C   0  0  0  0  0  0  0  0  0  0  0  0
  -26.5960  -34.8420   22.3870 O   0  0  0  0  0  0  0  0  0  0  0  0
  -25.0020  -34.0290   24.9740 H   0  0  0  0  0  0  0  0  0  0  0  0
  -24.1860  -36.7230   23.0530 C   0  0  0  0  0  1  0  0  0  0  0  0
  -25.4230  -36.3230   23.8750 C   0  0  0  0  0  3  0  0  0  0  0  0
  -27.5440  -37.2150   24.7320 C   0  0  0  0  0  1  0  0  0  0  0  0
  -26.4500  -37.3830   23.7760 N   0  0  0  0  0  0  0  0  0  0  0  0
  -26.0400  -38.3000   23.9230 H   0  0  0  0  0  0  0  0  0  0  0  0
  1  7  1  0
  1 46  1  0
  2  6  1  0
  4  2  2  0
  4  7  1  0
  5  3  1  0
  6 16  1  0
  6  3  2  0
  7  5  2  0
  8 16  1  0
  9 14  1  0
 10 11  1  0
 10  9  1  0
 12 11  1  0
 12 21  1  0
 12 13  1  0
 14  8  1  0
 14 13  1  0
 15  8  2  0
 16 17  1  0
 18 19  2  0
 19 38  1  0
 20 19  1  0
 20 23  1  0
 21 22  1  0
 21 18  1  0
 22 20  2  0
 23 24  1  0
 24 25  2  0
 26 29  1  0
 26 25  1  0
 27 26  2  0
 28 27  1  0
 28 23  2  0
 29 30  1  0
 30 35  2  0
 30 31  1  0
 31 32  2  0
 33 32  1  0
 33 37  1  0
 34 33  2  0
 35 34  1  0
 36 35  1  0
 38 39  1  0
 39 42  1  0
 39 41  1  0
 40 38  2  0
 43 18  1  0
 43 44  1  0
 45 43  1  0
 47 46  1  0
 48 47  2  0
 49 48  1  0
 50 61  2  0
 51 49  1  0
 51 56  1  0
 52 60  1  0
 52 62  1  0
 53 59  1  0
 53 55  1  0
 54 60  1  0
 55 56  2  0
 55 54  1  0
 57 51  2  0
 58 57  1  0
 58 53  2  0
 59 52  1  0
 60 50  1  0
 62 64  2  0
 63 62  1  0
 65 63  1  0
 66 75  2  0
 66 71  1  0
 67 63  1  0
 67 71  1  0
 68 67  1  0
 69 70  1  0
 69 68  1  0
 70 66  1  0
 71 72  2  0
 72 73  1  0
 74 73  2  0
 75 74  1  0
 76 50  1  0
 76 81  1  0
 76 77  1  0
 77 80  1  1
 77 78  1  0
 79 77  1  0
 81 84  1  0
 82 86  1  0
 82 81  1  0
 83 82  2  0
 86 85  1  0
 88 86  1  0
 88 89  1  0
 88 87  1  0
M  ISO  4   8 100  16 100  48 101  49 101
M  END
>  <TORSDO>  (57) 
F 20

>  <SCORE>  (57) 
-13.067

>  <name>  (57) 
58

>  <ligand_id>  (57) 
58

>  <original_smiles>  (57) 
[H]c1c([H])c([H])c2c(c1[H])C([H])([H])C([H])([H])C([H])([H])C2([H])N([H])C(=O)C1([H])N(C(=O)C([H])(N([H])C(=O)C([H])(N([H])C([H])([H])[H])C([H])([H])[H])C(C([H])([H])[H])(C([H])([H])[H])C([H])([H])[H])C([H])([H])c2c([H])c(OC([H])([H])C([H])([H])C([H])([H])Oc3c([H])c([H])c(N([H])C(=O)N4C([H])([H])C([H])([H])C([H])([H])C([H])(n5nc(-c6c([H])c([H])c(Oc7c([H])c([H])c(F)c([H])c7F)c([H])c6[H])c(C(=O)N([H])[H])c5N([H])[H])C4([H])[H])c([H])c3[H])c([H])c([H])c2C1([H])[H]

>  <smiles>  (57) 
[H]c1c([H])c([H])c2c(c1[H])C([H])([H])C([H])([H])C([H])([H])C2([H])N([H])C(=O)C1([H])N(C(=O)C([H])(N([H])C(=O)C([H])(N([H])C([H])([H])[H])C([H])([H])[H])C(C([H])([H])[H])(C([H])([H])[H])C([H])([H])[H])C([H])([H])c2c([H])c(OC([H])([H])C([H])([H])C([H])([H])Oc3c([H])c([H])c(N([H])C(=O)N4C([H])([H])C([H])([H])C([H])([H])C([H])(n5nc(-c6c([H])c([H])c(Oc7c([H])c([H])c(F)c([H])c7F)c([H])c6[H])c(C(=O)N([H])[H])c5N([H])[H])C4([H])[H])c([H])c3[H])c([H])c([H])c2C1([H])[H]

$$$$
59:0:0
     RDKit          3D

 87 94  0  0  1  0  0  0  0  0999 V2000
  -29.1130  -22.7980   20.1480 O   0  0  0  0  0  0  0  0  0  0  0  0
  -29.2650  -24.1800   20.5710 C   0  0  0  0  0  2  0  0  0  0  0  0
  -28.1950  -25.1410   19.9510 C   0  0  0  0  0  2  0  0  0  0  0  0
  -28.3440  -26.5690   20.2300 O   0  0  0  0  0  0  0  0  0  0  0  0
  -24.6030  -31.8820   23.2540 C   0  0  0  0  0  0  0  0  0  0  0  0
  -27.2030  -27.3700   20.1730 C   0  0  0  0  0  0  0  0  0  0  0  0
  -23.3880  -30.4910   21.6140 C   0  0  0  0  0  3  0  0  0  0  0  0
  -24.8290  -28.9470   20.1790 C   0  0  0  0  0  0  0  0  0  0  0  0
  -25.9230  -30.8160   21.4190 C   0  0  0  0  0  2  0  0  0  0  0  0
  -25.9960  -29.4430   20.7740 C   0  0  0  0  0  0  0  0  0  0  0  0
  -27.1840  -28.6630   20.7670 C   0  0  0  0  0  3  0  0  0  0  0  0
  -26.0140  -26.9200   19.5460 C   0  0  0  0  0  3  0  0  0  0  0  0
  -24.8370  -27.6890   19.5590 C   0  0  0  0  0  3  0  0  0  0  0  0
  -23.5920  -29.8180   20.2320 C   0  0  0  0  0  2  0  0  0  0  0  0
  -24.6560  -31.0790   22.1530 N   0  0  0  0  0  0  0  0  0  0  0  0
  -23.5240  -32.1610   23.7950 O   0  0  0  0  0  0  0  0  0  0  0  0
  -22.7290  -29.4710   22.5730 C   0  0  0  0  0  0  0  0  0  0  0  0
  -21.4040  -29.2960   22.4460 N   0  0  0  0  0  0  0  0  0  0  0  0
  -23.4090  -28.8420   23.3890 O   0  0  0  0  0  0  0  0  0  0  0  0
  -20.9160  -29.8550   21.7610 H   0  0  0  0  0  0  0  0  0  0  0  0
  -18.0240  -28.1080   22.9390 C   0  0  0  0  0  0  0  0  0  0  0  0
  -20.5820  -28.3620   23.2170 C   0  0  0  0  0  3  0  0  0  0  0  0
  -20.6820  -26.9290   22.6440 C   0  0  0  0  0  2  0  0  0  0  0  0
  -19.5830  -26.6070   21.6270 C   0  0  0  0  0  2  0  0  0  0  0  0
  -18.2000  -26.7570   22.2670 C   0  0  0  0  0  2  0  0  0  0  0  0
  -19.1430  -28.8680   23.3700 C   0  0  0  0  0  0  0  0  0  0  0  0
  -18.9250  -30.1340   23.9590 C   0  0  0  0  0  3  0  0  0  0  0  0
  -17.6220  -30.6390   24.1180 C   0  0  0  0  0  3  0  0  0  0  0  0
  -16.5170  -29.8760   23.7040 C   0  0  0  0  0  3  0  0  0  0  0  0
  -16.7190  -28.6120   23.1200 C   0  0  0  0  0  3  0  0  0  0  0  0
  -25.8930  -32.5060   23.8720 C   0  0  0  0  0  3  0  0  0  0  0  0
  -26.4080  -31.7310   25.1470 C   0  0  1  0  0  0  0  0  0  0  0  0
  -25.3180  -31.5010   26.2190 C   0  0  0  0  0  1  0  0  0  0  0  0
  -26.9820  -30.3500   24.7520 C   0  0  0  0  0  1  0  0  0  0  0  0
  -27.5640  -32.5190   25.8080 C   0  0  0  0  0  1  0  0  0  0  0  0
  -25.5920  -33.9060   24.2030 N   0  0  0  0  0  0  0  0  0  0  0  0
  -25.9250  -34.9570   23.4410 C   0  0  0  0  0  0  0  0  0  0  0  0
  -26.5890  -34.8480   22.4060 O   0  0  0  0  0  0  0  0  0  0  0  0
  -25.0030  -34.0650   25.0080 H   0  0  0  0  0  0  0  0  0  0  0  0
  -24.2020  -36.7560   23.0930 C   0  0  0  0  0  1  0  0  0  0  0  0
  -25.4460  -36.3470   23.8980 C   0  0  0  0  0  3  0  0  0  0  0  0
  -27.5900  -37.2240   24.7140 C   0  0  0  0  0  1  0  0  0  0  0  0
  -26.4820  -37.3950   23.7780 N   0  0  0  0  0  0  0  0  0  0  0  0
  -26.0800  -38.3170   23.9270 H   0  0  0  0  0  0  0  0  0  0  0  0
  -29.8660  -21.8260   20.9130 C   0  0  0  0  0  2  0  0  0  0  0  0
  -29.9940  -20.3890   20.2800 C   0  0  0  0  0  2  0  0  0  0  0  0
  -29.6060  -19.3250   21.1790 O   0  0  0  0  0  0  0  0  0  0  0  0
  -30.3560  -18.0820   21.1900 C   0  0  0  0  0  2  0  0  0  0  0  0
  -29.9920  -17.0260   20.1000 C   0  0  0  0  0  2  0  0  0  0  0  0
  -30.6580  -14.5630   20.1340 C   0  0  0  0  0  0  0  0  0  0  0  0
  -30.3320  -12.3860   19.0110 C   0  0  0  0  0  2  0  0  0  0  0  0
  -29.3420  -12.5990   17.8440 C   0  0  0  0  0  2  0  0  0  0  0  0
  -27.8850  -12.4670   18.3310 C   0  0  0  0  0  2  0  0  0  0  0  0
  -27.6040  -13.2910   19.6150 C   0  0  0  0  0  3  0  0  0  0  0  0
  -28.7030  -13.0590   20.6790 C   0  0  0  0  0  2  0  0  0  0  0  0
  -30.0040  -13.3660   20.0610 N   0  0  0  0  0  0  0  0  0  0  0  0
  -31.7760  -14.7380   19.6440 O   0  0  0  0  0  0  0  0  0  0  0  0
  -29.9110  -15.6090   20.5580 N   0  0  0  0  0  0  0  0  0  0  0  0
  -29.0360  -15.3490   20.9880 H   0  0  0  0  0  0  0  0  0  0  0  0
  -25.2410  -13.9170   20.4180 C   0  0  0  0  0  0  0  0  0  0  0  0
  -24.1800  -13.1550   20.8240 C   0  0  0  0  0  0  0  0  0  0  0  0
  -24.6260  -11.7980   20.7700 C   0  0  0  0  0  0  0  0  0  0  0  0
  -26.2680  -13.0270   20.1440 N   0  0  0  0  0  0  0  0  0  0  0  0
  -25.9040  -11.7470   20.4140 N   0  0  0  0  0  0  0  0  0  0  0  0
  -23.8950  -10.5420   20.9820 C   0  0  0  0  0  0  0  0  0  0  0  0
  -24.3570   -9.5630   21.8880 C   0  0  0  0  0  3  0  0  0  0  0  0
  -23.6260   -8.3710   22.0880 C   0  0  0  0  0  3  0  0  0  0  0  0
  -22.4190   -8.1520   21.3830 C   0  0  0  0  0  0  0  0  0  0  0  0
  -21.9750   -9.1210   20.4660 C   0  0  0  0  0  3  0  0  0  0  0  0
  -22.7060  -10.3040   20.2640 C   0  0  0  0  0  3  0  0  0  0  0  0
  -21.6570   -7.0150   21.4950 O   0  0  0  0  0  0  0  0  0  0  0  0
  -21.6560   -6.2580   22.6390 C   0  0  0  0  0  0  0  0  0  0  0  0
  -21.3040   -6.8040   23.8930 C   0  0  0  0  0  3  0  0  0  0  0  0
  -21.2500   -5.9740   25.0310 C   0  0  0  0  0  3  0  0  0  0  0  0
  -21.5350   -4.6010   24.9170 C   0  0  0  0  0  0  0  0  0  0  0  0
  -21.8800   -4.0550   23.6680 C   0  0  0  0  0  3  0  0  0  0  0  0
  -21.9370   -4.8820   22.5310 C   0  0  0  0  0  0  0  0  0  0  0  0
  -22.2490   -4.3460   21.3260 F   0  0  0  0  0  0  0  0  0  0  0  0
  -21.4760   -3.8020   26.0080 F   0  0  0  0  0  0  0  0  0  0  0  0
  -22.7990  -13.6450   21.1510 C   0  0  0  0  0  0  0  0  0  0  0  0
  -22.0980  -12.9520   22.0420 N   0  0  0  0  0  0  0  0  0  0  0  0
  -22.3520  -14.6760   20.6520 O   0  0  0  0  0  0  0  0  0  0  0  0
  -22.4730  -12.1180   22.4680 H   0  0  0  0  0  0  0  0  0  0  0  0
  -21.1730  -13.2630   22.3040 H   0  0  0  0  0  0  0  0  0  0  0  0
  -25.4140  -15.2870   20.2390 N   0  0  0  0  0  0  0  0  0  0  0  0
  -24.6560  -15.9470   20.3780 H   0  0  0  0  0  0  0  0  0  0  0  0
  -26.2510  -15.7180   19.8670 H   0  0  0  0  0  0  0  0  0  0  0  0
  1  2  1  0
  1 45  1  0
  3  4  1  0
  3  2  1  0
  5 16  2  0
  6  4  1  0
  6 11  1  0
  7 15  1  0
  7 17  1  0
  8 14  1  0
  8 10  1  0
  9 15  1  0
 10  9  1  0
 11 10  2  0
 12 13  1  0
 12  6  2  0
 13  8  2  0
 14  7  1  0
 15  5  1  0
 17 19  2  0
 18 17  1  0
 20 18  1  0
 21 30  2  0
 21 26  1  0
 22 18  1  0
 22 26  1  0
 23 22  1  0
 24 25  1  0
 24 23  1  0
 25 21  1  0
 26 27  2  0
 27 28  1  0
 29 28  2  0
 30 29  1  0
 31  5  1  0
 31 36  1  0
 31 32  1  0
 32 35  1  1
 32 33  1  0
 34 32  1  0
 36 39  1  0
 37 41  1  0
 37 36  1  0
 38 37  2  0
 41 40  1  0
 43 41  1  0
 43 44  1  0
 43 42  1  0
 46 45  1  0
 46 47  1  0
 47 48  1  0
 49 58  1  0
 49 48  1  0
 50 58  1  0
 51 56  1  0
 52 53  1  0
 52 51  1  0
 54 53  1  0
 54 63  1  0
 54 55  1  0
 56 50  1  0
 56 55  1  0
 57 50  2  0
 58 59  1  0
 60 61  2  0
 61 80  1  0
 62 61  1  0
 62 65  1  0
 63 64  1  0
 63 60  1  0
 64 62  2  0
 65 66  1  0
 66 67  2  0
 68 71  1  0
 68 67  1  0
 69 68  2  0
 70 69  1  0
 70 65  2  0
 71 72  1  0
 72 73  1  0
 73 74  2  0
 75 74  1  0
 75 79  1  0
 76 75  2  0
 77 72  2  0
 77 76  1  0
 78 77  1  0
 80 81  1  0
 81 84  1  0
 81 83  1  0
 82 80  2  0
 85 86  1  0
 85 60  1  0
 87 85  1  0
M  ISO  4   3 101   4 101  50 100  58 100
M  END
>  <TORSDO>  (58) 
F 23

>  <SCORE>  (58) 
-12.462

>  <name>  (58) 
59

>  <ligand_id>  (58) 
59

>  <original_smiles>  (58) 
[H]c1c([H])c([H])c2c(c1[H])C([H])([H])C([H])([H])C([H])([H])C2([H])N([H])C(=O)C1([H])N(C(=O)C([H])(N([H])C(=O)C([H])(N([H])C([H])([H])[H])C([H])([H])[H])C(C([H])([H])[H])(C([H])([H])[H])C([H])([H])[H])C([H])([H])c2c([H])c(OC([H])([H])C([H])([H])OC([H])([H])C([H])([H])OC([H])([H])C([H])([H])N([H])C(=O)N3C([H])([H])C([H])([H])C([H])([H])C([H])(n4nc(-c5c([H])c([H])c(Oc6c([H])c([H])c(F)c([H])c6F)c([H])c5[H])c(C(=O)N([H])[H])c4N([H])[H])C3([H])[H])c([H])c([H])c2C1([H])[H]

>  <smiles>  (58) 
[H]c1c([H])c([H])c2c(c1[H])C([H])([H])C([H])([H])C([H])([H])C2([H])N([H])C(=O)C1([H])N(C(=O)C([H])(N([H])C(=O)C([H])(N([H])C([H])([H])[H])C([H])([H])[H])C(C([H])([H])[H])(C([H])([H])[H])C([H])([H])[H])C([H])([H])c2c([H])c(OC([H])([H])C([H])([H])OC([H])([H])C([H])([H])OC([H])([H])C([H])([H])N([H])C(=O)N3C([H])([H])C([H])([H])C([H])([H])C([H])(n4nc(-c5c([H])c([H])c(Oc6c([H])c([H])c(F)c([H])c6F)c([H])c5[H])c(C(=O)N([H])[H])c4N([H])[H])C3([H])[H])c([H])c([H])c2C1([H])[H]

$$$$
61:0:0
     RDKit          3D

113120  0  0  1  0  0  0  0  0999 V2000
  -28.0410  -19.6120   19.0770 C   0  0  0  0  0  2  0  0  0  0  0  0
  -28.2790  -22.0690   18.6400 C   0  0  0  0  0  0  0  0  0  0  0  0
  -28.0760  -21.0260   19.4570 N   0  0  0  0  0  0  0  0  0  0  0  0
  -28.6690  -21.9310   17.4790 O   0  0  0  0  0  0  0  0  0  0  0  0
  -27.7540  -21.2410   20.3910 H   0  0  0  0  0  0  0  0  0  0  0  0
  -27.8390  -23.4600   19.1530 C   0  0  0  0  0  3  0  0  0  0  0  0
  -25.4870  -23.2490   18.6220 C   0  0  0  0  0  1  0  0  0  0  0  0
  -26.7290  -23.9000   18.3630 O   0  0  0  0  0  0  0  0  0  0  0  0
  -28.9490  -24.5540   19.0970 C   0  0  0  0  0  3  0  0  0  0  0  0
  -30.1480  -25.6610   17.1940 C   0  0  0  0  0  0  0  0  0  0  0  0
  -30.1210  -25.9170   15.6930 C   0  0  0  0  0  1  0  0  0  0  0  0
  -29.1230  -24.9700   17.6980 N   0  0  0  0  0  0  0  0  0  0  0  0
  -31.0720  -26.0830   17.8880 O   0  0  0  0  0  0  0  0  0  0  0  0
  -28.3800  -24.6860   17.0750 H   0  0  0  0  0  0  0  0  0  0  0  0
  -28.5130  -25.7330   20.0160 C   0  0  0  0  0  0  0  0  0  0  0  0
  -28.3430  -25.6250   21.2360 O   0  0  0  0  0  0  0  0  0  0  0  0
  -28.2590  -26.8660   19.3140 O   0  0  0  0  0  0  0  0  0  0  0  0
  -24.5470  -31.6980   23.0180 C   0  0  0  0  0  0  0  0  0  0  0  0
  -27.0900  -27.5530   19.5160 C   0  0  0  0  0  0  0  0  0  0  0  0
  -23.2790  -30.4000   21.3360 C   0  0  0  0  0  3  0  0  0  0  0  0
  -24.6820  -28.9950   19.7460 C   0  0  0  0  0  0  0  0  0  0  0  0
  -25.7840  -30.8220   21.0450 C   0  0  0  0  0  2  0  0  0  0  0  0
  -25.8580  -29.4990   20.3150 C   0  0  0  0  0  0  0  0  0  0  0  0
  -27.0700  -28.7840   20.2010 C   0  0  0  0  0  3  0  0  0  0  0  0
  -25.9000  -27.0670   18.9360 C   0  0  0  0  0  3  0  0  0  0  0  0
  -24.6940  -27.7740   19.0550 C   0  0  0  0  0  3  0  0  0  0  0  0
  -23.4310  -29.8250   19.9030 C   0  0  0  0  0  2  0  0  0  0  0  0
  -24.5570  -30.9850   21.8580 N   0  0  0  0  0  0  0  0  0  0  0  0
  -23.4900  -31.9150   23.6260 O   0  0  0  0  0  0  0  0  0  0  0  0
  -22.6910  -29.3000   22.2470 C   0  0  0  0  0  0  0  0  0  0  0  0
  -21.3660  -29.0930   22.1540 N   0  0  0  0  0  0  0  0  0  0  0  0
  -23.4180  -28.6350   22.9890 O   0  0  0  0  0  0  0  0  0  0  0  0
  -20.8380  -29.6800   21.5240 H   0  0  0  0  0  0  0  0  0  0  0  0
  -18.0480  -27.7690   22.6600 C   0  0  0  0  0  0  0  0  0  0  0  0
  -20.6020  -28.0890   22.8900 C   0  0  0  0  0  3  0  0  0  0  0  0
  -20.7320  -26.6970   22.2290 C   0  0  0  0  0  2  0  0  0  0  0  0
  -19.6160  -26.3990   21.2240 C   0  0  0  0  0  2  0  0  0  0  0  0
  -18.2460  -26.4660   21.9060 C   0  0  0  0  0  2  0  0  0  0  0  0
  -19.1540  -28.5380   23.1080 C   0  0  0  0  0  0  0  0  0  0  0  0
  -18.9120  -29.7610   23.7720 C   0  0  0  0  0  3  0  0  0  0  0  0
  -17.5980  -30.2110   23.9980 C   0  0  0  0  0  3  0  0  0  0  0  0
  -16.5070  -29.4390   23.5650 C   0  0  0  0  0  3  0  0  0  0  0  0
  -16.7330  -28.2190   22.9020 C   0  0  0  0  0  3  0  0  0  0  0  0
  -25.8560  -32.2970   23.6210 C   0  0  0  0  0  3  0  0  0  0  0  0
  -25.5390  -33.6400   24.1190 N   0  0  0  0  0  0  0  0  0  0  0  0
  -25.7940  -34.7750   23.4540 C   0  0  0  0  0  0  0  0  0  0  0  0
  -26.3980  -34.8000   22.3790 O   0  0  0  0  0  0  0  0  0  0  0  0
  -25.0000  -33.6920   24.9710 H   0  0  0  0  0  0  0  0  0  0  0  0
  -23.9970  -36.5290   23.3970 C   0  0  0  0  0  1  0  0  0  0  0  0
  -25.2990  -36.0890   24.0850 C   0  0  0  0  0  3  0  0  0  0  0  0
  -27.4630  -36.9480   24.8630 C   0  0  0  0  0  1  0  0  0  0  0  0
  -26.2920  -37.1830   24.0210 N   0  0  0  0  0  0  0  0  0  0  0  0
  -25.8740  -38.0680   24.2980 H   0  0  0  0  0  0  0  0  0  0  0  0
  -26.4790  -31.4080   24.7650 C   0  0  1  0  0  0  0  0  0  0  0  0
  -25.4690  -31.0260   25.8700 C   0  0  0  0  0  1  0  0  0  0  0  0
  -27.0650  -30.0990   24.1820 C   0  0  0  0  0  1  0  0  0  0  0  0
  -27.6540  -32.1620   25.4330 C   0  0  0  0  0  1  0  0  0  0  0  0
  -29.3210  -19.0940   18.3940 C   0  0  0  0  0  2  0  0  0  0  0  0
  -30.4670  -19.6780   18.9950 O   0  0  0  0  0  0  0  0  0  0  0  0
  -31.6600  -18.9920   18.6370 C   0  0  0  0  0  2  0  0  0  0  0  0
  -32.8690  -19.7440   19.2010 C   0  0  0  0  0  2  0  0  0  0  0  0
  -33.4320  -20.5870   18.2050 O   0  0  0  0  0  0  0  0  0  0  0  0
  -34.0690  -21.7300   18.7630 C   0  0  0  0  0  2  0  0  0  0  0  0
  -35.0180  -22.3450   17.7250 C   0  0  0  0  0  2  0  0  0  0  0  0
  -34.4480  -22.3420   16.3000 C   0  0  0  0  0  2  0  0  0  0  0  0
  -33.0460  -22.5650   16.3580 O   0  0  0  0  0  0  0  0  0  0  0  0
  -32.4760  -22.8150   15.0800 C   0  0  0  0  0  2  0  0  0  0  0  0
  -31.0450  -22.2640   15.0520 C   0  0  0  0  0  2  0  0  0  0  0  0
  -31.1030  -20.8920   14.6880 O   0  0  0  0  0  0  0  0  0  0  0  0
  -29.8270  -20.2670   14.6300 C   0  0  0  0  0  2  0  0  0  0  0  0
  -30.0180  -18.8510   14.0760 C   0  0  0  0  0  2  0  0  0  0  0  0
  -30.8030  -18.1170   15.0060 O   0  0  0  0  0  0  0  0  0  0  0  0
  -31.6180  -17.1120   14.4190 C   0  0  0  0  0  2  0  0  0  0  0  0
  -32.9570  -17.7240   13.9720 C   0  0  0  0  0  2  0  0  0  0  0  0
  -34.0150  -16.6800   13.5760 C   0  0  0  0  0  2  0  0  0  0  0  0
  -35.0350  -16.1130   11.3800 C   0  0  0  0  0  0  0  0  0  0  0  0
  -35.7230  -14.5620    9.5980 C   0  0  0  0  0  2  0  0  0  0  0  0
  -36.1670  -15.2340    8.2910 C   0  0  0  0  0  2  0  0  0  0  0  0
  -34.9550  -15.5180    7.3890 C   0  0  0  0  0  2  0  0  0  0  0  0
  -33.8230  -16.2620    8.1430 C   0  0  0  0  0  3  0  0  0  0  0  0
  -33.4920  -15.5630    9.4780 C   0  0  0  0  0  2  0  0  0  0  0  0
  -34.7320  -15.4140   10.2640 N   0  0  0  0  0  0  0  0  0  0  0  0
  -36.1890  -16.3140   11.7730 O   0  0  0  0  0  0  0  0  0  0  0  0
  -33.9680  -16.3410   12.1570 N   0  0  0  0  0  0  0  0  0  0  0  0
  -33.0770  -16.0670   11.7680 H   0  0  0  0  0  0  0  0  0  0  0  0
  -31.9440  -17.5490    6.9410 C   0  0  0  0  0  0  0  0  0  0  0  0
  -30.9560  -17.1360    6.0870 C   0  0  0  0  0  0  0  0  0  0  0  0
  -31.1050  -15.7200    5.9640 C   0  0  0  0  0  0  0  0  0  0  0  0
  -32.6360  -16.4030    7.3030 N   0  0  0  0  0  0  0  0  0  0  0  0
  -32.0870  -15.2920    6.7470 N   0  0  0  0  0  0  0  0  0  0  0  0
  -30.4070  -14.7560    5.1040 C   0  0  0  0  0  0  0  0  0  0  0  0
  -29.8250  -13.5830    5.6320 C   0  0  0  0  0  3  0  0  0  0  0  0
  -29.1460  -12.6800    4.7870 C   0  0  0  0  0  3  0  0  0  0  0  0
  -29.0390  -12.9450    3.4020 C   0  0  0  0  0  0  0  0  0  0  0  0
  -29.6400  -14.1050    2.8780 C   0  0  0  0  0  3  0  0  0  0  0  0
  -30.3210  -15.0000    3.7190 C   0  0  0  0  0  3  0  0  0  0  0  0
  -28.4190  -12.1150    2.5010 O   0  0  0  0  0  0  0  0  0  0  0  0
  -27.4130  -11.2640    2.8820 C   0  0  0  0  0  0  0  0  0  0  0  0
  -26.2450  -11.7310    3.5230 C   0  0  0  0  0  3  0  0  0  0  0  0
  -25.2050  -10.8310    3.8360 C   0  0  0  0  0  3  0  0  0  0  0  0
  -25.3260   -9.4690    3.4990 C   0  0  0  0  0  0  0  0  0  0  0  0
  -26.4860   -9.0050    2.8540 C   0  0  0  0  0  3  0  0  0  0  0  0
  -27.5240   -9.9000    2.5450 C   0  0  0  0  0  0  0  0  0  0  0  0
  -28.6300   -9.4490    1.9050 F   0  0  0  0  0  0  0  0  0  0  0  0
  -24.3240   -8.6070    3.7910 F   0  0  0  0  0  0  0  0  0  0  0  0
  -29.9880  -18.0150    5.3480 C   0  0  0  0  0  0  0  0  0  0  0  0
  -28.7930  -17.5070    5.0650 N   0  0  0  0  0  0  0  0  0  0  0  0
  -30.2690  -19.1770    5.0590 O   0  0  0  0  0  0  0  0  0  0  0  0
  -28.5540  -16.5610    5.3210 H   0  0  0  0  0  0  0  0  0  0  0  0
  -28.1060  -18.0730    4.5870 H   0  0  0  0  0  0  0  0  0  0  0  0
  -32.3240  -18.7980    7.4220 N   0  0  0  0  0  0  0  0  0  0  0  0
  -31.8610  -19.6540    7.1330 H   0  0  0  0  0  0  0  0  0  0  0  0
  -33.1140  -18.9590    8.0340 H   0  0  0  0  0  0  0  0  0  0  0  0
  1  3  1  0
  2  6  1  0
  2  3  1  0
  3  5  1  0
  4  2  2  0
  6  8  1  0
  8  7  1  0
  9  6  1  0
  9 15  1  0
 10 12  1  0
 10 13  2  0
 11 10  1  0
 12  9  1  0
 14 12  1  0
 15 16  2  0
 17 19  1  0
 17 15  1  0
 18 29  2  0
 19 24  1  0
 20 28  1  0
 20 30  1  0
 21 27  1  0
 21 23  1  0
 22 28  1  0
 23 22  1  0
 24 23  2  0
 25 26  1  0
 25 19  2  0
 26 21  2  0
 27 20  1  0
 28 18  1  0
 30 32  2  0
 31 30  1  0
 33 31  1  0
 34 43  2  0
 34 39  1  0
 35 31  1  0
 35 39  1  0
 36 35  1  0
 37 38  1  0
 37 36  1  0
 38 34  1  0
 39 40  2  0
 40 41  1  0
 42 41  2  0
 43 42  1  0
 44 18  1  0
 44 45  1  0
 44 54  1  0
 45 48  1  0
 46 50  1  0
 46 45  1  0
 47 46  2  0
 50 49  1  0
 52 50  1  0
 52 53  1  0
 52 51  1  0
 54 57  1  1
 54 55  1  0
 56 54  1  0
 58 59  1  0
 58  1  1  0
 60 59  1  0
 60 61  1  0
 62 63  1  0
 62 61  1  0
 64 63  1  0
 65 66  1  0
 65 64  1  0
 67 66  1  0
 68 67  1  0
 69 68  1  0
 70 69  1  0
 71 70  1  0
 71 72  1  0
 73 72  1  0
 74 73  1  0
 75 74  1  0
 76 83  2  0
 76 84  1  0
 77 82  1  0
 78 77  1  0
 79 80  1  0
 79 78  1  0
 80 89  1  0
 80 81  1  0
 81 82  1  0
 82 76  1  0
 84 75  1  0
 85 84  1  0
 86 89  1  0
 86111  1  0
 87 86  2  0
 88 87  1  0
 88 90  2  0
 90 89  1  0
 91 92  1  0
 91 88  1  0
 93 92  2  0
 94 93  1  0
 95 94  2  0
 95 96  1  0
 96 91  2  0
 97 98  1  0
 97 94  1  0
 98 99  1  0
 99100  2  0
101105  1  0
101100  1  0
102101  2  0
103102  1  0
103 98  2  0
104103  1  0
106 87  1  0
107109  1  0
107106  1  0
108106  2  0
110107  1  0
111113  1  0
112111  1  0
M  ISO  4  15 101  17 101  76 100  84 100
M  END
>  <TORSDO>  (59) 
F 40

>  <SCORE>  (59) 
-5.025

>  <name>  (59) 
61

>  <ligand_id>  (59) 
61

>  <original_smiles>  (59) 
[H]c1c([H])c([H])c2c(c1[H])C([H])([H])C([H])([H])C([H])([H])C2([H])N([H])C(=O)C1([H])N(C(=O)C([H])(N([H])C(=O)C([H])(N([H])C([H])([H])[H])C([H])([H])[H])C(C([H])([H])[H])(C([H])([H])[H])C([H])([H])[H])C([H])([H])c2c([H])c(OC(=O)C([H])(N([H])C(=O)C([H])([H])[H])C([H])(OC([H])([H])[H])C(=O)N([H])C([H])([H])C([H])([H])OC([H])([H])C([H])([H])OC([H])([H])C([H])([H])C([H])([H])OC([H])([H])C([H])([H])OC([H])([H])C([H])([H])OC([H])([H])C([H])([H])C([H])([H])N([H])C(=O)N3C([H])([H])C([H])([H])C([H])([H])C([H])(n4nc(-c5c([H])c([H])c(Oc6c([H])c([H])c(F)c([H])c6F)c([H])c5[H])c(C(=O)N([H])[H])c4N([H])[H])C3([H])[H])c([H])c([H])c2C1([H])[H]

>  <smiles>  (59) 
[H]c1c([H])c([H])c2c(c1[H])C([H])([H])C([H])([H])C([H])([H])C2([H])N([H])C(=O)C1([H])N(C(=O)C([H])(N([H])C(=O)C([H])(N([H])C([H])([H])[H])C([H])([H])[H])C(C([H])([H])[H])(C([H])([H])[H])C([H])([H])[H])C([H])([H])c2c([H])c(OC(=O)C([H])(N([H])C(=O)C([H])([H])[H])C([H])(OC([H])([H])[H])C(=O)N([H])C([H])([H])C([H])([H])OC([H])([H])C([H])([H])OC([H])([H])C([H])([H])C([H])([H])OC([H])([H])C([H])([H])OC([H])([H])C([H])([H])OC([H])([H])C([H])([H])C([H])([H])N([H])C(=O)N3C([H])([H])C([H])([H])C([H])([H])C([H])(n4nc(-c5c([H])c([H])c(Oc6c([H])c([H])c(F)c([H])c6F)c([H])c5[H])c(C(=O)N([H])[H])c4N([H])[H])C3([H])[H])c([H])c([H])c2C1([H])[H]

$$$$
62:0:0
     RDKit          3D

110118  0  0  1  0  0  0  0  0999 V2000
  -23.0670  -21.0780   24.3220 C   0  0  0  0  0  2  0  0  0  0  0  0
  -24.8510  -22.4830   23.3030 C   0  0  0  0  0  0  0  0  0  0  0  0
  -24.4120  -21.3200   23.8000 N   0  0  0  0  0  0  0  0  0  0  0  0
  -24.2020  -23.5290   23.3880 O   0  0  0  0  0  0  0  0  0  0  0  0
  -25.0260  -20.5180   23.7200 H   0  0  0  0  0  0  0  0  0  0  0  0
  -26.1760  -22.4470   22.5360 C   0  0  0  0  0  2  0  0  0  0  0  0
  -26.9280  -23.6320   22.8120 O   0  0  0  0  0  0  0  0  0  0  0  0
  -28.9160  -24.0420   19.6700 C   0  0  0  0  0  3  0  0  0  0  0  0
  -29.3330  -25.3760   19.8310 C   0  0  0  0  0  3  0  0  0  0  0  0
  -28.1300  -23.4240   20.6600 C   0  0  0  0  0  3  0  0  0  0  0  0
  -28.2500  -25.4400   22.0140 C   0  0  0  0  0  3  0  0  0  0  0  0
  -29.0090  -26.0810   21.0090 C   0  0  0  0  0  0  0  0  0  0  0  0
  -27.7570  -24.1330   21.8290 C   0  0  0  0  0  0  0  0  0  0  0  0
  -29.3920  -27.5030   21.1890 C   0  0  0  0  0  0  0  0  0  0  0  0
  -29.8950  -27.9410   22.2300 O   0  0  0  0  0  0  0  0  0  0  0  0
  -28.9880  -28.2820   20.1550 O   0  0  0  0  0  0  0  0  0  0  0  0
  -25.4010  -32.9810   24.0830 C   0  0  0  0  0  0  0  0  0  0  0  0
  -27.8290  -28.9940   20.3320 C   0  0  0  0  0  0  0  0  0  0  0  0
  -24.0540  -31.6500   22.4870 C   0  0  0  0  0  3  0  0  0  0  0  0
  -25.3840  -30.3270   20.7510 C   0  0  0  0  0  0  0  0  0  0  0  0
  -26.5080  -32.1810   22.0060 C   0  0  0  0  0  2  0  0  0  0  0  0
  -26.5750  -30.8780   21.2430 C   0  0  0  0  0  0  0  0  0  0  0  0
  -27.8030  -30.2200   21.0300 C   0  0  0  0  0  3  0  0  0  0  0  0
  -26.6290  -28.4610   19.8160 C   0  0  0  0  0  3  0  0  0  0  0  0
  -25.4040  -29.1190   20.0310 C   0  0  0  0  0  3  0  0  0  0  0  0
  -24.1120  -31.0920   21.0370 C   0  0  0  0  0  2  0  0  0  0  0  0
  -25.3460  -32.2800   22.9160 N   0  0  0  0  0  0  0  0  0  0  0  0
  -24.3890  -33.1460   24.7790 O   0  0  0  0  0  0  0  0  0  0  0  0
  -23.5830  -30.5180   23.4300 C   0  0  0  0  0  0  0  0  0  0  0  0
  -22.3500  -30.0340   23.2110 N   0  0  0  0  0  0  0  0  0  0  0  0
  -24.3260  -30.0750   24.3100 O   0  0  0  0  0  0  0  0  0  0  0  0
  -21.8020  -30.4580   22.4770 H   0  0  0  0  0  0  0  0  0  0  0  0
  -19.4730  -27.8480   23.2520 C   0  0  0  0  0  0  0  0  0  0  0  0
  -21.7100  -28.9410   23.9450 C   0  0  0  0  0  3  0  0  0  0  0  0
  -22.3650  -27.5830   23.6020 C   0  0  0  0  0  2  0  0  0  0  0  0
  -21.6570  -26.8440   22.4600 C   0  0  0  0  0  2  0  0  0  0  0  0
  -20.1910  -26.5820   22.8150 C   0  0  0  0  0  2  0  0  0  0  0  0
  -20.1880  -28.9620   23.7650 C   0  0  0  0  0  0  0  0  0  0  0  0
  -19.4770  -30.1280   24.1230 C   0  0  0  0  0  3  0  0  0  0  0  0
  -18.0790  -30.1940   23.9690 C   0  0  0  0  0  3  0  0  0  0  0  0
  -17.3730  -29.0810   23.4750 C   0  0  0  0  0  3  0  0  0  0  0  0
  -18.0700  -27.9110   23.1230 C   0  0  0  0  0  3  0  0  0  0  0  0
  -26.7290  -33.6270   24.5920 C   0  0  0  0  0  3  0  0  0  0  0  0
  -27.2580  -32.9900   25.9350 C   0  0  1  0  0  0  0  0  0  0  0  0
  -26.1910  -32.9230   27.0550 C   0  0  0  0  0  1  0  0  0  0  0  0
  -27.7770  -31.5570   25.6840 C   0  0  0  0  0  1  0  0  0  0  0  0
  -28.4590  -33.8120   26.4600 C   0  0  0  0  0  1  0  0  0  0  0  0
  -26.4840  -35.0630   24.7570 N   0  0  0  0  0  0  0  0  0  0  0  0
  -26.8730  -36.0050   23.8870 C   0  0  0  0  0  0  0  0  0  0  0  0
  -27.5440  -35.7560   22.8830 O   0  0  0  0  0  0  0  0  0  0  0  0
  -25.8860  -35.3320   25.5250 H   0  0  0  0  0  0  0  0  0  0  0  0
  -25.2550  -37.8360   23.2880 C   0  0  0  0  0  1  0  0  0  0  0  0
  -26.4480  -37.4570   24.1790 C   0  0  0  0  0  3  0  0  0  0  0  0
  -28.5970  -38.3210   24.9920 C   0  0  0  0  0  1  0  0  0  0  0  0
  -27.5390  -38.4370   23.9930 N   0  0  0  0  0  0  0  0  0  0  0  0
  -27.1790  -39.3860   24.0200 H   0  0  0  0  0  0  0  0  0  0  0  0
  -22.0090  -21.3470   23.2390 C   0  0  0  0  0  2  0  0  0  0  0  0
  -20.8720  -21.9870   23.8000 O   0  0  0  0  0  0  0  0  0  0  0  0
  -19.7370  -22.0240   22.9340 C   0  0  0  0  0  2  0  0  0  0  0  0
  -19.6150  -23.3570   22.1680 C   0  0  0  0  0  2  0  0  0  0  0  0
  -20.2030  -23.2320   20.8810 O   0  0  0  0  0  0  0  0  0  0  0  0
  -19.7030  -24.1460   19.9170 C   0  0  0  0  0  2  0  0  0  0  0  0
  -20.7730  -24.3460   18.8360 C   0  0  0  0  0  2  0  0  0  0  0  0
  -20.9560  -23.1310   18.1110 O   0  0  0  0  0  0  0  0  0  0  0  0
  -22.3230  -22.8670   17.8010 C   0  0  0  0  0  2  0  0  0  0  0  0
  -22.4650  -21.4640   17.1950 C   0  0  0  0  0  2  0  0  0  0  0  0
  -23.8420  -21.1160   17.1170 O   0  0  0  0  0  0  0  0  0  0  0  0
  -24.0480  -19.7400   16.8170 C   0  0  0  0  0  2  0  0  0  0  0  0
  -25.5510  -19.4240   16.8020 C   0  0  0  0  0  2  0  0  0  0  0  0
  -26.0670  -19.2940   18.1240 O   0  0  0  0  0  0  0  0  0  0  0  0
  -27.4860  -19.4330   18.1510 C   0  0  0  0  0  2  0  0  0  0  0  0
  -27.9950  -19.4990   19.6010 C   0  0  0  0  0  2  0  0  0  0  0  0
  -29.3200  -17.4240   20.0420 C   0  0  0  0  0  0  0  0  0  0  0  0
  -30.1690  -15.1110   20.1910 C   0  0  0  0  0  2  0  0  0  0  0  0
  -29.5860  -14.2690   19.0360 C   0  0  0  0  0  2  0  0  0  0  0  0
  -28.2010  -13.7050   19.4080 C   0  0  0  0  0  2  0  0  0  0  0  0
  -27.2490  -14.7840   19.9890 C   0  0  0  0  0  3  0  0  0  0  0  0
  -27.9640  -15.5850   21.0980 C   0  0  0  0  0  2  0  0  0  0  0  0
  -29.1940  -16.1600   20.5210 N   0  0  0  0  0  0  0  0  0  0  0  0
  -30.3340  -17.8470   19.4790 O   0  0  0  0  0  0  0  0  0  0  0  0
  -28.2170  -18.1720   20.1650 N   0  0  0  0  0  0  0  0  0  0  0  0
  -27.4310  -17.7370   20.6250 H   0  0  0  0  0  0  0  0  0  0  0  0
  -24.8500  -14.8170   20.9230 C   0  0  0  0  0  0  0  0  0  0  0  0
  -23.9570  -13.8100   21.1840 C   0  0  0  0  0  0  0  0  0  0  0  0
  -24.6300  -12.5940   20.8600 C   0  0  0  0  0  0  0  0  0  0  0  0
  -26.0020  -14.1930   20.4700 N   0  0  0  0  0  0  0  0  0  0  0  0
  -25.8770  -12.8420   20.4830 N   0  0  0  0  0  0  0  0  0  0  0  0
  -24.1430  -11.2090   20.8350 C   0  0  0  0  0  0  0  0  0  0  0  0
  -24.5910  -10.2510   21.7700 C   0  0  0  0  0  3  0  0  0  0  0  0
  -24.0950   -8.9310   21.7360 C   0  0  0  0  0  3  0  0  0  0  0  0
  -23.1390   -8.5570   20.7630 C   0  0  0  0  0  0  0  0  0  0  0  0
  -22.7140   -9.5100   19.8190 C   0  0  0  0  0  3  0  0  0  0  0  0
  -23.2120  -10.8220   19.8510 C   0  0  0  0  0  3  0  0  0  0  0  0
  -22.6200   -7.2910   20.6360 O   0  0  0  0  0  0  0  0  0  0  0  0
  -22.2000   -6.5740   21.7280 C   0  0  0  0  0  0  0  0  0  0  0  0
  -21.2090   -7.0660   22.6060 C   0  0  0  0  0  3  0  0  0  0  0  0
  -20.7560   -6.2660   23.6740 C   0  0  0  0  0  3  0  0  0  0  0  0
  -21.2850   -4.9750   23.8620 C   0  0  0  0  0  0  0  0  0  0  0  0
  -22.2690   -4.4820   22.9860 C   0  0  0  0  0  3  0  0  0  0  0  0
  -22.7220   -5.2800   21.9200 C   0  0  0  0  0  0  0  0  0  0  0  0
  -23.6540   -4.7920   21.0660 F   0  0  0  0  0  0  0  0  0  0  0  0
  -20.8450   -4.2030   24.8840 F   0  0  0  0  0  0  0  0  0  0  0  0
  -22.5300  -13.9720   21.6200 C   0  0  0  0  0  0  0  0  0  0  0  0
  -22.0200  -13.0320   22.4080 N   0  0  0  0  0  0  0  0  0  0  0  0
  -21.8720  -14.9620   21.3040 O   0  0  0  0  0  0  0  0  0  0  0  0
  -22.5660  -12.2280   22.6810 H   0  0  0  0  0  0  0  0  0  0  0  0
  -21.0710  -13.1180   22.7420 H   0  0  0  0  0  0  0  0  0  0  0  0
  -24.7740  -16.2020   21.0210 N   0  0  0  0  0  0  0  0  0  0  0  0
  -23.9300  -16.6750   21.3200 H   0  0  0  0  0  0  0  0  0  0  0  0
  -25.5380  -16.8340   20.8190 H   0  0  0  0  0  0  0  0  0  0  0  0
  2  4  2  0
  2  3  1  0
  3  1  1  0
  5  3  1  0
  6  7  1  0
  6  2  1  0
  8  9  2  0
  8 10  1  0
  9 12  1  0
 10 13  2  0
 12 14  1  0
 12 11  2  0
 13 11  1  0
 13  7  1  0
 14 15  2  0
 16 18  1  0
 16 14  1  0
 17 28  2  0
 18 23  1  0
 19 27  1  0
 19 29  1  0
 20 26  1  0
 20 22  1  0
 21 27  1  0
 22 21  1  0
 23 22  2  0
 24 25  1  0
 24 18  2  0
 25 20  2  0
 26 19  1  0
 27 17  1  0
 29 31  2  0
 30 29  1  0
 32 30  1  0
 33 38  1  0
 34 30  1  0
 35 34  1  0
 36 37  1  0
 36 35  1  0
 37 33  1  0
 38 34  1  0
 38 39  2  0
 40 39  1  0
 41 40  2  0
 42 33  2  0
 42 41  1  0
 43 17  1  0
 43 48  1  0
 43 44  1  0
 44 47  1  1
 44 45  1  0
 46 44  1  0
 48 51  1  0
 49 53  1  0
 49 48  1  0
 50 49  2  0
 53 52  1  0
 55 56  1  0
 55 53  1  0
 55 54  1  0
 57 58  1  0
 57  1  1  0
 59 58  1  0
 60 59  1  0
 61 60  1  0
 62 61  1  0
 63 62  1  0
 64 63  1  0
 65 64  1  0
 66 65  1  0
 67 66  1  0
 68 67  1  0
 69 68  1  0
 69 70  1  0
 70 71  1  0
 71 72  1  0
 72 81  1  0
 73 81  1  0
 73 79  1  0
 74 79  1  0
 75 76  1  0
 75 74  1  0
 77 76  1  0
 77 86  1  0
 77 78  1  0
 79 78  1  0
 80 73  2  0
 81 82  1  0
 83108  1  0
 83 84  2  0
 84103  1  0
 85 84  1  0
 86 87  1  0
 86 83  1  0
 87 85  2  0
 88 85  1  0
 88 89  1  0
 90 89  2  0
 91 90  1  0
 92 93  1  0
 92 91  2  0
 93 88  2  0
 94 91  1  0
 94 95  1  0
 95100  2  0
 95 96  1  0
 96 97  2  0
 97 98  1  0
 98102  1  0
 99 98  2  0
100 99  1  0
101100  1  0
103104  1  0
104106  1  0
104107  1  0
105103  2  0
108109  1  0
110108  1  0
M  ISO  4  14 101  16 101  73 100  81 100
M  END
>  <TORSDO>  (60) 
F 37

>  <SCORE>  (60) 
18.500

>  <name>  (60) 
62

>  <ligand_id>  (60) 
62

>  <original_smiles>  (60) 
[H]c1c([H])c(OC([H])([H])C(=O)N([H])C([H])([H])C([H])([H])OC([H])([H])C([H])([H])OC([H])([H])C([H])([H])OC([H])([H])C([H])([H])OC([H])([H])C([H])([H])OC([H])([H])C([H])([H])N([H])C(=O)N2C([H])([H])C([H])([H])C([H])([H])C([H])(n3nc(-c4c([H])c([H])c(Oc5c([H])c([H])c(F)c([H])c5F)c([H])c4[H])c(C(=O)N([H])[H])c3N([H])[H])C2([H])[H])c([H])c(C(=O)Oc2c([H])c([H])c3c(c2[H])C([H])([H])N(C(=O)C([H])(N([H])C(=O)C([H])(N([H])C([H])([H])[H])C([H])([H])[H])C(C([H])([H])[H])(C([H])([H])[H])C([H])([H])[H])C([H])(C(=O)N([H])C2([H])c4c([H])c([H])c([H])c([H])c4C([H])([H])C([H])([H])C2([H])[H])C3([H])[H])c1[H]

>  <smiles>  (60) 
[H]c1c([H])c(OC([H])([H])C(=O)N([H])C([H])([H])C([H])([H])OC([H])([H])C([H])([H])OC([H])([H])C([H])([H])OC([H])([H])C([H])([H])OC([H])([H])C([H])([H])OC([H])([H])C([H])([H])N([H])C(=O)N2C([H])([H])C([H])([H])C([H])([H])C([H])(n3nc(-c4c([H])c([H])c(Oc5c([H])c([H])c(F)c([H])c5F)c([H])c4[H])c(C(=O)N([H])[H])c3N([H])[H])C2([H])[H])c([H])c(C(=O)Oc2c([H])c([H])c3c(c2[H])C([H])([H])N(C(=O)C([H])(N([H])C(=O)C([H])(N([H])C([H])([H])[H])C([H])([H])[H])C(C([H])([H])[H])(C([H])([H])[H])C([H])([H])[H])C([H])(C(=O)N([H])C2([H])c4c([H])c([H])c([H])c([H])c4C([H])([H])C([H])([H])C2([H])[H])C3([H])[H])c1[H]

$$$$
63:0:0
     RDKit          3D

105113  0  0  1  0  0  0  0  0999 V2000
  -33.2890  -19.2640   18.0650 C   0  0  0  0  0  2  0  0  0  0  0  0
  -31.8610  -21.3240   17.5910 C   0  0  0  0  0  3  0  0  0  0  0  0
  -32.0310  -20.5030   19.8760 C   0  0  0  0  0  3  0  0  0  0  0  0
  -31.0040  -22.3570   18.0200 C   0  0  0  0  0  3  0  0  0  0  0  0
  -31.1680  -21.5250   20.3060 C   0  0  0  0  0  3  0  0  0  0  0  0
  -32.3750  -20.3900   18.5160 C   0  0  0  0  0  0  0  0  0  0  0  0
  -30.6550  -22.4640   19.3880 C   0  0  0  0  0  0  0  0  0  0  0  0
  -29.3740  -24.6200   19.4180 C   0  0  0  0  0  0  0  0  0  0  0  0
  -29.7650  -23.4340   19.9130 N   0  0  0  0  0  0  0  0  0  0  0  0
  -29.7540  -25.0920   18.3410 O   0  0  0  0  0  0  0  0  0  0  0  0
  -29.4020  -23.2340   20.8310 H   0  0  0  0  0  0  0  0  0  0  0  0
  -28.3880  -25.3880   20.3070 C   0  0  0  0  0  2  0  0  0  0  0  0
  -28.4280  -26.7860   20.0110 O   0  0  0  0  0  0  0  0  0  0  0  0
  -24.6130  -31.8720   23.2130 C   0  0  0  0  0  0  0  0  0  0  0  0
  -27.2360  -27.4690   20.0620 C   0  0  0  0  0  0  0  0  0  0  0  0
  -23.3990  -30.4940   21.5570 C   0  0  0  0  0  3  0  0  0  0  0  0
  -24.8390  -28.9610   20.1200 C   0  0  0  0  0  0  0  0  0  0  0  0
  -25.9240  -30.8410   21.3600 C   0  0  0  0  0  2  0  0  0  0  0  0
  -25.9990  -29.4770   20.7100 C   0  0  0  0  0  0  0  0  0  0  0  0
  -27.2010  -28.7380   20.6770 C   0  0  0  0  0  3  0  0  0  0  0  0
  -26.0580  -26.9660   19.4630 C   0  0  0  0  0  3  0  0  0  0  0  0
  -24.8610  -27.7020   19.4970 C   0  0  0  0  0  3  0  0  0  0  0  0
  -23.6020  -29.8270   20.1720 C   0  0  0  0  0  2  0  0  0  0  0  0
  -24.6650  -31.0820   22.1030 N   0  0  0  0  0  0  0  0  0  0  0  0
  -23.5330  -32.1470   23.7530 O   0  0  0  0  0  0  0  0  0  0  0  0
  -22.7410  -29.4670   22.5060 C   0  0  0  0  0  0  0  0  0  0  0  0
  -21.4150  -29.3030   22.3780 N   0  0  0  0  0  0  0  0  0  0  0  0
  -23.4190  -28.8220   23.3110 O   0  0  0  0  0  0  0  0  0  0  0  0
  -20.9350  -29.8720   21.6950 H   0  0  0  0  0  0  0  0  0  0  0  0
  -18.0260  -28.1380   22.8490 C   0  0  0  0  0  0  0  0  0  0  0  0
  -20.5850  -28.3660   23.1340 C   0  0  0  0  0  3  0  0  0  0  0  0
  -20.6770  -26.9410   22.5410 C   0  0  0  0  0  2  0  0  0  0  0  0
  -19.5740  -26.6400   21.5210 C   0  0  0  0  0  2  0  0  0  0  0  0
  -18.1920  -26.7920   22.1630 C   0  0  0  0  0  2  0  0  0  0  0  0
  -19.1510  -28.8840   23.2900 C   0  0  0  0  0  0  0  0  0  0  0  0
  -18.9440  -30.1450   23.8920 C   0  0  0  0  0  3  0  0  0  0  0  0
  -17.6450  -30.6590   24.0570 C   0  0  0  0  0  3  0  0  0  0  0  0
  -16.5340  -29.9090   23.6320 C   0  0  0  0  0  3  0  0  0  0  0  0
  -16.7260  -28.6510   23.0340 C   0  0  0  0  0  3  0  0  0  0  0  0
  -25.9030  -32.4850   23.8410 C   0  0  0  0  0  3  0  0  0  0  0  0
  -26.4450  -31.6600   25.0720 C   0  0  1  0  0  0  0  0  0  0  0  0
  -25.3730  -31.3700   26.1490 C   0  0  0  0  0  1  0  0  0  0  0  0
  -27.0250  -30.3060   24.6040 C   0  0  0  0  0  1  0  0  0  0  0  0
  -27.6060  -32.4300   25.7450 C   0  0  0  0  0  1  0  0  0  0  0  0
  -25.5900  -33.8640   24.2360 N   0  0  0  0  0  0  0  0  0  0  0  0
  -25.9030  -34.9500   23.5150 C   0  0  0  0  0  0  0  0  0  0  0  0
  -26.5590  -34.8940   22.4720 O   0  0  0  0  0  0  0  0  0  0  0  0
  -25.0060  -33.9790   25.0520 H   0  0  0  0  0  0  0  0  0  0  0  0
  -24.1480  -36.7320   23.2630 C   0  0  0  0  0  1  0  0  0  0  0  0
  -25.4100  -36.3140   24.0350 C   0  0  0  0  0  3  0  0  0  0  0  0
  -27.5590  -37.1810   24.8470 C   0  0  0  0  0  1  0  0  0  0  0  0
  -26.4300  -37.3820   23.9420 N   0  0  0  0  0  0  0  0  0  0  0  0
  -26.0210  -38.2910   24.1420 H   0  0  0  0  0  0  0  0  0  0  0  0
  -33.0610  -18.8720   16.7140 O   0  0  0  0  0  0  0  0  0  0  0  0
  -31.8980  -18.0660   16.5520 C   0  0  0  0  0  2  0  0  0  0  0  0
  -32.2240  -16.5860   16.8330 C   0  0  0  0  0  2  0  0  0  0  0  0
  -32.4260  -15.8890   15.6030 O   0  0  0  0  0  0  0  0  0  0  0  0
  -31.3800  -14.9860   15.2350 C   0  0  0  0  0  2  0  0  0  0  0  0
  -30.0860  -15.6750   14.7610 C   0  0  0  0  0  2  0  0  0  0  0  0
  -29.5540  -16.4680   15.8110 O   0  0  0  0  0  0  0  0  0  0  0  0
  -28.2020  -16.8530   15.6320 C   0  0  0  0  0  2  0  0  0  0  0  0
  -27.9370  -18.0950   16.4970 C   0  0  0  0  0  2  0  0  0  0  0  0
  -28.2240  -17.8460   17.8700 O   0  0  0  0  0  0  0  0  0  0  0  0
  -28.4180  -19.0560   18.5880 C   0  0  0  0  0  2  0  0  0  0  0  0
  -28.5580  -18.8200   20.0980 C   0  0  0  0  0  2  0  0  0  0  0  0
  -29.6300  -17.8030   20.5440 C   0  0  0  0  0  2  0  0  0  0  0  0
  -29.2010  -16.3270   20.3960 C   0  0  0  0  0  2  0  0  0  0  0  0
  -30.7290  -14.4260   20.5490 C   0  0  0  0  0  0  0  0  0  0  0  0
  -30.4020  -12.2840   19.3750 C   0  0  0  0  0  2  0  0  0  0  0  0
  -29.4600  -12.4840   18.1690 C   0  0  0  0  0  2  0  0  0  0  0  0
  -27.9840  -12.3560   18.5910 C   0  0  0  0  0  2  0  0  0  0  0  0
  -27.6500  -13.1980   19.8540 C   0  0  0  0  0  3  0  0  0  0  0  0
  -28.7010  -12.9730   20.9630 C   0  0  0  0  0  2  0  0  0  0  0  0
  -30.0290  -13.2700   20.3960 N   0  0  0  0  0  0  0  0  0  0  0  0
  -31.8620  -14.6080   20.1020 O   0  0  0  0  0  0  0  0  0  0  0  0
  -30.0890  -15.4350   21.1470 N   0  0  0  0  0  0  0  0  0  0  0  0
  -30.7290  -15.9820   21.7040 H   0  0  0  0  0  0  0  0  0  0  0  0
  -25.2590  -13.8250   20.5730 C   0  0  0  0  0  0  0  0  0  0  0  0
  -24.1830  -13.0470   20.9270 C   0  0  0  0  0  0  0  0  0  0  0  0
  -24.6380  -11.6940   20.8810 C   0  0  0  0  0  0  0  0  0  0  0  0
  -26.2960  -12.9350   20.3330 N   0  0  0  0  0  0  0  0  0  0  0  0
  -25.9290  -11.6520   20.5840 N   0  0  0  0  0  0  0  0  0  0  0  0
  -23.9040  -10.4300   21.0420 C   0  0  0  0  0  0  0  0  0  0  0  0
  -24.3600   -9.4220   21.9220 C   0  0  0  0  0  3  0  0  0  0  0  0
  -23.6290   -8.2250   22.0790 C   0  0  0  0  0  3  0  0  0  0  0  0
  -22.4280   -8.0290   21.3560 C   0  0  0  0  0  0  0  0  0  0  0  0
  -21.9890   -9.0250   20.4650 C   0  0  0  0  0  3  0  0  0  0  0  0
  -22.7200  -10.2150   20.3070 C   0  0  0  0  0  3  0  0  0  0  0  0
  -21.6670   -6.8880   21.4220 O   0  0  0  0  0  0  0  0  0  0  0  0
  -21.6860   -6.0720   22.5260 C   0  0  0  0  0  0  0  0  0  0  0  0
  -21.4000   -6.5630   23.8190 C   0  0  0  0  0  3  0  0  0  0  0  0
  -21.3680   -5.6790   24.9180 C   0  0  0  0  0  3  0  0  0  0  0  0
  -21.6080   -4.3060   24.7230 C   0  0  0  0  0  0  0  0  0  0  0  0
  -21.8810   -3.8130   23.4330 C   0  0  0  0  0  3  0  0  0  0  0  0
  -21.9190   -4.6960   22.3390 C   0  0  0  0  0  0  0  0  0  0  0  0
  -22.1630   -4.2140   21.0960 F   0  0  0  0  0  0  0  0  0  0  0  0
  -21.5670   -3.4540   25.7730 F   0  0  0  0  0  0  0  0  0  0  0  0
  -22.7840  -13.5260   21.1820 C   0  0  0  0  0  0  0  0  0  0  0  0
  -22.0460  -12.8240   22.0380 N   0  0  0  0  0  0  0  0  0  0  0  0
  -22.3530  -14.5550   20.6670 O   0  0  0  0  0  0  0  0  0  0  0  0
  -22.4020  -11.9880   22.4770 H   0  0  0  0  0  0  0  0  0  0  0  0
  -21.1130  -13.1360   22.2600 H   0  0  0  0  0  0  0  0  0  0  0  0
  -25.4410  -15.1940   20.4090 N   0  0  0  0  0  0  0  0  0  0  0  0
  -24.7090  -15.8830   20.5520 H   0  0  0  0  0  0  0  0  0  0  0  0
  -26.3030  -15.6040   20.0680 H   0  0  0  0  0  0  0  0  0  0  0  0
  1  6  1  0
  2  4  2  0
  2  6  1  0
  3  5  1  0
  4  7  1  0
  6  3  2  0
  7  9  1  0
  7  5  2  0
  8  9  1  0
  8 12  1  0
  9 11  1  0
 10  8  2  0
 13 15  1  0
 13 12  1  0
 14 25  2  0
 15 20  1  0
 16 24  1  0
 16 26  1  0
 17 23  1  0
 17 19  1  0
 18 24  1  0
 19 18  1  0
 20 19  2  0
 21 22  1  0
 21 15  2  0
 22 17  2  0
 23 16  1  0
 24 14  1  0
 26 28  2  0
 27 26  1  0
 29 27  1  0
 30 39  2  0
 30 35  1  0
 31 27  1  0
 31 35  1  0
 32 31  1  0
 33 34  1  0
 33 32  1  0
 34 30  1  0
 35 36  2  0
 36 37  1  0
 38 37  2  0
 39 38  1  0
 40 14  1  0
 40 45  1  0
 40 41  1  0
 41 44  1  1
 41 42  1  0
 43 41  1  0
 45 48  1  0
 46 50  1  0
 46 45  1  0
 47 46  2  0
 50 49  1  0
 52 50  1  0
 52 53  1  0
 52 51  1  0
 54  1  1  0
 55 54  1  0
 55 56  1  0
 57 56  1  0
 58 57  1  0
 59 58  1  0
 59 60  1  0
 61 60  1  0
 61 62  1  0
 62 63  1  0
 63 64  1  0
 64 65  1  0
 65 66  1  0
 67 66  1  0
 67 76  1  0
 68 76  1  0
 69 74  1  0
 70 71  1  0
 70 69  1  0
 72 71  1  0
 72 81  1  0
 72 73  1  0
 74 68  1  0
 74 73  1  0
 75 68  2  0
 76 77  1  0
 78 79  2  0
 79 98  1  0
 80 79  1  0
 80 83  1  0
 81 78  1  0
 81 82  1  0
 82 80  2  0
 83 84  1  0
 84 85  2  0
 86 89  1  0
 86 85  1  0
 87 86  2  0
 88 87  1  0
 88 83  2  0
 89 90  1  0
 90 91  1  0
 91 92  2  0
 93 92  1  0
 93 97  1  0
 94 93  2  0
 95 90  2  0
 95 94  1  0
 96 95  1  0
 98 99  1  0
 99102  1  0
 99101  1  0
100 98  2  0
103104  1  0
103 78  1  0
105103  1  0
M  ISO  4  12 101  13 101  68 100  76 100
M  END
>  <TORSDO>  (61) 
F 33

>  <SCORE>  (61) 
0.920

>  <name>  (61) 
63

>  <ligand_id>  (61) 
63

>  <original_smiles>  (61) 
[H]c1c([H])c([H])c2c(c1[H])C([H])([H])C([H])([H])C([H])([H])C2([H])N([H])C(=O)C1([H])N(C(=O)C([H])(N([H])C(=O)C([H])(N([H])C([H])([H])[H])C([H])([H])[H])C(C([H])([H])[H])(C([H])([H])[H])C([H])([H])[H])C([H])([H])c2c([H])c(OC([H])([H])C(=O)N([H])c3c([H])c([H])c(C([H])([H])OC([H])([H])C([H])([H])OC([H])([H])C([H])([H])OC([H])([H])C([H])([H])OC([H])([H])C([H])([H])C([H])([H])C([H])([H])N([H])C(=O)N4C([H])([H])C([H])([H])C([H])([H])C([H])(n5nc(-c6c([H])c([H])c(Oc7c([H])c([H])c(F)c([H])c7F)c([H])c6[H])c(C(=O)N([H])[H])c5N([H])[H])C4([H])[H])c([H])c3[H])c([H])c([H])c2C1([H])[H]

>  <smiles>  (61) 
[H]c1c([H])c([H])c2c(c1[H])C([H])([H])C([H])([H])C([H])([H])C2([H])N([H])C(=O)C1([H])N(C(=O)C([H])(N([H])C(=O)C([H])(N([H])C([H])([H])[H])C([H])([H])[H])C(C([H])([H])[H])(C([H])([H])[H])C([H])([H])[H])C([H])([H])c2c([H])c(OC([H])([H])C(=O)N([H])c3c([H])c([H])c(C([H])([H])OC([H])([H])C([H])([H])OC([H])([H])C([H])([H])OC([H])([H])C([H])([H])OC([H])([H])C([H])([H])C([H])([H])C([H])([H])N([H])C(=O)N4C([H])([H])C([H])([H])C([H])([H])C([H])(n5nc(-c6c([H])c([H])c(Oc7c([H])c([H])c(F)c([H])c7F)c([H])c6[H])c(C(=O)N([H])[H])c5N([H])[H])C4([H])[H])c([H])c3[H])c([H])c([H])c2C1([H])[H]

$$$$
64:0:0
     RDKit          3D

115124  0  0  1  0  0  0  0  0999 V2000
  -22.2140  -22.5840   17.0450 C   0  0  0  0  0  3  0  0  0  0  0  0
  -21.6780  -24.9480   17.1750 C   0  0  0  0  0  3  0  0  0  0  0  0
  -20.8450  -22.2730   17.1520 C   0  0  0  0  0  3  0  0  0  0  0  0
  -20.3110  -24.6380   17.2910 C   0  0  0  0  0  3  0  0  0  0  0  0
  -22.6450  -23.9300   17.0520 C   0  0  0  0  0  0  0  0  0  0  0  0
  -19.8810  -23.2910   17.2940 C   0  0  0  0  0  0  0  0  0  0  0  0
  -24.0650  -24.3140   17.0240 C   0  0  0  0  0  3  0  0  0  0  0  0
  -25.1160  -23.4820   16.8840 C   0  0  0  0  0  3  0  0  0  0  0  0
  -26.4640  -24.0090   17.0030 C   0  0  0  0  0  0  0  0  0  0  0  0
  -28.7810  -23.6740   17.6150 C   0  0  0  0  0  1  0  0  0  0  0  0
  -27.4040  -23.1540   17.5180 N   0  0  0  0  0  0  0  0  0  0  0  0
  -26.7340  -25.1690   16.6670 O   0  0  0  0  0  0  0  0  0  0  0  0
  -25.7640  -19.9130   18.6520 C   0  0  0  0  0  3  0  0  0  0  0  0
  -25.9240  -21.2560   18.2700 C   0  0  0  0  0  3  0  0  0  0  0  0
  -26.8860  -19.0910   18.8210 C   0  0  0  0  0  3  0  0  0  0  0  0
  -28.3200  -20.9310   18.1230 C   0  0  0  0  0  3  0  0  0  0  0  0
  -27.2000  -21.7820   17.9430 C   0  0  0  0  0  0  0  0  0  0  0  0
  -28.1820  -19.6130   18.6050 C   0  0  0  0  0  0  0  0  0  0  0  0
  -29.3390  -18.9120   18.8590 O   0  0  0  0  0  0  0  0  0  0  0  0
  -29.3090  -17.9230   19.8830 C   0  0  0  0  0  2  0  0  0  0  0  0
  -30.7360  -17.7270   20.4040 C   0  0  0  0  0  2  0  0  0  0  0  0
  -30.8220  -16.7860   21.6220 C   0  0  0  0  0  2  0  0  0  0  0  0
  -30.7870  -14.5880   20.4520 C   0  0  0  0  0  0  0  0  0  0  0  0
  -30.5220  -12.3870   19.3820 C   0  0  0  0  0  2  0  0  0  0  0  0
  -29.6020  -12.4680   18.1480 C   0  0  0  0  0  2  0  0  0  0  0  0
  -28.1250  -12.3160   18.5570 C   0  0  0  0  0  2  0  0  0  0  0  0
  -27.7340  -13.2500   19.7330 C   0  0  0  0  0  3  0  0  0  0  0  0
  -28.7620  -13.1430   20.8820 C   0  0  0  0  0  2  0  0  0  0  0  0
  -30.1050  -13.4210   20.3370 N   0  0  0  0  0  0  0  0  0  0  0  0
  -31.8070  -14.8460   19.8060 O   0  0  0  0  0  0  0  0  0  0  0  0
  -30.2880  -15.4530   21.3410 N   0  0  0  0  0  0  0  0  0  0  0  0
  -29.4760  -15.1550   21.8610 H   0  0  0  0  0  0  0  0  0  0  0  0
  -25.3230  -13.8560   20.4070 C   0  0  0  0  0  0  0  0  0  0  0  0
  -24.2540  -13.0830   20.7740 C   0  0  0  0  0  0  0  0  0  0  0  0
  -24.7200  -11.7330   20.7570 C   0  0  0  0  0  0  0  0  0  0  0  0
  -26.3750  -12.9770   20.1970 N   0  0  0  0  0  0  0  0  0  0  0  0
  -26.0130  -11.6950   20.4600 N   0  0  0  0  0  0  0  0  0  0  0  0
  -23.9970  -10.4690   20.9510 C   0  0  0  0  0  0  0  0  0  0  0  0
  -24.3910   -9.5360   21.9360 C   0  0  0  0  0  3  0  0  0  0  0  0
  -23.6700   -8.3370   22.1170 C   0  0  0  0  0  3  0  0  0  0  0  0
  -22.5390   -8.0620   21.3100 C   0  0  0  0  0  0  0  0  0  0  0  0
  -22.1640   -8.9820   20.3170 C   0  0  0  0  0  3  0  0  0  0  0  0
  -22.8870  -10.1740   20.1350 C   0  0  0  0  0  3  0  0  0  0  0  0
  -21.7930   -6.9100   21.3970 O   0  0  0  0  0  0  0  0  0  0  0  0
  -21.6490   -6.2330   22.5810 C   0  0  0  0  0  0  0  0  0  0  0  0
  -21.0880   -6.8400   23.7250 C   0  0  0  0  0  3  0  0  0  0  0  0
  -20.8950   -6.0860   24.8990 C   0  0  0  0  0  3  0  0  0  0  0  0
  -21.2540   -4.7260   24.9300 C   0  0  0  0  0  0  0  0  0  0  0  0
  -21.8090   -4.1180   23.7910 C   0  0  0  0  0  3  0  0  0  0  0  0
  -22.0040   -4.8690   22.6190 C   0  0  0  0  0  0  0  0  0  0  0  0
  -22.5190   -4.2720   21.5170 F   0  0  0  0  0  0  0  0  0  0  0  0
  -21.0620   -3.9990   26.0570 F   0  0  0  0  0  0  0  0  0  0  0  0
  -22.8530  -13.5570   21.0330 C   0  0  0  0  0  0  0  0  0  0  0  0
  -22.1290  -12.8760   21.9150 N   0  0  0  0  0  0  0  0  0  0  0  0
  -22.4080  -14.5660   20.4880 O   0  0  0  0  0  0  0  0  0  0  0  0
  -22.5010  -12.0600   22.3770 H   0  0  0  0  0  0  0  0  0  0  0  0
  -21.1880  -13.1760   22.1290 H   0  0  0  0  0  0  0  0  0  0  0  0
  -25.4850  -15.2260   20.2190 N   0  0  0  0  0  0  0  0  0  0  0  0
  -24.7130  -15.8770   20.3040 H   0  0  0  0  0  0  0  0  0  0  0  0
  -26.3370  -15.6590   19.8850 H   0  0  0  0  0  0  0  0  0  0  0  0
  -18.5630  -22.9090   17.4090 O   0  0  0  0  0  0  0  0  0  0  0  0
  -17.6350  -23.8230   17.9980 C   0  0  0  0  0  2  0  0  0  0  0  0
  -17.7370  -23.7880   19.5320 C   0  0  0  0  0  2  0  0  0  0  0  0
  -19.0230  -24.2210   19.9610 O   0  0  0  0  0  0  0  0  0  0  0  0
  -19.2840  -23.9220   21.3270 C   0  0  0  0  0  2  0  0  0  0  0  0
  -20.7320  -23.4270   21.4070 C   0  0  0  0  0  2  0  0  0  0  0  0
  -21.7210  -24.5300   21.3590 N   0  0  0  0  0  4  0  0  0  0  0  0
  -21.7910  -24.9470   22.2760 H   0  0  0  0  0  0  0  0  0  0  0  0
  -21.3850  -25.2380   20.7200 H   0  0  0  0  0  0  0  0  0  0  0  0
  -23.0490  -24.0700   20.8970 C   0  0  0  0  0  2  0  0  0  0  0  0
  -24.2440  -24.8280   21.4880 C   0  0  0  0  0  2  0  0  0  0  0  0
  -25.3480  -24.4680   20.6730 O   0  0  0  0  0  0  0  0  0  0  0  0
  -26.6250  -24.6910   21.2560 C   0  0  0  0  0  2  0  0  0  0  0  0
  -27.6240  -25.0430   20.1310 C   0  0  0  0  0  2  0  0  0  0  0  0
  -27.8170  -26.4520   19.9700 O   0  0  0  0  0  0  0  0  0  0  0  0
  -24.5140  -31.6580   23.4600 C   0  0  0  0  0  0  0  0  0  0  0  0
  -26.7060  -27.2630   19.9990 C   0  0  0  0  0  0  0  0  0  0  0  0
  -23.1740  -30.5170   21.7200 C   0  0  0  0  0  3  0  0  0  0  0  0
  -24.4650  -28.9690   20.1590 C   0  0  0  0  0  0  0  0  0  0  0  0
  -25.7190  -30.6450   21.5300 C   0  0  0  0  0  2  0  0  0  0  0  0
  -25.6670  -29.3300   20.7800 C   0  0  0  0  0  0  0  0  0  0  0  0
  -26.7900  -28.4840   20.6990 C   0  0  0  0  0  3  0  0  0  0  0  0
  -25.4950  -26.9180   19.3580 C   0  0  0  0  0  3  0  0  0  0  0  0
  -24.3730  -27.7610   19.4460 C   0  0  0  0  0  3  0  0  0  0  0  0
  -23.3100  -29.9330   20.2890 C   0  0  0  0  0  2  0  0  0  0  0  0
  -24.4900  -30.9490   22.2950 N   0  0  0  0  0  0  0  0  0  0  0  0
  -23.4650  -31.9940   24.0280 O   0  0  0  0  0  0  0  0  0  0  0  0
  -22.4290  -29.4890   22.6000 C   0  0  0  0  0  0  0  0  0  0  0  0
  -21.0920  -29.4570   22.4790 N   0  0  0  0  0  0  0  0  0  0  0  0
  -23.0490  -28.7280   23.3450 O   0  0  0  0  0  0  0  0  0  0  0  0
  -20.6590  -30.1240   21.8570 H   0  0  0  0  0  0  0  0  0  0  0  0
  -17.6140  -28.5920   22.9240 C   0  0  0  0  0  0  0  0  0  0  0  0
  -20.1840  -28.5470   23.1800 C   0  0  0  0  0  3  0  0  0  0  0  0
  -20.1300  -27.1710   22.4780 C   0  0  0  0  0  2  0  0  0  0  0  0
  -18.9930  -27.0550   21.4590 C   0  0  0  0  0  2  0  0  0  0  0  0
  -17.6380  -27.2960   22.1330 C   0  0  0  0  0  2  0  0  0  0  0  0
  -18.8120  -29.1880   23.4020 C   0  0  0  0  0  0  0  0  0  0  0  0
  -18.7350  -30.4120   24.1000 C   0  0  0  0  0  3  0  0  0  0  0  0
  -17.4950  -31.0370   24.3290 C   0  0  0  0  0  3  0  0  0  0  0  0
  -16.3110  -30.4330   23.8700 C   0  0  0  0  0  3  0  0  0  0  0  0
  -16.3720  -29.2130   23.1720 C   0  0  0  0  0  3  0  0  0  0  0  0
  -25.8580  -32.1040   24.1190 C   0  0  0  0  0  3  0  0  0  0  0  0
  -25.7550  -33.5390   24.4080 N   0  0  0  0  0  0  0  0  0  0  0  0
  -26.2640  -34.5080   23.6360 C   0  0  0  0  0  0  0  0  0  0  0  0
  -26.9430  -34.2760   22.6330 O   0  0  0  0  0  0  0  0  0  0  0  0
  -25.1640  -33.8070   25.1830 H   0  0  0  0  0  0  0  0  0  0  0  0
  -24.8550  -36.5370   23.1590 C   0  0  0  0  0  1  0  0  0  0  0  0
  -25.9750  -35.9660   24.0440 C   0  0  0  0  0  3  0  0  0  0  0  0
  -28.1720  -36.5340   24.9810 C   0  0  0  0  0  1  0  0  0  0  0  0
  -27.1630  -36.8440   23.9700 N   0  0  0  0  0  0  0  0  0  0  0  0
  -26.8970  -37.8190   24.0740 H   0  0  0  0  0  0  0  0  0  0  0  0
  -26.2090  -31.2940   25.4270 C   0  0  1  0  0  0  0  0  0  0  0  0
  -25.0520  -31.2330   26.4520 C   0  0  0  0  0  1  0  0  0  0  0  0
  -26.6100  -29.8410   25.0790 C   0  0  0  0  0  1  0  0  0  0  0  0
  -27.4350  -31.9340   26.1250 C   0  0  0  0  0  1  0  0  0  0  0  0
  1  5  2  0
  1  3  1  0
  2  4  2  0
  3  6  2  0
  4  6  1  0
  5  2  1  0
  6 61  1  0
  7  5  1  0
  8  9  1  0
  8  7  2  0
  9 11  1  0
 11 10  1  0
 11 17  1  0
 12  9  2  0
 13 15  1  0
 14 13  2  0
 16 18  1  0
 17 16  2  0
 17 14  1  0
 18 15  2  0
 18 19  1  0
 19 20  1  0
 20 21  1  0
 21 22  1  0
 23 31  1  0
 24 29  1  0
 25 26  1  0
 25 24  1  0
 27 26  1  0
 27 36  1  0
 27 28  1  0
 29 23  1  0
 29 28  1  0
 30 23  2  0
 31 22  1  0
 31 32  1  0
 33 34  2  0
 34 53  1  0
 35 34  1  0
 35 38  1  0
 36 33  1  0
 36 37  1  0
 37 35  2  0
 38 39  1  0
 39 40  2  0
 41 44  1  0
 41 40  1  0
 42 41  2  0
 43 42  1  0
 43 38  2  0
 44 45  1  0
 45 50  2  0
 45 46  1  0
 46 47  2  0
 47 48  1  0
 48 52  1  0
 49 48  2  0
 50 49  1  0
 51 50  1  0
 53 54  1  0
 54 57  1  0
 54 56  1  0
 55 53  2  0
 58 59  1  0
 58 33  1  0
 60 58  1  0
 61 62  1  0
 62 63  1  0
 63 64  1  0
 64 65  1  0
 65 66  1  0
 67 66  1  0
 67 68  1  0
 69 67  1  0
 70 67  1  0
 70 71  1  0
 72 73  1  0
 72 71  1  0
 74 73  1  0
 75 77  1  0
 75 74  1  0
 76 87  2  0
 77 82  1  0
 78 86  1  0
 78 88  1  0
 79 85  1  0
 79 81  1  0
 80 86  1  0
 81 80  1  0
 82 81  2  0
 83 84  1  0
 83 77  2  0
 84 79  2  0
 85 78  1  0
 86 76  1  0
 88 90  2  0
 89 88  1  0
 91 89  1  0
 92101  2  0
 92 97  1  0
 93 89  1  0
 93 97  1  0
 94 93  1  0
 95 96  1  0
 95 94  1  0
 96 92  1  0
 97 98  2  0
 98 99  1  0
100 99  2  0
101100  1  0
102 76  1  0
102103  1  0
102112  1  0
103106  1  0
104108  1  0
104103  1  0
105104  2  0
108107  1  0
110108  1  0
110111  1  0
110109  1  0
112115  1  1
112113  1  0
114112  1  0
M  ISO  4  23 100  31 100  74 101  75 101
M  END
>  <TORSDO>  (62) 
F 35

>  <SCORE>  (62) 
-9.115

>  <name>  (62) 
64

>  <ligand_id>  (62) 
64

>  <original_smiles>  (62) 
[H]C(C(=O)N(c1c([H])c([H])c([H])c(OC([H])([H])C([H])([H])C([H])([H])N([H])C(=O)N2C([H])([H])C([H])([H])C([H])([H])C([H])(n3nc(-c4c([H])c([H])c(Oc5c([H])c([H])c(F)c([H])c5F)c([H])c4[H])c(C(=O)N([H])[H])c3N([H])[H])C2([H])[H])c1[H])C([H])([H])[H])=C([H])c1c([H])c([H])c(OC([H])([H])C([H])([H])OC([H])([H])C([H])([H])[N+]([H])([H])C([H])([H])C([H])([H])OC([H])([H])C([H])([H])Oc2c([H])c([H])c3c(c2[H])C([H])([H])N(C(=O)C([H])(N([H])C(=O)C([H])(N([H])C([H])([H])[H])C([H])([H])[H])C(C([H])([H])[H])(C([H])([H])[H])C([H])([H])[H])C([H])(C(=O)N([H])C2([H])c4c([H])c([H])c([H])c([H])c4C([H])([H])C([H])([H])C2([H])[H])C3([H])[H])c([H])c1[H]

>  <smiles>  (62) 
[H]C(C(=O)N(c1c([H])c([H])c([H])c(OC([H])([H])C([H])([H])C([H])([H])N([H])C(=O)N2C([H])([H])C([H])([H])C([H])([H])C([H])(n3nc(-c4c([H])c([H])c(Oc5c([H])c([H])c(F)c([H])c5F)c([H])c4[H])c(C(=O)N([H])[H])c3N([H])[H])C2([H])[H])c1[H])C([H])([H])[H])=C([H])c1c([H])c([H])c(OC([H])([H])C([H])([H])OC([H])([H])C([H])([H])[N+]([H])([H])C([H])([H])C([H])([H])OC([H])([H])C([H])([H])Oc2c([H])c([H])c3c(c2[H])C([H])([H])N(C(=O)C([H])(N([H])C(=O)C([H])(N([H])C([H])([H])[H])C([H])([H])[H])C(C([H])([H])[H])(C([H])([H])[H])C([H])([H])[H])C([H])(C(=O)N([H])C2([H])c4c([H])c([H])c([H])c([H])c4C([H])([H])C([H])([H])C2([H])[H])C3([H])[H])c([H])c1[H]

$$$$
65:0:0
     RDKit          3D

103105  0  0  1  0  0  0  0  0999 V2000
  -21.6400  -25.7630   19.7030 C   0  0  0  0  0  1  0  0  0  0  0  0
  -20.4660  -26.9700   20.7730 C   0  0  0  0  0  2  0  0  0  0  0  0
  -20.3100  -26.7890   22.7830 N   0  0  0  0  0  2  0  0  0  0  0  0
  -19.8420  -27.7290   20.0170 O   0  0  0  0  0  0  0  0  0  0  0  0
  -19.4430  -27.2720   23.0130 H   0  0  0  0  0  0  0  0  0  0  0  0
  -20.8830  -25.4660   25.0160 C   0  0  0  0  0  1  0  0  0  0  0  0
  -21.2570  -26.7160   24.1970 C   0  0  0  0  0  3  0  0  0  0  0  0
  -23.0230  -27.0670   24.3740 C   0  0  0  0  0  2  0  0  0  0  0  0
  -24.2810  -26.3920   23.6520 O   0  0  0  0  0  0  0  0  0  0  0  0
  -25.5880  -26.8630   22.9190 C   0  0  0  0  0  3  0  0  0  0  0  0
  -26.2930  -26.1410   21.5590 C   0  0  0  0  0  3  0  0  0  0  0  0
  -27.3940  -26.6590   20.5520 O   0  0  0  0  0  0  0  0  0  0  0  0
  -24.7400  -31.9680   22.9920 C   0  0  0  0  0  0  0  0  0  0  0  0
  -26.9660  -27.6690   19.7510 C   0  0  0  0  0  0  0  0  0  0  0  0
  -23.5210  -30.8450   21.1790 C   0  0  0  0  0  3  0  0  0  0  0  0
  -24.8450  -29.3990   19.5700 C   0  0  0  0  0  0  0  0  0  0  0  0
  -26.0060  -31.1270   20.9900 C   0  0  0  0  0  2  0  0  0  0  0  0
  -26.0130  -29.8140   20.2260 C   0  0  0  0  0  0  0  0  0  0  0  0
  -27.1220  -28.9620   20.2730 C   0  0  0  0  0  3  0  0  0  0  0  0
  -25.9160  -27.3450   18.8760 C   0  0  0  0  0  3  0  0  0  0  0  0
  -24.8020  -28.1930   18.8440 C   0  0  0  0  0  3  0  0  0  0  0  0
  -23.6620  -30.3110   19.7230 C   0  0  0  0  0  2  0  0  0  0  0  0
  -24.7780  -31.3520   21.7730 N   0  0  0  0  0  0  0  0  0  0  0  0
  -23.6720  -32.1480   23.6020 O   0  0  0  0  0  0  0  0  0  0  0  0
  -23.0540  -29.7030   22.0180 C   0  0  0  0  0  0  0  0  0  0  0  0
  -21.8090  -29.4190   21.8470 N   0  0  0  0  0  0  0  0  0  0  0  0
  -23.7890  -29.0910   22.7870 O   0  0  0  0  0  0  0  0  0  0  0  0
  -21.1790  -29.9390   21.2510 H   0  0  0  0  0  0  0  0  0  0  0  0
  -18.1310  -27.9610   22.8190 C   0  0  0  0  0  3  0  0  0  0  0  0
  -21.3750  -28.3870   22.6200 C   0  0  0  0  0  1  0  0  0  0  0  0
  -21.9290  -26.1180   21.9910 C   0  0  0  0  0 15  0  0  0  0  0  0
  -19.8850  -24.7950   21.8930 C   0  0  0  0  0 15  0  0  0  0  0  0
  -18.0370  -26.0380   22.2410 C   0  0  0  0  0 15  0  0  0  0  0  0
  -19.5030  -28.9090   23.0050 C   0  0  0  0  0  3  0  0  0  0  0  0
  -19.3410  -30.0800   23.8090 C   0  0  0  0  0  3  0  0  0  0  0  0
  -18.0990  -30.5330   24.3010 C   0  0  0  0  0  3  0  0  0  0  0  0
  -16.9220  -29.8180   24.0170 C   0  0  0  0  0  3  0  0  0  0  0  0
  -16.9490  -28.5770   23.3310 C   0  0  0  0  0  3  0  0  0  0  0  0
  -26.0360  -32.4920   23.6580 C   0  0  0  0  0  3  0  0  0  0  0  0
  -25.7300  -33.8330   24.1630 N   0  0  0  0  0  0  0  0  0  0  0  0
  -25.9810  -34.9580   23.4830 C   0  0  0  0  0  0  0  0  0  0  0  0
  -26.5780  -34.9700   22.4040 O   0  0  0  0  0  0  0  0  0  0  0  0
  -25.1930  -33.8900   25.0160 H   0  0  0  0  0  0  0  0  0  0  0  0
  -24.2000  -36.7320   23.4160 C   0  0  0  0  0  1  0  0  0  0  0  0
  -25.4960  -36.2790   24.1060 C   0  0  0  0  0  3  0  0  0  0  0  0
  -27.6710  -37.1150   24.8800 C   0  0  0  0  0  1  0  0  0  0  0  0
  -26.5050  -37.3580   24.0340 N   0  0  0  0  0  0  0  0  0  0  0  0
  -26.0980  -38.2500   24.3030 H   0  0  0  0  0  0  0  0  0  0  0  0
  -26.5890  -31.5630   24.8080 C   0  0  1  0  0  0  0  0  0  0  0  0
  -25.5430  -31.2070   25.8900 C   0  0  0  0  0  1  0  0  0  0  0  0
  -27.1400  -30.2390   24.2290 C   0  0  0  0  0  1  0  0  0  0  0  0
  -27.7740  -32.2720   25.5040 C   0  0  0  0  0  1  0  0  0  0  0  0
  -23.0500  -24.7150   20.1200 O   0  0  0  0  0  0  0  0  0  0  0  0
  -28.5070  -19.4680   18.2680 C   0  0  0  0  0  3  0  0  0  0  0  0
  -27.4530  -20.3410   17.7470 C   0  0  0  0  0  3  0  0  0  0  0  0
  -27.8360  -20.2540   20.3720 C   0  0  0  0  0  3  0  0  0  0  0  0
  -26.6950  -21.2610   19.8560 C   0  0  0  0  0  0  0  0  0  0  0  0
  -28.8560  -19.2560   19.6460 C   0  0  0  0  0  0  0  0  0  0  0  0
  -26.5620  -21.2320   18.4650 C   0  0  0  0  0  0  0  0  0  0  0  0
  -25.5010  -22.4130   20.5090 C   0  0  0  0  0  2  0  0  0  0  0  0
  -24.1690  -23.3920   19.6800 C   0  0  0  0  0  3  0  0  0  0  0  0
  -24.8530  -23.2660   18.2470 C   0  0  2  0  0  0  0  0  0  0  0  0
  -25.8850  -24.3860   18.0690 C   0  0  0  0  0  1  0  0  0  0  0  0
  -23.7470  -23.4200   17.1830 C   0  0  0  0  0  1  0  0  0  0  0  0
  -25.5240  -21.9730   17.8240 O   0  0  0  0  0  0  0  0  0  0  0  0
  -31.0830  -16.9020   19.9090 C   0  0  0  0  0  0  0  0  0  0  0  0
  -31.6500  -14.3670   19.2460 C   0  0  0  0  0  2  0  0  0  0  0  0
  -30.8590  -13.9030   17.9920 C   0  0  0  0  0  2  0  0  0  0  0  0
  -29.3990  -13.5890   18.3720 C   0  0  0  0  0  2  0  0  0  0  0  0
  -28.8490  -14.6310   19.3750 C   0  0  0  0  0  3  0  0  0  0  0  0
  -29.7570  -14.8370   20.5760 C   0  0  0  0  0  2  0  0  0  0  0  0
  -30.8730  -15.4840   19.9510 N   0  0  0  0  0  0  0  0  0  0  0  0
  -32.3280  -17.0200   19.7200 O   0  0  0  0  0  0  0  0  0  0  0  0
  -30.0790  -18.1090   20.1510 N   0  0  0  0  0  0  0  0  0  0  0  0
  -30.6370  -18.6440   20.8010 H   0  0  0  0  0  0  0  0  0  0  0  0
  -26.5540  -15.3140   20.1200 C   0  0  0  0  0  0  0  0  0  0  0  0
  -25.4540  -14.5920   20.4620 C   0  0  0  0  0  0  0  0  0  0  0  0
  -25.8590  -13.2220   20.4220 C   0  0  0  0  0  0  0  0  0  0  0  0
  -27.5250  -14.3790   19.8450 N   0  0  0  0  0  0  0  0  0  0  0  0
  -27.1400  -13.1150   20.1140 N   0  0  0  0  0  0  0  0  0  0  0  0
  -25.0830  -11.9990   20.5850 C   0  0  0  0  0  0  0  0  0  0  0  0
  -25.4070  -11.0440   21.5730 C   0  0  0  0  0  3  0  0  0  0  0  0
  -24.6260   -9.8790   21.7150 C   0  0  0  0  0  3  0  0  0  0  0  0
  -23.5100   -9.6690   20.8710 C   0  0  0  0  0  0  0  0  0  0  0  0
  -23.2110  -10.6120   19.8730 C   0  0  0  0  0  3  0  0  0  0  0  0
  -23.9920  -11.7670   19.7280 C   0  0  0  0  0  3  0  0  0  0  0  0
  -22.7070   -8.5580   20.9220 O   0  0  0  0  0  0  0  0  0  0  0  0
  -22.3720   -7.9720   22.1150 C   0  0  0  0  0  0  0  0  0  0  0  0
  -21.7770   -8.7040   23.1660 C   0  0  0  0  0  3  0  0  0  0  0  0
  -21.3850   -8.0440   24.3480 C   0  0  0  0  0  3  0  0  0  0  0  0
  -21.5800   -6.6560   24.4760 C   0  0  0  0  0  0  0  0  0  0  0  0
  -22.1680   -5.9260   23.4280 C   0  0  0  0  0  3  0  0  0  0  0  0
  -22.5610   -6.5830   22.2500 C   0  0  0  0  0  0  0  0  0  0  0  0
  -23.1090   -5.8730   21.2340 F   0  0  0  0  0  0  0  0  0  0  0  0
  -21.1940   -6.0200   25.6070 F   0  0  0  0  0  0  0  0  0  0  0  0
  -24.0870  -15.1410   20.7100 C   0  0  0  0  0  0  0  0  0  0  0  0
  -23.3250  -14.5070   21.5900 N   0  0  0  0  0  0  0  0  0  0  0  0
  -23.7060  -16.1740   20.1570 O   0  0  0  0  0  0  0  0  0  0  0  0
  -23.6490  -13.6730   22.0570 H   0  0  0  0  0  0  0  0  0  0  0  0
  -22.4030  -14.8620   21.8030 H   0  0  0  0  0  0  0  0  0  0  0  0
  -26.7980  -16.6750   20.0010 N   0  0  0  0  0  0  0  0  0  0  0  0
  -26.0730  -17.3690   20.1450 H   0  0  0  0  0  0  0  0  0  0  0  0
  -27.7020  -17.0860   19.8080 H   0  0  0  0  0  0  0  0  0  0  0  0
  1 53  1  0
  3  5  1  0
  3  7  1  0
  4  2  2  0
  7  8  1  0
  7  6  1  0
  9  8  1  0
 10  9  1  0
 11 10  2  0
 12 11  1  0
 13 24  2  0
 14 19  1  0
 14 12  1  0
 15 23  1  0
 15 25  1  0
 16 22  1  0
 16 18  1  0
 17 23  1  0
 18 19  2  0
 18 17  1  0
 20 14  2  0
 21 20  1  0
 21 16  2  0
 22 15  1  0
 23 13  1  0
 25 27  2  0
 26 25  1  0
 26 30  1  0
 28 26  1  0
 29 34  2  0
 29 38  1  0
 34 35  1  0
 35 36  2  0
 37 36  1  0
 38 37  2  0
 39 13  1  0
 39 40  1  0
 39 49  1  0
 40 43  1  0
 41 45  1  0
 41 40  1  0
 42 41  2  0
 45 44  1  0
 47 45  1  0
 47 48  1  0
 47 46  1  0
 49 52  1  1
 49 50  1  0
 51 49  1  0
 54 58  1  0
 55 54  2  0
 55 59  1  0
 57 56  1  0
 57 60  1  0
 58 74  1  0
 58 56  2  0
 59 57  2  0
 61 53  1  0
 61 60  1  0
 62 61  1  0
 62 63  1  6
 64 62  1  0
 65 62  1  0
 65 59  1  0
 66 72  1  0
 66 74  1  0
 67 72  1  0
 68 69  1  0
 68 67  1  0
 70 69  1  0
 70 79  1  0
 70 71  1  0
 72 71  1  0
 73 66  2  0
 74 75  1  0
 76 77  2  0
 77 96  1  0
 78 77  1  0
 78 81  1  0
 79 80  1  0
 79 76  1  0
 80 78  2  0
 81 82  1  0
 82 83  2  0
 84 87  1  0
 84 83  1  0
 85 84  2  0
 86 85  1  0
 86 81  2  0
 87 88  1  0
 88 93  2  0
 88 89  1  0
 89 90  2  0
 90 91  1  0
 91 95  1  0
 92 91  2  0
 93 92  1  0
 94 93  1  0
 96 97  1  0
 97100  1  0
 97 99  1  0
 98 96  2  0
101 76  1  0
101102  1  0
103101  1  0
M  ISO  4  11 101  12 101  66 100  74 100
M  END
>  <TORSDO>  (63) 
F 24

>  <SCORE>  (63) 
-3.647

>  <name>  (63) 
65

>  <ligand_id>  (63) 
65

>  <original_smiles>  (63) 
[H]c1c([H])c([H])c2c(c1[H])C([H])([H])C([H])([H])C([H])([H])C2([H])N([H])C(=O)C1([H])N(C(=O)C([H])(N([H])C(=O)C([H])(N([H])C([H])([H])[H])C([H])([H])[H])C(C([H])([H])[H])(C([H])([H])[H])C([H])([H])[H])C([H])([H])c2c([H])c(OC([H])([H])C([H])([H])OC([H])([H])C([H])(N([H])C(=O)C([H])([H])OC3([H])C([H])([H])c4c([H])c(N([H])C(=O)N5C([H])([H])C([H])([H])C([H])([H])C([H])(n6nc(-c7c([H])c([H])c(Oc8c([H])c([H])c(F)c([H])c8F)c([H])c7[H])c(C(=O)N([H])[H])c6N([H])[H])C5([H])[H])c([H])c([H])c4OC3(C([H])([H])[H])C([H])([H])[H])C([H])([H])[H])c([H])c([H])c2C1([H])[H]

>  <smiles>  (63) 
[H]c1c([H])c([H])c2c(c1[H])C([H])([H])C([H])([H])C([H])([H])C2([H])N([H])C(=O)C1([H])N(C(=O)C([H])(N([H])C(=O)C([H])(N([H])C([H])([H])[H])C([H])([H])[H])C(C([H])([H])[H])(C([H])([H])[H])C([H])([H])[H])C([H])([H])c2c([H])c(OC([H])([H])C([H])([H])OC([H])([H])C([H])(N([H])C(=O)C([H])([H])OC3([H])C([H])([H])c4c([H])c(N([H])C(=O)N5C([H])([H])C([H])([H])C([H])([H])C([H])(n6nc(-c7c([H])c([H])c(Oc8c([H])c([H])c(F)c([H])c8F)c([H])c7[H])c(C(=O)N([H])[H])c6N([H])[H])C5([H])[H])c([H])c([H])c4OC3(C([H])([H])[H])C([H])([H])[H])C([H])([H])[H])c([H])c([H])c2C1([H])[H]

$$$$
66:0:0
     RDKit          3D

 85 92  0  0  1  0  0  0  0  0999 V2000
  -28.4570  -23.4040   19.8810 C   0  0  0  0  0  2  0  0  0  0  0  0
  -29.2760  -21.9320   20.2460 C   0  0  0  0  0  2  0  0  0  0  0  0
  -28.8090  -20.4760   20.5590 O   0  0  0  0  0  0  0  0  0  0  0  0
  -29.3010  -19.1110   19.9590 C   0  0  0  0  0  2  0  0  0  0  0  0
  -29.9300  -17.7290   20.7400 C   0  0  0  0  0  2  0  0  0  0  0  0
  -30.4640  -15.0040   20.3130 C   0  0  0  0  0  0  0  0  0  0  0  0
  -30.3560  -12.6430   19.3650 C   0  0  0  0  0  2  0  0  0  0  0  0
  -29.4110  -12.5760   18.1440 C   0  0  0  0  0  2  0  0  0  0  0  0
  -27.9500  -12.3660   18.5900 C   0  0  0  0  0  2  0  0  0  0  0  0
  -27.5520  -13.2910   19.7690 C   0  0  0  0  0  3  0  0  0  0  0  0
  -28.6180  -13.3140   20.8810 C   0  0  0  0  0  2  0  0  0  0  0  0
  -29.8720  -13.7410   20.2490 N   0  0  0  0  0  0  0  0  0  0  0  0
  -31.6780  -15.0660   20.0990 O   0  0  0  0  0  0  0  0  0  0  0  0
  -29.6660  -16.1880   20.4130 N   0  0  0  0  0  0  0  0  0  0  0  0
  -28.6840  -15.9610   20.4190 H   0  0  0  0  0  0  0  0  0  0  0  0
  -25.1860  -13.8710   20.5420 C   0  0  0  0  0  0  0  0  0  0  0  0
  -24.1240  -13.0970   20.9220 C   0  0  0  0  0  0  0  0  0  0  0  0
  -24.5870  -11.7450   20.8830 C   0  0  0  0  0  0  0  0  0  0  0  0
  -26.2230  -12.9910   20.2850 N   0  0  0  0  0  0  0  0  0  0  0  0
  -25.8740  -11.7070   20.5590 N   0  0  0  0  0  0  0  0  0  0  0  0
  -23.8590  -10.4840   21.0760 C   0  0  0  0  0  0  0  0  0  0  0  0
  -24.3090   -9.5040   21.9880 C   0  0  0  0  0  3  0  0  0  0  0  0
  -23.5820   -8.3080   22.1700 C   0  0  0  0  0  3  0  0  0  0  0  0
  -22.3900   -8.0840   21.4410 C   0  0  0  0  0  0  0  0  0  0  0  0
  -21.9590   -9.0530   20.5170 C   0  0  0  0  0  3  0  0  0  0  0  0
  -22.6870  -10.2400   20.3330 C   0  0  0  0  0  3  0  0  0  0  0  0
  -21.6300   -6.9430   21.5340 O   0  0  0  0  0  0  0  0  0  0  0  0
  -21.6210   -6.1760   22.6710 C   0  0  0  0  0  0  0  0  0  0  0  0
  -21.2590   -6.7090   23.9270 C   0  0  0  0  0  3  0  0  0  0  0  0
  -21.1950   -5.8680   25.0570 C   0  0  0  0  0  3  0  0  0  0  0  0
  -21.4840   -4.4960   24.9310 C   0  0  0  0  0  0  0  0  0  0  0  0
  -21.8390   -3.9620   23.6800 C   0  0  0  0  0  3  0  0  0  0  0  0
  -21.9040   -4.7990   22.5530 C   0  0  0  0  0  0  0  0  0  0  0  0
  -22.2260   -4.2760   21.3460 F   0  0  0  0  0  0  0  0  0  0  0  0
  -21.4160   -3.6870   26.0140 F   0  0  0  0  0  0  0  0  0  0  0  0
  -22.7310  -13.5750   21.2040 C   0  0  0  0  0  0  0  0  0  0  0  0
  -22.0090  -12.8800   22.0760 N   0  0  0  0  0  0  0  0  0  0  0  0
  -22.2900  -14.6010   20.6870 O   0  0  0  0  0  0  0  0  0  0  0  0
  -22.3780  -12.0500   22.5170 H   0  0  0  0  0  0  0  0  0  0  0  0
  -21.0730  -13.1810   22.3070 H   0  0  0  0  0  0  0  0  0  0  0  0
  -25.3460  -15.2430   20.3680 N   0  0  0  0  0  0  0  0  0  0  0  0
  -24.5770  -15.8930   20.4960 H   0  0  0  0  0  0  0  0  0  0  0  0
  -26.1800  -15.6870   20.0060 H   0  0  0  0  0  0  0  0  0  0  0  0
  -28.1510  -24.6440   20.7620 O   0  0  0  0  0  0  0  0  0  0  0  0
  -28.3110  -26.1920   20.1060 O   0  0  0  0  0  0  0  0  0  0  0  0
  -24.6210  -31.8580   23.1960 C   0  0  0  0  0  0  0  0  0  0  0  0
  -27.2050  -27.1180   20.1880 C   0  0  0  0  0  0  0  0  0  0  0  0
  -23.4220  -30.4500   21.5670 C   0  0  0  0  0  3  0  0  0  0  0  0
  -24.8680  -28.8580   20.1550 C   0  0  0  0  0  0  0  0  0  0  0  0
  -25.9730  -30.7160   21.3940 C   0  0  0  0  0  2  0  0  0  0  0  0
  -26.0460  -29.3120   20.7610 C   0  0  0  0  0  0  0  0  0  0  0  0
  -27.2140  -28.4570   20.7610 C   0  0  0  0  0  3  0  0  0  0  0  0
  -26.0000  -26.7620   19.5510 C   0  0  0  0  0  3  0  0  0  0  0  0
  -24.8570  -27.5950   19.5390 C   0  0  0  0  0  3  0  0  0  0  0  0
  -23.6410  -29.7590   20.1930 C   0  0  0  0  0  2  0  0  0  0  0  0
  -24.6920  -31.0320   22.1060 N   0  0  0  0  0  0  0  0  0  0  0  0
  -23.5360  -32.1430   23.7260 O   0  0  0  0  0  0  0  0  0  0  0  0
  -22.7460  -29.4500   22.5380 C   0  0  0  0  0  0  0  0  0  0  0  0
  -21.4180  -29.2800   22.4190 N   0  0  0  0  0  0  0  0  0  0  0  0
  -23.4230  -28.8270   23.3600 O   0  0  0  0  0  0  0  0  0  0  0  0
  -20.9290  -29.8320   21.7280 H   0  0  0  0  0  0  0  0  0  0  0  0
  -18.0400  -28.0770   22.9440 C   0  0  0  0  0  0  0  0  0  0  0  0
  -20.6000  -28.3450   23.1990 C   0  0  0  0  0  3  0  0  0  0  0  0
  -20.7020  -26.9100   22.6300 C   0  0  0  0  0  2  0  0  0  0  0  0
  -19.5960  -26.5820   21.6220 C   0  0  0  0  0  2  0  0  0  0  0  0
  -18.2170  -26.7250   22.2720 C   0  0  0  0  0  2  0  0  0  0  0  0
  -19.1600  -28.8440   23.3650 C   0  0  0  0  0  0  0  0  0  0  0  0
  -18.9390  -30.1060   23.9560 C   0  0  0  0  0  3  0  0  0  0  0  0
  -17.6330  -30.6030   24.1300 C   0  0  0  0  0  3  0  0  0  0  0  0
  -16.5290  -29.8340   23.7240 C   0  0  0  0  0  3  0  0  0  0  0  0
  -16.7340  -28.5720   23.1370 C   0  0  0  0  0  3  0  0  0  0  0  0
  -25.8990  -32.5010   23.8160 C   0  0  0  0  0  3  0  0  0  0  0  0
  -25.5780  -33.8970   24.1580 N   0  0  0  0  0  0  0  0  0  0  0  0
  -25.9010  -34.9620   23.4110 C   0  0  0  0  0  0  0  0  0  0  0  0
  -26.5660  -34.8730   22.3760 O   0  0  0  0  0  0  0  0  0  0  0  0
  -24.9850  -34.0390   24.9620 H   0  0  0  0  0  0  0  0  0  0  0  0
  -24.1620  -36.7530   23.0910 C   0  0  0  0  0  1  0  0  0  0  0  0
  -25.4120  -36.3450   23.8870 C   0  0  0  0  0  3  0  0  0  0  0  0
  -27.5510  -37.2320   24.7070 C   0  0  0  0  0  1  0  0  0  0  0  0
  -26.4390  -37.4040   23.7740 N   0  0  0  0  0  0  0  0  0  0  0  0
  -26.0300  -38.3210   23.9340 H   0  0  0  0  0  0  0  0  0  0  0  0
  -26.4240  -31.7320   25.0910 C   0  0  1  0  0  0  0  0  0  0  0  0
  -25.3360  -31.4920   26.1640 C   0  0  0  0  0  1  0  0  0  0  0  0
  -27.0090  -30.3560   24.7020 C   0  0  0  0  0  1  0  0  0  0  0  0
  -27.5760  -32.5300   25.7470 C   0  0  0  0  0  1  0  0  0  0  0  0
  1  2  1  0
  1 44  1  0
  2  3  1  0
  4  3  1  0
  4  5  1  0
  6 14  1  0
  7 12  1  0
  8  9  1  0
  8  7  1  0
 10  9  1  0
 10 19  1  0
 10 11  1  0
 12  6  1  0
 12 11  1  0
 13  6  2  0
 14 15  1  0
 14  5  1  0
 16 17  2  0
 17 36  1  0
 18 17  1  0
 18 21  1  0
 19 16  1  0
 19 20  1  0
 20 18  2  0
 21 22  1  0
 22 23  2  0
 24 27  1  0
 24 23  1  0
 25 24  2  0
 26 25  1  0
 26 21  2  0
 27 28  1  0
 28 29  1  0
 29 30  2  0
 31 30  1  0
 31 35  1  0
 32 31  2  0
 33 28  2  0
 33 32  1  0
 34 33  1  0
 36 37  1  0
 37 40  1  0
 37 39  1  0
 38 36  2  0
 41 42  1  0
 41 16  1  0
 43 41  1  0
 45 47  1  0
 45 44  1  0
 46 57  2  0
 47 52  1  0
 48 56  1  0
 48 58  1  0
 49 55  1  0
 49 51  1  0
 50 56  1  0
 51 50  1  0
 52 51  2  0
 53 47  2  0
 54 53  1  0
 54 49  2  0
 55 48  1  0
 56 46  1  0
 58 60  2  0
 59 58  1  0
 61 59  1  0
 62 71  2  0
 62 67  1  0
 63 59  1  0
 63 67  1  0
 64 63  1  0
 65 66  1  0
 65 64  1  0
 66 62  1  0
 67 68  2  0
 68 69  1  0
 70 69  2  0
 71 70  1  0
 72 46  1  0
 72 73  1  0
 72 82  1  0
 73 76  1  0
 74 78  1  0
 74 73  1  0
 75 74  2  0
 78 77  1  0
 80 78  1  0
 80 81  1  0
 80 79  1  0
 82 85  1  1
 82 83  1  0
 84 82  1  0
M  ISO  4   6 100  14 100  44 101  45 101
M  END
>  <TORSDO>  (64) 
F 21

>  <SCORE>  (64) 
-15.638

>  <name>  (64) 
66

>  <ligand_id>  (64) 
66

>  <original_smiles>  (64) 
[H]c1c([H])c([H])c2c(c1[H])C([H])([H])C([H])([H])C([H])([H])C2([H])N([H])C(=O)C1([H])N(C(=O)C([H])(N([H])C(=O)C([H])(N([H])C([H])([H])[H])C([H])([H])[H])C(C([H])([H])[H])(C([H])([H])[H])C([H])([H])[H])C([H])([H])c2c([H])c(OOC([H])([H])C([H])([H])OC([H])([H])C([H])([H])N([H])C(=O)N3C([H])([H])C([H])([H])C([H])([H])C([H])(n4nc(-c5c([H])c([H])c(Oc6c([H])c([H])c(F)c([H])c6F)c([H])c5[H])c(C(=O)N([H])[H])c4N([H])[H])C3([H])[H])c([H])c([H])c2C1([H])[H]

>  <smiles>  (64) 
[H]c1c([H])c([H])c2c(c1[H])C([H])([H])C([H])([H])C([H])([H])C2([H])N([H])C(=O)C1([H])N(C(=O)C([H])(N([H])C(=O)C([H])(N([H])C([H])([H])[H])C([H])([H])[H])C(C([H])([H])[H])(C([H])([H])[H])C([H])([H])[H])C([H])([H])c2c([H])c(OOC([H])([H])C([H])([H])OC([H])([H])C([H])([H])N([H])C(=O)N3C([H])([H])C([H])([H])C([H])([H])C([H])(n4nc(-c5c([H])c([H])c(Oc6c([H])c([H])c(F)c([H])c6F)c([H])c5[H])c(C(=O)N([H])[H])c4N([H])[H])C3([H])[H])c([H])c([H])c2C1([H])[H]

$$$$
67:0:0
     RDKit          3D

 98104  0  0  1  0  0  0  0  0999 V2000
  -28.3190  -12.7780   21.5980 C   0  0  0  0  0  2  0  0  0  0  0  0
  -28.8320  -13.4380   18.5530 C   0  0  0  0  0  3  0  0  0  0  0  0
  -28.5280  -14.7700   21.9080 C   0  0  0  0  0  1  0  0  0  0  0  0
  -29.0490  -15.2150   18.9910 C   0  0  0  0  0  3  0  0  0  0  0  0
  -28.4690  -12.1180   19.7800 C   0  0  1  0  0  0  0  0  0  0  0  0
  -28.8460  -16.0730   20.5650 C   0  0  0  0  0  2  0  0  0  0  0  0
  -28.0380  -10.5460   19.0690 C   0  0  0  0  0  0  0  0  0  0  0  0
  -26.8520   -9.4380   19.3200 N   0  0  0  0  0  2  0  0  0  0  0  0
  -28.8330  -10.3640   18.1430 O   0  0  0  0  0  0  0  0  0  0  0  0
  -28.3110   -8.4120   17.3970 C   0  0  0  0  0  1  0  0  0  0  0  0
  -25.7280   -8.3010   17.2690 C   0  0  0  0  0  1  0  0  0  0  0  0
  -26.9690   -8.3820   18.1850 C   0  0  0  0  0  3  0  0  0  0  0  0
  -25.0830   -9.4320   21.8580 C   0  0  0  0  0  3  0  0  0  0  0  0
  -26.0580   -9.9780   23.4770 C   0  0  0  0  0  2  0  0  0  0  0  0
  -27.8710  -10.1250   24.0060 C   0  0  0  0  0  2  0  0  0  0  0  0
  -29.3790  -11.2540   24.0480 C   0  0  0  0  0  2  0  0  0  0  0  0
  -31.8550  -11.9460   22.2010 C   0  0  0  0  0  0  0  0  0  0  0  0
  -32.7290  -11.1930   19.8320 C   0  0  0  0  0  3  0  0  0  0  0  0
  -32.0060  -11.5220   18.4240 C   0  0  0  0  0  3  0  0  0  0  0  0
  -30.4440  -11.7240   18.4200 C   0  0  0  0  0  2  0  0  0  0  0  0
  -29.9270  -12.3240   19.8000 C   0  0  0  0  0  3  0  0  0  0  0  0
  -30.7760  -10.8960   20.4030 C   0  0  0  0  0  2  0  0  0  0  0  0
  -31.8790  -11.2830   21.0250 N   0  0  0  0  0  0  0  0  0  0  0  0
  -32.8320  -12.7500   22.2070 O   0  0  0  0  0  0  0  0  0  0  0  0
  -30.9510  -11.3940   23.3030 N   0  0  0  0  0  0  0  0  0  0  0  0
  -31.5490  -11.5370   24.1040 H   0  0  0  0  0  0  0  0  0  0  0  0
  -26.3090  -13.6620   20.5640 C   0  0  0  0  0  0  0  0  0  0  0  0
  -25.3100  -12.7500   20.7650 C   0  0  0  0  0  0  0  0  0  0  0  0
  -25.9400  -11.6000   21.0760 C   0  0  0  0  0  3  0  0  0  0  0  0
  -27.3800  -12.9290   20.6890 N   0  0  2  0  0  4  0  0  0  0  0  0
  -26.6630  -12.2730   21.7460 N   0  0  0  0  0  0  0  0  0  0  0  0
  -25.7870  -10.2770   21.2730 C   0  0  1  0  0  0  0  0  0  0  0  0
  -26.8560   -8.6920   21.5900 C   0  0  0  0  0  3  0  0  0  0  0  0
  -25.8780   -7.1780   21.5970 C   0  0  0  0  0  3  0  0  0  0  0  0
  -24.1890   -7.2320   21.3640 C   0  0  0  0  0  0  0  0  0  0  0  0
  -23.4430   -8.5890   20.9860 C   0  0  0  0  0  3  0  0  0  0  0  0
  -24.1350  -10.0330   20.9240 C   0  0  0  0  0  3  0  0  0  0  0  0
  -23.2200   -6.2040   21.4160 O   0  0  0  0  0  0  0  0  0  0  0  0
  -22.5770   -5.7190   22.5520 C   0  0  0  0  0  0  0  0  0  0  0  0
  -21.8440   -6.5010   23.4790 C   0  0  0  0  0  3  0  0  0  0  0  0
  -21.3500   -5.9170   24.6710 C   0  0  0  0  0  3  0  0  0  0  0  0
  -21.5530   -4.5470   24.9330 C   0  0  0  0  0  0  0  0  0  0  0  0
  -22.1750   -3.7470   23.9630 C   0  0  0  0  0  3  0  0  0  0  0  0
  -22.6610   -4.3250   22.7750 C   0  0  0  0  0  0  0  0  0  0  0  0
  -23.2400   -3.5310   21.8450 F   0  0  0  0  0  0  0  0  0  0  0  0
  -21.1570   -3.9980   26.1070 F   0  0  0  0  0  0  0  0  0  0  0  0
  -23.9430  -13.0550   21.0340 C   0  0  0  0  0  0  0  0  0  0  0  0
  -23.3430  -12.4370   22.0510 N   0  0  0  0  0  0  0  0  0  0  0  0
  -23.4690  -13.9490   20.3740 O   0  0  0  0  0  0  0  0  0  0  0  0
  -23.8360  -11.7420   22.5910 H   0  0  0  0  0  0  0  0  0  0  0  0
  -22.4070  -12.7010   22.3270 H   0  0  0  0  0  0  0  0  0  0  0  0
  -26.4390  -15.0100   20.4540 N   0  0  0  0  0  0  0  0  0  0  0  0
  -27.3480  -15.4610   20.4800 H   0  0  0  0  0  0  0  0  0  0  0  0
  -25.6620  -15.6510   20.5280 H   0  0  0  0  0  0  0  0  0  0  0  0
  -28.8640  -17.9370   20.3950 O   0  0  0  0  0 15  0  0  0  0  0  0
  -28.8670  -19.9880   20.8800 C   0  0  0  0  0 15  0  0  0  0  0  0
  -28.4830  -22.2970   20.5040 C   0  0  0  0  0 15  0  0  0  0  0  0
  -28.5980  -24.3800   20.8600 O   0  0  0  0  0  1  0  0  0  0  0  0
  -24.9410  -31.6020   22.9540 C   0  0  0  0  0  0  0  0  0  0  0  0
  -27.8750  -25.9390   20.6370 C   0  0  0  0  0  0  0  0  0  0  0  0
  -24.1010  -30.0510   21.2620 C   0  0  0  0  0  3  0  0  0  0  0  0
  -25.7860  -28.3400   20.1420 C   0  0  0  0  0  0  0  0  0  0  0  0
  -26.6720  -30.1380   21.5780 C   0  0  0  0  0  2  0  0  0  0  0  0
  -26.8560  -28.6170   20.9930 C   0  0  0  0  0  0  0  0  0  0  0  0
  -27.8770  -27.4510   21.1980 C   0  0  0  0  0  3  0  0  0  0  0  0
  -26.8450  -26.0750   19.6610 C   0  0  0  0  0  3  0  0  0  0  0  0
  -25.8700  -27.1170   19.4510 C   0  0  0  0  0  3  0  0  0  0  0  0
  -24.5860  -29.3090   19.9770 C   0  0  0  0  0  2  0  0  0  0  0  0
  -25.2650  -30.6580   21.9800 N   0  0  0  0  0  0  0  0  0  0  0  0
  -23.7590  -31.8620   23.2600 O   0  0  0  0  0  0  0  0  0  0  0  0
  -23.2900  -29.0920   22.1770 C   0  0  0  0  0  0  0  0  0  0  0  0
  -21.9550  -29.0000   22.0100 N   0  0  0  0  0  0  0  0  0  0  0  0
  -23.8830  -28.4230   23.0260 O   0  0  0  0  0  0  0  0  0  0  0  0
  -21.5200  -29.5910   21.3160 H   0  0  0  0  0  0  0  0  0  0  0  0
  -18.4920  -28.0370   22.6010 C   0  0  0  0  0  0  0  0  0  0  0  0
  -21.0780  -28.0580   22.7220 C   0  0  0  0  0  3  0  0  0  0  0  0
  -21.0110  -26.6990   21.9850 C   0  0  0  0  0  2  0  0  0  0  0  0
  -19.8340  -26.5990   21.0110 C   0  0  0  0  0  2  0  0  0  0  0  0
  -18.5070  -26.7780   21.7530 C   0  0  0  0  0  2  0  0  0  0  0  0
  -19.6970  -28.6500   23.0420 C   0  0  0  0  0  0  0  0  0  0  0  0
  -19.6190  -29.8330   23.8080 C   0  0  0  0  0  3  0  0  0  0  0  0
  -18.3720  -30.4040   24.1280 C   0  0  0  0  0  3  0  0  0  0  0  0
  -17.1840  -29.7900   23.6930 C   0  0  0  0  0  3  0  0  0  0  0  0
  -17.2470  -28.6060   22.9370 C   0  0  0  0  0  3  0  0  0  0  0  0
  -26.0160  -32.4150   23.7380 C   0  0  0  0  0  3  0  0  0  0  0  0
  -26.3960  -31.7550   25.1230 C   0  0  1  0  0  0  0  0  0  0  0  0
  -25.1770  -31.4280   26.0180 C   0  0  0  0  0  1  0  0  0  0  0  0
  -27.1830  -30.4440   24.9190 C   0  0  0  0  0  1  0  0  0  0  0  0
  -27.3300  -32.7000   25.9160 C   0  0  0  0  0  1  0  0  0  0  0  0
  -25.4950  -33.7820   23.9910 N   0  0  0  0  0  0  0  0  0  0  0  0
  -25.7890  -34.8840   23.2830 C   0  0  0  0  0  0  0  0  0  0  0  0
  -26.5710  -34.8610   22.3310 O   0  0  0  0  0  0  0  0  0  0  0  0
  -24.8010  -33.8620   24.7180 H   0  0  0  0  0  0  0  0  0  0  0  0
  -23.9270  -36.5120   22.7630 C   0  0  0  0  0  1  0  0  0  0  0  0
  -25.1200  -36.2200   23.6890 C   0  0  0  0  0  3  0  0  0  0  0  0
  -27.0430  -37.3470   24.7310 C   0  0  0  0  0  1  0  0  0  0  0  0
  -26.0420  -37.3790   23.6690 N   0  0  0  0  0  0  0  0  0  0  0  0
  -25.5250  -38.2510   23.7430 H   0  0  0  0  0  0  0  0  0  0  0  0
  2  4  2  0
  4  6  1  0
  5  2  1  6
  5 21  1  0
  5 30  1  0
  6  3  1  0
  7  8  1  0
  7  5  1  0
  9  7  2  0
 10 12  1  0
 11 12  1  0
 12  8  1  0
 13 14  1  0
 14 15  1  0
 15 16  1  0
 17 24  2  0
 17 25  1  0
 18 23  1  0
 19 18  2  0
 20 19  1  0
 21 20  1  0
 21 22  1  0
 22 23  1  0
 23 17  1  0
 25 16  1  0
 25 26  1  0
 27 30  1  0
 27 28  2  0
 28 47  1  0
 29 28  1  0
 32 29  1  1
 29 31  1  0
 30  1  1  1
 30 31  1  0
 31  1  1  0
 32 33  1  0
 32 13  1  0
 33 34  2  0
 35 38  1  0
 35 34  1  0
 36 35  2  0
 37 36  1  0
 37 32  1  0
 37 13  1  0
 38 39  1  0
 39 44  2  0
 39 40  1  0
 40 41  2  0
 41 42  1  0
 42 46  1  0
 43 42  2  0
 44 43  1  0
 45 44  1  0
 47 48  1  0
 48 51  1  0
 48 50  1  0
 49 47  2  0
 52 53  1  0
 52 54  1  0
 52 27  1  0
 59 70  2  0
 60 58  1  0
 60 65  1  0
 61 69  1  0
 61 71  1  0
 62 64  1  0
 63 69  1  0
 64 65  2  0
 64 63  1  0
 66 60  2  0
 67 66  1  0
 67 62  2  0
 68 62  1  0
 68 61  1  0
 69 59  1  0
 71 73  2  0
 72 71  1  0
 74 72  1  0
 75 84  2  0
 75 80  1  0
 76 72  1  0
 76 80  1  0
 77 76  1  0
 78 79  1  0
 78 77  1  0
 79 75  1  0
 80 81  2  0
 81 82  1  0
 83 82  2  0
 84 83  1  0
 85 59  1  0
 85 90  1  0
 85 86  1  0
 86 89  1  1
 86 87  1  0
 88 86  1  0
 90 93  1  0
 91 95  1  0
 91 90  1  0
 92 91  2  0
 95 94  1  0
 97 95  1  0
 97 98  1  0
 97 96  1  0
M  ISO  4  17 100  25 100  57 101  58 101
M  END
>  <TORSDO>  (65) 
F 25

>  <SCORE>  (65) 
3.694

>  <name>  (65) 
67

>  <ligand_id>  (65) 
67

>  <original_smiles>  (65) 
[H]c1c([H])c([H])c2c(c1[H])C([H])([H])C([H])([H])C([H])([H])C2([H])N([H])C(=O)C1([H])N(C(=O)C([H])(N([H])C(=O)C([H])(N([H])C([H])([H])[H])C([H])([H])[H])C(C([H])([H])[H])(C([H])([H])[H])C([H])([H])[H])C([H])([H])c2c([H])c(OC([H])([H])C([H])([H])Oc3c([H])c([H])c(C(=O)N(C([H])([H])C([H])([H])C([H])([H])C([H])([H])N([H])C(=O)N4C([H])([H])C([H])([H])C([H])([H])C([H])(n5nc(-c6c([H])c([H])c(Oc7c([H])c([H])c(F)c([H])c7F)c([H])c6[H])c(C(=O)N([H])[H])c5N([H])[H])C4([H])[H])C([H])(C([H])([H])[H])C([H])([H])[H])c([H])c3[H])c([H])c([H])c2C1([H])[H]

>  <smiles>  (65) 
[H]c1c([H])c([H])c2c(c1[H])C([H])([H])C([H])([H])C([H])([H])C2([H])N([H])C(=O)C1([H])N(C(=O)C([H])(N([H])C(=O)C([H])(N([H])C([H])([H])[H])C([H])([H])[H])C(C([H])([H])[H])(C([H])([H])[H])C([H])([H])[H])C([H])([H])c2c([H])c(OC([H])([H])C([H])([H])Oc3c([H])c([H])c(C(=O)N(C([H])([H])C([H])([H])C([H])([H])C([H])([H])N([H])C(=O)N4C([H])([H])C([H])([H])C([H])([H])C([H])(n5nc(-c6c([H])c([H])c(Oc7c([H])c([H])c(F)c([H])c7F)c([H])c6[H])c(C(=O)N([H])[H])c5N([H])[H])C4([H])[H])C([H])(C([H])([H])[H])C([H])([H])[H])c([H])c3[H])c([H])c([H])c2C1([H])[H]

$$$$
68:0:0
     RDKit          3D

103112  0  0  1  0  0  0  0  0999 V2000
  -28.8700  -16.5510   20.9950 C   0  0  0  0  0  3  0  0  0  0  0  0
  -28.1550  -17.7030   20.6220 C   0  0  0  0  0  3  0  0  0  0  0  0
  -29.7800  -18.1290   18.8830 C   0  0  0  0  0  3  0  0  0  0  0  0
  -30.5090  -16.9580   19.2240 C   0  0  0  0  0  0  0  0  0  0  0  0
  -30.0280  -16.1410   20.2970 C   0  0  0  0  0  0  0  0  0  0  0  0
  -28.6090  -18.5150   19.5690 C   0  0  0  0  0  0  0  0  0  0  0  0
  -31.0620  -13.9370   19.9990 C   0  0  0  0  0  0  0  0  0  0  0  0
  -30.7860  -11.5510   19.4380 C   0  0  0  0  0  2  0  0  0  0  0  0
  -29.8480  -11.3640   18.2270 C   0  0  0  0  0  2  0  0  0  0  0  0
  -28.3650  -11.3560   18.6520 C   0  0  0  0  0  2  0  0  0  0  0  0
  -28.0110  -12.5260   19.6060 C   0  0  0  0  0  3  0  0  0  0  0  0
  -29.0450  -12.6190   20.7540 C   0  0  0  0  0  2  0  0  0  0  0  0
  -30.3930  -12.7640   20.1660 N   0  0  0  0  0  0  0  0  0  0  0  0
  -32.0490  -14.0550   19.2660 O   0  0  0  0  0  0  0  0  0  0  0  0
  -30.6230  -14.9370   20.7800 N   0  0  0  0  0  0  0  0  0  0  0  0
  -30.0970  -14.5330   21.5380 H   0  0  0  0  0  0  0  0  0  0  0  0
  -25.6770  -13.3920   20.2770 C   0  0  0  0  0  0  0  0  0  0  0  0
  -24.5470  -12.7440   20.7060 C   0  0  0  0  0  0  0  0  0  0  0  0
  -24.8860  -11.3580   20.7570 C   0  0  0  0  0  0  0  0  0  0  0  0
  -26.6400  -12.4060   20.1070 N   0  0  0  0  0  0  0  0  0  0  0  0
  -26.1630  -11.1810   20.4420 N   0  0  0  0  0  0  0  0  0  0  0  0
  -24.0520  -10.1820   21.0380 C   0  0  0  0  0  0  0  0  0  0  0  0
  -24.4420   -9.2130   21.9900 C   0  0  0  0  0  3  0  0  0  0  0  0
  -23.6160   -8.1010   22.2600 C   0  0  0  0  0  3  0  0  0  0  0  0
  -22.3840   -7.9500   21.5790 C   0  0  0  0  0  0  0  0  0  0  0  0
  -22.0110   -8.9050   20.6200 C   0  0  0  0  0  3  0  0  0  0  0  0
  -22.8360  -10.0100   20.3480 C   0  0  0  0  0  3  0  0  0  0  0  0
  -21.5320   -6.8860   21.7550 O   0  0  0  0  0  0  0  0  0  0  0  0
  -21.5620   -6.1180   22.8910 C   0  0  0  0  0  0  0  0  0  0  0  0
  -21.3140   -6.6670   24.1690 C   0  0  0  0  0  3  0  0  0  0  0  0
  -21.2850   -5.8290   25.3020 C   0  0  0  0  0  3  0  0  0  0  0  0
  -21.4960   -4.4440   25.1590 C   0  0  0  0  0  0  0  0  0  0  0  0
  -21.7400   -3.8960   23.8880 C   0  0  0  0  0  3  0  0  0  0  0  0
  -21.7690   -4.7310   22.7560 C   0  0  0  0  0  0  0  0  0  0  0  0
  -21.9820   -4.1930   21.5310 F   0  0  0  0  0  0  0  0  0  0  0  0
  -21.4620   -3.6390   26.2450 F   0  0  0  0  0  0  0  0  0  0  0  0
  -23.2050  -13.3650   20.9630 C   0  0  0  0  0  0  0  0  0  0  0  0
  -22.4440  -12.8100   21.9020 N   0  0  0  0  0  0  0  0  0  0  0  0
  -22.8410  -14.3770   20.3680 O   0  0  0  0  0  0  0  0  0  0  0  0
  -22.7550  -11.9930   22.4070 H   0  0  0  0  0  0  0  0  0  0  0  0
  -21.5420  -13.2100   22.1210 H   0  0  0  0  0  0  0  0  0  0  0  0
  -25.9540  -14.7250   20.0050 N   0  0  0  0  0  0  0  0  0  0  0  0
  -25.2400  -15.4420   20.0770 H   0  0  0  0  0  0  0  0  0  0  0  0
  -26.8400  -15.0770   19.6620 H   0  0  0  0  0  0  0  0  0  0  0  0
  -31.8070  -16.7300   18.4930 C   0  0  0  0  0  0  0  0  0  0  0  0
  -31.6650  -16.4110   17.2010 N   0  0  0  0  0  0  0  0  0  0  0  0
  -32.8990  -16.9350   19.0260 O   0  0  0  0  0  0  0  0  0  0  0  0
  -30.7210  -16.2160   16.9060 H   0  0  0  0  0  0  0  0  0  0  0  0
  -32.5790  -16.7720   16.1240 C   0  0  0  0  0  2  0  0  0  0  0  0
  -30.5370  -19.7170   13.6590 C   0  0  0  0  0  3  0  0  0  0  0  0
  -30.7070  -18.4010   13.1860 C   0  0  0  0  0  3  0  0  0  0  0  0
  -31.0400  -20.0790   14.9230 C   0  0  0  0  0  3  0  0  0  0  0  0
  -31.3910  -17.4510   13.9690 C   0  0  0  0  0  3  0  0  0  0  0  0
  -31.7290  -19.1300   15.7040 C   0  0  0  0  0  3  0  0  0  0  0  0
  -31.9110  -17.8120   15.2320 C   0  0  0  0  0  0  0  0  0  0  0  0
  -27.8780  -19.6360   19.2350 O   0  0  0  0  0  0  0  0  0  0  0  0
  -28.5560  -21.4830   20.6030 C   0  0  0  0  0  1  0  0  0  0  0  0
  -28.5470  -20.9050   19.1750 C   0  0  0  0  0  3  0  0  0  0  0  0
  -27.8080  -21.8340   18.1770 C   0  0  0  0  0  2  0  0  0  0  0  0
  -28.3900  -23.1380   18.2030 O   0  0  0  0  0  0  0  0  0  0  0  0
  -27.4690  -24.2340   18.2410 C   0  0  0  0  0  2  0  0  0  0  0  0
  -27.2670  -24.9510   16.8850 C   0  0  0  0  0  2  0  0  0  0  0  0
  -27.4990  -26.3660   16.9800 O   0  0  0  0  0  0  0  0  0  0  0  0
  -25.5090  -29.3810   23.0980 C   0  0  0  0  0  0  0  0  0  0  0  0
  -26.5650  -27.1670   17.6020 C   0  0  0  0  0  0  0  0  0  0  0  0
  -23.8710  -29.5290   21.2500 C   0  0  0  0  0  3  0  0  0  0  0  0
  -24.7280  -28.8480   18.9480 C   0  0  0  0  0  0  0  0  0  0  0  0
  -26.3760  -29.3680   20.7570 C   0  0  0  0  0  2  0  0  0  0  0  0
  -26.0140  -28.6590   19.4670 C   0  0  0  0  0  0  0  0  0  0  0  0
  -26.9380  -27.8340   18.7900 C   0  0  0  0  0  3  0  0  0  0  0  0
  -25.2600  -27.3610   17.0940 C   0  0  0  0  0  3  0  0  0  0  0  0
  -24.3450  -28.2010   17.7580 C   0  0  0  0  0  3  0  0  0  0  0  0
  -23.8100  -29.7670   19.7190 C   0  0  0  0  0  2  0  0  0  0  0  0
  -25.2780  -29.4000   21.7540 N   0  0  0  0  0  0  0  0  0  0  0  0
  -24.5840  -29.5100   23.9080 O   0  0  0  0  0  0  0  0  0  0  0  0
  -22.9820  -28.3150   21.5940 C   0  0  0  0  0  0  0  0  0  0  0  0
  -21.6550  -28.5150   21.5400 N   0  0  0  0  0  0  0  0  0  0  0  0
  -23.4820  -27.2210   21.8710 O   0  0  0  0  0  0  0  0  0  0  0  0
  -21.3290  -29.4400   21.3020 H   0  0  0  0  0  0  0  0  0  0  0  0
  -18.0910  -27.9290   21.5010 C   0  0  0  0  0  0  0  0  0  0  0  0
  -20.6240  -27.5100   21.7860 C   0  0  0  0  0  3  0  0  0  0  0  0
  -20.4960  -26.5400   20.5890 C   0  0  0  0  0  2  0  0  0  0  0  0
  -19.4270  -26.9680   19.5790 C   0  0  0  0  0  2  0  0  0  0  0  0
  -18.0560  -27.0620   20.2530 C   0  0  0  0  0  2  0  0  0  0  0  0
  -19.2990  -28.1530   22.2110 C   0  0  0  0  0  0  0  0  0  0  0  0
  -19.2830  -28.9960   23.3430 C   0  0  0  0  0  3  0  0  0  0  0  0
  -18.0890  -29.6080   23.7690 C   0  0  0  0  0  3  0  0  0  0  0  0
  -16.8920  -29.3740   23.0690 C   0  0  0  0  0  3  0  0  0  0  0  0
  -16.8940  -28.5310   21.9430 C   0  0  0  0  0  3  0  0  0  0  0  0
  -26.9480  -29.2170   23.6790 C   0  0  0  0  0  3  0  0  0  0  0  0
  -27.3150  -27.7200   24.0170 C   0  0  1  0  0  0  0  0  0  0  0  0
  -26.2620  -27.0050   24.8960 C   0  0  0  0  0  1  0  0  0  0  0  0
  -27.4830  -26.9000   22.7170 C   0  0  0  0  0  1  0  0  0  0  0  0
  -28.6730  -27.6680   24.7520 C   0  0  0  0  0  1  0  0  0  0  0  0
  -27.0390  -30.0590   24.8780 N   0  0  0  0  0  0  0  0  0  0  0  0
  -27.7120  -31.2160   24.9450 C   0  0  0  0  0  0  0  0  0  0  0  0
  -28.3840  -31.6540   24.0090 O   0  0  0  0  0  0  0  0  0  0  0  0
  -26.4680  -29.7870   25.6660 H   0  0  0  0  0  0  0  0  0  0  0  0
  -26.6640  -33.2050   26.0680 C   0  0  0  0  0  1  0  0  0  0  0  0
  -27.6190  -32.0150   26.2580 C   0  0  0  0  0  3  0  0  0  0  0  0
  -29.8060  -31.4170   27.2010 C   0  0  0  0  0  1  0  0  0  0  0  0
  -28.9290  -32.4950   26.7480 N   0  0  0  0  0  0  0  0  0  0  0  0
  -28.8110  -33.1510   27.5160 H   0  0  0  0  0  0  0  0  0  0  0  0
  2  1  1  0
  3  4  2  0
  3  6  1  0
  4  5  1  0
  5 15  1  0
  5  1  2  0
  6  2  2  0
  7 13  1  0
  7 15  1  0
  8 13  1  0
  9 10  1  0
  9  8  1  0
 11 10  1  0
 11 20  1  0
 11 12  1  0
 13 12  1  0
 14  7  2  0
 15 16  1  0
 17 18  2  0
 18 19  1  0
 18 37  1  0
 19 22  1  0
 20 17  1  0
 20 21  1  0
 21 19  2  0
 22 23  1  0
 23 24  2  0
 25 28  1  0
 25 24  1  0
 26 25  2  0
 27 26  1  0
 27 22  2  0
 28 29  1  0
 29 30  1  0
 30 31  2  0
 32 31  1  0
 32 36  1  0
 33 32  2  0
 34 29  2  0
 34 33  1  0
 35 34  1  0
 37 38  1  0
 38 41  1  0
 38 40  1  0
 39 37  2  0
 42 43  1  0
 42 17  1  0
 44 42  1  0
 45 47  2  0
 45  4  1  0
 46 45  1  0
 48 46  1  0
 49 46  1  0
 50 52  1  0
 51 50  2  0
 51 53  1  0
 52 54  2  0
 53 55  2  0
 55 54  1  0
 55 49  1  0
 56  6  1  0
 58 56  1  0
 58 57  1  0
 59 60  1  0
 59 58  1  0
 60 61  1  0
 62 63  1  0
 62 61  1  0
 63 65  1  0
 64 75  2  0
 65 70  1  0
 66 76  1  0
 66 74  1  0
 67 69  1  0
 67 73  1  0
 68 74  1  0
 69 68  1  0
 70 69  2  0
 71 65  2  0
 71 72  1  0
 72 67  2  0
 73 66  1  0
 74 64  1  0
 76 78  2  0
 77 76  1  0
 79 77  1  0
 80 89  2  0
 80 85  1  0
 81 77  1  0
 81 85  1  0
 82 81  1  0
 83 84  1  0
 83 82  1  0
 84 80  1  0
 85 86  2  0
 86 87  1  0
 88 87  2  0
 89 88  1  0
 90 64  1  0
 90 91  1  0
 90 95  1  0
 91 94  1  1
 91 92  1  0
 93 91  1  0
 95 96  1  0
 95 98  1  0
 96100  1  0
 97 96  2  0
100 99  1  0
100102  1  0
102101  1  0
102103  1  0
M  ISO  4   7 100  15 100  62 101  63 101
M  END
>  <TORSDO>  (66) 
F 25

>  <SCORE>  (66) 
-10.368

>  <name>  (66) 
68

>  <ligand_id>  (66) 
68

>  <original_smiles>  (66) 
[H]c1c([H])c([H])c(C([H])([H])N([H])C(=O)c2c([H])c(OC([H])(C([H])([H])[H])C([H])([H])OC([H])([H])C([H])([H])Oc3c([H])c([H])c4c(c3[H])C([H])([H])N(C(=O)C([H])(N([H])C(=O)C([H])(N([H])C([H])([H])[H])C([H])([H])[H])C(C([H])([H])[H])(C([H])([H])[H])C([H])([H])[H])C([H])(C(=O)N([H])C3([H])c5c([H])c([H])c([H])c([H])c5C([H])([H])C([H])([H])C3([H])[H])C4([H])[H])c([H])c([H])c2N([H])C(=O)N2C([H])([H])C([H])([H])C([H])([H])C([H])(n3nc(-c4c([H])c([H])c(Oc5c([H])c([H])c(F)c([H])c5F)c([H])c4[H])c(C(=O)N([H])[H])c3N([H])[H])C2([H])[H])c([H])c1[H]

>  <smiles>  (66) 
[H]c1c([H])c([H])c(C([H])([H])N([H])C(=O)c2c([H])c(OC([H])(C([H])([H])[H])C([H])([H])OC([H])([H])C([H])([H])Oc3c([H])c([H])c4c(c3[H])C([H])([H])N(C(=O)C([H])(N([H])C(=O)C([H])(N([H])C([H])([H])[H])C([H])([H])[H])C(C([H])([H])[H])(C([H])([H])[H])C([H])([H])[H])C([H])(C(=O)N([H])C3([H])c5c([H])c([H])c([H])c([H])c5C([H])([H])C([H])([H])C3([H])[H])C4([H])[H])c([H])c([H])c2N([H])C(=O)N2C([H])([H])C([H])([H])C([H])([H])C([H])(n3nc(-c4c([H])c([H])c(Oc5c([H])c([H])c(F)c([H])c5F)c([H])c4[H])c(C(=O)N([H])[H])c3N([H])[H])C2([H])[H])c([H])c1[H]

$$$$
69:0:0
     RDKit          3D

 98103  0  0  1  0  0  0  0  0999 V2000
  -28.0720  -20.1710   19.3210 C   0  0  0  0  0  3  0  0  0  0  0  0
  -30.4010  -20.7340   19.5930 C   0  0  0  0  0  3  0  0  0  0  0  0
  -28.4190  -18.8700   18.8640 C   0  0  0  0  0  3  0  0  0  0  0  0
  -30.7460  -19.4370   19.1180 C   0  0  0  0  0  3  0  0  0  0  0  0
  -29.0470  -21.1330   19.6990 C   0  0  0  0  0  0  0  0  0  0  0  0
  -29.7750  -18.4710   18.7430 C   0  0  0  0  0  0  0  0  0  0  0  0
  -29.1180  -23.5640   20.6600 C   0  0  0  0  0  0  0  0  0  0  0  0
  -28.5880  -22.4650   20.0400 N   0  0  0  0  0  0  0  0  0  0  0  0
  -30.1290  -23.5570   21.3690 O   0  0  0  0  0  0  0  0  0  0  0  0
  -27.6770  -22.6730   19.6560 H   0  0  0  0  0  0  0  0  0  0  0  0
  -28.3130  -24.8650   20.3320 C   0  0  0  0  0  2  0  0  0  0  0  0
  -28.6100  -26.2280   20.8570 O   0  0  0  0  0  0  0  0  0  0  0  0
  -24.4780  -31.7670   23.3130 C   0  0  0  0  0  0  0  0  0  0  0  0
  -27.4880  -27.0900   20.7690 C   0  0  0  0  0  0  0  0  0  0  0  0
  -23.4840  -30.2290   21.6720 C   0  0  0  0  0  3  0  0  0  0  0  0
  -25.0990  -28.6600   20.5060 C   0  0  0  0  0  0  0  0  0  0  0  0
  -26.0330  -30.5990   21.7360 C   0  0  0  0  0  2  0  0  0  0  0  0
  -26.2070  -29.1900   21.1820 C   0  0  0  0  0  0  0  0  0  0  0  0
  -27.4060  -28.4150   21.3160 C   0  0  0  0  0  3  0  0  0  0  0  0
  -26.3210  -26.6370   20.0940 C   0  0  0  0  0  3  0  0  0  0  0  0
  -25.1550  -27.3810   19.9690 C   0  0  0  0  0  3  0  0  0  0  0  0
  -23.8530  -29.4960   20.3660 C   0  0  0  0  0  2  0  0  0  0  0  0
  -24.6780  -30.8840   22.2950 N   0  0  0  0  0  0  0  0  0  0  0  0
  -23.3370  -32.0450   23.7110 O   0  0  0  0  0  0  0  0  0  0  0  0
  -22.7580  -29.2430   22.6200 C   0  0  0  0  0  0  0  0  0  0  0  0
  -21.4310  -29.1090   22.4530 N   0  0  0  0  0  0  0  0  0  0  0  0
  -23.3870  -28.6050   23.4680 O   0  0  0  0  0  0  0  0  0  0  0  0
  -20.9840  -29.6740   21.7450 H   0  0  0  0  0  0  0  0  0  0  0  0
  -17.9830  -28.1190   22.9350 C   0  0  0  0  0  0  0  0  0  0  0  0
  -20.5520  -28.2210   23.2160 C   0  0  0  0  0  3  0  0  0  0  0  0
  -20.5680  -26.7870   22.6390 C   0  0  0  0  0  2  0  0  0  0  0  0
  -19.4530  -26.5330   21.6200 C   0  0  0  0  0  2  0  0  0  0  0  0
  -18.0800  -26.7620   22.2580 C   0  0  0  0  0  2  0  0  0  0  0  0
  -19.1450  -28.8110   23.3710 C   0  0  0  0  0  0  0  0  0  0  0  0
  -19.0010  -30.0850   23.9630 C   0  0  0  0  0  3  0  0  0  0  0  0
  -17.7290  -30.6650   24.1260 C   0  0  0  0  0  3  0  0  0  0  0  0
  -16.5820  -29.9680   23.7070 C   0  0  0  0  0  3  0  0  0  0  0  0
  -16.7100  -28.6980   23.1180 C   0  0  0  0  0  3  0  0  0  0  0  0
  -25.6720  -32.4830   24.0100 C   0  0  0  0  0  3  0  0  0  0  0  0
  -26.0170  -31.8760   25.4250 C   0  0  1  0  0  0  0  0  0  0  0  0
  -24.7980  -31.7650   26.3700 C   0  0  0  0  0  1  0  0  0  0  0  0
  -26.6330  -30.4640   25.2850 C   0  0  0  0  0  1  0  0  0  0  0  0
  -27.0820  -32.7540   26.1230 C   0  0  0  0  0  1  0  0  0  0  0  0
  -25.3230  -33.9050   24.1270 N   0  0  0  0  0  0  0  0  0  0  0  0
  -25.9070  -34.8930   23.4360 C   0  0  0  0  0  0  0  0  0  0  0  0
  -26.8580  -34.7040   22.6730 O   0  0  0  0  0  0  0  0  0  0  0  0
  -24.5170  -34.1280   24.6920 H   0  0  0  0  0  0  0  0  0  0  0  0
  -24.4450  -36.6780   22.4320 C   0  0  0  0  0  1  0  0  0  0  0  0
  -25.3490  -36.3170   23.6220 C   0  0  0  0  0  3  0  0  0  0  0  0
  -27.1460  -37.2250   25.0260 C   0  0  0  0  0  1  0  0  0  0  0  0
  -26.4000  -37.3450   23.7760 N   0  0  0  0  0  0  0  0  0  0  0  0
  -26.0000  -38.2790   23.7340 H   0  0  0  0  0  0  0  0  0  0  0  0
  -30.2140  -17.2240   18.2680 O   0  0  0  0  0  0  0  0  0  0  0  0
  -29.9430  -15.9930   18.9920 C   0  0  0  0  0  2  0  0  0  0  0  0
  -30.2990  -14.6590   18.2010 C   0  0  0  0  0  2  0  0  0  0  0  0
  -29.6120  -13.4490   18.6480 O   0  0  0  0  0  0  0  0  0  0  0  0
  -29.2400  -12.4130   17.6860 C   0  0  0  0  0  2  0  0  0  0  0  0
  -28.6110  -11.0380   18.2300 C   0  0  0  0  0  2  0  0  0  0  0  0
  -29.4350   -9.7690   18.7960 C   0  0  0  0  0  2  0  0  0  0  0  0
  -29.3490   -9.2810   20.3230 C   0  0  0  0  0  2  0  0  0  0  0  0
  -30.8650  -11.2520   22.1130 C   0  0  2  0  0  0  0  0  0  0  0  0
  -32.1510  -10.5950   21.4090 C   0  0  0  0  0  1  0  0  0  0  0  0
  -31.3430  -11.3480   19.8350 C   0  0  0  0  0  1  0  0  0  0  0  0
  -29.6170  -11.9580   19.9720 C   0  0  0  0  0  2  0  0  0  0  0  0
  -28.7600  -12.1650   21.4860 C   0  0  0  0  0  2  0  0  0  0  0  0
  -29.5590  -11.5400   23.0450 C   0  0  0  0  0  1  0  0  0  0  0  0
  -31.1560  -10.7670   22.9110 N   0  0  0  0  0  1  0  0  0  0  0  0
  -31.3700  -12.5440   22.0650 O   0  0  0  0  0  1  0  0  0  0  0  0
  -30.0400   -9.9300   21.5350 N   0  0  0  0  0  2  0  0  0  0  0  0
  -30.0740   -9.2550   22.2860 H   0  0  0  0  0  0  0  0  0  0  0  0
  -26.3650  -12.9970   21.2240 C   0  0  0  0  0  0  0  0  0  0  0  0
  -25.1320  -12.4110   21.2390 C   0  0  0  0  0  0  0  0  0  0  0  0
  -25.3580  -11.0030   21.3130 C   0  0  0  0  0  0  0  0  0  0  0  0
  -27.2930  -11.9870   21.3860 N   0  0  0  0  0  0  0  0  0  0  0  0
  -26.6670  -10.7690   21.4540 N   0  0  0  0  0  0  0  0  0  0  0  0
  -24.3890   -9.8870   21.2420 C   0  0  0  0  0  0  0  0  0  0  0  0
  -24.6310   -8.6500   21.8830 C   0  0  0  0  0  3  0  0  0  0  0  0
  -23.6660   -7.6180   21.8420 C   0  0  0  0  0  3  0  0  0  0  0  0
  -22.4390   -7.8130   21.1640 C   0  0  0  0  0  0  0  0  0  0  0  0
  -22.2080   -9.0370   20.5110 C   0  0  0  0  0  3  0  0  0  0  0  0
  -23.1710  -10.0630   20.5480 C   0  0  0  0  0  3  0  0  0  0  0  0
  -21.4600   -6.8530   21.0440 O   0  0  0  0  0  0  0  0  0  0  0  0
  -21.6270   -5.5820   21.5390 C   0  0  0  0  0  0  0  0  0  0  0  0
  -21.6640   -5.3230   22.9260 C   0  0  0  0  0  3  0  0  0  0  0  0
  -21.7630   -3.9970   23.3950 C   0  0  0  0  0  3  0  0  0  0  0  0
  -21.8200   -2.9300   22.4800 C   0  0  0  0  0  0  0  0  0  0  0  0
  -21.7810   -3.1850   21.0960 C   0  0  0  0  0  3  0  0  0  0  0  0
  -21.6810   -4.5070   20.6270 C   0  0  0  0  0  0  0  0  0  0  0  0
  -21.6160   -4.7420   19.2940 F   0  0  0  0  0  0  0  0  0  0  0  0
  -21.9160   -1.6580   22.9280 F   0  0  0  0  0  0  0  0  0  0  0  0
  -23.8200  -13.1280   21.1240 C   0  0  0  0  0  0  0  0  0  0  0  0
  -22.7900  -12.6330   21.8010 N   0  0  0  0  0  0  0  0  0  0  0  0
  -23.7180  -14.1730   20.4850 O   0  0  0  0  0  0  0  0  0  0  0  0
  -22.8840  -11.7940   22.3550 H   0  0  0  0  0  0  0  0  0  0  0  0
  -21.8990  -13.1100   21.7720 H   0  0  0  0  0  0  0  0  0  0  0  0
  -26.7750  -14.3210   21.1060 N   0  0  0  0  0  0  0  0  0  0  0  0
  -26.1260  -15.0810   20.9410 H   0  0  0  0  0  0  0  0  0  0  0  0
  -27.7410  -14.6220   21.0990 H   0  0  0  0  0  0  0  0  0  0  0  0
  1  5  1  0
  2  5  2  0
  3  1  2  0
  4  2  1  0
  5  8  1  0
  6  3  1  0
  6  4  2  0
  7  9  2  0
  8  7  1  0
 10  8  1  0
 11  7  1  0
 11 12  1  0
 13 24  2  0
 14 12  1  0
 14 19  1  0
 15 23  1  0
 15 25  1  0
 16 18  1  0
 17 23  1  0
 18 19  2  0
 18 17  1  0
 20 14  2  0
 21 20  1  0
 21 16  2  0
 22 16  1  0
 22 15  1  0
 23 13  1  0
 25 27  2  0
 26 25  1  0
 28 26  1  0
 29 38  2  0
 29 34  1  0
 30 26  1  0
 30 34  1  0
 31 30  1  0
 32 33  1  0
 32 31  1  0
 33 29  1  0
 34 35  2  0
 35 36  1  0
 37 36  2  0
 38 37  1  0
 39 13  1  0
 39 44  1  0
 39 40  1  0
 40 43  1  1
 40 41  1  0
 42 40  1  0
 44 47  1  0
 45 49  1  0
 45 44  1  0
 46 45  2  0
 49 48  1  0
 49 51  1  0
 51 50  1  0
 52 51  1  0
 53  6  1  0
 53 54  1  0
 55 56  1  0
 55 54  1  0
 57 58  1  0
 57 56  1  0
 58 59  1  0
 59 60  1  0
 60 69  1  0
 61 67  1  0
 61 66  1  6
 62 61  1  0
 63 64  1  0
 64 65  1  0
 68 61  1  0
 69 70  1  0
 71 72  2  0
 71 74  1  0
 72 73  1  0
 73 75  2  0
 74 75  1  0
 74 65  1  0
 76 73  1  0
 76 77  1  0
 78 77  2  0
 79 78  1  0
 80 81  1  0
 80 79  2  0
 81 76  2  0
 82 79  1  0
 82 83  1  0
 83 84  1  0
 84 85  2  0
 86 90  1  0
 86 85  1  0
 87 86  2  0
 88 87  1  0
 88 83  2  0
 89 88  1  0
 91 72  1  0
 91 92  1  0
 92 94  1  0
 93 91  2  0
 95 92  1  0
 96 71  1  0
 97 96  1  0
 98 96  1  0
M  ISO  4  11 101  12 101  61 100  69 100
M  END
>  <TORSDO>  (67) 
F 26

>  <SCORE>  (67) 
-8.657

>  <name>  (67) 
69

>  <ligand_id>  (67) 
69

>  <original_smiles>  (67) 
[H]c1c([H])c([H])c2c(c1[H])C([H])([H])C([H])([H])C([H])([H])C2([H])N([H])C(=O)C1([H])N(C(=O)C([H])(N([H])C(=O)C([H])(N([H])C([H])([H])[H])C([H])([H])[H])C(C([H])([H])[H])(C([H])([H])[H])C([H])([H])[H])C([H])([H])c2c([H])c(OC([H])([H])C(=O)N([H])c3c([H])c([H])c(OC([H])([H])C([H])([H])OC([H])([H])C([H])([H])C([H])([H])C([H])([H])N([H])C(=O)N4C([H])([H])C([H])([H])C([H])([H])C([H])(n5nc(-c6c([H])c([H])c(Oc7c([H])c([H])c(F)c([H])c7F)c([H])c6[H])c(C(=O)N([H])[H])c5N([H])[H])C4([H])[H])c([H])c3[H])c([H])c([H])c2C1([H])[H]

>  <smiles>  (67) 
[H]c1c([H])c([H])c2c(c1[H])C([H])([H])C([H])([H])C([H])([H])C2([H])N([H])C(=O)C1([H])N(C(=O)C([H])(N([H])C(=O)C([H])(N([H])C([H])([H])[H])C([H])([H])[H])C(C([H])([H])[H])(C([H])([H])[H])C([H])([H])[H])C([H])([H])c2c([H])c(OC([H])([H])C(=O)N([H])c3c([H])c([H])c(OC([H])([H])C([H])([H])OC([H])([H])C([H])([H])C([H])([H])C([H])([H])N([H])C(=O)N4C([H])([H])C([H])([H])C([H])([H])C([H])(n5nc(-c6c([H])c([H])c(Oc7c([H])c([H])c(F)c([H])c7F)c([H])c6[H])c(C(=O)N([H])[H])c5N([H])[H])C4([H])[H])c([H])c3[H])c([H])c([H])c2C1([H])[H]

$$$$
70:0:0
     RDKit          3D

105115  0  0  1  0  0  0  0  0999 V2000
  -35.1250  -20.6250   20.6280 C   0  0  0  0  0  2  0  0  0  0  0  0
  -31.4250  -22.9600   17.6110 C   0  0  0  0  0  3  0  0  0  0  0  0
  -32.6530  -23.4910   18.0450 C   0  0  0  0  0  3  0  0  0  0  0  0
  -31.0460  -21.6600   17.9960 C   0  0  0  0  0  3  0  0  0  0  0  0
  -32.2130  -17.1080   20.7570 C   0  0  0  0  0  3  0  0  0  0  0  0
  -33.5030  -22.7240   18.8640 C   0  0  0  0  0  3  0  0  0  0  0  0
  -33.1760  -18.1340   20.8320 C   0  0  0  0  0  3  0  0  0  0  0  0
  -30.8570  -18.5030   19.2980 C   0  0  0  0  0  3  0  0  0  0  0  0
  -31.8840  -20.8740   18.8210 C   0  0  0  0  0  0  0  0  0  0  0  0
  -31.8000  -19.5520   19.3720 C   0  0  0  0  0  0  0  0  0  0  0  0
  -31.0550  -17.2790   19.9670 C   0  0  0  0  0  0  0  0  0  0  0  0
  -33.1260  -21.4220   19.2530 C   0  0  0  0  0  0  0  0  0  0  0  0
  -32.9820  -19.3480   20.1390 C   0  0  0  0  0  0  0  0  0  0  0  0
  -33.8010  -20.4790   20.0400 N   0  0  0  0  0  0  0  0  0  0  0  0
  -29.9950  -16.1980   19.7830 C   0  0  0  0  0  2  0  0  0  0  0  0
  -30.7390  -13.8610   19.4330 C   0  0  0  0  0  0  0  0  0  0  0  0
  -30.2290  -11.6510   18.4760 C   0  0  0  0  0  2  0  0  0  0  0  0
  -29.1460  -11.8130   17.3900 C   0  0  0  0  0  2  0  0  0  0  0  0
  -27.7330  -11.7720   18.0060 C   0  0  0  0  0  2  0  0  0  0  0  0
  -27.5890  -12.7130   19.2300 C   0  0  0  0  0  3  0  0  0  0  0  0
  -28.7630  -12.5030   20.2150 C   0  0  0  0  0  2  0  0  0  0  0  0
  -30.0330  -12.7010   19.4860 N   0  0  0  0  0  0  0  0  0  0  0  0
  -31.6800  -14.0450   18.6550 O   0  0  0  0  0  0  0  0  0  0  0  0
  -30.2720  -14.8310   20.2270 N   0  0  0  0  0  0  0  0  0  0  0  0
  -29.6380  -14.5000   20.9380 H   0  0  0  0  0  0  0  0  0  0  0  0
  -25.3480  -13.4890   20.2460 C   0  0  0  0  0  0  0  0  0  0  0  0
  -24.2900  -12.7920   20.7680 C   0  0  0  0  0  0  0  0  0  0  0  0
  -24.6500  -11.4120   20.6880 C   0  0  0  0  0  0  0  0  0  0  0  0
  -26.2920  -12.5380   19.8860 N   0  0  0  0  0  0  0  0  0  0  0  0
  -25.8790  -11.2840   20.2040 N   0  0  0  0  0  0  0  0  0  0  0  0
  -23.8740  -10.2020   20.9900 C   0  0  0  0  0  0  0  0  0  0  0  0
  -24.3490   -9.2260   21.8930 C   0  0  0  0  0  3  0  0  0  0  0  0
  -23.5770   -8.0820   22.1830 C   0  0  0  0  0  3  0  0  0  0  0  0
  -22.3150   -7.9040   21.5680 C   0  0  0  0  0  0  0  0  0  0  0  0
  -21.8570   -8.8660   20.6510 C   0  0  0  0  0  3  0  0  0  0  0  0
  -22.6280  -10.0030   20.3610 C   0  0  0  0  0  3  0  0  0  0  0  0
  -21.5090   -6.8090   21.7670 O   0  0  0  0  0  0  0  0  0  0  0  0
  -21.5380   -6.0960   22.9380 C   0  0  0  0  0  0  0  0  0  0  0  0
  -21.2710   -6.7030   24.1850 C   0  0  0  0  0  3  0  0  0  0  0  0
  -21.2420   -5.9190   25.3570 C   0  0  0  0  0  3  0  0  0  0  0  0
  -21.4710   -4.5330   25.2830 C   0  0  0  0  0  0  0  0  0  0  0  0
  -21.7340   -3.9270   24.0430 C   0  0  0  0  0  3  0  0  0  0  0  0
  -21.7640   -4.7070   22.8720 C   0  0  0  0  0  0  0  0  0  0  0  0
  -21.9950   -4.1140   21.6760 F   0  0  0  0  0  0  0  0  0  0  0  0
  -21.4360   -3.7790   26.4080 F   0  0  0  0  0  0  0  0  0  0  0  0
  -22.9800  -13.3640   21.2300 C   0  0  0  0  0  0  0  0  0  0  0  0
  -22.3320  -12.7150   22.1890 N   0  0  0  0  0  0  0  0  0  0  0  0
  -22.5470  -14.4210   20.7730 O   0  0  0  0  0  0  0  0  0  0  0  0
  -22.6990  -11.8600   22.5810 H   0  0  0  0  0  0  0  0  0  0  0  0
  -21.4570  -13.0780   22.5410 H   0  0  0  0  0  0  0  0  0  0  0  0
  -25.5790  -14.8450   20.0360 N   0  0  0  0  0  0  0  0  0  0  0  0
  -24.8800  -15.5500   20.2440 H   0  0  0  0  0  0  0  0  0  0  0  0
  -26.4020  -15.2210   19.5850 H   0  0  0  0  0  0  0  0  0  0  0  0
  -35.1170  -20.4950   22.1590 C   0  0  0  0  0  2  0  0  0  0  0  0
  -34.0240  -21.2160   22.7160 O   0  0  0  0  0  0  0  0  0  0  0  0
  -33.7010  -20.7660   24.0250 C   0  0  0  0  0  2  0  0  0  0  0  0
  -32.4490  -21.4930   24.5280 C   0  0  0  0  0  2  0  0  0  0  0  0
  -31.3330  -21.0930   23.7460 O   0  0  0  0  0  0  0  0  0  0  0  0
  -30.1150  -21.6690   24.1950 C   0  0  0  0  0  2  0  0  0  0  0  0
  -29.0600  -21.4820   23.1000 C   0  0  0  0  0  2  0  0  0  0  0  0
  -29.2450  -22.4850   22.1110 O   0  0  0  0  0  0  0  0  0  0  0  0
  -28.2510  -22.4480   21.1010 C   0  0  0  0  0  2  0  0  0  0  0  0
  -28.3750  -23.7070   20.2360 C   0  0  0  0  0  2  0  0  0  0  0  0
  -27.1580  -23.9080   19.3280 C   0  0  0  0  0  2  0  0  0  0  0  0
  -27.3170  -25.1190   18.6000 O   0  0  0  0  0  0  0  0  0  0  0  0
  -24.9820  -29.6700   23.5420 C   0  0  0  0  0  0  0  0  0  0  0  0
  -26.4170  -26.0900   18.9460 C   0  0  0  0  0  0  0  0  0  0  0  0
  -23.5350  -29.3920   21.5530 C   0  0  0  0  0  3  0  0  0  0  0  0
  -24.5650  -28.1040   19.6080 C   0  0  0  0  0  0  0  0  0  0  0  0
  -26.0590  -29.0220   21.3940 C   0  0  0  0  0  2  0  0  0  0  0  0
  -25.7800  -28.0150   20.2990 C   0  0  0  0  0  0  0  0  0  0  0  0
  -26.7130  -27.0090   19.9720 C   0  0  0  0  0  3  0  0  0  0  0  0
  -25.1910  -26.1770   18.2590 C   0  0  0  0  0  3  0  0  0  0  0  0
  -24.2600  -27.1840   18.5880 C   0  0  0  0  0  3  0  0  0  0  0  0
  -23.6300  -29.2210   20.0130 C   0  0  0  0  0  2  0  0  0  0  0  0
  -24.8760  -29.3470   22.2230 N   0  0  0  0  0  0  0  0  0  0  0  0
  -23.9970  -30.0450   24.1910 O   0  0  0  0  0  0  0  0  0  0  0  0
  -22.5410  -28.3460   22.1030 C   0  0  0  0  0  0  0  0  0  0  0  0
  -21.2360  -28.6330   21.9670 N   0  0  0  0  0  0  0  0  0  0  0  0
  -22.9430  -27.2950   22.6090 O   0  0  0  0  0  0  0  0  0  0  0  0
  -20.9880  -29.5180   21.5470 H   0  0  0  0  0  0  0  0  0  0  0  0
  -17.6330  -28.4310   22.1160 C   0  0  0  0  0  0  0  0  0  0  0  0
  -20.1210  -27.7810   22.3760 C   0  0  0  0  0  3  0  0  0  0  0  0
  -19.8410  -26.6890   21.3170 C   0  0  0  0  0  2  0  0  0  0  0  0
  -18.7780  -27.0990   20.2940 C   0  0  0  0  0  2  0  0  0  0  0  0
  -17.4550  -27.4220   20.9940 C   0  0  0  0  0  2  0  0  0  0  0  0
  -18.8890  -28.6100   22.7540 C   0  0  0  0  0  0  0  0  0  0  0  0
  -19.0100  -29.5860   23.7670 C   0  0  0  0  0  3  0  0  0  0  0  0
  -17.9050  -30.3700   24.1470 C   0  0  0  0  0  3  0  0  0  0  0  0
  -16.6600  -30.1780   23.5240 C   0  0  0  0  0  3  0  0  0  0  0  0
  -16.5250  -29.2080   22.5140 C   0  0  0  0  0  3  0  0  0  0  0  0
  -26.3500  -29.6080   24.2930 C   0  0  0  0  0  3  0  0  0  0  0  0
  -26.4600  -30.8210   25.1120 N   0  0  0  0  0  0  0  0  0  0  0  0
  -27.1970  -31.8920   24.7890 C   0  0  0  0  0  0  0  0  0  0  0  0
  -27.9210  -31.9300   23.7900 O   0  0  0  0  0  0  0  0  0  0  0  0
  -25.8510  -30.8810   25.9150 H   0  0  0  0  0  0  0  0  0  0  0  0
  -26.1950  -34.1770   25.1020 C   0  0  0  0  0  1  0  0  0  0  0  0
  -27.1180  -33.1160   25.7220 C   0  0  0  0  0  3  0  0  0  0  0  0
  -29.2830  -32.8640   26.8520 C   0  0  0  0  0  1  0  0  0  0  0  0
  -28.4370  -33.7150   26.0190 N   0  0  0  0  0  0  0  0  0  0  0  0
  -28.3280  -34.6110   26.4880 H   0  0  0  0  0  0  0  0  0  0  0  0
  -26.5150  -28.3150   25.1820 C   0  0  1  0  0  0  0  0  0  0  0  0
  -25.3290  -28.0660   26.1420 C   0  0  0  0  0  1  0  0  0  0  0  0
  -26.6750  -27.0580   24.2920 C   0  0  0  0  0  1  0  0  0  0  0  0
  -27.8040  -28.4220   26.0310 C   0  0  0  0  0  1  0  0  0  0  0  0
  1 54  1  0
  2  4  2  0
  2  3  1  0
  3  6  2  0
  4  9  1  0
  5  7  1  0
  6 12  1  0
  8 10  2  0
  8 11  1  0
  9 12  2  0
  9 10  1  0
 10 13  1  0
 11  5  2  0
 12 14  1  0
 13  7  2  0
 14 13  1  0
 14  1  1  0
 15 11  1  0
 15 24  1  0
 16 22  1  0
 16 24  1  0
 17 22  1  0
 18 19  1  0
 18 17  1  0
 20 19  1  0
 20 29  1  0
 20 21  1  0
 22 21  1  0
 23 16  2  0
 24 25  1  0
 26 27  2  0
 27 46  1  0
 28 27  1  0
 28 31  1  0
 29 30  1  0
 29 26  1  0
 30 28  2  0
 31 32  1  0
 32 33  2  0
 34 37  1  0
 34 33  1  0
 35 34  2  0
 36 35  1  0
 36 31  2  0
 37 38  1  0
 38 39  1  0
 39 40  2  0
 41 40  1  0
 41 45  1  0
 42 41  2  0
 43 38  2  0
 43 42  1  0
 44 43  1  0
 46 47  1  0
 47 50  1  0
 47 49  1  0
 48 46  2  0
 51 52  1  0
 51 26  1  0
 53 51  1  0
 54 55  1  0
 55 56  1  0
 56 57  1  0
 58 59  1  0
 58 57  1  0
 60 59  1  0
 61 60  1  0
 62 61  1  0
 63 62  1  0
 64 63  1  0
 65 67  1  0
 65 64  1  0
 66 77  2  0
 67 72  1  0
 68 78  1  0
 68 76  1  0
 69 75  1  0
 69 71  1  0
 70 76  1  0
 71 70  1  0
 72 71  2  0
 73 74  1  0
 73 67  2  0
 74 69  2  0
 75 68  1  0
 76 66  1  0
 78 80  2  0
 79 78  1  0
 81 79  1  0
 82 91  2  0
 82 87  1  0
 83 79  1  0
 83 87  1  0
 84 83  1  0
 85 86  1  0
 85 84  1  0
 86 82  1  0
 87 88  2  0
 88 89  1  0
 90 89  2  0
 91 90  1  0
 92 66  1  0
 92 93  1  0
 92102  1  0
 93 96  1  0
 94 93  1  0
 94 98  1  0
 95 94  2  0
 98 97  1  0
 98100  1  0
100101  1  0
100 99  1  0
102105  1  1
102103  1  0
104102  1  0
M  ISO  4  16 100  24 100  64 101  65 101
M  END
>  <TORSDO>  (68) 
F 29

>  <SCORE>  (68) 
-7.036

>  <name>  (68) 
70

>  <ligand_id>  (68) 
70

>  <original_smiles>  (68) 
[H]c1c([H])c([H])c2c(c1[H])C([H])([H])C([H])([H])C([H])([H])C2([H])N([H])C(=O)C1([H])N(C(=O)C([H])(N([H])C(=O)C([H])(N([H])C([H])([H])[H])C([H])([H])[H])C(C([H])([H])[H])(C([H])([H])[H])C([H])([H])[H])C([H])([H])c2c([H])c(OC([H])([H])C([H])([H])C([H])([H])OC([H])([H])C([H])([H])OC([H])([H])C([H])([H])OC([H])([H])C([H])([H])n3c4c([H])c([H])c([H])c([H])c4c4c([H])c(C([H])([H])N([H])C(=O)N5C([H])([H])C([H])([H])C([H])([H])C([H])(n6nc(-c7c([H])c([H])c(Oc8c([H])c([H])c(F)c([H])c8F)c([H])c7[H])c(C(=O)N([H])[H])c6N([H])[H])C5([H])[H])c([H])c([H])c43)c([H])c([H])c2C1([H])[H]

>  <smiles>  (68) 
[H]c1c([H])c([H])c2c(c1[H])C([H])([H])C([H])([H])C([H])([H])C2([H])N([H])C(=O)C1([H])N(C(=O)C([H])(N([H])C(=O)C([H])(N([H])C([H])([H])[H])C([H])([H])[H])C(C([H])([H])[H])(C([H])([H])[H])C([H])([H])[H])C([H])([H])c2c([H])c(OC([H])([H])C([H])([H])C([H])([H])OC([H])([H])C([H])([H])OC([H])([H])C([H])([H])OC([H])([H])C([H])([H])n3c4c([H])c([H])c([H])c([H])c4c4c([H])c(C([H])([H])N([H])C(=O)N5C([H])([H])C([H])([H])C([H])([H])C([H])(n6nc(-c7c([H])c([H])c(Oc8c([H])c([H])c(F)c([H])c8F)c([H])c7[H])c(C(=O)N([H])[H])c6N([H])[H])C5([H])[H])c([H])c([H])c43)c([H])c([H])c2C1([H])[H]

$$$$
71:0:0
     RDKit          3D

 94101  0  0  1  0  0  0  0  0999 V2000
  -25.2690  -25.2170   25.2140 C   0  0  0  0  0  2  0  0  0  0  0  0
  -26.3770  -26.2000   25.6140 C   0  0  0  0  0  2  0  0  0  0  0  0
  -27.5130  -26.0500   24.7730 O   0  0  0  0  0  0  0  0  0  0  0  0
  -28.4980  -27.0410   25.0280 C   0  0  0  0  0  2  0  0  0  0  0  0
  -29.6420  -26.9190   24.0160 C   0  0  0  0  0  2  0  0  0  0  0  0
  -29.3570  -27.6340   22.6860 C   0  0  0  0  0  2  0  0  0  0  0  0
  -30.3130  -27.1780   21.7430 O   0  0  0  0  0  0  0  0  0  0  0  0
  -30.3050  -27.8860   20.5100 C   0  0  0  0  0  2  0  0  0  0  0  0
  -31.0160  -26.9760   19.5030 C   0  0  0  0  0  2  0  0  0  0  0  0
  -31.1990  -27.5510   18.0860 C   0  0  0  0  0  2  0  0  0  0  0  0
  -31.7610  -26.3790   15.9220 C   0  0  0  0  0  0  0  0  0  0  0  0
  -31.8520  -24.7240   14.0910 C   0  0  0  0  0  2  0  0  0  0  0  0
  -30.4820  -24.0260   13.9540 C   0  0  0  0  0  2  0  0  0  0  0  0
  -30.3600  -22.8350   14.9270 C   0  0  0  0  0  2  0  0  0  0  0  0
  -30.7730  -23.2050   16.3760 C   0  0  0  0  0  3  0  0  0  0  0  0
  -32.1370  -23.9280   16.3670 C   0  0  0  0  0  2  0  0  0  0  0  0
  -32.0210  -25.1170   15.4940 N   0  0  0  0  0  0  0  0  0  0  0  0
  -31.5200  -27.3310   15.1720 O   0  0  0  0  0  0  0  0  0  0  0  0
  -31.7220  -26.4800   17.2520 N   0  0  0  0  0  0  0  0  0  0  0  0
  -31.9740  -25.6280   17.7320 H   0  0  0  0  0  0  0  0  0  0  0  0
  -30.0000  -21.7390   18.3520 C   0  0  0  0  0  0  0  0  0  0  0  0
  -30.3780  -20.4900   18.7640 C   0  0  0  0  0  0  0  0  0  0  0  0
  -31.4010  -20.0690   17.8580 C   0  0  0  0  0  0  0  0  0  0  0  0
  -30.7890  -22.0310   17.2480 N   0  0  0  0  0  0  0  0  0  0  0  0
  -31.6700  -21.0330   16.9870 N   0  0  0  0  0  0  0  0  0  0  0  0
  -32.1000  -18.7850   17.7350 C   0  0  0  0  0  0  0  0  0  0  0  0
  -33.5080  -18.7040   17.7940 C   0  0  0  0  0  3  0  0  0  0  0  0
  -34.1580  -17.4550   17.6900 C   0  0  0  0  0  3  0  0  0  0  0  0
  -33.3990  -16.2710   17.5300 C   0  0  0  0  0  0  0  0  0  0  0  0
  -31.9980  -16.3600   17.4520 C   0  0  0  0  0  3  0  0  0  0  0  0
  -31.3540  -17.6040   17.5500 C   0  0  0  0  0  3  0  0  0  0  0  0
  -33.9450  -15.0180   17.3920 O   0  0  0  0  0  0  0  0  0  0  0  0
  -35.1350  -14.6820   17.9850 C   0  0  0  0  0  0  0  0  0  0  0  0
  -35.3230  -14.7720   19.3810 C   0  0  0  0  0  3  0  0  0  0  0  0
  -36.5380  -14.3500   19.9570 C   0  0  0  0  0  3  0  0  0  0  0  0
  -37.5610  -13.8310   19.1410 C   0  0  0  0  0  0  0  0  0  0  0  0
  -37.3750  -13.7370   17.7510 C   0  0  0  0  0  3  0  0  0  0  0  0
  -36.1630  -14.1580   17.1750 C   0  0  0  0  0  0  0  0  0  0  0  0
  -35.9800  -14.0450   15.8370 F   0  0  0  0  0  0  0  0  0  0  0  0
  -38.7260  -13.4200   19.6940 F   0  0  0  0  0  0  0  0  0  0  0  0
  -29.7600  -19.6880   19.8730 C   0  0  0  0  0  0  0  0  0  0  0  0
  -30.5540  -18.8680   20.5530 N   0  0  0  0  0  0  0  0  0  0  0  0
  -28.5760  -19.8220   20.1780 O   0  0  0  0  0  0  0  0  0  0  0  0
  -31.5320  -18.7760   20.3190 H   0  0  0  0  0  0  0  0  0  0  0  0
  -30.1780  -18.3280   21.3180 H   0  0  0  0  0  0  0  0  0  0  0  0
  -29.0440  -22.6400   18.8100 N   0  0  0  0  0  0  0  0  0  0  0  0
  -28.4200  -22.4250   19.5790 H   0  0  0  0  0  0  0  0  0  0  0  0
  -28.8360  -23.5290   18.3700 H   0  0  0  0  0  0  0  0  0  0  0  0
  -25.3360  -24.7350   23.7590 C   0  0  0  0  0  2  0  0  0  0  0  0
  -26.0810  -25.6490   22.9640 O   0  0  0  0  0  0  0  0  0  0  0  0
  -25.9270  -25.4000   21.5760 C   0  0  0  0  0  2  0  0  0  0  0  0
  -27.2680  -25.6310   20.8620 C   0  0  0  0  0  2  0  0  0  0  0  0
  -27.1700  -25.7310   19.3240 C   0  0  0  0  0  2  0  0  0  0  0  0
  -27.1490  -27.0850   18.8700 O   0  0  0  0  0  0  0  0  0  0  0  0
  -24.6550  -31.8710   23.4630 C   0  0  0  0  0  0  0  0  0  0  0  0
  -26.0750  -27.8710   19.2160 C   0  0  0  0  0  0  0  0  0  0  0  0
  -22.9890  -30.9280   21.8940 C   0  0  0  0  0  3  0  0  0  0  0  0
  -23.9360  -29.5480   19.9720 C   0  0  0  0  0  0  0  0  0  0  0  0
  -25.4570  -31.0730   21.2430 C   0  0  0  0  0  2  0  0  0  0  0  0
  -25.2400  -29.8450   20.3860 C   0  0  0  0  0  0  0  0  0  0  0  0
  -26.3120  -29.0150   20.0050 C   0  0  0  0  0  3  0  0  0  0  0  0
  -24.7560  -27.5820   18.7960 C   0  0  0  0  0  3  0  0  0  0  0  0
  -23.6870  -28.4130   19.1780 C   0  0  0  0  0  3  0  0  0  0  0  0
  -22.8470  -30.4990   20.4090 C   0  0  0  0  0  2  0  0  0  0  0  0
  -24.3970  -31.2910   22.2570 N   0  0  0  0  0  0  0  0  0  0  0  0
  -23.7390  -32.1430   24.2500 O   0  0  0  0  0  0  0  0  0  0  0  0
  -22.3950  -29.8140   22.7850 C   0  0  0  0  0  0  0  0  0  0  0  0
  -21.0830  -29.5720   22.6410 N   0  0  0  0  0  0  0  0  0  0  0  0
  -23.1120  -29.1740   23.5590 O   0  0  0  0  0  0  0  0  0  0  0  0
  -20.5660  -30.1450   21.9880 H   0  0  0  0  0  0  0  0  0  0  0  0
  -17.8720  -27.9230   22.7730 C   0  0  0  0  0  0  0  0  0  0  0  0
  -20.3140  -28.5470   23.3450 C   0  0  0  0  0  3  0  0  0  0  0  0
  -20.6870  -27.1320   22.8480 C   0  0  0  0  0  2  0  0  0  0  0  0
  -19.7770  -26.6310   21.7210 C   0  0  0  0  0  2  0  0  0  0  0  0
  -18.3180  -26.5950   22.1840 C   0  0  0  0  0  2  0  0  0  0  0  0
  -18.8110  -28.8470   23.3040 C   0  0  0  0  0  0  0  0  0  0  0  0
  -18.3490  -30.0810   23.8080 C   0  0  0  0  0  3  0  0  0  0  0  0
  -16.9770  -30.3990   23.7900 C   0  0  0  0  0  3  0  0  0  0  0  0
  -16.0500  -29.4740   23.2790 C   0  0  0  0  0  3  0  0  0  0  0  0
  -16.4980  -28.2380   22.7770 C   0  0  0  0  0  3  0  0  0  0  0  0
  -26.1070  -32.2400   23.9000 C   0  0  0  0  0  3  0  0  0  0  0  0
  -26.0710  -33.6050   24.4400 N   0  0  0  0  0  0  0  0  0  0  0  0
  -26.4810  -34.6960   23.7780 C   0  0  0  0  0  0  0  0  0  0  0  0
  -27.0030  -34.6440   22.6610 O   0  0  0  0  0  0  0  0  0  0  0  0
  -25.6060  -33.7270   25.3270 H   0  0  0  0  0  0  0  0  0  0  0  0
  -25.0470  -36.7590   23.8710 C   0  0  0  0  0  1  0  0  0  0  0  0
  -26.2800  -36.0600   24.4640 C   0  0  0  0  0  3  0  0  0  0  0  0
  -28.6070  -36.4840   25.1250 C   0  0  0  0  0  1  0  0  0  0  0  0
  -27.4560  -36.9510   24.3580 N   0  0  0  0  0  0  0  0  0  0  0  0
  -27.2260  -37.8900   24.6730 H   0  0  0  0  0  0  0  0  0  0  0  0
  -26.7140  -31.2360   24.9550 C   0  0  1  0  0  0  0  0  0  0  0  0
  -25.8000  -30.9900   26.1790 C   0  0  0  0  0  1  0  0  0  0  0  0
  -27.0010  -29.8640   24.2980 C   0  0  0  0  0  1  0  0  0  0  0  0
  -28.0680  -31.7740   25.4720 C   0  0  0  0  0  1  0  0  0  0  0  0
  1  2  1  0
  3  4  1  0
  3  2  1  0
  5  4  1  0
  6  5  1  0
  7  6  1  0
  8  7  1  0
  9  8  1  0
 10  9  1  0
 11 19  1  0
 12 17  1  0
 13 12  1  0
 13 14  1  0
 15 14  1  0
 15 24  1  0
 16 15  1  0
 17 11  1  0
 17 16  1  0
 18 11  2  0
 19 20  1  0
 19 10  1  0
 21 22  2  0
 21 46  1  0
 22 41  1  0
 23 22  1  0
 24 21  1  0
 25 24  1  0
 25 23  2  0
 26 27  1  0
 26 23  1  0
 28 27  2  0
 29 28  1  0
 30 29  2  0
 30 31  1  0
 31 26  2  0
 32 29  1  0
 32 33  1  0
 33 34  1  0
 34 35  2  0
 36 40  1  0
 36 35  1  0
 37 36  2  0
 38 37  1  0
 38 33  2  0
 39 38  1  0
 41 43  2  0
 41 42  1  0
 42 45  1  0
 44 42  1  0
 46 47  1  0
 48 46  1  0
 49  1  1  0
 50 49  1  0
 51 50  1  0
 52 51  1  0
 53 52  1  0
 54 56  1  0
 54 53  1  0
 55 66  2  0
 56 61  1  0
 57 65  1  0
 57 67  1  0
 58 60  1  0
 58 64  1  0
 59 65  1  0
 60 59  1  0
 61 60  2  0
 62 63  1  0
 62 56  2  0
 63 58  2  0
 64 57  1  0
 65 55  1  0
 67 69  2  0
 68 67  1  0
 70 68  1  0
 71 80  2  0
 71 76  1  0
 72 68  1  0
 73 72  1  0
 74 75  1  0
 74 73  1  0
 75 71  1  0
 76 72  1  0
 76 77  2  0
 78 77  1  0
 79 78  2  0
 80 79  1  0
 81 55  1  0
 81 82  1  0
 81 91  1  0
 82 85  1  0
 83 82  1  0
 83 87  1  0
 84 83  2  0
 87 86  1  0
 89 87  1  0
 89 90  1  0
 89 88  1  0
 91 94  1  1
 91 92  1  0
 93 91  1  0
M  ISO  4  11 100  19 100  53 101  54 101
M  END
>  <TORSDO>  (69) 
F 30

>  <SCORE>  (69) 
-4.582

>  <name>  (69) 
71

>  <ligand_id>  (69) 
71

>  <original_smiles>  (69) 
[H]c1c([H])c([H])c2c(c1[H])C([H])([H])C([H])([H])C([H])([H])C2([H])N([H])C(=O)C1([H])N(C(=O)C([H])(N([H])C(=O)C([H])(N([H])C([H])([H])[H])C([H])([H])[H])C(C([H])([H])[H])(C([H])([H])[H])C([H])([H])[H])C([H])([H])c2c([H])c(OC([H])([H])C([H])([H])C([H])([H])OC([H])([H])C([H])([H])C([H])([H])OC([H])([H])C([H])([H])C([H])([H])OC([H])([H])C([H])([H])C([H])([H])N([H])C(=O)N3C([H])([H])C([H])([H])C([H])([H])C([H])(n4nc(-c5c([H])c([H])c(Oc6c([H])c([H])c(F)c([H])c6F)c([H])c5[H])c(C(=O)N([H])[H])c4N([H])[H])C3([H])[H])c([H])c([H])c2C1([H])[H]

>  <smiles>  (69) 
[H]c1c([H])c([H])c2c(c1[H])C([H])([H])C([H])([H])C([H])([H])C2([H])N([H])C(=O)C1([H])N(C(=O)C([H])(N([H])C(=O)C([H])(N([H])C([H])([H])[H])C([H])([H])[H])C(C([H])([H])[H])(C([H])([H])[H])C([H])([H])[H])C([H])([H])c2c([H])c(OC([H])([H])C([H])([H])C([H])([H])OC([H])([H])C([H])([H])C([H])([H])OC([H])([H])C([H])([H])C([H])([H])OC([H])([H])C([H])([H])C([H])([H])N([H])C(=O)N3C([H])([H])C([H])([H])C([H])([H])C([H])(n4nc(-c5c([H])c([H])c(Oc6c([H])c([H])c(F)c([H])c6F)c([H])c5[H])c(C(=O)N([H])[H])c4N([H])[H])C3([H])[H])c([H])c([H])c2C1([H])[H]

$$$$
72:0:0
     RDKit          3D

 87 94  0  0  1  0  0  0  0  0999 V2000
  -29.1130  -22.7980   20.1480 O   0  0  0  0  0  0  0  0  0  0  0  0
  -29.2650  -24.1800   20.5710 C   0  0  0  0  0  2  0  0  0  0  0  0
  -28.1950  -25.1410   19.9510 C   0  0  0  0  0  2  0  0  0  0  0  0
  -28.3440  -26.5690   20.2300 O   0  0  0  0  0  0  0  0  0  0  0  0
  -24.6030  -31.8820   23.2540 C   0  0  0  0  0  0  0  0  0  0  0  0
  -27.2030  -27.3700   20.1730 C   0  0  0  0  0  0  0  0  0  0  0  0
  -23.3880  -30.4910   21.6140 C   0  0  0  0  0  3  0  0  0  0  0  0
  -24.8290  -28.9470   20.1790 C   0  0  0  0  0  0  0  0  0  0  0  0
  -25.9230  -30.8160   21.4190 C   0  0  0  0  0  2  0  0  0  0  0  0
  -25.9960  -29.4430   20.7740 C   0  0  0  0  0  0  0  0  0  0  0  0
  -27.1840  -28.6630   20.7670 C   0  0  0  0  0  3  0  0  0  0  0  0
  -26.0140  -26.9200   19.5460 C   0  0  0  0  0  3  0  0  0  0  0  0
  -24.8370  -27.6890   19.5590 C   0  0  0  0  0  3  0  0  0  0  0  0
  -23.5920  -29.8180   20.2320 C   0  0  0  0  0  2  0  0  0  0  0  0
  -24.6560  -31.0790   22.1530 N   0  0  0  0  0  0  0  0  0  0  0  0
  -23.5240  -32.1610   23.7950 O   0  0  0  0  0  0  0  0  0  0  0  0
  -22.7290  -29.4710   22.5730 C   0  0  0  0  0  0  0  0  0  0  0  0
  -21.4040  -29.2960   22.4460 N   0  0  0  0  0  0  0  0  0  0  0  0
  -23.4090  -28.8420   23.3890 O   0  0  0  0  0  0  0  0  0  0  0  0
  -20.9160  -29.8550   21.7610 H   0  0  0  0  0  0  0  0  0  0  0  0
  -18.0240  -28.1080   22.9390 C   0  0  0  0  0  0  0  0  0  0  0  0
  -20.5820  -28.3620   23.2170 C   0  0  0  0  0  3  0  0  0  0  0  0
  -20.6820  -26.9290   22.6440 C   0  0  0  0  0  2  0  0  0  0  0  0
  -19.5830  -26.6070   21.6270 C   0  0  0  0  0  2  0  0  0  0  0  0
  -18.2000  -26.7570   22.2670 C   0  0  0  0  0  2  0  0  0  0  0  0
  -19.1430  -28.8680   23.3700 C   0  0  0  0  0  0  0  0  0  0  0  0
  -18.9250  -30.1340   23.9590 C   0  0  0  0  0  3  0  0  0  0  0  0
  -17.6220  -30.6390   24.1180 C   0  0  0  0  0  3  0  0  0  0  0  0
  -16.5170  -29.8760   23.7040 C   0  0  0  0  0  3  0  0  0  0  0  0
  -16.7190  -28.6120   23.1200 C   0  0  0  0  0  3  0  0  0  0  0  0
  -25.8930  -32.5060   23.8720 C   0  0  0  0  0  3  0  0  0  0  0  0
  -26.4080  -31.7310   25.1470 C   0  0  1  0  0  0  0  0  0  0  0  0
  -25.3180  -31.5010   26.2190 C   0  0  0  0  0  1  0  0  0  0  0  0
  -26.9820  -30.3500   24.7520 C   0  0  0  0  0  1  0  0  0  0  0  0
  -27.5640  -32.5190   25.8080 C   0  0  0  0  0  1  0  0  0  0  0  0
  -25.5920  -33.9060   24.2030 N   0  0  0  0  0  0  0  0  0  0  0  0
  -25.9250  -34.9570   23.4410 C   0  0  0  0  0  0  0  0  0  0  0  0
  -26.5890  -34.8480   22.4060 O   0  0  0  0  0  0  0  0  0  0  0  0
  -25.0030  -34.0650   25.0080 H   0  0  0  0  0  0  0  0  0  0  0  0
  -24.2020  -36.7560   23.0930 C   0  0  0  0  0  1  0  0  0  0  0  0
  -25.4460  -36.3470   23.8980 C   0  0  0  0  0  3  0  0  0  0  0  0
  -27.5900  -37.2240   24.7140 C   0  0  0  0  0  1  0  0  0  0  0  0
  -26.4820  -37.3950   23.7780 N   0  0  0  0  0  0  0  0  0  0  0  0
  -26.0800  -38.3170   23.9270 H   0  0  0  0  0  0  0  0  0  0  0  0
  -29.8660  -21.8260   20.9130 C   0  0  0  0  0  2  0  0  0  0  0  0
  -29.9940  -20.3890   20.2800 C   0  0  0  0  0  2  0  0  0  0  0  0
  -29.6060  -19.3250   21.1790 O   0  0  0  0  0  0  0  0  0  0  0  0
  -30.3560  -18.0820   21.1900 C   0  0  0  0  0  2  0  0  0  0  0  0
  -29.9920  -17.0260   20.1000 C   0  0  0  0  0  2  0  0  0  0  0  0
  -30.6580  -14.5630   20.1340 C   0  0  0  0  0  0  0  0  0  0  0  0
  -30.3320  -12.3860   19.0110 C   0  0  0  0  0  2  0  0  0  0  0  0
  -29.3420  -12.5990   17.8440 C   0  0  0  0  0  2  0  0  0  0  0  0
  -27.8850  -12.4670   18.3310 C   0  0  0  0  0  2  0  0  0  0  0  0
  -27.6040  -13.2910   19.6150 C   0  0  0  0  0  3  0  0  0  0  0  0
  -28.7030  -13.0590   20.6790 C   0  0  0  0  0  2  0  0  0  0  0  0
  -30.0040  -13.3660   20.0610 N   0  0  0  0  0  0  0  0  0  0  0  0
  -31.7760  -14.7380   19.6440 O   0  0  0  0  0  0  0  0  0  0  0  0
  -29.9110  -15.6090   20.5580 N   0  0  0  0  0  0  0  0  0  0  0  0
  -29.0360  -15.3490   20.9880 H   0  0  0  0  0  0  0  0  0  0  0  0
  -25.2410  -13.9170   20.4180 C   0  0  0  0  0  0  0  0  0  0  0  0
  -24.1800  -13.1550   20.8240 C   0  0  0  0  0  0  0  0  0  0  0  0
  -24.6260  -11.7980   20.7700 C   0  0  0  0  0  0  0  0  0  0  0  0
  -26.2680  -13.0270   20.1440 N   0  0  0  0  0  0  0  0  0  0  0  0
  -25.9040  -11.7470   20.4140 N   0  0  0  0  0  0  0  0  0  0  0  0
  -23.8950  -10.5420   20.9820 C   0  0  0  0  0  0  0  0  0  0  0  0
  -24.3570   -9.5630   21.8880 C   0  0  0  0  0  3  0  0  0  0  0  0
  -23.6260   -8.3710   22.0880 C   0  0  0  0  0  3  0  0  0  0  0  0
  -22.4190   -8.1520   21.3830 C   0  0  0  0  0  0  0  0  0  0  0  0
  -21.9750   -9.1210   20.4660 C   0  0  0  0  0  3  0  0  0  0  0  0
  -22.7060  -10.3040   20.2640 C   0  0  0  0  0  3  0  0  0  0  0  0
  -21.6570   -7.0150   21.4950 O   0  0  0  0  0  0  0  0  0  0  0  0
  -21.6560   -6.2580   22.6390 C   0  0  0  0  0  0  0  0  0  0  0  0
  -21.3040   -6.8040   23.8930 C   0  0  0  0  0  3  0  0  0  0  0  0
  -21.2500   -5.9740   25.0310 C   0  0  0  0  0  3  0  0  0  0  0  0
  -21.5350   -4.6010   24.9170 C   0  0  0  0  0  0  0  0  0  0  0  0
  -21.8800   -4.0550   23.6680 C   0  0  0  0  0  3  0  0  0  0  0  0
  -21.9370   -4.8820   22.5310 C   0  0  0  0  0  0  0  0  0  0  0  0
  -22.2490   -4.3460   21.3260 F   0  0  0  0  0  0  0  0  0  0  0  0
  -21.4760   -3.8020   26.0080 F   0  0  0  0  0  0  0  0  0  0  0  0
  -22.7990  -13.6450   21.1510 C   0  0  0  0  0  0  0  0  0  0  0  0
  -22.0980  -12.9520   22.0420 N   0  0  0  0  0  0  0  0  0  0  0  0
  -22.3520  -14.6760   20.6520 O   0  0  0  0  0  0  0  0  0  0  0  0
  -22.4730  -12.1180   22.4680 H   0  0  0  0  0  0  0  0  0  0  0  0
  -21.1730  -13.2630   22.3040 H   0  0  0  0  0  0  0  0  0  0  0  0
  -25.4140  -15.2870   20.2390 N   0  0  0  0  0  0  0  0  0  0  0  0
  -24.6560  -15.9470   20.3780 H   0  0  0  0  0  0  0  0  0  0  0  0
  -26.2510  -15.7180   19.8670 H   0  0  0  0  0  0  0  0  0  0  0  0
  1  2  1  0
  1 45  1  0
  3  4  1  0
  3  2  1  0
  5 16  2  0
  6  4  1  0
  6 11  1  0
  7 15  1  0
  7 17  1  0
  8 14  1  0
  8 10  1  0
  9 15  1  0
 10  9  1  0
 11 10  2  0
 12 13  1  0
 12  6  2  0
 13  8  2  0
 14  7  1  0
 15  5  1  0
 17 19  2  0
 18 17  1  0
 20 18  1  0
 21 30  2  0
 21 26  1  0
 22 18  1  0
 22 26  1  0
 23 22  1  0
 24 25  1  0
 24 23  1  0
 25 21  1  0
 26 27  2  0
 27 28  1  0
 29 28  2  0
 30 29  1  0
 31  5  1  0
 31 36  1  0
 31 32  1  0
 32 35  1  1
 32 33  1  0
 34 32  1  0
 36 39  1  0
 37 41  1  0
 37 36  1  0
 38 37  2  0
 41 40  1  0
 43 41  1  0
 43 44  1  0
 43 42  1  0
 46 45  1  0
 46 47  1  0
 47 48  1  0
 49 58  1  0
 49 48  1  0
 50 58  1  0
 51 56  1  0
 52 53  1  0
 52 51  1  0
 54 53  1  0
 54 63  1  0
 54 55  1  0
 56 50  1  0
 56 55  1  0
 57 50  2  0
 58 59  1  0
 60 61  2  0
 61 80  1  0
 62 61  1  0
 62 65  1  0
 63 64  1  0
 63 60  1  0
 64 62  2  0
 65 66  1  0
 66 67  2  0
 68 71  1  0
 68 67  1  0
 69 68  2  0
 70 69  1  0
 70 65  2  0
 71 72  1  0
 72 73  1  0
 73 74  2  0
 75 74  1  0
 75 79  1  0
 76 75  2  0
 77 72  2  0
 77 76  1  0
 78 77  1  0
 80 81  1  0
 81 84  1  0
 81 83  1  0
 82 80  2  0
 85 86  1  0
 85 60  1  0
 87 85  1  0
M  ISO  4   3 101   4 101  50 100  58 100
M  END
>  <TORSDO>  (70) 
F 23

>  <SCORE>  (70) 
-12.462

>  <name>  (70) 
72

>  <ligand_id>  (70) 
72

>  <original_smiles>  (70) 
[H]c1c([H])c([H])c2c(c1[H])C([H])([H])C([H])([H])C([H])([H])C2([H])N([H])C(=O)C1([H])N(C(=O)C([H])(N([H])C(=O)C([H])(N([H])C([H])([H])[H])C([H])([H])[H])C(C([H])([H])[H])(C([H])([H])[H])C([H])([H])[H])C([H])([H])c2c([H])c(OC([H])([H])C([H])([H])OC([H])([H])C([H])([H])OC([H])([H])C([H])([H])N([H])C(=O)N3C([H])([H])C([H])([H])C([H])([H])C([H])(n4nc(-c5c([H])c([H])c(Oc6c([H])c([H])c(F)c([H])c6F)c([H])c5[H])c(C(=O)N([H])[H])c4N([H])[H])C3([H])[H])c([H])c([H])c2C1([H])[H]

>  <smiles>  (70) 
[H]c1c([H])c([H])c2c(c1[H])C([H])([H])C([H])([H])C([H])([H])C2([H])N([H])C(=O)C1([H])N(C(=O)C([H])(N([H])C(=O)C([H])(N([H])C([H])([H])[H])C([H])([H])[H])C(C([H])([H])[H])(C([H])([H])[H])C([H])([H])[H])C([H])([H])c2c([H])c(OC([H])([H])C([H])([H])OC([H])([H])C([H])([H])OC([H])([H])C([H])([H])N([H])C(=O)N3C([H])([H])C([H])([H])C([H])([H])C([H])(n4nc(-c5c([H])c([H])c(Oc6c([H])c([H])c(F)c([H])c6F)c([H])c5[H])c(C(=O)N([H])[H])c4N([H])[H])C3([H])[H])c([H])c([H])c2C1([H])[H]

$$$$
73:0:0
     RDKit          3D

 96103  0  0  1  0  0  0  0  0999 V2000
  -25.5740  -24.0910   21.7700 C   0  0  0  0  0  2  0  0  0  0  0  0
  -24.7490  -23.3870   20.8460 O   0  0  0  0  0  0  0  0  0  0  0  0
  -24.7840  -23.8990   19.5180 C   0  0  0  0  0  2  0  0  0  0  0  0
  -24.7100  -22.7620   18.4900 C   0  0  0  0  0  2  0  0  0  0  0  0
  -26.0830  -22.1490   18.1540 C   0  0  0  0  0  2  0  0  0  0  0  0
  -26.5040  -21.3170   19.2240 O   0  0  0  0  0  0  0  0  0  0  0  0
  -27.7580  -20.6850   18.9960 C   0  0  0  0  0  2  0  0  0  0  0  0
  -27.9520  -19.6250   20.0870 C   0  0  0  0  0  2  0  0  0  0  0  0
  -29.1810  -18.9280   19.9080 O   0  0  0  0  0  0  0  0  0  0  0  0
  -29.2700  -17.7840   20.7490 C   0  0  0  0  0  2  0  0  0  0  0  0
  -30.6310  -17.0810   20.5850 C   0  0  0  0  0  2  0  0  0  0  0  0
  -31.1080  -14.6800   20.1230 C   0  0  0  0  0  0  0  0  0  0  0  0
  -30.8100  -12.4480   19.1250 C   0  0  0  0  0  2  0  0  0  0  0  0
  -29.8590  -12.5510   17.9150 C   0  0  0  0  0  2  0  0  0  0  0  0
  -28.3810  -12.4740   18.3520 C   0  0  0  0  0  2  0  0  0  0  0  0
  -28.0570  -13.4300   19.5310 C   0  0  0  0  0  3  0  0  0  0  0  0
  -29.1020  -13.2540   20.6540 C   0  0  0  0  0  2  0  0  0  0  0  0
  -30.4400  -13.4990   20.0840 N   0  0  0  0  0  0  0  0  0  0  0  0
  -32.1600  -14.8970   19.5120 O   0  0  0  0  0  0  0  0  0  0  0  0
  -30.4740  -15.6430   20.8000 N   0  0  0  0  0  0  0  0  0  0  0  0
  -29.6620  -15.3440   21.3150 H   0  0  0  0  0  0  0  0  0  0  0  0
  -25.6880  -14.1620   20.2460 C   0  0  0  0  0  0  0  0  0  0  0  0
  -24.5900  -13.4450   20.6410 C   0  0  0  0  0  0  0  0  0  0  0  0
  -24.9910  -12.0730   20.6250 C   0  0  0  0  0  0  0  0  0  0  0  0
  -26.6930  -13.2310   20.0200 N   0  0  0  0  0  0  0  0  0  0  0  0
  -26.2740  -11.9710   20.3010 N   0  0  0  0  0  0  0  0  0  0  0  0
  -24.2130  -10.8480   20.8430 C   0  0  0  0  0  0  0  0  0  0  0  0
  -24.5980   -9.8900   21.8080 C   0  0  0  0  0  3  0  0  0  0  0  0
  -23.8240   -8.7280   22.0120 C   0  0  0  0  0  3  0  0  0  0  0  0
  -22.6510   -8.5140   21.2520 C   0  0  0  0  0  0  0  0  0  0  0  0
  -22.2830   -9.4590   20.2780 C   0  0  0  0  0  3  0  0  0  0  0  0
  -23.0580  -10.6130   20.0710 C   0  0  0  0  0  3  0  0  0  0  0  0
  -21.8510   -7.4020   21.3640 O   0  0  0  0  0  0  0  0  0  0  0  0
  -21.7400   -6.7120   22.5450 C   0  0  0  0  0  0  0  0  0  0  0  0
  -21.3120   -7.3360   23.7370 C   0  0  0  0  0  3  0  0  0  0  0  0
  -21.1420   -6.5740   24.9090 C   0  0  0  0  0  3  0  0  0  0  0  0
  -21.3920   -5.1890   24.8930 C   0  0  0  0  0  0  0  0  0  0  0  0
  -21.8150   -4.5650   23.7070 C   0  0  0  0  0  3  0  0  0  0  0  0
  -21.9840   -5.3240   22.5350 C   0  0  0  0  0  0  0  0  0  0  0  0
  -22.3690   -4.7120   21.3900 F   0  0  0  0  0  0  0  0  0  0  0  0
  -21.2230   -4.4550   26.0180 F   0  0  0  0  0  0  0  0  0  0  0  0
  -23.2170  -13.9890   20.9220 C   0  0  0  0  0  0  0  0  0  0  0  0
  -22.4720  -13.3460   21.8150 N   0  0  0  0  0  0  0  0  0  0  0  0
  -22.8140  -15.0170   20.3840 O   0  0  0  0  0  0  0  0  0  0  0  0
  -22.8070  -12.5140   22.2770 H   0  0  0  0  0  0  0  0  0  0  0  0
  -21.5500  -13.6940   22.0410 H   0  0  0  0  0  0  0  0  0  0  0  0
  -25.9120  -15.5210   20.0430 N   0  0  0  0  0  0  0  0  0  0  0  0
  -25.1760  -16.2100   20.1480 H   0  0  0  0  0  0  0  0  0  0  0  0
  -26.7620  -15.9060   19.6510 H   0  0  0  0  0  0  0  0  0  0  0  0
  -26.7970  -23.2140   22.0680 C   0  0  0  0  0  2  0  0  0  0  0  0
  -27.9370  -23.9490   22.7780 C   0  0  0  0  0  2  0  0  0  0  0  0
  -28.6360  -24.6970   21.7990 O   0  0  0  0  0  0  0  0  0  0  0  0
  -29.8130  -25.3160   22.2930 C   0  0  0  0  0  2  0  0  0  0  0  0
  -30.4480  -26.1420   21.1630 C   0  0  0  0  0  2  0  0  0  0  0  0
  -29.6010  -27.3600   20.7770 C   0  0  0  0  0  2  0  0  0  0  0  0
  -28.4720  -26.9470   20.0040 O   0  0  0  0  0  0  0  0  0  0  0  0
  -24.5880  -31.9780   23.2380 C   0  0  0  0  0  0  0  0  0  0  0  0
  -27.3140  -27.6920   20.0710 C   0  0  0  0  0  0  0  0  0  0  0  0
  -23.3850  -30.5760   21.5860 C   0  0  0  0  0  3  0  0  0  0  0  0
  -24.8560  -29.0900   20.1250 C   0  0  0  0  0  0  0  0  0  0  0  0
  -25.8880  -31.0130   21.3510 C   0  0  0  0  0  2  0  0  0  0  0  0
  -25.9980  -29.6520   20.7060 C   0  0  0  0  0  0  0  0  0  0  0  0
  -27.2240  -28.9650   20.6780 C   0  0  0  0  0  3  0  0  0  0  0  0
  -26.1590  -27.1440   19.4740 C   0  0  0  0  0  3  0  0  0  0  0  0
  -24.9280  -27.8290   19.5050 C   0  0  0  0  0  3  0  0  0  0  0  0
  -23.5890  -29.9100   20.1960 C   0  0  0  0  0  2  0  0  0  0  0  0
  -24.6390  -31.2010   22.1190 N   0  0  0  0  0  0  0  0  0  0  0  0
  -23.5110  -32.2210   23.7980 O   0  0  0  0  0  0  0  0  0  0  0  0
  -22.7690  -29.5310   22.5410 C   0  0  0  0  0  0  0  0  0  0  0  0
  -21.4470  -29.3310   22.4280 N   0  0  0  0  0  0  0  0  0  0  0  0
  -23.4760  -28.9040   23.3350 O   0  0  0  0  0  0  0  0  0  0  0  0
  -20.9390  -29.8900   21.7570 H   0  0  0  0  0  0  0  0  0  0  0  0
  -18.0990  -28.0780   22.9360 C   0  0  0  0  0  0  0  0  0  0  0  0
  -20.6540  -28.3680   23.1900 C   0  0  0  0  0  3  0  0  0  0  0  0
  -20.7740  -26.9480   22.5890 C   0  0  0  0  0  2  0  0  0  0  0  0
  -19.6670  -26.6260   21.5810 C   0  0  0  0  0  2  0  0  0  0  0  0
  -18.2890  -26.7420   22.2400 C   0  0  0  0  0  2  0  0  0  0  0  0
  -19.2110  -28.8500   23.3690 C   0  0  0  0  0  0  0  0  0  0  0  0
  -18.9790  -30.1010   23.9780 C   0  0  0  0  0  3  0  0  0  0  0  0
  -17.6690  -30.5830   24.1610 C   0  0  0  0  0  3  0  0  0  0  0  0
  -16.5720  -29.8070   23.7460 C   0  0  0  0  0  3  0  0  0  0  0  0
  -16.7890  -28.5570   23.1400 C   0  0  0  0  0  3  0  0  0  0  0  0
  -25.8740  -32.6180   23.8510 C   0  0  0  0  0  3  0  0  0  0  0  0
  -25.5550  -34.0120   24.1880 N   0  0  0  0  0  0  0  0  0  0  0  0
  -25.8770  -35.0690   23.4300 C   0  0  0  0  0  0  0  0  0  0  0  0
  -26.5470  -34.9740   22.3970 O   0  0  0  0  0  0  0  0  0  0  0  0
  -24.9570  -34.1600   24.9880 H   0  0  0  0  0  0  0  0  0  0  0  0
  -24.1280  -36.8430   23.0830 C   0  0  0  0  0  1  0  0  0  0  0  0
  -25.3760  -36.4510   23.8890 C   0  0  0  0  0  3  0  0  0  0  0  0
  -27.5070  -37.3550   24.7100 C   0  0  0  0  0  1  0  0  0  0  0  0
  -26.3990  -37.5140   23.7730 N   0  0  0  0  0  0  0  0  0  0  0  0
  -25.9840  -38.4300   23.9230 H   0  0  0  0  0  0  0  0  0  0  0  0
  -26.4130  -31.8450   25.1170 C   0  0  1  0  0  0  0  0  0  0  0  0
  -25.3320  -31.5890   26.1930 C   0  0  0  0  0  1  0  0  0  0  0  0
  -27.0050  -30.4760   24.7040 C   0  0  0  0  0  1  0  0  0  0  0  0
  -27.5620  -32.6450   25.7720 C   0  0  0  0  0  1  0  0  0  0  0  0
  1 50  1  0
  2  1  1  0
  3  2  1  0
  4  3  1  0
  5  4  1  0
  5  6  1  0
  7  6  1  0
  7  8  1  0
  9  8  1  0
  9 10  1  0
 11 10  1  0
 11 20  1  0
 12 20  1  0
 13 18  1  0
 14 15  1  0
 14 13  1  0
 16 15  1  0
 16 25  1  0
 16 17  1  0
 18 12  1  0
 18 17  1  0
 19 12  2  0
 20 21  1  0
 22 23  2  0
 23 42  1  0
 24 23  1  0
 24 27  1  0
 25 22  1  0
 25 26  1  0
 26 24  2  0
 27 28  1  0
 28 29  2  0
 30 33  1  0
 30 29  1  0
 31 30  2  0
 32 31  1  0
 32 27  2  0
 33 34  1  0
 34 35  1  0
 35 36  2  0
 37 36  1  0
 37 41  1  0
 38 37  2  0
 39 34  2  0
 39 38  1  0
 40 39  1  0
 42 43  1  0
 43 46  1  0
 43 45  1  0
 44 42  2  0
 47 48  1  0
 47 22  1  0
 49 47  1  0
 50 51  1  0
 52 53  1  0
 52 51  1  0
 54 53  1  0
 55 54  1  0
 56 58  1  0
 56 55  1  0
 57 68  2  0
 58 63  1  0
 59 67  1  0
 59 69  1  0
 60 66  1  0
 60 62  1  0
 61 67  1  0
 62 61  1  0
 63 62  2  0
 64 65  1  0
 64 58  2  0
 65 60  2  0
 66 59  1  0
 67 57  1  0
 69 71  2  0
 70 69  1  0
 72 70  1  0
 73 82  2  0
 73 78  1  0
 74 70  1  0
 74 78  1  0
 75 74  1  0
 76 77  1  0
 76 75  1  0
 77 73  1  0
 78 79  2  0
 79 80  1  0
 81 80  2  0
 82 81  1  0
 83 57  1  0
 83 84  1  0
 83 93  1  0
 84 87  1  0
 85 89  1  0
 85 84  1  0
 86 85  2  0
 89 88  1  0
 91 89  1  0
 91 92  1  0
 91 90  1  0
 93 96  1  1
 93 94  1  0
 95 93  1  0
M  ISO  4  12 100  20 100  55 101  56 101
M  END
>  <TORSDO>  (71) 
F 32

>  <SCORE>  (71) 
-9.752

>  <name>  (71) 
73

>  <ligand_id>  (71) 
73

>  <original_smiles>  (71) 
[H]c1c([H])c([H])c2c(c1[H])C([H])([H])C([H])([H])C([H])([H])C2([H])N([H])C(=O)C1([H])N(C(=O)C([H])(N([H])C(=O)C([H])(N([H])C([H])([H])[H])C([H])([H])[H])C(C([H])([H])[H])(C([H])([H])[H])C([H])([H])[H])C([H])([H])c2c([H])c(OC([H])([H])C([H])([H])C([H])([H])OC([H])([H])C([H])([H])C([H])([H])OC([H])([H])C([H])([H])C([H])([H])OC([H])([H])C([H])([H])OC([H])([H])C([H])([H])N([H])C(=O)N3C([H])([H])C([H])([H])C([H])([H])C([H])(n4nc(-c5c([H])c([H])c(Oc6c([H])c([H])c(F)c([H])c6F)c([H])c5[H])c(C(=O)N([H])[H])c4N([H])[H])C3([H])[H])c([H])c([H])c2C1([H])[H]

>  <smiles>  (71) 
[H]c1c([H])c([H])c2c(c1[H])C([H])([H])C([H])([H])C([H])([H])C2([H])N([H])C(=O)C1([H])N(C(=O)C([H])(N([H])C(=O)C([H])(N([H])C([H])([H])[H])C([H])([H])[H])C(C([H])([H])[H])(C([H])([H])[H])C([H])([H])[H])C([H])([H])c2c([H])c(OC([H])([H])C([H])([H])C([H])([H])OC([H])([H])C([H])([H])C([H])([H])OC([H])([H])C([H])([H])C([H])([H])OC([H])([H])C([H])([H])OC([H])([H])C([H])([H])N([H])C(=O)N3C([H])([H])C([H])([H])C([H])([H])C([H])(n4nc(-c5c([H])c([H])c(Oc6c([H])c([H])c(F)c([H])c6F)c([H])c5[H])c(C(=O)N([H])[H])c4N([H])[H])C3([H])[H])c([H])c([H])c2C1([H])[H]

$$$$
74:0:0
     RDKit          3D

 96102  0  0  1  0  0  0  0  0999 V2000
  -24.4530  -19.6710   20.4600 C   0  0  0  0  0  2  0  0  0  0  0  0
  -24.4840  -20.5800   19.3650 O   0  0  0  0  0  0  0  0  0  0  0  0
  -25.0890  -21.8180   19.7120 C   0  0  0  0  0  2  0  0  0  0  0  0
  -24.8810  -22.8370   18.5840 C   0  0  0  0  0  2  0  0  0  0  0  0
  -25.6280  -24.1600   18.8180 C   0  0  0  0  0  2  0  0  0  0  0  0
  -26.9540  -24.0820   18.3060 O   0  0  0  0  0  0  0  0  0  0  0  0
  -27.8740  -24.9290   18.9960 C   0  0  0  0  0  2  0  0  0  0  0  0
  -28.5480  -25.9320   18.0330 C   0  0  0  0  0  2  0  0  0  0  0  0
  -28.3640  -27.2830   18.4560 O   0  0  0  0  0  0  0  0  0  0  0  0
  -24.2130  -31.0420   22.7950 C   0  0  0  0  0  0  0  0  0  0  0  0
  -27.0930  -27.7730   18.6600 C   0  0  0  0  0  0  0  0  0  0  0  0
  -23.0380  -29.8810   20.9510 C   0  0  0  0  0  3  0  0  0  0  0  0
  -24.5390  -28.8820   19.1480 C   0  0  0  0  0  0  0  0  0  0  0  0
  -25.4740  -30.6120   20.6910 C   0  0  0  0  0  2  0  0  0  0  0  0
  -25.6680  -29.4270   19.7700 C   0  0  0  0  0  0  0  0  0  0  0  0
  -26.9430  -28.8750   19.5290 C   0  0  0  0  0  3  0  0  0  0  0  0
  -25.9430  -27.2370   18.0350 C   0  0  0  0  0  3  0  0  0  0  0  0
  -24.6690  -27.7800   18.2850 C   0  0  0  0  0  3  0  0  0  0  0  0
  -23.2080  -29.5330   19.4470 C   0  0  0  0  0  2  0  0  0  0  0  0
  -24.2640  -30.5150   21.5390 N   0  0  0  0  0  0  0  0  0  0  0  0
  -23.1580  -31.0520   23.4440 O   0  0  0  0  0  0  0  0  0  0  0  0
  -22.5920  -28.6060   21.6990 C   0  0  0  0  0  0  0  0  0  0  0  0
  -21.3030  -28.2580   21.5650 N   0  0  0  0  0  0  0  0  0  0  0  0
  -23.3980  -27.9380   22.3520 O   0  0  0  0  0  0  0  0  0  0  0  0
  -20.7040  -28.8670   21.0250 H   0  0  0  0  0  0  0  0  0  0  0  0
  -18.1670  -26.4810   21.8200 C   0  0  0  0  0  0  0  0  0  0  0  0
  -20.6630  -27.0740   22.1400 C   0  0  0  0  0  3  0  0  0  0  0  0
  -20.9630  -25.8110   21.2990 C   0  0  0  0  0  2  0  0  0  0  0  0
  -19.8950  -25.5220   20.2400 C   0  0  0  0  0  2  0  0  0  0  0  0
  -18.5270  -25.3260   20.9000 C   0  0  0  0  0  2  0  0  0  0  0  0
  -19.1690  -27.3100   22.3880 C   0  0  0  0  0  0  0  0  0  0  0  0
  -18.7790  -28.3940   23.2050 C   0  0  0  0  0  3  0  0  0  0  0  0
  -17.4180  -28.6480   23.4620 C   0  0  0  0  0  3  0  0  0  0  0  0
  -16.4320  -27.8110   22.9100 C   0  0  0  0  0  3  0  0  0  0  0  0
  -16.8080  -26.7290   22.0940 C   0  0  0  0  0  3  0  0  0  0  0  0
  -25.4700  -31.6810   23.4680 C   0  0  0  0  0  3  0  0  0  0  0  0
  -25.0760  -33.0020   23.9810 N   0  0  0  0  0  0  0  0  0  0  0  0
  -25.3380  -34.1630   23.3670 C   0  0  0  0  0  0  0  0  0  0  0  0
  -26.0120  -34.2410   22.3360 O   0  0  0  0  0  0  0  0  0  0  0  0
  -24.4770  -33.0100   24.7930 H   0  0  0  0  0  0  0  0  0  0  0  0
  -23.5090  -35.8830   23.2270 C   0  0  0  0  0  1  0  0  0  0  0  0
  -24.7620  -35.4430   23.9990 C   0  0  0  0  0  3  0  0  0  0  0  0
  -26.8310  -36.3340   24.9770 C   0  0  0  0  0  1  0  0  0  0  0  0
  -25.7300  -36.5610   24.0470 N   0  0  0  0  0  0  0  0  0  0  0  0
  -25.2660  -37.4280   24.3070 H   0  0  0  0  0  0  0  0  0  0  0  0
  -26.0830  -30.7920   24.6170 C   0  0  1  0  0  0  0  0  0  0  0  0
  -25.0500  -30.3460   25.6790 C   0  0  0  0  0  1  0  0  0  0  0  0
  -26.7430  -29.5200   24.0310 C   0  0  0  0  0  1  0  0  0  0  0  0
  -27.1980  -31.5760   25.3470 C   0  0  0  0  0  1  0  0  0  0  0  0
  -24.3410  -18.2280   19.9510 C   0  0  0  0  0  2  0  0  0  0  0  0
  -25.6300  -17.7900   19.5420 O   0  0  0  0  0  0  0  0  0  0  0  0
  -25.7620  -16.3770   19.4340 C   0  0  0  0  0  2  0  0  0  0  0  0
  -27.1870  -15.9930   18.9900 C   0  0  0  0  0  1  0  0  0  0  0  0
  -28.1200  -15.9000   20.0690 O   0  0  0  0  0  1  0  0  0  0  0  0
  -28.7420  -17.1380   20.4080 C   0  0  0  0  0  2  0  0  0  0  0  0
  -30.2480  -16.9280   20.6080 C   0  0  0  0  0  2  0  0  0  0  0  0
  -30.4970  -15.8960   21.5560 O   0  0  0  0  0  0  0  0  0  0  0  0
  -31.8480  -15.4450   21.4890 C   0  0  0  0  0  2  0  0  0  0  0  0
  -31.9850  -14.0330   22.0970 C   0  0  0  0  0  2  0  0  0  0  0  0
  -31.1390  -13.1030   21.4310 O   0  0  0  0  0  0  0  0  0  0  0  0
  -31.4830  -12.6120   20.2260 C   0  0  0  0  0  0  0  0  0  0  0  0
  -30.3430  -11.6910   18.2260 C   0  0  0  0  0  2  0  0  0  0  0  0
  -29.4330  -12.7970   17.6540 C   0  0  0  0  0  2  0  0  0  0  0  0
  -28.0520  -12.7840   18.3350 C   0  0  0  0  0  2  0  0  0  0  0  0
  -28.1450  -12.7520   19.8840 C   0  0  0  0  0  3  0  0  0  0  0  0
  -29.1340  -11.6610   20.3470 C   0  0  0  0  0  2  0  0  0  0  0  0
  -30.4190  -11.8940   19.6720 N   0  0  0  0  0  0  0  0  0  0  0  0
  -32.5420  -12.8850   19.6530 O   0  0  0  0  0  0  0  0  0  0  0  0
  -25.9300  -13.5310   20.9340 C   0  0  0  0  0  0  0  0  0  0  0  0
  -24.8240  -12.8440   21.3490 C   0  0  0  0  0  0  0  0  0  0  0  0
  -25.1160  -11.4600   21.1390 C   0  0  0  0  0  0  0  0  0  0  0  0
  -26.8290  -12.5740   20.4900 N   0  0  0  0  0  0  0  0  0  0  0  0
  -26.3470  -11.3160   20.6650 N   0  0  0  0  0  0  0  0  0  0  0  0
  -24.2760  -10.2690   21.3100 C   0  0  0  0  0  0  0  0  0  0  0  0
  -24.6750   -9.2000   22.1390 C   0  0  0  0  0  3  0  0  0  0  0  0
  -23.8420   -8.0720   22.3030 C   0  0  0  0  0  3  0  0  0  0  0  0
  -22.5970   -8.0070   21.6340 C   0  0  0  0  0  0  0  0  0  0  0  0
  -22.2140   -9.0660   20.7920 C   0  0  0  0  0  3  0  0  0  0  0  0
  -23.0460  -10.1860   20.6260 C   0  0  0  0  0  3  0  0  0  0  0  0
  -21.7350   -6.9380   21.7100 O   0  0  0  0  0  0  0  0  0  0  0  0
  -21.5900   -6.2140   22.8650 C   0  0  0  0  0  0  0  0  0  0  0  0
  -21.2730   -6.8320   24.0940 C   0  0  0  0  0  3  0  0  0  0  0  0
  -21.0580   -6.0460   25.2430 C   0  0  0  0  0  3  0  0  0  0  0  0
  -21.1540   -4.6440   25.1650 C   0  0  0  0  0  0  0  0  0  0  0  0
  -21.4650   -4.0250   23.9410 C   0  0  0  0  0  3  0  0  0  0  0  0
  -21.6790   -4.8090   22.7930 C   0  0  0  0  0  0  0  0  0  0  0  0
  -21.9570   -4.2080   21.6110 F   0  0  0  0  0  0  0  0  0  0  0  0
  -20.9400   -3.8870   26.2670 F   0  0  0  0  0  0  0  0  0  0  0  0
  -23.5300  -13.4360   21.8320 C   0  0  0  0  0  0  0  0  0  0  0  0
  -22.8590  -12.7590   22.7550 N   0  0  0  0  0  0  0  0  0  0  0  0
  -23.1320  -14.5270   21.4250 O   0  0  0  0  0  0  0  0  0  0  0  0
  -23.2000  -11.8740   23.1010 H   0  0  0  0  0  0  0  0  0  0  0  0
  -21.9950  -13.1280   23.1230 H   0  0  0  0  0  0  0  0  0  0  0  0
  -26.2430  -14.8840   20.8820 N   0  0  0  0  0  0  0  0  0  0  0  0
  -25.5750  -15.5970   21.1400 H   0  0  0  0  0  0  0  0  0  0  0  0
  -27.0490  -15.2550   20.3940 H   0  0  0  0  0  0  0  0  0  0  0  0
  2  3  1  0
  2  1  1  0
  4  5  1  0
  4  3  1  0
  6  5  1  0
  6  7  1  0
  8  9  1  0
  8  7  1  0
  9 11  1  0
 10 21  2  0
 11 16  1  0
 12 20  1  0
 12 22  1  0
 13 19  1  0
 13 15  1  0
 14 20  1  0
 15 14  1  0
 16 15  2  0
 17 18  1  0
 17 11  2  0
 18 13  2  0
 19 12  1  0
 20 10  1  0
 22 24  2  0
 23 22  1  0
 25 23  1  0
 26 35  2  0
 26 31  1  0
 27 23  1  0
 27 31  1  0
 28 27  1  0
 29 30  1  0
 29 28  1  0
 30 26  1  0
 31 32  2  0
 32 33  1  0
 34 33  2  0
 35 34  1  0
 36 10  1  0
 36 37  1  0
 36 46  1  0
 37 40  1  0
 38 37  1  0
 38 42  1  0
 39 38  2  0
 42 41  1  0
 42 44  1  0
 44 45  1  0
 44 43  1  0
 46 49  1  1
 46 47  1  0
 48 46  1  0
 50  1  1  0
 51 50  1  0
 52 51  1  0
 53 52  1  0
 54 55  1  0
 55 56  1  0
 56 57  1  0
 58 57  1  0
 58 59  1  0
 60 59  1  0
 61 60  1  0
 62 67  1  0
 63 62  1  0
 63 64  1  0
 65 64  1  0
 65 66  1  0
 65 72  1  0
 67 61  1  0
 67 66  1  0
 68 61  2  0
 69 70  2  0
 70 89  1  0
 71 74  1  0
 71 70  1  0
 72 73  1  0
 72 69  1  0
 73 71  2  0
 74 75  1  0
 75 76  2  0
 77 80  1  0
 77 76  1  0
 78 77  2  0
 79 78  1  0
 79 74  2  0
 80 81  1  0
 81 82  1  0
 82 83  2  0
 84 83  1  0
 84 88  1  0
 85 84  2  0
 86 81  2  0
 86 85  1  0
 87 86  1  0
 89 90  1  0
 90 92  1  0
 90 93  1  0
 91 89  2  0
 94 69  1  0
 94 95  1  0
 96 94  1  0
M  ISO  4   8 101   9 101  60 100  61 100
M  END
>  <TORSDO>  (72) 
F 34

>  <SCORE>  (72) 
-0.420

>  <name>  (72) 
74

>  <ligand_id>  (72) 
74

>  <original_smiles>  (72) 
[H]c1c([H])c([H])c2c(c1[H])C([H])([H])C([H])([H])C([H])([H])C2([H])N([H])C(=O)C1([H])N(C(=O)C([H])(N([H])C(=O)C([H])(N([H])C([H])([H])[H])C([H])([H])[H])C(C([H])([H])[H])(C([H])([H])[H])C([H])([H])[H])C([H])([H])c2c([H])c(OC([H])([H])C([H])([H])OC([H])([H])C([H])([H])C([H])([H])OC([H])([H])C([H])([H])OC([H])([H])C([H])([H])OC([H])([H])C([H])([H])OC([H])([H])C([H])([H])OC(=O)N3C([H])([H])C([H])([H])C([H])([H])C([H])(n4nc(-c5c([H])c([H])c(Oc6c([H])c([H])c(F)c([H])c6F)c([H])c5[H])c(C(=O)N([H])[H])c4N([H])[H])C3([H])[H])c([H])c([H])c2C1([H])[H]

>  <smiles>  (72) 
[H]c1c([H])c([H])c2c(c1[H])C([H])([H])C([H])([H])C([H])([H])C2([H])N([H])C(=O)C1([H])N(C(=O)C([H])(N([H])C(=O)C([H])(N([H])C([H])([H])[H])C([H])([H])[H])C(C([H])([H])[H])(C([H])([H])[H])C([H])([H])[H])C([H])([H])c2c([H])c(OC([H])([H])C([H])([H])OC([H])([H])C([H])([H])C([H])([H])OC([H])([H])C([H])([H])OC([H])([H])C([H])([H])OC([H])([H])C([H])([H])OC([H])([H])C([H])([H])OC(=O)N3C([H])([H])C([H])([H])C([H])([H])C([H])(n4nc(-c5c([H])c([H])c(Oc6c([H])c([H])c(F)c([H])c6F)c([H])c5[H])c(C(=O)N([H])[H])c4N([H])[H])C3([H])[H])c([H])c([H])c2C1([H])[H]

$$$$
75:0:0
     RDKit          3D

 96103  0  0  1  0  0  0  0  0999 V2000
  -27.0470  -19.7530   15.7150 C   0  0  0  0  0  2  0  0  0  0  0  0
  -28.3400  -20.5850   15.7920 C   0  0  0  0  0  2  0  0  0  0  0  0
  -28.6630  -20.8540   17.1500 O   0  0  0  0  0  0  0  0  0  0  0  0
  -29.9700  -21.3860   17.3340 C   0  0  0  0  0  2  0  0  0  0  0  0
  -30.1980  -21.6320   18.8420 C   0  0  0  0  0  2  0  0  0  0  0  0
  -30.8390  -22.8850   19.1160 O   0  0  0  0  0  0  0  0  0  0  0  0
  -29.9620  -23.8190   19.7510 C   0  0  0  0  0  2  0  0  0  0  0  0
  -30.6640  -25.1100   20.2410 C   0  0  0  0  0  2  0  0  0  0  0  0
  -30.0740  -25.7790   21.3760 O   0  0  0  0  0  0  0  0  0  0  0  0
  -25.7930  -30.8550   24.0340 C   0  0  0  0  0  0  0  0  0  0  0  0
  -28.9030  -26.5000   21.2140 C   0  0  0  0  0  0  0  0  0  0  0  0
  -24.8560  -29.4920   22.1980 C   0  0  0  0  0  3  0  0  0  0  0  0
  -26.5100  -28.0020   20.9580 C   0  0  0  0  0  0  0  0  0  0  0  0
  -27.3850  -29.8420   22.4050 C   0  0  0  0  0  2  0  0  0  0  0  0
  -27.5660  -28.4950   21.7330 C   0  0  0  0  0  0  0  0  0  0  0  0
  -28.7580  -27.7470   21.8670 C   0  0  0  0  0  3  0  0  0  0  0  0
  -27.8160  -26.0170   20.4460 C   0  0  0  0  0  3  0  0  0  0  0  0
  -26.6340  -26.7610   20.3130 C   0  0  0  0  0  3  0  0  0  0  0  0
  -25.2720  -28.8590   20.8450 C   0  0  0  0  0  2  0  0  0  0  0  0
  -26.0210  -30.0810   22.9350 N   0  0  0  0  0  0  0  0  0  0  0  0
  -24.6420  -31.1140   24.4080 O   0  0  0  0  0  0  0  0  0  0  0  0
  -24.0750  -28.4430   23.0210 C   0  0  0  0  0  0  0  0  0  0  0  0
  -22.8170  -28.1920   22.6240 N   0  0  0  0  0  0  0  0  0  0  0  0
  -24.6050  -27.8590   23.9700 O   0  0  0  0  0  0  0  0  0  0  0  0
  -22.4640  -28.7160   21.8370 H   0  0  0  0  0  0  0  0  0  0  0  0
  -19.4890  -26.7940   22.3870 C   0  0  0  0  0  0  0  0  0  0  0  0
  -21.8980  -27.2220   23.2210 C   0  0  0  0  0  3  0  0  0  0  0  0
  -22.2130  -25.7880   22.7330 C   0  0  0  0  0  2  0  0  0  0  0  0
  -21.3880  -25.3720   21.5110 C   0  0  0  0  0  2  0  0  0  0  0  0
  -19.8910  -25.4400   21.8220 C   0  0  0  0  0  2  0  0  0  0  0  0
  -20.4350  -27.6360   23.0270 C   0  0  0  0  0  0  0  0  0  0  0  0
  -20.0150  -28.8980   23.5020 C   0  0  0  0  0  3  0  0  0  0  0  0
  -18.6800  -29.3170   23.3490 C   0  0  0  0  0  3  0  0  0  0  0  0
  -17.7440  -28.4710   22.7290 C   0  0  0  0  0  3  0  0  0  0  0  0
  -18.1480  -27.2100   22.2530 C   0  0  0  0  0  3  0  0  0  0  0  0
  -26.9680  -31.4690   24.8570 C   0  0  0  0  0  3  0  0  0  0  0  0
  -26.6410  -32.8780   25.1070 N   0  0  0  0  0  0  0  0  0  0  0  0
  -27.1210  -33.9100   24.3980 C   0  0  0  0  0  0  0  0  0  0  0  0
  -27.9560  -33.7740   23.4990 O   0  0  0  0  0  0  0  0  0  0  0  0
  -25.9240  -33.0630   25.7930 H   0  0  0  0  0  0  0  0  0  0  0  0
  -25.5270  -35.7290   23.7140 C   0  0  0  0  0  1  0  0  0  0  0  0
  -26.5910  -35.3150   24.7420 C   0  0  0  0  0  3  0  0  0  0  0  0
  -28.5580  -36.1660   25.9400 C   0  0  0  0  0  1  0  0  0  0  0  0
  -27.6500  -36.3470   24.8100 N   0  0  0  0  0  0  0  0  0  0  0  0
  -27.2440  -37.2760   24.8750 H   0  0  0  0  0  0  0  0  0  0  0  0
  -27.2410  -30.7110   26.2140 C   0  0  1  0  0  0  0  0  0  0  0  0
  -25.9740  -30.4940   27.0750 C   0  0  0  0  0  1  0  0  0  0  0  0
  -27.8700  -29.3250   25.9450 C   0  0  0  0  0  1  0  0  0  0  0  0
  -28.2670  -31.5060   27.0550 C   0  0  0  0  0  1  0  0  0  0  0  0
  -26.9260  -18.7350   16.8560 C   0  0  0  0  0  2  0  0  0  0  0  0
  -28.2380  -18.4100   17.2800 O   0  0  0  0  0  0  0  0  0  0  0  0
  -28.2870  -17.5600   18.4120 C   0  0  0  0  0  2  0  0  0  0  0  0
  -29.7620  -17.2190   18.6260 C   0  0  0  0  0  2  0  0  0  0  0  0
  -30.2960  -17.7110   19.9920 C   0  0  0  0  0  2  0  0  0  0  0  0
  -30.3050  -16.5940   21.0340 C   0  0  0  0  0  0  0  0  0  0  0  0
  -31.3460  -15.7600   20.9860 N   0  0  0  0  0  0  0  0  0  0  0  0
  -29.3710  -16.4560   21.8210 O   0  0  0  0  0  0  0  0  0  0  0  0
  -32.0950  -15.8460   20.3090 H   0  0  0  0  0  0  0  0  0  0  0  0
  -31.7160  -13.5610   20.5440 C   0  0  0  0  0  0  0  0  0  0  0  0
  -30.8810  -12.4670   18.5080 C   0  0  0  0  0  2  0  0  0  0  0  0
  -30.0100  -13.4740   17.7290 C   0  0  0  0  0  2  0  0  0  0  0  0
  -28.5480  -13.4040   18.2130 C   0  0  0  0  0  2  0  0  0  0  0  0
  -28.4270  -13.4730   19.7580 C   0  0  0  0  0  3  0  0  0  0  0  0
  -29.4250  -12.5200   20.4540 C   0  0  0  0  0  2  0  0  0  0  0  0
  -30.7690  -12.8100   19.9300 N   0  0  0  0  0  0  0  0  0  0  0  0
  -32.8600  -13.7170   20.1050 O   0  0  0  0  0  0  0  0  0  0  0  0
  -31.2620  -14.4290   21.4550 N   0  0  0  0  0  0  0  0  0  0  0  0
  -31.8270  -14.4480   22.2940 H   0  0  0  0  0  0  0  0  0  0  0  0
  -26.0340  -14.1570   20.4020 C   0  0  0  0  0  0  0  0  0  0  0  0
  -24.9330  -13.4200   20.7390 C   0  0  0  0  0  0  0  0  0  0  0  0
  -25.3540  -12.0550   20.7190 C   0  0  0  0  0  0  0  0  0  0  0  0
  -27.0570  -13.2440   20.1990 N   0  0  0  0  0  0  0  0  0  0  0  0
  -26.6480  -11.9730   20.4420 N   0  0  0  0  0  0  0  0  0  0  0  0
  -24.5840  -10.8200   20.8870 C   0  0  0  0  0  0  0  0  0  0  0  0
  -24.8810   -9.9030   21.9200 C   0  0  0  0  0  3  0  0  0  0  0  0
  -24.1160   -8.7270   22.0740 C   0  0  0  0  0  3  0  0  0  0  0  0
  -23.0410   -8.4630   21.1920 C   0  0  0  0  0  0  0  0  0  0  0  0
  -22.7640   -9.3670   20.1530 C   0  0  0  0  0  3  0  0  0  0  0  0
  -23.5280  -10.5350   19.9980 C   0  0  0  0  0  3  0  0  0  0  0  0
  -22.2560   -7.3320   21.2500 O   0  0  0  0  0  0  0  0  0  0  0  0
  -21.8400   -6.8040   22.4450 C   0  0  0  0  0  0  0  0  0  0  0  0
  -21.1690   -7.5850   23.4130 C   0  0  0  0  0  3  0  0  0  0  0  0
  -20.6980   -6.9870   24.5970 C   0  0  0  0  0  3  0  0  0  0  0  0
  -20.8860   -5.6090   24.8130 C   0  0  0  0  0  0  0  0  0  0  0  0
  -21.5490   -4.8280   23.8500 C   0  0  0  0  0  3  0  0  0  0  0  0
  -22.0220   -5.4250   22.6670 C   0  0  0  0  0  0  0  0  0  0  0  0
  -22.6420   -4.6640   21.7330 F   0  0  0  0  0  0  0  0  0  0  0  0
  -20.4260   -5.0320   25.9460 F   0  0  0  0  0  0  0  0  0  0  0  0
  -23.5480  -13.9410   20.9780 C   0  0  0  0  0  0  0  0  0  0  0  0
  -22.8220  -13.3380   21.9130 N   0  0  0  0  0  0  0  0  0  0  0  0
  -23.1180  -14.9210   20.3720 O   0  0  0  0  0  0  0  0  0  0  0  0
  -23.1870  -12.5500   22.4270 H   0  0  0  0  0  0  0  0  0  0  0  0
  -21.8900  -13.6680   22.1180 H   0  0  0  0  0  0  0  0  0  0  0  0
  -26.2420  -15.5200   20.2390 N   0  0  0  0  0  0  0  0  0  0  0  0
  -25.4950  -16.1950   20.3760 H   0  0  0  0  0  0  0  0  0  0  0  0
  -27.1460  -15.9620   20.0690 H   0  0  0  0  0  0  0  0  0  0  0  0
  1  2  1  0
  1 50  1  0
  2  3  1  0
  3  4  1  0
  4  5  1  0
  5  6  1  0
  6  7  1  0
  7  8  1  0
  8  9  1  0
 10 21  2  0
 11  9  1  0
 11 16  1  0
 12 20  1  0
 12 22  1  0
 13 15  1  0
 14 20  1  0
 15 16  2  0
 15 14  1  0
 17 11  2  0
 18 17  1  0
 18 13  2  0
 19 13  1  0
 19 12  1  0
 20 10  1  0
 22 24  2  0
 23 22  1  0
 25 23  1  0
 26 31  1  0
 27 23  1  0
 28 27  1  0
 29 30  1  0
 29 28  1  0
 30 26  1  0
 31 27  1  0
 31 32  2  0
 33 32  1  0
 34 33  2  0
 35 26  2  0
 35 34  1  0
 36 10  1  0
 36 37  1  0
 36 46  1  0
 37 40  1  0
 38 42  1  0
 38 37  1  0
 39 38  2  0
 42 41  1  0
 42 44  1  0
 44 45  1  0
 44 43  1  0
 46 49  1  1
 46 47  1  0
 48 46  1  0
 50 51  1  0
 51 52  1  0
 52 53  1  0
 53 54  1  0
 54 55  1  0
 55 57  2  0
 56 55  1  0
 56 67  1  0
 58 56  1  0
 59 67  1  0
 60 65  1  0
 61 62  1  0
 61 60  1  0
 63 62  1  0
 63 72  1  0
 63 64  1  0
 65 64  1  0
 65 59  1  0
 66 59  2  0
 67 68  1  0
 69 70  2  0
 70 89  1  0
 71 70  1  0
 71 74  1  0
 72 69  1  0
 72 73  1  0
 73 71  2  0
 74 75  1  0
 75 76  2  0
 77 80  1  0
 77 76  1  0
 78 77  2  0
 79 78  1  0
 79 74  2  0
 80 81  1  0
 81 86  2  0
 81 82  1  0
 82 83  2  0
 83 84  1  0
 84 88  1  0
 85 84  2  0
 86 85  1  0
 87 86  1  0
 89 90  1  0
 90 93  1  0
 90 92  1  0
 91 89  2  0
 94 95  1  0
 94 69  1  0
 96 94  1  0
M  ISO  4   8 101   9 101  59 100  67 100
M  END
>  <TORSDO>  (73) 
F 29

>  <SCORE>  (73) 
-5.839

>  <name>  (73) 
75

>  <ligand_id>  (73) 
75

>  <original_smiles>  (73) 
[H]c1c([H])c([H])c2c(c1[H])C([H])([H])C([H])([H])C([H])([H])C2([H])N([H])C(=O)C1([H])N(C(=O)C([H])(N([H])C(=O)C([H])(N([H])C([H])([H])[H])C([H])([H])[H])C(C([H])([H])[H])(C([H])([H])[H])C([H])([H])[H])C([H])([H])c2c([H])c(OC([H])([H])C([H])([H])OC([H])([H])C([H])([H])OC([H])([H])C([H])([H])C([H])([H])OC([H])([H])C([H])([H])C([H])([H])C(=O)N([H])N([H])C(=O)N3C([H])([H])C([H])([H])C([H])([H])C([H])(n4nc(-c5c([H])c([H])c(Oc6c([H])c([H])c(F)c([H])c6F)c([H])c5[H])c(C(=O)N([H])[H])c4N([H])[H])C3([H])[H])c([H])c([H])c2C1([H])[H]

>  <smiles>  (73) 
[H]c1c([H])c([H])c2c(c1[H])C([H])([H])C([H])([H])C([H])([H])C2([H])N([H])C(=O)C1([H])N(C(=O)C([H])(N([H])C(=O)C([H])(N([H])C([H])([H])[H])C([H])([H])[H])C(C([H])([H])[H])(C([H])([H])[H])C([H])([H])[H])C([H])([H])c2c([H])c(OC([H])([H])C([H])([H])OC([H])([H])C([H])([H])OC([H])([H])C([H])([H])C([H])([H])OC([H])([H])C([H])([H])C([H])([H])C(=O)N([H])N([H])C(=O)N3C([H])([H])C([H])([H])C([H])([H])C([H])(n4nc(-c5c([H])c([H])c(Oc6c([H])c([H])c(F)c([H])c6F)c([H])c5[H])c(C(=O)N([H])[H])c4N([H])[H])C3([H])[H])c([H])c([H])c2C1([H])[H]

$$$$
76:0:0
     RDKit          3D

 84 91  0  0  1  0  0  0  0  0999 V2000
  -28.0360  -24.2690   20.5090 C   0  0  0  0  0  2  0  0  0  0  0  0
  -28.2220  -25.8810   20.2090 O   0  0  0  0  0  0  0  0  0  0  0  0
  -24.6160  -31.8370   23.1800 C   0  0  0  0  0  0  0  0  0  0  0  0
  -27.1870  -26.9520   20.2070 C   0  0  0  0  0  0  0  0  0  0  0  0
  -23.4240  -30.4230   21.5540 C   0  0  0  0  0  3  0  0  0  0  0  0
  -24.8760  -28.8110   20.1480 C   0  0  0  0  0  0  0  0  0  0  0  0
  -25.9900  -30.6480   21.3990 C   0  0  0  0  0  2  0  0  0  0  0  0
  -26.0650  -29.2330   20.7580 C   0  0  0  0  0  0  0  0  0  0  0  0
  -27.2180  -28.3250   20.7560 C   0  0  0  0  0  3  0  0  0  0  0  0
  -25.9650  -26.6750   19.5560 C   0  0  0  0  0  3  0  0  0  0  0  0
  -24.8500  -27.5530   19.5260 C   0  0  0  0  0  3  0  0  0  0  0  0
  -23.6540  -29.7270   20.1840 C   0  0  0  0  0  2  0  0  0  0  0  0
  -24.6980  -30.9970   22.0980 N   0  0  0  0  0  0  0  0  0  0  0  0
  -23.5260  -32.1260   23.7010 O   0  0  0  0  0  0  0  0  0  0  0  0
  -22.7360  -29.4330   22.5290 C   0  0  0  0  0  0  0  0  0  0  0  0
  -21.4040  -29.2710   22.4160 N   0  0  0  0  0  0  0  0  0  0  0  0
  -23.4070  -28.8080   23.3540 O   0  0  0  0  0  0  0  0  0  0  0  0
  -20.9170  -29.8260   21.7270 H   0  0  0  0  0  0  0  0  0  0  0  0
  -18.0230  -28.0690   22.9520 C   0  0  0  0  0  0  0  0  0  0  0  0
  -20.5850  -28.3390   23.1970 C   0  0  0  0  0  3  0  0  0  0  0  0
  -20.6840  -26.9040   22.6300 C   0  0  0  0  0  2  0  0  0  0  0  0
  -19.5750  -26.5740   21.6240 C   0  0  0  0  0  2  0  0  0  0  0  0
  -18.1970  -26.7180   22.2770 C   0  0  0  0  0  2  0  0  0  0  0  0
  -19.1440  -28.8370   23.3690 C   0  0  0  0  0  0  0  0  0  0  0  0
  -18.9240  -30.0980   23.9630 C   0  0  0  0  0  3  0  0  0  0  0  0
  -17.6200  -30.5940   24.1420 C   0  0  0  0  0  3  0  0  0  0  0  0
  -16.5140  -29.8250   23.7380 C   0  0  0  0  0  3  0  0  0  0  0  0
  -16.7170  -28.5640   23.1490 C   0  0  0  0  0  3  0  0  0  0  0  0
  -25.8860  -32.4890   23.8060 C   0  0  0  0  0  3  0  0  0  0  0  0
  -26.4090  -31.7230   25.0840 C   0  0  1  0  0  0  0  0  0  0  0  0
  -25.3200  -31.4800   26.1550 C   0  0  0  0  0  1  0  0  0  0  0  0
  -27.0000  -30.3470   24.6990 C   0  0  0  0  0  1  0  0  0  0  0  0
  -27.5570  -32.5240   25.7410 C   0  0  0  0  0  1  0  0  0  0  0  0
  -25.5550  -33.8830   24.1530 N   0  0  0  0  0  0  0  0  0  0  0  0
  -25.8660  -34.9530   23.4100 C   0  0  0  0  0  0  0  0  0  0  0  0
  -26.5250  -34.8730   22.3700 O   0  0  0  0  0  0  0  0  0  0  0  0
  -24.9660  -34.0180   24.9610 H   0  0  0  0  0  0  0  0  0  0  0  0
  -24.1090  -36.7340   23.1180 C   0  0  0  0  0  1  0  0  0  0  0  0
  -25.3720  -36.3320   23.8960 C   0  0  0  0  0  3  0  0  0  0  0  0
  -27.5150  -37.2360   24.6870 C   0  0  0  0  0  1  0  0  0  0  0  0
  -26.3890  -37.4000   23.7720 N   0  0  0  0  0  0  0  0  0  0  0  0
  -25.9750  -38.3130   23.9390 H   0  0  0  0  0  0  0  0  0  0  0  0
  -28.7190  -22.6990   19.9240 C   0  0  0  0  0  2  0  0  0  0  0  0
  -28.9900  -21.2170   20.5850 O   0  0  0  0  0  0  0  0  0  0  0  0
  -29.0780  -19.6810   19.9990 C   0  0  0  0  0  2  0  0  0  0  0  0
  -29.8810  -18.1670   20.5600 C   0  0  0  0  0  2  0  0  0  0  0  0
  -30.3820  -15.2640   20.2540 C   0  0  0  0  0  0  0  0  0  0  0  0
  -30.3490  -12.8260   19.3660 C   0  0  0  0  0  2  0  0  0  0  0  0
  -29.4210  -12.6110   18.1440 C   0  0  0  0  0  2  0  0  0  0  0  0
  -27.9740  -12.3490   18.5940 C   0  0  0  0  0  2  0  0  0  0  0  0
  -27.5290  -13.3180   19.7180 C   0  0  0  0  0  3  0  0  0  0  0  0
  -28.5830  -13.4670   20.8330 C   0  0  0  0  0  2  0  0  0  0  0  0
  -29.8060  -13.9670   20.1860 N   0  0  0  0  0  0  0  0  0  0  0  0
  -31.6080  -15.2630   20.0800 O   0  0  0  0  0  0  0  0  0  0  0  0
  -29.6180  -16.5330   20.3180 N   0  0  0  0  0  0  0  0  0  0  0  0
  -28.6290  -16.3280   20.3210 H   0  0  0  0  0  0  0  0  0  0  0  0
  -25.1610  -13.8840   20.4750 C   0  0  0  0  0  0  0  0  0  0  0  0
  -24.0990  -13.1090   20.8510 C   0  0  0  0  0  0  0  0  0  0  0  0
  -24.5680  -11.7590   20.8280 C   0  0  0  0  0  0  0  0  0  0  0  0
  -26.2030  -13.0060   20.2350 N   0  0  0  0  0  0  0  0  0  0  0  0
  -25.8590  -11.7220   20.5170 N   0  0  0  0  0  0  0  0  0  0  0  0
  -23.8400  -10.4970   21.0260 C   0  0  0  0  0  0  0  0  0  0  0  0
  -24.2820   -9.5240   21.9500 C   0  0  0  0  0  3  0  0  0  0  0  0
  -23.5520   -8.3310   22.1370 C   0  0  0  0  0  3  0  0  0  0  0  0
  -22.3660   -8.1010   21.4000 C   0  0  0  0  0  0  0  0  0  0  0  0
  -21.9430   -9.0620   20.4650 C   0  0  0  0  0  3  0  0  0  0  0  0
  -22.6730  -10.2470   20.2760 C   0  0  0  0  0  3  0  0  0  0  0  0
  -21.6060   -6.9600   21.4960 O   0  0  0  0  0  0  0  0  0  0  0  0
  -21.5890   -6.2020   22.6400 C   0  0  0  0  0  0  0  0  0  0  0  0
  -21.2240   -6.7480   23.8900 C   0  0  0  0  0  3  0  0  0  0  0  0
  -21.1520   -5.9180   25.0260 C   0  0  0  0  0  3  0  0  0  0  0  0
  -21.4340   -4.5440   24.9150 C   0  0  0  0  0  0  0  0  0  0  0  0
  -21.7920   -3.9970   23.6700 C   0  0  0  0  0  3  0  0  0  0  0  0
  -21.8660   -4.8250   22.5350 C   0  0  0  0  0  0  0  0  0  0  0  0
  -22.1910   -4.2890   21.3340 F   0  0  0  0  0  0  0  0  0  0  0  0
  -21.3580   -3.7440   26.0040 F   0  0  0  0  0  0  0  0  0  0  0  0
  -22.7020  -13.5880   21.1150 C   0  0  0  0  0  0  0  0  0  0  0  0
  -21.9740  -12.9020   21.9880 N   0  0  0  0  0  0  0  0  0  0  0  0
  -22.2660  -14.6070   20.5800 O   0  0  0  0  0  0  0  0  0  0  0  0
  -22.3410  -12.0790   22.4420 H   0  0  0  0  0  0  0  0  0  0  0  0
  -21.0360  -13.2060   22.2080 H   0  0  0  0  0  0  0  0  0  0  0  0
  -25.3200  -15.2530   20.2870 N   0  0  0  0  0  0  0  0  0  0  0  0
  -24.5470  -15.9020   20.3920 H   0  0  0  0  0  0  0  0  0  0  0  0
  -26.1550  -15.6900   19.9190 H   0  0  0  0  0  0  0  0  0  0  0  0
  2  1  1  0
  3 14  2  0
  4  2  1  0
  4  9  1  0
  5 13  1  0
  5 15  1  0
  6 12  1  0
  6  8  1  0
  7 13  1  0
  8  7  1  0
  9  8  2  0
 10  4  2  0
 11 10  1  0
 11  6  2  0
 12  5  1  0
 13  3  1  0
 15 17  2  0
 16 15  1  0
 18 16  1  0
 19 28  2  0
 19 24  1  0
 20 16  1  0
 20 24  1  0
 21 20  1  0
 22 23  1  0
 22 21  1  0
 23 19  1  0
 24 25  2  0
 25 26  1  0
 27 26  2  0
 28 27  1  0
 29  3  1  0
 29 34  1  0
 29 30  1  0
 30 33  1  1
 30 31  1  0
 32 30  1  0
 34 37  1  0
 35 39  1  0
 35 34  1  0
 36 35  2  0
 39 38  1  0
 41 39  1  0
 41 42  1  0
 41 40  1  0
 43  1  1  0
 43 44  1  0
 45 46  1  0
 45 44  1  0
 47 55  1  0
 48 53  1  0
 49 50  1  0
 49 48  1  0
 51 50  1  0
 51 60  1  0
 51 52  1  0
 53 47  1  0
 53 52  1  0
 54 47  2  0
 55 56  1  0
 55 46  1  0
 57 58  2  0
 58 77  1  0
 59 58  1  0
 59 62  1  0
 60 57  1  0
 60 61  1  0
 61 59  2  0
 62 63  1  0
 63 64  2  0
 65 68  1  0
 65 64  1  0
 66 65  2  0
 67 66  1  0
 67 62  2  0
 68 69  1  0
 69 70  1  0
 70 71  2  0
 72 71  1  0
 72 76  1  0
 73 72  2  0
 74 69  2  0
 74 73  1  0
 75 74  1  0
 77 78  1  0
 78 81  1  0
 78 80  1  0
 79 77  2  0
 82 83  1  0
 82 57  1  0
 84 82  1  0
M  ISO  4   1 101   2 101  47 100  55 100
M  END
>  <TORSDO>  (74) 
F 20

>  <SCORE>  (74) 
-15.761

>  <name>  (74) 
76

>  <ligand_id>  (74) 
76

>  <original_smiles>  (74) 
[H]c1c([H])c([H])c2c(c1[H])C([H])([H])C([H])([H])C([H])([H])C2([H])N([H])C(=O)C1([H])N(C(=O)C([H])(N([H])C(=O)C([H])(N([H])C([H])([H])[H])C([H])([H])[H])C(C([H])([H])[H])(C([H])([H])[H])C([H])([H])[H])C([H])([H])c2c([H])c(OC([H])([H])C([H])([H])OC([H])([H])C([H])([H])N([H])C(=O)N3C([H])([H])C([H])([H])C([H])([H])C([H])(n4nc(-c5c([H])c([H])c(Oc6c([H])c([H])c(F)c([H])c6F)c([H])c5[H])c(C(=O)N([H])[H])c4N([H])[H])C3([H])[H])c([H])c([H])c2C1([H])[H]

>  <smiles>  (74) 
[H]c1c([H])c([H])c2c(c1[H])C([H])([H])C([H])([H])C([H])([H])C2([H])N([H])C(=O)C1([H])N(C(=O)C([H])(N([H])C(=O)C([H])(N([H])C([H])([H])[H])C([H])([H])[H])C(C([H])([H])[H])(C([H])([H])[H])C([H])([H])[H])C([H])([H])c2c([H])c(OC([H])([H])C([H])([H])OC([H])([H])C([H])([H])N([H])C(=O)N3C([H])([H])C([H])([H])C([H])([H])C([H])(n4nc(-c5c([H])c([H])c(Oc6c([H])c([H])c(F)c([H])c6F)c([H])c5[H])c(C(=O)N([H])[H])c4N([H])[H])C3([H])[H])c([H])c([H])c2C1([H])[H]

$$$$
77:0:0
     RDKit          3D

 88 95  0  0  1  0  0  0  0  0999 V2000
  -30.5360  -22.4340   20.8370 C   0  0  0  0  0  2  0  0  0  0  0  0
  -30.7560  -21.1380   20.0300 C   0  0  0  0  0  2  0  0  0  0  0  0
  -30.0460  -20.0080   20.5440 O   0  0  0  0  0  0  0  0  0  0  0  0
  -30.0950  -18.9170   19.6260 C   0  0  0  0  0  2  0  0  0  0  0  0
  -29.4910  -17.6060   20.1730 C   0  0  0  0  0  2  0  0  0  0  0  0
  -30.3670  -16.8330   21.1870 C   0  0  0  0  0  2  0  0  0  0  0  0
  -30.6640  -14.4330   20.5430 C   0  0  0  0  0  0  0  0  0  0  0  0
  -30.3310  -12.3090   19.3390 C   0  0  0  0  0  2  0  0  0  0  0  0
  -29.3820  -12.5460   18.1470 C   0  0  0  0  0  2  0  0  0  0  0  0
  -27.9090  -12.4200   18.5820 C   0  0  0  0  0  2  0  0  0  0  0  0
  -27.5910  -13.2410   19.8600 C   0  0  0  0  0  3  0  0  0  0  0  0
  -28.6470  -12.9760   20.9580 C   0  0  0  0  0  2  0  0  0  0  0  0
  -29.9770  -13.2690   20.3970 N   0  0  0  0  0  0  0  0  0  0  0  0
  -31.7530  -14.6440   20.0010 O   0  0  0  0  0  0  0  0  0  0  0  0
  -30.0160  -15.4050   21.2070 N   0  0  0  0  0  0  0  0  0  0  0  0
  -29.1390  -15.1490   21.6360 H   0  0  0  0  0  0  0  0  0  0  0  0
  -25.1960  -13.8710   20.5660 C   0  0  0  0  0  0  0  0  0  0  0  0
  -24.1220  -13.1070   20.9370 C   0  0  0  0  0  0  0  0  0  0  0  0
  -24.5720  -11.7510   20.9060 C   0  0  0  0  0  0  0  0  0  0  0  0
  -26.2350  -12.9810   20.3380 N   0  0  0  0  0  0  0  0  0  0  0  0
  -25.8610  -11.7020   20.5960 N   0  0  0  0  0  0  0  0  0  0  0  0
  -23.8360  -10.4960   21.0990 C   0  0  0  0  0  0  0  0  0  0  0  0
  -24.2860   -9.5120   22.0070 C   0  0  0  0  0  3  0  0  0  0  0  0
  -23.5540   -8.3190   22.1880 C   0  0  0  0  0  3  0  0  0  0  0  0
  -22.3580   -8.1030   21.4620 C   0  0  0  0  0  0  0  0  0  0  0  0
  -21.9280   -9.0750   20.5440 C   0  0  0  0  0  3  0  0  0  0  0  0
  -22.6590  -10.2600   20.3610 C   0  0  0  0  0  3  0  0  0  0  0  0
  -21.5940   -6.9650   21.5560 O   0  0  0  0  0  0  0  0  0  0  0  0
  -21.5920   -6.1890   22.6880 C   0  0  0  0  0  0  0  0  0  0  0  0
  -21.2570   -6.7180   23.9530 C   0  0  0  0  0  3  0  0  0  0  0  0
  -21.2000   -5.8700   25.0780 C   0  0  0  0  0  3  0  0  0  0  0  0
  -21.4670   -4.4960   24.9390 C   0  0  0  0  0  0  0  0  0  0  0  0
  -21.7940   -3.9660   23.6780 C   0  0  0  0  0  3  0  0  0  0  0  0
  -21.8540   -4.8100   22.5560 C   0  0  0  0  0  0  0  0  0  0  0  0
  -22.1490   -4.2910   21.3400 F   0  0  0  0  0  0  0  0  0  0  0  0
  -21.4030   -3.6800   26.0170 F   0  0  0  0  0  0  0  0  0  0  0  0
  -22.7290  -13.5950   21.2130 C   0  0  0  0  0  0  0  0  0  0  0  0
  -22.0000  -12.9070   22.0850 N   0  0  0  0  0  0  0  0  0  0  0  0
  -22.2960  -14.6210   20.6910 O   0  0  0  0  0  0  0  0  0  0  0  0
  -22.3640  -12.0790   22.5310 H   0  0  0  0  0  0  0  0  0  0  0  0
  -21.0640  -13.2150   22.3100 H   0  0  0  0  0  0  0  0  0  0  0  0
  -25.3730  -15.2390   20.3870 N   0  0  0  0  0  0  0  0  0  0  0  0
  -24.6120  -15.9010   20.4980 H   0  0  0  0  0  0  0  0  0  0  0  0
  -26.2300  -15.6710   20.0650 H   0  0  0  0  0  0  0  0  0  0  0  0
  -29.4510  -23.1800   20.2830 O   0  0  0  0  0  0  0  0  0  0  0  0
  -29.5270  -24.5820   20.5500 C   0  0  0  0  0  2  0  0  0  0  0  0
  -28.2780  -25.2910   19.9950 C   0  0  0  0  0  2  0  0  0  0  0  0
  -28.3690  -26.7110   20.1540 O   0  0  0  0  0  0  0  0  0  0  0  0
  -24.5800  -31.8770   23.2220 C   0  0  0  0  0  0  0  0  0  0  0  0
  -27.1870  -27.4270   20.1300 C   0  0  0  0  0  0  0  0  0  0  0  0
  -23.3530  -30.4720   21.5980 C   0  0  0  0  0  3  0  0  0  0  0  0
  -24.7890  -28.9330   20.1600 C   0  0  0  0  0  0  0  0  0  0  0  0
  -25.8780  -30.8290   21.3710 C   0  0  0  0  0  2  0  0  0  0  0  0
  -25.9540  -29.4570   20.7330 C   0  0  0  0  0  0  0  0  0  0  0  0
  -27.1540  -28.7130   20.7140 C   0  0  0  0  0  3  0  0  0  0  0  0
  -26.0040  -26.9180   19.5450 C   0  0  0  0  0  3  0  0  0  0  0  0
  -24.8090  -27.6610   19.5640 C   0  0  0  0  0  3  0  0  0  0  0  0
  -23.5460  -29.7910   20.2180 C   0  0  0  0  0  2  0  0  0  0  0  0
  -24.6220  -31.0740   22.1220 N   0  0  0  0  0  0  0  0  0  0  0  0
  -23.5050  -32.1510   23.7730 O   0  0  0  0  0  0  0  0  0  0  0  0
  -22.7140  -29.4520   22.5680 C   0  0  0  0  0  0  0  0  0  0  0  0
  -21.3880  -29.2690   22.4550 N   0  0  0  0  0  0  0  0  0  0  0  0
  -23.4060  -28.8290   23.3760 O   0  0  0  0  0  0  0  0  0  0  0  0
  -20.8910  -29.8250   21.7720 H   0  0  0  0  0  0  0  0  0  0  0  0
  -18.0190  -28.0700   22.9750 C   0  0  0  0  0  0  0  0  0  0  0  0
  -20.5770  -28.3350   23.2350 C   0  0  0  0  0  3  0  0  0  0  0  0
  -20.6820  -26.9000   22.6700 C   0  0  0  0  0  2  0  0  0  0  0  0
  -19.5780  -26.5670   21.6620 C   0  0  0  0  0  2  0  0  0  0  0  0
  -18.1970  -26.7150   22.3110 C   0  0  0  0  0  2  0  0  0  0  0  0
  -19.1380  -28.8380   23.3950 C   0  0  0  0  0  0  0  0  0  0  0  0
  -18.9210  -30.1060   23.9740 C   0  0  0  0  0  3  0  0  0  0  0  0
  -17.6160  -30.6080   24.1410 C   0  0  0  0  0  3  0  0  0  0  0  0
  -16.5110  -29.8380   23.7400 C   0  0  0  0  0  3  0  0  0  0  0  0
  -16.7130  -28.5710   23.1620 C   0  0  0  0  0  3  0  0  0  0  0  0
  -25.8730  -32.5100   23.8250 C   0  0  0  0  0  3  0  0  0  0  0  0
  -26.4160  -31.7300   25.0850 C   0  0  1  0  0  0  0  0  0  0  0  0
  -25.3460  -31.4820   26.1730 C   0  0  0  0  0  1  0  0  0  0  0  0
  -26.9950  -30.3580   24.6690 C   0  0  0  0  0  1  0  0  0  0  0  0
  -27.5760  -32.5240   25.7310 C   0  0  0  0  0  1  0  0  0  0  0  0
  -25.5650  -33.9030   24.1680 N   0  0  0  0  0  0  0  0  0  0  0  0
  -25.8810  -34.9600   23.4090 C   0  0  0  0  0  0  0  0  0  0  0  0
  -26.5340  -34.8640   22.3660 O   0  0  0  0  0  0  0  0  0  0  0  0
  -24.9850  -34.0520   24.9810 H   0  0  0  0  0  0  0  0  0  0  0  0
  -24.1340  -36.7440   23.0980 C   0  0  0  0  0  1  0  0  0  0  0  0
  -25.3950  -36.3440   23.8820 C   0  0  0  0  0  3  0  0  0  0  0  0
  -27.5430  -37.2340   24.6680 C   0  0  0  0  0  1  0  0  0  0  0  0
  -26.4180  -37.4040   23.7530 N   0  0  0  0  0  0  0  0  0  0  0  0
  -26.0100  -38.3200   23.9190 H   0  0  0  0  0  0  0  0  0  0  0  0
  2  3  1  0
  2  1  1  0
  4  5  1  0
  4  3  1  0
  5  6  1  0
  6 15  1  0
  7 15  1  0
  8 13  1  0
  9 10  1  0
  9  8  1  0
 11 10  1  0
 11 20  1  0
 11 12  1  0
 13  7  1  0
 13 12  1  0
 14  7  2  0
 15 16  1  0
 17 18  2  0
 18 37  1  0
 19 18  1  0
 19 22  1  0
 20 17  1  0
 20 21  1  0
 21 19  2  0
 22 23  1  0
 23 24  2  0
 25 28  1  0
 25 24  1  0
 26 25  2  0
 27 26  1  0
 27 22  2  0
 28 29  1  0
 29 30  1  0
 30 31  2  0
 32 31  1  0
 32 36  1  0
 33 32  2  0
 34 29  2  0
 34 33  1  0
 35 34  1  0
 37 38  1  0
 38 41  1  0
 38 40  1  0
 39 37  2  0
 42 43  1  0
 42 17  1  0
 44 42  1  0
 45 46  1  0
 45  1  1  0
 47 48  1  0
 47 46  1  0
 49 60  2  0
 50 48  1  0
 50 55  1  0
 51 59  1  0
 51 61  1  0
 52 58  1  0
 52 54  1  0
 53 59  1  0
 54 53  1  0
 55 54  2  0
 56 57  1  0
 56 50  2  0
 57 52  2  0
 58 51  1  0
 59 49  1  0
 61 63  2  0
 62 61  1  0
 64 62  1  0
 65 74  2  0
 65 70  1  0
 66 62  1  0
 66 70  1  0
 67 66  1  0
 68 69  1  0
 68 67  1  0
 69 65  1  0
 70 71  2  0
 71 72  1  0
 73 72  2  0
 74 73  1  0
 75 49  1  0
 75 80  1  0
 75 76  1  0
 76 79  1  1
 76 77  1  0
 78 76  1  0
 80 83  1  0
 81 85  1  0
 81 80  1  0
 82 81  2  0
 85 84  1  0
 87 85  1  0
 87 88  1  0
 87 86  1  0
M  ISO  4   7 100  15 100  47 101  48 101
M  END
>  <TORSDO>  (75) 
F 24

>  <SCORE>  (75) 
-12.331

>  <name>  (75) 
77

>  <ligand_id>  (75) 
77

>  <original_smiles>  (75) 
[H]c1c([H])c([H])c2c(c1[H])C([H])([H])C([H])([H])C([H])([H])C2([H])N([H])C(=O)C1([H])N(C(=O)C([H])(N([H])C(=O)C([H])(N([H])C([H])([H])[H])C([H])([H])[H])C(C([H])([H])[H])(C([H])([H])[H])C([H])([H])[H])C([H])([H])c2c([H])c(OC([H])([H])C([H])([H])OC([H])([H])C([H])([H])OC([H])([H])C([H])([H])C([H])([H])N([H])C(=O)N3C([H])([H])C([H])([H])C([H])([H])C([H])(n4nc(-c5c([H])c([H])c(Oc6c([H])c([H])c(F)c([H])c6F)c([H])c5[H])c(C(=O)N([H])[H])c4N([H])[H])C3([H])[H])c([H])c([H])c2C1([H])[H]

>  <smiles>  (75) 
[H]c1c([H])c([H])c2c(c1[H])C([H])([H])C([H])([H])C([H])([H])C2([H])N([H])C(=O)C1([H])N(C(=O)C([H])(N([H])C(=O)C([H])(N([H])C([H])([H])[H])C([H])([H])[H])C(C([H])([H])[H])(C([H])([H])[H])C([H])([H])[H])C([H])([H])c2c([H])c(OC([H])([H])C([H])([H])OC([H])([H])C([H])([H])OC([H])([H])C([H])([H])C([H])([H])N([H])C(=O)N3C([H])([H])C([H])([H])C([H])([H])C([H])(n4nc(-c5c([H])c([H])c(Oc6c([H])c([H])c(F)c([H])c6F)c([H])c5[H])c(C(=O)N([H])[H])c4N([H])[H])C3([H])[H])c([H])c([H])c2C1([H])[H]

$$$$
78:0:0
     RDKit          3D

 91 99  0  0  1  0  0  0  0  0999 V2000
  -28.5420  -22.7010   19.3680 C   0  0  0  0  0  2  0  0  0  0  0  0
  -30.2180  -19.7210   21.3950 C   0  0  0  0  0  3  0  0  0  0  0  0
  -28.9490  -18.7850   19.5840 C   0  0  0  0  0  3  0  0  0  0  0  0
  -29.8010  -21.0450   21.0440 C   0  0  0  0  0  3  0  0  0  0  0  0
  -28.5350  -20.1100   19.2350 C   0  0  0  0  0  3  0  0  0  0  0  0
  -29.8320  -18.5530   20.6700 C   0  0  0  0  0  0  0  0  0  0  0  0
  -28.9580  -21.2820   19.9310 C   0  0  0  0  0  0  0  0  0  0  0  0
  -30.4730  -17.1570   21.0510 C   0  0  0  0  0  2  0  0  0  0  0  0
  -30.6590  -14.6910   20.3180 C   0  0  0  0  0  0  0  0  0  0  0  0
  -30.4180  -12.4560   19.2430 C   0  0  0  0  0  2  0  0  0  0  0  0
  -29.4680  -12.5750   18.0330 C   0  0  0  0  0  2  0  0  0  0  0  0
  -27.9990  -12.4140   18.4710 C   0  0  0  0  0  2  0  0  0  0  0  0
  -27.6490  -13.2720   19.7180 C   0  0  0  0  0  3  0  0  0  0  0  0
  -28.7190  -13.1400   20.8210 C   0  0  0  0  0  2  0  0  0  0  0  0
  -30.0100  -13.4880   20.2180 N   0  0  0  0  0  0  0  0  0  0  0  0
  -31.8370  -14.7970   19.9660 O   0  0  0  0  0  0  0  0  0  0  0  0
  -29.9260  -15.8040   20.6610 N   0  0  0  0  0  0  0  0  0  0  0  0
  -28.9470  -15.6510   20.8480 H   0  0  0  0  0  0  0  0  0  0  0  0
  -25.2670  -13.8600   20.4670 C   0  0  0  0  0  0  0  0  0  0  0  0
  -24.2070  -13.0840   20.8500 C   0  0  0  0  0  0  0  0  0  0  0  0
  -24.6740  -11.7330   20.8160 C   0  0  0  0  0  0  0  0  0  0  0  0
  -26.3100  -12.9830   20.2210 N   0  0  0  0  0  0  0  0  0  0  0  0
  -25.9600  -11.6990   20.4920 N   0  0  0  0  0  0  0  0  0  0  0  0
  -23.9520  -10.4690   21.0140 C   0  0  0  0  0  0  0  0  0  0  0  0
  -24.3960   -9.5030   21.9440 C   0  0  0  0  0  3  0  0  0  0  0  0
  -23.6740   -8.3040   22.1300 C   0  0  0  0  0  3  0  0  0  0  0  0
  -22.4940   -8.0640   21.3860 C   0  0  0  0  0  0  0  0  0  0  0  0
  -22.0700   -9.0190   20.4460 C   0  0  0  0  0  3  0  0  0  0  0  0
  -22.7910  -10.2090   20.2570 C   0  0  0  0  0  3  0  0  0  0  0  0
  -21.7420   -6.9180   21.4820 O   0  0  0  0  0  0  0  0  0  0  0  0
  -21.7050   -6.1760   22.6350 C   0  0  0  0  0  0  0  0  0  0  0  0
  -21.2730   -6.7270   23.8620 C   0  0  0  0  0  3  0  0  0  0  0  0
  -21.1830   -5.9120   25.0070 C   0  0  0  0  0  3  0  0  0  0  0  0
  -21.5150   -4.5460   24.9270 C   0  0  0  0  0  0  0  0  0  0  0  0
  -21.9410   -3.9940   23.7060 C   0  0  0  0  0  3  0  0  0  0  0  0
  -22.0320   -4.8070   22.5630 C   0  0  0  0  0  0  0  0  0  0  0  0
  -22.4230   -4.2660   21.3830 F   0  0  0  0  0  0  0  0  0  0  0  0
  -21.4220   -3.7600   26.0250 F   0  0  0  0  0  0  0  0  0  0  0  0
  -22.8130  -13.5570   21.1360 C   0  0  0  0  0  0  0  0  0  0  0  0
  -22.0940  -12.8580   22.0070 N   0  0  0  0  0  0  0  0  0  0  0  0
  -22.3670  -14.5830   20.6200 O   0  0  0  0  0  0  0  0  0  0  0  0
  -22.4680  -12.0300   22.4460 H   0  0  0  0  0  0  0  0  0  0  0  0
  -21.1570  -13.1560   22.2400 H   0  0  0  0  0  0  0  0  0  0  0  0
  -25.4250  -15.2320   20.2880 N   0  0  0  0  0  0  0  0  0  0  0  0
  -24.6510  -15.8780   20.3920 H   0  0  0  0  0  0  0  0  0  0  0  0
  -26.2570  -15.6710   19.9200 H   0  0  0  0  0  0  0  0  0  0  0  0
  -28.3930  -25.2540   19.4220 C   0  0  0  0  0  0  0  0  0  0  0  0
  -28.6180  -24.0210   20.1040 N   0  0  0  0  0  0  0  0  0  0  0  0
  -28.2580  -25.3220   18.1980 O   0  0  0  0  0  0  0  0  0  0  0  0
  -28.6570  -24.0530   21.1140 H   0  0  0  0  0  0  0  0  0  0  0  0
  -28.2630  -26.4130   20.2570 O   0  0  0  0  0  0  0  0  0  0  0  0
  -24.5910  -31.8880   23.2320 C   0  0  0  0  0  0  0  0  0  0  0  0
  -27.1820  -27.3160   20.1540 C   0  0  0  0  0  0  0  0  0  0  0  0
  -23.3840  -30.4980   21.5910 C   0  0  0  0  0  3  0  0  0  0  0  0
  -24.8290  -28.9570   20.1530 C   0  0  0  0  0  0  0  0  0  0  0  0
  -25.9280  -30.8070   21.4080 C   0  0  0  0  0  2  0  0  0  0  0  0
  -26.0040  -29.4310   20.7530 C   0  0  0  0  0  0  0  0  0  0  0  0
  -27.1820  -28.6210   20.7480 C   0  0  0  0  0  3  0  0  0  0  0  0
  -25.9740  -26.9030   19.5400 C   0  0  0  0  0  3  0  0  0  0  0  0
  -24.8170  -27.6990   19.5400 C   0  0  0  0  0  3  0  0  0  0  0  0
  -23.5980  -29.8360   20.2060 C   0  0  0  0  0  2  0  0  0  0  0  0
  -24.6550  -31.0800   22.1330 N   0  0  0  0  0  0  0  0  0  0  0  0
  -23.5060  -32.1660   23.7640 O   0  0  0  0  0  0  0  0  0  0  0  0
  -22.7210  -29.4750   22.5450 C   0  0  0  0  0  0  0  0  0  0  0  0
  -21.3930  -29.2980   22.4170 N   0  0  0  0  0  0  0  0  0  0  0  0
  -23.3990  -28.8460   23.3600 O   0  0  0  0  0  0  0  0  0  0  0  0
  -20.9060  -29.8570   21.7310 H   0  0  0  0  0  0  0  0  0  0  0  0
  -18.0140  -28.1090   22.9240 C   0  0  0  0  0  0  0  0  0  0  0  0
  -20.5750  -28.3610   23.1890 C   0  0  0  0  0  3  0  0  0  0  0  0
  -20.6720  -26.9310   22.6100 C   0  0  0  0  0  2  0  0  0  0  0  0
  -19.5670  -26.6120   21.5980 C   0  0  0  0  0  2  0  0  0  0  0  0
  -18.1860  -26.7600   22.2450 C   0  0  0  0  0  2  0  0  0  0  0  0
  -19.1360  -28.8680   23.3530 C   0  0  0  0  0  0  0  0  0  0  0  0
  -18.9210  -30.1290   23.9500 C   0  0  0  0  0  3  0  0  0  0  0  0
  -17.6180  -30.6340   24.1180 C   0  0  0  0  0  3  0  0  0  0  0  0
  -16.5120  -29.8730   23.7030 C   0  0  0  0  0  3  0  0  0  0  0  0
  -16.7100  -28.6120   23.1140 C   0  0  0  0  0  3  0  0  0  0  0  0
  -25.8730  -32.5190   23.8540 C   0  0  0  0  0  3  0  0  0  0  0  0
  -26.3870  -31.7460   25.1300 C   0  0  1  0  0  0  0  0  0  0  0  0
  -25.2910  -31.5070   26.1960 C   0  0  0  0  0  1  0  0  0  0  0  0
  -26.9700  -30.3690   24.7380 C   0  0  0  0  0  1  0  0  0  0  0  0
  -27.5400  -32.5370   25.7930 C   0  0  0  0  0  1  0  0  0  0  0  0
  -25.5630  -33.9180   24.1850 N   0  0  0  0  0  0  0  0  0  0  0  0
  -25.8880  -34.9700   23.4220 C   0  0  0  0  0  0  0  0  0  0  0  0
  -26.5490  -34.8670   22.3860 O   0  0  0  0  0  0  0  0  0  0  0  0
  -24.9730  -34.0740   24.9900 H   0  0  0  0  0  0  0  0  0  0  0  0
  -24.1570  -36.7620   23.0750 C   0  0  0  0  0  1  0  0  0  0  0  0
  -25.4020  -36.3580   23.8820 C   0  0  0  0  0  3  0  0  0  0  0  0
  -27.5410  -37.2420   24.7040 C   0  0  0  0  0  1  0  0  0  0  0  0
  -26.4340  -37.4130   23.7660 N   0  0  0  0  0  0  0  0  0  0  0  0
  -26.0280  -38.3320   23.9200 H   0  0  0  0  0  0  0  0  0  0  0  0
  1  7  1  0
  1 48  1  0
  3  6  1  0
  4  2  1  0
  5  3  2  0
  5  7  1  0
  6  8  1  0
  6  2  2  0
  7  4  2  0
  9 17  1  0
 10 15  1  0
 11 12  1  0
 11 10  1  0
 13 12  1  0
 13 22  1  0
 13 14  1  0
 15  9  1  0
 15 14  1  0
 16  9  2  0
 17 18  1  0
 17  8  1  0
 19 20  2  0
 20 39  1  0
 21 20  1  0
 21 24  1  0
 22 19  1  0
 22 23  1  0
 23 21  2  0
 24 25  1  0
 25 26  2  0
 27 30  1  0
 27 26  1  0
 28 27  2  0
 29 28  1  0
 29 24  2  0
 30 31  1  0
 31 32  1  0
 32 33  2  0
 34 33  1  0
 34 38  1  0
 35 34  2  0
 36 31  2  0
 36 35  1  0
 37 36  1  0
 39 40  1  0
 40 43  1  0
 40 42  1  0
 41 39  2  0
 44 45  1  0
 44 19  1  0
 46 44  1  0
 47 48  1  0
 47 51  1  0
 48 50  1  0
 49 47  2  0
 52 63  2  0
 53 51  1  0
 53 58  1  0
 54 62  1  0
 54 64  1  0
 55 61  1  0
 55 57  1  0
 56 62  1  0
 57 56  1  0
 58 57  2  0
 59 53  2  0
 60 59  1  0
 60 55  2  0
 61 54  1  0
 62 52  1  0
 64 66  2  0
 65 64  1  0
 67 65  1  0
 68 77  2  0
 68 73  1  0
 69 65  1  0
 69 73  1  0
 70 69  1  0
 71 72  1  0
 71 70  1  0
 72 68  1  0
 73 74  2  0
 74 75  1  0
 76 75  2  0
 77 76  1  0
 78 52  1  0
 78 83  1  0
 78 79  1  0
 79 82  1  1
 79 80  1  0
 81 79  1  0
 83 86  1  0
 84 88  1  0
 84 83  1  0
 85 84  2  0
 88 87  1  0
 90 88  1  0
 90 91  1  0
 90 89  1  0
M  ISO  4   9 100  17 100  47 101  51 101
M  END
>  <TORSDO>  (76) 
F 19

>  <SCORE>  (76) 
-14.256

>  <name>  (76) 
78

>  <ligand_id>  (76) 
78

>  <original_smiles>  (76) 
[H]c1c([H])c([H])c2c(c1[H])C([H])([H])C([H])([H])C([H])([H])C2([H])N([H])C(=O)C1([H])N(C(=O)C([H])(N([H])C(=O)C([H])(N([H])C([H])([H])[H])C([H])([H])[H])C(C([H])([H])[H])(C([H])([H])[H])C([H])([H])[H])C([H])([H])c2c([H])c(OC(=O)N([H])C([H])([H])c3c([H])c([H])c(C([H])([H])N([H])C(=O)N4C([H])([H])C([H])([H])C([H])([H])C([H])(n5nc(-c6c([H])c([H])c(Oc7c([H])c([H])c(F)c([H])c7F)c([H])c6[H])c(C(=O)N([H])[H])c5N([H])[H])C4([H])[H])c([H])c3[H])c([H])c([H])c2C1([H])[H]

>  <smiles>  (76) 
[H]c1c([H])c([H])c2c(c1[H])C([H])([H])C([H])([H])C([H])([H])C2([H])N([H])C(=O)C1([H])N(C(=O)C([H])(N([H])C(=O)C([H])(N([H])C([H])([H])[H])C([H])([H])[H])C(C([H])([H])[H])(C([H])([H])[H])C([H])([H])[H])C([H])([H])c2c([H])c(OC(=O)N([H])C([H])([H])c3c([H])c([H])c(C([H])([H])N([H])C(=O)N4C([H])([H])C([H])([H])C([H])([H])C([H])(n5nc(-c6c([H])c([H])c(Oc7c([H])c([H])c(F)c([H])c7F)c([H])c6[H])c(C(=O)N([H])[H])c5N([H])[H])C4([H])[H])c([H])c3[H])c([H])c([H])c2C1([H])[H]

$$$$
79:0:0
     RDKit          3D

 97105  0  0  1  0  0  0  0  0999 V2000
  -30.7080  -22.5850   21.1360 C   0  0  0  0  0  0  0  0  0  0  0  0
  -31.7890  -22.0930   21.7680 N   0  0  0  0  0  0  0  0  0  0  0  0
  -30.0570  -21.9770   20.2810 O   0  0  0  0  0  0  0  0  0  0  0  0
  -32.1990  -22.7050   22.4610 H   0  0  0  0  0  0  0  0  0  0  0  0
  -32.8230  -20.2440   22.9470 C   0  0  0  0  0  3  0  0  0  0  0  0
  -32.1220  -19.9060   20.6380 C   0  0  0  0  0  3  0  0  0  0  0  0
  -33.1560  -18.8810   23.0430 C   0  0  0  0  0  3  0  0  0  0  0  0
  -32.4600  -18.5440   20.7330 C   0  0  0  0  0  3  0  0  0  0  0  0
  -32.2440  -20.7500   21.7650 C   0  0  0  0  0  0  0  0  0  0  0  0
  -32.9160  -18.0140   21.9540 C   0  0  0  0  0  0  0  0  0  0  0  0
  -33.0720  -16.6580   22.0540 O   0  0  0  0  0  0  0  0  0  0  0  0
  -32.4140  -16.0890   23.1820 C   0  0  0  0  0  2  0  0  0  0  0  0
  -32.1970  -14.5870   22.9560 C   0  0  0  0  0  2  0  0  0  0  0  0
  -30.9050  -14.1900   20.8450 C   0  0  0  0  0  0  0  0  0  0  0  0
  -30.3990  -12.2980   19.3710 C   0  0  0  0  0  2  0  0  0  0  0  0
  -29.4630  -12.5650   18.1870 C   0  0  0  0  0  2  0  0  0  0  0  0
  -28.0000  -12.3880   18.6220 C   0  0  0  0  0  2  0  0  0  0  0  0
  -27.6630  -13.2160   19.8870 C   0  0  0  0  0  3  0  0  0  0  0  0
  -28.7020  -13.0070   21.0120 C   0  0  0  0  0  2  0  0  0  0  0  0
  -30.0600  -13.2050   20.4710 N   0  0  0  0  0  0  0  0  0  0  0  0
  -31.7480  -14.6960   20.0990 O   0  0  0  0  0  0  0  0  0  0  0  0
  -30.9970  -14.2620   22.1790 N   0  0  0  0  0  0  0  0  0  0  0  0
  -30.2930  -13.7330   22.6730 H   0  0  0  0  0  0  0  0  0  0  0  0
  -25.2560  -13.8180   20.5690 C   0  0  0  0  0  0  0  0  0  0  0  0
  -24.1810  -13.0430   20.9160 C   0  0  0  0  0  0  0  0  0  0  0  0
  -24.6380  -11.6920   20.8710 C   0  0  0  0  0  0  0  0  0  0  0  0
  -26.3020  -12.9370   20.3440 N   0  0  0  0  0  0  0  0  0  0  0  0
  -25.9320  -11.6520   20.5820 N   0  0  0  0  0  0  0  0  0  0  0  0
  -23.9030  -10.4300   21.0360 C   0  0  0  0  0  0  0  0  0  0  0  0
  -24.3580   -9.4210   21.9130 C   0  0  0  0  0  3  0  0  0  0  0  0
  -23.6270   -8.2250   22.0720 C   0  0  0  0  0  3  0  0  0  0  0  0
  -22.4280   -8.0250   21.3490 C   0  0  0  0  0  0  0  0  0  0  0  0
  -21.9900   -9.0210   20.4590 C   0  0  0  0  0  3  0  0  0  0  0  0
  -22.7200  -10.2110   20.3000 C   0  0  0  0  0  3  0  0  0  0  0  0
  -21.6660   -6.8830   21.4170 O   0  0  0  0  0  0  0  0  0  0  0  0
  -21.6860   -6.0690   22.5220 C   0  0  0  0  0  0  0  0  0  0  0  0
  -21.4030   -6.5610   23.8140 C   0  0  0  0  0  3  0  0  0  0  0  0
  -21.3680   -5.6760   24.9110 C   0  0  0  0  0  3  0  0  0  0  0  0
  -21.6050   -4.3020   24.7180 C   0  0  0  0  0  0  0  0  0  0  0  0
  -21.8830   -3.8100   23.4300 C   0  0  0  0  0  3  0  0  0  0  0  0
  -21.9210   -4.6920   22.3350 C   0  0  0  0  0  0  0  0  0  0  0  0
  -22.1660   -4.2100   21.0930 F   0  0  0  0  0  0  0  0  0  0  0  0
  -21.5650   -3.4510   25.7690 F   0  0  0  0  0  0  0  0  0  0  0  0
  -22.7840  -13.5210   21.1840 C   0  0  0  0  0  0  0  0  0  0  0  0
  -22.0530  -12.8140   22.0400 N   0  0  0  0  0  0  0  0  0  0  0  0
  -22.3510  -14.5510   20.6720 O   0  0  0  0  0  0  0  0  0  0  0  0
  -22.4220  -11.9800   22.4720 H   0  0  0  0  0  0  0  0  0  0  0  0
  -21.1140  -13.1090   22.2670 H   0  0  0  0  0  0  0  0  0  0  0  0
  -25.4260  -15.1890   20.4110 N   0  0  0  0  0  0  0  0  0  0  0  0
  -24.6680  -15.8540   20.5320 H   0  0  0  0  0  0  0  0  0  0  0  0
  -26.2910  -15.6260   20.1110 H   0  0  0  0  0  0  0  0  0  0  0  0
  -30.2930  -24.0050   21.5090 C   0  0  0  0  0  2  0  0  0  0  0  0
  -30.7310  -24.9010   20.4890 O   0  0  0  0  0  0  0  0  0  0  0  0
  -30.6710  -26.2750   20.8680 C   0  0  0  0  0  2  0  0  0  0  0  0
  -29.2410  -26.7330   21.1790 C   0  0  0  0  0  0  0  0  0  0  0  0
  -28.9200  -27.0270   22.3350 O   0  0  0  0  0  0  0  0  0  0  0  0
  -28.4340  -26.7770   20.0810 O   0  0  0  0  0  0  0  0  0  0  0  0
  -24.6080  -31.8710   23.2140 C   0  0  0  0  0  0  0  0  0  0  0  0
  -27.2590  -27.4960   20.1080 C   0  0  0  0  0  0  0  0  0  0  0  0
  -23.3900  -30.4940   21.5520 C   0  0  0  0  0  3  0  0  0  0  0  0
  -24.8370  -28.9580   20.1200 C   0  0  0  0  0  0  0  0  0  0  0  0
  -25.9070  -30.8560   21.3570 C   0  0  0  0  0  2  0  0  0  0  0  0
  -25.9860  -29.4940   20.7100 C   0  0  0  0  0  0  0  0  0  0  0  0
  -27.1900  -28.7760   20.7040 C   0  0  0  0  0  3  0  0  0  0  0  0
  -26.0970  -26.9620   19.5100 C   0  0  0  0  0  3  0  0  0  0  0  0
  -24.8830  -27.6840   19.5190 C   0  0  0  0  0  3  0  0  0  0  0  0
  -23.5960  -29.8210   20.1660 C   0  0  0  0  0  2  0  0  0  0  0  0
  -24.6530  -31.0860   22.1010 N   0  0  0  0  0  0  0  0  0  0  0  0
  -23.5300  -32.1460   23.7580 O   0  0  0  0  0  0  0  0  0  0  0  0
  -22.7360  -29.4660   22.5020 C   0  0  0  0  0  0  0  0  0  0  0  0
  -21.4090  -29.3020   22.3760 N   0  0  0  0  0  0  0  0  0  0  0  0
  -23.4160  -28.8220   23.3040 O   0  0  0  0  0  0  0  0  0  0  0  0
  -20.9230  -29.8730   21.6980 H   0  0  0  0  0  0  0  0  0  0  0  0
  -18.0280  -28.1380   22.8490 C   0  0  0  0  0  0  0  0  0  0  0  0
  -20.5850  -28.3650   23.1350 C   0  0  0  0  0  3  0  0  0  0  0  0
  -20.6770  -26.9390   22.5430 C   0  0  0  0  0  2  0  0  0  0  0  0
  -19.5750  -26.6400   21.5210 C   0  0  0  0  0  2  0  0  0  0  0  0
  -18.1930  -26.7940   22.1620 C   0  0  0  0  0  2  0  0  0  0  0  0
  -19.1520  -28.8830   23.2920 C   0  0  0  0  0  0  0  0  0  0  0  0
  -18.9460  -30.1450   23.8900 C   0  0  0  0  0  3  0  0  0  0  0  0
  -17.6460  -30.6580   24.0580 C   0  0  0  0  0  3  0  0  0  0  0  0
  -16.5350  -29.9080   23.6340 C   0  0  0  0  0  3  0  0  0  0  0  0
  -16.7270  -28.6520   23.0320 C   0  0  0  0  0  3  0  0  0  0  0  0
  -25.9040  -32.4810   23.8370 C   0  0  0  0  0  3  0  0  0  0  0  0
  -25.5930  -33.8610   24.2310 N   0  0  0  0  0  0  0  0  0  0  0  0
  -25.9040  -34.9470   23.5100 C   0  0  0  0  0  0  0  0  0  0  0  0
  -26.5600  -34.8930   22.4660 O   0  0  0  0  0  0  0  0  0  0  0  0
  -25.0110  -33.9770   25.0470 H   0  0  0  0  0  0  0  0  0  0  0  0
  -24.1490  -36.7320   23.2600 C   0  0  0  0  0  1  0  0  0  0  0  0
  -25.4090  -36.3090   24.0320 C   0  0  0  0  0  3  0  0  0  0  0  0
  -27.5630  -37.1720   24.8380 C   0  0  0  0  0  1  0  0  0  0  0  0
  -26.4230  -37.3830   23.9500 N   0  0  0  0  0  0  0  0  0  0  0  0
  -26.0080  -38.2810   24.1800 H   0  0  0  0  0  0  0  0  0  0  0  0
  -26.4490  -31.6580   25.0680 C   0  0  1  0  0  0  0  0  0  0  0  0
  -25.3810  -31.3730   26.1480 C   0  0  0  0  0  1  0  0  0  0  0  0
  -27.0280  -30.3000   24.6030 C   0  0  0  0  0  1  0  0  0  0  0  0
  -27.6050  -32.4290   25.7470 C   0  0  0  0  0  1  0  0  0  0  0  0
  1 52  1  0
  1  2  1  0
  2  4  1  0
  3  1  2  0
  5  7  1  0
  6  8  2  0
  6  9  1  0
  8 10  1  0
  9  2  1  0
  9  5  2  0
 10 11  1  0
 10  7  2  0
 11 12  1  0
 13 12  1  0
 14 22  1  0
 15 20  1  0
 16 17  1  0
 16 15  1  0
 18 17  1  0
 18 27  1  0
 18 19  1  0
 20 14  1  0
 20 19  1  0
 21 14  2  0
 22 23  1  0
 22 13  1  0
 24 25  2  0
 25 44  1  0
 26 25  1  0
 26 29  1  0
 27 24  1  0
 27 28  1  0
 28 26  2  0
 29 30  1  0
 30 31  2  0
 32 35  1  0
 32 31  1  0
 33 32  2  0
 34 33  1  0
 34 29  2  0
 35 36  1  0
 36 37  1  0
 37 38  2  0
 39 38  1  0
 39 43  1  0
 40 39  2  0
 41 36  2  0
 41 40  1  0
 42 41  1  0
 44 45  1  0
 45 48  1  0
 45 47  1  0
 46 44  2  0
 49 50  1  0
 49 24  1  0
 51 49  1  0
 53 54  1  0
 53 52  1  0
 54 55  1  0
 55 56  2  0
 57 59  1  0
 57 55  1  0
 58 69  2  0
 59 64  1  0
 60 68  1  0
 60 70  1  0
 61 67  1  0
 61 63  1  0
 62 68  1  0
 63 62  1  0
 64 63  2  0
 65 66  1  0
 65 59  2  0
 66 61  2  0
 67 60  1  0
 68 58  1  0
 70 72  2  0
 71 70  1  0
 73 71  1  0
 74 83  2  0
 74 79  1  0
 75 71  1  0
 75 79  1  0
 76 75  1  0
 77 78  1  0
 77 76  1  0
 78 74  1  0
 79 80  2  0
 80 81  1  0
 82 81  2  0
 83 82  1  0
 84 58  1  0
 84 85  1  0
 84 94  1  0
 85 88  1  0
 86 90  1  0
 86 85  1  0
 87 86  2  0
 90 89  1  0
 92 90  1  0
 92 93  1  0
 92 91  1  0
 94 97  1  1
 94 95  1  0
 96 94  1  0
M  ISO  4  14 100  22 100  55 101  57 101
M  END
>  <TORSDO>  (77) 
F 24

>  <SCORE>  (77) 
-0.450

>  <name>  (77) 
79

>  <ligand_id>  (77) 
79

>  <original_smiles>  (77) 
[H]c1c([H])c([H])c2c(c1[H])C([H])([H])C([H])([H])C([H])([H])C2([H])N([H])C(=O)C1([H])N(C(=O)C([H])(N([H])C(=O)C([H])(N([H])C([H])([H])[H])C([H])([H])[H])C(C([H])([H])[H])(C([H])([H])[H])C([H])([H])[H])C([H])([H])c2c([H])c(OC(=O)C([H])([H])OC([H])([H])C(=O)N([H])c3c([H])c([H])c(OC([H])([H])C([H])([H])N([H])C(=O)N4C([H])([H])C([H])([H])C([H])([H])C([H])(n5nc(-c6c([H])c([H])c(Oc7c([H])c([H])c(F)c([H])c7F)c([H])c6[H])c(C(=O)N([H])[H])c5N([H])[H])C4([H])[H])c([H])c3[H])c([H])c([H])c2C1([H])[H]

>  <smiles>  (77) 
[H]c1c([H])c([H])c2c(c1[H])C([H])([H])C([H])([H])C([H])([H])C2([H])N([H])C(=O)C1([H])N(C(=O)C([H])(N([H])C(=O)C([H])(N([H])C([H])([H])[H])C([H])([H])[H])C(C([H])([H])[H])(C([H])([H])[H])C([H])([H])[H])C([H])([H])c2c([H])c(OC(=O)C([H])([H])OC([H])([H])C(=O)N([H])c3c([H])c([H])c(OC([H])([H])C([H])([H])N([H])C(=O)N4C([H])([H])C([H])([H])C([H])([H])C([H])(n5nc(-c6c([H])c([H])c(Oc7c([H])c([H])c(F)c([H])c7F)c([H])c6[H])c(C(=O)N([H])[H])c5N([H])[H])C4([H])[H])c([H])c3[H])c([H])c([H])c2C1([H])[H]

$$$$
80:0:0
     RDKit          3D

 95103  0  0  1  0  0  0  0  0999 V2000
  -28.7050  -21.9790   24.4080 C   0  0  0  0  0  2  0  0  0  0  0  0
  -28.8220  -22.4170   23.0570 O   0  0  0  0  0  0  0  0  0  0  0  0
  -27.9540  -23.5020   22.7540 C   0  0  0  0  0  2  0  0  0  0  0  0
  -27.5000  -23.4070   21.2920 C   0  0  0  0  0  2  0  0  0  0  0  0
  -28.5840  -23.0380   20.4420 O   0  0  0  0  0  0  0  0  0  0  0  0
  -28.1180  -22.5530   19.1870 C   0  0  0  0  0  2  0  0  0  0  0  0
  -29.2290  -22.5780   18.1220 C   0  0  0  0  0  2  0  0  0  0  0  0
  -28.8140  -23.3620   17.0020 O   0  0  0  0  0  0  0  0  0  0  0  0
  -27.3720  -28.5020   21.6840 C   0  0  0  0  0  0  0  0  0  0  0  0
  -28.0120  -24.4210   17.3410 C   0  0  0  0  0  0  0  0  0  0  0  0
  -25.6430  -28.0930   19.9610 C   0  0  0  0  0  3  0  0  0  0  0  0
  -26.3420  -26.5830   18.0280 C   0  0  0  0  0  0  0  0  0  0  0  0
  -28.1020  -27.6010   19.4830 C   0  0  0  0  0  2  0  0  0  0  0  0
  -27.6370  -26.5020   18.5540 C   0  0  0  0  0  0  0  0  0  0  0  0
  -28.4770  -25.4230   18.2180 C   0  0  0  0  0  3  0  0  0  0  0  0
  -26.7150  -24.5190   16.7970 C   0  0  0  0  0  3  0  0  0  0  0  0
  -25.8720  -25.5900   17.1470 C   0  0  0  0  0  3  0  0  0  0  0  0
  -25.5090  -27.7730   18.4460 C   0  0  0  0  0  2  0  0  0  0  0  0
  -27.0650  -28.0570   20.4330 N   0  0  0  0  0  0  0  0  0  0  0  0
  -26.5020  -28.9850   22.4230 O   0  0  0  0  0  0  0  0  0  0  0  0
  -24.7090  -27.1510   20.7510 C   0  0  0  0  0  0  0  0  0  0  0  0
  -23.5160  -26.8890   20.1940 N   0  0  0  0  0  0  0  0  0  0  0  0
  -25.0710  -26.6520   21.8190 O   0  0  0  0  0  0  0  0  0  0  0  0
  -23.2910  -27.3440   19.3200 H   0  0  0  0  0  0  0  0  0  0  0  0
  -20.7530  -24.7430   19.2960 C   0  0  0  0  0  0  0  0  0  0  0  0
  -22.4900  -26.0030   20.7380 C   0  0  0  0  0  3  0  0  0  0  0  0
  -23.0750  -24.6110   21.0680 C   0  0  0  0  0  2  0  0  0  0  0  0
  -22.9270  -23.6080   19.9220 C   0  0  0  0  0  2  0  0  0  0  0  0
  -21.4500  -23.4190   19.5590 C   0  0  0  0  0  2  0  0  0  0  0  0
  -21.2500  -25.9590   19.8380 C   0  0  0  0  0  0  0  0  0  0  0  0
  -20.5850  -27.1660   19.5350 C   0  0  0  0  0  3  0  0  0  0  0  0
  -19.4440  -27.1720   18.7100 C   0  0  0  0  0  3  0  0  0  0  0  0
  -18.9460  -25.9650   18.1920 C   0  0  0  0  0  3  0  0  0  0  0  0
  -19.5980  -24.7540   18.4870 C   0  0  0  0  0  3  0  0  0  0  0  0
  -28.8320  -28.4550   22.2350 C   0  0  0  0  0  3  0  0  0  0  0  0
  -29.3870  -26.9860   22.3960 C   0  0  1  0  0  0  0  0  0  0  0  0
  -28.4750  -26.0650   23.2390 C   0  0  0  0  0  1  0  0  0  0  0  0
  -29.5820  -26.3230   21.0120 C   0  0  0  0  0  1  0  0  0  0  0  0
  -30.7810  -27.0210   23.0670 C   0  0  0  0  0  1  0  0  0  0  0  0
  -28.8450  -29.1600   23.5220 N   0  0  0  0  0  0  0  0  0  0  0  0
  -29.4730  -30.3210   23.7460 C   0  0  0  0  0  0  0  0  0  0  0  0
  -30.1730  -30.8780   22.8960 O   0  0  0  0  0  0  0  0  0  0  0  0
  -28.2450  -28.7900   24.2470 H   0  0  0  0  0  0  0  0  0  0  0  0
  -28.3000  -32.1340   25.0320 C   0  0  0  0  0  1  0  0  0  0  0  0
  -29.2960  -30.9680   25.1320 C   0  0  0  0  0  3  0  0  0  0  0  0
  -31.4670  -30.3640   26.1040 C   0  0  0  0  0  1  0  0  0  0  0  0
  -30.5640  -31.4460   25.7240 N   0  0  0  0  0  0  0  0  0  0  0  0
  -30.3840  -32.0160   26.5470 H   0  0  0  0  0  0  0  0  0  0  0  0
  -29.7700  -20.9100   24.6930 C   0  0  0  0  0  2  0  0  0  0  0  0
  -29.9300  -20.1100   23.5300 O   0  0  0  0  0  0  0  0  0  0  0  0
  -31.1650  -20.3140   22.8550 C   0  0  0  0  0  2  0  0  0  0  0  0
  -31.0170  -18.4810   21.1050 C   0  0  0  0  0  3  0  0  0  0  0  0
  -30.9850  -20.8040   20.3660 C   0  0  0  0  0  3  0  0  0  0  0  0
  -30.7980  -18.0590   19.7810 C   0  0  0  0  0  3  0  0  0  0  0  0
  -30.7760  -20.3830   19.0370 C   0  0  0  0  0  3  0  0  0  0  0  0
  -31.0700  -19.8570   21.4100 C   0  0  0  0  0  0  0  0  0  0  0  0
  -30.6570  -19.0060   18.7480 C   0  0  0  0  0  0  0  0  0  0  0  0
  -30.1440  -19.2640   16.3610 C   0  0  0  0  0  0  0  0  0  0  0  0
  -31.1620  -19.2130   14.1290 C   0  0  0  0  0  2  0  0  0  0  0  0
  -31.3200  -17.7330   13.7210 C   0  0  0  0  0  2  0  0  0  0  0  0
  -32.6580  -17.1650   14.2350 C   0  0  0  0  0  2  0  0  0  0  0  0
  -32.9050  -17.4700   15.7380 C   0  0  0  0  0  3  0  0  0  0  0  0
  -32.6300  -18.9590   16.0480 C   0  0  0  0  0  2  0  0  0  0  0  0
  -31.2660  -19.2770   15.5930 N   0  0  0  0  0  0  0  0  0  0  0  0
  -29.0300  -19.5910   15.9470 O   0  0  0  0  0  0  0  0  0  0  0  0
  -30.2270  -18.5440   17.4840 N   0  0  0  0  0  0  0  0  0  0  0  0
  -29.3910  -17.9860   17.5790 H   0  0  0  0  0  0  0  0  0  0  0  0
  -34.6950  -16.6290   17.3870 C   0  0  0  0  0  0  0  0  0  0  0  0
  -36.0180  -16.3220   17.2220 C   0  0  0  0  0  0  0  0  0  0  0  0
  -36.3160  -16.5850   15.8500 C   0  0  0  0  0  0  0  0  0  0  0  0
  -34.2490  -17.0700   16.1500 N   0  0  0  0  0  0  0  0  0  0  0  0
  -35.2530  -17.0880   15.2360 N   0  0  0  0  0  0  0  0  0  0  0  0
  -37.5340  -16.3360   15.0710 C   0  0  0  0  0  0  0  0  0  0  0  0
  -38.0620  -17.3060   14.1930 C   0  0  0  0  0  3  0  0  0  0  0  0
  -39.2460  -17.0490   13.4680 C   0  0  0  0  0  3  0  0  0  0  0  0
  -39.9150  -15.8120   13.6220 C   0  0  0  0  0  0  0  0  0  0  0  0
  -39.3730  -14.8390   14.4790 C   0  0  0  0  0  3  0  0  0  0  0  0
  -38.1920  -15.0950   15.1950 C   0  0  0  0  0  3  0  0  0  0  0  0
  -41.0570  -15.4630   12.9400 O   0  0  0  0  0  0  0  0  0  0  0  0
  -41.8240  -16.4000   12.2950 C   0  0  0  0  0  0  0  0  0  0  0  0
  -42.3620  -17.5160   12.9720 C   0  0  0  0  0  3  0  0  0  0  0  0
  -43.2030  -18.4160   12.2870 C   0  0  0  0  0  3  0  0  0  0  0  0
  -43.5130  -18.1980   10.9320 C   0  0  0  0  0  0  0  0  0  0  0  0
  -42.9820  -17.0850   10.2570 C   0  0  0  0  0  3  0  0  0  0  0  0
  -42.1420  -16.1870   10.9390 C   0  0  0  0  0  0  0  0  0  0  0  0
  -41.6500  -15.1040   10.2910 F   0  0  0  0  0  0  0  0  0  0  0  0
  -44.3260  -19.0580   10.2750 F   0  0  0  0  0  0  0  0  0  0  0  0
  -36.9330  -15.7220   18.2510 C   0  0  0  0  0  0  0  0  0  0  0  0
  -38.2180  -16.0560   18.1970 N   0  0  0  0  0  0  0  0  0  0  0  0
  -36.5040  -14.9890   19.1400 O   0  0  0  0  0  0  0  0  0  0  0  0
  -38.5680  -16.6740   17.4800 H   0  0  0  0  0  0  0  0  0  0  0  0
  -38.8600  -15.6900   18.8850 H   0  0  0  0  0  0  0  0  0  0  0  0
  -33.8310  -16.5460   18.4760 N   0  0  0  0  0  0  0  0  0  0  0  0
  -34.1240  -16.1720   19.3730 H   0  0  0  0  0  0  0  0  0  0  0  0
  -32.8370  -16.7260   18.4270 H   0  0  0  0  0  0  0  0  0  0  0  0
  1 49  1  0
  2  1  1  0
  3  2  1  0
  4  3  1  0
  5  4  1  0
  6  5  1  0
  7  6  1  0
  8 10  1  0
  8  7  1  0
  9 20  2  0
 10 15  1  0
 11 19  1  0
 11 21  1  0
 12 18  1  0
 12 14  1  0
 13 19  1  0
 14 13  1  0
 15 14  2  0
 16 17  1  0
 16 10  2  0
 17 12  2  0
 18 11  1  0
 19  9  1  0
 21 23  2  0
 22 21  1  0
 24 22  1  0
 25 29  1  0
 25 30  1  0
 26 22  1  0
 26 27  1  0
 28 27  1  0
 29 28  1  0
 30 26  1  0
 31 30  2  0
 32 31  1  0
 33 34  1  0
 33 32  2  0
 34 25  2  0
 35  9  1  0
 35 36  1  0
 35 40  1  0
 36 39  1  1
 36 37  1  0
 38 36  1  0
 40 41  1  0
 40 43  1  0
 41 45  1  0
 42 41  2  0
 45 44  1  0
 45 47  1  0
 47 46  1  0
 47 48  1  0
 50 49  1  0
 51 50  1  0
 52 56  1  0
 53 56  2  0
 54 52  2  0
 55 53  1  0
 56 51  1  0
 57 55  2  0
 57 54  1  0
 58 66  1  0
 59 64  1  0
 60 59  1  0
 60 61  1  0
 62 61  1  0
 62 63  1  0
 62 71  1  0
 64 63  1  0
 64 58  1  0
 65 58  2  0
 66 67  1  0
 66 57  1  0
 68 93  1  0
 69 68  2  0
 69 88  1  0
 70 69  1  0
 71 68  1  0
 72 70  2  0
 72 71  1  0
 73 78  1  0
 73 70  1  0
 74 73  2  0
 75 76  2  0
 75 74  1  0
 76 77  1  0
 77 78  2  0
 79 76  1  0
 80 79  1  0
 80 81  1  0
 82 81  2  0
 83 82  1  0
 84 83  2  0
 84 85  1  0
 85 80  2  0
 86 85  1  0
 87 83  1  0
 88 90  2  0
 89 88  1  0
 89 92  1  0
 91 89  1  0
 93 94  1  0
 95 93  1  0
M  ISO  4   7 101   8 101  58 100  66 100
M  END
>  <TORSDO>  (78) 
F 26

>  <SCORE>  (78) 
-0.009

>  <name>  (78) 
80

>  <ligand_id>  (78) 
80

>  <original_smiles>  (78) 
[H]c1c([H])c([H])c2c(c1[H])C([H])([H])C([H])([H])C([H])([H])C2([H])N([H])C(=O)C1([H])N(C(=O)C([H])(N([H])C(=O)C([H])(N([H])C([H])([H])[H])C([H])([H])[H])C(C([H])([H])[H])(C([H])([H])[H])C([H])([H])[H])C([H])([H])c2c([H])c(OC([H])([H])C([H])([H])OC([H])([H])C([H])([H])OC([H])([H])C([H])([H])OC([H])([H])c3c([H])c([H])c(N([H])C(=O)N4C([H])([H])C([H])([H])C([H])([H])C([H])(n5nc(-c6c([H])c([H])c(Oc7c([H])c([H])c(F)c([H])c7F)c([H])c6[H])c(C(=O)N([H])[H])c5N([H])[H])C4([H])[H])c([H])c3[H])c([H])c([H])c2C1([H])[H]

>  <smiles>  (78) 
[H]c1c([H])c([H])c2c(c1[H])C([H])([H])C([H])([H])C([H])([H])C2([H])N([H])C(=O)C1([H])N(C(=O)C([H])(N([H])C(=O)C([H])(N([H])C([H])([H])[H])C([H])([H])[H])C(C([H])([H])[H])(C([H])([H])[H])C([H])([H])[H])C([H])([H])c2c([H])c(OC([H])([H])C([H])([H])OC([H])([H])C([H])([H])OC([H])([H])C([H])([H])OC([H])([H])c3c([H])c([H])c(N([H])C(=O)N4C([H])([H])C([H])([H])C([H])([H])C([H])(n5nc(-c6c([H])c([H])c(Oc7c([H])c([H])c(F)c([H])c7F)c([H])c6[H])c(C(=O)N([H])[H])c5N([H])[H])C4([H])[H])c([H])c3[H])c([H])c([H])c2C1([H])[H]

$$$$
81:0:0
     RDKit          3D

106115  0  0  1  0  0  0  0  0999 V2000
  -24.5710  -18.9530   14.5700 C   0  0  0  0  0  2  0  0  0  0  0  0
  -25.8980  -18.4930   13.9530 C   0  0  0  0  0  2  0  0  0  0  0  0
  -26.9210  -18.4940   14.9440 O   0  0  0  0  0  0  0  0  0  0  0  0
  -28.1810  -18.8840   14.4250 C   0  0  0  0  0  2  0  0  0  0  0  0
  -29.2860  -17.9790   14.9760 C   0  0  0  0  0  2  0  0  0  0  0  0
  -31.5120  -19.5630   17.6680 C   0  0  0  0  0  3  0  0  0  0  0  0
  -31.9300  -18.8560   19.9850 C   0  0  0  0  0  3  0  0  0  0  0  0
  -30.8610  -19.3410   16.4360 C   0  0  0  0  0  3  0  0  0  0  0  0
  -31.7400  -17.8910   21.0020 C   0  0  0  0  0  3  0  0  0  0  0  0
  -29.3780  -17.7340   17.5070 C   0  0  0  0  0  3  0  0  0  0  0  0
  -29.7740  -17.0770   19.8240 C   0  0  0  0  0  3  0  0  0  0  0  0
  -31.1670  -18.7940   18.8020 C   0  0  0  0  0  0  0  0  0  0  0  0
  -30.0770  -17.8980   18.7210 C   0  0  0  0  0  0  0  0  0  0  0  0
  -29.8260  -18.3880   16.3400 C   0  0  0  0  0  0  0  0  0  0  0  0
  -30.7140  -16.9210   20.8710 C   0  0  0  0  0  0  0  0  0  0  0  0
  -31.4360  -14.6530   21.2770 C   0  0  0  0  0  0  0  0  0  0  0  0
  -31.0130  -13.2540   19.3320 C   0  0  0  0  0  2  0  0  0  0  0  0
  -30.1080  -14.0940   18.4050 C   0  0  0  0  0  2  0  0  0  0  0  0
  -28.6140  -13.9170   18.7660 C   0  0  0  0  0  2  0  0  0  0  0  0
  -28.3310  -13.9880   20.2910 C   0  0  0  0  0  3  0  0  0  0  0  0
  -29.3720  -13.2050   21.1180 C   0  0  0  0  0  2  0  0  0  0  0  0
  -30.7080  -13.6570   20.7070 N   0  0  0  0  0  0  0  0  0  0  0  0
  -32.6590  -14.7570   21.1340 O   0  0  0  0  0  0  0  0  0  0  0  0
  -30.7000  -15.7190   21.6580 N   0  0  0  0  0  0  0  0  0  0  0  0
  -29.7710  -15.4350   21.9230 H   0  0  0  0  0  0  0  0  0  0  0  0
  -25.8610  -14.4800   20.8150 C   0  0  0  0  0  0  0  0  0  0  0  0
  -24.7950  -13.6430   21.0110 C   0  0  0  0  0  0  0  0  0  0  0  0
  -25.3150  -12.3140   20.9110 C   0  0  0  0  0  0  0  0  0  0  0  0
  -26.9570  -13.6460   20.6190 N   0  0  0  0  0  0  0  0  0  0  0  0
  -26.6250  -12.3390   20.7310 N   0  0  0  0  0  0  0  0  0  0  0  0
  -24.6300  -11.0170   20.9270 C   0  0  0  0  0  0  0  0  0  0  0  0
  -24.8370  -10.0870   21.9660 C   0  0  0  0  0  3  0  0  0  0  0  0
  -24.1550   -8.8520   21.9630 C   0  0  0  0  0  3  0  0  0  0  0  0
  -23.2540   -8.5400   20.9180 C   0  0  0  0  0  0  0  0  0  0  0  0
  -23.0740   -9.4610   19.8720 C   0  0  0  0  0  3  0  0  0  0  0  0
  -23.7580  -10.6880   19.8720 C   0  0  0  0  0  3  0  0  0  0  0  0
  -22.5620   -7.3570   20.8220 O   0  0  0  0  0  0  0  0  0  0  0  0
  -21.8630   -6.8470   21.8860 C   0  0  0  0  0  0  0  0  0  0  0  0
  -20.9840   -7.6440   22.6500 C   0  0  0  0  0  3  0  0  0  0  0  0
  -20.2320   -7.0620   23.6900 C   0  0  0  0  0  3  0  0  0  0  0  0
  -20.3510   -5.6860   23.9640 C   0  0  0  0  0  0  0  0  0  0  0  0
  -21.2240   -4.8920   23.2030 C   0  0  0  0  0  3  0  0  0  0  0  0
  -21.9760   -5.4700   22.1650 C   0  0  0  0  0  0  0  0  0  0  0  0
  -22.8020   -4.6950   21.4200 F   0  0  0  0  0  0  0  0  0  0  0  0
  -19.6230   -5.1280   24.9600 F   0  0  0  0  0  0  0  0  0  0  0  0
  -23.3590  -14.0390   21.1960 C   0  0  0  0  0  0  0  0  0  0  0  0
  -22.6050  -13.2660   21.9680 N   0  0  0  0  0  0  0  0  0  0  0  0
  -22.9120  -15.0690   20.6930 O   0  0  0  0  0  0  0  0  0  0  0  0
  -22.9710  -12.4260   22.3910 H   0  0  0  0  0  0  0  0  0  0  0  0
  -21.6410  -13.5110   22.1430 H   0  0  0  0  0  0  0  0  0  0  0  0
  -25.9900  -15.8670   20.7700 N   0  0  0  0  0  0  0  0  0  0  0  0
  -25.1970  -16.4920   20.8640 H   0  0  0  0  0  0  0  0  0  0  0  0
  -26.8570  -16.3690   20.6350 H   0  0  0  0  0  0  0  0  0  0  0  0
  -24.8240  -20.0070   15.4940 O   0  0  0  0  0  0  0  0  0  0  0  0
  -25.0780  -19.5390   16.8130 C   0  0  0  0  0  2  0  0  0  0  0  0
  -26.3290  -20.2310   17.3690 C   0  0  0  0  0  2  0  0  0  0  0  0
  -26.3610  -20.2100   18.9050 C   0  0  0  0  0  2  0  0  0  0  0  0
  -27.7550  -20.4550   19.4940 C   0  0  0  0  0  2  0  0  0  0  0  0
  -27.6000  -20.8650   20.8450 O   0  0  0  0  0  0  0  0  0  0  0  0
  -28.8210  -20.8530   21.5760 C   0  0  0  0  0  2  0  0  0  0  0  0
  -29.0850  -22.2480   22.1680 C   0  0  0  0  0  2  0  0  0  0  0  0
  -29.3200  -23.1850   21.1200 O   0  0  0  0  0  0  0  0  0  0  0  0
  -29.7840  -24.4420   21.6160 C   0  0  0  0  0  2  0  0  0  0  0  0
  -29.3950  -25.5820   20.6670 C   0  0  0  0  0  0  0  0  0  0  0  0
  -29.3720  -25.4330   19.4400 O   0  0  0  0  0  0  0  0  0  0  0  0
  -29.0360  -26.7010   21.3460 O   0  0  0  0  0  0  0  0  0  0  0  0
  -24.7960  -31.9210   23.6390 C   0  0  0  0  0  0  0  0  0  0  0  0
  -27.8330  -27.3510   21.1600 C   0  0  0  0  0  0  0  0  0  0  0  0
  -23.7600  -30.3030   22.0820 C   0  0  0  0  0  3  0  0  0  0  0  0
  -25.3680  -28.7170   20.9000 C   0  0  0  0  0  0  0  0  0  0  0  0
  -26.2760  -30.7750   21.9910 C   0  0  0  0  0  2  0  0  0  0  0  0
  -26.4630  -29.3570   21.4940 C   0  0  0  0  0  0  0  0  0  0  0  0
  -27.6970  -28.6810   21.6200 C   0  0  0  0  0  3  0  0  0  0  0  0
  -26.7100  -26.7170   20.5760 C   0  0  0  0  0  3  0  0  0  0  0  0
  -25.4850  -27.3950   20.4410 C   0  0  0  0  0  3  0  0  0  0  0  0
  -24.0860  -29.5080   20.7890 C   0  0  0  0  0  2  0  0  0  0  0  0
  -24.9570  -31.0210   22.6280 N   0  0  0  0  0  0  0  0  0  0  0  0
  -23.6710  -32.1900   24.0840 O   0  0  0  0  0  0  0  0  0  0  0  0
  -23.1020  -29.3470   23.1010 C   0  0  0  0  0  0  0  0  0  0  0  0
  -21.8660  -28.9140   22.8000 N   0  0  0  0  0  0  0  0  0  0  0  0
  -23.7040  -28.9900   24.1180 O   0  0  0  0  0  0  0  0  0  0  0  0
  -21.4420  -29.2500   21.9470 H   0  0  0  0  0  0  0  0  0  0  0  0
  -18.7040  -27.1670   22.9110 C   0  0  0  0  0  0  0  0  0  0  0  0
  -21.0620  -27.9820   23.5890 C   0  0  0  0  0  3  0  0  0  0  0  0
  -21.5220  -26.5240   23.3600 C   0  0  0  0  0  2  0  0  0  0  0  0
  -20.7370  -25.8100   22.2550 C   0  0  0  0  0  2  0  0  0  0  0  0
  -19.2410  -25.7840   22.5860 C   0  0  0  0  0  2  0  0  0  0  0  0
  -19.5610  -28.2030   23.3670 C   0  0  0  0  0  0  0  0  0  0  0  0
  -19.0140  -29.4800   23.6230 C   0  0  0  0  0  3  0  0  0  0  0  0
  -17.6440  -29.7280   23.4270 C   0  0  0  0  0  3  0  0  0  0  0  0
  -16.7970  -28.6940   22.9910 C   0  0  0  0  0  3  0  0  0  0  0  0
  -17.3260  -27.4140   22.7420 C   0  0  0  0  0  3  0  0  0  0  0  0
  -26.0100  -32.6730   24.2670 C   0  0  0  0  0  3  0  0  0  0  0  0
  -25.6290  -34.0830   24.4120 N   0  0  0  0  0  0  0  0  0  0  0  0
  -25.9570  -35.0490   23.5440 C   0  0  0  0  0  0  0  0  0  0  0  0
  -26.6830  -34.8540   22.5660 O   0  0  0  0  0  0  0  0  0  0  0  0
  -24.9900  -34.3040   25.1620 H   0  0  0  0  0  0  0  0  0  0  0  0
  -24.1490  -36.6780   22.9200 C   0  0  0  0  0  1  0  0  0  0  0  0
  -25.3890  -36.4580   23.8010 C   0  0  0  0  0  3  0  0  0  0  0  0
  -27.4670  -37.5480   24.5310 C   0  0  0  0  0  1  0  0  0  0  0  0
  -26.3720  -37.5400   23.5630 N   0  0  0  0  0  0  0  0  0  0  0  0
  -25.9180  -38.4490   23.5890 H   0  0  0  0  0  0  0  0  0  0  0  0
  -26.4630  -32.0740   25.6530 C   0  0  1  0  0  0  0  0  0  0  0  0
  -25.2950  -31.8400   26.6400 C   0  0  0  0  0  1  0  0  0  0  0  0
  -27.1890  -30.7230   25.4490 C   0  0  0  0  0  1  0  0  0  0  0  0
  -27.4810  -33.0260   26.3260 C   0  0  0  0  0  1  0  0  0  0  0  0
  1 54  1  0
  2  1  1  0
  2  3  1  0
  4  3  1  0
  4  5  1  0
  5 14  1  0
  6 12  1  0
  7  9  1  0
  8  6  2  0
 10 13  1  0
 11 15  1  0
 12  7  2  0
 13 12  1  0
 13 11  2  0
 14  8  1  0
 14 10  2  0
 15  9  2  0
 15 24  1  0
 16 24  1  0
 17 22  1  0
 18 19  1  0
 18 17  1  0
 20 19  1  0
 20 29  1  0
 20 21  1  0
 22 21  1  0
 22 16  1  0
 23 16  2  0
 24 25  1  0
 26 27  2  0
 27 46  1  0
 28 31  1  0
 28 27  1  0
 29 30  1  0
 29 26  1  0
 30 28  2  0
 31 32  1  0
 33 32  2  0
 34 33  1  0
 35 36  1  0
 35 34  2  0
 36 31  2  0
 37 34  1  0
 37 38  1  0
 38 43  2  0
 38 39  1  0
 39 40  2  0
 40 41  1  0
 41 45  1  0
 42 41  2  0
 43 42  1  0
 44 43  1  0
 46 47  1  0
 47 50  1  0
 47 49  1  0
 48 46  2  0
 51 26  1  0
 51 52  1  0
 53 51  1  0
 54 55  1  0
 55 56  1  0
 56 57  1  0
 57 58  1  0
 58 59  1  0
 59 60  1  0
 60 61  1  0
 62 63  1  0
 62 61  1  0
 64 66  1  0
 64 63  1  0
 65 64  2  0
 67 78  2  0
 68 66  1  0
 68 73  1  0
 69 77  1  0
 69 79  1  0
 70 72  1  0
 71 77  1  0
 72 73  2  0
 72 71  1  0
 74 68  2  0
 75 74  1  0
 75 70  2  0
 76 70  1  0
 76 69  1  0
 77 67  1  0
 79 81  2  0
 80 79  1  0
 82 80  1  0
 83 88  1  0
 84 80  1  0
 85 84  1  0
 86 87  1  0
 86 85  1  0
 87 83  1  0
 88 84  1  0
 88 89  2  0
 90 89  1  0
 91 90  2  0
 92 83  2  0
 92 91  1  0
 93 67  1  0
 93 94  1  0
 93103  1  0
 94 97  1  0
 95 99  1  0
 95 94  1  0
 96 95  2  0
 99 98  1  0
101102  1  0
101 99  1  0
101100  1  0
103106  1  1
103104  1  0
105103  1  0
M  ISO  4  16 100  24 100  64 101  66 101
M  END
>  <TORSDO>  (79) 
F 32

>  <SCORE>  (79) 
-0.293

>  <name>  (79) 
81

>  <ligand_id>  (79) 
81

>  <original_smiles>  (79) 
[H]c1c([H])c([H])c2c(c1[H])C([H])([H])C([H])([H])C([H])([H])C2([H])N([H])C(=O)C1([H])N(C(=O)C([H])(N([H])C(=O)C([H])(N([H])C([H])([H])[H])C([H])([H])[H])C(C([H])([H])[H])(C([H])([H])[H])C([H])([H])[H])C([H])([H])c2c([H])c(OC(=O)C([H])([H])OC([H])([H])C([H])([H])OC([H])([H])C([H])([H])C([H])([H])C([H])([H])OC([H])([H])C([H])([H])OC([H])([H])C([H])([H])c3c([H])c([H])c4c([H])c([H])c(N([H])C(=O)N5C([H])([H])C([H])([H])C([H])([H])C([H])(n6nc(-c7c([H])c([H])c(Oc8c([H])c([H])c(F)c([H])c8F)c([H])c7[H])c(C(=O)N([H])[H])c6N([H])[H])C5([H])[H])c([H])c4c3[H])c([H])c([H])c2C1([H])[H]

>  <smiles>  (79) 
[H]c1c([H])c([H])c2c(c1[H])C([H])([H])C([H])([H])C([H])([H])C2([H])N([H])C(=O)C1([H])N(C(=O)C([H])(N([H])C(=O)C([H])(N([H])C([H])([H])[H])C([H])([H])[H])C(C([H])([H])[H])(C([H])([H])[H])C([H])([H])[H])C([H])([H])c2c([H])c(OC(=O)C([H])([H])OC([H])([H])C([H])([H])OC([H])([H])C([H])([H])C([H])([H])C([H])([H])OC([H])([H])C([H])([H])OC([H])([H])C([H])([H])c3c([H])c([H])c4c([H])c([H])c(N([H])C(=O)N5C([H])([H])C([H])([H])C([H])([H])C([H])(n6nc(-c7c([H])c([H])c(Oc8c([H])c([H])c(F)c([H])c8F)c([H])c7[H])c(C(=O)N([H])[H])c6N([H])[H])C5([H])[H])c([H])c4c3[H])c([H])c([H])c2C1([H])[H]

$$$$
82:0:0
     RDKit          3D

114122  0  0  1  0  0  0  0  0999 V2000
  -28.2550  -20.7360   16.6520 C   0  0  0  0  0  0  0  0  0  0  0  0
  -29.1710  -21.3960   17.3760 N   0  0  0  0  0  0  0  0  0  0  0  0
  -28.1340  -20.8820   15.4310 O   0  0  0  0  0  0  0  0  0  0  0  0
  -29.2860  -21.1670   18.3560 H   0  0  0  0  0  0  0  0  0  0  0  0
  -29.9260  -22.5600   16.9470 C   0  0  0  0  0  2  0  0  0  0  0  0
  -31.2360  -22.6880   17.7520 C   0  0  0  0  0  2  0  0  0  0  0  0
  -31.0630  -22.7040   19.1740 O   0  0  0  0  0  0  0  0  0  0  0  0
  -32.2130  -23.2530   19.8300 C   0  0  0  0  0  2  0  0  0  0  0  0
  -32.6900  -22.5140   21.1010 C   0  0  0  0  0  2  0  0  0  0  0  0
  -33.1350  -21.1830   20.8500 O   0  0  0  0  0  0  0  0  0  0  0  0
  -32.8080  -20.3050   21.9320 C   0  0  0  0  0  2  0  0  0  0  0  0
  -32.5730  -18.8940   21.3990 C   0  0  0  0  0  2  0  0  0  0  0  0
  -32.0410  -19.0540   20.0920 O   0  0  0  0  0  0  0  0  0  0  0  0
  -31.4210  -17.8810   19.6050 C   0  0  0  0  0  2  0  0  0  0  0  0
  -31.6730  -17.7220   18.0990 C   0  0  0  0  0  2  0  0  0  0  0  0
  -33.0670  -17.4750   17.9430 O   0  0  0  0  0  0  0  0  0  0  0  0
  -33.4020  -16.7550   16.7710 C   0  0  0  0  0  2  0  0  0  0  0  0
  -34.9360  -16.7790   16.6360 C   0  0  0  0  0  2  0  0  0  0  0  0
  -35.6440  -15.8020   17.4070 O   0  0  0  0  0  0  0  0  0  0  0  0
  -35.9130  -16.0810   18.7850 C   0  0  0  0  0  2  0  0  0  0  0  0
  -37.2990  -15.4860   19.1480 C   0  0  0  0  0  2  0  0  0  0  0  0
  -37.7110  -13.1770   18.3030 C   0  0  0  0  0  0  0  0  0  0  0  0
  -36.9640  -11.2250   16.9980 C   0  0  0  0  0  2  0  0  0  0  0  0
  -35.7570  -11.6540   16.1320 C   0  0  0  0  0  2  0  0  0  0  0  0
  -34.4180  -11.6000   16.8970 C   0  0  0  0  0  2  0  0  0  0  0  0
  -34.5210  -12.2530   18.2950 C   0  0  0  0  0  3  0  0  0  0  0  0
  -35.7790  -11.7590   19.0430 C   0  0  0  0  0  2  0  0  0  0  0  0
  -36.9570  -12.0540   18.2080 N   0  0  0  0  0  0  0  0  0  0  0  0
  -38.6620  -13.4490   17.5650 O   0  0  0  0  0  0  0  0  0  0  0  0
  -37.2200  -14.0340   19.2020 N   0  0  0  0  0  0  0  0  0  0  0  0
  -36.4620  -13.6430   19.7440 H   0  0  0  0  0  0  0  0  0  0  0  0
  -32.3330  -12.9220   19.4440 C   0  0  0  0  0  0  0  0  0  0  0  0
  -31.3790  -12.1950   20.1130 C   0  0  0  0  0  0  0  0  0  0  0  0
  -31.8780  -10.8650   20.1490 C   0  0  0  0  0  0  0  0  0  0  0  0
  -33.3200  -12.0270   19.0880 N   0  0  0  0  0  0  0  0  0  0  0  0
  -33.0710  -10.7900   19.5760 N   0  0  0  0  0  0  0  0  0  0  0  0
  -31.2680   -9.6340   20.6470 C   0  0  0  0  0  0  0  0  0  0  0  0
  -32.0460   -8.6570   21.2970 C   0  0  0  0  0  3  0  0  0  0  0  0
  -31.4440   -7.4820   21.7900 C   0  0  0  0  0  3  0  0  0  0  0  0
  -30.0510   -7.2870   21.6340 C   0  0  0  0  0  0  0  0  0  0  0  0
  -29.2860   -8.2570   20.9650 C   0  0  0  0  0  3  0  0  0  0  0  0
  -29.8900   -9.4210   20.4720 C   0  0  0  0  0  3  0  0  0  0  0  0
  -29.3720   -6.1720   22.0500 O   0  0  0  0  0  0  0  0  0  0  0  0
  -29.9780   -5.2180   22.8190 C   0  0  0  0  0  0  0  0  0  0  0  0
  -31.2390   -5.4250   23.4190 C   0  0  0  0  0  3  0  0  0  0  0  0
  -31.7860   -4.4350   24.2580 C   0  0  0  0  0  3  0  0  0  0  0  0
  -31.0710   -3.2450   24.5030 C   0  0  0  0  0  0  0  0  0  0  0  0
  -29.8140   -3.0430   23.9070 C   0  0  0  0  0  3  0  0  0  0  0  0
  -29.2680   -4.0290   23.0710 C   0  0  0  0  0  0  0  0  0  0  0  0
  -28.0460   -3.8400   22.5180 F   0  0  0  0  0  0  0  0  0  0  0  0
  -31.5900   -2.2980   25.3180 F   0  0  0  0  0  0  0  0  0  0  0  0
  -30.0530  -12.7000   20.5880 C   0  0  0  0  0  0  0  0  0  0  0  0
  -29.5080  -12.0720   21.6270 N   0  0  0  0  0  0  0  0  0  0  0  0
  -29.5080  -13.6740   20.0790 O   0  0  0  0  0  0  0  0  0  0  0  0
  -29.9660  -11.2890   22.0640 H   0  0  0  0  0  0  0  0  0  0  0  0
  -28.6230  -12.3980   21.9840 H   0  0  0  0  0  0  0  0  0  0  0  0
  -32.4250  -14.2450   19.0970 N   0  0  0  0  0  0  0  0  0  0  0  0
  -31.6770  -14.9080   19.2590 H   0  0  0  0  0  0  0  0  0  0  0  0
  -33.1640  -14.6170   18.5100 H   0  0  0  0  0  0  0  0  0  0  0  0
  -27.4000  -19.7340   17.4440 C   0  0  0  0  0  2  0  0  0  0  0  0
  -25.9870  -20.2620   17.8540 C   0  0  0  0  0  2  0  0  0  0  0  0
  -26.5200  -21.5110   20.0450 C   0  0  0  0  0  3  0  0  0  0  0  0
  -25.4620  -22.7040   18.2050 C   0  0  0  0  0  3  0  0  0  0  0  0
  -26.6210  -22.7130   20.7740 C   0  0  0  0  0  3  0  0  0  0  0  0
  -25.4070  -23.8370   19.0200 C   0  0  0  0  0  3  0  0  0  0  0  0
  -26.0020  -21.5150   18.7270 C   0  0  0  0  0  0  0  0  0  0  0  0
  -26.0760  -23.9080   20.2600 C   0  0  0  0  0  0  0  0  0  0  0  0
  -25.0880  -25.3020   21.9070 C   0  0  0  0  0  0  0  0  0  0  0  0
  -23.6570  -24.9190   21.4770 C   0  0  0  0  0  1  0  0  0  0  0  0
  -26.1120  -25.1050   21.0490 N   0  0  0  0  0  0  0  0  0  0  0  0
  -25.2800  -25.6940   23.0660 O   0  0  0  0  0  0  0  0  0  0  0  0
  -27.3790  -25.8570   21.3090 C   0  0  0  0  0  2  0  0  0  0  0  0
  -28.2760  -26.1510   20.0820 C   0  0  0  0  0  2  0  0  0  0  0  0
  -28.4530  -27.5700   19.8540 O   0  0  0  0  0  0  0  0  0  0  0  0
  -24.5160  -32.1660   23.5360 C   0  0  0  0  0  0  0  0  0  0  0  0
  -27.3190  -28.3580   19.8820 C   0  0  0  0  0  0  0  0  0  0  0  0
  -23.3210  -30.9640   21.7220 C   0  0  0  0  0  3  0  0  0  0  0  0
  -24.8490  -29.7480   20.0490 C   0  0  0  0  0  0  0  0  0  0  0  0
  -25.8270  -31.4610   21.5560 C   0  0  0  0  0  2  0  0  0  0  0  0
  -25.9740  -30.1920   20.7630 C   0  0  0  0  0  0  0  0  0  0  0  0
  -27.1950  -29.4730   20.7310 C   0  0  0  0  0  3  0  0  0  0  0  0
  -26.2500  -28.0540   19.0440 C   0  0  0  0  0  3  0  0  0  0  0  0
  -24.9970  -28.6820   19.1480 C   0  0  0  0  0  3  0  0  0  0  0  0
  -23.5340  -30.4850   20.2530 C   0  0  0  0  0  2  0  0  0  0  0  0
  -24.5740  -31.5340   22.3320 N   0  0  0  0  0  0  0  0  0  0  0  0
  -23.4400  -32.3130   24.1300 O   0  0  0  0  0  0  0  0  0  0  0  0
  -22.7400  -29.7880   22.5370 C   0  0  0  0  0  0  0  0  0  0  0  0
  -21.4140  -29.5930   22.4470 N   0  0  0  0  0  0  0  0  0  0  0  0
  -23.4750  -29.0660   23.2120 O   0  0  0  0  0  0  0  0  0  0  0  0
  -20.8680  -30.2390   21.8910 H   0  0  0  0  0  0  0  0  0  0  0  0
  -18.1280  -28.1410   22.7660 C   0  0  0  0  0  0  0  0  0  0  0  0
  -20.6690  -28.5050   23.0680 C   0  0  0  0  0  3  0  0  0  0  0  0
  -20.8720  -27.1880   22.2730 C   0  0  0  0  0  2  0  0  0  0  0  0
  -19.7420  -26.9060   21.2640 C   0  0  0  0  0  2  0  0  0  0  0  0
  -18.3510  -26.8990   21.9130 C   0  0  0  0  0  2  0  0  0  0  0  0
  -19.2070  -28.8990   23.2910 C   0  0  0  0  0  0  0  0  0  0  0  0
  -18.9320  -30.0660   24.0360 C   0  0  0  0  0  3  0  0  0  0  0  0
  -17.6120  -30.4770   24.2770 C   0  0  0  0  0  3  0  0  0  0  0  0
  -16.5450  -29.7250   23.7570 C   0  0  0  0  0  3  0  0  0  0  0  0
  -16.8070  -28.5700   23.0070 C   0  0  0  0  0  3  0  0  0  0  0  0
  -25.7960  -32.7640   24.2120 C   0  0  0  0  0  3  0  0  0  0  0  0
  -25.5430  -34.1830   24.4830 N   0  0  0  0  0  0  0  0  0  0  0  0
  -25.9750  -35.1950   23.7140 C   0  0  0  0  0  0  0  0  0  0  0  0
  -26.6970  -35.0210   22.7270 O   0  0  0  0  0  0  0  0  0  0  0  0
  -24.9420  -34.3920   25.2690 H   0  0  0  0  0  0  0  0  0  0  0  0
  -24.3610  -37.0410   23.1800 C   0  0  0  0  0  1  0  0  0  0  0  0
  -25.5300  -36.6210   24.0880 C   0  0  0  0  0  3  0  0  0  0  0  0
  -27.6670  -37.4380   24.9920 C   0  0  0  0  0  1  0  0  0  0  0  0
  -26.6200  -37.6190   23.9870 N   0  0  0  0  0  0  0  0  0  0  0  0
  -26.2600  -38.5640   24.0740 H   0  0  0  0  0  0  0  0  0  0  0  0
  -26.2240  -32.0060   25.5270 C   0  0  1  0  0  0  0  0  0  0  0  0
  -25.0790  -31.8100   26.5490 C   0  0  0  0  0  1  0  0  0  0  0  0
  -26.7940  -30.6080   25.1950 C   0  0  0  0  0  1  0  0  0  0  0  0
  -27.3650  -32.7750   26.2380 C   0  0  0  0  0  1  0  0  0  0  0  0
  1  2  1  0
  1 60  1  0
  2  4  1  0
  3  1  2  0
  5  2  1  0
  5  6  1  0
  6  7  1  0
  7  8  1  0
  8  9  1  0
 10  9  1  0
 10 11  1  0
 12 11  1  0
 13 12  1  0
 14 13  1  0
 15 14  1  0
 16 15  1  0
 17 16  1  0
 18 17  1  0
 18 19  1  0
 19 20  1  0
 20 21  1  0
 21 30  1  0
 22 30  1  0
 23 28  1  0
 24 25  1  0
 24 23  1  0
 26 25  1  0
 26 27  1  0
 26 35  1  0
 28 22  1  0
 28 27  1  0
 29 22  2  0
 30 31  1  0
 32 33  2  0
 33 34  1  0
 33 52  1  0
 34 37  1  0
 35 32  1  0
 35 36  1  0
 36 34  2  0
 37 38  1  0
 38 39  2  0
 40 39  1  0
 40 43  1  0
 41 40  2  0
 42 37  2  0
 42 41  1  0
 43 44  1  0
 44 49  2  0
 44 45  1  0
 45 46  2  0
 46 47  1  0
 47 51  1  0
 48 47  2  0
 49 48  1  0
 50 49  1  0
 52 53  1  0
 53 56  1  0
 53 55  1  0
 54 52  2  0
 57 58  1  0
 57 32  1  0
 59 57  1  0
 60 61  1  0
 61 66  1  0
 62 64  1  0
 63 66  1  0
 63 65  2  0
 65 67  1  0
 66 62  2  0
 67 64  2  0
 67 70  1  0
 68 71  2  0
 69 68  1  0
 70 72  1  0
 70 68  1  0
 73 72  1  0
 74 76  1  0
 74 73  1  0
 75 86  2  0
 76 81  1  0
 77 85  1  0
 77 87  1  0
 78 84  1  0
 78 80  1  0
 79 85  1  0
 80 79  1  0
 81 80  2  0
 82 83  1  0
 82 76  2  0
 83 78  2  0
 84 77  1  0
 85 75  1  0
 87 89  2  0
 88 87  1  0
 90 88  1  0
 91100  2  0
 91 96  1  0
 92 88  1  0
 92 96  1  0
 93 92  1  0
 94 95  1  0
 94 93  1  0
 95 91  1  0
 96 97  2  0
 97 98  1  0
 99 98  2  0
100 99  1  0
101 75  1  0
101102  1  0
101111  1  0
102105  1  0
103107  1  0
103102  1  0
104103  2  0
107106  1  0
109110  1  0
109107  1  0
109108  1  0
111114  1  1
111112  1  0
113111  1  0
M  ISO  4  22 100  30 100  73 101  74 101
M  END
>  <TORSDO>  (80) 
F 39

>  <SCORE>  (80) 
-4.558

>  <name>  (80) 
82

>  <ligand_id>  (80) 
82

>  <original_smiles>  (80) 
[H]c1c([H])c([H])c2c(c1[H])C([H])([H])C([H])([H])C([H])([H])C2([H])N([H])C(=O)C1([H])N(C(=O)C([H])(N([H])C(=O)C([H])(N([H])C([H])([H])[H])C([H])([H])[H])C(C([H])([H])[H])(C([H])([H])[H])C([H])([H])[H])C([H])([H])c2c([H])c(OC([H])([H])C([H])([H])N(C(=O)C([H])([H])[H])c3c([H])c([H])c(C([H])([H])C([H])([H])C(=O)N([H])C([H])([H])C([H])([H])OC([H])([H])C([H])([H])OC([H])([H])C([H])([H])OC([H])([H])C([H])([H])OC([H])([H])C([H])([H])OC([H])([H])C([H])([H])N([H])C(=O)N4C([H])([H])C([H])([H])C([H])([H])C([H])(n5nc(-c6c([H])c([H])c(Oc7c([H])c([H])c(F)c([H])c7F)c([H])c6[H])c(C(=O)N([H])[H])c5N([H])[H])C4([H])[H])c([H])c3[H])c([H])c([H])c2C1([H])[H]

>  <smiles>  (80) 
[H]c1c([H])c([H])c2c(c1[H])C([H])([H])C([H])([H])C([H])([H])C2([H])N([H])C(=O)C1([H])N(C(=O)C([H])(N([H])C(=O)C([H])(N([H])C([H])([H])[H])C([H])([H])[H])C(C([H])([H])[H])(C([H])([H])[H])C([H])([H])[H])C([H])([H])c2c([H])c(OC([H])([H])C([H])([H])N(C(=O)C([H])([H])[H])c3c([H])c([H])c(C([H])([H])C([H])([H])C(=O)N([H])C([H])([H])C([H])([H])OC([H])([H])C([H])([H])OC([H])([H])C([H])([H])OC([H])([H])C([H])([H])OC([H])([H])C([H])([H])OC([H])([H])C([H])([H])N([H])C(=O)N4C([H])([H])C([H])([H])C([H])([H])C([H])(n5nc(-c6c([H])c([H])c(Oc7c([H])c([H])c(F)c([H])c7F)c([H])c6[H])c(C(=O)N([H])[H])c5N([H])[H])C4([H])[H])c([H])c3[H])c([H])c([H])c2C1([H])[H]

$$$$
83:0:0
     RDKit          3D

 95102  0  0  1  0  0  0  0  0999 V2000
  -27.6940  -19.9560   17.3970 C   0  0  0  0  0  2  0  0  0  0  0  0
  -28.3740  -18.8250   16.8730 O   0  0  0  0  0  0  0  0  0  0  0  0
  -28.5720  -17.8280   17.8690 C   0  0  0  0  0  2  0  0  0  0  0  0
  -29.6490  -16.8360   17.3990 C   0  0  0  0  0  2  0  0  0  0  0  0
  -30.8500  -17.4920   16.9960 O   0  0  0  0  0  0  0  0  0  0  0  0
  -31.9310  -17.4410   17.9210 C   0  0  0  0  0  2  0  0  0  0  0  0
  -31.7670  -18.4330   19.0820 C   0  0  0  0  0  2  0  0  0  0  0  0
  -30.9700  -17.8030   20.0730 O   0  0  0  0  0  0  0  0  0  0  0  0
  -31.3610  -18.0990   21.4040 C   0  0  0  0  0  2  0  0  0  0  0  0
  -30.5220  -17.2450   22.3730 C   0  0  0  0  0  2  0  0  0  0  0  0
  -30.9070  -15.0350   21.1640 C   0  0  0  0  0  0  0  0  0  0  0  0
  -30.7060  -13.0410   19.7250 C   0  0  0  0  0  2  0  0  0  0  0  0
  -29.8390  -13.3720   18.4960 C   0  0  0  0  0  2  0  0  0  0  0  0
  -28.3390  -13.1960   18.8070 C   0  0  0  0  0  2  0  0  0  0  0  0
  -27.9110  -13.8670   20.1390 C   0  0  0  0  0  3  0  0  0  0  0  0
  -28.8990  -13.5150   21.2730 C   0  0  0  0  0  2  0  0  0  0  0  0
  -30.2500  -13.8960   20.8290 N   0  0  0  0  0  0  0  0  0  0  0  0
  -32.0440  -15.3000   20.7630 O   0  0  0  0  0  0  0  0  0  0  0  0
  -30.1860  -15.8930   21.8980 N   0  0  0  0  0  0  0  0  0  0  0  0
  -29.2560  -15.5750   22.1250 H   0  0  0  0  0  0  0  0  0  0  0  0
  -25.4530  -14.3640   20.7280 C   0  0  0  0  0  0  0  0  0  0  0  0
  -24.3800  -13.5420   20.9530 C   0  0  0  0  0  0  0  0  0  0  0  0
  -24.8730  -12.2080   20.8310 C   0  0  0  0  0  0  0  0  0  0  0  0
  -26.5330  -13.5250   20.4940 N   0  0  0  0  0  0  0  0  0  0  0  0
  -26.1810  -12.2180   20.6070 N   0  0  0  0  0  0  0  0  0  0  0  0
  -24.1630  -10.9210   20.8600 C   0  0  0  0  0  0  0  0  0  0  0  0
  -24.5660   -9.8730   21.7180 C   0  0  0  0  0  3  0  0  0  0  0  0
  -23.8570   -8.6530   21.7400 C   0  0  0  0  0  3  0  0  0  0  0  0
  -22.7300   -8.4720   20.9030 C   0  0  0  0  0  0  0  0  0  0  0  0
  -22.3470   -9.5090   20.0350 C   0  0  0  0  0  3  0  0  0  0  0  0
  -23.0580  -10.7200   20.0090 C   0  0  0  0  0  3  0  0  0  0  0  0
  -21.9960   -7.3120   20.8380 O   0  0  0  0  0  0  0  0  0  0  0  0
  -21.8810   -6.4720   21.9160 C   0  0  0  0  0  0  0  0  0  0  0  0
  -21.3950   -6.9200   23.1640 C   0  0  0  0  0  3  0  0  0  0  0  0
  -21.2270   -6.0060   24.2230 C   0  0  0  0  0  3  0  0  0  0  0  0
  -21.5390   -4.6470   24.0370 C   0  0  0  0  0  0  0  0  0  0  0  0
  -22.0200   -4.1980   22.7940 C   0  0  0  0  0  3  0  0  0  0  0  0
  -22.1880   -5.1080   21.7360 C   0  0  0  0  0  0  0  0  0  0  0  0
  -22.6310   -4.6660   20.5350 F   0  0  0  0  0  0  0  0  0  0  0  0
  -21.3710   -3.7670   25.0520 F   0  0  0  0  0  0  0  0  0  0  0  0
  -22.9580  -13.9690   21.1770 C   0  0  0  0  0  0  0  0  0  0  0  0
  -22.1950  -13.1920   21.9390 N   0  0  0  0  0  0  0  0  0  0  0  0
  -22.5280  -15.0260   20.7150 O   0  0  0  0  0  0  0  0  0  0  0  0
  -22.5490  -12.3320   22.3320 H   0  0  0  0  0  0  0  0  0  0  0  0
  -21.2410  -13.4630   22.1310 H   0  0  0  0  0  0  0  0  0  0  0  0
  -25.5940  -15.7480   20.6890 N   0  0  0  0  0  0  0  0  0  0  0  0
  -24.8050  -16.3740   20.8150 H   0  0  0  0  0  0  0  0  0  0  0  0
  -26.4600  -16.2410   20.5080 H   0  0  0  0  0  0  0  0  0  0  0  0
  -27.6980  -21.0910   16.3670 C   0  0  0  0  0  2  0  0  0  0  0  0
  -27.0710  -22.3680   16.9340 C   0  0  0  0  0  2  0  0  0  0  0  0
  -27.8600  -22.8490   18.0190 O   0  0  0  0  0  0  0  0  0  0  0  0
  -27.0960  -23.6500   18.9050 C   0  0  0  0  0  2  0  0  0  0  0  0
  -27.9980  -24.4640   19.8510 C   0  0  0  0  0  2  0  0  0  0  0  0
  -28.5510  -25.7670   19.2300 C   0  0  0  0  0  2  0  0  0  0  0  0
  -28.4310  -26.8990   20.1030 O   0  0  0  0  0  0  0  0  0  0  0  0
  -24.6170  -32.0100   23.2670 C   0  0  0  0  0  0  0  0  0  0  0  0
  -27.2310  -27.5850   20.1430 C   0  0  0  0  0  0  0  0  0  0  0  0
  -23.3870  -30.5980   21.6550 C   0  0  0  0  0  3  0  0  0  0  0  0
  -24.8200  -29.0720   20.2160 C   0  0  0  0  0  0  0  0  0  0  0  0
  -25.9060  -30.9760   21.4020 C   0  0  0  0  0  2  0  0  0  0  0  0
  -25.9880  -29.6020   20.7740 C   0  0  0  0  0  0  0  0  0  0  0  0
  -27.1940  -28.8660   20.7430 C   0  0  0  0  0  3  0  0  0  0  0  0
  -26.0310  -27.0700   19.5980 C   0  0  0  0  0  3  0  0  0  0  0  0
  -24.8330  -27.8000   19.6300 C   0  0  0  0  0  3  0  0  0  0  0  0
  -23.5770  -29.9240   20.2730 C   0  0  0  0  0  2  0  0  0  0  0  0
  -24.6570  -31.2060   22.1680 N   0  0  0  0  0  0  0  0  0  0  0  0
  -23.5440  -32.2790   23.8240 O   0  0  0  0  0  0  0  0  0  0  0  0
  -22.7570  -29.5710   22.6270 C   0  0  0  0  0  0  0  0  0  0  0  0
  -21.4370  -29.3590   22.5020 N   0  0  0  0  0  0  0  0  0  0  0  0
  -23.4520  -28.9720   23.4510 O   0  0  0  0  0  0  0  0  0  0  0  0
  -20.9320  -29.9000   21.8140 H   0  0  0  0  0  0  0  0  0  0  0  0
  -18.0930  -28.0710   22.9700 C   0  0  0  0  0  0  0  0  0  0  0  0
  -20.6350  -28.4170   23.2840 C   0  0  0  0  0  3  0  0  0  0  0  0
  -20.7920  -26.9730   22.7530 C   0  0  0  0  0  2  0  0  0  0  0  0
  -19.7200  -26.5860   21.7290 C   0  0  0  0  0  2  0  0  0  0  0  0
  -18.3220  -26.7080   22.3400 C   0  0  0  0  0  2  0  0  0  0  0  0
  -19.1780  -28.8810   23.3980 C   0  0  0  0  0  0  0  0  0  0  0  0
  -18.9080  -30.1550   23.9410 C   0  0  0  0  0  3  0  0  0  0  0  0
  -17.5850  -30.6210   24.0640 C   0  0  0  0  0  3  0  0  0  0  0  0
  -16.5130  -29.8080   23.6540 C   0  0  0  0  0  3  0  0  0  0  0  0
  -16.7690  -28.5350   23.1130 C   0  0  0  0  0  3  0  0  0  0  0  0
  -25.9110  -32.6470   23.8630 C   0  0  0  0  0  3  0  0  0  0  0  0
  -25.6050  -34.0480   24.1840 N   0  0  0  0  0  0  0  0  0  0  0  0
  -25.9190  -35.0910   23.4050 C   0  0  0  0  0  0  0  0  0  0  0  0
  -26.5720  -34.9790   22.3630 O   0  0  0  0  0  0  0  0  0  0  0  0
  -25.0290  -34.2110   24.9960 H   0  0  0  0  0  0  0  0  0  0  0  0
  -24.1720  -36.8680   23.0650 C   0  0  0  0  0  1  0  0  0  0  0  0
  -25.4320  -36.4820   23.8550 C   0  0  0  0  0  3  0  0  0  0  0  0
  -27.5850  -37.3830   24.6220 C   0  0  0  0  0  1  0  0  0  0  0  0
  -26.4560  -37.5390   23.7070 N   0  0  0  0  0  0  0  0  0  0  0  0
  -26.0490  -38.4580   23.8600 H   0  0  0  0  0  0  0  0  0  0  0  0
  -26.4510  -31.8830   25.1320 C   0  0  1  0  0  0  0  0  0  0  0  0
  -25.3770  -31.6480   26.2190 C   0  0  0  0  0  1  0  0  0  0  0  0
  -27.0280  -30.5050   24.7330 C   0  0  0  0  0  1  0  0  0  0  0  0
  -27.6100  -32.6850   25.7710 C   0  0  0  0  0  1  0  0  0  0  0  0
  2  1  1  0
  2  3  1  0
  4  3  1  0
  5  4  1  0
  5  6  1  0
  6  7  1  0
  7  8  1  0
  8  9  1  0
  9 10  1  0
 11 19  1  0
 12 17  1  0
 13 14  1  0
 13 12  1  0
 15 14  1  0
 15 24  1  0
 15 16  1  0
 17 11  1  0
 17 16  1  0
 18 11  2  0
 19 20  1  0
 19 10  1  0
 21 22  2  0
 22 41  1  0
 23 26  1  0
 23 22  1  0
 24 25  1  0
 24 21  1  0
 25 23  2  0
 26 27  1  0
 27 28  2  0
 29 28  1  0
 30 29  2  0
 31 30  1  0
 31 26  2  0
 32 29  1  0
 32 33  1  0
 33 34  1  0
 34 35  2  0
 36 35  1  0
 36 40  1  0
 37 36  2  0
 38 33  2  0
 38 37  1  0
 39 38  1  0
 41 42  1  0
 42 45  1  0
 42 44  1  0
 43 41  2  0
 46 21  1  0
 46 47  1  0
 48 46  1  0
 49 50  1  0
 49  1  1  0
 50 51  1  0
 51 52  1  0
 52 53  1  0
 54 53  1  0
 54 55  1  0
 55 57  1  0
 56 67  2  0
 57 62  1  0
 58 66  1  0
 58 68  1  0
 59 65  1  0
 59 61  1  0
 60 66  1  0
 61 60  1  0
 62 61  2  0
 63 64  1  0
 63 57  2  0
 64 59  2  0
 65 58  1  0
 66 56  1  0
 68 70  2  0
 69 68  1  0
 71 69  1  0
 72 81  2  0
 72 77  1  0
 73 69  1  0
 73 77  1  0
 74 73  1  0
 75 76  1  0
 75 74  1  0
 76 72  1  0
 77 78  2  0
 78 79  1  0
 80 79  2  0
 81 80  1  0
 82 56  1  0
 82 83  1  0
 82 92  1  0
 83 86  1  0
 84 88  1  0
 84 83  1  0
 85 84  2  0
 88 87  1  0
 90 88  1  0
 90 91  1  0
 90 89  1  0
 92 95  1  1
 92 93  1  0
 94 92  1  0
M  ISO  4  11 100  19 100  54 101  55 101
M  END
>  <TORSDO>  (81) 
F 31

>  <SCORE>  (81) 
-7.467

>  <name>  (81) 
83

>  <ligand_id>  (81) 
83

>  <original_smiles>  (81) 
[H]c1c([H])c([H])c2c(c1[H])C([H])([H])C([H])([H])C([H])([H])C2([H])N([H])C(=O)C1([H])N(C(=O)C([H])(N([H])C(=O)C([H])(N([H])C([H])([H])[H])C([H])([H])[H])C(C([H])([H])[H])(C([H])([H])[H])C([H])([H])[H])C([H])([H])c2c([H])c(OC([H])([H])C([H])([H])C([H])([H])OC([H])([H])C([H])([H])C([H])([H])OC([H])([H])C([H])([H])OC([H])([H])C([H])([H])OC([H])([H])C([H])([H])N([H])C(=O)N3C([H])([H])C([H])([H])C([H])([H])C([H])(n4nc(-c5c([H])c([H])c(Oc6c([H])c([H])c(F)c([H])c6F)c([H])c5[H])c(C(=O)N([H])[H])c4N([H])[H])C3([H])[H])c([H])c([H])c2C1([H])[H]

>  <smiles>  (81) 
[H]c1c([H])c([H])c2c(c1[H])C([H])([H])C([H])([H])C([H])([H])C2([H])N([H])C(=O)C1([H])N(C(=O)C([H])(N([H])C(=O)C([H])(N([H])C([H])([H])[H])C([H])([H])[H])C(C([H])([H])[H])(C([H])([H])[H])C([H])([H])[H])C([H])([H])c2c([H])c(OC([H])([H])C([H])([H])C([H])([H])OC([H])([H])C([H])([H])C([H])([H])OC([H])([H])C([H])([H])OC([H])([H])C([H])([H])OC([H])([H])C([H])([H])N([H])C(=O)N3C([H])([H])C([H])([H])C([H])([H])C([H])(n4nc(-c5c([H])c([H])c(Oc6c([H])c([H])c(F)c([H])c6F)c([H])c5[H])c(C(=O)N([H])[H])c4N([H])[H])C3([H])[H])c([H])c([H])c2C1([H])[H]

$$$$
84:0:0
     RDKit          3D

 96104  0  0  1  0  0  0  0  0999 V2000
  -26.3640  -22.4400   21.7630 C   0  0  0  0  0  2  0  0  0  0  0  0
  -27.0710  -21.8630   20.5350 C   0  0  0  0  0  2  0  0  0  0  0  0
  -28.4460  -22.1720   20.7140 O   0  0  0  0  0  0  0  0  0  0  0  0
  -31.7610  -20.6230   20.5180 C   0  0  0  0  0  3  0  0  0  0  0  0
  -30.1380  -19.0040   19.6940 C   0  0  0  0  0  3  0  0  0  0  0  0
  -30.7230  -21.5460   20.7320 C   0  0  0  0  0  3  0  0  0  0  0  0
  -29.0980  -19.9290   19.9100 C   0  0  0  0  0  3  0  0  0  0  0  0
  -31.4720  -19.3420   20.0100 C   0  0  0  0  0  0  0  0  0  0  0  0
  -29.3880  -21.2100   20.4420 C   0  0  0  0  0  0  0  0  0  0  0  0
  -32.5910  -18.3330   19.8280 C   0  0  0  0  0  2  0  0  0  0  0  0
  -32.6840  -15.8440   19.8070 C   0  0  0  0  0  0  0  0  0  0  0  0
  -32.6490  -13.4040   20.1510 C   0  0  0  0  0  2  0  0  0  0  0  0
  -31.8900  -12.6630   19.0380 C   0  0  0  0  0  2  0  0  0  0  0  0
  -30.3830  -12.6050   19.3480 C   0  0  0  0  0  2  0  0  0  0  0  0
  -29.8010  -13.9940   19.7190 C   0  0  0  0  0  3  0  0  0  0  0  0
  -30.6740  -14.6840   20.7900 C   0  0  0  0  0  2  0  0  0  0  0  0
  -32.0680  -14.7450   20.3060 N   0  0  0  0  0  0  0  0  0  0  0  0
  -33.7010  -15.8020   19.1060 O   0  0  0  0  0  0  0  0  0  0  0  0
  -32.1650  -17.0000   20.2240 N   0  0  0  0  0  0  0  0  0  0  0  0
  -31.3790  -16.9400   20.8530 H   0  0  0  0  0  0  0  0  0  0  0  0
  -27.4660  -14.8870   20.3510 C   0  0  0  0  0  0  0  0  0  0  0  0
  -26.2980  -14.2470   20.6720 C   0  0  0  0  0  0  0  0  0  0  0  0
  -26.5920  -12.8500   20.6350 C   0  0  0  0  0  0  0  0  0  0  0  0
  -28.4050  -13.8870   20.1450 N   0  0  0  0  0  0  0  0  0  0  0  0
  -27.8780  -12.6550   20.3680 N   0  0  0  0  0  0  0  0  0  0  0  0
  -25.7110  -11.6830   20.7830 C   0  0  0  0  0  0  0  0  0  0  0  0
  -25.8810  -10.7570   21.8360 C   0  0  0  0  0  3  0  0  0  0  0  0
  -25.0100   -9.6540   21.9670 C   0  0  0  0  0  3  0  0  0  0  0  0
  -23.9550   -9.4700   21.0420 C   0  0  0  0  0  0  0  0  0  0  0  0
  -23.8050  -10.3810   19.9820 C   0  0  0  0  0  3  0  0  0  0  0  0
  -24.6760  -11.4760   19.8500 C   0  0  0  0  0  3  0  0  0  0  0  0
  -23.0780   -8.4120   21.0740 O   0  0  0  0  0  0  0  0  0  0  0  0
  -22.6120   -7.9000   22.2580 C   0  0  0  0  0  0  0  0  0  0  0  0
  -21.9130   -8.6960   23.1910 C   0  0  0  0  0  3  0  0  0  0  0  0
  -21.3920   -8.1130   24.3630 C   0  0  0  0  0  3  0  0  0  0  0  0
  -21.5580   -6.7360   24.6000 C   0  0  0  0  0  0  0  0  0  0  0  0
  -22.2490   -5.9400   23.6690 C   0  0  0  0  0  3  0  0  0  0  0  0
  -22.7720   -6.5200   22.5010 C   0  0  0  0  0  0  0  0  0  0  0  0
  -23.4180   -5.7450   21.5970 F   0  0  0  0  0  0  0  0  0  0  0  0
  -21.0510   -6.1740   25.7220 F   0  0  0  0  0  0  0  0  0  0  0  0
  -24.9620  -14.8890   20.9080 C   0  0  0  0  0  0  0  0  0  0  0  0
  -24.1370  -14.2900   21.7610 N   0  0  0  0  0  0  0  0  0  0  0  0
  -24.6590  -15.9540   20.3720 O   0  0  0  0  0  0  0  0  0  0  0  0
  -24.3930  -13.4270   22.2170 H   0  0  0  0  0  0  0  0  0  0  0  0
  -23.2370  -14.7020   21.9610 H   0  0  0  0  0  0  0  0  0  0  0  0
  -27.8030  -16.2280   20.2010 N   0  0  0  0  0  0  0  0  0  0  0  0
  -27.1220  -16.9730   20.3040 H   0  0  0  0  0  0  0  0  0  0  0  0
  -28.7220  -16.5640   19.9420 H   0  0  0  0  0  0  0  0  0  0  0  0
  -25.0170  -23.1040   21.4550 C   0  0  0  0  0  2  0  0  0  0  0  0
  -24.6510  -23.9350   22.5530 O   0  0  0  0  0  0  0  0  0  0  0  0
  -24.9370  -25.3270   22.4050 C   0  0  0  0  0  2  0  0  0  0  0  0
  -26.4350  -25.6810   22.4540 C   0  0  0  0  0  2  0  0  0  0  0  0
  -27.0380  -25.3200   21.2180 O   0  0  0  0  0  0  0  0  0  0  0  0
  -28.4340  -25.5880   21.1450 C   0  0  0  0  0  2  0  0  0  0  0  0
  -28.7850  -26.1210   19.7400 C   0  0  0  0  0  2  0  0  0  0  0  0
  -28.7390  -27.5490   19.6720 O   0  0  0  0  0  0  0  0  0  0  0  0
  -24.7570  -32.0400   23.4430 C   0  0  0  0  0  0  0  0  0  0  0  0
  -27.5150  -28.1700   19.7700 C   0  0  0  0  0  0  0  0  0  0  0  0
  -23.5660  -30.7830   21.6760 C   0  0  0  0  0  3  0  0  0  0  0  0
  -25.0450  -29.5110   20.0340 C   0  0  0  0  0  0  0  0  0  0  0  0
  -26.0590  -31.3030   21.4520 C   0  0  0  0  0  2  0  0  0  0  0  0
  -26.1910  -30.0280   20.6490 C   0  0  0  0  0  0  0  0  0  0  0  0
  -27.4280  -29.3660   20.5140 C   0  0  0  0  0  3  0  0  0  0  0  0
  -26.3520  -27.6650   19.1440 C   0  0  0  0  0  3  0  0  0  0  0  0
  -25.1190  -28.3280   19.2790 C   0  0  0  0  0  3  0  0  0  0  0  0
  -23.7610  -30.2880   20.2180 C   0  0  0  0  0  2  0  0  0  0  0  0
  -24.8140  -31.3820   22.2500 N   0  0  0  0  0  0  0  0  0  0  0  0
  -23.6840  -32.1860   24.0430 O   0  0  0  0  0  0  0  0  0  0  0  0
  -23.0010  -29.6190   22.5210 C   0  0  0  0  0  0  0  0  0  0  0  0
  -21.7010  -29.3300   22.3480 N   0  0  0  0  0  0  0  0  0  0  0  0
  -23.7280  -28.9810   23.2870 O   0  0  0  0  0  0  0  0  0  0  0  0
  -21.1700  -29.9090   21.7120 H   0  0  0  0  0  0  0  0  0  0  0  0
  -18.4730  -27.7260   22.5690 C   0  0  0  0  0  0  0  0  0  0  0  0
  -20.9660  -28.2490   23.0030 C   0  0  0  0  0  3  0  0  0  0  0  0
  -21.2650  -26.8900   22.3290 C   0  0  0  0  0  2  0  0  0  0  0  0
  -20.2540  -26.5140   21.2410 C   0  0  0  0  0  2  0  0  0  0  0  0
  -18.8370  -26.4550   21.8190 C   0  0  0  0  0  2  0  0  0  0  0  0
  -19.4730  -28.5750   23.1130 C   0  0  0  0  0  0  0  0  0  0  0  0
  -19.0820  -29.7590   23.7750 C   0  0  0  0  0  3  0  0  0  0  0  0
  -17.7220  -30.0990   23.8990 C   0  0  0  0  0  3  0  0  0  0  0  0
  -16.7360  -29.2490   23.3690 C   0  0  0  0  0  3  0  0  0  0  0  0
  -17.1110  -28.0640   22.7110 C   0  0  0  0  0  3  0  0  0  0  0  0
  -26.0310  -32.6590   24.0980 C   0  0  0  0  0  3  0  0  0  0  0  0
  -26.5940  -31.7990   25.2950 C   0  0  1  0  0  0  0  0  0  0  0  0
  -25.5260  -31.4330   26.3520 C   0  0  0  0  0  1  0  0  0  0  0  0
  -27.2160  -30.4820   24.7760 C   0  0  0  0  0  1  0  0  0  0  0  0
  -27.7280  -32.5730   26.0090 C   0  0  0  0  0  1  0  0  0  0  0  0
  -25.6850  -34.0130   24.5450 N   0  0  0  0  0  0  0  0  0  0  0  0
  -25.9820  -35.1340   23.8720 C   0  0  0  0  0  0  0  0  0  0  0  0
  -26.6460  -35.1360   22.8320 O   0  0  0  0  0  0  0  0  0  0  0  0
  -25.0890  -34.0840   25.3570 H   0  0  0  0  0  0  0  0  0  0  0  0
  -24.1930  -36.8930   23.6770 C   0  0  0  0  0  1  0  0  0  0  0  0
  -25.4560  -36.4640   24.4420 C   0  0  0  0  0  3  0  0  0  0  0  0
  -27.5700  -37.3470   25.3240 C   0  0  0  0  0  1  0  0  0  0  0  0
  -26.4530  -37.5570   24.4070 N   0  0  0  0  0  0  0  0  0  0  0  0
  -26.0210  -38.4480   24.6320 H   0  0  0  0  0  0  0  0  0  0  0  0
  2  3  1  0
  2  1  1  0
  4  6  1  0
  5  7  2  0
  5  8  1  0
  7  9  1  0
  8  4  2  0
  9  3  1  0
  9  6  2  0
 10  8  1  0
 10 19  1  0
 11 19  1  0
 11 17  1  0
 12 17  1  0
 13 14  1  0
 13 12  1  0
 15 14  1  0
 15 24  1  0
 15 16  1  0
 17 16  1  0
 18 11  2  0
 19 20  1  0
 21 22  2  0
 22 41  1  0
 23 22  1  0
 23 26  1  0
 24 21  1  0
 24 25  1  0
 25 23  2  0
 26 27  1  0
 27 28  2  0
 29 32  1  0
 29 28  1  0
 30 29  2  0
 31 30  1  0
 31 26  2  0
 32 33  1  0
 33 38  2  0
 33 34  1  0
 34 35  2  0
 35 36  1  0
 36 40  1  0
 37 36  2  0
 38 37  1  0
 39 38  1  0
 41 42  1  0
 42 45  1  0
 42 44  1  0
 43 41  2  0
 46 47  1  0
 46 21  1  0
 48 46  1  0
 49  1  1  0
 49 50  1  0
 51 52  1  0
 51 50  1  0
 53 52  1  0
 54 53  1  0
 55 54  1  0
 56 55  1  0
 56 58  1  0
 57 68  2  0
 58 63  1  0
 59 67  1  0
 59 69  1  0
 60 66  1  0
 60 62  1  0
 61 67  1  0
 62 61  1  0
 63 62  2  0
 64 65  1  0
 64 58  2  0
 65 60  2  0
 66 59  1  0
 67 57  1  0
 69 71  2  0
 70 69  1  0
 72 70  1  0
 73 82  2  0
 73 78  1  0
 74 70  1  0
 74 78  1  0
 75 74  1  0
 76 77  1  0
 76 75  1  0
 77 73  1  0
 78 79  2  0
 79 80  1  0
 81 80  2  0
 82 81  1  0
 83 57  1  0
 83 88  1  0
 83 84  1  0
 84 87  1  1
 84 85  1  0
 86 84  1  0
 88 91  1  0
 89 93  1  0
 89 88  1  0
 90 89  2  0
 93 92  1  0
 95 93  1  0
 95 96  1  0
 95 94  1  0
M  ISO  4  11 100  19 100  55 101  56 101
M  END
>  <TORSDO>  (82) 
F 27

>  <SCORE>  (82) 
-7.069

>  <name>  (82) 
84

>  <ligand_id>  (82) 
84

>  <original_smiles>  (82) 
[H]c1c([H])c([H])c2c(c1[H])C([H])([H])C([H])([H])C([H])([H])C2([H])N([H])C(=O)C1([H])N(C(=O)C([H])(N([H])C(=O)C([H])(N([H])C([H])([H])[H])C([H])([H])[H])C(C([H])([H])[H])(C([H])([H])[H])C([H])([H])[H])C([H])([H])c2c([H])c(OC([H])([H])C([H])([H])OC([H])([H])C([H])([H])OC([H])([H])C([H])([H])C([H])([H])Oc3c([H])c([H])c(C([H])([H])N([H])C(=O)N4C([H])([H])C([H])([H])C([H])([H])C([H])(n5nc(-c6c([H])c([H])c(Oc7c([H])c([H])c(F)c([H])c7F)c([H])c6[H])c(C(=O)N([H])[H])c5N([H])[H])C4([H])[H])c([H])c3[H])c([H])c([H])c2C1([H])[H]

>  <smiles>  (82) 
[H]c1c([H])c([H])c2c(c1[H])C([H])([H])C([H])([H])C([H])([H])C2([H])N([H])C(=O)C1([H])N(C(=O)C([H])(N([H])C(=O)C([H])(N([H])C([H])([H])[H])C([H])([H])[H])C(C([H])([H])[H])(C([H])([H])[H])C([H])([H])[H])C([H])([H])c2c([H])c(OC([H])([H])C([H])([H])OC([H])([H])C([H])([H])OC([H])([H])C([H])([H])C([H])([H])Oc3c([H])c([H])c(C([H])([H])N([H])C(=O)N4C([H])([H])C([H])([H])C([H])([H])C([H])(n5nc(-c6c([H])c([H])c(Oc7c([H])c([H])c(F)c([H])c7F)c([H])c6[H])c(C(=O)N([H])[H])c5N([H])[H])C4([H])[H])c([H])c3[H])c([H])c([H])c2C1([H])[H]

$$$$
85:0:0
     RDKit          3D

102100  0  0  1  0  0  0  0  0999 V2000
  -22.3390  -27.1980   24.8260 C   0  0  0  0  0  3  0  0  0  0  0  0
  -22.6720  -28.4410   23.9810 C   0  0  0  0  0  2  0  0  0  0  0  0
  -21.3430  -26.0540   24.5790 C   0  0  0  0  0  3  0  0  0  0  0  0
  -20.3140  -26.9680   22.2980 C   0  0  0  0  0  1  0  0  0  0  0  0
  -22.0080  -28.8450   22.5880 C   0  0  0  0  0  1  0  0  0  0  0  0
  -20.3820  -25.8500   23.4000 C   0  0  0  0  0  3  0  0  0  0  0  0
  -25.2170  -31.1800   21.1480 C   0  0  0  0  0  2  0  0  0  0  0  0
  -23.2930  -30.6510   21.8440 N   0  0  0  0  0  1  0  0  0  0  0  0
  -26.9380  -30.0640   21.1260 N   0  0  0  0  0  1  0  0  0  0  0  0
  -25.3100  -32.3030   20.6460 O   0  0  0  0  0  0  0  0  0  0  0  0
  -22.6790  -31.4070   21.5560 H   0  0  0  0  0  0  0  0  0  0  0  0
  -27.5850  -30.7390   20.7390 H   0  0  0  0  0  0  0  0  0  0  0  0
  -28.3860  -27.9940   21.3640 C   0  0  0  0  0  1  0  0  0  0  0  0
  -28.8490  -25.1930   21.3260 C   0  0  0  0  0 15  0  0  0  0  0  0
  -29.4590  -22.5360   20.7220 C   0  0  0  0  0 15  0  0  0  0  0  0
  -29.5390  -20.0820   20.6130 O   0  0  0  0  0 15  0  0  0  0  0  0
  -30.4120  -17.3580   20.2040 C   0  0  0  0  0  2  0  0  0  0  0  0
  -30.7860  -14.3020   19.3290 C   0  0  0  0  0  2  0  0  0  0  0  0
  -30.1550  -13.2590   18.2360 C   0  0  0  0  0  2  0  0  0  0  0  0
  -28.9220  -12.5080   18.7260 C   0  0  0  0  0  2  0  0  0  0  0  0
  -28.1440  -13.5380   19.5500 C   0  0  0  0  0  3  0  0  0  0  0  0
  -28.9630  -14.4960   20.5860 C   0  0  0  0  0  2  0  0  0  0  0  0
  -29.9550  -15.6010   20.0040 N   0  0  0  0  0  0  0  0  0  0  0  0
  -31.6320  -16.9800   19.9820 O   0  0  0  0  0  1  0  0  0  0  0  0
  -25.7550  -13.8180   20.2420 C   0  0  0  0  0  0  0  0  0  0  0  0
  -24.7340  -13.0010   20.6260 C   0  0  0  0  0  0  0  0  0  0  0  0
  -25.2590  -11.6690   20.6280 C   0  0  0  0  0  0  0  0  0  0  0  0
  -26.8600  -13.0210   20.0550 N   0  0  0  0  0  0  0  0  0  0  0  0
  -26.5700  -11.7020   20.3150 N   0  0  0  0  0  0  0  0  0  0  0  0
  -24.5450  -10.3920   20.8620 C   0  0  0  0  0  0  0  0  0  0  0  0
  -24.9150   -9.4960   21.8900 C   0  0  0  0  0  3  0  0  0  0  0  0
  -24.1760   -8.3130   22.1160 C   0  0  0  0  0  3  0  0  0  0  0  0
  -23.0480   -8.0080   21.3160 C   0  0  0  0  0  0  0  0  0  0  0  0
  -22.6930   -8.8940   20.2820 C   0  0  0  0  0  3  0  0  0  0  0  0
  -23.4330  -10.0680   20.0560 C   0  0  0  0  0  3  0  0  0  0  0  0
  -22.2880   -6.8660   21.4420 O   0  0  0  0  0  0  0  0  0  0  0  0
  -22.0980   -6.2560   22.6580 C   0  0  0  0  0  0  0  0  0  0  0  0
  -21.5080   -6.9350   23.7470 C   0  0  0  0  0  3  0  0  0  0  0  0
  -21.2670   -6.2510   24.9550 C   0  0  0  0  0  3  0  0  0  0  0  0
  -21.6030   -4.8890   25.0750 C   0  0  0  0  0  0  0  0  0  0  0  0
  -22.1830   -4.2100   23.9880 C   0  0  0  0  0  3  0  0  0  0  0  0
  -22.4250   -4.8900   22.7820 C   0  0  0  0  0  0  0  0  0  0  0  0
  -22.9640   -4.2210   21.7340 F   0  0  0  0  0  0  0  0  0  0  0  0
  -21.3640   -4.2310   26.2350 F   0  0  0  0  0  0  0  0  0  0  0  0
  -23.3240  -13.4480   20.8760 C   0  0  0  0  0  0  0  0  0  0  0  0
  -22.6250  -12.7950   21.7960 N   0  0  0  0  0  0  0  0  0  0  0  0
  -22.8600  -14.4310   20.2980 O   0  0  0  0  0  0  0  0  0  0  0  0
  -23.0170  -12.0090   22.2900 H   0  0  0  0  0  0  0  0  0  0  0  0
  -21.6800  -13.0800   22.0020 H   0  0  0  0  0  0  0  0  0  0  0  0
  -25.8270  -15.1870   20.0070 N   0  0  0  0  0  0  0  0  0  0  0  0
  -25.0120  -15.7850   20.0850 H   0  0  0  0  0  0  0  0  0  0  0  0
  -26.6620  -15.6830   19.7240 H   0  0  0  0  0  0  0  0  0  0  0  0
  -20.0300  -24.5270   23.1530 O   0  0  0  0  0  0  0  0  0  0  0  0
  -19.2480  -24.1970   21.9620 C   0  0  0  0  0  2  0  0  0  0  0  0
  -19.7070  -23.1250   20.8460 C   0  0  0  0  0  2  0  0  0  0  0  0
  -20.4050  -23.5270   19.6320 O   0  0  0  0  0  0  0  0  0  0  0  0
  -20.0510  -22.9780   18.3310 C   0  0  0  0  0  2  0  0  0  0  0  0
  -21.1840  -23.1470   17.2260 C   0  0  0  0  0  3  0  0  0  0  0  0
  -20.7530  -23.5830   15.7590 C   0  0  0  0  0  3  0  0  0  0  0  0
  -21.7560  -23.3800   14.5230 C   0  0  0  0  0  0  0  0  0  0  0  0
  -21.4070  -22.5430   13.6930 O   0  0  0  0  0  0  0  0  0  0  0  0
  -23.0030  -24.1750   14.3440 O   0  0  0  0  0  0  0  0  0  0  0  0
  -22.8800  -25.4560   21.6100 C   0  0  0  0  0  0  0  0  0  0  0  0
  -23.2250  -25.0830   15.2800 C   0  0  0  0  0  0  0  0  0  0  0  0
  -21.7230  -27.1470   18.9950 C   0  0  0  0  0  2  0  0  0  0  0  0
  -22.8280  -27.0110   17.0960 C   0  0  0  0  0  0  0  0  0  0  0  0
  -22.2250  -24.9550   18.9160 C   0  0  0  0  0  2  0  0  0  0  0  0
  -22.6500  -25.6760   17.4650 C   0  0  0  0  0  0  0  0  0  0  0  0
  -22.5930  -24.8600   16.4400 C   0  0  0  0  0  3  0  0  0  0  0  0
  -23.2790  -26.3810   14.8950 C   0  0  0  0  0  3  0  0  0  0  0  0
  -22.9330  -27.3690   15.7880 C   0  0  0  0  0  3  0  0  0  0  0  0
  -22.5590  -28.0160   17.9940 C   0  0  0  0  0  2  0  0  0  0  0  0
  -22.0960  -25.6750   20.1340 N   0  0  0  0  0  2  0  0  0  0  0  0
  -22.4420  -25.9590   22.6790 O   0  0  0  0  0  0  0  0  0  0  0  0
  -20.5750  -27.5070   18.8090 C   0  0  0  0  0  0  0  0  0  0  0  0
  -19.7210  -28.2480   19.6580 N   0  0  0  0  0  0  0  0  0  0  0  0
  -20.5140  -26.8640   17.8190 O   0  0  0  0  0  0  0  0  0  0  0  0
  -20.1460  -28.6430   20.4850 H   0  0  0  0  0  0  0  0  0  0  0  0
  -16.8690  -25.9540   21.3680 C   0  0  0  0  0  3  0  0  0  0  0  0
  -18.2810  -28.1190   19.6710 C   0  0  0  0  0  3  0  0  0  0  0  0
  -18.1540  -27.6980   17.9050 C   0  0  0  0  0  2  0  0  0  0  0  0
  -18.6020  -25.7990   17.7660 C   0  0  0  0  0  1  0  0  0  0  0  0
  -17.4200  -24.6000   20.4480 C   0  0  0  0  0  1  0  0  0  0  0  0
  -17.5880  -27.2530   21.1630 C   0  0  0  0  0  3  0  0  0  0  0  0
  -17.8040  -27.4260   22.5310 C   0  0  0  0  0  3  0  0  0  0  0  0
  -16.7530  -27.1550   23.4860 C   0  0  0  0  0  3  0  0  0  0  0  0
  -15.4860  -26.7700   22.9940 C   0  0  0  0  0  2  0  0  0  0  0  0
  -15.5120  -26.2200   21.7190 C   0  0  0  0  0  2  0  0  0  0  0  0
  -24.5680  -25.7140   22.1310 C   0  0  0  0  0  3  0  0  0  0  0  0
  -25.1000  -26.8450   23.1460 N   0  0  0  0  0  0  0  0  0  0  0  0
  -26.2390  -27.6720   23.2350 C   0  0  0  0  0  3  0  0  0  0  0  0
  -27.0520  -27.7980   22.3120 O   0  0  0  0  0  0  0  0  0  0  0  0
  -24.5060  -26.9080   23.9580 H   0  0  0  0  0  0  0  0  0  0  0  0
  -26.0270  -29.9540   24.4720 C   0  0  0  0  0  1  0  0  0  0  0  0
  -26.5930  -28.5190   24.5420 C   0  0  0  0  0  3  0  0  0  0  0  0
  -28.7490  -27.5030   25.3080 C   0  0  0  0  0  1  0  0  0  0  0  0
  -28.0520  -28.7010   24.8630 N   0  0  0  0  0  0  0  0  0  0  0  0
  -28.1810  -29.4190   25.5690 H   0  0  0  0  0  0  0  0  0  0  0  0
  -24.9210  -24.3710   22.7030 C   0  0  1  0  0  0  0  0  0  0  0  0
  -23.9450  -24.0250   23.8520 C   0  0  0  0  0  1  0  0  0  0  0  0
  -24.8230  -23.3880   21.5180 C   0  0  0  0  0  1  0  0  0  0  0  0
  -26.3540  -24.2600   23.2550 C   0  0  0  0  0  1  0  0  0  0  0  0
  2  1  1  0
  3  1  2  0
  5  2  1  0
  6  4  1  0
  6  3  1  0
 10  7  2  0
 11  8  1  0
 12  9  1  0
 13 92  1  0
 18 23  1  0
 19 20  1  0
 19 18  1  0
 21 20  1  0
 21 28  1  0
 21 22  1  0
 23 17  1  0
 23 22  1  0
 24 17  1  0
 25 26  2  0
 26 27  1  0
 26 45  1  0
 27 30  1  0
 28 25  1  0
 28 29  1  0
 29 27  2  0
 30 31  1  0
 31 32  2  0
 33 36  1  0
 33 32  1  0
 34 33  2  0
 35 34  1  0
 35 30  2  0
 36 37  1  0
 37 42  2  0
 37 38  1  0
 38 39  2  0
 39 40  1  0
 40 44  1  0
 41 40  2  0
 42 41  1  0
 43 42  1  0
 45 46  1  0
 46 49  1  0
 46 48  1  0
 47 45  2  0
 50 51  1  0
 50 25  1  0
 52 50  1  0
 53  6  1  0
 54 53  1  0
 55 54  1  0
 56 55  1  0
 57 56  1  0
 58 57  1  0
 59 58  2  0
 60 59  1  0
 61 60  2  0
 62 60  1  0
 62 64  1  0
 63 74  2  0
 64 69  1  0
 66 68  1  0
 66 72  1  0
 67 73  1  0
 68 67  1  0
 69 68  2  0
 70 64  2  0
 70 71  1  0
 71 66  2  0
 72 65  1  0
 73 63  1  0
 75 65  1  0
 75 76  1  0
 76 80  1  0
 76 78  1  0
 77 75  2  0
 79 83  1  0
 79 88  1  0
 80 81  1  0
 82 81  1  0
 84 80  1  0
 84 79  1  0
 84 85  1  0
 85 86  2  0
 87 86  1  0
 88 87  1  0
 89 63  1  0
 89 99  1  0
 89 90  1  0
 90 91  1  0
 90 93  1  0
 91 92  1  0
 91 95  1  0
 95 94  1  0
 95 97  1  0
 97 96  1  0
 97 98  1  0
 99102  1  1
 99100  1  0
101 99  1  0
M  ISO  4  16 100  17 100  60 101  62 101
M  END
>  <TORSDO>  (83) 
F 29

>  <SCORE>  (83) 
-1.991

>  <name>  (83) 
85

>  <ligand_id>  (83) 
85

>  <original_smiles>  (83) 
[H]c1c([H])c(OC([H])([H])C([H])([H])OC([H])([H])C([H])([H])C([H])([H])C(=O)Oc2c([H])c([H])c3c(c2[H])C([H])([H])N(C(=O)C([H])(N([H])C(=O)C([H])(N([H])C([H])([H])[H])C([H])([H])[H])C(C([H])([H])[H])(C([H])([H])[H])C([H])([H])[H])C([H])(C(=O)N([H])C2([H])c4c([H])c([H])c([H])c([H])c4C([H])([H])C([H])([H])C2([H])[H])C3([H])[H])c([H])c(N([H])C(=O)N([H])C([H])([H])C([H])([H])C([H])([H])OC(=O)N2C([H])([H])C([H])([H])C([H])([H])C([H])(n3nc(-c4c([H])c([H])c(Oc5c([H])c([H])c(F)c([H])c5F)c([H])c4[H])c(C(=O)N([H])[H])c3N([H])[H])C2([H])[H])c1[H]

>  <smiles>  (83) 
[H]c1c([H])c(OC([H])([H])C([H])([H])OC([H])([H])C([H])([H])C([H])([H])C(=O)Oc2c([H])c([H])c3c(c2[H])C([H])([H])N(C(=O)C([H])(N([H])C(=O)C([H])(N([H])C([H])([H])[H])C([H])([H])[H])C(C([H])([H])[H])(C([H])([H])[H])C([H])([H])[H])C([H])(C(=O)N([H])C2([H])c4c([H])c([H])c([H])c([H])c4C([H])([H])C([H])([H])C2([H])[H])C3([H])[H])c([H])c(N([H])C(=O)N([H])C([H])([H])C([H])([H])C([H])([H])OC(=O)N2C([H])([H])C([H])([H])C([H])([H])C([H])(n3nc(-c4c([H])c([H])c(Oc5c([H])c([H])c(F)c([H])c5F)c([H])c4[H])c(C(=O)N([H])[H])c3N([H])[H])C2([H])[H])c1[H]

$$$$
86:0:0
     RDKit          3D

 92100  0  0  1  0  0  0  0  0999 V2000
  -26.8330  -22.8930   21.3540 C   0  0  0  0  0  3  0  0  0  0  0  0
  -27.0770  -21.5380   21.0660 C   0  0  0  0  0  3  0  0  0  0  0  0
  -27.1890  -23.8910   20.4260 C   0  0  0  0  0  3  0  0  0  0  0  0
  -28.0380  -22.1740   18.9270 C   0  0  0  0  0  3  0  0  0  0  0  0
  -27.6860  -21.1620   19.8520 C   0  0  0  0  0  0  0  0  0  0  0  0
  -27.7960  -23.5320   19.1990 C   0  0  0  0  0  0  0  0  0  0  0  0
  -27.8830  -19.8160   19.6370 O   0  0  0  0  0  0  0  0  0  0  0  0
  -28.8630  -19.4150   18.6850 C   0  0  0  0  0  2  0  0  0  0  0  0
  -29.0370  -17.9020   18.8280 C   0  0  0  0  0  2  0  0  0  0  0  0
  -30.4220  -17.3810   18.4140 C   0  0  0  0  0  2  0  0  0  0  0  0
  -31.2230  -15.0290   18.5880 C   0  0  0  0  0  0  0  0  0  0  0  0
  -31.3580  -12.5740   18.7840 C   0  0  0  0  0  2  0  0  0  0  0  0
  -30.3730  -11.8820   17.8230 C   0  0  0  0  0  2  0  0  0  0  0  0
  -28.9760  -11.7560   18.4580 C   0  0  0  0  0  2  0  0  0  0  0  0
  -28.4750  -13.0960   19.0560 C   0  0  0  0  0  3  0  0  0  0  0  0
  -29.5620  -13.7230   19.9580 C   0  0  0  0  0  2  0  0  0  0  0  0
  -30.8060  -13.8770   19.1690 N   0  0  0  0  0  0  0  0  0  0  0  0
  -32.0580  -15.0860   17.6810 O   0  0  0  0  0  0  0  0  0  0  0  0
  -30.6570  -16.1210   19.1070 N   0  0  0  0  0  0  0  0  0  0  0  0
  -30.1110  -15.9570   19.9400 H   0  0  0  0  0  0  0  0  0  0  0  0
  -26.3580  -13.8700   20.3110 C   0  0  0  0  0  0  0  0  0  0  0  0
  -25.2960  -13.1750   20.8260 C   0  0  0  0  0  0  0  0  0  0  0  0
  -25.5630  -11.7970   20.5650 C   0  0  0  0  0  0  0  0  0  0  0  0
  -27.2150  -12.9180   19.7790 N   0  0  0  0  0  0  0  0  0  0  0  0
  -26.7470  -11.6590   19.9820 N   0  0  0  0  0  0  0  0  0  0  0  0
  -24.7350  -10.6030   20.7840 C   0  0  0  0  0  0  0  0  0  0  0  0
  -25.0420   -9.6660   21.7950 C   0  0  0  0  0  3  0  0  0  0  0  0
  -24.2210   -8.5360   21.9960 C   0  0  0  0  0  3  0  0  0  0  0  0
  -23.0790   -8.3350   21.1850 C   0  0  0  0  0  0  0  0  0  0  0  0
  -22.7920   -9.2580   20.1640 C   0  0  0  0  0  3  0  0  0  0  0  0
  -23.6130  -10.3800   19.9620 C   0  0  0  0  0  3  0  0  0  0  0  0
  -22.2380   -7.2530   21.2920 O   0  0  0  0  0  0  0  0  0  0  0  0
  -21.7800   -6.8160   22.5090 C   0  0  0  0  0  0  0  0  0  0  0  0
  -21.0480   -7.6560   23.3770 C   0  0  0  0  0  3  0  0  0  0  0  0
  -20.5350   -7.1450   24.5850 C   0  0  0  0  0  3  0  0  0  0  0  0
  -20.7460   -5.7950   24.9250 C   0  0  0  0  0  0  0  0  0  0  0  0
  -21.4700   -4.9550   24.0600 C   0  0  0  0  0  3  0  0  0  0  0  0
  -21.9820   -5.4640   22.8540 C   0  0  0  0  0  0  0  0  0  0  0  0
  -22.6620   -4.6460   22.0150 F   0  0  0  0  0  0  0  0  0  0  0  0
  -20.2470   -5.3000   26.0820 F   0  0  0  0  0  0  0  0  0  0  0  0
  -24.0580  -13.7580   21.4440 C   0  0  0  0  0  0  0  0  0  0  0  0
  -23.4470  -13.0440   22.3830 N   0  0  0  0  0  0  0  0  0  0  0  0
  -23.6520  -14.8760   21.1290 O   0  0  0  0  0  0  0  0  0  0  0  0
  -23.7930  -12.1350   22.6560 H   0  0  0  0  0  0  0  0  0  0  0  0
  -22.6210  -13.4110   22.8360 H   0  0  0  0  0  0  0  0  0  0  0  0
  -26.6600  -15.2260   20.2360 N   0  0  0  0  0  0  0  0  0  0  0  0
  -26.0280  -15.9460   20.5690 H   0  0  0  0  0  0  0  0  0  0  0  0
  -27.4860  -15.6010   19.7840 H   0  0  0  0  0  0  0  0  0  0  0  0
  -28.1740  -24.4210   18.2170 O   0  0  0  0  0  0  0  0  0  0  0  0
  -27.6730  -25.7460   18.2760 C   0  0  0  0  0  2  0  0  0  0  0  0
  -28.0760  -26.4790   16.9790 C   0  0  0  0  0  2  0  0  0  0  0  0
  -27.6110  -27.8290   16.9400 O   0  0  0  0  0  0  0  0  0  0  0  0
  -24.6760  -30.4630   22.8230 C   0  0  0  0  0  0  0  0  0  0  0  0
  -26.4250  -28.1400   17.5650 C   0  0  0  0  0  0  0  0  0  0  0  0
  -23.1330  -29.3830   21.2470 C   0  0  0  0  0  3  0  0  0  0  0  0
  -24.0590  -28.8360   18.9410 C   0  0  0  0  0  0  0  0  0  0  0  0
  -25.2750  -30.4670   20.4000 C   0  0  0  0  0  2  0  0  0  0  0  0
  -25.2740  -29.4430   19.2850 C   0  0  0  0  0  0  0  0  0  0  0  0
  -26.4570  -29.0980   18.5990 C   0  0  0  0  0  3  0  0  0  0  0  0
  -25.1860  -27.5500   17.2150 C   0  0  0  0  0  3  0  0  0  0  0  0
  -24.0090  -27.8870   17.9070 C   0  0  0  0  0  3  0  0  0  0  0  0
  -22.8410  -29.2550   19.7260 C   0  0  0  0  0  2  0  0  0  0  0  0
  -24.4040  -30.1020   21.5390 N   0  0  0  0  0  0  0  0  0  0  0  0
  -23.8690  -30.2420   23.7380 O   0  0  0  0  0  0  0  0  0  0  0  0
  -23.0660  -27.9790   21.8800 C   0  0  0  0  0  0  0  0  0  0  0  0
  -21.9160  -27.3620   21.6380 N   0  0  0  0  0  0  0  0  0  0  0  0
  -24.0060  -27.4820   22.5020 O   0  0  0  0  0  0  0  0  0  0  0  0
  -21.2240  -27.9410   21.1800 H   0  0  0  0  0  0  0  0  0  0  0  0
  -19.5840  -24.4770   21.2080 C   0  0  0  0  0  0  0  0  0  0  0  0
  -21.5340  -25.9750   21.7010 C   0  0  0  0  0  3  0  0  0  0  0  0
  -22.5110  -24.8430   21.3660 C   0  0  0  0  0  2  0  0  0  0  0  0
  -21.9360  -24.0410   20.1800 C   0  0  0  0  0  2  0  0  0  0  0  0
  -20.5150  -23.5090   20.4720 C   0  0  0  0  0  2  0  0  0  0  0  0
  -20.0850  -25.6060   21.8970 C   0  0  0  0  0  0  0  0  0  0  0  0
  -19.2070  -26.4720   22.5820 C   0  0  0  0  0  3  0  0  0  0  0  0
  -17.8200  -26.2390   22.5380 C   0  0  0  0  0  3  0  0  0  0  0  0
  -17.3140  -25.1370   21.8260 C   0  0  0  0  0  3  0  0  0  0  0  0
  -18.1940  -24.2500   21.1760 C   0  0  0  0  0  3  0  0  0  0  0  0
  -26.0020  -31.1890   23.1950 C   0  0  0  0  0  3  0  0  0  0  0  0
  -25.6430  -32.4930   23.7620 N   0  0  0  0  0  0  0  0  0  0  0  0
  -25.7620  -33.6590   23.1130 C   0  0  0  0  0  0  0  0  0  0  0  0
  -26.2610  -33.7520   21.9880 O   0  0  0  0  0  0  0  0  0  0  0  0
  -25.1810  -32.4880   24.6590 H   0  0  0  0  0  0  0  0  0  0  0  0
  -23.9040  -35.3480   23.2160 C   0  0  0  0  0  1  0  0  0  0  0  0
  -25.2490  -34.9240   23.8260 C   0  0  0  0  0  3  0  0  0  0  0  0
  -27.4050  -35.8330   24.5710 C   0  0  0  0  0  1  0  0  0  0  0  0
  -26.2010  -36.0540   23.7720 N   0  0  0  0  0  0  0  0  0  0  0  0
  -25.7610  -36.9130   24.0940 H   0  0  0  0  0  0  0  0  0  0  0  0
  -26.8950  -30.3640   24.1980 C   0  0  1  0  0  0  0  0  0  0  0  0
  -26.1250  -29.8400   25.4330 C   0  0  0  0  0  1  0  0  0  0  0  0
  -27.5280  -29.1460   23.4860 C   0  0  0  0  0  1  0  0  0  0  0  0
  -28.0680  -31.2420   24.6930 C   0  0  0  0  0  1  0  0  0  0  0  0
  2  1  1  0
  3  1  2  0
  4  6  2  0
  4  5  1  0
  5  2  2  0
  6  3  1  0
  7  5  1  0
  8  9  1  0
  8  7  1  0
 10  9  1  0
 10 19  1  0
 11 19  1  0
 11 17  1  0
 12 17  1  0
 13 14  1  0
 13 12  1  0
 15 14  1  0
 15 24  1  0
 15 16  1  0
 17 16  1  0
 18 11  2  0
 19 20  1  0
 21 22  2  0
 22 41  1  0
 23 26  1  0
 23 22  1  0
 24 25  1  0
 24 21  1  0
 25 23  2  0
 26 27  1  0
 27 28  2  0
 29 32  1  0
 29 28  1  0
 30 29  2  0
 31 30  1  0
 31 26  2  0
 32 33  1  0
 33 38  2  0
 33 34  1  0
 34 35  2  0
 35 36  1  0
 36 40  1  0
 37 36  2  0
 38 37  1  0
 39 38  1  0
 41 42  1  0
 42 44  1  0
 42 45  1  0
 43 41  2  0
 46 21  1  0
 46 47  1  0
 48 46  1  0
 49 50  1  0
 49  6  1  0
 51 50  1  0
 52 51  1  0
 52 54  1  0
 53 64  2  0
 54 59  1  0
 55 63  1  0
 55 65  1  0
 56 58  1  0
 56 62  1  0
 57 63  1  0
 58 57  1  0
 59 58  2  0
 60 54  2  0
 60 61  1  0
 61 56  2  0
 62 55  1  0
 63 53  1  0
 65 67  2  0
 66 65  1  0
 68 66  1  0
 69 74  1  0
 70 66  1  0
 70 74  1  0
 71 70  1  0
 72 73  1  0
 72 71  1  0
 73 69  1  0
 74 75  2  0
 76 75  1  0
 77 76  2  0
 78 69  2  0
 78 77  1  0
 79 53  1  0
 79 80  1  0
 79 89  1  0
 80 83  1  0
 81 80  1  0
 81 85  1  0
 82 81  2  0
 85 84  1  0
 87 85  1  0
 87 88  1  0
 87 86  1  0
 89 92  1  1
 89 90  1  0
 91 89  1  0
M  ISO  4  11 100  19 100  51 101  52 101
M  END
>  <TORSDO>  (84) 
F 23

>  <SCORE>  (84) 
-6.919

>  <name>  (84) 
86

>  <ligand_id>  (84) 
86

>  <original_smiles>  (84) 
[H]c1c([H])c(OC([H])([H])C([H])([H])Oc2c([H])c([H])c3c(c2[H])C([H])([H])N(C(=O)C([H])(N([H])C(=O)C([H])(N([H])C([H])([H])[H])C([H])([H])[H])C(C([H])([H])[H])(C([H])([H])[H])C([H])([H])[H])C([H])(C(=O)N([H])C2([H])c4c([H])c([H])c([H])c([H])c4C([H])([H])C([H])([H])C2([H])[H])C3([H])[H])c([H])c(OC([H])([H])C([H])([H])C([H])([H])N([H])C(=O)N2C([H])([H])C([H])([H])C([H])([H])C([H])(n3nc(-c4c([H])c([H])c(Oc5c([H])c([H])c(F)c([H])c5F)c([H])c4[H])c(C(=O)N([H])[H])c3N([H])[H])C2([H])[H])c1[H]

>  <smiles>  (84) 
[H]c1c([H])c(OC([H])([H])C([H])([H])Oc2c([H])c([H])c3c(c2[H])C([H])([H])N(C(=O)C([H])(N([H])C(=O)C([H])(N([H])C([H])([H])[H])C([H])([H])[H])C(C([H])([H])[H])(C([H])([H])[H])C([H])([H])[H])C([H])(C(=O)N([H])C2([H])c4c([H])c([H])c([H])c([H])c4C([H])([H])C([H])([H])C2([H])[H])C3([H])[H])c([H])c(OC([H])([H])C([H])([H])C([H])([H])N([H])C(=O)N2C([H])([H])C([H])([H])C([H])([H])C([H])(n3nc(-c4c([H])c([H])c(Oc5c([H])c([H])c(F)c([H])c5F)c([H])c4[H])c(C(=O)N([H])[H])c3N([H])[H])C2([H])[H])c1[H]

$$$$
87:0:0
     RDKit          3D

100108  0  0  1  0  0  0  0  0999 V2000
  -31.2660  -21.2970   25.2780 C   0  0  0  0  0  2  0  0  0  0  0  0
  -30.4050  -20.4690   24.5040 O   0  0  0  0  0  0  0  0  0  0  0  0
  -30.9310  -20.1340   23.2200 C   0  0  0  0  0  2  0  0  0  0  0  0
  -29.7770  -19.7470   22.2860 C   0  0  0  0  0  2  0  0  0  0  0  0
  -29.2490  -20.9290   21.6970 O   0  0  0  0  0  0  0  0  0  0  0  0
  -28.1950  -20.6700   20.7810 C   0  0  0  0  0  2  0  0  0  0  0  0
  -27.9460  -21.9230   19.9330 C   0  0  0  0  0  2  0  0  0  0  0  0
  -27.0000  -22.7650   20.5840 O   0  0  0  0  0  0  0  0  0  0  0  0
  -26.4580  -23.7410   19.7040 C   0  0  0  0  0  2  0  0  0  0  0  0
  -25.3080  -24.4930   20.3960 C   0  0  0  0  0  2  0  0  0  0  0  0
  -24.5080  -25.2330   19.4680 O   0  0  0  0  0  0  0  0  0  0  0  0
  -17.7490  -25.9030   21.5420 C   0  0  0  0  0  0  0  0  0  0  0  0
  -23.2240  -24.7620   19.3670 C   0  0  0  0  0  0  0  0  0  0  0  0
  -18.3170  -23.8050   20.3600 C   0  0  0  0  0  3  0  0  0  0  0  0
  -20.5950  -23.7610   19.2170 C   0  0  0  0  0  0  0  0  0  0  0  0
  -19.6140  -25.9590   19.8950 C   0  0  0  0  0  2  0  0  0  0  0  0
  -20.8170  -25.0950   19.5840 C   0  0  0  0  0  0  0  0  0  0  0  0
  -22.1310  -25.6030   19.6630 C   0  0  0  0  0  3  0  0  0  0  0  0
  -22.9870  -23.4300   18.9680 C   0  0  0  0  0  3  0  0  0  0  0  0
  -21.6780  -22.9200   18.9090 C   0  0  0  0  0  3  0  0  0  0  0  0
  -19.1590  -23.2940   19.1610 C   0  0  0  0  0  2  0  0  0  0  0  0
  -18.5530  -25.2550   20.6520 N   0  0  0  0  0  0  0  0  0  0  0  0
  -16.7980  -25.3240   22.0840 O   0  0  0  0  0  0  0  0  0  0  0  0
  -18.5790  -22.8860   21.5750 C   0  0  0  0  0  0  0  0  0  0  0  0
  -17.5180  -22.2200   22.0590 N   0  0  0  0  0  0  0  0  0  0  0  0
  -19.7130  -22.7640   22.0430 O   0  0  0  0  0  0  0  0  0  0  0  0
  -16.6210  -22.3800   21.6230 H   0  0  0  0  0  0  0  0  0  0  0  0
  -15.4090  -20.3920   24.3510 C   0  0  0  0  0  0  0  0  0  0  0  0
  -17.5330  -21.2710   23.1720 C   0  0  0  0  0  3  0  0  0  0  0  0
  -17.7280  -19.8230   22.6650 C   0  0  0  0  0  2  0  0  0  0  0  0
  -16.4090  -19.0820   22.4290 C   0  0  0  0  0  2  0  0  0  0  0  0
  -15.5890  -19.0200   23.7220 C   0  0  0  0  0  2  0  0  0  0  0  0
  -16.3120  -21.4530   24.0790 C   0  0  0  0  0  0  0  0  0  0  0  0
  -16.0790  -22.7180   24.6610 C   0  0  0  0  0  3  0  0  0  0  0  0
  -14.9700  -22.9300   25.5020 C   0  0  0  0  0  3  0  0  0  0  0  0
  -14.0870  -21.8730   25.7810 C   0  0  0  0  0  3  0  0  0  0  0  0
  -14.3100  -20.6070   25.2090 C   0  0  0  0  0  3  0  0  0  0  0  0
  -17.9700  -27.4060   21.9010 C   0  0  0  0  0  3  0  0  0  0  0  0
  -16.9630  -27.7710   22.9060 N   0  0  0  0  0  0  0  0  0  0  0  0
  -15.7600  -28.2870   22.6230 C   0  0  0  0  0  0  0  0  0  0  0  0
  -15.4070  -28.5740   21.4750 O   0  0  0  0  0  0  0  0  0  0  0  0
  -17.1630  -27.5130   23.8610 H   0  0  0  0  0  0  0  0  0  0  0  0
  -13.7190  -27.4220   23.8110 C   0  0  0  0  0  1  0  0  0  0  0  0
  -14.7940  -28.5210   23.7990 C   0  0  0  0  0  3  0  0  0  0  0  0
  -15.0620  -30.9470   24.0660 C   0  0  0  0  0  1  0  0  0  0  0  0
  -14.1450  -29.8500   23.7720 N   0  0  0  0  0  0  0  0  0  0  0  0
  -13.3780  -29.8890   24.4380 H   0  0  0  0  0  0  0  0  0  0  0  0
  -19.4250  -27.7110   22.4300 C   0  0  1  0  0  0  0  0  0  0  0  0
  -19.8890  -26.7610   23.5580 C   0  0  0  0  0  1  0  0  0  0  0  0
  -20.4550  -27.6190   21.2790 C   0  0  0  0  0  1  0  0  0  0  0  0
  -19.4930  -29.1610   22.9670 C   0  0  0  0  0  1  0  0  0  0  0  0
  -30.9630  -22.7730   24.9800 C   0  0  0  0  0  2  0  0  0  0  0  0
  -31.0410  -22.9760   23.5800 O   0  0  0  0  0  0  0  0  0  0  0  0
  -30.3750  -24.1420   23.1270 C   0  0  0  0  0  2  0  0  0  0  0  0
  -30.2180  -24.0110   21.6120 C   0  0  0  0  0  2  0  0  0  0  0  0
  -31.4690  -24.2430   20.9820 O   0  0  0  0  0  0  0  0  0  0  0  0
  -31.4490  -23.9050   19.6030 C   0  0  0  0  0  2  0  0  0  0  0  0
  -32.8130  -24.2100   18.9730 C   0  0  0  0  0  2  0  0  0  0  0  0
  -34.4770  -22.2780   19.0340 C   0  0  0  0  0  3  0  0  0  0  0  0
  -35.5010  -22.0140   19.9010 C   0  0  0  0  0  0  0  0  0  0  0  0
  -35.4550  -22.9610   20.9280 N   0  0  0  0  0  0  0  0  0  0  0  0
  -34.4940  -23.8020   20.6960 N   0  0  0  0  0  0  0  0  0  0  0  0
  -33.8920  -23.4180   19.5450 N   0  0  0  0  0  0  0  0  0  0  0  0
  -36.5550  -20.9300   19.8350 C   0  0  0  0  0  2  0  0  0  0  0  0
  -37.4460  -21.0690   18.5800 C   0  0  0  0  0  0  0  0  0  0  0  0
  -38.7090  -19.9860   16.7570 C   0  0  0  0  0  2  0  0  0  0  0  0
  -37.7370  -19.2310   15.8300 C   0  0  0  0  0  2  0  0  0  0  0  0
  -37.4820  -17.8050   16.3530 C   0  0  0  0  0  2  0  0  0  0  0  0
  -37.1130  -17.7810   17.8610 C   0  0  0  0  0  3  0  0  0  0  0  0
  -38.1010  -18.6390   18.6850 C   0  0  0  0  0  2  0  0  0  0  0  0
  -38.1240  -19.9910   18.1050 N   0  0  0  0  0  0  0  0  0  0  0  0
  -37.4760  -22.1560   17.9930 O   0  0  0  0  0  0  0  0  0  0  0  0
  -35.9910  -15.7800   19.0330 C   0  0  0  0  0  0  0  0  0  0  0  0
  -36.3930  -14.4840   19.2150 C   0  0  0  0  0  0  0  0  0  0  0  0
  -37.6880  -14.3850   18.6200 C   0  0  0  0  0  0  0  0  0  0  0  0
  -37.0290  -16.4120   18.3640 N   0  0  0  0  0  0  0  0  0  0  0  0
  -38.0750  -15.5700   18.1630 N   0  0  0  0  0  0  0  0  0  0  0  0
  -38.5570  -13.2210   18.4090 C   0  0  0  0  0  0  0  0  0  0  0  0
  -39.8960  -13.2090   18.8600 C   0  0  0  0  0  3  0  0  0  0  0  0
  -40.7070  -12.0710   18.6630 C   0  0  0  0  0  3  0  0  0  0  0  0
  -40.1820  -10.9280   18.0140 C   0  0  0  0  0  0  0  0  0  0  0  0
  -38.8560  -10.9530   17.5480 C   0  0  0  0  0  3  0  0  0  0  0  0
  -38.0510  -12.0880   17.7400 C   0  0  0  0  0  3  0  0  0  0  0  0
  -40.9030   -9.7880   17.7560 O   0  0  0  0  0  0  0  0  0  0  0  0
  -41.9550   -9.4070   18.5510 C   0  0  0  0  0  0  0  0  0  0  0  0
  -41.8050   -9.2000   19.9390 C   0  0  0  0  0  3  0  0  0  0  0  0
  -42.8950   -8.7420   20.7040 C   0  0  0  0  0  3  0  0  0  0  0  0
  -44.1310   -8.4810   20.0840 C   0  0  0  0  0  0  0  0  0  0  0  0
  -44.2820   -8.6800   18.7010 C   0  0  0  0  0  3  0  0  0  0  0  0
  -43.1950   -9.1390   17.9360 C   0  0  0  0  0  0  0  0  0  0  0  0
  -43.3400   -9.3100   16.6000 F   0  0  0  0  0  0  0  0  0  0  0  0
  -45.1780   -8.0330   20.8190 F   0  0  0  0  0  0  0  0  0  0  0  0
  -35.5850  -13.3730   19.8190 C   0  0  0  0  0  0  0  0  0  0  0  0
  -36.2460  -12.4080   20.4510 N   0  0  0  0  0  0  0  0  0  0  0  0
  -34.3550  -13.3800   19.7760 O   0  0  0  0  0  0  0  0  0  0  0  0
  -37.2530  -12.4140   20.5060 H   0  0  0  0  0  0  0  0  0  0  0  0
  -35.7340  -11.6540   20.8880 H   0  0  0  0  0  0  0  0  0  0  0  0
  -34.8280  -16.4700   19.3640 N   0  0  0  0  0  0  0  0  0  0  0  0
  -34.0390  -16.0110   19.8050 H   0  0  0  0  0  0  0  0  0  0  0  0
  -34.6440  -17.4360   19.1260 H   0  0  0  0  0  0  0  0  0  0  0  0
  2  1  1  0
  3  2  1  0
  4  3  1  0
  5  4  1  0
  6  5  1  0
  7  8  1  0
  7  6  1  0
  9 10  1  0
  9  8  1  0
 11 10  1  0
 12 23  2  0
 13 11  1  0
 13 18  1  0
 14 22  1  0
 14 24  1  0
 15 17  1  0
 16 22  1  0
 17 18  2  0
 17 16  1  0
 19 13  2  0
 20 19  1  0
 20 15  2  0
 21 15  1  0
 21 14  1  0
 22 12  1  0
 24 26  2  0
 24 25  1  0
 27 25  1  0
 28 37  1  0
 29 25  1  0
 29 33  1  0
 30 29  1  0
 31 30  1  0
 31 32  1  0
 32 28  1  0
 33 28  2  0
 33 34  1  0
 34 35  2  0
 35 36  1  0
 37 36  2  0
 38 12  1  0
 38 48  1  0
 38 39  1  0
 39 42  1  0
 40 39  1  0
 40 44  1  0
 41 40  2  0
 44 43  1  0
 46 44  1  0
 46 45  1  0
 46 47  1  0
 48 51  1  1
 48 49  1  0
 50 48  1  0
 52  1  1  0
 53 52  1  0
 54 53  1  0
 55 54  1  0
 56 55  1  0
 57 56  1  0
 58 63  1  0
 58 57  1  0
 59 63  1  0
 59 60  2  0
 60 61  1  0
 62 61  2  0
 63 62  1  0
 64 60  1  0
 65 64  1  0
 66 71  1  0
 67 68  1  0
 67 66  1  0
 69 68  1  0
 69 76  1  0
 69 70  1  0
 71 65  1  0
 71 70  1  0
 72 65  2  0
 73 74  2  0
 73 98  1  0
 74 93  1  0
 75 74  1  0
 76 73  1  0
 77 76  1  0
 77 75  2  0
 78 75  1  0
 78 79  1  0
 80 79  2  0
 81 80  1  0
 82 83  1  0
 82 81  2  0
 83 78  2  0
 84 81  1  0
 84 85  1  0
 85 86  1  0
 86 87  2  0
 88 87  1  0
 88 92  1  0
 89 88  2  0
 90 85  2  0
 90 89  1  0
 91 90  1  0
 93 94  1  0
 94 96  1  0
 94 97  1  0
 95 93  2  0
 98 99  1  0
100 98  1  0
M  ISO  4  10 101  11 101  64 100  65 100
M  END
>  <TORSDO>  (85) 
F 34

>  <SCORE>  (85) 
2.156

>  <name>  (85) 
87

>  <ligand_id>  (85) 
87

>  <original_smiles>  (85) 
[H]c1c([H])c([H])c2c(c1[H])C([H])([H])C([H])([H])C([H])([H])C2([H])N([H])C(=O)C1([H])N(C(=O)C([H])(N([H])C(=O)C([H])(N([H])C([H])([H])[H])C([H])([H])[H])C(C([H])([H])[H])(C([H])([H])[H])C([H])([H])[H])C([H])([H])c2c([H])c(OC([H])([H])C([H])([H])OC([H])([H])C([H])([H])OC([H])([H])C([H])([H])OC([H])([H])C([H])([H])OC([H])([H])C([H])([H])OC([H])([H])C([H])([H])n3nnc(C([H])([H])C(=O)N4C([H])([H])C([H])([H])C([H])([H])C([H])(n5nc(-c6c([H])c([H])c(Oc7c([H])c([H])c(F)c([H])c7F)c([H])c6[H])c(C(=O)N([H])[H])c5N([H])[H])C4([H])[H])c3[H])c([H])c([H])c2C1([H])[H]

>  <smiles>  (85) 
[H]c1c([H])c([H])c2c(c1[H])C([H])([H])C([H])([H])C([H])([H])C2([H])N([H])C(=O)C1([H])N(C(=O)C([H])(N([H])C(=O)C([H])(N([H])C([H])([H])[H])C([H])([H])[H])C(C([H])([H])[H])(C([H])([H])[H])C([H])([H])[H])C([H])([H])c2c([H])c(OC([H])([H])C([H])([H])OC([H])([H])C([H])([H])OC([H])([H])C([H])([H])OC([H])([H])C([H])([H])OC([H])([H])C([H])([H])OC([H])([H])C([H])([H])n3nnc(C([H])([H])C(=O)N4C([H])([H])C([H])([H])C([H])([H])C([H])(n5nc(-c6c([H])c([H])c(Oc7c([H])c([H])c(F)c([H])c7F)c([H])c6[H])c(C(=O)N([H])[H])c5N([H])[H])C4([H])[H])c3[H])c([H])c([H])c2C1([H])[H]

$$$$
88:0:0
     RDKit          3D

112121  0  0  1  0  0  0  0  0999 V2000
  -26.3900  -24.7440   14.5340 C   0  0  0  0  0  3  0  0  0  0  0  0
  -27.5160  -25.2300   16.6430 C   0  0  0  0  0  3  0  0  0  0  0  0
  -27.3370  -25.5330   13.8540 C   0  0  0  0  0  3  0  0  0  0  0  0
  -28.4390  -26.0510   15.9700 C   0  0  0  0  0  3  0  0  0  0  0  0
  -26.4980  -24.5630   15.9270 C   0  0  0  0  0  0  0  0  0  0  0  0
  -28.3720  -26.1710   14.5690 C   0  0  0  0  0  0  0  0  0  0  0  0
  -25.8770  -22.6530   17.3120 C   0  0  0  0  0  0  0  0  0  0  0  0
  -25.5640  -23.7410   16.5940 N   0  0  0  0  0  0  0  0  0  0  0  0
  -27.0170  -22.1810   17.3670 O   0  0  0  0  0  0  0  0  0  0  0  0
  -24.5830  -23.9560   16.4740 H   0  0  0  0  0  0  0  0  0  0  0  0
  -24.7290  -21.9700   18.0690 C   0  0  0  0  0  2  0  0  0  0  0  0
  -25.0690  -21.7350   19.4380 O   0  0  0  0  0  0  0  0  0  0  0  0
  -25.1290  -22.8870   20.2800 C   0  0  0  0  0  2  0  0  0  0  0  0
  -26.5550  -23.1190   20.8070 C   0  0  0  0  0  2  0  0  0  0  0  0
  -27.2780  -23.8950   19.8610 O   0  0  0  0  0  0  0  0  0  0  0  0
  -28.5620  -24.3310   20.2950 C   0  0  0  0  0  2  0  0  0  0  0  0
  -28.4930  -25.6870   21.0110 C   0  0  0  0  0  2  0  0  0  0  0  0
  -28.4040  -26.7480   20.0620 O   0  0  0  0  0  0  0  0  0  0  0  0
  -24.6140  -31.8700   23.2120 C   0  0  0  0  0  0  0  0  0  0  0  0
  -27.2310  -27.4600   20.1010 C   0  0  0  0  0  0  0  0  0  0  0  0
  -23.4010  -30.4920   21.5490 C   0  0  0  0  0  3  0  0  0  0  0  0
  -24.8450  -28.9570   20.1160 C   0  0  0  0  0  0  0  0  0  0  0  0
  -25.9250  -30.8410   21.3550 C   0  0  0  0  0  2  0  0  0  0  0  0
  -26.0020  -29.4730   20.7140 C   0  0  0  0  0  0  0  0  0  0  0  0
  -27.2020  -28.7320   20.7070 C   0  0  0  0  0  3  0  0  0  0  0  0
  -26.0640  -26.9460   19.5040 C   0  0  0  0  0  3  0  0  0  0  0  0
  -24.8710  -27.6910   19.5030 C   0  0  0  0  0  3  0  0  0  0  0  0
  -23.6060  -29.8200   20.1650 C   0  0  0  0  0  2  0  0  0  0  0  0
  -24.6660  -31.0820   22.0970 N   0  0  0  0  0  0  0  0  0  0  0  0
  -23.5340  -32.1420   23.7520 O   0  0  0  0  0  0  0  0  0  0  0  0
  -22.7390  -29.4690   22.4990 C   0  0  0  0  0  0  0  0  0  0  0  0
  -21.4140  -29.3060   22.3760 N   0  0  0  0  0  0  0  0  0  0  0  0
  -23.4190  -28.8200   23.2990 O   0  0  0  0  0  0  0  0  0  0  0  0
  -20.9270  -29.8770   21.7010 H   0  0  0  0  0  0  0  0  0  0  0  0
  -18.0260  -28.1400   22.8530 C   0  0  0  0  0  0  0  0  0  0  0  0
  -20.5860  -28.3670   23.1340 C   0  0  0  0  0  3  0  0  0  0  0  0
  -20.6790  -26.9410   22.5440 C   0  0  0  0  0  2  0  0  0  0  0  0
  -19.5740  -26.6400   21.5260 C   0  0  0  0  0  2  0  0  0  0  0  0
  -18.1910  -26.7960   22.1650 C   0  0  0  0  0  2  0  0  0  0  0  0
  -19.1520  -28.8860   23.2930 C   0  0  0  0  0  0  0  0  0  0  0  0
  -18.9440  -30.1480   23.8930 C   0  0  0  0  0  3  0  0  0  0  0  0
  -17.6440  -30.6610   24.0580 C   0  0  0  0  0  3  0  0  0  0  0  0
  -16.5330  -29.9130   23.6320 C   0  0  0  0  0  3  0  0  0  0  0  0
  -16.7250  -28.6540   23.0350 C   0  0  0  0  0  3  0  0  0  0  0  0
  -25.9020  -32.4830   23.8400 C   0  0  0  0  0  3  0  0  0  0  0  0
  -26.4450  -31.6600   25.0720 C   0  0  1  0  0  0  0  0  0  0  0  0
  -25.3730  -31.3660   26.1470 C   0  0  0  0  0  1  0  0  0  0  0  0
  -27.0280  -30.3080   24.6020 C   0  0  0  0  0  1  0  0  0  0  0  0
  -27.6070  -32.4290   25.7460 C   0  0  0  0  0  1  0  0  0  0  0  0
  -25.5880  -33.8640   24.2340 N   0  0  0  0  0  0  0  0  0  0  0  0
  -25.9020  -34.9490   23.5140 C   0  0  0  0  0  0  0  0  0  0  0  0
  -26.5570  -34.8940   22.4690 O   0  0  0  0  0  0  0  0  0  0  0  0
  -25.0090  -33.9830   25.0520 H   0  0  0  0  0  0  0  0  0  0  0  0
  -24.1480  -36.7330   23.2640 C   0  0  0  0  0  1  0  0  0  0  0  0
  -25.4100  -36.3120   24.0350 C   0  0  0  0  0  3  0  0  0  0  0  0
  -27.5560  -37.1810   24.8460 C   0  0  0  0  0  1  0  0  0  0  0  0
  -26.4270  -37.3820   23.9410 N   0  0  0  0  0  0  0  0  0  0  0  0
  -26.0150  -38.2900   24.1430 H   0  0  0  0  0  0  0  0  0  0  0  0
  -29.3340  -26.8880   13.9130 O   0  0  0  0  0  0  0  0  0  0  0  0
  -30.2180  -26.0730   13.1480 C   0  0  0  0  0  2  0  0  0  0  0  0
  -31.6720  -26.4200   13.5010 C   0  0  0  0  0  2  0  0  0  0  0  0
  -32.0240  -26.2490   14.9870 C   0  0  0  0  0  2  0  0  0  0  0  0
  -31.9270  -24.8930   15.4070 O   0  0  0  0  0  0  0  0  0  0  0  0
  -32.2380  -24.7720   16.7890 C   0  0  0  0  0  2  0  0  0  0  0  0
  -32.2820  -23.3030   17.2180 C   0  0  0  0  0  2  0  0  0  0  0  0
  -30.9100  -22.6170   17.3690 C   0  0  0  0  0  2  0  0  0  0  0  0
  -31.0870  -21.2660   18.0740 C   0  0  0  0  0  2  0  0  0  0  0  0
  -29.8620  -20.5800   18.3160 O   0  0  0  0  0  0  0  0  0  0  0  0
  -28.7720  -17.4710   19.9970 C   0  0  0  0  0  3  0  0  0  0  0  0
  -31.1970  -17.4440   19.8660 C   0  0  0  0  0  3  0  0  0  0  0  0
  -28.7540  -18.7280   19.3540 C   0  0  0  0  0  3  0  0  0  0  0  0
  -31.1740  -18.6960   19.2290 C   0  0  0  0  0  3  0  0  0  0  0  0
  -29.9930  -16.8030   20.2400 C   0  0  0  0  0  0  0  0  0  0  0  0
  -29.9500  -19.3570   18.9540 C   0  0  0  0  0  0  0  0  0  0  0  0
  -30.7080  -14.4560   20.5040 C   0  0  0  0  0  0  0  0  0  0  0  0
  -30.4170  -12.2770   19.4330 C   0  0  0  0  0  2  0  0  0  0  0  0
  -29.5050  -12.5020   18.2120 C   0  0  0  0  0  2  0  0  0  0  0  0
  -28.0200  -12.3750   18.6120 C   0  0  0  0  0  2  0  0  0  0  0  0
  -27.6620  -13.2110   19.8710 C   0  0  0  0  0  3  0  0  0  0  0  0
  -28.7040  -13.0030   20.9950 C   0  0  0  0  0  2  0  0  0  0  0  0
  -30.0410  -13.2750   20.4410 N   0  0  0  0  0  0  0  0  0  0  0  0
  -31.8700  -14.5850   20.1120 O   0  0  0  0  0  0  0  0  0  0  0  0
  -29.9510  -15.5130   20.8510 N   0  0  0  0  0  0  0  0  0  0  0  0
  -29.0590  -15.2560   21.2430 H   0  0  0  0  0  0  0  0  0  0  0  0
  -25.2600  -13.8170   20.5640 C   0  0  0  0  0  0  0  0  0  0  0  0
  -24.1870  -13.0460   20.9190 C   0  0  0  0  0  0  0  0  0  0  0  0
  -24.6450  -11.6930   20.8730 C   0  0  0  0  0  0  0  0  0  0  0  0
  -26.3030  -12.9340   20.3320 N   0  0  0  0  0  0  0  0  0  0  0  0
  -25.9360  -11.6500   20.5750 N   0  0  0  0  0  0  0  0  0  0  0  0
  -23.9120  -10.4310   21.0390 C   0  0  0  0  0  0  0  0  0  0  0  0
  -24.3670   -9.4220   21.9170 C   0  0  0  0  0  3  0  0  0  0  0  0
  -23.6340   -8.2250   22.0730 C   0  0  0  0  0  3  0  0  0  0  0  0
  -22.4310   -8.0290   21.3540 C   0  0  0  0  0  0  0  0  0  0  0  0
  -21.9970   -9.0280   20.4640 C   0  0  0  0  0  3  0  0  0  0  0  0
  -22.7300  -10.2160   20.3050 C   0  0  0  0  0  3  0  0  0  0  0  0
  -21.6660   -6.8900   21.4240 O   0  0  0  0  0  0  0  0  0  0  0  0
  -21.6860   -6.0760   22.5280 C   0  0  0  0  0  0  0  0  0  0  0  0
  -21.4010   -6.5650   23.8220 C   0  0  0  0  0  3  0  0  0  0  0  0
  -21.3650   -5.6800   24.9180 C   0  0  0  0  0  3  0  0  0  0  0  0
  -21.6060   -4.3070   24.7210 C   0  0  0  0  0  0  0  0  0  0  0  0
  -21.8820   -3.8160   23.4330 C   0  0  0  0  0  3  0  0  0  0  0  0
  -21.9200   -4.6980   22.3400 C   0  0  0  0  0  0  0  0  0  0  0  0
  -22.1660   -4.2160   21.0970 F   0  0  0  0  0  0  0  0  0  0  0  0
  -21.5630   -3.4550   25.7720 F   0  0  0  0  0  0  0  0  0  0  0  0
  -22.7900  -13.5250   21.1830 C   0  0  0  0  0  0  0  0  0  0  0  0
  -22.0520  -12.8240   22.0380 N   0  0  0  0  0  0  0  0  0  0  0  0
  -22.3580  -14.5540   20.6660 O   0  0  0  0  0  0  0  0  0  0  0  0
  -22.4150  -11.9920   22.4770 H   0  0  0  0  0  0  0  0  0  0  0  0
  -21.1120  -13.1260   22.2530 H   0  0  0  0  0  0  0  0  0  0  0  0
  -25.4330  -15.1870   20.3930 N   0  0  0  0  0  0  0  0  0  0  0  0
  -24.6630  -15.8410   20.4650 H   0  0  0  0  0  0  0  0  0  0  0  0
  -26.2620  -15.5970   19.9810 H   0  0  0  0  0  0  0  0  0  0  0  0
  1  5  1  0
  3  1  2  0
  3  6  1  0
  4  2  1  0
  5  8  1  0
  5  2  2  0
  6  4  2  0
  7  9  2  0
  7 11  1  0
  8  7  1  0
 10  8  1  0
 11 12  1  0
 12 13  1  0
 13 14  1  0
 15 16  1  0
 15 14  1  0
 16 17  1  0
 18 20  1  0
 18 17  1  0
 19 30  2  0
 20 25  1  0
 21 29  1  0
 21 31  1  0
 22 28  1  0
 22 24  1  0
 23 29  1  0
 24 23  1  0
 25 24  2  0
 26 20  2  0
 27 26  1  0
 27 22  2  0
 28 21  1  0
 29 19  1  0
 31 33  2  0
 32 31  1  0
 34 32  1  0
 35 44  2  0
 35 40  1  0
 36 32  1  0
 36 40  1  0
 37 36  1  0
 38 39  1  0
 38 37  1  0
 39 35  1  0
 40 41  2  0
 41 42  1  0
 43 42  2  0
 44 43  1  0
 45 19  1  0
 45 50  1  0
 45 46  1  0
 46 49  1  1
 46 47  1  0
 48 46  1  0
 50 53  1  0
 51 55  1  0
 51 50  1  0
 52 51  2  0
 55 54  1  0
 57 55  1  0
 57 58  1  0
 57 56  1  0
 59  6  1  0
 60 61  1  0
 60 59  1  0
 61 62  1  0
 62 63  1  0
 63 64  1  0
 64 65  1  0
 65 66  1  0
 66 67  1  0
 67 68  1  0
 68 74  1  0
 69 73  1  0
 70 73  2  0
 71 69  2  0
 72 70  1  0
 73 83  1  0
 74 72  2  0
 74 71  1  0
 75 83  1  0
 76 81  1  0
 77 78  1  0
 77 76  1  0
 79 78  1  0
 79 88  1  0
 79 80  1  0
 81 75  1  0
 81 80  1  0
 82 75  2  0
 83 84  1  0
 85 86  2  0
 86105  1  0
 87 86  1  0
 87 90  1  0
 88 85  1  0
 88 89  1  0
 89 87  2  0
 90 91  1  0
 91 92  2  0
 93 96  1  0
 93 92  1  0
 94 93  2  0
 95 94  1  0
 95 90  2  0
 96 97  1  0
 97 98  1  0
 98 99  2  0
100 99  1  0
100104  1  0
101100  2  0
102 97  2  0
102101  1  0
103102  1  0
105106  1  0
106109  1  0
106108  1  0
107105  2  0
110111  1  0
110 85  1  0
112110  1  0
M  ISO  4  17 101  18 101  75 100  83 100
M  END
>  <TORSDO>  (86) 
F 35

>  <SCORE>  (86) 
-8.562

>  <name>  (86) 
88

>  <ligand_id>  (86) 
88

>  <original_smiles>  (86) 
[H]c1c([H])c([H])c2c(c1[H])C([H])([H])C([H])([H])C([H])([H])C2([H])N([H])C(=O)C1([H])N(C(=O)C([H])(N([H])C(=O)C([H])(N([H])C([H])([H])[H])C([H])([H])[H])C(C([H])([H])[H])(C([H])([H])[H])C([H])([H])[H])C([H])([H])c2c([H])c(OC([H])([H])C([H])([H])OC([H])([H])C([H])([H])OC([H])([H])C(=O)N([H])c3c([H])c([H])c(OC([H])([H])C([H])([H])C([H])([H])OC([H])([H])C([H])([H])C([H])([H])C([H])([H])Oc4c([H])c([H])c(N([H])C(=O)N5C([H])([H])C([H])([H])C([H])([H])C([H])(n6nc(-c7c([H])c([H])c(Oc8c([H])c([H])c(F)c([H])c8F)c([H])c7[H])c(C(=O)N([H])[H])c6N([H])[H])C5([H])[H])c([H])c4[H])c([H])c3[H])c([H])c([H])c2C1([H])[H]

>  <smiles>  (86) 
[H]c1c([H])c([H])c2c(c1[H])C([H])([H])C([H])([H])C([H])([H])C2([H])N([H])C(=O)C1([H])N(C(=O)C([H])(N([H])C(=O)C([H])(N([H])C([H])([H])[H])C([H])([H])[H])C(C([H])([H])[H])(C([H])([H])[H])C([H])([H])[H])C([H])([H])c2c([H])c(OC([H])([H])C([H])([H])OC([H])([H])C([H])([H])OC([H])([H])C(=O)N([H])c3c([H])c([H])c(OC([H])([H])C([H])([H])C([H])([H])OC([H])([H])C([H])([H])C([H])([H])C([H])([H])Oc4c([H])c([H])c(N([H])C(=O)N5C([H])([H])C([H])([H])C([H])([H])C([H])(n6nc(-c7c([H])c([H])c(Oc8c([H])c([H])c(F)c([H])c8F)c([H])c7[H])c(C(=O)N([H])[H])c6N([H])[H])C5([H])[H])c([H])c4[H])c([H])c3[H])c([H])c([H])c2C1([H])[H]

$$$$
89:0:0
     RDKit          3D

 94102  0  0  1  0  0  0  0  0999 V2000
  -31.1300  -20.1350   15.7710 C   0  0  0  0  0  2  0  0  0  0  0  0
  -31.5890  -21.4510   16.4180 C   0  0  0  0  0  2  0  0  0  0  0  0
  -30.6360  -21.8750   17.3860 O   0  0  0  0  0  0  0  0  0  0  0  0
  -30.6040  -23.2630   17.7360 C   0  0  0  0  0  2  0  0  0  0  0  0
  -29.1500  -23.4750   18.2190 C   0  0  0  0  0  2  0  0  0  0  0  0
  -28.6170  -24.9170   18.4830 C   0  0  0  0  0  2  0  0  0  0  0  0
  -28.5720  -25.3850   19.9610 C   0  0  0  0  0  2  0  0  0  0  0  0
  -28.4490  -26.8050   20.0920 O   0  0  0  0  0  0  0  0  0  0  0  0
  -24.5600  -31.8490   23.2510 C   0  0  0  0  0  0  0  0  0  0  0  0
  -27.2170  -27.4320   20.1190 C   0  0  0  0  0  0  0  0  0  0  0  0
  -23.3530  -30.4420   21.6110 C   0  0  0  0  0  3  0  0  0  0  0  0
  -24.8030  -28.9040   20.1760 C   0  0  0  0  0  0  0  0  0  0  0  0
  -25.8740  -30.8030   21.4130 C   0  0  0  0  0  2  0  0  0  0  0  0
  -25.9540  -29.4310   20.7710 C   0  0  0  0  0  0  0  0  0  0  0  0
  -27.1590  -28.7030   20.7340 C   0  0  0  0  0  3  0  0  0  0  0  0
  -26.0370  -26.8900   19.5590 C   0  0  0  0  0  3  0  0  0  0  0  0
  -24.8350  -27.6330   19.5720 C   0  0  0  0  0  3  0  0  0  0  0  0
  -23.5640  -29.7640   20.2280 C   0  0  0  0  0  2  0  0  0  0  0  0
  -24.6100  -31.0520   22.1470 N   0  0  0  0  0  0  0  0  0  0  0  0
  -23.4780  -32.1210   23.7900 O   0  0  0  0  0  0  0  0  0  0  0  0
  -22.7000  -29.4260   22.5760 C   0  0  0  0  0  0  0  0  0  0  0  0
  -21.3740  -29.2550   22.4550 N   0  0  0  0  0  0  0  0  0  0  0  0
  -23.3880  -28.7830   23.3760 O   0  0  0  0  0  0  0  0  0  0  0  0
  -20.8930  -29.8280   21.7750 H   0  0  0  0  0  0  0  0  0  0  0  0
  -17.9840  -28.0890   22.9590 C   0  0  0  0  0  0  0  0  0  0  0  0
  -20.5450  -28.3190   23.2200 C   0  0  0  0  0  3  0  0  0  0  0  0
  -20.6270  -26.8910   22.6340 C   0  0  0  0  0  2  0  0  0  0  0  0
  -19.5180  -26.5870   21.6230 C   0  0  0  0  0  2  0  0  0  0  0  0
  -18.1400  -26.7420   22.2740 C   0  0  0  0  0  2  0  0  0  0  0  0
  -19.1100  -28.8410   23.3850 C   0  0  0  0  0  0  0  0  0  0  0  0
  -18.9050  -30.1050   23.9810 C   0  0  0  0  0  3  0  0  0  0  0  0
  -17.6050  -30.6210   24.1420 C   0  0  0  0  0  3  0  0  0  0  0  0
  -16.4930  -29.8690   23.7220 C   0  0  0  0  0  3  0  0  0  0  0  0
  -16.6840  -28.6010   23.1460 C   0  0  0  0  0  3  0  0  0  0  0  0
  -25.8470  -32.4800   23.8720 C   0  0  0  0  0  3  0  0  0  0  0  0
  -26.3600  -31.6990   25.1420 C   0  0  1  0  0  0  0  0  0  0  0  0
  -25.2640  -31.4590   26.2110 C   0  0  0  0  0  1  0  0  0  0  0  0
  -26.9240  -30.3210   24.7280 C   0  0  0  0  0  1  0  0  0  0  0  0
  -27.5300  -32.4720   25.7910 C   0  0  0  0  0  1  0  0  0  0  0  0
  -25.5540  -33.8770   24.2040 N   0  0  0  0  0  0  0  0  0  0  0  0
  -25.9010  -34.9240   23.4410 C   0  0  0  0  0  0  0  0  0  0  0  0
  -26.5750  -34.8070   22.4120 O   0  0  0  0  0  0  0  0  0  0  0  0
  -24.9670  -34.0520   25.0080 H   0  0  0  0  0  0  0  0  0  0  0  0
  -24.1840  -36.7140   23.0590 C   0  0  0  0  0  1  0  0  0  0  0  0
  -25.4200  -36.3160   23.8850 C   0  0  0  0  0  3  0  0  0  0  0  0
  -27.5650  -37.1700   24.7180 C   0  0  0  0  0  1  0  0  0  0  0  0
  -26.4670  -37.3570   23.7730 N   0  0  0  0  0  0  0  0  0  0  0  0
  -26.0780  -38.2870   23.9040 H   0  0  0  0  0  0  0  0  0  0  0  0
  -32.2140  -19.2550   15.4290 O   0  0  0  0  0  0  0  0  0  0  0  0
  -32.9790  -17.0690   18.3690 C   0  0  0  0  0  3  0  0  0  0  0  0
  -32.6520  -15.7020   16.4040 C   0  0  0  0  0  3  0  0  0  0  0  0
  -32.7630  -18.2210   17.5770 C   0  0  0  0  0  3  0  0  0  0  0  0
  -32.4470  -16.8630   15.6290 C   0  0  0  0  0  3  0  0  0  0  0  0
  -32.8810  -15.7740   17.7970 C   0  0  0  0  0  0  0  0  0  0  0  0
  -32.4420  -18.1400   16.2130 C   0  0  0  0  0  0  0  0  0  0  0  0
  -33.1800  -14.4700   18.5790 C   0  0  0  0  0  2  0  0  0  0  0  0
  -31.2400  -14.3370   20.2650 C   0  0  0  0  0  0  0  0  0  0  0  0
  -30.5280  -12.5860   18.9890 C   0  0  0  0  0  3  0  0  0  0  0  0
  -29.4010  -11.9120   18.3250 C   0  0  0  0  0  3  0  0  0  0  0  0
  -27.9920  -12.1270   18.8290 C   0  0  0  0  0  2  0  0  0  0  0  0
  -27.6980  -13.2810   19.7850 C   0  0  0  0  0  3  0  0  0  0  0  0
  -28.8620  -13.4470   20.8020 C   0  0  0  0  0  2  0  0  0  0  0  0
  -30.2600  -13.3750   20.1920 N   0  0  0  0  0  0  0  0  0  0  0  0
  -31.1910  -15.4080   20.7760 O   0  0  0  0  0  0  0  0  0  0  0  0
  -32.4970  -14.0940   19.8390 N   0  0  0  0  0  0  0  0  0  0  0  0
  -33.1210  -14.4420   20.5460 H   0  0  0  0  0  0  0  0  0  0  0  0
  -25.2790  -13.9470   20.5510 C   0  0  0  0  0  0  0  0  0  0  0  0
  -24.1980  -13.1960   20.9060 C   0  0  0  0  0  0  0  0  0  0  0  0
  -24.6530  -11.8400   20.9290 C   0  0  0  0  0  0  0  0  0  0  0  0
  -26.3430  -13.0770   20.3670 N   0  0  0  0  0  0  0  0  0  0  0  0
  -25.9450  -11.8080   20.6470 N   0  0  0  0  0  0  0  0  0  0  0  0
  -23.9440  -10.5720   21.1100 C   0  0  0  0  0  0  0  0  0  0  0  0
  -24.3700   -9.5890   22.0350 C   0  0  0  0  0  3  0  0  0  0  0  0
  -23.6330   -8.3890   22.1780 C   0  0  0  0  0  3  0  0  0  0  0  0
  -22.4620   -8.1710   21.4140 C   0  0  0  0  0  0  0  0  0  0  0  0
  -22.0690   -9.1450   20.4800 C   0  0  0  0  0  3  0  0  0  0  0  0
  -22.8060  -10.3260   20.3200 C   0  0  0  0  0  3  0  0  0  0  0  0
  -21.6870   -7.0390   21.5020 O   0  0  0  0  0  0  0  0  0  0  0  0
  -21.6310   -6.2820   22.6480 C   0  0  0  0  0  0  0  0  0  0  0  0
  -21.2260   -6.8310   23.8850 C   0  0  0  0  0  3  0  0  0  0  0  0
  -21.1200   -6.0060   25.0210 C   0  0  0  0  0  3  0  0  0  0  0  0
  -21.4170   -4.6360   24.9270 C   0  0  0  0  0  0  0  0  0  0  0  0
  -21.8160   -4.0850   23.6950 C   0  0  0  0  0  3  0  0  0  0  0  0
  -21.9140   -4.9050   22.5570 C   0  0  0  0  0  0  0  0  0  0  0  0
  -22.2800   -4.3590   21.3730 F   0  0  0  0  0  0  0  0  0  0  0  0
  -21.3070   -3.8400   26.0190 F   0  0  0  0  0  0  0  0  0  0  0  0
  -22.7820  -13.6540   21.1220 C   0  0  0  0  0  0  0  0  0  0  0  0
  -22.0480  -12.9630   21.9830 N   0  0  0  0  0  0  0  0  0  0  0  0
  -22.3470  -14.6690   20.5680 O   0  0  0  0  0  0  0  0  0  0  0  0
  -22.4010  -12.1380   22.4630 H   0  0  0  0  0  0  0  0  0  0  0  0
  -21.1040  -13.2530   22.1880 H   0  0  0  0  0  0  0  0  0  0  0  0
  -25.4610  -15.3050   20.2960 N   0  0  0  0  0  0  0  0  0  0  0  0
  -24.7300  -15.9980   20.2850 H   0  0  0  0  0  0  0  0  0  0  0  0
  -26.3260  -15.7130   19.9880 H   0  0  0  0  0  0  0  0  0  0  0  0
  1  2  1  0
  2  3  1  0
  3  4  1  0
  4  5  1  0
  5  6  1  0
  6  7  1  0
  7  8  1  0
  8 10  1  0
  9 20  2  0
 10 15  1  0
 11 19  1  0
 11 21  1  0
 12 18  1  0
 12 14  1  0
 13 19  1  0
 14 13  1  0
 15 14  2  0
 16 17  1  0
 16 10  2  0
 17 12  2  0
 18 11  1  0
 19  9  1  0
 21 23  2  0
 22 21  1  0
 24 22  1  0
 25 34  2  0
 25 30  1  0
 26 22  1  0
 26 30  1  0
 27 26  1  0
 28 29  1  0
 28 27  1  0
 29 25  1  0
 30 31  2  0
 31 32  1  0
 33 32  2  0
 34 33  1  0
 35  9  1  0
 35 40  1  0
 35 36  1  0
 36 39  1  1
 36 37  1  0
 38 36  1  0
 40 43  1  0
 41 45  1  0
 41 40  1  0
 42 41  2  0
 45 44  1  0
 47 45  1  0
 47 48  1  0
 47 46  1  0
 49  1  1  0
 49 55  1  0
 51 54  2  0
 52 50  2  0
 53 55  2  0
 53 51  1  0
 54 50  1  0
 54 56  1  0
 55 52  1  0
 56 65  1  0
 57 64  2  0
 58 63  1  0
 59 60  1  0
 59 58  2  0
 61 60  1  0
 61 70  1  0
 61 62  1  0
 63 57  1  0
 63 62  1  0
 65 57  1  0
 65 66  1  0
 67 68  2  0
 68 69  1  0
 68 87  1  0
 69 72  1  0
 70 67  1  0
 70 71  1  0
 71 69  2  0
 72 73  1  0
 73 74  2  0
 75 78  1  0
 75 74  1  0
 76 75  2  0
 77 76  1  0
 77 72  2  0
 78 79  1  0
 79 80  1  0
 80 81  2  0
 82 81  1  0
 82 86  1  0
 83 82  2  0
 84 79  2  0
 84 83  1  0
 85 84  1  0
 87 88  1  0
 88 91  1  0
 88 90  1  0
 89 87  2  0
 92 67  1  0
 93 92  1  0
 94 92  1  0
M  ISO  4   7 101   8 101  57 100  65 100
M  END
>  <TORSDO>  (87) 
F 25

>  <SCORE>  (87) 
-11.847

>  <name>  (87) 
89

>  <ligand_id>  (87) 
89

>  <original_smiles>  (87) 
[H]c1c([H])c([H])c2c(c1[H])C([H])([H])C([H])([H])C([H])([H])C2([H])N([H])C(=O)C1([H])N(C(=O)C([H])(N([H])C(=O)C([H])(N([H])C([H])([H])[H])C([H])([H])[H])C(C([H])([H])[H])(C([H])([H])[H])C([H])([H])[H])C([H])([H])c2c([H])c(OC([H])([H])C([H])([H])C([H])([H])C([H])([H])OC([H])([H])C([H])([H])Oc3c([H])c([H])c(C([H])([H])N([H])C(=O)N4C([H])([H])C([H])([H])C([H])([H])C([H])(n5nc(-c6c([H])c([H])c(Oc7c([H])c([H])c(F)c([H])c7F)c([H])c6[H])c(C(=O)N([H])[H])c5N([H])[H])C4([H])[H])c([H])c3[H])c([H])c([H])c2C1([H])[H]

>  <smiles>  (87) 
[H]c1c([H])c([H])c2c(c1[H])C([H])([H])C([H])([H])C([H])([H])C2([H])N([H])C(=O)C1([H])N(C(=O)C([H])(N([H])C(=O)C([H])(N([H])C([H])([H])[H])C([H])([H])[H])C(C([H])([H])[H])(C([H])([H])[H])C([H])([H])[H])C([H])([H])c2c([H])c(OC([H])([H])C([H])([H])C([H])([H])C([H])([H])OC([H])([H])C([H])([H])Oc3c([H])c([H])c(C([H])([H])N([H])C(=O)N4C([H])([H])C([H])([H])C([H])([H])C([H])(n5nc(-c6c([H])c([H])c(Oc7c([H])c([H])c(F)c([H])c7F)c([H])c6[H])c(C(=O)N([H])[H])c5N([H])[H])C4([H])[H])c([H])c3[H])c([H])c([H])c2C1([H])[H]

$$$$
90:0:0
     RDKit          3D

108115  0  0  1  0  0  0  0  0999 V2000
  -27.0260  -22.8230   23.6170 C   0  0  0  0  0  2  0  0  0  0  0  0
  -25.8030  -22.7270   22.6810 C   0  0  0  0  0  0  0  0  0  0  0  0
  -25.7390  -23.6270   21.6960 N   0  0  0  0  0  0  0  0  0  0  0  0
  -24.9660  -21.8320   22.8270 O   0  0  0  0  0  0  0  0  0  0  0  0
  -26.4690  -24.3270   21.7150 H   0  0  0  0  0  0  0  0  0  0  0  0
  -25.0200  -23.4710   20.4360 C   0  0  0  0  0  2  0  0  0  0  0  0
  -26.0390  -23.6180   19.2930 C   0  0  0  0  0  2  0  0  0  0  0  0
  -25.4240  -23.8180   18.0230 O   0  0  0  0  0  0  0  0  0  0  0  0
  -26.3080  -23.6700   16.9050 C   0  0  0  0  0  2  0  0  0  0  0  0
  -27.1680  -24.9210   16.6040 C   0  0  0  0  0  2  0  0  0  0  0  0
  -28.1080  -25.1770   17.6470 O   0  0  0  0  0  0  0  0  0  0  0  0
  -28.7270  -26.4600   17.5580 C   0  0  0  0  0  2  0  0  0  0  0  0
  -29.2780  -26.9000   18.9360 C   0  0  0  0  0  2  0  0  0  0  0  0
  -28.3700  -26.7250   20.0270 O   0  0  0  0  0  0  0  0  0  0  0  0
  -24.6080  -31.8740   23.2180 C   0  0  0  0  0  0  0  0  0  0  0  0
  -27.2410  -27.5040   20.0320 C   0  0  0  0  0  0  0  0  0  0  0  0
  -23.3930  -30.5030   21.5570 C   0  0  0  0  0  3  0  0  0  0  0  0
  -24.8420  -28.9870   20.1120 C   0  0  0  0  0  0  0  0  0  0  0  0
  -25.9200  -30.8480   21.3720 C   0  0  0  0  0  2  0  0  0  0  0  0
  -26.0000  -29.4860   20.7240 C   0  0  0  0  0  0  0  0  0  0  0  0
  -27.1950  -28.7350   20.7180 C   0  0  0  0  0  3  0  0  0  0  0  0
  -26.0770  -27.0440   19.3820 C   0  0  0  0  0  3  0  0  0  0  0  0
  -24.8720  -27.7540   19.4490 C   0  0  0  0  0  3  0  0  0  0  0  0
  -23.5980  -29.8410   20.1700 C   0  0  0  0  0  2  0  0  0  0  0  0
  -24.6580  -31.0880   22.1080 N   0  0  0  0  0  0  0  0  0  0  0  0
  -23.5280  -32.1500   23.7600 O   0  0  0  0  0  0  0  0  0  0  0  0
  -22.7350  -29.4700   22.5000 C   0  0  0  0  0  0  0  0  0  0  0  0
  -21.4080  -29.3040   22.3710 N   0  0  0  0  0  0  0  0  0  0  0  0
  -23.4130  -28.8240   23.3020 O   0  0  0  0  0  0  0  0  0  0  0  0
  -20.9190  -29.8790   21.6990 H   0  0  0  0  0  0  0  0  0  0  0  0
  -18.0270  -28.1350   22.8480 C   0  0  0  0  0  0  0  0  0  0  0  0
  -20.5850  -28.3640   23.1300 C   0  0  0  0  0  3  0  0  0  0  0  0
  -20.6760  -26.9380   22.5390 C   0  0  0  0  0  2  0  0  0  0  0  0
  -19.5750  -26.6380   21.5170 C   0  0  0  0  0  2  0  0  0  0  0  0
  -18.1930  -26.7900   22.1600 C   0  0  0  0  0  2  0  0  0  0  0  0
  -19.1520  -28.8810   23.2890 C   0  0  0  0  0  0  0  0  0  0  0  0
  -18.9460  -30.1410   23.8900 C   0  0  0  0  0  3  0  0  0  0  0  0
  -17.6470  -30.6560   24.0570 C   0  0  0  0  0  3  0  0  0  0  0  0
  -16.5360  -29.9080   23.6310 C   0  0  0  0  0  3  0  0  0  0  0  0
  -16.7260  -28.6490   23.0330 C   0  0  0  0  0  3  0  0  0  0  0  0
  -25.9010  -32.4850   23.8460 C   0  0  0  0  0  3  0  0  0  0  0  0
  -26.4500  -31.6570   25.0710 C   0  0  1  0  0  0  0  0  0  0  0  0
  -25.3800  -31.3670   26.1480 C   0  0  0  0  0  1  0  0  0  0  0  0
  -27.0280  -30.3010   24.5990 C   0  0  0  0  0  1  0  0  0  0  0  0
  -27.6110  -32.4260   25.7450 C   0  0  0  0  0  1  0  0  0  0  0  0
  -25.5900  -33.8650   24.2390 N   0  0  0  0  0  0  0  0  0  0  0  0
  -25.9030  -34.9500   23.5150 C   0  0  0  0  0  0  0  0  0  0  0  0
  -26.5570  -34.8940   22.4700 O   0  0  0  0  0  0  0  0  0  0  0  0
  -25.0110  -33.9830   25.0570 H   0  0  0  0  0  0  0  0  0  0  0  0
  -24.1480  -36.7320   23.2630 C   0  0  0  0  0  1  0  0  0  0  0  0
  -25.4100  -36.3140   24.0340 C   0  0  0  0  0  3  0  0  0  0  0  0
  -27.5590  -37.1790   24.8450 C   0  0  0  0  0  1  0  0  0  0  0  0
  -26.4290  -37.3820   23.9430 N   0  0  0  0  0  0  0  0  0  0  0  0
  -26.0180  -38.2880   24.1490 H   0  0  0  0  0  0  0  0  0  0  0  0
  -28.1340  -23.5520   23.0490 O   0  0  0  0  0  0  0  0  0  0  0  0
  -28.7810  -23.0950   21.8440 C   0  0  0  0  0  2  0  0  0  0  0  0
  -28.8700  -21.5680   21.6400 C   0  0  0  0  0  2  0  0  0  0  0  0
  -27.6330  -21.0940   21.1110 O   0  0  0  0  0  0  0  0  0  0  0  0
  -27.6980  -20.5020   19.8250 C   0  0  0  0  0  2  0  0  0  0  0  0
  -28.1230  -19.0500   19.9210 C   0  0  0  0  0  2  0  0  0  0  0  0
  -27.0010  -18.0500   20.2410 C   0  0  0  0  0  2  0  0  0  0  0  0
  -26.6240  -18.0200   21.6220 O   0  0  0  0  0  0  0  0  0  0  0  0
  -27.4050  -17.1550   22.4540 C   0  0  0  0  0  2  0  0  0  0  0  0
  -28.2680  -17.9610   23.4440 C   0  0  0  0  0  2  0  0  0  0  0  0
  -29.3570  -17.1180   24.1310 C   0  0  0  0  0  2  0  0  0  0  0  0
  -30.1310  -16.3910   23.1750 O   0  0  0  0  0  0  0  0  0  0  0  0
  -31.4440  -16.8780   22.9240 C   0  0  0  0  0  2  0  0  0  0  0  0
  -31.5030  -17.9470   21.8130 C   0  0  0  0  0  2  0  0  0  0  0  0
  -31.7240  -17.4280   20.3750 C   0  0  0  0  0  2  0  0  0  0  0  0
  -30.6010  -16.6230   19.6810 C   0  0  0  0  0  2  0  0  0  0  0  0
  -30.7980  -14.3490   20.4660 C   0  0  0  0  0  0  0  0  0  0  0  0
  -30.3860  -12.2180   19.4060 C   0  0  0  0  0  2  0  0  0  0  0  0
  -29.4650  -12.4610   18.1970 C   0  0  0  0  0  2  0  0  0  0  0  0
  -27.9950  -12.3280   18.6240 C   0  0  0  0  0  2  0  0  0  0  0  0
  -27.6480  -13.1980   19.8640 C   0  0  0  0  0  3  0  0  0  0  0  0
  -28.7050  -13.0480   20.9880 C   0  0  0  0  0  2  0  0  0  0  0  0
  -30.0460  -13.2320   20.4090 N   0  0  0  0  0  0  0  0  0  0  0  0
  -31.9910  -14.3900   20.1710 O   0  0  0  0  0  0  0  0  0  0  0  0
  -30.0960  -15.4730   20.4230 N   0  0  0  0  0  0  0  0  0  0  0  0
  -29.1060  -15.4020   20.6030 H   0  0  0  0  0  0  0  0  0  0  0  0
  -25.2420  -13.7980   20.5610 C   0  0  0  0  0  0  0  0  0  0  0  0
  -24.1720  -13.0340   20.9220 C   0  0  0  0  0  0  0  0  0  0  0  0
  -24.6300  -11.6820   20.8810 C   0  0  0  0  0  0  0  0  0  0  0  0
  -26.2920  -12.9220   20.3400 N   0  0  0  0  0  0  0  0  0  0  0  0
  -25.9230  -11.6390   20.5900 N   0  0  0  0  0  0  0  0  0  0  0  0
  -23.9020  -10.4230   21.0460 C   0  0  0  0  0  0  0  0  0  0  0  0
  -24.3600   -9.4150   21.9220 C   0  0  0  0  0  3  0  0  0  0  0  0
  -23.6270   -8.2200   22.0790 C   0  0  0  0  0  3  0  0  0  0  0  0
  -22.4280   -8.0220   21.3540 C   0  0  0  0  0  0  0  0  0  0  0  0
  -21.9880   -9.0210   20.4630 C   0  0  0  0  0  3  0  0  0  0  0  0
  -22.7200  -10.2090   20.3070 C   0  0  0  0  0  3  0  0  0  0  0  0
  -21.6640   -6.8820   21.4230 O   0  0  0  0  0  0  0  0  0  0  0  0
  -21.6820   -6.0680   22.5270 C   0  0  0  0  0  0  0  0  0  0  0  0
  -21.3980   -6.5620   23.8200 C   0  0  0  0  0  3  0  0  0  0  0  0
  -21.3670   -5.6800   24.9190 C   0  0  0  0  0  3  0  0  0  0  0  0
  -21.6080   -4.3060   24.7260 C   0  0  0  0  0  0  0  0  0  0  0  0
  -21.8820   -3.8110   23.4390 C   0  0  0  0  0  3  0  0  0  0  0  0
  -21.9170   -4.6910   22.3430 C   0  0  0  0  0  0  0  0  0  0  0  0
  -22.1660   -4.2080   21.1020 F   0  0  0  0  0  0  0  0  0  0  0  0
  -21.5660   -3.4590   25.7800 F   0  0  0  0  0  0  0  0  0  0  0  0
  -22.7730  -13.5130   21.1930 C   0  0  0  0  0  0  0  0  0  0  0  0
  -22.0380  -12.8170   22.0500 N   0  0  0  0  0  0  0  0  0  0  0  0
  -22.3480  -14.5510   20.6820 O   0  0  0  0  0  0  0  0  0  0  0  0
  -22.3960  -11.9820   22.4930 H   0  0  0  0  0  0  0  0  0  0  0  0
  -21.1010  -13.1210   22.2750 H   0  0  0  0  0  0  0  0  0  0  0  0
  -25.3990  -15.1630   20.3690 N   0  0  0  0  0  0  0  0  0  0  0  0
  -24.5970  -15.7810   20.4100 H   0  0  0  0  0  0  0  0  0  0  0  0
  -26.1930  -15.5620   19.8890 H   0  0  0  0  0  0  0  0  0  0  0  0
  2  4  2  0
  2  1  1  0
  3  5  1  0
  3  2  1  0
  6  3  1  0
  7  6  1  0
  8  7  1  0
  9  8  1  0
 10  9  1  0
 10 11  1  0
 12 11  1  0
 12 13  1  0
 13 14  1  0
 14 16  1  0
 15 26  2  0
 16 21  1  0
 17 25  1  0
 17 27  1  0
 18 24  1  0
 18 20  1  0
 19 25  1  0
 20 19  1  0
 21 20  2  0
 22 23  1  0
 22 16  2  0
 23 18  2  0
 24 17  1  0
 25 15  1  0
 27 29  2  0
 28 27  1  0
 30 28  1  0
 31 40  2  0
 31 36  1  0
 32 28  1  0
 32 36  1  0
 33 32  1  0
 34 35  1  0
 34 33  1  0
 35 31  1  0
 36 37  2  0
 37 38  1  0
 39 38  2  0
 40 39  1  0
 41 15  1  0
 41 46  1  0
 41 42  1  0
 42 45  1  1
 42 43  1  0
 44 42  1  0
 46 49  1  0
 47 51  1  0
 47 46  1  0
 48 47  2  0
 51 50  1  0
 53 51  1  0
 53 54  1  0
 53 52  1  0
 55  1  1  0
 56 55  1  0
 57 56  1  0
 58 57  1  0
 59 60  1  0
 59 58  1  0
 60 61  1  0
 61 62  1  0
 62 63  1  0
 63 64  1  0
 64 65  1  0
 66 65  1  0
 67 66  1  0
 68 67  1  0
 69 68  1  0
 70 69  1  0
 70 79  1  0
 72 77  1  0
 73 74  1  0
 73 72  1  0
 75 74  1  0
 75 84  1  0
 75 76  1  0
 77 71  1  0
 77 76  1  0
 78 71  2  0
 79 71  1  0
 79 80  1  0
 81 82  2  0
 82101  1  0
 83 82  1  0
 83 86  1  0
 84 81  1  0
 84 85  1  0
 85 83  2  0
 86 87  1  0
 87 88  2  0
 89 92  1  0
 89 88  1  0
 90 89  2  0
 91 90  1  0
 91 86  2  0
 92 93  1  0
 93 94  1  0
 94 95  2  0
 96 95  1  0
 96100  1  0
 97 96  2  0
 98 93  2  0
 98 97  1  0
 99 98  1  0
101102  1  0
102105  1  0
102104  1  0
103101  2  0
106107  1  0
106 81  1  0
108106  1  0
M  ISO  4  13 101  14 101  71 100  79 100
M  END
>  <TORSDO>  (88) 
F 41

>  <SCORE>  (88) 
12.428

>  <name>  (88) 
90

>  <ligand_id>  (88) 
90

>  <original_smiles>  (88) 
[H]c1c([H])c([H])c2c(c1[H])C([H])([H])C([H])([H])C([H])([H])C2([H])N([H])C(=O)C1([H])N(C(=O)C([H])(N([H])C(=O)C([H])(N([H])C([H])([H])[H])C([H])([H])[H])C(C([H])([H])[H])(C([H])([H])[H])C([H])([H])[H])C([H])([H])c2c([H])c(OC([H])([H])C([H])([H])OC([H])([H])C([H])([H])OC([H])([H])C([H])([H])N([H])C(=O)C([H])([H])OC([H])([H])C([H])([H])OC([H])([H])C([H])([H])C([H])([H])OC([H])([H])C([H])([H])C([H])([H])OC([H])([H])C([H])([H])C([H])([H])C([H])([H])N([H])C(=O)N3C([H])([H])C([H])([H])C([H])([H])C([H])(n4nc(-c5c([H])c([H])c(Oc6c([H])c([H])c(F)c([H])c6F)c([H])c5[H])c(C(=O)N([H])[H])c4N([H])[H])C3([H])[H])c([H])c([H])c2C1([H])[H]

>  <smiles>  (88) 
[H]c1c([H])c([H])c2c(c1[H])C([H])([H])C([H])([H])C([H])([H])C2([H])N([H])C(=O)C1([H])N(C(=O)C([H])(N([H])C(=O)C([H])(N([H])C([H])([H])[H])C([H])([H])[H])C(C([H])([H])[H])(C([H])([H])[H])C([H])([H])[H])C([H])([H])c2c([H])c(OC([H])([H])C([H])([H])OC([H])([H])C([H])([H])OC([H])([H])C([H])([H])N([H])C(=O)C([H])([H])OC([H])([H])C([H])([H])OC([H])([H])C([H])([H])C([H])([H])OC([H])([H])C([H])([H])C([H])([H])OC([H])([H])C([H])([H])C([H])([H])C([H])([H])N([H])C(=O)N3C([H])([H])C([H])([H])C([H])([H])C([H])(n4nc(-c5c([H])c([H])c(Oc6c([H])c([H])c(F)c([H])c6F)c([H])c5[H])c(C(=O)N([H])[H])c4N([H])[H])C3([H])[H])c([H])c([H])c2C1([H])[H]

$$$$
91:0:0
     RDKit          3D

103110  0  0  1  0  0  0  0  0999 V2000
  -29.9530  -22.6020   16.0480 C   0  0  0  0  0  0  0  0  0  0  0  0
  -31.1410  -22.2300   15.5530 N   0  0  0  0  0  0  0  0  0  0  0  0
  -28.9130  -22.5720   15.3940 O   0  0  0  0  0  0  0  0  0  0  0  0
  -31.9350  -22.3370   16.1700 H   0  0  0  0  0  0  0  0  0  0  0  0
  -31.3820  -21.5120   14.3000 C   0  0  0  0  0  2  0  0  0  0  0  0
  -31.8440  -20.0650   14.5910 C   0  0  0  0  0  2  0  0  0  0  0  0
  -30.8480  -18.9640   14.1780 C   0  0  0  0  0  2  0  0  0  0  0  0
  -29.5070  -19.2270   14.5920 O   0  0  0  0  0  0  0  0  0  0  0  0
  -29.2880  -19.4310   15.9860 C   0  0  0  0  0  2  0  0  0  0  0  0
  -29.1860  -18.1180   16.7910 C   0  0  0  0  0  2  0  0  0  0  0  0
  -28.0500  -18.1250   17.6470 O   0  0  0  0  0  0  0  0  0  0  0  0
  -28.2450  -18.7610   18.9040 C   0  0  0  0  0  2  0  0  0  0  0  0
  -28.4660  -17.7650   20.0520 C   0  0  0  0  0  2  0  0  0  0  0  0
  -29.8040  -17.3040   20.2660 O   0  0  0  0  0  0  0  0  0  0  0  0
  -29.9440  -16.7870   21.5970 C   0  0  0  0  0  2  0  0  0  0  0  0
  -31.1860  -15.8990   21.8350 C   0  0  0  0  0  2  0  0  0  0  0  0
  -30.7970  -14.5500   21.5690 O   0  0  0  0  0  0  0  0  0  0  0  0
  -31.3440  -13.8120   20.5820 C   0  0  0  0  0  0  0  0  0  0  0  0
  -30.7770  -11.9160   19.0640 C   0  0  0  0  0  2  0  0  0  0  0  0
  -29.8450  -12.4060   17.9410 C   0  0  0  0  0  2  0  0  0  0  0  0
  -28.3710  -12.3420   18.3930 C   0  0  0  0  0  2  0  0  0  0  0  0
  -28.1360  -13.0270   19.7640 C   0  0  0  0  0  3  0  0  0  0  0  0
  -29.1590  -12.5250   20.8050 C   0  0  0  0  0  2  0  0  0  0  0  0
  -30.5120  -12.7280   20.2580 N   0  0  0  0  0  0  0  0  0  0  0  0
  -32.4020  -14.0950   20.0180 O   0  0  0  0  0  0  0  0  0  0  0  0
  -25.7580  -13.7910   20.4330 C   0  0  0  0  0  0  0  0  0  0  0  0
  -24.6380  -13.1000   20.7810 C   0  0  0  0  0  0  0  0  0  0  0  0
  -25.0110  -11.7220   20.7660 C   0  0  0  0  0  0  0  0  0  0  0  0
  -26.7570  -12.8500   20.2230 N   0  0  0  0  0  0  0  0  0  0  0  0
  -26.3030  -11.5960   20.4790 N   0  0  0  0  0  0  0  0  0  0  0  0
  -24.2050  -10.5170   20.9570 C   0  0  0  0  0  0  0  0  0  0  0  0
  -24.5620   -9.5370   21.9100 C   0  0  0  0  0  3  0  0  0  0  0  0
  -23.7620   -8.3900   22.0860 C   0  0  0  0  0  3  0  0  0  0  0  0
  -22.5900   -8.2180   21.3100 C   0  0  0  0  0  0  0  0  0  0  0  0
  -22.2530   -9.1850   20.3460 C   0  0  0  0  0  3  0  0  0  0  0  0
  -23.0550  -10.3240   20.1670 C   0  0  0  0  0  3  0  0  0  0  0  0
  -21.7630   -7.1250   21.3980 O   0  0  0  0  0  0  0  0  0  0  0  0
  -21.6110   -6.4290   22.5730 C   0  0  0  0  0  0  0  0  0  0  0  0
  -21.2060   -7.0610   23.7690 C   0  0  0  0  0  3  0  0  0  0  0  0
  -20.9980   -6.2960   24.9350 C   0  0  0  0  0  3  0  0  0  0  0  0
  -21.1870   -4.9010   24.9040 C   0  0  0  0  0  0  0  0  0  0  0  0
  -21.5820   -4.2680   23.7120 C   0  0  0  0  0  3  0  0  0  0  0  0
  -21.7940   -5.0320   22.5510 C   0  0  0  0  0  0  0  0  0  0  0  0
  -22.1570   -4.4130   21.4010 F   0  0  0  0  0  0  0  0  0  0  0  0
  -20.9760   -4.1670   26.0210 F   0  0  0  0  0  0  0  0  0  0  0  0
  -23.2710  -13.6770   21.0250 C   0  0  0  0  0  0  0  0  0  0  0  0
  -22.4850  -13.0620   21.9000 N   0  0  0  0  0  0  0  0  0  0  0  0
  -22.9130  -14.7170   20.4710 O   0  0  0  0  0  0  0  0  0  0  0  0
  -22.7820  -12.2280   22.3860 H   0  0  0  0  0  0  0  0  0  0  0  0
  -21.5680  -13.4360   22.0920 H   0  0  0  0  0  0  0  0  0  0  0  0
  -25.9960  -15.1470   20.2630 N   0  0  0  0  0  0  0  0  0  0  0  0
  -25.2590  -15.8330   20.3770 H   0  0  0  0  0  0  0  0  0  0  0  0
  -26.8850  -15.5300   19.9860 H   0  0  0  0  0  0  0  0  0  0  0  0
  -29.9170  -22.9590   17.5310 C   0  0  0  0  0  2  0  0  0  0  0  0
  -29.5280  -24.4270   17.8470 C   0  0  0  0  0  2  0  0  0  0  0  0
  -30.6690  -25.2320   18.4870 C   0  0  0  0  0  0  0  0  0  0  0  0
  -32.2370  -25.5640   20.3580 C   0  0  0  0  0  1  0  0  0  0  0  0
  -30.9960  -25.0230   19.7850 N   0  0  0  0  0  0  0  0  0  0  0  0
  -31.2650  -26.0470   17.7780 O   0  0  0  0  0  0  0  0  0  0  0  0
  -30.2670  -24.1120   20.6850 C   0  0  0  0  0  2  0  0  0  0  0  0
  -28.9380  -24.6550   21.2790 C   0  0  0  0  0  2  0  0  0  0  0  0
  -28.7860  -26.1740   21.4610 C   0  0  0  0  0  2  0  0  0  0  0  0
  -28.4380  -26.7680   20.2120 O   0  0  0  0  0  0  0  0  0  0  0  0
  -24.5790  -31.9000   23.2910 C   0  0  0  0  0  0  0  0  0  0  0  0
  -27.2700  -27.4850   20.2350 C   0  0  0  0  0  0  0  0  0  0  0  0
  -23.3830  -30.4770   21.6550 C   0  0  0  0  0  3  0  0  0  0  0  0
  -24.8530  -28.9360   20.2430 C   0  0  0  0  0  0  0  0  0  0  0  0
  -25.9020  -30.8570   21.4560 C   0  0  0  0  0  2  0  0  0  0  0  0
  -26.0000  -29.4810   20.8360 C   0  0  0  0  0  0  0  0  0  0  0  0
  -27.2120  -28.7620   20.8360 C   0  0  0  0  0  3  0  0  0  0  0  0
  -26.1180  -26.9490   19.6350 C   0  0  0  0  0  3  0  0  0  0  0  0
  -24.9040  -27.6670   19.6410 C   0  0  0  0  0  3  0  0  0  0  0  0
  -23.5970  -29.7760   20.2850 C   0  0  0  0  0  2  0  0  0  0  0  0
  -24.6390  -31.0940   22.1930 N   0  0  0  0  0  0  0  0  0  0  0  0
  -23.4970  -32.1760   23.8270 O   0  0  0  0  0  0  0  0  0  0  0  0
  -22.7350  -29.4660   22.6260 C   0  0  0  0  0  0  0  0  0  0  0  0
  -21.4140  -29.2720   22.4940 N   0  0  0  0  0  0  0  0  0  0  0  0
  -23.4190  -28.8560   23.4540 O   0  0  0  0  0  0  0  0  0  0  0  0
  -20.9250  -29.8180   21.7960 H   0  0  0  0  0  0  0  0  0  0  0  0
  -18.0470  -28.0500   22.9670 C   0  0  0  0  0  0  0  0  0  0  0  0
  -20.5980  -28.3360   23.2690 C   0  0  0  0  0  3  0  0  0  0  0  0
  -20.7220  -26.8990   22.7130 C   0  0  0  0  0  2  0  0  0  0  0  0
  -19.6350  -26.5510   21.6900 C   0  0  0  0  0  2  0  0  0  0  0  0
  -18.2450  -26.6940   22.3140 C   0  0  0  0  0  2  0  0  0  0  0  0
  -19.1520  -28.8300   23.4000 C   0  0  0  0  0  0  0  0  0  0  0  0
  -18.9140  -30.1010   23.9670 C   0  0  0  0  0  3  0  0  0  0  0  0
  -17.6020  -30.5910   24.1140 C   0  0  0  0  0  3  0  0  0  0  0  0
  -16.5110  -29.8080   23.6980 C   0  0  0  0  0  3  0  0  0  0  0  0
  -16.7340  -28.5400   23.1280 C   0  0  0  0  0  3  0  0  0  0  0  0
  -25.8630  -32.5400   23.9080 C   0  0  0  0  0  3  0  0  0  0  0  0
  -25.5580  -33.9440   24.2150 N   0  0  0  0  0  0  0  0  0  0  0  0
  -25.9030  -34.9840   23.4410 C   0  0  0  0  0  0  0  0  0  0  0  0
  -26.5830  -34.8610   22.4200 O   0  0  0  0  0  0  0  0  0  0  0  0
  -24.9580  -34.1140   25.0090 H   0  0  0  0  0  0  0  0  0  0  0  0
  -24.1860  -36.7720   23.0310 C   0  0  0  0  0  1  0  0  0  0  0  0
  -25.4120  -36.3790   23.8700 C   0  0  0  0  0  3  0  0  0  0  0  0
  -27.5410  -37.2660   24.7140 C   0  0  0  0  0  1  0  0  0  0  0  0
  -26.4480  -37.4280   23.7570 N   0  0  0  0  0  0  0  0  0  0  0  0
  -26.0430  -38.3500   23.8900 H   0  0  0  0  0  0  0  0  0  0  0  0
  -26.3750  -31.7850   25.1960 C   0  0  1  0  0  0  0  0  0  0  0  0
  -25.2770  -31.5600   26.2610 C   0  0  0  0  0  1  0  0  0  0  0  0
  -26.9540  -30.4030   24.8160 C   0  0  0  0  0  1  0  0  0  0  0  0
  -27.5270  -32.5830   25.8490 C   0  0  0  0  0  1  0  0  0  0  0  0
  1 54  1  0
  2  1  1  0
  2  4  1  0
  3  1  2  0
  5  6  1  0
  5  2  1  0
  7  6  1  0
  7  8  1  0
  8  9  1  0
  9 10  1  0
 10 11  1  0
 11 12  1  0
 12 13  1  0
 13 14  1  0
 14 15  1  0
 15 16  1  0
 17 16  1  0
 18 17  1  0
 19 24  1  0
 20 21  1  0
 20 19  1  0
 22 21  1  0
 22 29  1  0
 22 23  1  0
 24 18  1  0
 24 23  1  0
 25 18  2  0
 26 27  2  0
 27 46  1  0
 28 27  1  0
 28 31  1  0
 29 26  1  0
 29 30  1  0
 30 28  2  0
 31 32  1  0
 32 33  2  0
 34 37  1  0
 34 33  1  0
 35 34  2  0
 36 35  1  0
 36 31  2  0
 37 38  1  0
 38 39  1  0
 39 40  2  0
 41 40  1  0
 41 45  1  0
 42 41  2  0
 43 38  2  0
 43 42  1  0
 44 43  1  0
 46 47  1  0
 47 50  1  0
 47 49  1  0
 48 46  2  0
 51 52  1  0
 51 26  1  0
 53 51  1  0
 54 55  1  0
 55 56  1  0
 56 58  1  0
 58 57  1  0
 58 60  1  0
 59 56  2  0
 60 61  1  0
 61 62  1  0
 63 65  1  0
 63 62  1  0
 64 75  2  0
 65 70  1  0
 66 74  1  0
 66 76  1  0
 67 73  1  0
 67 69  1  0
 68 74  1  0
 69 70  2  0
 69 68  1  0
 71 72  1  0
 71 65  2  0
 72 67  2  0
 73 66  1  0
 74 64  1  0
 76 78  2  0
 77 76  1  0
 79 77  1  0
 80 89  2  0
 80 85  1  0
 81 77  1  0
 81 85  1  0
 82 81  1  0
 83 84  1  0
 83 82  1  0
 84 80  1  0
 85 86  2  0
 86 87  1  0
 88 87  2  0
 89 88  1  0
 90 64  1  0
 90 91  1  0
 90100  1  0
 91 94  1  0
 92 96  1  0
 92 91  1  0
 93 92  2  0
 96 95  1  0
 98 96  1  0
 98 99  1  0
 98 97  1  0
100103  1  1
100101  1  0
102100  1  0
M  ISO  4  17 100  18 100  62 101  63 101
M  END
>  <TORSDO>  (89) 
F 35

>  <SCORE>  (89) 
-9.419

>  <name>  (89) 
91

>  <ligand_id>  (89) 
91

>  <original_smiles>  (89) 
[H]c1c([H])c([H])c2c(c1[H])C([H])([H])C([H])([H])C([H])([H])C2([H])N([H])C(=O)C1([H])N(C(=O)C([H])(N([H])C(=O)C([H])(N([H])C([H])([H])[H])C([H])([H])[H])C(C([H])([H])[H])(C([H])([H])[H])C([H])([H])[H])C([H])([H])c2c([H])c(OC([H])([H])C([H])([H])C([H])([H])N(C(=O)C([H])([H])C([H])([H])C(=O)N([H])C([H])([H])C([H])([H])C([H])([H])OC([H])([H])C([H])([H])OC([H])([H])C([H])([H])OC([H])([H])C([H])([H])OC(=O)N3C([H])([H])C([H])([H])C([H])([H])C([H])(n4nc(-c5c([H])c([H])c(Oc6c([H])c([H])c(F)c([H])c6F)c([H])c5[H])c(C(=O)N([H])[H])c4N([H])[H])C3([H])[H])C([H])([H])[H])c([H])c([H])c2C1([H])[H]

>  <smiles>  (89) 
[H]c1c([H])c([H])c2c(c1[H])C([H])([H])C([H])([H])C([H])([H])C2([H])N([H])C(=O)C1([H])N(C(=O)C([H])(N([H])C(=O)C([H])(N([H])C([H])([H])[H])C([H])([H])[H])C(C([H])([H])[H])(C([H])([H])[H])C([H])([H])[H])C([H])([H])c2c([H])c(OC([H])([H])C([H])([H])C([H])([H])N(C(=O)C([H])([H])C([H])([H])C(=O)N([H])C([H])([H])C([H])([H])C([H])([H])OC([H])([H])C([H])([H])OC([H])([H])C([H])([H])OC([H])([H])C([H])([H])OC(=O)N3C([H])([H])C([H])([H])C([H])([H])C([H])(n4nc(-c5c([H])c([H])c(Oc6c([H])c([H])c(F)c([H])c6F)c([H])c5[H])c(C(=O)N([H])[H])c4N([H])[H])C3([H])[H])C([H])([H])[H])c([H])c([H])c2C1([H])[H]

$$$$
92:0:0
     RDKit          3D

 89 97  0  0  1  0  0  0  0  0999 V2000
  -29.2950  -21.0210   20.6670 O   0  0  0  0  0  0  0  0  0  0  0  0
  -29.9360  -18.4520   17.9800 C   0  0  0  0  0  3  0  0  0  0  0  0
  -30.0500  -17.2450   18.6970 C   0  0  0  0  0  3  0  0  0  0  0  0
  -29.6640  -19.6750   18.6240 C   0  0  0  0  0  3  0  0  0  0  0  0
  -29.6110  -18.4860   20.7420 C   0  0  0  0  0  3  0  0  0  0  0  0
  -29.8800  -17.2050   20.0990 C   0  0  0  0  0  0  0  0  0  0  0  0
  -29.5100  -19.7580   20.0290 C   0  0  0  0  0  0  0  0  0  0  0  0
  -30.6010  -14.7370   20.4170 C   0  0  0  0  0  0  0  0  0  0  0  0
  -30.3770  -12.4630   19.4240 C   0  0  0  0  0  2  0  0  0  0  0  0
  -29.4550  -12.5730   18.1880 C   0  0  0  0  0  2  0  0  0  0  0  0
  -27.9790  -12.4180   18.5990 C   0  0  0  0  0  2  0  0  0  0  0  0
  -27.6070  -13.2920   19.8260 C   0  0  0  0  0  3  0  0  0  0  0  0
  -28.6550  -13.1820   20.9580 C   0  0  0  0  0  2  0  0  0  0  0  0
  -29.9670  -13.5140   20.3850 N   0  0  0  0  0  0  0  0  0  0  0  0
  -31.7670  -14.8330   20.0240 O   0  0  0  0  0  0  0  0  0  0  0  0
  -29.8780  -15.8700   20.7530 N   0  0  0  0  0  0  0  0  0  0  0  0
  -29.0650  -15.6850   21.3230 H   0  0  0  0  0  0  0  0  0  0  0  0
  -25.2110  -13.8880   20.5220 C   0  0  0  0  0  0  0  0  0  0  0  0
  -24.1410  -13.1180   20.8890 C   0  0  0  0  0  0  0  0  0  0  0  0
  -24.6030  -11.7650   20.8710 C   0  0  0  0  0  0  0  0  0  0  0  0
  -26.2560  -13.0060   20.3030 N   0  0  0  0  0  0  0  0  0  0  0  0
  -25.8960  -11.7250   20.5750 N   0  0  0  0  0  0  0  0  0  0  0  0
  -23.8720  -10.5060   21.0630 C   0  0  0  0  0  0  0  0  0  0  0  0
  -24.3070   -9.5330   21.9900 C   0  0  0  0  0  3  0  0  0  0  0  0
  -23.5760   -8.3390   22.1720 C   0  0  0  0  0  3  0  0  0  0  0  0
  -22.3950   -8.1100   21.4260 C   0  0  0  0  0  0  0  0  0  0  0  0
  -21.9790   -9.0710   20.4880 C   0  0  0  0  0  3  0  0  0  0  0  0
  -22.7110  -10.2550   20.3040 C   0  0  0  0  0  3  0  0  0  0  0  0
  -21.6360   -6.9680   21.5170 O   0  0  0  0  0  0  0  0  0  0  0  0
  -21.6070   -6.2110   22.6600 C   0  0  0  0  0  0  0  0  0  0  0  0
  -21.2230   -6.7560   23.9050 C   0  0  0  0  0  3  0  0  0  0  0  0
  -21.1400   -5.9270   25.0420 C   0  0  0  0  0  3  0  0  0  0  0  0
  -21.4290   -4.5530   24.9340 C   0  0  0  0  0  0  0  0  0  0  0  0
  -21.8060   -4.0080   23.6940 C   0  0  0  0  0  3  0  0  0  0  0  0
  -21.8920   -4.8340   22.5600 C   0  0  0  0  0  0  0  0  0  0  0  0
  -22.2340   -4.2990   21.3640 F   0  0  0  0  0  0  0  0  0  0  0  0
  -21.3430   -3.7540   26.0230 F   0  0  0  0  0  0  0  0  0  0  0  0
  -22.7420  -13.5990   21.1430 C   0  0  0  0  0  0  0  0  0  0  0  0
  -22.0050  -12.9120   22.0090 N   0  0  0  0  0  0  0  0  0  0  0  0
  -22.3110  -14.6210   20.6110 O   0  0  0  0  0  0  0  0  0  0  0  0
  -22.3650  -12.0850   22.4620 H   0  0  0  0  0  0  0  0  0  0  0  0
  -21.0670  -13.2170   22.2210 H   0  0  0  0  0  0  0  0  0  0  0  0
  -25.3780  -15.2570   20.3340 N   0  0  0  0  0  0  0  0  0  0  0  0
  -24.6100  -15.9130   20.4280 H   0  0  0  0  0  0  0  0  0  0  0  0
  -26.2290  -15.6900   19.9960 H   0  0  0  0  0  0  0  0  0  0  0  0
  -28.9080  -22.2590   19.9150 C   0  0  0  0  0  3  0  0  0  0  0  0
  -28.9510  -23.7300   20.5960 C   0  0  0  0  0  3  0  0  0  0  0  0
  -28.1250  -24.9400   19.9070 C   0  0  0  0  0  2  0  0  0  0  0  0
  -28.2870  -26.3920   20.2760 O   0  0  0  0  0  0  0  0  0  0  0  0
  -24.6020  -31.8830   23.2620 C   0  0  0  0  0  0  0  0  0  0  0  0
  -27.1880  -27.2840   20.1920 C   0  0  0  0  0  0  0  0  0  0  0  0
  -23.3890  -30.4870   21.6280 C   0  0  0  0  0  3  0  0  0  0  0  0
  -24.8330  -28.9380   20.1890 C   0  0  0  0  0  0  0  0  0  0  0  0
  -25.9320  -30.7900   21.4390 C   0  0  0  0  0  2  0  0  0  0  0  0
  -26.0060  -29.4090   20.7890 C   0  0  0  0  0  0  0  0  0  0  0  0
  -27.1820  -28.5920   20.7870 C   0  0  0  0  0  3  0  0  0  0  0  0
  -25.9950  -26.8960   19.5370 C   0  0  0  0  0  3  0  0  0  0  0  0
  -24.8330  -27.6880   19.5520 C   0  0  0  0  0  3  0  0  0  0  0  0
  -23.5980  -29.8170   20.2450 C   0  0  0  0  0  2  0  0  0  0  0  0
  -24.6600  -31.0720   22.1650 N   0  0  0  0  0  0  0  0  0  0  0  0
  -23.5200  -32.1630   23.8010 O   0  0  0  0  0  0  0  0  0  0  0  0
  -22.7280  -29.4710   22.5900 C   0  0  0  0  0  0  0  0  0  0  0  0
  -21.4020  -29.2910   22.4650 N   0  0  0  0  0  0  0  0  0  0  0  0
  -23.4080  -28.8490   23.4100 O   0  0  0  0  0  0  0  0  0  0  0  0
  -20.9100  -29.8450   21.7780 H   0  0  0  0  0  0  0  0  0  0  0  0
  -18.0310  -28.0740   22.9630 C   0  0  0  0  0  0  0  0  0  0  0  0
  -20.5860  -28.3530   23.2400 C   0  0  0  0  0  3  0  0  0  0  0  0
  -20.7000  -26.9170   22.6750 C   0  0  0  0  0  2  0  0  0  0  0  0
  -19.6040  -26.5800   21.6590 C   0  0  0  0  0  2  0  0  0  0  0  0
  -18.2190  -26.7210   22.2970 C   0  0  0  0  0  2  0  0  0  0  0  0
  -19.1430  -28.8470   23.3920 C   0  0  0  0  0  0  0  0  0  0  0  0
  -18.9130  -30.1120   23.9750 C   0  0  0  0  0  3  0  0  0  0  0  0
  -17.6040  -30.6050   24.1340 C   0  0  0  0  0  3  0  0  0  0  0  0
  -16.5070  -29.8300   23.7210 C   0  0  0  0  0  3  0  0  0  0  0  0
  -16.7200  -28.5660   23.1410 C   0  0  0  0  0  3  0  0  0  0  0  0
  -25.8860  -32.5160   23.8780 C   0  0  0  0  0  3  0  0  0  0  0  0
  -26.4050  -31.7460   25.1540 C   0  0  1  0  0  0  0  0  0  0  0  0
  -25.3140  -31.5150   26.2270 C   0  0  0  0  0  1  0  0  0  0  0  0
  -26.9810  -30.3650   24.7650 C   0  0  0  0  0  1  0  0  0  0  0  0
  -27.5610  -32.5370   25.8080 C   0  0  0  0  0  1  0  0  0  0  0  0
  -25.5810  -33.9160   24.2080 N   0  0  0  0  0  0  0  0  0  0  0  0
  -25.9070  -34.9680   23.4450 C   0  0  0  0  0  0  0  0  0  0  0  0
  -26.5670  -34.8610   22.4080 O   0  0  0  0  0  0  0  0  0  0  0  0
  -24.9960  -34.0710   25.0160 H   0  0  0  0  0  0  0  0  0  0  0  0
  -24.1760  -36.7610   23.1060 C   0  0  0  0  0  1  0  0  0  0  0  0
  -25.4260  -36.3570   23.9050 C   0  0  0  0  0  3  0  0  0  0  0  0
  -27.5730  -37.2410   24.7060 C   0  0  0  0  0  1  0  0  0  0  0  0
  -26.4580  -37.4100   23.7790 N   0  0  0  0  0  0  0  0  0  0  0  0
  -26.0550  -38.3300   23.9340 H   0  0  0  0  0  0  0  0  0  0  0  0
  2  4  2  0
  2  3  1  0
  3  6  2  0
  4  7  1  0
  6  5  1  0
  6 16  1  0
  7  1  1  0
  7  5  2  0
  8 16  1  0
  9 14  1  0
 10 11  1  0
 10  9  1  0
 12 11  1  0
 12 21  1  0
 12 13  1  0
 14  8  1  0
 14 13  1  0
 15  8  2  0
 16 17  1  0
 18 19  2  0
 19 38  1  0
 20 19  1  0
 20 23  1  0
 21 18  1  0
 21 22  1  0
 22 20  2  0
 23 24  1  0
 24 25  2  0
 26 29  1  0
 26 25  1  0
 27 26  2  0
 28 27  1  0
 28 23  2  0
 29 30  1  0
 30 31  1  0
 31 32  2  0
 33 32  1  0
 33 37  1  0
 34 33  2  0
 35 30  2  0
 35 34  1  0
 36 35  1  0
 38 39  1  0
 39 42  1  0
 39 41  1  0
 40 38  2  0
 43 44  1  0
 43 18  1  0
 45 43  1  0
 46 47  2  0
 46  1  1  0
 48 49  1  0
 48 47  1  0
 50 61  2  0
 51 49  1  0
 51 56  1  0
 52 60  1  0
 52 62  1  0
 53 59  1  0
 53 55  1  0
 54 60  1  0
 55 54  1  0
 56 55  2  0
 57 58  1  0
 57 51  2  0
 58 53  2  0
 59 52  1  0
 60 50  1  0
 62 64  2  0
 63 62  1  0
 65 63  1  0
 66 75  2  0
 66 71  1  0
 67 63  1  0
 67 71  1  0
 68 67  1  0
 69 70  1  0
 69 68  1  0
 70 66  1  0
 71 72  2  0
 72 73  1  0
 74 73  2  0
 75 74  1  0
 76 50  1  0
 76 81  1  0
 76 77  1  0
 77 80  1  1
 77 78  1  0
 79 77  1  0
 81 84  1  0
 82 86  1  0
 82 81  1  0
 83 82  2  0
 86 85  1  0
 88 86  1  0
 88 89  1  0
 88 87  1  0
M  ISO  4   8 100  16 100  48 101  49 101
M  END
>  <TORSDO>  (90) 
F 20

>  <SCORE>  (90) 
-13.721

>  <name>  (90) 
92

>  <ligand_id>  (90) 
92

>  <original_smiles>  (90) 
[H]c1c([H])c(OC([H])([H])C([H])([H])C([H])([H])Oc2c([H])c([H])c3c(c2[H])C([H])([H])N(C(=O)C([H])(N([H])C(=O)C([H])(N([H])C([H])([H])[H])C([H])([H])[H])C(C([H])([H])[H])(C([H])([H])[H])C([H])([H])[H])C([H])(C(=O)N([H])C2([H])c4c([H])c([H])c([H])c([H])c4C([H])([H])C([H])([H])C2([H])[H])C3([H])[H])c([H])c(N([H])C(=O)N2C([H])([H])C([H])([H])C([H])([H])C([H])(n3nc(-c4c([H])c([H])c(Oc5c([H])c([H])c(F)c([H])c5F)c([H])c4[H])c(C(=O)N([H])[H])c3N([H])[H])C2([H])[H])c1[H]

>  <smiles>  (90) 
[H]c1c([H])c(OC([H])([H])C([H])([H])C([H])([H])Oc2c([H])c([H])c3c(c2[H])C([H])([H])N(C(=O)C([H])(N([H])C(=O)C([H])(N([H])C([H])([H])[H])C([H])([H])[H])C(C([H])([H])[H])(C([H])([H])[H])C([H])([H])[H])C([H])(C(=O)N([H])C2([H])c4c([H])c([H])c([H])c([H])c4C([H])([H])C([H])([H])C2([H])[H])C3([H])[H])c([H])c(N([H])C(=O)N2C([H])([H])C([H])([H])C([H])([H])C([H])(n3nc(-c4c([H])c([H])c(Oc5c([H])c([H])c(F)c([H])c5F)c([H])c4[H])c(C(=O)N([H])[H])c3N([H])[H])C2([H])[H])c1[H]

$$$$
