0:0:0
     RDKit          3D

 96104  0  0  1  0  0  0  0  0999 V2000
  -25.9640  -22.6250   20.0900 C   0  0  0  0  0  2  0  0  0  0  0  0
  -26.2920  -21.1230   19.9660 C   0  0  0  0  0  2  0  0  0  0  0  0
  -27.0040  -20.6850   18.6800 C   0  0  0  0  0  2  0  0  0  0  0  0
  -28.4140  -20.8920   18.7750 O   0  0  0  0  0  0  0  0  0  0  0  0
  -29.4790  -17.3370   18.6660 C   0  0  0  0  0  3  0  0  0  0  0  0
  -28.8510  -18.5440   18.3020 C   0  0  0  0  0  3  0  0  0  0  0  0
  -30.7400  -18.5190   20.3840 C   0  0  0  0  0  3  0  0  0  0  0  0
  -30.3920  -17.3080   19.7470 C   0  0  0  0  0  0  0  0  0  0  0  0
  -29.1320  -19.7400   19.0020 C   0  0  0  0  0  0  0  0  0  0  0  0
  -30.1250  -19.7300   20.0030 C   0  0  0  0  0  0  0  0  0  0  0  0
  -30.4360  -20.8750   20.6580 F   0  0  0  0  0  0  0  0  0  0  0  0
  -31.3680  -15.0580   19.6080 C   0  0  0  0  0  0  0  0  0  0  0  0
  -31.1400  -12.6720   19.0450 C   0  0  0  0  0  2  0  0  0  0  0  0
  -30.1760  -12.4980   17.8540 C   0  0  0  0  0  2  0  0  0  0  0  0
  -28.7190  -12.4020   18.3410 C   0  0  0  0  0  2  0  0  0  0  0  0
  -28.3510  -13.5490   19.3170 C   0  0  0  0  0  3  0  0  0  0  0  0
  -29.4170  -13.6910   20.4290 C   0  0  0  0  0  2  0  0  0  0  0  0
  -30.7410  -13.8680   19.8010 N   0  0  0  0  0  0  0  0  0  0  0  0
  -32.3520  -15.2030   18.8780 O   0  0  0  0  0  0  0  0  0  0  0  0
  -30.8680  -16.0870   20.3040 N   0  0  0  0  0  0  0  0  0  0  0  0
  -30.4090  -15.8180   21.1610 H   0  0  0  0  0  0  0  0  0  0  0  0
  -26.0470  -14.3020   20.1960 C   0  0  0  0  0  0  0  0  0  0  0  0
  -24.9520  -13.5920   20.6140 C   0  0  0  0  0  0  0  0  0  0  0  0
  -25.3170  -12.2150   20.5270 C   0  0  0  0  0  0  0  0  0  0  0  0
  -27.0110  -13.3580   19.8760 N   0  0  0  0  0  0  0  0  0  0  0  0
  -26.5770  -12.0960   20.1300 N   0  0  0  0  0  0  0  0  0  0  0  0
  -24.5220  -10.9980   20.7450 C   0  0  0  0  0  0  0  0  0  0  0  0
  -24.8890  -10.0390   21.7160 C   0  0  0  0  0  3  0  0  0  0  0  0
  -24.0990   -8.8850   21.9170 C   0  0  0  0  0  3  0  0  0  0  0  0
  -22.9300   -8.6840   21.1460 C   0  0  0  0  0  0  0  0  0  0  0  0
  -22.5830   -9.6290   20.1660 C   0  0  0  0  0  3  0  0  0  0  0  0
  -23.3720  -10.7730   19.9630 C   0  0  0  0  0  3  0  0  0  0  0  0
  -22.1170   -7.5810   21.2530 O   0  0  0  0  0  0  0  0  0  0  0  0
  -21.9120   -6.9500   22.4530 C   0  0  0  0  0  0  0  0  0  0  0  0
  -21.3730   -7.6260   23.5680 C   0  0  0  0  0  3  0  0  0  0  0  0
  -21.1120   -6.9220   24.7600 C   0  0  0  0  0  3  0  0  0  0  0  0
  -21.3850   -5.5440   24.8380 C   0  0  0  0  0  0  0  0  0  0  0  0
  -21.9180   -4.8670   23.7280 C   0  0  0  0  0  3  0  0  0  0  0  0
  -22.1780   -5.5680   22.5360 C   0  0  0  0  0  0  0  0  0  0  0  0
  -22.6720   -4.9080   21.4620 F   0  0  0  0  0  0  0  0  0  0  0  0
  -21.1280   -4.8640   25.9810 F   0  0  0  0  0  0  0  0  0  0  0  0
  -23.6110  -14.1550   20.9920 C   0  0  0  0  0  0  0  0  0  0  0  0
  -22.9200  -13.5090   21.9260 N   0  0  0  0  0  0  0  0  0  0  0  0
  -23.1900  -15.1980   20.4960 O   0  0  0  0  0  0  0  0  0  0  0  0
  -23.2730  -12.6630   22.3440 H   0  0  0  0  0  0  0  0  0  0  0  0
  -22.0270  -13.8740   22.2250 H   0  0  0  0  0  0  0  0  0  0  0  0
  -26.3060  -15.6610   20.0560 N   0  0  0  0  0  0  0  0  0  0  0  0
  -25.6420  -16.3770   20.3330 H   0  0  0  0  0  0  0  0  0  0  0  0
  -27.2190  -16.0380   19.8300 H   0  0  0  0  0  0  0  0  0  0  0  0
  -27.0340  -23.5300   20.7280 C   0  0  0  0  0  2  0  0  0  0  0  0
  -29.0500  -24.6980   19.7750 C   0  0  0  0  0  0  0  0  0  0  0  0
  -28.2270  -23.6420   19.8940 N   0  0  0  0  0  0  0  0  0  0  0  0
  -29.9730  -24.6560   18.9610 O   0  0  0  0  0  0  0  0  0  0  0  0
  -28.4590  -22.8260   19.3440 H   0  0  0  0  0  0  0  0  0  0  0  0
  -28.8810  -25.9510   20.6640 C   0  0  0  0  0  2  0  0  0  0  0  0
  -28.7930  -27.1370   19.8650 O   0  0  0  0  0  0  0  0  0  0  0  0
  -24.7120  -31.7810   23.3930 C   0  0  0  0  0  0  0  0  0  0  0  0
  -27.5940  -27.8010   19.9410 C   0  0  0  0  0  0  0  0  0  0  0  0
  -23.6000  -30.5300   21.5700 C   0  0  0  0  0  3  0  0  0  0  0  0
  -25.1440  -29.2000   20.0350 C   0  0  0  0  0  0  0  0  0  0  0  0
  -26.1090  -30.9960   21.4850 C   0  0  0  0  0  2  0  0  0  0  0  0
  -26.2620  -29.7030   20.7130 C   0  0  0  0  0  0  0  0  0  0  0  0
  -27.4920  -29.0080   20.6660 C   0  0  0  0  0  3  0  0  0  0  0  0
  -26.4630  -27.3050   19.2610 C   0  0  0  0  0  3  0  0  0  0  0  0
  -25.2370  -27.9980   19.3080 C   0  0  0  0  0  3  0  0  0  0  0  0
  -23.8660  -30.0010   20.1330 C   0  0  0  0  0  2  0  0  0  0  0  0
  -24.8230  -31.1120   22.2100 N   0  0  0  0  0  0  0  0  0  0  0  0
  -23.6080  -31.9580   23.9270 O   0  0  0  0  0  0  0  0  0  0  0  0
  -22.9560  -29.3950   22.3970 C   0  0  0  0  0  0  0  0  0  0  0  0
  -21.6410  -29.1950   22.2120 N   0  0  0  0  0  0  0  0  0  0  0  0
  -23.6370  -28.6990   23.1530 O   0  0  0  0  0  0  0  0  0  0  0  0
  -21.1500  -29.8130   21.5810 H   0  0  0  0  0  0  0  0  0  0  0  0
  -18.2930  -27.8600   22.4710 C   0  0  0  0  0  0  0  0  0  0  0  0
  -20.8350  -28.1530   22.8450 C   0  0  0  0  0  3  0  0  0  0  0  0
  -20.9990  -26.8060   22.1050 C   0  0  0  0  0  2  0  0  0  0  0  0
  -19.9310  -26.5760   21.0300 C   0  0  0  0  0  2  0  0  0  0  0  0
  -18.5280  -26.6050   21.6470 C   0  0  0  0  0  2  0  0  0  0  0  0
  -19.3770  -28.5980   23.0180 C   0  0  0  0  0  0  0  0  0  0  0  0
  -19.1090  -29.7840   23.7340 C   0  0  0  0  0  3  0  0  0  0  0  0
  -17.7870  -30.2300   23.9150 C   0  0  0  0  0  3  0  0  0  0  0  0
  -16.7150  -29.4880   23.3880 C   0  0  0  0  0  3  0  0  0  0  0  0
  -16.9690  -28.3040   22.6710 C   0  0  0  0  0  3  0  0  0  0  0  0
  -25.9600  -32.3770   24.1200 C   0  0  0  0  0  3  0  0  0  0  0  0
  -25.6510  -33.7710   24.4630 N   0  0  0  0  0  0  0  0  0  0  0  0
  -26.0440  -34.8330   23.7460 C   0  0  0  0  0  0  0  0  0  0  0  0
  -26.7760  -34.7400   22.7560 O   0  0  0  0  0  0  0  0  0  0  0  0
  -25.0130  -33.9180   25.2320 H   0  0  0  0  0  0  0  0  0  0  0  0
  -24.3540  -36.6470   23.3310 C   0  0  0  0  0  1  0  0  0  0  0  0
  -25.5460  -36.2180   24.2010 C   0  0  0  0  0  3  0  0  0  0  0  0
  -27.6390  -37.0690   25.1630 C   0  0  0  0  0  1  0  0  0  0  0  0
  -26.5940  -37.2620   24.1610 N   0  0  0  0  0  0  0  0  0  0  0  0
  -26.1860  -38.1830   24.2990 H   0  0  0  0  0  0  0  0  0  0  0  0
  -26.3800  -31.5660   25.4070 C   0  0  1  0  0  0  0  0  0  0  0  0
  -25.2170  -31.3200   26.3960 C   0  0  0  0  0  1  0  0  0  0  0  0
  -26.9680  -30.1910   25.0140 C   0  0  0  0  0  1  0  0  0  0  0  0
  -27.4970  -32.3210   26.1640 C   0  0  0  0  0  1  0  0  0  0  0  0
  1 50  1  0
  2  1  1  0
  3  4  1  0
  3  2  1  0
  4  9  1  0
  5  8  1  0
  6  5  2  0
  6  9  1  0
  8 20  1  0
  8  7  2  0
  9 10  2  0
 10  7  1  0
 10 11  1  0
 12 18  1  0
 12 20  1  0
 13 18  1  0
 14 15  1  0
 14 13  1  0
 16 15  1  0
 16 25  1  0
 16 17  1  0
 18 17  1  0
 19 12  2  0
 20 21  1  0
 22 23  2  0
 23 42  1  0
 24 23  1  0
 24 27  1  0
 25 26  1  0
 25 22  1  0
 26 24  2  0
 27 28  1  0
 28 29  2  0
 30 33  1  0
 30 29  1  0
 31 30  2  0
 32 31  1  0
 32 27  2  0
 33 34  1  0
 34 39  2  0
 34 35  1  0
 35 36  2  0
 36 37  1  0
 37 41  1  0
 38 37  2  0
 39 38  1  0
 40 39  1  0
 42 43  1  0
 43 46  1  0
 43 45  1  0
 44 42  2  0
 47 22  1  0
 47 48  1  0
 49 47  1  0
 51 52  1  0
 51 55  1  0
 52 50  1  0
 53 51  2  0
 54 52  1  0
 56 58  1  0
 56 55  1  0
 57 68  2  0
 58 63  1  0
 59 67  1  0
 59 69  1  0
 60 66  1  0
 60 62  1  0
 61 67  1  0
 62 61  1  0
 63 62  2  0
 64 65  1  0
 64 58  2  0
 65 60  2  0
 66 59  1  0
 67 57  1  0
 69 71  2  0
 70 69  1  0
 72 70  1  0
 73 82  2  0
 73 78  1  0
 74 70  1  0
 74 78  1  0
 75 74  1  0
 76 77  1  0
 76 75  1  0
 77 73  1  0
 78 79  2  0
 79 80  1  0
 81 80  2  0
 82 81  1  0
 83 57  1  0
 83 84  1  0
 83 93  1  0
 84 87  1  0
 85 89  1  0
 85 84  1  0
 86 85  2  0
 89 88  1  0
 91 89  1  0
 91 92  1  0
 91 90  1  0
 93 96  1  1
 93 94  1  0
 95 93  1  0
M  ISO  4  12 100  20 100  55 101  56 101
M  END
>  <TORSDO>  (1) 
F 23

>  <SCORE>  (1) 
-10.541

>  <name>  (1) 
0

>  <ligand_id>  (1) 
0

>  <original_smiles>  (1) 
[H]c1c([H])c([H])c2c(c1[H])C([H])([H])C([H])([H])C([H])([H])C2([H])N([H])C(=O)C1([H])N(C(=O)C([H])(N([H])C(=O)C([H])(N([H])C([H])([H])[H])C([H])([H])[H])C(C([H])([H])[H])(C([H])([H])[H])C([H])([H])[H])C([H])([H])c2c([H])c(OC([H])([H])C(=O)N([H])C([H])([H])C([H])([H])C([H])([H])C([H])([H])Oc3c([H])c([H])c(N([H])C(=O)N4C([H])([H])C([H])([H])C([H])([H])C([H])(n5nc(-c6c([H])c([H])c(Oc7c([H])c([H])c(F)c([H])c7F)c([H])c6[H])c(C(=O)N([H])[H])c5N([H])[H])C4([H])[H])c([H])c3F)c([H])c([H])c2C1([H])[H]

>  <smiles>  (1) 
[H]c1c([H])c([H])c2c(c1[H])C([H])([H])C([H])([H])C([H])([H])C2([H])N([H])C(=O)C1([H])N(C(=O)C([H])(N([H])C(=O)C([H])(N([H])C([H])([H])[H])C([H])([H])[H])C(C([H])([H])[H])(C([H])([H])[H])C([H])([H])[H])C([H])([H])c2c([H])c(OC([H])([H])C(=O)N([H])C([H])([H])C([H])([H])C([H])([H])C([H])([H])Oc3c([H])c([H])c(N([H])C(=O)N4C([H])([H])C([H])([H])C([H])([H])C([H])(n5nc(-c6c([H])c([H])c(Oc7c([H])c([H])c(F)c([H])c7F)c([H])c6[H])c(C(=O)N([H])[H])c5N([H])[H])C4([H])[H])c([H])c3F)c([H])c([H])c2C1([H])[H]

$$$$
1:0:0
     RDKit          3D

 93101  0  0  1  0  0  0  0  0999 V2000
  -26.8330  -17.6350   19.8680 C   0  0  0  0  0  3  0  0  0  0  0  0
  -27.2850  -18.2130   18.6670 C   0  0  0  0  0  3  0  0  0  0  0  0
  -29.0940  -16.8270   20.3270 C   0  0  0  0  0  3  0  0  0  0  0  0
  -27.7540  -17.0280   20.7500 C   0  0  0  0  0  0  0  0  0  0  0  0
  -29.4240  -17.0460   18.9700 C   0  0  0  0  0  3  0  0  0  0  0  0
  -28.6780  -18.2650   18.4570 C   0  0  0  0  0  3  0  0  0  0  0  0
  -30.2450  -14.4420   18.5060 C   0  0  0  0  0  0  0  0  0  0  0  0
  -30.0140  -12.0100   17.7680 C   0  0  0  0  0  2  0  0  0  0  0  0
  -28.8260  -11.8470   16.7920 C   0  0  0  0  0  2  0  0  0  0  0  0
  -27.4940  -11.6790   17.5540 C   0  0  0  0  0  2  0  0  0  0  0  0
  -27.3480  -12.6750   18.7340 C   0  0  0  0  0  3  0  0  0  0  0  0
  -28.6330  -12.7630   19.5780 C   0  0  0  0  0  2  0  0  0  0  0  0
  -29.6960  -13.1680   18.6490 N   0  0  0  0  0  0  0  0  0  0  0  0
  -31.4150  -14.4980   18.1090 O   0  0  0  0  0  0  0  0  0  0  0  0
  -29.3900  -15.5940   18.4410 N   0  0  0  0  0  0  0  0  0  0  0  0
  -28.4380  -15.2880   18.2980 H   0  0  0  0  0  0  0  0  0  0  0  0
  -25.2760  -13.3200   20.0760 C   0  0  0  0  0  0  0  0  0  0  0  0
  -24.2900  -12.5810   20.6660 C   0  0  0  0  0  0  0  0  0  0  0  0
  -24.6450  -11.2130   20.4540 C   0  0  0  0  0  0  0  0  0  0  0  0
  -26.1680  -12.4090   19.5440 N   0  0  0  0  0  0  0  0  0  0  0  0
  -25.8140  -11.1290   19.8300 N   0  0  0  0  0  0  0  0  0  0  0  0
  -23.9020   -9.9820   20.7530 C   0  0  0  0  0  0  0  0  0  0  0  0
  -24.3960   -9.0250   21.6660 C   0  0  0  0  0  3  0  0  0  0  0  0
  -23.6560   -7.8600   21.9540 C   0  0  0  0  0  3  0  0  0  0  0  0
  -22.4040   -7.6430   21.3320 C   0  0  0  0  0  0  0  0  0  0  0  0
  -21.9240   -8.5890   20.4080 C   0  0  0  0  0  3  0  0  0  0  0  0
  -22.6650   -9.7460   20.1200 C   0  0  0  0  0  3  0  0  0  0  0  0
  -21.6220   -6.5300   21.5350 O   0  0  0  0  0  0  0  0  0  0  0  0
  -21.5320   -5.9310   22.7650 C   0  0  0  0  0  0  0  0  0  0  0  0
  -21.0890   -6.6320   23.9080 C   0  0  0  0  0  3  0  0  0  0  0  0
  -20.9440   -5.9550   25.1360 C   0  0  0  0  0  3  0  0  0  0  0  0
  -21.2370   -4.5800   25.2210 C   0  0  0  0  0  0  0  0  0  0  0  0
  -21.6690   -3.8790   24.0820 C   0  0  0  0  0  3  0  0  0  0  0  0
  -21.8170   -4.5530   22.8570 C   0  0  0  0  0  0  0  0  0  0  0  0
  -22.2180   -3.8690   21.7580 F   0  0  0  0  0  0  0  0  0  0  0  0
  -21.0880   -3.9300   26.3980 F   0  0  0  0  0  0  0  0  0  0  0  0
  -23.0350  -13.1140   21.2880 C   0  0  0  0  0  0  0  0  0  0  0  0
  -22.4910  -12.4110   22.2740 N   0  0  0  0  0  0  0  0  0  0  0  0
  -22.5560  -14.1920   20.9350 O   0  0  0  0  0  0  0  0  0  0  0  0
  -22.9000  -11.5420   22.5830 H   0  0  0  0  0  0  0  0  0  0  0  0
  -21.6560  -12.7510   22.7250 H   0  0  0  0  0  0  0  0  0  0  0  0
  -25.4610  -14.6880   19.9120 N   0  0  0  0  0  0  0  0  0  0  0  0
  -24.7450  -15.3320   20.2180 H   0  0  0  0  0  0  0  0  0  0  0  0
  -26.1580  -15.1160   19.3230 H   0  0  0  0  0  0  0  0  0  0  0  0
  -27.2890  -16.5110   22.1070 C   0  0  1  0  0  0  0  0  0  0  0  0
  -27.5980  -15.2180   22.2400 F   0  0  0  0  0  0  0  0  0  0  0  0
  -27.9010  -17.1950   23.0720 F   0  0  0  0  0  0  0  0  0  0  0  0
  -25.9700  -16.6460   22.2660 F   0  0  0  0  0  0  0  0  0  0  0  0
  -29.1410  -19.6600   18.2860 O   0  0  0  0  0  0  0  0  0  0  0  0
  -28.2210  -20.9350   18.1450 C   0  0  0  0  0  3  0  0  0  0  0  0
  -28.6170  -22.5960   18.2660 C   0  0  0  0  0  3  0  0  0  0  0  0
  -27.5510  -23.9340   18.1880 C   0  0  0  0  0  2  0  0  0  0  0  0
  -27.7850  -25.4590   18.5230 O   0  0  0  0  0  0  0  0  0  0  0  0
  -24.3310  -30.5270   22.6880 C   0  0  0  0  0  0  0  0  0  0  0  0
  -26.7010  -26.4020   18.7260 C   0  0  0  0  0  0  0  0  0  0  0  0
  -22.9970  -29.2940   21.0270 C   0  0  0  0  0  3  0  0  0  0  0  0
  -24.3190  -28.0180   19.2250 C   0  0  0  0  0  0  0  0  0  0  0  0
  -25.4980  -29.7230   20.5990 C   0  0  0  0  0  2  0  0  0  0  0  0
  -25.5480  -28.4390   19.7460 C   0  0  0  0  0  0  0  0  0  0  0  0
  -26.7360  -27.6500   19.4790 C   0  0  0  0  0  3  0  0  0  0  0  0
  -25.4300  -26.0930   18.1900 C   0  0  0  0  0  3  0  0  0  0  0  0
  -24.2720  -26.8610   18.4330 C   0  0  0  0  0  3  0  0  0  0  0  0
  -23.0710  -28.8250   19.5490 C   0  0  0  0  0  2  0  0  0  0  0  0
  -24.3020  -29.8650   21.4920 N   0  0  0  0  0  0  0  0  0  0  0  0
  -23.3080  -30.6720   23.3760 O   0  0  0  0  0  0  0  0  0  0  0  0
  -22.4870  -28.1260   21.9090 C   0  0  0  0  0  0  0  0  0  0  0  0
  -21.1810  -27.8170   21.8290 N   0  0  0  0  0  0  0  0  0  0  0  0
  -23.2700  -27.5060   22.6320 O   0  0  0  0  0  0  0  0  0  0  0  0
  -20.5980  -28.3720   21.2180 H   0  0  0  0  0  0  0  0  0  0  0  0
  -18.0020  -26.1690   22.3280 C   0  0  0  0  0  0  0  0  0  0  0  0
  -20.5140  -26.7330   22.5540 C   0  0  0  0  0  3  0  0  0  0  0  0
  -20.7620  -25.3700   21.8730 C   0  0  0  0  0  2  0  0  0  0  0  0
  -19.6880  -25.0170   20.8380 C   0  0  0  0  0  2  0  0  0  0  0  0
  -18.3220  -24.9200   21.5210 C   0  0  0  0  0  2  0  0  0  0  0  0
  -19.0300  -27.0310   22.7930 C   0  0  0  0  0  0  0  0  0  0  0  0
  -18.6770  -28.2020   23.5010 C   0  0  0  0  0  3  0  0  0  0  0  0
  -17.3260  -28.5090   23.7500 C   0  0  0  0  0  3  0  0  0  0  0  0
  -16.3120  -27.6410   23.3060 C   0  0  0  0  0  3  0  0  0  0  0  0
  -16.6510  -26.4720   22.6020 C   0  0  0  0  0  3  0  0  0  0  0  0
  -25.6470  -31.1490   23.2420 C   0  0  0  0  0  3  0  0  0  0  0  0
  -25.3420  -32.5110   23.7100 N   0  0  0  0  0  0  0  0  0  0  0  0
  -25.5410  -33.6280   22.9970 C   0  0  0  0  0  0  0  0  0  0  0  0
  -26.0670  -33.6190   21.8810 O   0  0  0  0  0  0  0  0  0  0  0  0
  -24.8510  -32.5880   24.5890 H   0  0  0  0  0  0  0  0  0  0  0  0
  -23.7250  -35.3700   23.0260 C   0  0  0  0  0  1  0  0  0  0  0  0
  -25.0820  -34.9610   23.6190 C   0  0  0  0  0  3  0  0  0  0  0  0
  -27.2790  -35.8840   24.2070 C   0  0  0  0  0  1  0  0  0  0  0  0
  -26.0520  -36.0620   23.4350 N   0  0  0  0  0  0  0  0  0  0  0  0
  -25.6400  -36.9530   23.6980 H   0  0  0  0  0  0  0  0  0  0  0  0
  -26.2920  -30.3020   24.4100 C   0  0  1  0  0  0  0  0  0  0  0  0
  -25.3030  -29.9590   25.5480 C   0  0  0  0  0  1  0  0  0  0  0  0
  -26.8680  -28.9700   23.8750 C   0  0  0  0  0  1  0  0  0  0  0  0
  -27.4790  -31.0780   25.0300 C   0  0  0  0  0  1  0  0  0  0  0  0
  1  4  1  0
  2  1  2  0
  3  4  2  0
  4 45  1  0
  5 15  1  0
  5  3  1  0
  6 49  1  0
  6  2  1  0
  6  5  1  0
  7 13  1  0
  8 13  1  0
  9 10  1  0
  9  8  1  0
 11 10  1  0
 11 20  1  0
 11 12  1  0
 13 12  1  0
 14  7  2  0
 15  7  1  0
 16 15  1  0
 17 18  2  0
 18 37  1  0
 19 18  1  0
 19 22  1  0
 20 21  1  0
 20 17  1  0
 21 19  2  0
 22 23  1  0
 23 24  2  0
 25 28  1  0
 25 24  1  0
 26 25  2  0
 27 26  1  0
 27 22  2  0
 28 29  1  0
 29 34  2  0
 29 30  1  0
 30 31  2  0
 31 32  1  0
 32 36  1  0
 33 32  2  0
 34 33  1  0
 35 34  1  0
 37 38  1  0
 38 40  1  0
 38 41  1  0
 39 37  2  0
 42 17  1  0
 42 43  1  0
 44 42  1  0
 45 46  1  1
 45 48  1  0
 45 47  1  0
 50 51  2  0
 50 49  1  0
 52 51  1  0
 52 53  1  0
 53 55  1  0
 54 65  2  0
 55 60  1  0
 56 64  1  0
 56 66  1  0
 57 63  1  0
 57 59  1  0
 58 64  1  0
 59 58  1  0
 60 59  2  0
 61 62  1  0
 61 55  2  0
 62 57  2  0
 63 56  1  0
 64 54  1  0
 66 68  2  0
 67 66  1  0
 69 67  1  0
 70 79  2  0
 70 75  1  0
 71 67  1  0
 71 75  1  0
 72 71  1  0
 73 74  1  0
 73 72  1  0
 74 70  1  0
 75 76  2  0
 76 77  1  0
 78 77  2  0
 79 78  1  0
 80 54  1  0
 80 81  1  0
 80 90  1  0
 81 84  1  0
 82 86  1  0
 82 81  1  0
 83 82  2  0
 86 85  1  0
 88 86  1  0
 88 89  1  0
 88 87  1  0
 90 93  1  1
 90 91  1  0
 92 90  1  0
M  ISO  4   7 100  15 100  52 101  53 101
M  END
>  <TORSDO>  (2) 
F 21

>  <SCORE>  (2) 
7.514

>  <name>  (2) 
1

>  <ligand_id>  (2) 
1

>  <original_smiles>  (2) 
[H]c1c([H])c([H])c2c(c1[H])C([H])([H])C([H])([H])C([H])([H])C2([H])N([H])C(=O)C1([H])N(C(=O)C([H])(N([H])C(=O)C([H])(N([H])C([H])([H])[H])C([H])([H])[H])C(C([H])([H])[H])(C([H])([H])[H])C([H])([H])[H])C([H])([H])c2c([H])c(OC([H])([H])C([H])([H])C([H])([H])Oc3c([H])c([H])c(C(F)(F)F)c([H])c3N([H])C(=O)N3C([H])([H])C([H])([H])C([H])([H])C([H])(n4nc(-c5c([H])c([H])c(Oc6c([H])c([H])c(F)c([H])c6F)c([H])c5[H])c(C(=O)N([H])[H])c4N([H])[H])C3([H])[H])c([H])c([H])c2C1([H])[H]

>  <smiles>  (2) 
[H]c1c([H])c([H])c2c(c1[H])C([H])([H])C([H])([H])C([H])([H])C2([H])N([H])C(=O)C1([H])N(C(=O)C([H])(N([H])C(=O)C([H])(N([H])C([H])([H])[H])C([H])([H])[H])C(C([H])([H])[H])(C([H])([H])[H])C([H])([H])[H])C([H])([H])c2c([H])c(OC([H])([H])C([H])([H])C([H])([H])Oc3c([H])c([H])c(C(F)(F)F)c([H])c3N([H])C(=O)N3C([H])([H])C([H])([H])C([H])([H])C([H])(n4nc(-c5c([H])c([H])c(Oc6c([H])c([H])c(F)c([H])c6F)c([H])c5[H])c(C(=O)N([H])[H])c4N([H])[H])C3([H])[H])c([H])c([H])c2C1([H])[H]

$$$$
2:0:0
     RDKit          3D

 87 95  0  0  1  0  0  0  0  0999 V2000
  -30.1450  -20.5220   19.4660 C   0  0  0  0  0  3  0  0  0  0  0  0
  -28.2500  -20.3140   20.7540 C   0  0  0  0  0  3  0  0  0  0  0  0
  -30.3540  -19.0480   19.4910 C   0  0  0  0  0  3  0  0  0  0  0  0
  -28.4500  -18.8430   20.7680 C   0  0  0  0  0  3  0  0  0  0  0  0
  -29.0780  -21.3060   20.0880 C   0  0  0  0  0  0  0  0  0  0  0  0
  -29.5210  -18.0610   20.1570 C   0  0  0  0  0  0  0  0  0  0  0  0
  -30.4010  -15.2820   19.8810 C   0  0  0  0  0  0  0  0  0  0  0  0
  -30.3280  -12.8670   18.9610 C   0  0  0  0  0  2  0  0  0  0  0  0
  -29.3220  -12.7380   17.7870 C   0  0  0  0  0  2  0  0  0  0  0  0
  -27.8970  -12.4820   18.3100 C   0  0  0  0  0  2  0  0  0  0  0  0
  -27.5420  -13.4090   19.5010 C   0  0  0  0  0  3  0  0  0  0  0  0
  -28.6630  -13.4760   20.5600 C   0  0  0  0  0  2  0  0  0  0  0  0
  -29.8680  -13.9700   19.8740 N   0  0  0  0  0  0  0  0  0  0  0  0
  -31.5720  -15.3550   19.4830 O   0  0  0  0  0  0  0  0  0  0  0  0
  -29.5840  -16.4570   20.2070 N   0  0  0  0  0  0  0  0  0  0  0  0
  -28.7340  -16.0980   20.6130 H   0  0  0  0  0  0  0  0  0  0  0  0
  -25.2340  -13.9690   20.4290 C   0  0  0  0  0  0  0  0  0  0  0  0
  -24.1940  -13.1910   20.8530 C   0  0  0  0  0  0  0  0  0  0  0  0
  -24.6440  -11.8380   20.7500 C   0  0  0  0  0  0  0  0  0  0  0  0
  -26.2480  -13.0930   20.0870 N   0  0  0  0  0  0  0  0  0  0  0  0
  -25.9100  -11.8020   20.3450 N   0  0  0  0  0  0  0  0  0  0  0  0
  -23.9210  -10.5760   20.9570 C   0  0  0  0  0  0  0  0  0  0  0  0
  -24.3890   -9.5930   21.8570 C   0  0  0  0  0  3  0  0  0  0  0  0
  -23.6630   -8.3980   22.0530 C   0  0  0  0  0  3  0  0  0  0  0  0
  -22.4540   -8.1780   21.3500 C   0  0  0  0  0  0  0  0  0  0  0  0
  -22.0060   -9.1500   20.4380 C   0  0  0  0  0  3  0  0  0  0  0  0
  -22.7330  -10.3360   20.2400 C   0  0  0  0  0  3  0  0  0  0  0  0
  -21.6960   -7.0380   21.4580 O   0  0  0  0  0  0  0  0  0  0  0  0
  -21.6720   -6.2950   22.6110 C   0  0  0  0  0  0  0  0  0  0  0  0
  -21.2440   -6.8410   23.8410 C   0  0  0  0  0  3  0  0  0  0  0  0
  -21.1710   -6.0230   24.9860 C   0  0  0  0  0  3  0  0  0  0  0  0
  -21.5130   -4.6610   24.9030 C   0  0  0  0  0  0  0  0  0  0  0  0
  -21.9320   -4.1130   23.6780 C   0  0  0  0  0  3  0  0  0  0  0  0
  -22.0090   -4.9280   22.5350 C   0  0  0  0  0  0  0  0  0  0  0  0
  -22.3940   -4.3900   21.3530 F   0  0  0  0  0  0  0  0  0  0  0  0
  -21.4350   -3.8730   26.0020 F   0  0  0  0  0  0  0  0  0  0  0  0
  -22.8240  -13.6690   21.2360 C   0  0  0  0  0  0  0  0  0  0  0  0
  -22.1570  -12.9580   22.1370 N   0  0  0  0  0  0  0  0  0  0  0  0
  -22.3600  -14.7110   20.7730 O   0  0  0  0  0  0  0  0  0  0  0  0
  -22.5500  -12.1150   22.5320 H   0  0  0  0  0  0  0  0  0  0  0  0
  -21.2410  -13.2590   22.4400 H   0  0  0  0  0  0  0  0  0  0  0  0
  -25.3970  -15.3440   20.2780 N   0  0  0  0  0  0  0  0  0  0  0  0
  -24.6420  -15.9990   20.4520 H   0  0  0  0  0  0  0  0  0  0  0  0
  -26.2130  -15.7820   19.8750 H   0  0  0  0  0  0  0  0  0  0  0  0
  -29.0670  -23.0380   20.2600 C   0  0  0  0  0  3  0  0  0  0  0  0
  -28.0290  -24.4150   19.8500 C   0  0  0  0  0  3  0  0  0  0  0  0
  -28.2340  -26.0170   20.0780 O   0  0  0  0  0  0  0  0  0  0  0  0
  -24.6030  -31.8040   23.1570 C   0  0  0  0  0  0  0  0  0  0  0  0
  -27.2040  -27.0750   20.0200 C   0  0  0  0  0  0  0  0  0  0  0  0
  -23.4220  -30.4460   21.4770 C   0  0  0  0  0  3  0  0  0  0  0  0
  -24.8860  -28.9030   20.0100 C   0  0  0  0  0  0  0  0  0  0  0  0
  -25.9820  -30.6970   21.3390 C   0  0  0  0  0  2  0  0  0  0  0  0
  -26.0650  -29.3110   20.6460 C   0  0  0  0  0  0  0  0  0  0  0  0
  -27.2200  -28.4170   20.6290 C   0  0  0  0  0  3  0  0  0  0  0  0
  -26.0000  -26.8070   19.3340 C   0  0  0  0  0  3  0  0  0  0  0  0
  -24.8760  -27.6730   19.3330 C   0  0  0  0  0  3  0  0  0  0  0  0
  -23.6590  -29.8090   20.0800 C   0  0  0  0  0  2  0  0  0  0  0  0
  -24.6900  -31.0080   22.0450 N   0  0  0  0  0  0  0  0  0  0  0  0
  -23.5110  -32.0670   23.6870 O   0  0  0  0  0  0  0  0  0  0  0  0
  -22.7370  -29.4140   22.4120 C   0  0  0  0  0  0  0  0  0  0  0  0
  -21.4060  -29.2590   22.2980 N   0  0  0  0  0  0  0  0  0  0  0  0
  -23.4110  -28.7540   23.2070 O   0  0  0  0  0  0  0  0  0  0  0  0
  -20.9130  -29.8520   21.6430 H   0  0  0  0  0  0  0  0  0  0  0  0
  -18.0240  -28.0570   22.8340 C   0  0  0  0  0  0  0  0  0  0  0  0
  -20.5910  -28.2900   23.0390 C   0  0  0  0  0  3  0  0  0  0  0  0
  -20.6650  -26.8880   22.3900 C   0  0  0  0  0  2  0  0  0  0  0  0
  -19.5270  -26.6190   21.3990 C   0  0  0  0  0  2  0  0  0  0  0  0
  -18.1710  -26.7360   22.0990 C   0  0  0  0  0  2  0  0  0  0  0  0
  -19.1590  -28.7950   23.2640 C   0  0  0  0  0  0  0  0  0  0  0  0
  -18.9640  -30.0290   23.9200 C   0  0  0  0  0  3  0  0  0  0  0  0
  -17.6680  -30.5300   24.1420 C   0  0  0  0  0  3  0  0  0  0  0  0
  -16.5470  -29.7920   23.7240 C   0  0  0  0  0  3  0  0  0  0  0  0
  -16.7260  -28.5550   23.0780 C   0  0  0  0  0  3  0  0  0  0  0  0
  -25.8680  -32.4380   23.8100 C   0  0  0  0  0  3  0  0  0  0  0  0
  -25.5480  -33.8360   24.1520 N   0  0  0  0  0  0  0  0  0  0  0  0
  -25.8710  -34.9000   23.4070 C   0  0  0  0  0  0  0  0  0  0  0  0
  -26.5320  -34.8090   22.3670 O   0  0  0  0  0  0  0  0  0  0  0  0
  -24.9600  -33.9780   24.9600 H   0  0  0  0  0  0  0  0  0  0  0  0
  -24.1270  -36.6900   23.1080 C   0  0  0  0  0  1  0  0  0  0  0  0
  -25.3890  -36.2850   23.8860 C   0  0  0  0  0  3  0  0  0  0  0  0
  -27.5330  -37.1870   24.6800 C   0  0  0  0  0  1  0  0  0  0  0  0
  -26.4130  -37.3450   23.7530 N   0  0  0  0  0  0  0  0  0  0  0  0
  -26.0050  -38.2630   23.9060 H   0  0  0  0  0  0  0  0  0  0  0  0
  -26.3600  -31.6610   25.0940 C   0  0  1  0  0  0  0  0  0  0  0  0
  -25.2470  -31.4190   26.1400 C   0  0  0  0  0  1  0  0  0  0  0  0
  -26.9490  -30.2830   24.7150 C   0  0  0  0  0  1  0  0  0  0  0  0
  -27.5000  -32.4500   25.7790 C   0  0  0  0  0  1  0  0  0  0  0  0
  1  3  2  0
  1  5  1  0
  2  4  1  0
  3  6  1  0
  5 45  1  0
  5  2  2  0
  6 15  1  0
  6  4  2  0
  7 15  1  0
  8 13  1  0
  9 10  1  0
  9  8  1  0
 11 10  1  0
 11 20  1  0
 11 12  1  0
 13  7  1  0
 13 12  1  0
 14  7  2  0
 15 16  1  0
 17 18  2  0
 18 37  1  0
 19 18  1  0
 19 22  1  0
 20 21  1  0
 20 17  1  0
 21 19  2  0
 22 23  1  0
 23 24  2  0
 25 28  1  0
 25 24  1  0
 26 25  2  0
 27 26  1  0
 27 22  2  0
 28 29  1  0
 29 30  1  0
 30 31  2  0
 32 31  1  0
 32 36  1  0
 33 32  2  0
 34 29  2  0
 34 33  1  0
 35 34  1  0
 37 38  1  0
 38 41  1  0
 38 40  1  0
 39 37  2  0
 42 17  1  0
 42 43  1  0
 44 42  1  0
 46 47  1  0
 46 45  2  0
 48 59  2  0
 49 47  1  0
 49 54  1  0
 50 58  1  0
 50 60  1  0
 51 57  1  0
 51 53  1  0
 52 58  1  0
 53 52  1  0
 54 53  2  0
 55 49  2  0
 56 55  1  0
 56 51  2  0
 57 50  1  0
 58 48  1  0
 60 62  2  0
 61 60  1  0
 63 61  1  0
 64 73  2  0
 64 69  1  0
 65 61  1  0
 65 69  1  0
 66 65  1  0
 67 68  1  0
 67 66  1  0
 68 64  1  0
 69 70  2  0
 70 71  1  0
 72 71  2  0
 73 72  1  0
 74 48  1  0
 74 75  1  0
 74 84  1  0
 75 78  1  0
 76 80  1  0
 76 75  1  0
 77 76  2  0
 80 79  1  0
 82 80  1  0
 82 83  1  0
 82 81  1  0
 84 87  1  1
 84 85  1  0
 86 84  1  0
M  ISO  4   7 100  15 100  46 101  47 101
M  END
>  <TORSDO>  (3) 
F 18

>  <SCORE>  (3) 
-15.173

>  <name>  (3) 
2

>  <ligand_id>  (3) 
2

>  <original_smiles>  (3) 
[H]c1c([H])c([H])c2c(c1[H])C([H])([H])C([H])([H])C([H])([H])C2([H])N([H])C(=O)C1([H])N(C(=O)C([H])(N([H])C(=O)C([H])(N([H])C([H])([H])[H])C([H])([H])[H])C(C([H])([H])[H])(C([H])([H])[H])C([H])([H])[H])C([H])([H])c2c([H])c(OC([H])([H])C([H])([H])c3c([H])c([H])c(N([H])C(=O)N4C([H])([H])C([H])([H])C([H])([H])C([H])(n5nc(-c6c([H])c([H])c(Oc7c([H])c([H])c(F)c([H])c7F)c([H])c6[H])c(C(=O)N([H])[H])c5N([H])[H])C4([H])[H])c([H])c3[H])c([H])c([H])c2C1([H])[H]

>  <smiles>  (3) 
[H]c1c([H])c([H])c2c(c1[H])C([H])([H])C([H])([H])C([H])([H])C2([H])N([H])C(=O)C1([H])N(C(=O)C([H])(N([H])C(=O)C([H])(N([H])C([H])([H])[H])C([H])([H])[H])C(C([H])([H])[H])(C([H])([H])[H])C([H])([H])[H])C([H])([H])c2c([H])c(OC([H])([H])C([H])([H])c3c([H])c([H])c(N([H])C(=O)N4C([H])([H])C([H])([H])C([H])([H])C([H])(n5nc(-c6c([H])c([H])c(Oc7c([H])c([H])c(F)c([H])c7F)c([H])c6[H])c(C(=O)N([H])[H])c5N([H])[H])C4([H])[H])c([H])c3[H])c([H])c([H])c2C1([H])[H]

$$$$
3:0:0
     RDKit          3D

 89 97  0  0  1  0  0  0  0  0999 V2000
  -30.8690  -20.5460   19.7140 C   0  0  0  0  0  3  0  0  0  0  0  0
  -31.3760  -18.1460   19.8100 C   0  0  0  0  0  3  0  0  0  0  0  0
  -31.7740  -19.4800   19.5550 C   0  0  0  0  0  0  0  0  0  0  0  0
  -29.5480  -20.3130   20.1200 C   0  0  0  0  0  0  0  0  0  0  0  0
  -30.0650  -17.8020   20.2120 C   0  0  0  0  0  0  0  0  0  0  0  0
  -33.1830  -19.7790   19.0780 C   0  0  0  0  0  1  0  0  0  0  0  0
  -29.1880  -18.9390   20.3450 N   0  0  0  0  0  0  0  0  0  0  0  0
  -30.5010  -15.0570   20.2860 C   0  0  0  0  0  0  0  0  0  0  0  0
  -30.3470  -12.6870   19.3700 C   0  0  0  0  0  2  0  0  0  0  0  0
  -29.4090  -12.6290   18.1430 C   0  0  0  0  0  2  0  0  0  0  0  0
  -27.9530  -12.4010   18.5900 C   0  0  0  0  0  2  0  0  0  0  0  0
  -27.5460  -13.3270   19.7660 C   0  0  0  0  0  3  0  0  0  0  0  0
  -28.6150  -13.3840   20.8810 C   0  0  0  0  0  2  0  0  0  0  0  0
  -29.8770  -13.8010   20.2510 N   0  0  0  0  0  0  0  0  0  0  0  0
  -31.7120  -15.0390   20.0330 O   0  0  0  0  0  0  0  0  0  0  0  0
  -29.7620  -16.2890   20.4110 N   0  0  0  0  0  0  0  0  0  0  0  0
  -28.7940  -16.1210   20.6310 H   0  0  0  0  0  0  0  0  0  0  0  0
  -25.1720  -13.8840   20.5450 C   0  0  0  0  0  0  0  0  0  0  0  0
  -24.1160  -13.1010   20.9220 C   0  0  0  0  0  0  0  0  0  0  0  0
  -24.5870  -11.7520   20.8780 C   0  0  0  0  0  0  0  0  0  0  0  0
  -26.2180  -13.0130   20.2840 N   0  0  0  0  0  0  0  0  0  0  0  0
  -25.8770  -11.7240   20.5540 N   0  0  0  0  0  0  0  0  0  0  0  0
  -23.8650  -10.4840   21.0640 C   0  0  0  0  0  0  0  0  0  0  0  0
  -24.3030   -9.5100   21.9860 C   0  0  0  0  0  3  0  0  0  0  0  0
  -23.5770   -8.3120   22.1620 C   0  0  0  0  0  3  0  0  0  0  0  0
  -22.3990   -8.0790   21.4120 C   0  0  0  0  0  0  0  0  0  0  0  0
  -21.9800   -9.0420   20.4790 C   0  0  0  0  0  3  0  0  0  0  0  0
  -22.7070  -10.2320   20.3010 C   0  0  0  0  0  3  0  0  0  0  0  0
  -21.6440   -6.9360   21.5000 O   0  0  0  0  0  0  0  0  0  0  0  0
  -21.6000   -6.1860   22.6500 C   0  0  0  0  0  0  0  0  0  0  0  0
  -21.1590   -6.7290   23.8760 C   0  0  0  0  0  3  0  0  0  0  0  0
  -21.0610   -5.9060   25.0150 C   0  0  0  0  0  3  0  0  0  0  0  0
  -21.3930   -4.5400   24.9310 C   0  0  0  0  0  0  0  0  0  0  0  0
  -21.8280   -3.9970   23.7100 C   0  0  0  0  0  3  0  0  0  0  0  0
  -21.9280   -4.8160   22.5710 C   0  0  0  0  0  0  0  0  0  0  0  0
  -22.3240   -4.2820   21.3900 F   0  0  0  0  0  0  0  0  0  0  0  0
  -21.2960   -3.7480   26.0250 F   0  0  0  0  0  0  0  0  0  0  0  0
  -22.7180  -13.5710   21.2070 C   0  0  0  0  0  0  0  0  0  0  0  0
  -21.9950  -12.8720   22.0750 N   0  0  0  0  0  0  0  0  0  0  0  0
  -22.2740  -14.5960   20.6930 O   0  0  0  0  0  0  0  0  0  0  0  0
  -22.3610  -12.0450   22.5200 H   0  0  0  0  0  0  0  0  0  0  0  0
  -21.0580  -13.1760   22.3000 H   0  0  0  0  0  0  0  0  0  0  0  0
  -25.3260  -15.2570   20.3720 N   0  0  0  0  0  0  0  0  0  0  0  0
  -24.5530  -15.9030   20.4920 H   0  0  0  0  0  0  0  0  0  0  0  0
  -26.1610  -15.7010   20.0180 H   0  0  0  0  0  0  0  0  0  0  0  0
  -28.5460  -21.6390   20.1860 C   0  0  0  0  0  2  0  0  0  0  0  0
  -28.9940  -23.2870   20.2470 C   0  0  0  0  0  3  0  0  0  0  0  0
  -27.9610  -24.6300   20.0820 C   0  0  0  0  0  3  0  0  0  0  0  0
  -28.2440  -26.1670   20.2540 O   0  0  0  0  0  0  0  0  0  0  0  0
  -24.6400  -31.9050   23.2470 C   0  0  0  0  0  0  0  0  0  0  0  0
  -27.1910  -27.1630   20.2050 C   0  0  0  0  0  0  0  0  0  0  0  0
  -23.4320  -30.5190   21.6060 C   0  0  0  0  0  3  0  0  0  0  0  0
  -24.8710  -28.9320   20.1850 C   0  0  0  0  0  0  0  0  0  0  0  0
  -25.9900  -30.7620   21.4410 C   0  0  0  0  0  2  0  0  0  0  0  0
  -26.0560  -29.3690   20.7910 C   0  0  0  0  0  0  0  0  0  0  0  0
  -27.2170  -28.5020   20.7820 C   0  0  0  0  0  3  0  0  0  0  0  0
  -25.9760  -26.8360   19.5610 C   0  0  0  0  0  3  0  0  0  0  0  0
  -24.8460  -27.6780   19.5550 C   0  0  0  0  0  3  0  0  0  0  0  0
  -23.6480  -29.8360   20.2300 C   0  0  0  0  0  2  0  0  0  0  0  0
  -24.7070  -31.0840   22.1530 N   0  0  0  0  0  0  0  0  0  0  0  0
  -23.5530  -32.1980   23.7720 O   0  0  0  0  0  0  0  0  0  0  0  0
  -22.7420  -29.5190   22.5670 C   0  0  0  0  0  0  0  0  0  0  0  0
  -21.4140  -29.3540   22.4320 N   0  0  0  0  0  0  0  0  0  0  0  0
  -23.4050  -28.8910   23.3970 O   0  0  0  0  0  0  0  0  0  0  0  0
  -20.9360  -29.9120   21.7370 H   0  0  0  0  0  0  0  0  0  0  0  0
  -18.0230  -28.1700   22.9160 C   0  0  0  0  0  0  0  0  0  0  0  0
  -20.5820  -28.4220   23.1980 C   0  0  0  0  0  3  0  0  0  0  0  0
  -20.6790  -26.9880   22.6270 C   0  0  0  0  0  2  0  0  0  0  0  0
  -19.5820  -26.6680   21.6060 C   0  0  0  0  0  2  0  0  0  0  0  0
  -18.1980  -26.8200   22.2410 C   0  0  0  0  0  2  0  0  0  0  0  0
  -19.1430  -28.9290   23.3500 C   0  0  0  0  0  0  0  0  0  0  0  0
  -18.9240  -30.1920   23.9430 C   0  0  0  0  0  3  0  0  0  0  0  0
  -17.6210  -30.6980   24.1020 C   0  0  0  0  0  3  0  0  0  0  0  0
  -16.5150  -29.9380   23.6800 C   0  0  0  0  0  3  0  0  0  0  0  0
  -16.7180  -28.6750   23.0960 C   0  0  0  0  0  3  0  0  0  0  0  0
  -25.9180  -32.5300   23.8800 C   0  0  0  0  0  3  0  0  0  0  0  0
  -26.4190  -31.7530   25.1610 C   0  0  1  0  0  0  0  0  0  0  0  0
  -25.3170  -31.5230   26.2210 C   0  0  0  0  0  1  0  0  0  0  0  0
  -26.9920  -30.3700   24.7740 C   0  0  0  0  0  1  0  0  0  0  0  0
  -27.5720  -32.5360   25.8330 C   0  0  0  0  0  1  0  0  0  0  0  0
  -25.6120  -33.9300   24.2190 N   0  0  0  0  0  0  0  0  0  0  0  0
  -25.9280  -34.9870   23.4590 C   0  0  0  0  0  0  0  0  0  0  0  0
  -26.5750  -34.8870   22.4120 O   0  0  0  0  0  0  0  0  0  0  0  0
  -25.0320  -34.0810   25.0320 H   0  0  0  0  0  0  0  0  0  0  0  0
  -24.1820  -36.7780   23.1690 C   0  0  0  0  0  1  0  0  0  0  0  0
  -25.4550  -36.3760   23.9330 C   0  0  0  0  0  3  0  0  0  0  0  0
  -27.6150  -37.2750   24.6800 C   0  0  0  0  0  1  0  0  0  0  0  0
  -26.4780  -37.4330   23.7760 N   0  0  0  0  0  0  0  0  0  0  0  0
  -26.0750  -38.3530   23.9280 H   0  0  0  0  0  0  0  0  0  0  0  0
  1  4  1  0
  2  5  2  0
  3  1  2  0
  3  2  1  0
  4 46  1  0
  4  7  2  0
  5  7  1  0
  5 16  1  0
  6  3  1  0
  8 16  1  0
  9 14  1  0
 10 11  1  0
 10  9  1  0
 12 11  1  0
 12 21  1  0
 12 13  1  0
 14  8  1  0
 14 13  1  0
 15  8  2  0
 16 17  1  0
 18 19  2  0
 19 38  1  0
 20 19  1  0
 20 23  1  0
 21 18  1  0
 21 22  1  0
 22 20  2  0
 23 24  1  0
 24 25  2  0
 26 29  1  0
 26 25  1  0
 27 26  2  0
 28 27  1  0
 28 23  2  0
 29 30  1  0
 30 31  1  0
 31 32  2  0
 33 32  1  0
 33 37  1  0
 34 33  2  0
 35 30  2  0
 35 34  1  0
 36 35  1  0
 38 39  1  0
 39 42  1  0
 39 41  1  0
 40 38  2  0
 43 44  1  0
 43 18  1  0
 45 43  1  0
 46 47  1  0
 48 47  2  0
 48 49  1  0
 50 61  2  0
 51 49  1  0
 51 56  1  0
 52 60  1  0
 52 62  1  0
 53 59  1  0
 53 55  1  0
 54 60  1  0
 55 54  1  0
 56 55  2  0
 57 51  2  0
 58 57  1  0
 58 53  2  0
 59 52  1  0
 60 50  1  0
 62 64  2  0
 63 62  1  0
 65 63  1  0
 66 75  2  0
 66 71  1  0
 67 63  1  0
 67 71  1  0
 68 67  1  0
 69 70  1  0
 69 68  1  0
 70 66  1  0
 71 72  2  0
 72 73  1  0
 74 73  2  0
 75 74  1  0
 76 50  1  0
 76 81  1  0
 76 77  1  0
 77 80  1  1
 77 78  1  0
 79 77  1  0
 81 84  1  0
 82 86  1  0
 82 81  1  0
 83 82  2  0
 86 85  1  0
 88 89  1  0
 88 86  1  0
 88 87  1  0
M  ISO  4   8 100  16 100  48 101  49 101
M  END
>  <TORSDO>  (4) 
F 19

>  <SCORE>  (4) 
-15.488

>  <name>  (4) 
3

>  <ligand_id>  (4) 
3

>  <original_smiles>  (4) 
[H]c1c([H])c([H])c2c(c1[H])C([H])([H])C([H])([H])C([H])([H])C2([H])N([H])C(=O)C1([H])N(C(=O)C([H])(N([H])C(=O)C([H])(N([H])C([H])([H])[H])C([H])([H])[H])C(C([H])([H])[H])(C([H])([H])[H])C([H])([H])[H])C([H])([H])c2c([H])c(OC([H])([H])C([H])([H])C([H])([H])c3nc(N([H])C(=O)N4C([H])([H])C([H])([H])C([H])([H])C([H])(n5nc(-c6c([H])c([H])c(Oc7c([H])c([H])c(F)c([H])c7F)c([H])c6[H])c(C(=O)N([H])[H])c5N([H])[H])C4([H])[H])c([H])c(C([H])([H])[H])c3[H])c([H])c([H])c2C1([H])[H]

>  <smiles>  (4) 
[H]c1c([H])c([H])c2c(c1[H])C([H])([H])C([H])([H])C([H])([H])C2([H])N([H])C(=O)C1([H])N(C(=O)C([H])(N([H])C(=O)C([H])(N([H])C([H])([H])[H])C([H])([H])[H])C(C([H])([H])[H])(C([H])([H])[H])C([H])([H])[H])C([H])([H])c2c([H])c(OC([H])([H])C([H])([H])C([H])([H])c3nc(N([H])C(=O)N4C([H])([H])C([H])([H])C([H])([H])C([H])(n5nc(-c6c([H])c([H])c(Oc7c([H])c([H])c(F)c([H])c7F)c([H])c6[H])c(C(=O)N([H])[H])c5N([H])[H])C4([H])[H])c([H])c(C([H])([H])[H])c3[H])c([H])c([H])c2C1([H])[H]

$$$$
4:0:0
     RDKit          3D

 91 98  0  0  1  0  0  0  0  0999 V2000
  -28.7910  -23.3280   21.2160 C   0  0  0  0  0  0  0  0  0  0  0  0
  -28.2410  -21.9380   19.2160 C   0  0  0  0  0  1  0  0  0  0  0  0
  -28.6810  -22.1130   20.6100 N   0  0  0  0  0  0  0  0  0  0  0  0
  -29.1460  -23.4280   22.3960 O   0  0  0  0  0  0  0  0  0  0  0  0
  -28.4450  -24.6170   20.4420 C   0  0  0  0  0  2  0  0  0  0  0  0
  -28.6760  -25.9170   21.2480 C   0  0  0  0  0  2  0  0  0  0  0  0
  -28.6640  -27.0730   20.4040 O   0  0  0  0  0  0  0  0  0  0  0  0
  -24.5780  -32.0420   23.4450 C   0  0  0  0  0  0  0  0  0  0  0  0
  -27.4740  -27.7590   20.3980 C   0  0  0  0  0  0  0  0  0  0  0  0
  -23.4730  -30.6230   21.7440 C   0  0  0  0  0  3  0  0  0  0  0  0
  -25.0270  -29.1560   20.3500 C   0  0  0  0  0  0  0  0  0  0  0  0
  -25.9850  -31.0810   21.6260 C   0  0  0  0  0  2  0  0  0  0  0  0
  -26.1420  -29.7190   20.9820 C   0  0  0  0  0  0  0  0  0  0  0  0
  -27.3710  -29.0270   21.0070 C   0  0  0  0  0  3  0  0  0  0  0  0
  -26.3490  -27.2000   19.7600 C   0  0  0  0  0  3  0  0  0  0  0  0
  -25.1230  -27.8930   19.7370 C   0  0  0  0  0  3  0  0  0  0  0  0
  -23.7490  -29.9660   20.3650 C   0  0  0  0  0  2  0  0  0  0  0  0
  -24.6950  -31.2640   22.3320 N   0  0  0  0  0  0  0  0  0  0  0  0
  -23.4720  -32.2670   23.9550 O   0  0  0  0  0  0  0  0  0  0  0  0
  -22.8300  -29.5670   22.6710 C   0  0  0  0  0  0  0  0  0  0  0  0
  -21.5280  -29.3070   22.4690 N   0  0  0  0  0  0  0  0  0  0  0  0
  -23.5020  -28.9820   23.5260 O   0  0  0  0  0  0  0  0  0  0  0  0
  -21.0490  -29.8330   21.7520 H   0  0  0  0  0  0  0  0  0  0  0  0
  -18.2160  -27.8940   22.7440 C   0  0  0  0  0  0  0  0  0  0  0  0
  -20.7250  -28.3230   23.1940 C   0  0  0  0  0  3  0  0  0  0  0  0
  -20.9630  -26.8980   22.6440 C   0  0  0  0  0  2  0  0  0  0  0  0
  -19.9580  -26.4930   21.5600 C   0  0  0  0  0  2  0  0  0  0  0  0
  -18.5280  -26.5530   22.1030 C   0  0  0  0  0  2  0  0  0  0  0  0
  -19.2470  -28.7320   23.2420 C   0  0  0  0  0  0  0  0  0  0  0  0
  -18.9050  -29.9840   23.7960 C   0  0  0  0  0  3  0  0  0  0  0  0
  -17.5620  -30.4000   23.8610 C   0  0  0  0  0  3  0  0  0  0  0  0
  -16.5430  -29.5590   23.3800 C   0  0  0  0  0  3  0  0  0  0  0  0
  -16.8690  -28.3080   22.8280 C   0  0  0  0  0  3  0  0  0  0  0  0
  -25.8220  -32.7070   24.1130 C   0  0  0  0  0  3  0  0  0  0  0  0
  -25.4930  -34.1170   24.3560 N   0  0  0  0  0  0  0  0  0  0  0  0
  -25.8710  -35.1330   23.5690 C   0  0  0  0  0  0  0  0  0  0  0  0
  -26.6060  -34.9810   22.5880 O   0  0  0  0  0  0  0  0  0  0  0  0
  -24.8520  -34.3090   25.1140 H   0  0  0  0  0  0  0  0  0  0  0  0
  -24.1710  -36.8980   23.0100 C   0  0  0  0  0  1  0  0  0  0  0  0
  -25.3530  -36.5400   23.9240 C   0  0  0  0  0  3  0  0  0  0  0  0
  -27.4260  -37.4650   24.8560 C   0  0  0  0  0  1  0  0  0  0  0  0
  -26.3900  -37.5890   23.8340 N   0  0  0  0  0  0  0  0  0  0  0  0
  -25.9760  -38.5140   23.9140 H   0  0  0  0  0  0  0  0  0  0  0  0
  -26.2610  -31.9970   25.4530 C   0  0  1  0  0  0  0  0  0  0  0  0
  -25.0960  -31.7620   26.4420 C   0  0  0  0  0  1  0  0  0  0  0  0
  -26.9110  -30.6260   25.1500 C   0  0  0  0  0  1  0  0  0  0  0  0
  -27.3370  -32.8470   26.1680 C   0  0  0  0  0  1  0  0  0  0  0  0
  -28.8580  -20.8880   21.4270 C   0  0  0  0  0  2  0  0  0  0  0  0
  -28.5170  -19.5140   20.7880 C   0  0  0  0  0  2  0  0  0  0  0  0
  -29.7100  -18.8040   20.1160 C   0  0  0  0  0  2  0  0  0  0  0  0
  -29.5100  -17.2800   19.9670 C   0  0  0  0  0  2  0  0  0  0  0  0
  -30.8360  -16.5400   19.6970 C   0  0  0  0  0  2  0  0  0  0  0  0
  -30.9980  -14.1420   19.1630 C   0  0  0  0  0  0  0  0  0  0  0  0
  -30.4430  -11.8730   18.3580 C   0  0  0  0  0  2  0  0  0  0  0  0
  -29.3520  -11.8910   17.2710 C   0  0  0  0  0  2  0  0  0  0  0  0
  -27.9540  -11.8480   17.9100 C   0  0  0  0  0  2  0  0  0  0  0  0
  -27.7840  -12.9190   19.0170 C   0  0  0  0  0  3  0  0  0  0  0  0
  -28.9660  -12.8890   20.0070 C   0  0  0  0  0  2  0  0  0  0  0  0
  -30.2330  -13.0180   19.2610 N   0  0  0  0  0  0  0  0  0  0  0  0
  -31.8370  -14.2930   18.2660 O   0  0  0  0  0  0  0  0  0  0  0  0
  -30.7810  -15.1170   20.0830 N   0  0  0  0  0  0  0  0  0  0  0  0
  -25.6180  -13.7520   20.1340 C   0  0  0  0  0  0  0  0  0  0  0  0
  -24.5510  -13.0850   20.6720 C   0  0  0  0  0  0  0  0  0  0  0  0
  -24.8520  -11.6930   20.5460 C   0  0  0  0  0  0  0  0  0  0  0  0
  -26.5080  -12.7740   19.7140 N   0  0  0  0  0  0  0  0  0  0  0  0
  -26.0580  -11.5290   20.0170 N   0  0  0  0  0  0  0  0  0  0  0  0
  -24.0370  -10.5090   20.8430 C   0  0  0  0  0  0  0  0  0  0  0  0
  -24.4580   -9.5380   21.7790 C   0  0  0  0  0  3  0  0  0  0  0  0
  -23.6480   -8.4170   22.0590 C   0  0  0  0  0  3  0  0  0  0  0  0
  -22.4020   -8.2580   21.4060 C   0  0  0  0  0  0  0  0  0  0  0  0
  -22.0000   -9.2150   20.4580 C   0  0  0  0  0  3  0  0  0  0  0  0
  -22.8100  -10.3280   20.1750 C   0  0  0  0  0  3  0  0  0  0  0  0
  -21.5620   -7.1890   21.5960 O   0  0  0  0  0  0  0  0  0  0  0  0
  -21.4960   -6.5280   22.7970 C   0  0  0  0  0  0  0  0  0  0  0  0
  -21.1590   -7.1930   23.9960 C   0  0  0  0  0  3  0  0  0  0  0  0
  -21.0350   -6.4640   25.1960 C   0  0  0  0  0  3  0  0  0  0  0  0
  -21.2390   -5.0720   25.1980 C   0  0  0  0  0  0  0  0  0  0  0  0
  -21.5700   -4.4060   24.0040 C   0  0  0  0  0  3  0  0  0  0  0  0
  -21.6950   -5.1330   22.8060 C   0  0  0  0  0  0  0  0  0  0  0  0
  -21.9930   -4.4830   21.6550 F   0  0  0  0  0  0  0  0  0  0  0  0
  -21.1130   -4.3690   26.3480 F   0  0  0  0  0  0  0  0  0  0  0  0
  -23.2800  -13.6960   21.1880 C   0  0  0  0  0  0  0  0  0  0  0  0
  -22.6500  -13.0650   22.1740 N   0  0  0  0  0  0  0  0  0  0  0  0
  -22.8620  -14.7670   20.7500 O   0  0  0  0  0  0  0  0  0  0  0  0
  -23.0040  -12.1980   22.5490 H   0  0  0  0  0  0  0  0  0  0  0  0
  -21.8020  -13.4560   22.5580 H   0  0  0  0  0  0  0  0  0  0  0  0
  -25.8990  -15.1020   19.9510 N   0  0  0  0  0  0  0  0  0  0  0  0
  -25.2400  -15.8310   20.2010 H   0  0  0  0  0  0  0  0  0  0  0  0
  -26.7360  -15.4600   19.5080 H   0  0  0  0  0  0  0  0  0  0  0  0
  -32.6210  -14.5380   21.6980 C   0  0  0  0  0  1  0  0  0  0  0  0
  -31.1360  -14.8910   21.4980 C   0  0  0  0  0  2  0  0  0  0  0  0
  1  4  2  0
  2  3  1  0
  3  1  1  0
  3 48  1  0
  5  1  1  0
  5  6  1  0
  7  6  1  0
  8 19  2  0
  9  7  1  0
  9 14  1  0
 10 18  1  0
 10 20  1  0
 11 17  1  0
 11 13  1  0
 12 18  1  0
 13 14  2  0
 13 12  1  0
 15  9  2  0
 16 15  1  0
 16 11  2  0
 17 10  1  0
 18  8  1  0
 20 22  2  0
 21 20  1  0
 23 21  1  0
 24 33  2  0
 24 29  1  0
 25 21  1  0
 25 29  1  0
 26 25  1  0
 27 28  1  0
 27 26  1  0
 28 24  1  0
 29 30  2  0
 30 31  1  0
 32 31  2  0
 33 32  1  0
 34  8  1  0
 34 35  1  0
 34 44  1  0
 35 38  1  0
 36 40  1  0
 36 35  1  0
 37 36  2  0
 40 39  1  0
 42 43  1  0
 42 40  1  0
 42 41  1  0
 44 47  1  1
 44 45  1  0
 46 44  1  0
 49 48  1  0
 50 49  1  0
 51 50  1  0
 52 51  1  0
 52 61  1  0
 53 59  1  0
 53 61  1  0
 54 59  1  0
 55 56  1  0
 55 54  1  0
 57 56  1  0
 57 65  1  0
 57 58  1  0
 59 58  1  0
 60 53  2  0
 61 91  1  0
 62 63  2  0
 63 82  1  0
 64 63  1  0
 64 67  1  0
 65 66  1  0
 65 62  1  0
 66 64  2  0
 67 68  1  0
 68 69  2  0
 70 73  1  0
 70 69  1  0
 71 70  2  0
 72 71  1  0
 72 67  2  0
 73 74  1  0
 74 79  2  0
 74 75  1  0
 75 76  2  0
 76 77  1  0
 77 81  1  0
 78 77  2  0
 79 78  1  0
 80 79  1  0
 82 83  1  0
 83 85  1  0
 83 86  1  0
 84 82  2  0
 87 62  1  0
 87 88  1  0
 89 87  1  0
 91 90  1  0
M  ISO  4   6 101   7 101  53 100  61 100
M  END
>  <TORSDO>  (5) 
F 24

>  <SCORE>  (5) 
-9.792

>  <name>  (5) 
4

>  <ligand_id>  (5) 
4

>  <original_smiles>  (5) 
[H]c1c([H])c([H])c2c(c1[H])C([H])([H])C([H])([H])C([H])([H])C2([H])N([H])C(=O)C1([H])N(C(=O)C([H])(N([H])C(=O)C([H])(N([H])C([H])([H])[H])C([H])([H])[H])C(C([H])([H])[H])(C([H])([H])[H])C([H])([H])[H])C([H])([H])c2c([H])c(OC([H])([H])C([H])([H])C(=O)N(C([H])([H])[H])C([H])([H])C([H])([H])C([H])([H])C([H])([H])C([H])([H])N(C(=O)N3C([H])([H])C([H])([H])C([H])([H])C([H])(n4nc(-c5c([H])c([H])c(Oc6c([H])c([H])c(F)c([H])c6F)c([H])c5[H])c(C(=O)N([H])[H])c4N([H])[H])C3([H])[H])C([H])([H])C([H])([H])[H])c([H])c([H])c2C1([H])[H]

>  <smiles>  (5) 
[H]c1c([H])c([H])c2c(c1[H])C([H])([H])C([H])([H])C([H])([H])C2([H])N([H])C(=O)C1([H])N(C(=O)C([H])(N([H])C(=O)C([H])(N([H])C([H])([H])[H])C([H])([H])[H])C(C([H])([H])[H])(C([H])([H])[H])C([H])([H])[H])C([H])([H])c2c([H])c(OC([H])([H])C([H])([H])C(=O)N(C([H])([H])[H])C([H])([H])C([H])([H])C([H])([H])C([H])([H])C([H])([H])N(C(=O)N3C([H])([H])C([H])([H])C([H])([H])C([H])(n4nc(-c5c([H])c([H])c(Oc6c([H])c([H])c(F)c([H])c6F)c([H])c5[H])c(C(=O)N([H])[H])c4N([H])[H])C3([H])[H])C([H])([H])C([H])([H])[H])c([H])c([H])c2C1([H])[H]

$$$$
5:0:0
     RDKit          3D

 97105  0  0  1  0  0  0  0  0999 V2000
  -23.7090  -19.1030   24.9050 C   0  0  0  0  0  2  0  0  0  0  0  0
  -24.4760  -20.3770   24.4000 C   0  0  0  0  0  2  0  0  0  0  0  0
  -24.0940  -21.5880   23.4810 C   0  0  0  0  0  2  0  0  0  0  0  0
  -25.0480  -22.7920   23.6900 C   0  0  0  0  0  2  0  0  0  0  0  0
  -25.6210  -23.3160   22.3600 C   0  0  0  0  0  2  0  0  0  0  0  0
  -26.8000  -24.2840   22.5290 C   0  0  0  0  0  2  0  0  0  0  0  0
  -27.4350  -24.6140   21.1690 C   0  0  0  0  0  2  0  0  0  0  0  0
  -28.4120  -25.8080   21.2210 C   0  0  0  0  0  2  0  0  0  0  0  0
  -28.2720  -26.6830   20.0990 O   0  0  0  0  0  0  0  0  0  0  0  0
  -24.5730  -31.5630   23.6910 C   0  0  0  0  0  0  0  0  0  0  0  0
  -27.1480  -27.4640   20.1580 C   0  0  0  0  0  0  0  0  0  0  0  0
  -23.3760  -30.4500   21.8360 C   0  0  0  0  0  3  0  0  0  0  0  0
  -24.8200  -29.0520   20.2680 C   0  0  0  0  0  0  0  0  0  0  0  0
  -25.9150  -30.7180   21.7750 C   0  0  0  0  0  2  0  0  0  0  0  0
  -25.9690  -29.4400   20.9710 C   0  0  0  0  0  0  0  0  0  0  0  0
  -27.1390  -28.6540   20.9130 C   0  0  0  0  0  3  0  0  0  0  0  0
  -25.9900  -27.0940   19.4420 C   0  0  0  0  0  3  0  0  0  0  0  0
  -24.8240  -27.8740   19.5020 C   0  0  0  0  0  3  0  0  0  0  0  0
  -23.6110  -29.9500   20.3850 C   0  0  0  0  0  2  0  0  0  0  0  0
  -24.6370  -30.9160   22.4930 N   0  0  0  0  0  0  0  0  0  0  0  0
  -23.4840  -31.8120   24.2320 O   0  0  0  0  0  0  0  0  0  0  0  0
  -22.6510  -29.3360   22.6270 C   0  0  0  0  0  0  0  0  0  0  0  0
  -21.3460  -29.1640   22.3560 N   0  0  0  0  0  0  0  0  0  0  0  0
  -23.2580  -28.6400   23.4440 O   0  0  0  0  0  0  0  0  0  0  0  0
  -20.9150  -29.7780   21.6820 H   0  0  0  0  0  0  0  0  0  0  0  0
  -17.9900  -27.8380   22.3110 C   0  0  0  0  0  0  0  0  0  0  0  0
  -20.4740  -28.1580   22.9560 C   0  0  0  0  0  3  0  0  0  0  0  0
  -20.7110  -26.7670   22.3250 C   0  0  0  0  0  2  0  0  0  0  0  0
  -19.7750  -26.4690   21.1490 C   0  0  0  0  0  2  0  0  0  0  0  0
  -18.3130  -26.5340   21.5990 C   0  0  0  0  0  2  0  0  0  0  0  0
  -19.0070  -28.6050   22.9350 C   0  0  0  0  0  0  0  0  0  0  0  0
  -18.6620  -29.8260   23.5530 C   0  0  0  0  0  3  0  0  0  0  0  0
  -17.3290  -30.2790   23.5610 C   0  0  0  0  0  3  0  0  0  0  0  0
  -16.3230  -29.5060   22.9560 C   0  0  0  0  0  3  0  0  0  0  0  0
  -16.6520  -28.2880   22.3350 C   0  0  0  0  0  3  0  0  0  0  0  0
  -25.8620  -32.0470   24.4290 C   0  0  0  0  0  3  0  0  0  0  0  0
  -26.3180  -31.0830   25.5920 C   0  0  1  0  0  0  0  0  0  0  0  0
  -25.1930  -30.7380   26.5920 C   0  0  0  0  0  1  0  0  0  0  0  0
  -26.8640  -29.7510   25.0210 C   0  0  0  0  0  1  0  0  0  0  0  0
  -27.4670  -31.7310   26.4010 C   0  0  0  0  0  1  0  0  0  0  0  0
  -25.5930  -33.3960   24.9470 N   0  0  0  0  0  0  0  0  0  0  0  0
  -25.9860  -34.5320   24.3540 C   0  0  0  0  0  0  0  0  0  0  0  0
  -26.6900  -34.5520   23.3400 O   0  0  0  0  0  0  0  0  0  0  0  0
  -24.9730  -33.4580   25.7420 H   0  0  0  0  0  0  0  0  0  0  0  0
  -24.3230  -36.4170   24.2160 C   0  0  0  0  0  1  0  0  0  0  0  0
  -25.5270  -35.8570   24.9910 C   0  0  0  0  0  3  0  0  0  0  0  0
  -27.6650  -36.5440   25.9880 C   0  0  0  0  0  1  0  0  0  0  0  0
  -26.5930  -36.8800   25.0530 N   0  0  0  0  0  0  0  0  0  0  0  0
  -26.2080  -37.7800   25.3260 H   0  0  0  0  0  0  0  0  0  0  0  0
  -24.5590  -17.8040   24.8070 C   0  0  0  0  0  2  0  0  0  0  0  0
  -25.3260  -16.4990   22.7760 C   0  0  0  0  0  0  0  0  0  0  0  0
  -25.1270  -17.6240   23.4720 N   0  0  0  0  0  0  0  0  0  0  0  0
  -25.0260  -15.3710   23.1810 O   0  0  0  0  0  0  0  0  0  0  0  0
  -25.3710  -18.4840   22.9920 H   0  0  0  0  0  0  0  0  0  0  0  0
  -25.9210  -16.7100   21.3700 C   0  0  0  0  0  2  0  0  0  0  0  0
  -27.4700  -16.6840   21.2910 C   0  0  0  0  0  2  0  0  0  0  0  0
  -29.0770  -14.4060   18.8680 C   0  0  0  0  0  0  0  0  0  0  0  0
  -29.1350  -12.1080   17.9260 C   0  0  0  0  0  2  0  0  0  0  0  0
  -27.9340  -11.8280   16.9910 C   0  0  0  0  0  2  0  0  0  0  0  0
  -26.6050  -11.5210   17.7420 C   0  0  0  0  0  2  0  0  0  0  0  0
  -26.3600  -12.4790   18.9340 C   0  0  0  0  0  3  0  0  0  0  0  0
  -27.6540  -12.4910   19.7610 C   0  0  0  0  0  2  0  0  0  0  0  0
  -28.7200  -13.0930   18.9460 N   0  0  0  0  0  0  0  0  0  0  0  0
  -29.7480  -14.8210   17.9030 O   0  0  0  0  0  0  0  0  0  0  0  0
  -30.3020  -15.5160   22.0160 C   0  0  0  0  0  2  0  0  0  0  0  0
  -28.9350  -14.9170   22.3750 C   0  0  0  0  0  2  0  0  0  0  0  0
  -30.2900  -15.7430   20.5030 C   0  0  0  0  0  2  0  0  0  0  0  0
  -28.0740  -15.2580   21.1520 C   0  0  0  0  0  3  0  0  0  0  0  0
  -29.0580  -15.1140   20.0380 N   0  0  0  0  0  0  0  0  0  0  0  0
  -24.1890  -12.8390   20.2720 C   0  0  0  0  0  0  0  0  0  0  0  0
  -23.3360  -11.9540   20.8810 C   0  0  0  0  0  0  0  0  0  0  0  0
  -23.8620  -10.6520   20.6260 C   0  0  0  0  0  0  0  0  0  0  0  0
  -25.2010  -12.0600   19.7260 N   0  0  0  0  0  0  0  0  0  0  0  0
  -25.0170  -10.7410   19.9790 N   0  0  0  0  0  0  0  0  0  0  0  0
  -23.3100   -9.3270   20.9380 C   0  0  0  0  0  0  0  0  0  0  0  0
  -23.9900   -8.4510   21.8030 C   0  0  0  0  0  3  0  0  0  0  0  0
  -23.4420   -7.1920   22.1260 C   0  0  0  0  0  3  0  0  0  0  0  0
  -22.1990   -6.8040   21.5760 C   0  0  0  0  0  0  0  0  0  0  0  0
  -21.5460   -7.6610   20.6670 C   0  0  0  0  0  3  0  0  0  0  0  0
  -22.0980   -8.9110   20.3460 C   0  0  0  0  0  3  0  0  0  0  0  0
  -21.5880   -5.5960   21.8130 O   0  0  0  0  0  0  0  0  0  0  0  0
  -21.7140   -4.9490   23.0150 C   0  0  0  0  0  0  0  0  0  0  0  0
  -21.2950   -5.5240   24.2380 C   0  0  0  0  0  3  0  0  0  0  0  0
  -21.3950   -4.7850   25.4340 C   0  0  0  0  0  3  0  0  0  0  0  0
  -21.8810   -3.4600   25.4020 C   0  0  0  0  0  0  0  0  0  0  0  0
  -22.2860   -2.8840   24.1870 C   0  0  0  0  0  3  0  0  0  0  0  0
  -22.2100   -3.6290   22.9970 C   0  0  0  0  0  0  0  0  0  0  0  0
  -22.5830   -3.0640   21.8240 F   0  0  0  0  0  0  0  0  0  0  0  0
  -21.9580   -2.7390   26.5430 F   0  0  0  0  0  0  0  0  0  0  0  0
  -22.0590  -12.2960   21.5820 C   0  0  0  0  0  0  0  0  0  0  0  0
  -21.7070  -11.5150   22.5960 N   0  0  0  0  0  0  0  0  0  0  0  0
  -21.3900  -13.2760   21.2560 O   0  0  0  0  0  0  0  0  0  0  0  0
  -22.2810  -10.7270   22.8610 H   0  0  0  0  0  0  0  0  0  0  0  0
  -20.8820  -11.7170   23.1450 H   0  0  0  0  0  0  0  0  0  0  0  0
  -24.1830  -14.2130   20.1350 N   0  0  0  0  0  0  0  0  0  0  0  0
  -23.3790  -14.7660   20.4200 H   0  0  0  0  0  0  0  0  0  0  0  0
  -24.8170  -14.6890   19.5050 H   0  0  0  0  0  0  0  0  0  0  0  0
  2  1  1  0
  3  4  1  0
  3  2  1  0
  5  6  1  0
  5  4  1  0
  7  8  1  0
  7  6  1  0
  9 11  1  0
  9  8  1  0
 10 21  2  0
 11 16  1  0
 12 20  1  0
 12 22  1  0
 13 19  1  0
 13 15  1  0
 14 20  1  0
 15 14  1  0
 16 15  2  0
 17 18  1  0
 17 11  2  0
 18 13  2  0
 19 12  1  0
 20 10  1  0
 22 24  2  0
 23 22  1  0
 25 23  1  0
 26 35  2  0
 26 31  1  0
 27 23  1  0
 28 27  1  0
 29 30  1  0
 29 28  1  0
 30 26  1  0
 31 27  1  0
 31 32  2  0
 32 33  1  0
 34 33  2  0
 35 34  1  0
 36 10  1  0
 36 41  1  0
 36 37  1  0
 37 40  1  1
 37 38  1  0
 39 37  1  0
 41 44  1  0
 42 41  1  0
 42 46  1  0
 43 42  2  0
 46 45  1  0
 46 48  1  0
 48 49  1  0
 48 47  1  0
 50  1  1  0
 51 53  2  0
 51 52  1  0
 52 50  1  0
 54 52  1  0
 55 51  1  0
 56 55  1  0
 57 63  1  0
 57 69  1  0
 58 63  1  0
 59 60  1  0
 59 58  1  0
 61 60  1  0
 61 73  1  0
 61 62  1  0
 63 62  1  0
 64 57  2  0
 65 66  1  0
 67 65  1  0
 68 56  1  0
 68 66  1  0
 69 67  1  0
 69 68  1  0
 70 71  2  0
 71 90  1  0
 72 71  1  0
 72 75  1  0
 73 74  1  0
 73 70  1  0
 74 72  2  0
 75 76  1  0
 76 77  2  0
 78 81  1  0
 78 77  1  0
 79 78  2  0
 80 79  1  0
 80 75  2  0
 81 82  1  0
 82 83  1  0
 83 84  2  0
 85 84  1  0
 85 89  1  0
 86 85  2  0
 87 82  2  0
 87 86  1  0
 88 87  1  0
 90 91  1  0
 91 93  1  0
 91 94  1  0
 92 90  2  0
 95 70  1  0
 95 96  1  0
 97 95  1  0
M  ISO  4   8 101   9 101  57 100  69 100
M  END
>  <TORSDO>  (6) 
F 27

>  <SCORE>  (6) 
37.724

>  <name>  (6) 
5

>  <ligand_id>  (6) 
5

>  <original_smiles>  (6) 
[H]c1c([H])c([H])c2c(c1[H])C([H])([H])C([H])([H])C([H])([H])C2([H])N([H])C(=O)C1([H])N(C(=O)C([H])(N([H])C(=O)C([H])(N([H])C([H])([H])[H])C([H])([H])[H])C(C([H])([H])[H])(C([H])([H])[H])C([H])([H])[H])C([H])([H])c2c([H])c(OC([H])([H])C([H])([H])C([H])([H])C([H])([H])C([H])([H])C([H])([H])C([H])([H])C([H])([H])C([H])([H])N([H])C(=O)C([H])([H])C([H])([H])C3([H])N(C(=O)N4C([H])([H])C([H])([H])C([H])([H])C([H])(n5nc(-c6c([H])c([H])c(Oc7c([H])c([H])c(F)c([H])c7F)c([H])c6[H])c(C(=O)N([H])[H])c5N([H])[H])C4([H])[H])C([H])([H])C([H])([H])C3([H])[H])c([H])c([H])c2C1([H])[H]

>  <smiles>  (6) 
[H]c1c([H])c([H])c2c(c1[H])C([H])([H])C([H])([H])C([H])([H])C2([H])N([H])C(=O)C1([H])N(C(=O)C([H])(N([H])C(=O)C([H])(N([H])C([H])([H])[H])C([H])([H])[H])C(C([H])([H])[H])(C([H])([H])[H])C([H])([H])[H])C([H])([H])c2c([H])c(OC([H])([H])C([H])([H])C([H])([H])C([H])([H])C([H])([H])C([H])([H])C([H])([H])C([H])([H])C([H])([H])N([H])C(=O)C([H])([H])C([H])([H])C3([H])N(C(=O)N4C([H])([H])C([H])([H])C([H])([H])C([H])(n5nc(-c6c([H])c([H])c(Oc7c([H])c([H])c(F)c([H])c7F)c([H])c6[H])c(C(=O)N([H])[H])c5N([H])[H])C4([H])[H])C([H])([H])C([H])([H])C3([H])[H])c([H])c([H])c2C1([H])[H]

$$$$
6:0:0
     RDKit          3D

 91100  0  0  1  0  0  0  0  0999 V2000
  -31.6900  -19.2970   21.0010 C   0  0  0  0  0  3  0  0  0  0  0  0
  -31.3670  -17.9140   20.9020 C   0  0  0  0  0  3  0  0  0  0  0  0
  -29.0600  -18.5060   20.3830 C   0  0  0  0  0  3  0  0  0  0  0  0
  -29.4020  -19.9200   20.4780 C   0  0  0  0  0  0  0  0  0  0  0  0
  -30.6940  -20.2720   20.7870 C   0  0  0  0  0  0  0  0  0  0  0  0
  -30.0550  -17.4490   20.5910 C   0  0  0  0  0  0  0  0  0  0  0  0
  -28.6090  -21.2340   20.2940 C   0  0  0  0  0  0  0  0  0  0  0  0
  -30.7900  -21.7930   20.8350 C   0  0  0  0  0  2  0  0  0  0  0  0
  -29.4350  -22.3270   20.5150 N   0  0  0  0  0  0  0  0  0  0  0  0
  -27.4180  -21.2750   19.9770 O   0  0  0  0  0  0  0  0  0  0  0  0
  -30.5620  -14.8400   20.3730 C   0  0  0  0  0  0  0  0  0  0  0  0
  -30.3910  -12.5510   19.3550 C   0  0  0  0  0  2  0  0  0  0  0  0
  -29.4430  -12.5910   18.1350 C   0  0  0  0  0  2  0  0  0  0  0  0
  -27.9810  -12.3930   18.5800 C   0  0  0  0  0  2  0  0  0  0  0  0
  -27.5990  -13.2900   19.7870 C   0  0  0  0  0  3  0  0  0  0  0  0
  -28.6630  -13.2270   20.9040 C   0  0  0  0  0  2  0  0  0  0  0  0
  -29.9480  -13.6050   20.3000 N   0  0  0  0  0  0  0  0  0  0  0  0
  -31.7570  -14.9260   20.0700 O   0  0  0  0  0  0  0  0  0  0  0  0
  -29.7610  -15.9750   20.5480 N   0  0  0  0  0  0  0  0  0  0  0  0
  -28.7840  -15.7440   20.6350 H   0  0  0  0  0  0  0  0  0  0  0  0
  -25.2120  -13.8660   20.5250 C   0  0  0  0  0  0  0  0  0  0  0  0
  -24.1530  -13.0850   20.8980 C   0  0  0  0  0  0  0  0  0  0  0  0
  -24.6250  -11.7370   20.8670 C   0  0  0  0  0  0  0  0  0  0  0  0
  -26.2600  -12.9930   20.2850 N   0  0  0  0  0  0  0  0  0  0  0  0
  -25.9140  -11.7070   20.5550 N   0  0  0  0  0  0  0  0  0  0  0  0
  -23.9060  -10.4700   21.0570 C   0  0  0  0  0  0  0  0  0  0  0  0
  -24.3520   -9.5000   21.9810 C   0  0  0  0  0  3  0  0  0  0  0  0
  -23.6330   -8.2980   22.1600 C   0  0  0  0  0  3  0  0  0  0  0  0
  -22.4550   -8.0580   21.4140 C   0  0  0  0  0  0  0  0  0  0  0  0
  -22.0290   -9.0180   20.4790 C   0  0  0  0  0  3  0  0  0  0  0  0
  -22.7480  -10.2100   20.2980 C   0  0  0  0  0  3  0  0  0  0  0  0
  -21.7070   -6.9100   21.5030 O   0  0  0  0  0  0  0  0  0  0  0  0
  -21.6770   -6.1560   22.6480 C   0  0  0  0  0  0  0  0  0  0  0  0
  -21.2670   -6.6980   23.8860 C   0  0  0  0  0  3  0  0  0  0  0  0
  -21.1860   -5.8710   25.0240 C   0  0  0  0  0  3  0  0  0  0  0  0
  -21.5030   -4.5030   24.9260 C   0  0  0  0  0  0  0  0  0  0  0  0
  -21.9070   -3.9600   23.6930 C   0  0  0  0  0  3  0  0  0  0  0  0
  -21.9910   -4.7850   22.5570 C   0  0  0  0  0  0  0  0  0  0  0  0
  -22.3600   -4.2530   21.3670 F   0  0  0  0  0  0  0  0  0  0  0  0
  -21.4180   -3.7070   26.0170 F   0  0  0  0  0  0  0  0  0  0  0  0
  -22.7530  -13.5540   21.1710 C   0  0  0  0  0  0  0  0  0  0  0  0
  -22.0320  -12.8570   22.0420 N   0  0  0  0  0  0  0  0  0  0  0  0
  -22.3070  -14.5730   20.6460 O   0  0  0  0  0  0  0  0  0  0  0  0
  -22.4040  -12.0300   22.4850 H   0  0  0  0  0  0  0  0  0  0  0  0
  -21.0940  -13.1540   22.2700 H   0  0  0  0  0  0  0  0  0  0  0  0
  -25.3660  -15.2370   20.3410 N   0  0  0  0  0  0  0  0  0  0  0  0
  -24.5900  -15.8820   20.4400 H   0  0  0  0  0  0  0  0  0  0  0  0
  -26.1920  -15.6740   19.9550 H   0  0  0  0  0  0  0  0  0  0  0  0
  -29.3780  -23.8770   20.4020 C   0  0  0  0  0  3  0  0  0  0  0  0
  -28.0940  -24.8600   20.2620 C   0  0  0  0  0  3  0  0  0  0  0  0
  -28.3160  -26.3660   20.2970 O   0  0  0  0  0  0  0  0  0  0  0  0
  -24.6650  -31.9410   23.2670 C   0  0  0  0  0  0  0  0  0  0  0  0
  -27.2230  -27.2770   20.2450 C   0  0  0  0  0  0  0  0  0  0  0  0
  -23.4530  -30.5470   21.6300 C   0  0  0  0  0  3  0  0  0  0  0  0
  -24.8900  -28.9700   20.2110 C   0  0  0  0  0  0  0  0  0  0  0  0
  -26.0000  -30.8230   21.4550 C   0  0  0  0  0  2  0  0  0  0  0  0
  -26.0670  -29.4340   20.8110 C   0  0  0  0  0  0  0  0  0  0  0  0
  -27.2380  -28.6020   20.8110 C   0  0  0  0  0  3  0  0  0  0  0  0
  -26.0170  -26.8840   19.6230 C   0  0  0  0  0  3  0  0  0  0  0  0
  -24.8720  -27.7050   19.6050 C   0  0  0  0  0  3  0  0  0  0  0  0
  -23.6670  -29.8670   20.2520 C   0  0  0  0  0  2  0  0  0  0  0  0
  -24.7250  -31.1230   22.1730 N   0  0  0  0  0  0  0  0  0  0  0  0
  -23.5820  -32.2320   23.7980 O   0  0  0  0  0  0  0  0  0  0  0  0
  -22.7740  -29.5440   22.5940 C   0  0  0  0  0  0  0  0  0  0  0  0
  -21.4450  -29.3820   22.4660 N   0  0  0  0  0  0  0  0  0  0  0  0
  -23.4430  -28.9150   23.4170 O   0  0  0  0  0  0  0  0  0  0  0  0
  -20.9650  -29.9440   21.7770 H   0  0  0  0  0  0  0  0  0  0  0  0
  -18.0540  -28.2140   22.9610 C   0  0  0  0  0  0  0  0  0  0  0  0
  -20.6140  -28.4550   23.2370 C   0  0  0  0  0  3  0  0  0  0  0  0
  -20.7060  -27.0190   22.6690 C   0  0  0  0  0  2  0  0  0  0  0  0
  -19.6050  -26.7010   21.6520 C   0  0  0  0  0  2  0  0  0  0  0  0
  -18.2210  -26.8610   22.2910 C   0  0  0  0  0  2  0  0  0  0  0  0
  -19.1780  -28.9690   23.3910 C   0  0  0  0  0  0  0  0  0  0  0  0
  -18.9680  -30.2360   23.9760 C   0  0  0  0  0  3  0  0  0  0  0  0
  -17.6670  -30.7480   24.1390 C   0  0  0  0  0  3  0  0  0  0  0  0
  -16.5580  -29.9900   23.7260 C   0  0  0  0  0  3  0  0  0  0  0  0
  -16.7520  -28.7260   23.1410 C   0  0  0  0  0  3  0  0  0  0  0  0
  -25.9500  -32.5650   23.8900 C   0  0  0  0  0  3  0  0  0  0  0  0
  -25.6480  -33.9650   24.2270 N   0  0  0  0  0  0  0  0  0  0  0  0
  -25.9630  -35.0180   23.4630 C   0  0  0  0  0  0  0  0  0  0  0  0
  -26.6060  -34.9150   22.4140 O   0  0  0  0  0  0  0  0  0  0  0  0
  -25.0740  -34.1180   25.0420 H   0  0  0  0  0  0  0  0  0  0  0  0
  -24.2160  -36.8050   23.1720 C   0  0  0  0  0  1  0  0  0  0  0  0
  -25.4910  -36.4070   23.9340 C   0  0  0  0  0  3  0  0  0  0  0  0
  -27.6530  -37.3050   24.6750 C   0  0  0  0  0  1  0  0  0  0  0  0
  -26.5140  -37.4640   23.7740 N   0  0  0  0  0  0  0  0  0  0  0  0
  -26.1110  -38.3820   23.9350 H   0  0  0  0  0  0  0  0  0  0  0  0
  -26.4620  -31.7900   25.1660 C   0  0  1  0  0  0  0  0  0  0  0  0
  -25.3670  -31.5590   26.2350 C   0  0  0  0  0  1  0  0  0  0  0  0
  -27.0370  -30.4080   24.7740 C   0  0  0  0  0  1  0  0  0  0  0  0
  -27.6180  -32.5750   25.8300 C   0  0  0  0  0  1  0  0  0  0  0  0
  2  1  1  0
  3  4  2  0
  3  6  1  0
  4  5  1  0
  5  8  1  0
  5  1  2  0
  6  2  2  0
  7  4  1  0
  7  9  1  0
  9  8  1  0
 10  7  2  0
 11 19  1  0
 12 17  1  0
 13 14  1  0
 13 12  1  0
 15 14  1  0
 15 24  1  0
 15 16  1  0
 17 11  1  0
 17 16  1  0
 18 11  2  0
 19  6  1  0
 19 20  1  0
 21 22  2  0
 22 41  1  0
 23 22  1  0
 23 26  1  0
 24 21  1  0
 24 25  1  0
 25 23  2  0
 26 27  1  0
 27 28  2  0
 29 32  1  0
 29 28  1  0
 30 29  2  0
 31 30  1  0
 31 26  2  0
 32 33  1  0
 33 34  1  0
 34 35  2  0
 36 35  1  0
 36 40  1  0
 37 36  2  0
 38 33  2  0
 38 37  1  0
 39 38  1  0
 41 42  1  0
 42 45  1  0
 42 44  1  0
 43 41  2  0
 46 47  1  0
 46 21  1  0
 48 46  1  0
 49  9  1  0
 50 51  1  0
 50 49  2  0
 52 63  2  0
 53 51  1  0
 53 58  1  0
 54 62  1  0
 54 64  1  0
 55 61  1  0
 55 57  1  0
 56 62  1  0
 57 58  2  0
 57 56  1  0
 59 53  2  0
 60 59  1  0
 60 55  2  0
 61 54  1  0
 62 52  1  0
 64 66  2  0
 65 64  1  0
 67 65  1  0
 68 77  2  0
 68 73  1  0
 69 65  1  0
 69 73  1  0
 70 69  1  0
 71 72  1  0
 71 70  1  0
 72 68  1  0
 73 74  2  0
 74 75  1  0
 76 75  2  0
 77 76  1  0
 78 52  1  0
 78 79  1  0
 78 88  1  0
 79 82  1  0
 80 84  1  0
 80 79  1  0
 81 80  2  0
 84 83  1  0
 86 84  1  0
 86 87  1  0
 86 85  1  0
 88 91  1  1
 88 89  1  0
 90 88  1  0
M  ISO  4  11 100  19 100  50 101  51 101
M  END
>  <TORSDO>  (7) 
F 18

>  <SCORE>  (7) 
-14.851

>  <name>  (7) 
6

>  <ligand_id>  (7) 
6

>  <original_smiles>  (7) 
[H]c1c([H])c([H])c2c(c1[H])C([H])([H])C([H])([H])C([H])([H])C2([H])N([H])C(=O)C1([H])N(C(=O)C([H])(N([H])C(=O)C([H])(N([H])C([H])([H])[H])C([H])([H])[H])C(C([H])([H])[H])(C([H])([H])[H])C([H])([H])[H])C([H])([H])c2c([H])c(OC([H])([H])C([H])([H])N3C(=O)c4c([H])c(N([H])C(=O)N5C([H])([H])C([H])([H])C([H])([H])C([H])(n6nc(-c7c([H])c([H])c(Oc8c([H])c([H])c(F)c([H])c8F)c([H])c7[H])c(C(=O)N([H])[H])c6N([H])[H])C5([H])[H])c([H])c([H])c4C3([H])[H])c([H])c([H])c2C1([H])[H]

>  <smiles>  (7) 
[H]c1c([H])c([H])c2c(c1[H])C([H])([H])C([H])([H])C([H])([H])C2([H])N([H])C(=O)C1([H])N(C(=O)C([H])(N([H])C(=O)C([H])(N([H])C([H])([H])[H])C([H])([H])[H])C(C([H])([H])[H])(C([H])([H])[H])C([H])([H])[H])C([H])([H])c2c([H])c(OC([H])([H])C([H])([H])N3C(=O)c4c([H])c(N([H])C(=O)N5C([H])([H])C([H])([H])C([H])([H])C([H])(n6nc(-c7c([H])c([H])c(Oc8c([H])c([H])c(F)c([H])c8F)c([H])c7[H])c(C(=O)N([H])[H])c6N([H])[H])C5([H])[H])c([H])c([H])c4C3([H])[H])c([H])c([H])c2C1([H])[H]

$$$$
7:0:0
     RDKit          3D

 90 98  0  0  1  0  0  0  0  0999 V2000
  -31.0930  -17.9190   20.5650 C   0  0  0  0  0  3  0  0  0  0  0  0
  -31.0950  -19.3450   20.5020 C   0  0  0  0  0  3  0  0  0  0  0  0
  -28.7000  -19.3790   20.3330 C   0  0  0  0  0  3  0  0  0  0  0  0
  -29.8810  -17.1820   20.5250 C   0  0  0  0  0  0  0  0  0  0  0  0
  -29.9090  -20.1220   20.3880 C   0  0  0  0  0  0  0  0  0  0  0  0
  -28.6910  -17.9520   20.4070 C   0  0  0  0  0  0  0  0  0  0  0  0
  -27.5060  -17.2970   20.3610 F   0  0  0  0  0  0  0  0  0  0  0  0
  -30.5680  -14.6790   20.3110 C   0  0  0  0  0  0  0  0  0  0  0  0
  -30.3460  -12.4480   19.2340 C   0  0  0  0  0  2  0  0  0  0  0  0
  -29.3930  -12.5890   18.0260 C   0  0  0  0  0  2  0  0  0  0  0  0
  -27.9220  -12.4340   18.4630 C   0  0  0  0  0  2  0  0  0  0  0  0
  -27.5740  -13.2900   19.7100 C   0  0  0  0  0  3  0  0  0  0  0  0
  -28.6390  -13.1200   20.8180 C   0  0  0  0  0  2  0  0  0  0  0  0
  -29.9480  -13.4590   20.2340 N   0  0  0  0  0  0  0  0  0  0  0  0
  -31.7320  -14.8330   19.9340 O   0  0  0  0  0  0  0  0  0  0  0  0
  -29.7540  -15.7290   20.6430 N   0  0  0  0  0  0  0  0  0  0  0  0
  -28.8180  -15.4350   20.8750 H   0  0  0  0  0  0  0  0  0  0  0  0
  -25.1820  -13.8950   20.4320 C   0  0  0  0  0  0  0  0  0  0  0  0
  -24.1150  -13.1250   20.8040 C   0  0  0  0  0  0  0  0  0  0  0  0
  -24.5760  -11.7720   20.7780 C   0  0  0  0  0  0  0  0  0  0  0  0
  -26.2260  -13.0130   20.2010 N   0  0  0  0  0  0  0  0  0  0  0  0
  -25.8660  -11.7310   20.4680 N   0  0  0  0  0  0  0  0  0  0  0  0
  -23.8480  -10.5130   20.9740 C   0  0  0  0  0  0  0  0  0  0  0  0
  -24.2760   -9.5510   21.9150 C   0  0  0  0  0  3  0  0  0  0  0  0
  -23.5480   -8.3540   22.0980 C   0  0  0  0  0  3  0  0  0  0  0  0
  -22.3770   -8.1130   21.3420 C   0  0  0  0  0  0  0  0  0  0  0  0
  -21.9680   -9.0640   20.3910 C   0  0  0  0  0  3  0  0  0  0  0  0
  -22.6970  -10.2510   20.2050 C   0  0  0  0  0  3  0  0  0  0  0  0
  -21.6220   -6.9700   21.4330 O   0  0  0  0  0  0  0  0  0  0  0  0
  -21.5600   -6.2390   22.5930 C   0  0  0  0  0  0  0  0  0  0  0  0
  -21.1070   -6.8040   23.8060 C   0  0  0  0  0  3  0  0  0  0  0  0
  -20.9940   -6.0000   24.9580 C   0  0  0  0  0  3  0  0  0  0  0  0
  -21.3220   -4.6320   24.8980 C   0  0  0  0  0  0  0  0  0  0  0  0
  -21.7670   -4.0660   23.6900 C   0  0  0  0  0  3  0  0  0  0  0  0
  -21.8820   -4.8680   22.5400 C   0  0  0  0  0  0  0  0  0  0  0  0
  -22.2920   -4.3140   21.3730 F   0  0  0  0  0  0  0  0  0  0  0  0
  -21.2050   -3.8570   26.0010 F   0  0  0  0  0  0  0  0  0  0  0  0
  -22.7190  -13.6050   21.0780 C   0  0  0  0  0  0  0  0  0  0  0  0
  -21.9920  -12.9140   21.9490 N   0  0  0  0  0  0  0  0  0  0  0  0
  -22.2810  -14.6300   20.5560 O   0  0  0  0  0  0  0  0  0  0  0  0
  -22.3580  -12.0850   22.3930 H   0  0  0  0  0  0  0  0  0  0  0  0
  -21.0560  -13.2180   22.1750 H   0  0  0  0  0  0  0  0  0  0  0  0
  -25.3430  -15.2660   20.2560 N   0  0  0  0  0  0  0  0  0  0  0  0
  -24.5770  -15.9130   20.3970 H   0  0  0  0  0  0  0  0  0  0  0  0
  -26.2090  -15.7380   20.0180 H   0  0  0  0  0  0  0  0  0  0  0  0
  -30.0250  -21.5300   20.3580 O   0  0  0  0  0  0  0  0  0  0  0  0
  -28.8960  -22.4420   20.1650 C   0  0  0  0  0  2  0  0  0  0  0  0
  -29.2560  -23.9960   20.2800 C   0  0  0  0  0  3  0  0  0  0  0  0
  -28.1150  -25.0540   19.9510 C   0  0  0  0  0  3  0  0  0  0  0  0
  -28.3390  -26.5060   20.1590 O   0  0  0  0  0  0  0  0  0  0  0  0
  -24.6140  -31.8650   23.2520 C   0  0  0  0  0  0  0  0  0  0  0  0
  -27.2190  -27.3560   20.1210 C   0  0  0  0  0  0  0  0  0  0  0  0
  -23.4060  -30.4950   21.5920 C   0  0  0  0  0  3  0  0  0  0  0  0
  -24.8530  -28.9680   20.1410 C   0  0  0  0  0  0  0  0  0  0  0  0
  -25.9460  -30.8150   21.4110 C   0  0  0  0  0  2  0  0  0  0  0  0
  -26.0230  -29.4470   20.7430 C   0  0  0  0  0  0  0  0  0  0  0  0
  -27.2090  -28.6530   20.7210 C   0  0  0  0  0  3  0  0  0  0  0  0
  -26.0200  -26.9330   19.4980 C   0  0  0  0  0  3  0  0  0  0  0  0
  -24.8540  -27.7170   19.5100 C   0  0  0  0  0  3  0  0  0  0  0  0
  -23.6170  -29.8420   20.2020 C   0  0  0  0  0  2  0  0  0  0  0  0
  -24.6750  -31.0740   22.1420 N   0  0  0  0  0  0  0  0  0  0  0  0
  -23.5310  -32.1370   23.7920 O   0  0  0  0  0  0  0  0  0  0  0  0
  -22.7430  -29.4640   22.5360 C   0  0  0  0  0  0  0  0  0  0  0  0
  -21.4170  -29.2900   22.4050 N   0  0  0  0  0  0  0  0  0  0  0  0
  -23.4200  -28.8240   23.3450 O   0  0  0  0  0  0  0  0  0  0  0  0
  -20.9300  -29.8560   21.7250 H   0  0  0  0  0  0  0  0  0  0  0  0
  -18.0360  -28.0990   22.8910 C   0  0  0  0  0  0  0  0  0  0  0  0
  -20.5950  -28.3430   23.1610 C   0  0  0  0  0  3  0  0  0  0  0  0
  -20.6890  -26.9200   22.5620 C   0  0  0  0  0  2  0  0  0  0  0  0
  -19.5850  -26.6200   21.5440 C   0  0  0  0  0  2  0  0  0  0  0  0
  -18.2040  -26.7600   22.1930 C   0  0  0  0  0  2  0  0  0  0  0  0
  -19.1580  -28.8490   23.3310 C   0  0  0  0  0  0  0  0  0  0  0  0
  -18.9450  -30.1030   23.9450 C   0  0  0  0  0  3  0  0  0  0  0  0
  -17.6430  -30.6080   24.1200 C   0  0  0  0  0  3  0  0  0  0  0  0
  -16.5350  -29.8550   23.6960 C   0  0  0  0  0  3  0  0  0  0  0  0
  -16.7310  -28.6020   23.0870 C   0  0  0  0  0  3  0  0  0  0  0  0
  -25.8970  -32.4860   23.8840 C   0  0  0  0  0  3  0  0  0  0  0  0
  -26.4020  -31.7040   25.1580 C   0  0  1  0  0  0  0  0  0  0  0  0
  -25.3030  -31.4670   26.2190 C   0  0  0  0  0  1  0  0  0  0  0  0
  -26.9780  -30.3240   24.7620 C   0  0  0  0  0  1  0  0  0  0  0  0
  -27.5540  -32.4870   25.8300 C   0  0  0  0  0  1  0  0  0  0  0  0
  -25.5960  -33.8840   24.2200 N   0  0  0  0  0  0  0  0  0  0  0  0
  -25.9130  -34.9370   23.4560 C   0  0  0  0  0  0  0  0  0  0  0  0
  -26.5620  -34.8340   22.4100 O   0  0  0  0  0  0  0  0  0  0  0  0
  -25.0160  -34.0380   25.0330 H   0  0  0  0  0  0  0  0  0  0  0  0
  -24.1680  -36.7240   23.1540 C   0  0  0  0  0  1  0  0  0  0  0  0
  -25.4370  -36.3260   23.9240 C   0  0  0  0  0  3  0  0  0  0  0  0
  -27.5930  -37.2240   24.6820 C   0  0  0  0  0  1  0  0  0  0  0  0
  -26.4620  -37.3820   23.7720 N   0  0  0  0  0  0  0  0  0  0  0  0
  -26.0580  -38.3010   23.9250 H   0  0  0  0  0  0  0  0  0  0  0  0
  2  1  2  0
  3  5  2  0
  3  6  1  0
  4  1  1  0
  4 16  1  0
  5  2  1  0
  6  4  2  0
  7  6  1  0
  8 16  1  0
  9 14  1  0
 10 11  1  0
 10  9  1  0
 12 11  1  0
 12 21  1  0
 12 13  1  0
 14  8  1  0
 14 13  1  0
 15  8  2  0
 16 17  1  0
 18 19  2  0
 19 38  1  0
 20 19  1  0
 20 23  1  0
 21 18  1  0
 21 22  1  0
 22 20  2  0
 23 24  1  0
 24 25  2  0
 26 29  1  0
 26 25  1  0
 27 26  2  0
 28 27  1  0
 28 23  2  0
 29 30  1  0
 30 31  1  0
 31 32  2  0
 33 32  1  0
 33 37  1  0
 34 33  2  0
 35 30  2  0
 35 34  1  0
 36 35  1  0
 38 39  1  0
 39 42  1  0
 39 41  1  0
 40 38  2  0
 43 44  1  0
 43 18  1  0
 45 43  1  0
 46  5  1  0
 47 48  1  0
 47 46  1  0
 49 50  1  0
 49 48  2  0
 51 62  2  0
 52 50  1  0
 52 57  1  0
 53 61  1  0
 53 63  1  0
 54 60  1  0
 54 56  1  0
 55 61  1  0
 56 55  1  0
 57 56  2  0
 58 59  1  0
 58 52  2  0
 59 54  2  0
 60 53  1  0
 61 51  1  0
 63 65  2  0
 64 63  1  0
 66 64  1  0
 67 76  2  0
 67 72  1  0
 68 64  1  0
 68 72  1  0
 69 68  1  0
 70 71  1  0
 70 69  1  0
 71 67  1  0
 72 73  2  0
 73 74  1  0
 75 74  2  0
 76 75  1  0
 77 51  1  0
 77 82  1  0
 77 78  1  0
 78 81  1  1
 78 79  1  0
 80 78  1  0
 82 85  1  0
 83 87  1  0
 83 82  1  0
 84 83  2  0
 87 86  1  0
 89 87  1  0
 89 90  1  0
 89 88  1  0
M  ISO  4   8 100  16 100  49 101  50 101
M  END
>  <TORSDO>  (8) 
F 20

>  <SCORE>  (8) 
-14.070

>  <name>  (8) 
7

>  <ligand_id>  (8) 
7

>  <original_smiles>  (8) 
[H]c1c([H])c([H])c2c(c1[H])C([H])([H])C([H])([H])C([H])([H])C2([H])N([H])C(=O)C1([H])N(C(=O)C([H])(N([H])C(=O)C([H])(N([H])C([H])([H])[H])C([H])([H])[H])C(C([H])([H])[H])(C([H])([H])[H])C([H])([H])[H])C([H])([H])c2c([H])c(OC([H])([H])C([H])([H])C([H])([H])Oc3c([H])c([H])c(N([H])C(=O)N4C([H])([H])C([H])([H])C([H])([H])C([H])(n5nc(-c6c([H])c([H])c(Oc7c([H])c([H])c(F)c([H])c7F)c([H])c6[H])c(C(=O)N([H])[H])c5N([H])[H])C4([H])[H])c(F)c3[H])c([H])c([H])c2C1([H])[H]

>  <smiles>  (8) 
[H]c1c([H])c([H])c2c(c1[H])C([H])([H])C([H])([H])C([H])([H])C2([H])N([H])C(=O)C1([H])N(C(=O)C([H])(N([H])C(=O)C([H])(N([H])C([H])([H])[H])C([H])([H])[H])C(C([H])([H])[H])(C([H])([H])[H])C([H])([H])[H])C([H])([H])c2c([H])c(OC([H])([H])C([H])([H])C([H])([H])Oc3c([H])c([H])c(N([H])C(=O)N4C([H])([H])C([H])([H])C([H])([H])C([H])(n5nc(-c6c([H])c([H])c(Oc7c([H])c([H])c(F)c([H])c7F)c([H])c6[H])c(C(=O)N([H])[H])c5N([H])[H])C4([H])[H])c(F)c3[H])c([H])c([H])c2C1([H])[H]

$$$$
8:0:0
     RDKit          3D

111119  0  0  1  0  0  0  0  0999 V2000
  -33.2810  -24.5690   14.1190 C   0  0  0  0  0  2  0  0  0  0  0  0
  -34.3440  -23.9820   13.1690 C   0  0  0  0  0  2  0  0  0  0  0  0
  -35.3340  -23.0040   13.8390 C   0  0  0  0  0  2  0  0  0  0  0  0
  -36.7310  -22.9680   13.1830 C   0  0  0  0  0  2  0  0  0  0  0  0
  -36.9400  -23.9630   12.0240 C   0  0  0  0  0  2  0  0  0  0  0  0
  -38.3930  -24.4430   11.8510 C   0  0  0  0  0  2  0  0  0  0  0  0
  -38.8630  -24.3780   10.3900 C   0  0  0  0  0  2  0  0  0  0  0  0
  -37.8640  -23.6440    9.4810 C   0  0  0  0  0  2  0  0  0  0  0  0
  -38.4830  -22.4930    8.6630 C   0  0  0  0  0  2  0  0  0  0  0  0
  -39.4590  -22.9220    7.5510 C   0  0  0  0  0  2  0  0  0  0  0  0
  -38.5320  -24.5050    5.8670 C   0  0  0  0  0  0  0  0  0  0  0  0
  -39.1700  -24.2540    7.0210 N   0  0  0  0  0  0  0  0  0  0  0  0
  -37.9860  -23.6180    5.2060 O   0  0  0  0  0  0  0  0  0  0  0  0
  -39.5740  -25.0430    7.5120 H   0  0  0  0  0  0  0  0  0  0  0  0
  -38.5550  -25.9560    5.3520 C   0  0  0  0  0  2  0  0  0  0  0  0
  -37.2870  -26.6030    5.5460 O   0  0  0  0  0  0  0  0  0  0  0  0
  -31.0700  -25.0890    8.6420 C   0  0  0  0  0  0  0  0  0  0  0  0
  -36.6140  -26.4780    6.7490 C   0  0  0  0  0  0  0  0  0  0  0  0
  -32.8070  -26.0210   10.1370 C   0  0  0  0  0  3  0  0  0  0  0  0
  -35.1550  -26.1550    9.1550 C   0  0  0  0  0  0  0  0  0  0  0  0
  -33.4570  -24.6930    8.0500 C   0  0  0  0  0  2  0  0  0  0  0  0
  -34.7140  -25.5350    7.9800 C   0  0  0  0  0  0  0  0  0  0  0  0
  -35.4350  -25.6980    6.7770 C   0  0  0  0  0  3  0  0  0  0  0  0
  -37.0490  -27.0870    7.9500 C   0  0  0  0  0  3  0  0  0  0  0  0
  -36.3210  -26.9380    9.1430 C   0  0  0  0  0  3  0  0  0  0  0  0
  -34.3330  -25.9290   10.4030 C   0  0  0  0  0  2  0  0  0  0  0  0
  -32.3950  -25.2720    8.9050 N   0  0  0  0  0  0  0  0  0  0  0  0
  -30.2000  -25.4930    9.4270 O   0  0  0  0  0  0  0  0  0  0  0  0
  -32.3970  -27.5110   10.1130 C   0  0  0  0  0  0  0  0  0  0  0  0
  -31.7550  -27.9720   11.1980 N   0  0  0  0  0  0  0  0  0  0  0  0
  -32.6800  -28.2290    9.1500 O   0  0  0  0  0  0  0  0  0  0  0  0
  -31.5490  -27.3180   11.9400 H   0  0  0  0  0  0  0  0  0  0  0  0
  -29.5320  -30.0290   13.1650 C   0  0  0  0  0  0  0  0  0  0  0  0
  -31.3050  -29.3470   11.4130 C   0  0  0  0  0  3  0  0  0  0  0  0
  -32.3150  -30.1340   12.2800 C   0  0  0  0  0  2  0  0  0  0  0  0
  -31.9850  -30.0970   13.7750 C   0  0  0  0  0  2  0  0  0  0  0  0
  -30.5950  -30.6810   14.0330 C   0  0  0  0  0  2  0  0  0  0  0  0
  -29.8680  -29.3890   11.9420 C   0  0  0  0  0  0  0  0  0  0  0  0
  -28.8460  -28.7690   11.1910 C   0  0  0  0  0  3  0  0  0  0  0  0
  -27.5110  -28.7870   11.6380 C   0  0  0  0  0  3  0  0  0  0  0  0
  -27.1820  -29.4350   12.8410 C   0  0  0  0  0  3  0  0  0  0  0  0
  -28.1910  -30.0550   13.6000 C   0  0  0  0  0  3  0  0  0  0  0  0
  -30.5850  -24.3390    7.3620 C   0  0  0  0  0  3  0  0  0  0  0  0
  -30.4060  -25.2900    6.1150 C   0  0  1  0  0  0  0  0  0  0  0  0
  -28.9480  -25.3760    5.6080 C   0  0  0  0  0  1  0  0  0  0  0  0
  -30.8760  -26.7240    6.4500 C   0  0  0  0  0  1  0  0  0  0  0  0
  -31.2880  -24.7950    4.9450 C   0  0  0  0  0  1  0  0  0  0  0  0
  -29.3220  -23.6680    7.6920 N   0  0  0  0  0  0  0  0  0  0  0  0
  -29.2270  -22.4420    8.2240 C   0  0  0  0  0  0  0  0  0  0  0  0
  -30.2070  -21.7190    8.4230 O   0  0  0  0  0  0  0  0  0  0  0  0
  -28.4800  -24.2190    7.6050 H   0  0  0  0  0  0  0  0  0  0  0  0
  -27.6410  -21.9770   10.1200 C   0  0  0  0  0  1  0  0  0  0  0  0
  -27.8190  -21.9390    8.5940 C   0  0  0  0  0  3  0  0  0  0  0  0
  -27.3510  -20.5220    6.6450 C   0  0  0  0  0  1  0  0  0  0  0  0
  -27.5290  -20.5790    8.0930 N   0  0  0  0  0  0  0  0  0  0  0  0
  -26.6920  -20.2060    8.5300 H   0  0  0  0  0  0  0  0  0  0  0  0
  -33.7430  -24.7890   15.5730 C   0  0  0  0  0  2  0  0  0  0  0  0
  -34.8820  -25.8230   15.7220 C   0  0  0  0  0  2  0  0  0  0  0  0
  -35.3910  -26.0430   17.1610 C   0  0  0  0  0  2  0  0  0  0  0  0
  -34.3560  -26.7090   18.0720 C   0  0  0  0  0  0  0  0  0  0  0  0
  -33.8610  -25.9810   19.0790 N   0  0  0  0  0  0  0  0  0  0  0  0
  -34.0060  -27.8700   17.8560 O   0  0  0  0  0  0  0  0  0  0  0  0
  -34.1810  -25.0300   19.1930 H   0  0  0  0  0  0  0  0  0  0  0  0
  -32.8940  -26.5030   20.0420 C   0  0  0  0  0  2  0  0  0  0  0  0
  -28.8640  -24.8580   19.8680 C   0  0  0  0  0  3  0  0  0  0  0  0
  -31.4840  -25.9320   19.9270 C   0  0  0  0  0  0  0  0  0  0  0  0
  -29.9520  -24.0180   20.1820 C   0  0  0  0  0  0  0  0  0  0  0  0
  -29.0770  -26.2240   19.6000 C   0  0  0  0  0  0  0  0  0  0  0  0
  -31.2650  -24.5570   20.1800 C   0  0  0  0  0  0  0  0  0  0  0  0
  -30.3790  -26.7630   19.6370 C   0  0  0  0  0  0  0  0  0  0  0  0
  -28.0240  -27.0260   19.3150 F   0  0  0  0  0  0  0  0  0  0  0  0
  -32.3310  -23.7500   20.4050 F   0  0  0  0  0  0  0  0  0  0  0  0
  -30.5580  -28.0820   19.3820 F   0  0  0  0  0  0  0  0  0  0  0  0
  -29.9180  -22.0810   21.6700 C   0  0  0  0  0  0  0  0  0  0  0  0
  -31.1380  -20.2510   22.7520 C   0  0  0  0  0  2  0  0  0  0  0  0
  -32.6200  -20.3590   22.3390 C   0  0  0  0  0  2  0  0  0  0  0  0
  -32.8730  -19.6060   21.0170 C   0  0  0  0  0  2  0  0  0  0  0  0
  -31.8450  -19.9660   19.9110 C   0  0  0  0  0  3  0  0  0  0  0  0
  -30.4010  -19.9190   20.4610 C   0  0  0  0  0  2  0  0  0  0  0  0
  -30.3300  -20.7870   21.6490 N   0  0  0  0  0  0  0  0  0  0  0  0
  -29.8460  -22.7510   22.7030 O   0  0  0  0  0  0  0  0  0  0  0  0
  -29.7140  -22.6440   20.4680 N   0  0  0  0  0  0  0  0  0  0  0  0
  -29.5840  -22.0230   19.6850 H   0  0  0  0  0  0  0  0  0  0  0  0
  -31.5400  -19.2980   17.4430 C   0  0  0  0  0  0  0  0  0  0  0  0
  -32.0190  -18.2410   16.7160 C   0  0  0  0  0  0  0  0  0  0  0  0
  -32.7770  -17.4450   17.6280 C   0  0  0  0  0  0  0  0  0  0  0  0
  -32.0040  -19.1100   18.7370 N   0  0  0  0  0  0  0  0  0  0  0  0
  -32.7080  -17.9550   18.8510 N   0  0  0  0  0  0  0  0  0  0  0  0
  -33.6130  -16.2590   17.3960 C   0  0  0  0  0  0  0  0  0  0  0  0
  -33.1430  -14.9580   17.6830 C   0  0  0  0  0  3  0  0  0  0  0  0
  -33.9570  -13.8320   17.4350 C   0  0  0  0  0  3  0  0  0  0  0  0
  -35.2530  -13.9970   16.8910 C   0  0  0  0  0  0  0  0  0  0  0  0
  -35.7240  -15.2960   16.6280 C   0  0  0  0  0  3  0  0  0  0  0  0
  -34.9160  -16.4160   16.8810 C   0  0  0  0  0  3  0  0  0  0  0  0
  -36.1220  -12.9630   16.6400 O   0  0  0  0  0  0  0  0  0  0  0  0
  -35.8540  -12.0110   15.6890 C   0  0  0  0  0  0  0  0  0  0  0  0
  -35.7420  -12.3360   14.3190 C   0  0  0  0  0  3  0  0  0  0  0  0
  -35.5350  -11.3160   13.3690 C   0  0  0  0  0  3  0  0  0  0  0  0
  -35.4480   -9.9730   13.7830 C   0  0  0  0  0  0  0  0  0  0  0  0
  -35.5630   -9.6470   15.1460 C   0  0  0  0  0  3  0  0  0  0  0  0
  -35.7690  -10.6640   16.0950 C   0  0  0  0  0  0  0  0  0  0  0  0
  -35.9020  -10.3420   17.4050 F   0  0  0  0  0  0  0  0  0  0  0  0
  -35.2570   -8.9930   12.8700 F   0  0  0  0  0  0  0  0  0  0  0  0
  -31.8680  -18.0300   15.2370 C   0  0  0  0  0  0  0  0  0  0  0  0
  -30.6440  -17.8010   14.7730 N   0  0  0  0  0  0  0  0  0  0  0  0
  -32.8320  -18.1140   14.4780 O   0  0  0  0  0  0  0  0  0  0  0  0
  -29.8480  -17.7540   15.3910 H   0  0  0  0  0  0  0  0  0  0  0  0
  -30.5000  -17.6700   13.7810 H   0  0  0  0  0  0  0  0  0  0  0  0
  -30.7690  -20.4090   17.1130 N   0  0  0  0  0  0  0  0  0  0  0  0
  -30.4770  -20.5990   16.1620 H   0  0  0  0  0  0  0  0  0  0  0  0
  -30.5490  -21.1600   17.7540 H   0  0  0  0  0  0  0  0  0  0  0  0
  1 57  1  0
  2  3  1  0
  2  1  1  0
  4  3  1  0
  5  4  1  0
  6  5  1  0
  7  6  1  0
  8  7  1  0
  9  8  1  0
 10  9  1  0
 11 12  1  0
 12 14  1  0
 12 10  1  0
 13 11  2  0
 15 16  1  0
 15 11  1  0
 16 18  1  0
 17 27  1  0
 17 28  2  0
 18 23  2  0
 18 24  1  0
 19 29  1  0
 19 26  1  0
 20 26  1  0
 21 27  1  0
 22 21  1  0
 22 20  2  0
 23 22  1  0
 24 25  2  0
 25 20  1  0
 27 19  1  0
 29 30  1  0
 30 32  1  0
 31 29  2  0
 33 42  1  0
 33 37  1  0
 34 30  1  0
 34 38  1  0
 34 35  1  0
 35 36  1  0
 36 37  1  0
 38 33  2  0
 39 40  2  0
 39 38  1  0
 40 41  1  0
 41 42  2  0
 43 48  1  0
 43 17  1  0
 44 46  1  1
 44 43  1  0
 45 44  1  0
 47 44  1  0
 48 49  1  0
 49 50  2  0
 49 53  1  0
 51 48  1  0
 53 52  1  0
 54 55  1  0
 55 56  1  0
 55 53  1  0
 57 58  1  0
 58 59  1  0
 59 60  1  0
 60 61  1  0
 61 63  1  0
 61 64  1  0
 62 60  2  0
 65 67  1  0
 66 64  1  0
 66 69  1  0
 67 82  1  0
 68 70  1  0
 68 65  2  0
 69 67  2  0
 69 72  1  0
 70 66  2  0
 71 68  1  0
 73 70  1  0
 74 81  2  0
 76 75  1  0
 77 76  1  0
 78 87  1  0
 78 79  1  0
 78 77  1  0
 79 80  1  0
 80 74  1  0
 80 75  1  0
 82 74  1  0
 83 82  1  0
 84 87  1  0
 85 84  2  0
 85 86  1  0
 86 88  2  0
 87 88  1  0
 89 86  1  0
 89 90  1  0
 91 90  2  0
 92 91  1  0
 93 94  1  0
 93 92  2  0
 94 89  2  0
 95 92  1  0
 96101  1  0
 96 95  1  0
 97 96  2  0
 98 99  2  0
 98 97  1  0
 99100  1  0
100101  2  0
101102  1  0
103 99  1  0
104 85  1  0
105104  1  0
105107  1  0
106104  2  0
108105  1  0
109 84  1  0
109111  1  0
110109  1  0
M  ISO  4  15 101  16 101  74 100  82 100
M  END
>  <TORSDO>  (9) 
F 33

>  <SCORE>  (9) 
-2.831

>  <name>  (9) 
8

>  <ligand_id>  (9) 
8

>  <original_smiles>  (9) 
[H]c1c([H])c([H])c2c(c1[H])C([H])([H])C([H])([H])C([H])([H])C2([H])N([H])C(=O)C1([H])N(C(=O)C([H])(N([H])C(=O)C([H])(N([H])C([H])([H])[H])C([H])([H])[H])C(C([H])([H])[H])(C([H])([H])[H])C([H])([H])[H])C([H])([H])c2c([H])c(OC([H])([H])C(=O)N([H])C([H])([H])C([H])([H])C([H])([H])C([H])([H])C([H])([H])C([H])([H])C([H])([H])C([H])([H])C([H])([H])C([H])([H])C([H])([H])C([H])([H])C([H])([H])C(=O)N([H])C([H])([H])c3c(F)c(F)c([H])c(N([H])C(=O)N4C([H])([H])C([H])([H])C([H])([H])C([H])(n5nc(-c6c([H])c([H])c(Oc7c([H])c([H])c(F)c([H])c7F)c([H])c6[H])c(C(=O)N([H])[H])c5N([H])[H])C4([H])[H])c3F)c([H])c([H])c2C1([H])[H]

>  <smiles>  (9) 
[H]c1c([H])c([H])c2c(c1[H])C([H])([H])C([H])([H])C([H])([H])C2([H])N([H])C(=O)C1([H])N(C(=O)C([H])(N([H])C(=O)C([H])(N([H])C([H])([H])[H])C([H])([H])[H])C(C([H])([H])[H])(C([H])([H])[H])C([H])([H])[H])C([H])([H])c2c([H])c(OC([H])([H])C(=O)N([H])C([H])([H])C([H])([H])C([H])([H])C([H])([H])C([H])([H])C([H])([H])C([H])([H])C([H])([H])C([H])([H])C([H])([H])C([H])([H])C([H])([H])C([H])([H])C(=O)N([H])C([H])([H])c3c(F)c(F)c([H])c(N([H])C(=O)N4C([H])([H])C([H])([H])C([H])([H])C([H])(n5nc(-c6c([H])c([H])c(Oc7c([H])c([H])c(F)c([H])c7F)c([H])c6[H])c(C(=O)N([H])[H])c5N([H])[H])C4([H])[H])c3F)c([H])c([H])c2C1([H])[H]

$$$$
9:0:0
     RDKit          3D

 92100  0  0  1  0  0  0  0  0999 V2000
  -30.6170  -18.0590   18.9590 C   0  0  0  0  0  3  0  0  0  0  0  0
  -30.0740  -20.4960   18.8550 C   0  0  0  0  0  3  0  0  0  0  0  0
  -29.2240  -19.0970   20.6380 C   0  0  0  0  0  3  0  0  0  0  0  0
  -30.7080  -19.3350   18.3370 C   0  0  0  0  0  0  0  0  0  0  0  0
  -29.8540  -17.8250   20.1240 C   0  0  0  0  0  0  0  0  0  0  0  0
  -29.3120  -20.4850   20.0410 C   0  0  0  0  0  0  0  0  0  0  0  0
  -30.4860  -15.1210   20.4250 C   0  0  0  0  0  0  0  0  0  0  0  0
  -30.4270  -12.7060   19.6050 C   0  0  0  0  0  2  0  0  0  0  0  0
  -29.5450  -12.5850   18.3380 C   0  0  0  0  0  2  0  0  0  0  0  0
  -28.0740  -12.3610   18.7260 C   0  0  0  0  0  2  0  0  0  0  0  0
  -27.6110  -13.3330   19.8440 C   0  0  0  0  0  3  0  0  0  0  0  0
  -28.6220  -13.4220   21.0080 C   0  0  0  0  0  2  0  0  0  0  0  0
  -29.9080  -13.8410   20.4330 N   0  0  0  0  0  0  0  0  0  0  0  0
  -31.6930  -15.1530   20.1430 O   0  0  0  0  0  0  0  0  0  0  0  0
  -29.7250  -16.3380   20.6060 N   0  0  0  0  0  0  0  0  0  0  0  0
  -28.8370  -16.1480   21.0470 H   0  0  0  0  0  0  0  0  0  0  0  0
  -25.2080  -13.9180   20.4860 C   0  0  0  0  0  0  0  0  0  0  0  0
  -24.1330  -13.1510   20.8350 C   0  0  0  0  0  0  0  0  0  0  0  0
  -24.5970  -11.8000   20.8520 C   0  0  0  0  0  0  0  0  0  0  0  0
  -26.2600  -13.0370   20.3040 N   0  0  0  0  0  0  0  0  0  0  0  0
  -25.8990  -11.7580   20.5910 N   0  0  0  0  0  0  0  0  0  0  0  0
  -23.8620  -10.5420   21.0420 C   0  0  0  0  0  0  0  0  0  0  0  0
  -24.2740   -9.5800   21.9900 C   0  0  0  0  0  3  0  0  0  0  0  0
  -23.5370   -8.3890   22.1690 C   0  0  0  0  0  3  0  0  0  0  0  0
  -22.3750   -8.1520   21.3980 C   0  0  0  0  0  0  0  0  0  0  0  0
  -21.9810   -9.1020   20.4400 C   0  0  0  0  0  3  0  0  0  0  0  0
  -22.7190  -10.2840   20.2600 C   0  0  0  0  0  3  0  0  0  0  0  0
  -21.6100   -7.0130   21.4860 O   0  0  0  0  0  0  0  0  0  0  0  0
  -21.5600   -6.2670   22.6360 C   0  0  0  0  0  0  0  0  0  0  0  0
  -21.1640   -6.8270   23.8700 C   0  0  0  0  0  3  0  0  0  0  0  0
  -21.0590   -6.0090   25.0130 C   0  0  0  0  0  3  0  0  0  0  0  0
  -21.3380   -4.6320   24.9250 C   0  0  0  0  0  0  0  0  0  0  0  0
  -21.7250   -4.0710   23.6940 C   0  0  0  0  0  3  0  0  0  0  0  0
  -21.8320   -4.8860   22.5530 C   0  0  0  0  0  0  0  0  0  0  0  0
  -22.1860   -4.3350   21.3660 F   0  0  0  0  0  0  0  0  0  0  0  0
  -21.2280   -3.8450   26.0200 F   0  0  0  0  0  0  0  0  0  0  0  0
  -22.7280  -13.6340   21.0420 C   0  0  0  0  0  0  0  0  0  0  0  0
  -21.9680  -12.9610   21.8990 N   0  0  0  0  0  0  0  0  0  0  0  0
  -22.3120  -14.6470   20.4810 O   0  0  0  0  0  0  0  0  0  0  0  0
  -22.3170  -12.1420   22.3740 H   0  0  0  0  0  0  0  0  0  0  0  0
  -21.0240  -13.2710   22.0840 H   0  0  0  0  0  0  0  0  0  0  0  0
  -25.3770  -15.2840   20.2770 N   0  0  0  0  0  0  0  0  0  0  0  0
  -24.5950  -15.9300   20.3010 H   0  0  0  0  0  0  0  0  0  0  0  0
  -26.2260  -15.7070   19.9240 H   0  0  0  0  0  0  0  0  0  0  0  0
  -28.4410  -21.7650   21.9440 C   0  0  0  0  0  1  0  0  0  0  0  0
  -28.8160  -21.8300   20.5360 N   0  0  0  0  0  0  0  0  0  0  0  0
  -28.1320  -23.0780   19.8140 C   0  0  0  0  0  2  0  0  0  0  0  0
  -28.6210  -24.7250   19.6370 C   0  0  0  0  0  2  0  0  0  0  0  0
  -28.3180  -26.1660   20.2220 O   0  0  0  0  0  0  0  0  0  0  0  0
  -24.6590  -31.8660   23.1100 C   0  0  0  0  0  0  0  0  0  0  0  0
  -27.2490  -27.1330   20.0500 C   0  0  0  0  0  0  0  0  0  0  0  0
  -23.4570  -30.4560   21.4800 C   0  0  0  0  0  3  0  0  0  0  0  0
  -24.9060  -28.8830   20.0300 C   0  0  0  0  0  0  0  0  0  0  0  0
  -26.0040  -30.7310   21.2960 C   0  0  0  0  0  2  0  0  0  0  0  0
  -26.0820  -29.3340   20.6400 C   0  0  0  0  0  0  0  0  0  0  0  0
  -27.2430  -28.4700   20.6380 C   0  0  0  0  0  3  0  0  0  0  0  0
  -26.0540  -26.7950   19.3810 C   0  0  0  0  0  3  0  0  0  0  0  0
  -24.9090  -27.6330   19.3820 C   0  0  0  0  0  3  0  0  0  0  0  0
  -23.6690  -29.7700   20.1000 C   0  0  0  0  0  2  0  0  0  0  0  0
  -24.7270  -31.0420   22.0180 N   0  0  0  0  0  0  0  0  0  0  0  0
  -23.5760  -32.1430   23.6480 O   0  0  0  0  0  0  0  0  0  0  0  0
  -22.7930  -29.4520   22.4570 C   0  0  0  0  0  0  0  0  0  0  0  0
  -21.4610  -29.2890   22.3610 N   0  0  0  0  0  0  0  0  0  0  0  0
  -23.4800  -28.8220   23.2650 O   0  0  0  0  0  0  0  0  0  0  0  0
  -20.9630  -29.8510   21.6840 H   0  0  0  0  0  0  0  0  0  0  0  0
  -18.0890  -28.0890   22.9270 C   0  0  0  0  0  0  0  0  0  0  0  0
  -20.6520  -28.3490   23.1420 C   0  0  0  0  0  3  0  0  0  0  0  0
  -20.7400  -26.9200   22.5580 C   0  0  0  0  0  2  0  0  0  0  0  0
  -19.6170  -26.6040   21.5650 C   0  0  0  0  0  2  0  0  0  0  0  0
  -18.2490  -26.7460   22.2370 C   0  0  0  0  0  2  0  0  0  0  0  0
  -19.2160  -28.8480   23.3390 C   0  0  0  0  0  0  0  0  0  0  0  0
  -19.0100  -30.1050   23.9490 C   0  0  0  0  0  3  0  0  0  0  0  0
  -17.7090  -30.6050   24.1470 C   0  0  0  0  0  3  0  0  0  0  0  0
  -16.5950  -29.8420   23.7510 C   0  0  0  0  0  3  0  0  0  0  0  0
  -16.7860  -28.5850   23.1480 C   0  0  0  0  0  3  0  0  0  0  0  0
  -25.9380  -32.5150   23.7270 C   0  0  0  0  0  3  0  0  0  0  0  0
  -25.6030  -33.8990   24.0990 N   0  0  0  0  0  0  0  0  0  0  0  0
  -25.9060  -34.9830   23.3730 C   0  0  0  0  0  0  0  0  0  0  0  0
  -26.5590  -34.9220   22.3270 O   0  0  0  0  0  0  0  0  0  0  0  0
  -25.0140  -34.0180   24.9100 H   0  0  0  0  0  0  0  0  0  0  0  0
  -24.1390  -36.7610   23.1180 C   0  0  0  0  0  1  0  0  0  0  0  0
  -25.4060  -36.3490   23.8850 C   0  0  0  0  0  3  0  0  0  0  0  0
  -27.5490  -37.2470   24.6840 C   0  0  0  0  0  1  0  0  0  0  0  0
  -26.4180  -37.4240   23.7770 N   0  0  0  0  0  0  0  0  0  0  0  0
  -26.0000  -38.3300   23.9700 H   0  0  0  0  0  0  0  0  0  0  0  0
  -26.4890  -31.7300   24.9810 C   0  0  1  0  0  0  0  0  0  0  0  0
  -25.4200  -31.4640   26.0680 C   0  0  0  0  0  1  0  0  0  0  0  0
  -27.0810  -30.3650   24.5640 C   0  0  0  0  0  1  0  0  0  0  0  0
  -27.6410  -32.5300   25.6340 C   0  0  0  0  0  1  0  0  0  0  0  0
  -31.5190  -19.4650   17.0620 C   0  0  0  0  0  2  0  0  0  0  0  0
  -32.8270  -19.9450   17.3020 O   0  0  0  0  0  0  0  0  0  0  0  0
  -32.7590  -20.8450   17.6050 H   0  0  0  0  0  0  0  0  0  0  0  0
  1  5  1  0
  2  6  2  0
  4  2  1  0
  4  1  2  0
  5 15  1  0
  5  3  2  0
  6 46  1  0
  6  3  1  0
  7 13  1  0
  7 15  1  0
  8 13  1  0
  9 10  1  0
  9  8  1  0
 11 10  1  0
 11 20  1  0
 11 12  1  0
 13 12  1  0
 14  7  2  0
 15 16  1  0
 17 18  2  0
 18 19  1  0
 18 37  1  0
 19 22  1  0
 20 17  1  0
 20 21  1  0
 21 19  2  0
 22 23  1  0
 23 24  2  0
 25 28  1  0
 25 24  1  0
 26 25  2  0
 27 26  1  0
 27 22  2  0
 28 29  1  0
 29 30  1  0
 30 31  2  0
 32 31  1  0
 32 36  1  0
 33 32  2  0
 34 29  2  0
 34 33  1  0
 35 34  1  0
 37 38  1  0
 38 41  1  0
 38 40  1  0
 39 37  2  0
 42 43  1  0
 42 17  1  0
 44 42  1  0
 46 45  1  0
 47 46  1  0
 48 47  1  0
 48 49  1  0
 50 61  2  0
 51 49  1  0
 51 56  1  0
 52 60  1  0
 52 62  1  0
 53 59  1  0
 53 55  1  0
 54 60  1  0
 55 54  1  0
 56 55  2  0
 57 58  1  0
 57 51  2  0
 58 53  2  0
 59 52  1  0
 60 50  1  0
 62 64  2  0
 63 62  1  0
 65 63  1  0
 66 75  2  0
 66 71  1  0
 67 63  1  0
 67 71  1  0
 68 67  1  0
 69 70  1  0
 69 68  1  0
 70 66  1  0
 71 72  2  0
 72 73  1  0
 74 73  2  0
 75 74  1  0
 76 50  1  0
 76 77  1  0
 76 86  1  0
 77 80  1  0
 78 82  1  0
 78 77  1  0
 79 78  2  0
 82 81  1  0
 84 82  1  0
 84 85  1  0
 84 83  1  0
 86 89  1  1
 86 87  1  0
 88 86  1  0
 90 91  1  0
 90  4  1  0
 91 92  1  0
M  ISO  4   7 100  15 100  48 101  49 101
M  END
>  <TORSDO>  (10) 
F 21

>  <SCORE>  (10) 
-14.231

>  <name>  (10) 
9

>  <ligand_id>  (10) 
9

>  <original_smiles>  (10) 
[H]OC([H])([H])c1c([H])c(N([H])C(=O)N2C([H])([H])C([H])([H])C([H])([H])C([H])(n3nc(-c4c([H])c([H])c(Oc5c([H])c([H])c(F)c([H])c5F)c([H])c4[H])c(C(=O)N([H])[H])c3N([H])[H])C2([H])[H])c([H])c(N(C([H])([H])[H])C([H])([H])C([H])([H])Oc2c([H])c([H])c3c(c2[H])C([H])([H])N(C(=O)C([H])(N([H])C(=O)C([H])(N([H])C([H])([H])[H])C([H])([H])[H])C(C([H])([H])[H])(C([H])([H])[H])C([H])([H])[H])C([H])(C(=O)N([H])C2([H])c4c([H])c([H])c([H])c([H])c4C([H])([H])C([H])([H])C2([H])[H])C3([H])[H])c1[H]

>  <smiles>  (10) 
[H]OC([H])([H])c1c([H])c(N([H])C(=O)N2C([H])([H])C([H])([H])C([H])([H])C([H])(n3nc(-c4c([H])c([H])c(Oc5c([H])c([H])c(F)c([H])c5F)c([H])c4[H])c(C(=O)N([H])[H])c3N([H])[H])C2([H])[H])c([H])c(N(C([H])([H])[H])C([H])([H])C([H])([H])Oc2c([H])c([H])c3c(c2[H])C([H])([H])N(C(=O)C([H])(N([H])C(=O)C([H])(N([H])C([H])([H])[H])C([H])([H])[H])C(C([H])([H])[H])(C([H])([H])[H])C([H])([H])[H])C([H])(C(=O)N([H])C2([H])c4c([H])c([H])c([H])c([H])c4C([H])([H])C([H])([H])C2([H])[H])C3([H])[H])c1[H]

$$$$
10:0:0
     RDKit          3D

 92100  0  0  1  0  0  0  0  0999 V2000
  -28.9620  -22.4390   19.9480 C   0  0  0  0  0  0  0  0  0  0  0  0
  -29.9360  -21.5130   20.2130 N   0  0  0  0  0  0  0  0  0  0  0  0
  -27.8700  -22.1060   19.4820 O   0  0  0  0  0  0  0  0  0  0  0  0
  -30.8260  -21.9120   20.4800 H   0  0  0  0  0  0  0  0  0  0  0  0
  -31.1140  -19.3020   20.1680 C   0  0  0  0  0  3  0  0  0  0  0  0
  -31.1340  -17.8770   20.2510 C   0  0  0  0  0  3  0  0  0  0  0  0
  -28.7170  -19.2930   20.3080 C   0  0  0  0  0  3  0  0  0  0  0  0
  -28.7280  -17.8730   20.4450 C   0  0  0  0  0  0  0  0  0  0  0  0
  -29.9060  -20.0500   20.1850 C   0  0  0  0  0  0  0  0  0  0  0  0
  -29.9410  -17.1170   20.3990 C   0  0  0  0  0  0  0  0  0  0  0  0
  -27.3820  -17.2090   20.7010 C   0  0  0  0  0  1  0  0  0  0  0  0
  -30.6350  -14.6380   19.9750 C   0  0  0  0  0  0  0  0  0  0  0  0
  -30.3190  -12.4500   18.8350 C   0  0  0  0  0  2  0  0  0  0  0  0
  -29.2960  -12.6570   17.6950 C   0  0  0  0  0  2  0  0  0  0  0  0
  -27.8500  -12.5100   18.2140 C   0  0  0  0  0  2  0  0  0  0  0  0
  -27.5970  -13.3160   19.5160 C   0  0  0  0  0  3  0  0  0  0  0  0
  -28.7250  -13.0740   20.5440 C   0  0  0  0  0  2  0  0  0  0  0  0
  -30.0020  -13.4230   19.8990 N   0  0  0  0  0  0  0  0  0  0  0  0
  -31.7540  -14.8090   19.4780 O   0  0  0  0  0  0  0  0  0  0  0  0
  -29.8910  -15.6570   20.5070 N   0  0  0  0  0  0  0  0  0  0  0  0
  -29.0520  -15.3140   20.9450 H   0  0  0  0  0  0  0  0  0  0  0  0
  -25.2590  -13.9250   20.4010 C   0  0  0  0  0  0  0  0  0  0  0  0
  -24.2110  -13.1560   20.8320 C   0  0  0  0  0  0  0  0  0  0  0  0
  -24.6510  -11.8000   20.7330 C   0  0  0  0  0  0  0  0  0  0  0  0
  -26.2760  -13.0400   20.0790 N   0  0  0  0  0  0  0  0  0  0  0  0
  -25.9180  -11.7540   20.3330 N   0  0  0  0  0  0  0  0  0  0  0  0
  -23.9190  -10.5430   20.9370 C   0  0  0  0  0  0  0  0  0  0  0  0
  -24.3490   -9.5850   21.8830 C   0  0  0  0  0  3  0  0  0  0  0  0
  -23.6190   -8.3920   22.0720 C   0  0  0  0  0  3  0  0  0  0  0  0
  -22.4470   -8.1500   21.3190 C   0  0  0  0  0  0  0  0  0  0  0  0
  -22.0360   -9.0980   20.3640 C   0  0  0  0  0  3  0  0  0  0  0  0
  -22.7660  -10.2820   20.1720 C   0  0  0  0  0  3  0  0  0  0  0  0
  -21.6880   -7.0090   21.4180 O   0  0  0  0  0  0  0  0  0  0  0  0
  -21.5640   -6.3280   22.6030 C   0  0  0  0  0  0  0  0  0  0  0  0
  -21.0500   -6.9410   23.7640 C   0  0  0  0  0  3  0  0  0  0  0  0
  -20.8740   -6.1840   24.9400 C   0  0  0  0  0  3  0  0  0  0  0  0
  -21.2070   -4.8160   24.9540 C   0  0  0  0  0  0  0  0  0  0  0  0
  -21.7140   -4.2020   23.7960 C   0  0  0  0  0  3  0  0  0  0  0  0
  -21.8900   -4.9570   22.6230 C   0  0  0  0  0  0  0  0  0  0  0  0
  -22.3610   -4.3570   21.5040 F   0  0  0  0  0  0  0  0  0  0  0  0
  -21.0330   -4.0870   26.0810 F   0  0  0  0  0  0  0  0  0  0  0  0
  -22.8430  -13.6440   21.2160 C   0  0  0  0  0  0  0  0  0  0  0  0
  -22.1730  -12.9440   22.1230 N   0  0  0  0  0  0  0  0  0  0  0  0
  -22.3810  -14.6830   20.7440 O   0  0  0  0  0  0  0  0  0  0  0  0
  -22.5610  -12.1040   22.5280 H   0  0  0  0  0  0  0  0  0  0  0  0
  -21.2580  -13.2540   22.4220 H   0  0  0  0  0  0  0  0  0  0  0  0
  -25.4200  -15.2950   20.2350 N   0  0  0  0  0  0  0  0  0  0  0  0
  -24.6440  -15.9340   20.3670 H   0  0  0  0  0  0  0  0  0  0  0  0
  -26.2160  -15.7250   19.7810 H   0  0  0  0  0  0  0  0  0  0  0  0
  -29.2480  -23.9750   20.2170 C   0  0  0  0  0  3  0  0  0  0  0  0
  -28.1290  -25.0190   19.7810 C   0  0  0  0  0  3  0  0  0  0  0  0
  -28.2980  -26.4640   20.0660 O   0  0  0  0  0  0  0  0  0  0  0  0
  -24.3990  -31.6840   23.1620 C   0  0  0  0  0  0  0  0  0  0  0  0
  -27.1550  -27.2810   20.0160 C   0  0  0  0  0  0  0  0  0  0  0  0
  -23.2440  -30.2960   21.4820 C   0  0  0  0  0  3  0  0  0  0  0  0
  -24.7430  -28.8230   20.0280 C   0  0  0  0  0  0  0  0  0  0  0  0
  -25.7730  -30.6890   21.3210 C   0  0  0  0  0  2  0  0  0  0  0  0
  -25.8950  -29.3290   20.6450 C   0  0  0  0  0  0  0  0  0  0  0  0
  -27.1030  -28.5700   20.6310 C   0  0  0  0  0  3  0  0  0  0  0  0
  -25.9770  -26.8310   19.3700 C   0  0  0  0  0  3  0  0  0  0  0  0
  -24.7880  -27.5810   19.3820 C   0  0  0  0  0  3  0  0  0  0  0  0
  -23.4830  -29.6600   20.0880 C   0  0  0  0  0  2  0  0  0  0  0  0
  -24.4910  -30.9060   22.0460 N   0  0  0  0  0  0  0  0  0  0  0  0
  -23.3050  -31.9190   23.6960 O   0  0  0  0  0  0  0  0  0  0  0  0
  -22.6040  -29.2380   22.4120 C   0  0  0  0  0  0  0  0  0  0  0  0
  -21.2870  -29.0180   22.2610 N   0  0  0  0  0  0  0  0  0  0  0  0
  -23.2910  -28.6180   23.2280 O   0  0  0  0  0  0  0  0  0  0  0  0
  -20.7890  -29.5700   21.5770 H   0  0  0  0  0  0  0  0  0  0  0  0
  -17.9400  -27.7220   22.7080 C   0  0  0  0  0  0  0  0  0  0  0  0
  -20.4880  -28.0410   23.0040 C   0  0  0  0  0  3  0  0  0  0  0  0
  -20.6320  -26.6270   22.3950 C   0  0  0  0  0  2  0  0  0  0  0  0
  -19.5450  -26.3030   21.3640 C   0  0  0  0  0  2  0  0  0  0  0  0
  -18.1560  -26.3950   22.0010 C   0  0  0  0  0  2  0  0  0  0  0  0
  -19.0340  -28.5020   23.1650 C   0  0  0  0  0  0  0  0  0  0  0  0
  -18.7780  -29.7440   23.7850 C   0  0  0  0  0  3  0  0  0  0  0  0
  -17.4590  -30.2070   23.9530 C   0  0  0  0  0  3  0  0  0  0  0  0
  -16.3780  -29.4240   23.5120 C   0  0  0  0  0  3  0  0  0  0  0  0
  -16.6210  -28.1840   22.8950 C   0  0  0  0  0  3  0  0  0  0  0  0
  -25.6600  -32.3330   23.8120 C   0  0  0  0  0  3  0  0  0  0  0  0
  -26.1710  -31.5570   25.0880 C   0  0  1  0  0  0  0  0  0  0  0  0
  -25.0640  -31.2850   26.1340 C   0  0  0  0  0  1  0  0  0  0  0  0
  -26.7920  -30.2000   24.6890 C   0  0  0  0  0  1  0  0  0  0  0  0
  -27.2950  -32.3670   25.7770 C   0  0  0  0  0  1  0  0  0  0  0  0
  -25.3210  -33.7220   24.1530 N   0  0  0  0  0  0  0  0  0  0  0  0
  -25.6240  -34.7860   23.3980 C   0  0  0  0  0  0  0  0  0  0  0  0
  -26.2910  -34.7030   22.3630 O   0  0  0  0  0  0  0  0  0  0  0  0
  -24.7250  -33.8570   24.9570 H   0  0  0  0  0  0  0  0  0  0  0  0
  -23.8380  -36.5280   23.0770 C   0  0  0  0  0  1  0  0  0  0  0  0
  -25.1060  -36.1600   23.8650 C   0  0  0  0  0  3  0  0  0  0  0  0
  -27.2270  -37.1130   24.6570 C   0  0  0  0  0  1  0  0  0  0  0  0
  -26.1050  -37.2440   23.7300 N   0  0  0  0  0  0  0  0  0  0  0  0
  -25.6740  -38.1520   23.8780 H   0  0  0  0  0  0  0  0  0  0  0  0
  1  2  1  0
  1 50  1  0
  2  4  1  0
  3  1  2  0
  5  9  2  0
  5  6  1  0
  6 10  2  0
  7  8  2  0
  8 11  1  0
  9  2  1  0
  9  7  1  0
 10  8  1  0
 10 20  1  0
 12 20  1  0
 13 18  1  0
 14 15  1  0
 14 13  1  0
 16 15  1  0
 16 25  1  0
 16 17  1  0
 18 12  1  0
 18 17  1  0
 19 12  2  0
 20 21  1  0
 22 23  2  0
 23 42  1  0
 24 23  1  0
 24 27  1  0
 25 26  1  0
 25 22  1  0
 26 24  2  0
 27 28  1  0
 28 29  2  0
 30 33  1  0
 30 29  1  0
 31 30  2  0
 32 31  1  0
 32 27  2  0
 33 34  1  0
 34 39  2  0
 34 35  1  0
 35 36  2  0
 36 37  1  0
 37 41  1  0
 38 37  2  0
 39 38  1  0
 40 39  1  0
 42 43  1  0
 43 46  1  0
 43 45  1  0
 44 42  2  0
 47 48  1  0
 47 22  1  0
 49 47  1  0
 51 52  1  0
 51 50  2  0
 53 64  2  0
 54 52  1  0
 54 59  1  0
 55 63  1  0
 55 65  1  0
 56 62  1  0
 56 58  1  0
 57 63  1  0
 58 57  1  0
 59 58  2  0
 60 61  1  0
 60 54  2  0
 61 56  2  0
 62 55  1  0
 63 53  1  0
 65 67  2  0
 66 65  1  0
 68 66  1  0
 69 78  2  0
 69 74  1  0
 70 66  1  0
 70 74  1  0
 71 70  1  0
 72 73  1  0
 72 71  1  0
 73 69  1  0
 74 75  2  0
 75 76  1  0
 77 76  2  0
 78 77  1  0
 79 53  1  0
 79 84  1  0
 79 80  1  0
 80 83  1  1
 80 81  1  0
 82 80  1  0
 84 87  1  0
 85 89  1  0
 85 84  1  0
 86 85  2  0
 89 88  1  0
 91 89  1  0
 91 92  1  0
 91 90  1  0
M  ISO  4  12 100  20 100  51 101  52 101
M  END
>  <TORSDO>  (11) 
F 19

>  <SCORE>  (11) 
-13.495

>  <name>  (11) 
10

>  <ligand_id>  (11) 
10

>  <original_smiles>  (11) 
[H]c1c([H])c([H])c2c(c1[H])C([H])([H])C([H])([H])C([H])([H])C2([H])N([H])C(=O)C1([H])N(C(=O)C([H])(N([H])C(=O)C([H])(N([H])C([H])([H])[H])C([H])([H])[H])C(C([H])([H])[H])(C([H])([H])[H])C([H])([H])[H])C([H])([H])c2c([H])c(OC([H])([H])C([H])([H])C(=O)N([H])c3c([H])c([H])c(N([H])C(=O)N4C([H])([H])C([H])([H])C([H])([H])C([H])(n5nc(-c6c([H])c([H])c(Oc7c([H])c([H])c(F)c([H])c7F)c([H])c6[H])c(C(=O)N([H])[H])c5N([H])[H])C4([H])[H])c(C([H])([H])[H])c3[H])c([H])c([H])c2C1([H])[H]

>  <smiles>  (11) 
[H]c1c([H])c([H])c2c(c1[H])C([H])([H])C([H])([H])C([H])([H])C2([H])N([H])C(=O)C1([H])N(C(=O)C([H])(N([H])C(=O)C([H])(N([H])C([H])([H])[H])C([H])([H])[H])C(C([H])([H])[H])(C([H])([H])[H])C([H])([H])[H])C([H])([H])c2c([H])c(OC([H])([H])C([H])([H])C(=O)N([H])c3c([H])c([H])c(N([H])C(=O)N4C([H])([H])C([H])([H])C([H])([H])C([H])(n5nc(-c6c([H])c([H])c(Oc7c([H])c([H])c(F)c([H])c7F)c([H])c6[H])c(C(=O)N([H])[H])c5N([H])[H])C4([H])[H])c(C([H])([H])[H])c3[H])c([H])c([H])c2C1([H])[H]

$$$$
11:0:0
     RDKit          3D

 93102  0  0  1  0  0  0  0  0999 V2000
  -28.2060  -23.9840   19.1140 C   0  0  0  0  0  2  0  0  0  0  0  0
  -29.3510  -24.3310   21.2110 C   0  0  0  0  0  2  0  0  0  0  0  0
  -28.1010  -22.4240   19.4360 C   0  0  0  0  0  2  0  0  0  0  0  0
  -29.2930  -22.7670   21.5190 C   0  0  0  0  0  2  0  0  0  0  0  0
  -28.1910  -24.9490   20.3510 C   0  0  0  0  0  3  0  0  0  0  0  0
  -29.1370  -21.8690   20.3470 N   0  0  0  0  0  0  0  0  0  0  0  0
  -30.3820  -19.8330   21.2850 C   0  0  0  0  0  3  0  0  0  0  0  0
  -30.5960  -18.4130   21.4280 C   0  0  0  0  0  3  0  0  0  0  0  0
  -28.5460  -19.4250   19.8330 C   0  0  0  0  0  3  0  0  0  0  0  0
  -29.3440  -20.4160   20.4880 C   0  0  0  0  0  0  0  0  0  0  0  0
  -29.7730  -17.4410   20.7880 C   0  0  0  0  0  0  0  0  0  0  0  0
  -28.7340  -17.9940   19.9790 C   0  0  0  0  0  0  0  0  0  0  0  0
  -30.7050  -14.9340   20.9590 C   0  0  0  0  0  0  0  0  0  0  0  0
  -30.7340  -12.5980   20.0480 C   0  0  0  0  0  2  0  0  0  0  0  0
  -29.9010  -12.5760   18.7450 C   0  0  0  0  0  2  0  0  0  0  0  0
  -28.4030  -12.3660   19.0460 C   0  0  0  0  0  2  0  0  0  0  0  0
  -27.8900  -13.2910   20.1810 C   0  0  0  0  0  3  0  0  0  0  0  0
  -28.8430  -13.2670   21.3970 C   0  0  0  0  0  2  0  0  0  0  0  0
  -30.1750  -13.6620   20.9130 N   0  0  0  0  0  0  0  0  0  0  0  0
  -31.9100  -15.1110   20.7520 O   0  0  0  0  0  0  0  0  0  0  0  0
  -29.7850  -15.9710   21.0430 N   0  0  0  0  0  0  0  0  0  0  0  0
  -28.8520  -15.5910   21.0810 H   0  0  0  0  0  0  0  0  0  0  0  0
  -25.4380  -13.8530   20.6800 C   0  0  0  0  0  0  0  0  0  0  0  0
  -24.3570  -13.0640   20.9700 C   0  0  0  0  0  0  0  0  0  0  0  0
  -24.8440  -11.7230   21.0070 C   0  0  0  0  0  0  0  0  0  0  0  0
  -26.5130  -12.9880   20.5550 N   0  0  0  0  0  0  0  0  0  0  0  0
  -26.1580  -11.7040   20.8140 N   0  0  0  0  0  0  0  0  0  0  0  0
  -24.1260  -10.4510   21.1540 C   0  0  0  0  0  0  0  0  0  0  0  0
  -24.4910   -9.5070   22.1390 C   0  0  0  0  0  3  0  0  0  0  0  0
  -23.7730   -8.2990   22.2730 C   0  0  0  0  0  3  0  0  0  0  0  0
  -22.6750   -8.0270   21.4240 C   0  0  0  0  0  0  0  0  0  0  0  0
  -22.3300   -8.9600   20.4310 C   0  0  0  0  0  3  0  0  0  0  0  0
  -23.0490  -10.1590   20.2940 C   0  0  0  0  0  3  0  0  0  0  0  0
  -21.9350   -6.8700   21.4660 O   0  0  0  0  0  0  0  0  0  0  0  0
  -21.7870   -6.1520   22.6260 C   0  0  0  0  0  0  0  0  0  0  0  0
  -21.2420   -6.7280   23.7950 C   0  0  0  0  0  3  0  0  0  0  0  0
  -21.0420   -5.9360   24.9430 C   0  0  0  0  0  3  0  0  0  0  0  0
  -21.3790   -4.5690   24.9230 C   0  0  0  0  0  0  0  0  0  0  0  0
  -21.9150   -3.9930   23.7590 C   0  0  0  0  0  3  0  0  0  0  0  0
  -22.1160   -4.7820   22.6120 C   0  0  0  0  0  0  0  0  0  0  0  0
  -22.6150   -4.2160   21.4870 F   0  0  0  0  0  0  0  0  0  0  0  0
  -21.1810   -3.8060   26.0230 F   0  0  0  0  0  0  0  0  0  0  0  0
  -22.9320  -13.5190   21.1040 C   0  0  0  0  0  0  0  0  0  0  0  0
  -22.1460  -12.8320   21.9250 N   0  0  0  0  0  0  0  0  0  0  0  0
  -22.5230  -14.5190   20.5190 O   0  0  0  0  0  0  0  0  0  0  0  0
  -22.4870  -12.0230   22.4220 H   0  0  0  0  0  0  0  0  0  0  0  0
  -21.1870  -13.1200   22.0580 H   0  0  0  0  0  0  0  0  0  0  0  0
  -25.5910  -15.2230   20.4870 N   0  0  0  0  0  0  0  0  0  0  0  0
  -24.7950  -15.8510   20.5030 H   0  0  0  0  0  0  0  0  0  0  0  0
  -26.4430  -15.6730   20.1740 H   0  0  0  0  0  0  0  0  0  0  0  0
  -26.9620  -17.5110   18.4100 C   0  0  0  0  0  1  0  0  0  0  0  0
  -27.9190  -17.0620   19.3640 O   0  0  0  0  0  0  0  0  0  0  0  0
  -28.3250  -26.4490   20.1290 O   0  0  0  0  0  0  0  0  0  0  0  0
  -24.6340  -31.9210   23.2270 C   0  0  0  0  0  0  0  0  0  0  0  0
  -27.2060  -27.3210   20.1230 C   0  0  0  0  0  0  0  0  0  0  0  0
  -23.4120  -30.5290   21.5960 C   0  0  0  0  0  3  0  0  0  0  0  0
  -24.8460  -28.9750   20.1460 C   0  0  0  0  0  0  0  0  0  0  0  0
  -25.9550  -30.8360   21.3850 C   0  0  0  0  0  2  0  0  0  0  0  0
  -26.0270  -29.4540   20.7260 C   0  0  0  0  0  0  0  0  0  0  0  0
  -27.2110  -28.6440   20.6920 C   0  0  0  0  0  3  0  0  0  0  0  0
  -25.9960  -26.9060   19.5310 C   0  0  0  0  0  3  0  0  0  0  0  0
  -24.8370  -27.7090   19.5350 C   0  0  0  0  0  3  0  0  0  0  0  0
  -23.6120  -29.8550   20.2120 C   0  0  0  0  0  2  0  0  0  0  0  0
  -24.6870  -31.1130   22.1250 N   0  0  0  0  0  0  0  0  0  0  0  0
  -23.5560  -32.1950   23.7760 O   0  0  0  0  0  0  0  0  0  0  0  0
  -22.7560  -29.5130   22.5620 C   0  0  0  0  0  0  0  0  0  0  0  0
  -21.4300  -29.3290   22.4440 N   0  0  0  0  0  0  0  0  0  0  0  0
  -23.4420  -28.8900   23.3780 O   0  0  0  0  0  0  0  0  0  0  0  0
  -20.9340  -29.8820   21.7590 H   0  0  0  0  0  0  0  0  0  0  0  0
  -18.0630  -28.1000   22.9560 C   0  0  0  0  0  0  0  0  0  0  0  0
  -20.6210  -28.3880   23.2200 C   0  0  0  0  0  3  0  0  0  0  0  0
  -20.7350  -26.9550   22.6500 C   0  0  0  0  0  2  0  0  0  0  0  0
  -19.6350  -26.6180   21.6390 C   0  0  0  0  0  2  0  0  0  0  0  0
  -18.2510  -26.7510   22.2830 C   0  0  0  0  0  2  0  0  0  0  0  0
  -19.1750  -28.8770   23.3800 C   0  0  0  0  0  0  0  0  0  0  0  0
  -18.9420  -30.1380   23.9690 C   0  0  0  0  0  3  0  0  0  0  0  0
  -17.6320  -30.6240   24.1390 C   0  0  0  0  0  3  0  0  0  0  0  0
  -16.5350  -29.8450   23.7280 C   0  0  0  0  0  3  0  0  0  0  0  0
  -16.7520  -28.5860   23.1420 C   0  0  0  0  0  3  0  0  0  0  0  0
  -25.9210  -32.5530   23.8390 C   0  0  0  0  0  3  0  0  0  0  0  0
  -25.6050  -33.9420   24.2070 N   0  0  0  0  0  0  0  0  0  0  0  0
  -25.9180  -35.0170   23.4720 C   0  0  0  0  0  0  0  0  0  0  0  0
  -26.5730  -34.9450   22.4280 O   0  0  0  0  0  0  0  0  0  0  0  0
  -25.0250  -34.0700   25.0230 H   0  0  0  0  0  0  0  0  0  0  0  0
  -24.1800  -36.8130   23.1850 C   0  0  0  0  0  1  0  0  0  0  0  0
  -25.4310  -36.3910   23.9730 C   0  0  0  0  0  3  0  0  0  0  0  0
  -27.5700  -37.2600   24.8100 C   0  0  0  0  0  1  0  0  0  0  0  0
  -26.4590  -37.4500   23.8810 N   0  0  0  0  0  0  0  0  0  0  0  0
  -26.0500  -38.3640   24.0580 H   0  0  0  0  0  0  0  0  0  0  0  0
  -26.4680  -31.7630   25.0910 C   0  0  1  0  0  0  0  0  0  0  0  0
  -25.3980  -31.4980   26.1770 C   0  0  0  0  0  1  0  0  0  0  0  0
  -27.0510  -30.3950   24.6660 C   0  0  0  0  0  1  0  0  0  0  0  0
  -27.6290  -32.5510   25.7420 C   0  0  0  0  0  1  0  0  0  0  0  0
  1  3  1  0
  1  5  1  0
  2  4  1  0
  3  6  1  0
  5 53  1  0
  5  2  1  0
  6 10  1  0
  6  4  1  0
  7  8  1  0
  9 12  2  0
  9 10  1  0
 10  7  2  0
 11 21  1  0
 11  8  2  0
 12 11  1  0
 13 21  1  0
 14 19  1  0
 15 16  1  0
 15 14  1  0
 17 16  1  0
 17 26  1  0
 17 18  1  0
 19 13  1  0
 19 18  1  0
 20 13  2  0
 21 22  1  0
 23 24  2  0
 24 25  1  0
 24 43  1  0
 25 28  1  0
 26 23  1  0
 26 27  1  0
 27 25  2  0
 28 29  1  0
 29 30  2  0
 31 34  1  0
 31 30  1  0
 32 31  2  0
 33 32  1  0
 33 28  2  0
 34 35  1  0
 35 36  1  0
 36 37  2  0
 38 37  1  0
 38 42  1  0
 39 38  2  0
 40 35  2  0
 40 39  1  0
 41 40  1  0
 43 44  1  0
 44 47  1  0
 44 46  1  0
 45 43  2  0
 48 49  1  0
 48 23  1  0
 50 48  1  0
 51 52  1  0
 52 12  1  0
 54 65  2  0
 55 53  1  0
 55 60  1  0
 56 64  1  0
 56 66  1  0
 57 63  1  0
 57 59  1  0
 58 64  1  0
 59 58  1  0
 60 59  2  0
 61 62  1  0
 61 55  2  0
 62 57  2  0
 63 56  1  0
 64 54  1  0
 66 68  2  0
 67 66  1  0
 69 67  1  0
 70 79  2  0
 70 75  1  0
 71 67  1  0
 71 75  1  0
 72 71  1  0
 73 74  1  0
 73 72  1  0
 74 70  1  0
 75 76  2  0
 76 77  1  0
 78 77  2  0
 79 78  1  0
 80 54  1  0
 80 81  1  0
 80 90  1  0
 81 84  1  0
 82 86  1  0
 82 81  1  0
 83 82  2  0
 86 85  1  0
 88 86  1  0
 88 89  1  0
 88 87  1  0
 90 93  1  1
 90 91  1  0
 92 90  1  0
M  ISO  4   5 101  13 100  21 100  53 101
M  END
>  <TORSDO>  (12) 
F 18

>  <SCORE>  (12) 
-14.062

>  <name>  (12) 
11

>  <ligand_id>  (12) 
11

>  <original_smiles>  (12) 
[H]c1c([H])c([H])c2c(c1[H])C([H])([H])C([H])([H])C([H])([H])C2([H])N([H])C(=O)C1([H])N(C(=O)C([H])(N([H])C(=O)C([H])(N([H])C([H])([H])[H])C([H])([H])[H])C(C([H])([H])[H])(C([H])([H])[H])C([H])([H])[H])C([H])([H])c2c([H])c(OC3([H])C([H])([H])C([H])([H])N(c4c([H])c([H])c(N([H])C(=O)N5C([H])([H])C([H])([H])C([H])([H])C([H])(n6nc(-c7c([H])c([H])c(Oc8c([H])c([H])c(F)c([H])c8F)c([H])c7[H])c(C(=O)N([H])[H])c6N([H])[H])C5([H])[H])c(OC([H])([H])[H])c4[H])C([H])([H])C3([H])[H])c([H])c([H])c2C1([H])[H]

>  <smiles>  (12) 
[H]c1c([H])c([H])c2c(c1[H])C([H])([H])C([H])([H])C([H])([H])C2([H])N([H])C(=O)C1([H])N(C(=O)C([H])(N([H])C(=O)C([H])(N([H])C([H])([H])[H])C([H])([H])[H])C(C([H])([H])[H])(C([H])([H])[H])C([H])([H])[H])C([H])([H])c2c([H])c(OC3([H])C([H])([H])C([H])([H])N(c4c([H])c([H])c(N([H])C(=O)N5C([H])([H])C([H])([H])C([H])([H])C([H])(n6nc(-c7c([H])c([H])c(Oc8c([H])c([H])c(F)c([H])c8F)c([H])c7[H])c(C(=O)N([H])[H])c6N([H])[H])C5([H])[H])c(OC([H])([H])[H])c4[H])C([H])([H])C3([H])[H])c([H])c([H])c2C1([H])[H]

$$$$
12:0:0
     RDKit          3D

 90 98  0  0  1  0  0  0  0  0999 V2000
  -29.6470  -22.0000   20.6810 C   0  0  0  0  0  2  0  0  0  0  0  0
  -28.8430  -23.3070   20.4230 C   0  0  0  0  0  2  0  0  0  0  0  0
  -29.4090  -24.5650   21.1330 C   0  0  0  0  0  2  0  0  0  0  0  0
  -28.4280  -25.7610   21.2880 C   0  0  0  0  0  2  0  0  0  0  0  0
  -28.3950  -26.6750   20.1820 O   0  0  0  0  0  0  0  0  0  0  0  0
  -24.6030  -31.8870   23.2550 C   0  0  0  0  0  0  0  0  0  0  0  0
  -27.2580  -27.4510   20.1750 C   0  0  0  0  0  0  0  0  0  0  0  0
  -23.4000  -30.4840   21.6100 C   0  0  0  0  0  3  0  0  0  0  0  0
  -24.8610  -28.9510   20.1840 C   0  0  0  0  0  0  0  0  0  0  0  0
  -25.9260  -30.8480   21.4150 C   0  0  0  0  0  2  0  0  0  0  0  0
  -26.0170  -29.4770   20.7750 C   0  0  0  0  0  0  0  0  0  0  0  0
  -27.2210  -28.7340   20.7710 C   0  0  0  0  0  3  0  0  0  0  0  0
  -26.0900  -26.9400   19.5750 C   0  0  0  0  0  3  0  0  0  0  0  0
  -24.8920  -27.6800   19.5810 C   0  0  0  0  0  3  0  0  0  0  0  0
  -23.6130  -29.8050   20.2300 C   0  0  0  0  0  2  0  0  0  0  0  0
  -24.6610  -31.0880   22.1520 N   0  0  0  0  0  0  0  0  0  0  0  0
  -23.5210  -32.1570   23.7950 O   0  0  0  0  0  0  0  0  0  0  0  0
  -22.7500  -29.4620   22.5700 C   0  0  0  0  0  0  0  0  0  0  0  0
  -21.4250  -29.2810   22.4440 N   0  0  0  0  0  0  0  0  0  0  0  0
  -23.4330  -28.8350   23.3830 O   0  0  0  0  0  0  0  0  0  0  0  0
  -20.9340  -29.8390   21.7590 H   0  0  0  0  0  0  0  0  0  0  0  0
  -18.0480  -28.0940   22.9460 C   0  0  0  0  0  0  0  0  0  0  0  0
  -20.6080  -28.3420   23.2120 C   0  0  0  0  0  3  0  0  0  0  0  0
  -20.7040  -26.9130   22.6290 C   0  0  0  0  0  2  0  0  0  0  0  0
  -19.5980  -26.5980   21.6170 C   0  0  0  0  0  2  0  0  0  0  0  0
  -18.2190  -26.7450   22.2650 C   0  0  0  0  0  2  0  0  0  0  0  0
  -19.1710  -28.8500   23.3770 C   0  0  0  0  0  0  0  0  0  0  0  0
  -18.9580  -30.1110   23.9730 C   0  0  0  0  0  3  0  0  0  0  0  0
  -17.6550  -30.6170   24.1430 C   0  0  0  0  0  3  0  0  0  0  0  0
  -16.5470  -29.8580   23.7300 C   0  0  0  0  0  3  0  0  0  0  0  0
  -16.7450  -28.5970   23.1380 C   0  0  0  0  0  3  0  0  0  0  0  0
  -25.8880  -32.5190   23.8760 C   0  0  0  0  0  3  0  0  0  0  0  0
  -25.5820  -33.9190   24.1980 N   0  0  0  0  0  0  0  0  0  0  0  0
  -25.9200  -34.9670   23.4350 C   0  0  0  0  0  0  0  0  0  0  0  0
  -26.5950  -34.8560   22.4080 O   0  0  0  0  0  0  0  0  0  0  0  0
  -24.9840  -34.0790   24.9950 H   0  0  0  0  0  0  0  0  0  0  0  0
  -24.1980  -36.7610   23.0600 C   0  0  0  0  0  1  0  0  0  0  0  0
  -25.4320  -36.3580   23.8820 C   0  0  0  0  0  3  0  0  0  0  0  0
  -27.5650  -37.2390   24.7230 C   0  0  0  0  0  1  0  0  0  0  0  0
  -26.4680  -37.4080   23.7730 N   0  0  0  0  0  0  0  0  0  0  0  0
  -26.0630  -38.3290   23.9180 H   0  0  0  0  0  0  0  0  0  0  0  0
  -26.4030  -31.7510   25.1540 C   0  0  1  0  0  0  0  0  0  0  0  0
  -25.3110  -31.5170   26.2230 C   0  0  0  0  0  1  0  0  0  0  0  0
  -26.9860  -30.3720   24.7650 C   0  0  0  0  0  1  0  0  0  0  0  0
  -27.5550  -32.5450   25.8150 C   0  0  0  0  0  1  0  0  0  0  0  0
  -29.0300  -20.9170   19.9790 O   0  0  0  0  0  0  0  0  0  0  0  0
  -28.8060  -17.2360   19.9120 C   0  0  0  0  0  3  0  0  0  0  0  0
  -30.6640  -17.8150   21.3650 C   0  0  0  0  0  3  0  0  0  0  0  0
  -28.5840  -18.6040   19.6560 C   0  0  0  0  0  3  0  0  0  0  0  0
  -30.4340  -19.1910   21.1090 C   0  0  0  0  0  3  0  0  0  0  0  0
  -29.8440  -16.8240   20.7750 C   0  0  0  0  0  0  0  0  0  0  0  0
  -29.3730  -19.6040   20.2610 C   0  0  0  0  0  0  0  0  0  0  0  0
  -30.6440  -14.5020   20.4870 C   0  0  0  0  0  0  0  0  0  0  0  0
  -30.3760  -12.3470   19.3070 C   0  0  0  0  0  2  0  0  0  0  0  0
  -29.4250  -12.5620   18.1100 C   0  0  0  0  0  2  0  0  0  0  0  0
  -27.9510  -12.4190   18.5390 C   0  0  0  0  0  2  0  0  0  0  0  0
  -27.6180  -13.2380   19.8150 C   0  0  0  0  0  3  0  0  0  0  0  0
  -28.6750  -12.9850   20.9140 C   0  0  0  0  0  2  0  0  0  0  0  0
  -30.0010  -13.3070   20.3570 N   0  0  0  0  0  0  0  0  0  0  0  0
  -31.7510  -14.7300   19.9870 O   0  0  0  0  0  0  0  0  0  0  0  0
  -29.9400  -15.4470   21.1360 N   0  0  0  0  0  0  0  0  0  0  0  0
  -29.0990  -15.0650   21.5410 H   0  0  0  0  0  0  0  0  0  0  0  0
  -25.2150  -13.8540   20.5080 C   0  0  0  0  0  0  0  0  0  0  0  0
  -24.1460  -13.0850   20.8810 C   0  0  0  0  0  0  0  0  0  0  0  0
  -24.6070  -11.7330   20.8590 C   0  0  0  0  0  0  0  0  0  0  0  0
  -26.2620  -12.9700   20.2890 N   0  0  0  0  0  0  0  0  0  0  0  0
  -25.8970  -11.6900   20.5550 N   0  0  0  0  0  0  0  0  0  0  0  0
  -23.8800  -10.4720   21.0550 C   0  0  0  0  0  0  0  0  0  0  0  0
  -24.3150   -9.5080   21.9910 C   0  0  0  0  0  3  0  0  0  0  0  0
  -23.5900   -8.3120   22.1750 C   0  0  0  0  0  3  0  0  0  0  0  0
  -22.4170   -8.0700   21.4220 C   0  0  0  0  0  0  0  0  0  0  0  0
  -22.0000   -9.0230   20.4760 C   0  0  0  0  0  3  0  0  0  0  0  0
  -22.7250  -10.2120   20.2900 C   0  0  0  0  0  3  0  0  0  0  0  0
  -21.6630   -6.9250   21.5150 O   0  0  0  0  0  0  0  0  0  0  0  0
  -21.6230   -6.1820   22.6680 C   0  0  0  0  0  0  0  0  0  0  0  0
  -21.2060   -6.7360   23.8980 C   0  0  0  0  0  3  0  0  0  0  0  0
  -21.1130   -5.9190   25.0420 C   0  0  0  0  0  3  0  0  0  0  0  0
  -21.4270   -4.5480   24.9580 C   0  0  0  0  0  0  0  0  0  0  0  0
  -21.8360   -3.9950   23.7320 C   0  0  0  0  0  3  0  0  0  0  0  0
  -21.9310   -4.8090   22.5890 C   0  0  0  0  0  0  0  0  0  0  0  0
  -22.3070   -4.2660   21.4070 F   0  0  0  0  0  0  0  0  0  0  0  0
  -21.3300   -3.7620   26.0540 F   0  0  0  0  0  0  0  0  0  0  0  0
  -22.7480  -13.5650   21.1490 C   0  0  0  0  0  0  0  0  0  0  0  0
  -22.0180  -12.8730   22.0170 N   0  0  0  0  0  0  0  0  0  0  0  0
  -22.3110  -14.5880   20.6230 O   0  0  0  0  0  0  0  0  0  0  0  0
  -22.3840  -12.0450   22.4640 H   0  0  0  0  0  0  0  0  0  0  0  0
  -21.0810  -13.1780   22.2390 H   0  0  0  0  0  0  0  0  0  0  0  0
  -25.3780  -15.2240   20.3220 N   0  0  0  0  0  0  0  0  0  0  0  0
  -24.6070  -15.8740   20.4240 H   0  0  0  0  0  0  0  0  0  0  0  0
  -26.2270  -15.6660   19.9960 H   0  0  0  0  0  0  0  0  0  0  0  0
  2  1  1  0
  2  3  1  0
  3  4  1  0
  5  4  1  0
  6 17  2  0
  7  5  1  0
  7 12  1  0
  8 16  1  0
  8 18  1  0
  9 15  1  0
  9 11  1  0
 10 16  1  0
 11 10  1  0
 12 11  2  0
 13 14  1  0
 13  7  2  0
 14  9  2  0
 15  8  1  0
 16  6  1  0
 18 20  2  0
 19 18  1  0
 21 19  1  0
 22 31  2  0
 22 27  1  0
 23 19  1  0
 23 27  1  0
 24 23  1  0
 25 26  1  0
 25 24  1  0
 26 22  1  0
 27 28  2  0
 28 29  1  0
 30 29  2  0
 31 30  1  0
 32  6  1  0
 32 33  1  0
 32 42  1  0
 33 36  1  0
 34 38  1  0
 34 33  1  0
 35 34  2  0
 38 37  1  0
 40 38  1  0
 40 41  1  0
 40 39  1  0
 42 45  1  1
 42 43  1  0
 44 42  1  0
 46 52  1  0
 46  1  1  0
 47 51  1  0
 49 47  2  0
 49 52  1  0
 50 48  1  0
 51 61  1  0
 51 48  2  0
 52 50  2  0
 53 61  1  0
 54 59  1  0
 55 56  1  0
 55 54  1  0
 57 56  1  0
 57 66  1  0
 57 58  1  0
 59 53  1  0
 59 58  1  0
 60 53  2  0
 61 62  1  0
 63 64  2  0
 64 83  1  0
 65 64  1  0
 65 68  1  0
 66 63  1  0
 66 67  1  0
 67 65  2  0
 68 69  1  0
 69 70  2  0
 71 74  1  0
 71 70  1  0
 72 71  2  0
 73 72  1  0
 73 68  2  0
 74 75  1  0
 75 76  1  0
 76 77  2  0
 78 77  1  0
 78 82  1  0
 79 78  2  0
 80 75  2  0
 80 79  1  0
 81 80  1  0
 83 84  1  0
 84 87  1  0
 84 86  1  0
 85 83  2  0
 88 89  1  0
 88 63  1  0
 90 88  1  0
M  ISO  4   4 101   5 101  53 100  61 100
M  END
>  <TORSDO>  (13) 
F 21

>  <SCORE>  (13) 
-13.693

>  <name>  (13) 
12

>  <ligand_id>  (13) 
12

>  <original_smiles>  (13) 
[H]c1c([H])c([H])c2c(c1[H])C([H])([H])C([H])([H])C([H])([H])C2([H])N([H])C(=O)C1([H])N(C(=O)C([H])(N([H])C(=O)C([H])(N([H])C([H])([H])[H])C([H])([H])[H])C(C([H])([H])[H])(C([H])([H])[H])C([H])([H])[H])C([H])([H])c2c([H])c(OC([H])([H])C([H])([H])C([H])([H])C([H])([H])Oc3c([H])c([H])c(N([H])C(=O)N4C([H])([H])C([H])([H])C([H])([H])C([H])(n5nc(-c6c([H])c([H])c(Oc7c([H])c([H])c(F)c([H])c7F)c([H])c6[H])c(C(=O)N([H])[H])c5N([H])[H])C4([H])[H])c([H])c3[H])c([H])c([H])c2C1([H])[H]

>  <smiles>  (13) 
[H]c1c([H])c([H])c2c(c1[H])C([H])([H])C([H])([H])C([H])([H])C2([H])N([H])C(=O)C1([H])N(C(=O)C([H])(N([H])C(=O)C([H])(N([H])C([H])([H])[H])C([H])([H])[H])C(C([H])([H])[H])(C([H])([H])[H])C([H])([H])[H])C([H])([H])c2c([H])c(OC([H])([H])C([H])([H])C([H])([H])C([H])([H])Oc3c([H])c([H])c(N([H])C(=O)N4C([H])([H])C([H])([H])C([H])([H])C([H])(n5nc(-c6c([H])c([H])c(Oc7c([H])c([H])c(F)c([H])c7F)c([H])c6[H])c(C(=O)N([H])[H])c5N([H])[H])C4([H])[H])c([H])c3[H])c([H])c([H])c2C1([H])[H]

$$$$
13:0:0
     RDKit          3D

 91 99  0  0  1  0  0  0  0  0999 V2000
  -29.6020  -20.9320   20.0080 O   0  0  0  0  0  0  0  0  0  0  0  0
  -29.4190  -17.5640   21.6700 C   0  0  0  0  0  3  0  0  0  0  0  0
  -29.2540  -18.9550   21.4750 C   0  0  0  0  0  3  0  0  0  0  0  0
  -30.3650  -17.3610   19.4430 C   0  0  0  0  0  3  0  0  0  0  0  0
  -29.9940  -16.7510   20.6650 C   0  0  0  0  0  0  0  0  0  0  0  0
  -29.6540  -19.5680   20.2600 C   0  0  0  0  0  0  0  0  0  0  0  0
  -30.1990  -18.7460   19.2470 C   0  0  0  0  0  0  0  0  0  0  0  0
  -30.6700  -19.4270   17.7260 Cl  0  0  0  0  0  0  0  0  0  0  0  0
  -30.7630  -14.4340   20.1460 C   0  0  0  0  0  0  0  0  0  0  0  0
  -30.4130  -12.3430   18.8980 C   0  0  0  0  0  2  0  0  0  0  0  0
  -29.4060  -12.6380   17.7700 C   0  0  0  0  0  2  0  0  0  0  0  0
  -27.9600  -12.4600   18.2780 C   0  0  0  0  0  2  0  0  0  0  0  0
  -27.7020  -13.2280   19.6020 C   0  0  0  0  0  3  0  0  0  0  0  0
  -28.8110  -12.9190   20.6290 C   0  0  0  0  0  2  0  0  0  0  0  0
  -30.1090  -13.2520   20.0140 N   0  0  0  0  0  0  0  0  0  0  0  0
  -31.8250  -14.6850   19.5690 O   0  0  0  0  0  0  0  0  0  0  0  0
  -30.1220  -15.3490   20.9050 N   0  0  0  0  0  0  0  0  0  0  0  0
  -29.4410  -14.9550   21.5350 H   0  0  0  0  0  0  0  0  0  0  0  0
  -25.3370  -13.8140   20.4370 C   0  0  0  0  0  0  0  0  0  0  0  0
  -24.2930  -13.0300   20.8470 C   0  0  0  0  0  0  0  0  0  0  0  0
  -24.7580  -11.6820   20.7710 C   0  0  0  0  0  0  0  0  0  0  0  0
  -26.3730  -12.9420   20.1400 N   0  0  0  0  0  0  0  0  0  0  0  0
  -26.0300  -11.6530   20.3940 N   0  0  0  0  0  0  0  0  0  0  0  0
  -24.0520  -10.4130   20.9830 C   0  0  0  0  0  0  0  0  0  0  0  0
  -24.5060   -9.4610   21.9210 C   0  0  0  0  0  3  0  0  0  0  0  0
  -23.7970   -8.2560   22.1210 C   0  0  0  0  0  3  0  0  0  0  0  0
  -22.6200   -7.9950   21.3830 C   0  0  0  0  0  0  0  0  0  0  0  0
  -22.1820   -8.9370   20.4350 C   0  0  0  0  0  3  0  0  0  0  0  0
  -22.8920  -10.1330   20.2330 C   0  0  0  0  0  3  0  0  0  0  0  0
  -21.8870   -6.8380   21.4860 O   0  0  0  0  0  0  0  0  0  0  0  0
  -21.8140   -6.1350   22.6610 C   0  0  0  0  0  0  0  0  0  0  0  0
  -21.3470   -6.7260   23.8550 C   0  0  0  0  0  3  0  0  0  0  0  0
  -21.2200   -5.9490   25.0230 C   0  0  0  0  0  3  0  0  0  0  0  0
  -21.5530   -4.5810   25.0000 C   0  0  0  0  0  0  0  0  0  0  0  0
  -22.0140   -3.9890   23.8120 C   0  0  0  0  0  3  0  0  0  0  0  0
  -22.1410   -4.7640   22.6450 C   0  0  0  0  0  0  0  0  0  0  0  0
  -22.5660   -4.1860   21.4950 F   0  0  0  0  0  0  0  0  0  0  0  0
  -21.4240   -3.8330   26.1200 F   0  0  0  0  0  0  0  0  0  0  0  0
  -22.9100  -13.4970   21.2000 C   0  0  0  0  0  0  0  0  0  0  0  0
  -22.2330  -12.7910   22.0990 N   0  0  0  0  0  0  0  0  0  0  0  0
  -22.4390  -14.5250   20.7160 O   0  0  0  0  0  0  0  0  0  0  0  0
  -22.6240  -11.9600   22.5200 H   0  0  0  0  0  0  0  0  0  0  0  0
  -21.3080  -13.0900   22.3730 H   0  0  0  0  0  0  0  0  0  0  0  0
  -25.4930  -15.1880   20.2790 N   0  0  0  0  0  0  0  0  0  0  0  0
  -24.7400  -15.8500   20.4320 H   0  0  0  0  0  0  0  0  0  0  0  0
  -26.3520  -15.6340   19.9840 H   0  0  0  0  0  0  0  0  0  0  0  0
  -28.5650  -21.7370   20.5720 C   0  0  0  0  0  2  0  0  0  0  0  0
  -28.9690  -23.2280   20.4360 C   0  0  0  0  0  2  0  0  0  0  0  0
  -27.8960  -24.2340   20.9170 C   0  0  0  0  0  2  0  0  0  0  0  0
  -28.4220  -25.6570   21.2680 C   0  0  0  0  0  2  0  0  0  0  0  0
  -28.4280  -26.6170   20.1990 O   0  0  0  0  0  0  0  0  0  0  0  0
  -24.6860  -31.8660   23.2470 C   0  0  0  0  0  0  0  0  0  0  0  0
  -27.2990  -27.4010   20.1780 C   0  0  0  0  0  0  0  0  0  0  0  0
  -23.4710  -30.4600   21.6140 C   0  0  0  0  0  3  0  0  0  0  0  0
  -24.9190  -28.9180   20.1840 C   0  0  0  0  0  0  0  0  0  0  0  0
  -25.9960  -30.8120   21.4090 C   0  0  0  0  0  2  0  0  0  0  0  0
  -26.0790  -29.4380   20.7720 C   0  0  0  0  0  0  0  0  0  0  0  0
  -27.2770  -28.6860   20.7700 C   0  0  0  0  0  3  0  0  0  0  0  0
  -26.1300  -26.8980   19.5780 C   0  0  0  0  0  3  0  0  0  0  0  0
  -24.9390  -27.6470   19.5850 C   0  0  0  0  0  3  0  0  0  0  0  0
  -23.6760  -29.7780   20.2320 C   0  0  0  0  0  2  0  0  0  0  0  0
  -24.7350  -31.0600   22.1490 N   0  0  0  0  0  0  0  0  0  0  0  0
  -23.6080  -32.1450   23.7910 O   0  0  0  0  0  0  0  0  0  0  0  0
  -22.8230  -29.4420   22.5800 C   0  0  0  0  0  0  0  0  0  0  0  0
  -21.4990  -29.2620   22.4600 N   0  0  0  0  0  0  0  0  0  0  0  0
  -23.5080  -28.8170   23.3940 O   0  0  0  0  0  0  0  0  0  0  0  0
  -21.0060  -29.8180   21.7760 H   0  0  0  0  0  0  0  0  0  0  0  0
  -18.1230  -28.0720   22.9580 C   0  0  0  0  0  0  0  0  0  0  0  0
  -20.6820  -28.3290   23.2360 C   0  0  0  0  0  3  0  0  0  0  0  0
  -20.7840  -26.8950   22.6710 C   0  0  0  0  0  2  0  0  0  0  0  0
  -19.6860  -26.5660   21.6530 C   0  0  0  0  0  2  0  0  0  0  0  0
  -18.3010  -26.7180   22.2910 C   0  0  0  0  0  2  0  0  0  0  0  0
  -19.2440  -28.8340   23.3870 C   0  0  0  0  0  0  0  0  0  0  0  0
  -19.0270  -30.1010   23.9710 C   0  0  0  0  0  3  0  0  0  0  0  0
  -17.7240  -30.6080   24.1290 C   0  0  0  0  0  3  0  0  0  0  0  0
  -16.6190  -29.8420   23.7200 C   0  0  0  0  0  3  0  0  0  0  0  0
  -16.8180  -28.5770   23.1400 C   0  0  0  0  0  3  0  0  0  0  0  0
  -25.9780  -32.4970   23.8570 C   0  0  0  0  0  3  0  0  0  0  0  0
  -25.6720  -33.8950   24.1900 N   0  0  0  0  0  0  0  0  0  0  0  0
  -25.9970  -34.9470   23.4270 C   0  0  0  0  0  0  0  0  0  0  0  0
  -26.6600  -34.8440   22.3910 O   0  0  0  0  0  0  0  0  0  0  0  0
  -25.0880  -34.0520   24.9980 H   0  0  0  0  0  0  0  0  0  0  0  0
  -24.2630  -36.7330   23.0760 C   0  0  0  0  0  1  0  0  0  0  0  0
  -25.5090  -36.3340   23.8860 C   0  0  0  0  0  3  0  0  0  0  0  0
  -27.6500  -37.2160   24.7020 C   0  0  0  0  0  1  0  0  0  0  0  0
  -26.5390  -37.3900   23.7710 N   0  0  0  0  0  0  0  0  0  0  0  0
  -26.1330  -38.3080   23.9360 H   0  0  0  0  0  0  0  0  0  0  0  0
  -26.5060  -31.7230   25.1270 C   0  0  1  0  0  0  0  0  0  0  0  0
  -25.4220  -31.4910   26.2050 C   0  0  0  0  0  1  0  0  0  0  0  0
  -27.0760  -30.3420   24.7280 C   0  0  0  0  0  1  0  0  0  0  0  0
  -27.6640  -32.5120   25.7790 C   0  0  0  0  0  1  0  0  0  0  0  0
  1  6  1  0
  1 47  1  0
  3  2  1  0
  4  5  1  0
  5 17  1  0
  5  2  2  0
  6  3  2  0
  7  4  2  0
  7  6  1  0
  8  7  1  0
  9 17  1  0
 10 15  1  0
 11 12  1  0
 11 10  1  0
 13 12  1  0
 13 22  1  0
 13 14  1  0
 15  9  1  0
 15 14  1  0
 16  9  2  0
 17 18  1  0
 19 20  2  0
 20 39  1  0
 21 20  1  0
 21 24  1  0
 22 23  1  0
 22 19  1  0
 23 21  2  0
 24 25  1  0
 25 26  2  0
 27 30  1  0
 27 26  1  0
 28 27  2  0
 29 28  1  0
 29 24  2  0
 30 31  1  0
 31 32  1  0
 32 33  2  0
 34 33  1  0
 34 38  1  0
 35 34  2  0
 36 31  2  0
 36 35  1  0
 37 36  1  0
 39 40  1  0
 40 43  1  0
 40 42  1  0
 41 39  2  0
 44 45  1  0
 44 19  1  0
 46 44  1  0
 48 47  1  0
 48 49  1  0
 49 50  1  0
 51 50  1  0
 52 63  2  0
 53 51  1  0
 53 58  1  0
 54 62  1  0
 54 64  1  0
 55 61  1  0
 55 57  1  0
 56 62  1  0
 57 56  1  0
 58 57  2  0
 59 60  1  0
 59 53  2  0
 60 55  2  0
 61 54  1  0
 62 52  1  0
 64 66  2  0
 65 64  1  0
 67 65  1  0
 68 77  2  0
 68 73  1  0
 69 65  1  0
 69 73  1  0
 70 69  1  0
 71 72  1  0
 71 70  1  0
 72 68  1  0
 73 74  2  0
 74 75  1  0
 76 75  2  0
 77 76  1  0
 78 52  1  0
 78 79  1  0
 78 88  1  0
 79 82  1  0
 80 84  1  0
 80 79  1  0
 81 80  2  0
 84 83  1  0
 86 84  1  0
 86 87  1  0
 86 85  1  0
 88 91  1  1
 88 89  1  0
 90 88  1  0
M  ISO  4   9 100  17 100  50 101  51 101
M  END
>  <TORSDO>  (14) 
F 21

>  <SCORE>  (14) 
-12.433

>  <name>  (14) 
13

>  <ligand_id>  (14) 
13

>  <original_smiles>  (14) 
[H]c1c([H])c([H])c2c(c1[H])C([H])([H])C([H])([H])C([H])([H])C2([H])N([H])C(=O)C1([H])N(C(=O)C([H])(N([H])C(=O)C([H])(N([H])C([H])([H])[H])C([H])([H])[H])C(C([H])([H])[H])(C([H])([H])[H])C([H])([H])[H])C([H])([H])c2c([H])c(OC([H])([H])C([H])([H])C([H])([H])C([H])([H])Oc3c([H])c([H])c(N([H])C(=O)N4C([H])([H])C([H])([H])C([H])([H])C([H])(n5nc(-c6c([H])c([H])c(Oc7c([H])c([H])c(F)c([H])c7F)c([H])c6[H])c(C(=O)N([H])[H])c5N([H])[H])C4([H])[H])c([H])c3Cl)c([H])c([H])c2C1([H])[H]

>  <smiles>  (14) 
[H]c1c([H])c([H])c2c(c1[H])C([H])([H])C([H])([H])C([H])([H])C2([H])N([H])C(=O)C1([H])N(C(=O)C([H])(N([H])C(=O)C([H])(N([H])C([H])([H])[H])C([H])([H])[H])C(C([H])([H])[H])(C([H])([H])[H])C([H])([H])[H])C([H])([H])c2c([H])c(OC([H])([H])C([H])([H])C([H])([H])C([H])([H])Oc3c([H])c([H])c(N([H])C(=O)N4C([H])([H])C([H])([H])C([H])([H])C([H])(n5nc(-c6c([H])c([H])c(Oc7c([H])c([H])c(F)c([H])c7F)c([H])c6[H])c(C(=O)N([H])[H])c5N([H])[H])C4([H])[H])c([H])c3Cl)c([H])c([H])c2C1([H])[H]

$$$$
14:0:0
     RDKit          3D

 92100  0  0  1  0  0  0  0  0999 V2000
  -30.7630  -18.6680   20.3550 C   0  0  0  0  0  3  0  0  0  0  0  0
  -30.5130  -20.1200   20.2850 C   0  0  0  0  0  3  0  0  0  0  0  0
  -28.2410  -19.6940   19.9020 C   0  0  0  0  0  3  0  0  0  0  0  0
  -28.4710  -18.2770   19.9800 C   0  0  0  0  0  0  0  0  0  0  0  0
  -29.7450  -17.6470   20.2020 C   0  0  0  0  0  0  0  0  0  0  0  0
  -29.2150  -20.7090   20.0440 C   0  0  0  0  0  0  0  0  0  0  0  0
  -30.5790  -14.9720   19.9370 C   0  0  0  0  0  0  0  0  0  0  0  0
  -30.3600  -12.6460   18.9380 C   0  0  0  0  0  2  0  0  0  0  0  0
  -29.3360  -12.6530   17.7760 C   0  0  0  0  0  2  0  0  0  0  0  0
  -27.9030  -12.4380   18.3020 C   0  0  0  0  0  2  0  0  0  0  0  0
  -27.5840  -13.3250   19.5330 C   0  0  0  0  0  3  0  0  0  0  0  0
  -28.7270  -13.2970   20.5780 C   0  0  0  0  0  2  0  0  0  0  0  0
  -29.9700  -13.7130   19.9020 N   0  0  0  0  0  0  0  0  0  0  0  0
  -31.7410  -15.0640   19.5290 O   0  0  0  0  0  0  0  0  0  0  0  0
  -29.7940  -16.1000   20.2770 N   0  0  0  0  0  0  0  0  0  0  0  0
  -28.9010  -15.7460   20.5900 H   0  0  0  0  0  0  0  0  0  0  0  0
  -25.2310  -13.8610   20.4260 C   0  0  0  0  0  0  0  0  0  0  0  0
  -24.2040  -13.0870   20.8650 C   0  0  0  0  0  0  0  0  0  0  0  0
  -24.6690  -11.7450   20.7630 C   0  0  0  0  0  0  0  0  0  0  0  0
  -26.2760  -13.0090   20.1110 N   0  0  0  0  0  0  0  0  0  0  0  0
  -25.9410  -11.7180   20.3710 N   0  0  0  0  0  0  0  0  0  0  0  0
  -23.9450  -10.4880   20.9560 C   0  0  0  0  0  0  0  0  0  0  0  0
  -24.3930   -9.5150   21.8740 C   0  0  0  0  0  3  0  0  0  0  0  0
  -23.6630   -8.3230   22.0600 C   0  0  0  0  0  3  0  0  0  0  0  0
  -22.4710   -8.0990   21.3290 C   0  0  0  0  0  0  0  0  0  0  0  0
  -22.0420   -9.0630   20.4010 C   0  0  0  0  0  3  0  0  0  0  0  0
  -22.7730  -10.2460   20.2130 C   0  0  0  0  0  3  0  0  0  0  0  0
  -21.7120   -6.9590   21.4280 O   0  0  0  0  0  0  0  0  0  0  0  0
  -21.6430   -6.2420   22.5950 C   0  0  0  0  0  0  0  0  0  0  0  0
  -21.1540   -6.8100   23.7910 C   0  0  0  0  0  3  0  0  0  0  0  0
  -21.0360   -6.0170   24.9490 C   0  0  0  0  0  3  0  0  0  0  0  0
  -21.3980   -4.6560   24.9120 C   0  0  0  0  0  0  0  0  0  0  0  0
  -21.8810   -4.0880   23.7200 C   0  0  0  0  0  3  0  0  0  0  0  0
  -22.0010   -4.8790   22.5640 C   0  0  0  0  0  0  0  0  0  0  0  0
  -22.4480   -4.3220   21.4130 F   0  0  0  0  0  0  0  0  0  0  0  0
  -21.2750   -3.8920   26.0220 F   0  0  0  0  0  0  0  0  0  0  0  0
  -22.8330  -13.5730   21.2400 C   0  0  0  0  0  0  0  0  0  0  0  0
  -22.1630  -12.8680   22.1440 N   0  0  0  0  0  0  0  0  0  0  0  0
  -22.3710  -14.6150   20.7760 O   0  0  0  0  0  0  0  0  0  0  0  0
  -22.5520  -12.0280   22.5440 H   0  0  0  0  0  0  0  0  0  0  0  0
  -21.2470  -13.1750   22.4420 H   0  0  0  0  0  0  0  0  0  0  0  0
  -25.3080  -15.2200   20.2340 N   0  0  0  0  0  0  0  0  0  0  0  0
  -24.5150  -15.8270   20.4010 H   0  0  0  0  0  0  0  0  0  0  0  0
  -26.0720  -15.6880   19.7620 H   0  0  0  0  0  0  0  0  0  0  0  0
  -27.2710  -17.4020   19.7360 C   0  0  1  0  0  0  0  0  0  0  0  0
  -26.1090  -18.0590   19.6850 F   0  0  0  0  0  0  0  0  0  0  0  0
  -27.4940  -16.8340   18.5490 F   0  0  0  0  0  0  0  0  0  0  0  0
  -27.1940  -16.4780   20.6950 F   0  0  0  0  0  0  0  0  0  0  0  0
  -28.7030  -22.0650   19.8650 O   0  0  0  0  0  0  0  0  0  0  0  0
  -29.2230  -23.4750   20.1090 C   0  0  0  0  0  3  0  0  0  0  0  0
  -28.1770  -24.7570   19.8220 C   0  0  0  0  0  3  0  0  0  0  0  0
  -28.3620  -26.2660   20.0930 O   0  0  0  0  0  0  0  0  0  0  0  0
  -24.5380  -31.7520   23.1350 C   0  0  0  0  0  0  0  0  0  0  0  0
  -27.2570  -27.1850   20.0350 C   0  0  0  0  0  0  0  0  0  0  0  0
  -23.3820  -30.3760   21.4440 C   0  0  0  0  0  3  0  0  0  0  0  0
  -24.8790  -28.8570   20.0110 C   0  0  0  0  0  0  0  0  0  0  0  0
  -25.9300  -30.6950   21.3220 C   0  0  0  0  0  2  0  0  0  0  0  0
  -26.0390  -29.3220   20.6420 C   0  0  0  0  0  0  0  0  0  0  0  0
  -27.2250  -28.5030   20.6370 C   0  0  0  0  0  3  0  0  0  0  0  0
  -26.0630  -26.8080   19.3760 C   0  0  0  0  0  3  0  0  0  0  0  0
  -24.9010  -27.6120   19.3640 C   0  0  0  0  0  3  0  0  0  0  0  0
  -23.6340  -29.7290   20.0560 C   0  0  0  0  0  2  0  0  0  0  0  0
  -24.6350  -30.9610   22.0230 N   0  0  0  0  0  0  0  0  0  0  0  0
  -23.4410  -32.0090   23.6520 O   0  0  0  0  0  0  0  0  0  0  0  0
  -22.7030  -29.3400   22.3730 C   0  0  0  0  0  0  0  0  0  0  0  0
  -21.3710  -29.1930   22.2570 N   0  0  0  0  0  0  0  0  0  0  0  0
  -23.3760  -28.6720   23.1620 O   0  0  0  0  0  0  0  0  0  0  0  0
  -20.8850  -29.7840   21.5960 H   0  0  0  0  0  0  0  0  0  0  0  0
  -17.9710  -28.0680   22.8010 C   0  0  0  0  0  0  0  0  0  0  0  0
  -20.5440  -28.2380   23.0000 C   0  0  0  0  0  3  0  0  0  0  0  0
  -20.5830  -26.8390   22.3410 C   0  0  0  0  0  2  0  0  0  0  0  0
  -19.4400  -26.6090   21.3460 C   0  0  0  0  0  2  0  0  0  0  0  0
  -18.0840  -26.7570   22.0420 C   0  0  0  0  0  2  0  0  0  0  0  0
  -19.1260  -28.7710   23.2360 C   0  0  0  0  0  0  0  0  0  0  0  0
  -18.9650  -30.0020   23.9100 C   0  0  0  0  0  3  0  0  0  0  0  0
  -17.6810  -30.5290   24.1490 C   0  0  0  0  0  3  0  0  0  0  0  0
  -16.5410  -29.8220   23.7280 C   0  0  0  0  0  3  0  0  0  0  0  0
  -16.6880  -28.5930   23.0590 C   0  0  0  0  0  3  0  0  0  0  0  0
  -25.7980  -32.3880   23.7950 C   0  0  0  0  0  3  0  0  0  0  0  0
  -26.2840  -31.6100   25.0800 C   0  0  1  0  0  0  0  0  0  0  0  0
  -25.1650  -31.3650   26.1200 C   0  0  0  0  0  1  0  0  0  0  0  0
  -26.8780  -30.2350   24.6980 C   0  0  0  0  0  1  0  0  0  0  0  0
  -27.4170  -32.4020   25.7750 C   0  0  0  0  0  1  0  0  0  0  0  0
  -25.4720  -33.7820   24.1330 N   0  0  0  0  0  0  0  0  0  0  0  0
  -25.8050  -34.8460   23.3910 C   0  0  0  0  0  0  0  0  0  0  0  0
  -26.4870  -34.7580   22.3660 O   0  0  0  0  0  0  0  0  0  0  0  0
  -24.8660  -33.9230   24.9280 H   0  0  0  0  0  0  0  0  0  0  0  0
  -24.0700  -36.6360   23.0380 C   0  0  0  0  0  1  0  0  0  0  0  0
  -25.3050  -36.2280   23.8580 C   0  0  0  0  0  3  0  0  0  0  0  0
  -27.4190  -37.1240   24.7290 C   0  0  0  0  0  1  0  0  0  0  0  0
  -26.3330  -37.2880   23.7670 N   0  0  0  0  0  0  0  0  0  0  0  0
  -25.9180  -38.2050   23.9100 H   0  0  0  0  0  0  0  0  0  0  0  0
  2  1  1  0
  3  4  2  0
  3  6  1  0
  4  5  1  0
  5 15  1  0
  5  1  2  0
  6  2  2  0
  7 15  1  0
  8 13  1  0
  9 10  1  0
  9  8  1  0
 11 10  1  0
 11 20  1  0
 11 12  1  0
 13  7  1  0
 13 12  1  0
 14  7  2  0
 15 16  1  0
 17 18  2  0
 18 37  1  0
 19 18  1  0
 19 22  1  0
 20 21  1  0
 20 17  1  0
 21 19  2  0
 22 23  1  0
 23 24  2  0
 25 28  1  0
 25 24  1  0
 26 25  2  0
 27 26  1  0
 27 22  2  0
 28 29  1  0
 29 30  1  0
 30 31  2  0
 32 31  1  0
 32 36  1  0
 33 32  2  0
 34 29  2  0
 34 33  1  0
 35 34  1  0
 37 38  1  0
 38 41  1  0
 38 40  1  0
 39 37  2  0
 42 43  1  0
 42 17  1  0
 44 42  1  0
 45  4  1  0
 45 48  1  1
 46 45  1  0
 47 45  1  0
 49  6  1  0
 49 50  1  0
 51 52  1  0
 51 50  2  0
 53 64  2  0
 54 52  1  0
 54 59  1  0
 55 63  1  0
 55 65  1  0
 56 62  1  0
 56 58  1  0
 57 63  1  0
 58 57  1  0
 59 58  2  0
 60 54  2  0
 61 60  1  0
 61 56  2  0
 62 55  1  0
 63 53  1  0
 65 67  2  0
 66 65  1  0
 68 66  1  0
 69 78  2  0
 69 74  1  0
 70 66  1  0
 70 74  1  0
 71 70  1  0
 72 73  1  0
 72 71  1  0
 73 69  1  0
 74 75  2  0
 75 76  1  0
 77 76  2  0
 78 77  1  0
 79 53  1  0
 79 84  1  0
 79 80  1  0
 80 83  1  1
 80 81  1  0
 82 80  1  0
 84 87  1  0
 85 89  1  0
 85 84  1  0
 86 85  2  0
 89 88  1  0
 91 89  1  0
 91 92  1  0
 91 90  1  0
M  ISO  4   7 100  15 100  51 101  52 101
M  END
>  <TORSDO>  (15) 
F 20

>  <SCORE>  (15) 
-14.103

>  <name>  (15) 
14

>  <ligand_id>  (15) 
14

>  <original_smiles>  (15) 
[H]c1c([H])c([H])c2c(c1[H])C([H])([H])C([H])([H])C([H])([H])C2([H])N([H])C(=O)C1([H])N(C(=O)C([H])(N([H])C(=O)C([H])(N([H])C([H])([H])[H])C([H])([H])[H])C(C([H])([H])[H])(C([H])([H])[H])C([H])([H])[H])C([H])([H])c2c([H])c(OC([H])([H])C([H])([H])Oc3c([H])c([H])c(N([H])C(=O)N4C([H])([H])C([H])([H])C([H])([H])C([H])(n5nc(-c6c([H])c([H])c(Oc7c([H])c([H])c(F)c([H])c7F)c([H])c6[H])c(C(=O)N([H])[H])c5N([H])[H])C4([H])[H])c(C(F)(F)F)c3[H])c([H])c([H])c2C1([H])[H]

>  <smiles>  (15) 
[H]c1c([H])c([H])c2c(c1[H])C([H])([H])C([H])([H])C([H])([H])C2([H])N([H])C(=O)C1([H])N(C(=O)C([H])(N([H])C(=O)C([H])(N([H])C([H])([H])[H])C([H])([H])[H])C(C([H])([H])[H])(C([H])([H])[H])C([H])([H])[H])C([H])([H])c2c([H])c(OC([H])([H])C([H])([H])Oc3c([H])c([H])c(N([H])C(=O)N4C([H])([H])C([H])([H])C([H])([H])C([H])(n5nc(-c6c([H])c([H])c(Oc7c([H])c([H])c(F)c([H])c7F)c([H])c6[H])c(C(=O)N([H])[H])c5N([H])[H])C4([H])[H])c(C(F)(F)F)c3[H])c([H])c([H])c2C1([H])[H]

$$$$
15:0:0
     RDKit          3D

 89 97  0  0  1  0  0  0  0  0999 V2000
  -30.5080  -18.0540   21.6440 C   0  0  0  0  0  3  0  0  0  0  0  0
  -31.1530  -17.2530   20.7030 C   0  0  0  0  0  3  0  0  0  0  0  0
  -30.9380  -19.9800   20.2630 C   0  0  0  0  0  3  0  0  0  0  0  0
  -30.3560  -19.4100   21.4020 C   0  0  0  0  0  0  0  0  0  0  0  0
  -31.7220  -17.6960   19.4750 C   0  0  0  0  0  0  0  0  0  0  0  0
  -31.7050  -19.3090   19.2690 C   0  0  0  0  0  0  0  0  0  0  0  0
  -29.5590  -20.2640   22.3730 C   0  0  0  0  0  1  0  0  0  0  0  0
  -32.5720  -14.8820   19.1440 C   0  0  0  0  0  0  0  0  0  0  0  0
  -32.1620  -12.3360   18.7300 C   0  0  0  0  0  2  0  0  0  0  0  0
  -31.1170  -11.9640   17.6470 C   0  0  0  0  0  2  0  0  0  0  0  0
  -29.7050  -11.9390   18.2450 C   0  0  0  0  0  2  0  0  0  0  0  0
  -29.4570  -13.1450   19.1840 C   0  0  0  0  0  3  0  0  0  0  0  0
  -30.6190  -13.4260   20.1600 C   0  0  0  0  0  2  0  0  0  0  0  0
  -31.8050  -13.6850   19.3270 N   0  0  0  0  0  0  0  0  0  0  0  0
  -33.7600  -14.6000   18.9240 O   0  0  0  0  0  0  0  0  0  0  0  0
  -32.1090  -16.2790   18.7820 N   0  0  0  0  0  0  0  0  0  0  0  0
  -32.5460  -16.4870   17.8970 H   0  0  0  0  0  0  0  0  0  0  0  0
  -27.4130  -14.1370   20.3250 C   0  0  0  0  0  0  0  0  0  0  0  0
  -26.2390  -13.5910   20.7580 C   0  0  0  0  0  0  0  0  0  0  0  0
  -26.3470  -12.1820   20.5320 C   0  0  0  0  0  0  0  0  0  0  0  0
  -28.1660  -13.0790   19.8520 N   0  0  0  0  0  0  0  0  0  0  0  0
  -27.5460  -11.8850   20.0430 N   0  0  0  0  0  0  0  0  0  0  0  0
  -25.3530  -11.1150   20.6980 C   0  0  0  0  0  0  0  0  0  0  0  0
  -25.5740  -10.0270   21.5720 C   0  0  0  0  0  3  0  0  0  0  0  0
  -24.5940   -9.0260   21.7290 C   0  0  0  0  0  3  0  0  0  0  0  0
  -23.3740   -9.1070   21.0160 C   0  0  0  0  0  0  0  0  0  0  0  0
  -23.1670  -10.1800   20.1310 C   0  0  0  0  0  3  0  0  0  0  0  0
  -24.1470  -11.1730   19.9710 C   0  0  0  0  0  3  0  0  0  0  0  0
  -22.3730   -8.1660   21.0880 O   0  0  0  0  0  0  0  0  0  0  0  0
  -22.1030   -7.4930   22.2510 C   0  0  0  0  0  0  0  0  0  0  0  0
  -21.6780   -8.1600   23.4200 C   0  0  0  0  0  3  0  0  0  0  0  0
  -21.3430   -7.4190   24.5700 C   0  0  0  0  0  3  0  0  0  0  0  0
  -21.4250   -6.0130   24.5530 C   0  0  0  0  0  0  0  0  0  0  0  0
  -21.8440   -5.3470   23.3870 C   0  0  0  0  0  3  0  0  0  0  0  0
  -22.1780   -6.0850   22.2390 C   0  0  0  0  0  0  0  0  0  0  0  0
  -22.5610   -5.4360   21.1130 F   0  0  0  0  0  0  0  0  0  0  0  0
  -21.0960   -5.3000   25.6550 F   0  0  0  0  0  0  0  0  0  0  0  0
  -25.0430  -14.3460   21.2590 C   0  0  0  0  0  0  0  0  0  0  0  0
  -24.2790  -13.7460   22.1640 N   0  0  0  0  0  0  0  0  0  0  0  0
  -24.8120  -15.4950   20.8860 O   0  0  0  0  0  0  0  0  0  0  0  0
  -24.4820  -12.8080   22.4780 H   0  0  0  0  0  0  0  0  0  0  0  0
  -23.4780  -14.2260   22.5470 H   0  0  0  0  0  0  0  0  0  0  0  0
  -27.8950  -15.4400   20.2670 N   0  0  0  0  0  0  0  0  0  0  0  0
  -27.3480  -16.2320   20.5830 H   0  0  0  0  0  0  0  0  0  0  0  0
  -28.7990  -15.7040   19.8950 H   0  0  0  0  0  0  0  0  0  0  0  0
  -32.1480  -20.4690   18.3400 O   0  0  0  0  0  0  0  0  0  0  0  0
  -32.1220  -22.1610   18.5260 C   0  0  0  0  0  3  0  0  0  0  0  0
  -31.2220  -23.6580   17.9120 C   0  0  0  0  0  3  0  0  0  0  0  0
  -31.0940  -25.2920   18.3100 O   0  0  0  0  0  0  0  0  0  0  0  0
  -26.1340  -29.3530   22.3850 C   0  0  0  0  0  0  0  0  0  0  0  0
  -29.8920  -26.1980   18.4210 C   0  0  0  0  0  0  0  0  0  0  0  0
  -25.3970  -28.3760   20.2510 C   0  0  0  0  0  3  0  0  0  0  0  0
  -27.2590  -27.5940   18.6240 C   0  0  0  0  0  0  0  0  0  0  0  0
  -27.8660  -29.0590   20.5380 C   0  0  0  0  0  2  0  0  0  0  0  0
  -28.2840  -27.9650   19.5030 C   0  0  0  0  0  0  0  0  0  0  0  0
  -29.5890  -27.2950   19.3830 C   0  0  0  0  0  3  0  0  0  0  0  0
  -28.8120  -25.9990   17.5300 C   0  0  0  0  0  3  0  0  0  0  0  0
  -27.5480  -26.6420   17.6300 C   0  0  0  0  0  3  0  0  0  0  0  0
  -25.8740  -28.2280   18.7790 C   0  0  0  0  0  2  0  0  0  0  0  0
  -26.4770  -28.9440   21.1200 N   0  0  0  0  0  0  0  0  0  0  0  0
  -24.9700  -29.2610   22.8090 O   0  0  0  0  0  0  0  0  0  0  0  0
  -24.8510  -27.0180   20.7650 C   0  0  0  0  0  0  0  0  0  0  0  0
  -23.6660  -26.5970   20.2850 N   0  0  0  0  0  0  0  0  0  0  0  0
  -25.5090  -26.3500   21.5670 O   0  0  0  0  0  0  0  0  0  0  0  0
  -23.1740  -27.1980   19.6380 H   0  0  0  0  0  0  0  0  0  0  0  0
  -20.7660  -24.5220   19.6070 C   0  0  0  0  0  0  0  0  0  0  0  0
  -23.0210  -25.3160   20.5960 C   0  0  0  0  0  3  0  0  0  0  0  0
  -23.6620  -24.1650   19.7860 C   0  0  0  0  0  2  0  0  0  0  0  0
  -22.9330  -23.8750   18.4690 C   0  0  0  0  0  2  0  0  0  0  0  0
  -21.4730  -23.4980   18.7350 C   0  0  0  0  0  2  0  0  0  0  0  0
  -21.4940  -25.3860   20.4690 C   0  0  0  0  0  0  0  0  0  0  0  0
  -20.7890  -26.3410   21.2340 C   0  0  0  0  0  3  0  0  0  0  0  0
  -19.3870  -26.4360   21.1520 C   0  0  0  0  0  3  0  0  0  0  0  0
  -18.6710  -25.5710   20.3060 C   0  0  0  0  0  3  0  0  0  0  0  0
  -19.3600  -24.6150   19.5400 C   0  0  0  0  0  3  0  0  0  0  0  0
  -27.1820  -29.9710   23.3600 C   0  0  0  0  0  3  0  0  0  0  0  0
  -27.5790  -28.9960   24.5380 C   0  0  1  0  0  0  0  0  0  0  0  0
  -26.3650  -28.4300   25.3120 C   0  0  0  0  0  1  0  0  0  0  0  0
  -28.4000  -27.7970   24.0130 C   0  0  0  0  0  1  0  0  0  0  0  0
  -28.4850  -29.7370   25.5490 C   0  0  0  0  0  1  0  0  0  0  0  0
  -26.6180  -31.2190   23.9060 N   0  0  0  0  0  0  0  0  0  0  0  0
  -26.9460  -32.4530   23.5000 C   0  0  0  0  0  0  0  0  0  0  0  0
  -27.8130  -32.6650   22.6500 O   0  0  0  0  0  0  0  0  0  0  0  0
  -25.8690  -31.1200   24.5740 H   0  0  0  0  0  0  0  0  0  0  0  0
  -25.1000  -34.1340   23.1810 C   0  0  0  0  0  1  0  0  0  0  0  0
  -26.1980  -33.6420   24.1380 C   0  0  0  0  0  3  0  0  0  0  0  0
  -27.9660  -34.4750   25.6240 C   0  0  0  0  0  1  0  0  0  0  0  0
  -27.0810  -34.7720   24.5010 N   0  0  0  0  0  0  0  0  0  0  0  0
  -26.5360  -35.5980   24.7310 H   0  0  0  0  0  0  0  0  0  0  0  0
  2  1  2  0
  3  4  2  0
  4  1  1  0
  4  7  1  0
  5  2  1  0
  6  5  2  0
  6  3  1  0
  8 14  1  0
  9 14  1  0
 10 11  1  0
 10  9  1  0
 12 11  1  0
 12 21  1  0
 12 13  1  0
 14 13  1  0
 15  8  2  0
 16  8  1  0
 16  5  1  0
 17 16  1  0
 18 19  2  0
 19 38  1  0
 20 23  1  0
 20 19  1  0
 21 22  1  0
 21 18  1  0
 22 20  2  0
 23 24  1  0
 24 25  2  0
 26 29  1  0
 26 25  1  0
 27 26  2  0
 28 27  1  0
 28 23  2  0
 29 30  1  0
 30 31  1  0
 31 32  2  0
 33 32  1  0
 33 37  1  0
 34 33  2  0
 35 30  2  0
 35 34  1  0
 36 35  1  0
 38 39  1  0
 39 41  1  0
 39 42  1  0
 40 38  2  0
 43 18  1  0
 43 44  1  0
 45 43  1  0
 46 47  1  0
 46  6  1  0
 48 49  1  0
 48 47  2  0
 49 51  1  0
 50 61  2  0
 51 56  1  0
 52 62  1  0
 52 60  1  0
 53 59  1  0
 53 55  1  0
 54 60  1  0
 55 54  1  0
 56 55  2  0
 57 58  1  0
 57 51  2  0
 58 53  2  0
 59 52  1  0
 60 50  1  0
 62 64  2  0
 63 62  1  0
 65 63  1  0
 66 71  1  0
 67 63  1  0
 68 67  1  0
 69 70  1  0
 69 68  1  0
 70 66  1  0
 71 67  1  0
 71 72  2  0
 73 72  1  0
 74 73  2  0
 75 66  2  0
 75 74  1  0
 76 50  1  0
 76 81  1  0
 76 77  1  0
 77 78  1  1
 77 80  1  0
 79 77  1  0
 81 84  1  0
 82 81  1  0
 82 86  1  0
 83 82  2  0
 86 85  1  0
 86 88  1  0
 88 89  1  0
 88 87  1  0
M  ISO  4   8 100  16 100  48 101  49 101
M  END
>  <TORSDO>  (16) 
F 19

>  <SCORE>  (16) 
-7.466

>  <name>  (16) 
15

>  <ligand_id>  (16) 
15

>  <original_smiles>  (16) 
[H]c1c([H])c([H])c2c(c1[H])C([H])([H])C([H])([H])C([H])([H])C2([H])N([H])C(=O)C1([H])N(C(=O)C([H])(N([H])C(=O)C([H])(N([H])C([H])([H])[H])C([H])([H])[H])C(C([H])([H])[H])(C([H])([H])[H])C([H])([H])[H])C([H])([H])c2c([H])c(OC([H])([H])C([H])([H])Oc3c([H])c(C([H])([H])[H])c([H])c([H])c3N([H])C(=O)N3C([H])([H])C([H])([H])C([H])([H])C([H])(n4nc(-c5c([H])c([H])c(Oc6c([H])c([H])c(F)c([H])c6F)c([H])c5[H])c(C(=O)N([H])[H])c4N([H])[H])C3([H])[H])c([H])c([H])c2C1([H])[H]

>  <smiles>  (16) 
[H]c1c([H])c([H])c2c(c1[H])C([H])([H])C([H])([H])C([H])([H])C2([H])N([H])C(=O)C1([H])N(C(=O)C([H])(N([H])C(=O)C([H])(N([H])C([H])([H])[H])C([H])([H])[H])C(C([H])([H])[H])(C([H])([H])[H])C([H])([H])[H])C([H])([H])c2c([H])c(OC([H])([H])C([H])([H])Oc3c([H])c(C([H])([H])[H])c([H])c([H])c3N([H])C(=O)N3C([H])([H])C([H])([H])C([H])([H])C([H])(n4nc(-c5c([H])c([H])c(Oc6c([H])c([H])c(F)c([H])c6F)c([H])c5[H])c(C(=O)N([H])[H])c4N([H])[H])C3([H])[H])c([H])c([H])c2C1([H])[H]

$$$$
16:0:0
     RDKit          3D

 89 97  0  0  1  0  0  0  0  0999 V2000
  -30.7950  -18.6150   20.0620 C   0  0  0  0  0  3  0  0  0  0  0  0
  -30.3800  -20.0210   19.9900 C   0  0  0  0  0  3  0  0  0  0  0  0
  -28.5320  -17.9580   19.9520 C   0  0  0  0  0  3  0  0  0  0  0  0
  -28.1130  -19.3430   19.8880 C   0  0  0  0  0  0  0  0  0  0  0  0
  -29.8820  -17.4950   20.0610 C   0  0  0  0  0  0  0  0  0  0  0  0
  -29.0110  -20.4700   19.9060 C   0  0  0  0  0  0  0  0  0  0  0  0
  -26.6090  -19.6000   19.8650 C   0  0  0  0  0  1  0  0  0  0  0  0
  -30.7340  -14.8930   19.8220 C   0  0  0  0  0  0  0  0  0  0  0  0
  -30.4320  -12.5720   18.8180 C   0  0  0  0  0  2  0  0  0  0  0  0
  -29.4000  -12.5720   17.6640 C   0  0  0  0  0  2  0  0  0  0  0  0
  -27.9620  -12.4370   18.1960 C   0  0  0  0  0  2  0  0  0  0  0  0
  -27.6960  -13.3620   19.4080 C   0  0  0  0  0  3  0  0  0  0  0  0
  -28.8250  -13.2640   20.4520 C   0  0  0  0  0  2  0  0  0  0  0  0
  -30.0790  -13.6560   19.7850 N   0  0  0  0  0  0  0  0  0  0  0  0
  -31.8420  -14.9570   19.2760 O   0  0  0  0  0  0  0  0  0  0  0  0
  -30.0680  -15.8920   21.9130 C   0  0  0  0  0  1  0  0  0  0  0  0
  -30.1500  -16.0330   20.4510 N   0  0  0  0  0  0  0  0  0  0  0  0
  -25.4030  -14.0570   20.3140 C   0  0  0  0  0  0  0  0  0  0  0  0
  -24.3290  -13.3330   20.7530 C   0  0  0  0  0  0  0  0  0  0  0  0
  -24.7190  -11.9610   20.6800 C   0  0  0  0  0  0  0  0  0  0  0  0
  -26.3810  -13.1290   19.9970 N   0  0  0  0  0  0  0  0  0  0  0  0
  -25.9820  -11.8620   20.2810 N   0  0  0  0  0  0  0  0  0  0  0  0
  -23.9460  -10.7360   20.9120 C   0  0  0  0  0  0  0  0  0  0  0  0
  -24.3990   -9.7320   21.7970 C   0  0  0  0  0  3  0  0  0  0  0  0
  -23.6270   -8.5720   22.0180 C   0  0  0  0  0  3  0  0  0  0  0  0
  -22.3860   -8.4070   21.3580 C   0  0  0  0  0  0  0  0  0  0  0  0
  -21.9510   -9.3980   20.4600 C   0  0  0  0  0  3  0  0  0  0  0  0
  -22.7240  -10.5500   20.2370 C   0  0  0  0  0  3  0  0  0  0  0  0
  -21.5800   -7.3020   21.4920 O   0  0  0  0  0  0  0  0  0  0  0  0
  -21.5980   -6.5320   22.6270 C   0  0  0  0  0  0  0  0  0  0  0  0
  -21.3260   -7.0770   23.9010 C   0  0  0  0  0  3  0  0  0  0  0  0
  -21.2860   -6.2370   25.0320 C   0  0  0  0  0  3  0  0  0  0  0  0
  -21.5060   -4.8540   24.8900 C   0  0  0  0  0  0  0  0  0  0  0  0
  -21.7710   -4.3090   23.6230 C   0  0  0  0  0  3  0  0  0  0  0  0
  -21.8130   -5.1450   22.4940 C   0  0  0  0  0  0  0  0  0  0  0  0
  -22.0480   -4.6130   21.2700 F   0  0  0  0  0  0  0  0  0  0  0  0
  -21.4600   -4.0450   25.9760 F   0  0  0  0  0  0  0  0  0  0  0  0
  -22.9800  -13.8770   21.1240 C   0  0  0  0  0  0  0  0  0  0  0  0
  -22.2860  -13.2180   22.0440 N   0  0  0  0  0  0  0  0  0  0  0  0
  -22.5530  -14.9210   20.6320 O   0  0  0  0  0  0  0  0  0  0  0  0
  -22.6440  -12.3710   22.4570 H   0  0  0  0  0  0  0  0  0  0  0  0
  -21.3830  -13.5640   22.3370 H   0  0  0  0  0  0  0  0  0  0  0  0
  -25.6280  -15.4200   20.1320 N   0  0  0  0  0  0  0  0  0  0  0  0
  -24.9070  -16.1170   20.2840 H   0  0  0  0  0  0  0  0  0  0  0  0
  -26.4800  -15.8040   19.7440 H   0  0  0  0  0  0  0  0  0  0  0  0
  -28.4410  -21.8230   19.8310 O   0  0  0  0  0  0  0  0  0  0  0  0
  -29.0230  -23.2450   19.9090 C   0  0  0  0  0  3  0  0  0  0  0  0
  -28.0060  -24.5820   19.7270 C   0  0  0  0  0  3  0  0  0  0  0  0
  -28.2790  -26.1130   19.8770 O   0  0  0  0  0  0  0  0  0  0  0  0
  -24.5470  -31.6250   23.0440 C   0  0  0  0  0  0  0  0  0  0  0  0
  -27.2000  -27.0740   19.8500 C   0  0  0  0  0  0  0  0  0  0  0  0
  -23.3570  -30.2460   21.3840 C   0  0  0  0  0  3  0  0  0  0  0  0
  -24.8250  -28.7530   19.8970 C   0  0  0  0  0  0  0  0  0  0  0  0
  -25.9020  -30.5910   21.1800 C   0  0  0  0  0  2  0  0  0  0  0  0
  -26.0050  -29.2180   20.4920 C   0  0  0  0  0  0  0  0  0  0  0  0
  -27.1930  -28.3940   20.4520 C   0  0  0  0  0  3  0  0  0  0  0  0
  -25.9880  -26.7090   19.2230 C   0  0  0  0  0  3  0  0  0  0  0  0
  -24.8270  -27.5090   19.2490 C   0  0  0  0  0  3  0  0  0  0  0  0
  -23.5690  -29.6080   19.9870 C   0  0  0  0  0  2  0  0  0  0  0  0
  -24.6230  -30.8410   21.9250 N   0  0  0  0  0  0  0  0  0  0  0  0
  -23.4610  -31.8610   23.5990 O   0  0  0  0  0  0  0  0  0  0  0  0
  -22.7270  -29.1900   22.3280 C   0  0  0  0  0  0  0  0  0  0  0  0
  -21.4010  -28.9910   22.2270 N   0  0  0  0  0  0  0  0  0  0  0  0
  -23.4340  -28.5490   23.1110 O   0  0  0  0  0  0  0  0  0  0  0  0
  -20.8880  -29.5650   21.5710 H   0  0  0  0  0  0  0  0  0  0  0  0
  -18.0630  -27.6890   22.7710 C   0  0  0  0  0  0  0  0  0  0  0  0
  -20.6200  -28.0100   22.9840 C   0  0  0  0  0  3  0  0  0  0  0  0
  -20.7400  -26.5970   22.3650 C   0  0  0  0  0  2  0  0  0  0  0  0
  -19.6210  -26.2780   21.3680 C   0  0  0  0  0  2  0  0  0  0  0  0
  -18.2520  -26.3680   22.0480 C   0  0  0  0  0  2  0  0  0  0  0  0
  -19.1720  -28.4680   23.1960 C   0  0  0  0  0  0  0  0  0  0  0  0
  -18.9350  -29.7040   23.8350 C   0  0  0  0  0  3  0  0  0  0  0  0
  -17.6210  -30.1640   24.0460 C   0  0  0  0  0  3  0  0  0  0  0  0
  -16.5280  -29.3840   23.6320 C   0  0  0  0  0  3  0  0  0  0  0  0
  -16.7500  -28.1470   23.0040 C   0  0  0  0  0  3  0  0  0  0  0  0
  -25.8140  -32.2810   23.6710 C   0  0  0  0  0  3  0  0  0  0  0  0
  -26.3610  -31.5010   24.9300 C   0  0  1  0  0  0  0  0  0  0  0  0
  -25.2850  -31.2190   26.0080 C   0  0  0  0  0  1  0  0  0  0  0  0
  -26.9660  -30.1430   24.5100 C   0  0  0  0  0  1  0  0  0  0  0  0
  -27.5070  -32.3090   25.5880 C   0  0  0  0  0  1  0  0  0  0  0  0
  -25.4670  -33.6620   24.0360 N   0  0  0  0  0  0  0  0  0  0  0  0
  -25.7900  -34.7470   23.3200 C   0  0  0  0  0  0  0  0  0  0  0  0
  -26.4770  -34.6920   22.2960 O   0  0  0  0  0  0  0  0  0  0  0  0
  -24.8500  -33.7760   24.8270 H   0  0  0  0  0  0  0  0  0  0  0  0
  -24.0260  -36.5170   23.0100 C   0  0  0  0  0  1  0  0  0  0  0  0
  -25.2680  -36.1090   23.8180 C   0  0  0  0  0  3  0  0  0  0  0  0
  -27.3760  -37.0100   24.6980 C   0  0  0  0  0  1  0  0  0  0  0  0
  -26.2800  -37.1880   23.7500 N   0  0  0  0  0  0  0  0  0  0  0  0
  -25.8520  -38.0920   23.9310 H   0  0  0  0  0  0  0  0  0  0  0  0
  2  1  2  0
  3  5  2  0
  4  6  2  0
  4  3  1  0
  5  1  1  0
  5 17  1  0
  6  2  1  0
  7  4  1  0
  8 17  1  0
  9 14  1  0
 10 11  1  0
 10  9  1  0
 12 11  1  0
 12 21  1  0
 12 13  1  0
 14  8  1  0
 14 13  1  0
 15  8  2  0
 17 16  1  0
 18 19  2  0
 19 38  1  0
 20 19  1  0
 20 23  1  0
 21 22  1  0
 21 18  1  0
 22 20  2  0
 23 24  1  0
 24 25  2  0
 26 29  1  0
 26 25  1  0
 27 26  2  0
 28 27  1  0
 28 23  2  0
 29 30  1  0
 30 31  1  0
 31 32  2  0
 33 32  1  0
 33 37  1  0
 34 33  2  0
 35 30  2  0
 35 34  1  0
 36 35  1  0
 38 39  1  0
 39 42  1  0
 39 41  1  0
 40 38  2  0
 43 44  1  0
 43 18  1  0
 45 43  1  0
 46  6  1  0
 46 47  1  0
 48 49  1  0
 48 47  2  0
 50 61  2  0
 51 49  1  0
 51 56  1  0
 52 60  1  0
 52 62  1  0
 53 59  1  0
 53 55  1  0
 54 60  1  0
 55 54  1  0
 56 55  2  0
 57 58  1  0
 57 51  2  0
 58 53  2  0
 59 52  1  0
 60 50  1  0
 62 64  2  0
 63 62  1  0
 65 63  1  0
 66 75  2  0
 66 71  1  0
 67 63  1  0
 67 71  1  0
 68 67  1  0
 69 70  1  0
 69 68  1  0
 70 66  1  0
 71 72  2  0
 72 73  1  0
 74 73  2  0
 75 74  1  0
 76 50  1  0
 76 81  1  0
 76 77  1  0
 77 80  1  1
 77 78  1  0
 79 77  1  0
 81 84  1  0
 82 86  1  0
 82 81  1  0
 83 82  2  0
 86 85  1  0
 88 86  1  0
 88 89  1  0
 88 87  1  0
M  ISO  4   8 100  17 100  48 101  49 101
M  END
>  <TORSDO>  (17) 
F 19

>  <SCORE>  (17) 
-12.614

>  <name>  (17) 
16

>  <ligand_id>  (17) 
16

>  <original_smiles>  (17) 
[H]c1c([H])c([H])c2c(c1[H])C([H])([H])C([H])([H])C([H])([H])C2([H])N([H])C(=O)C1([H])N(C(=O)C([H])(N([H])C(=O)C([H])(N([H])C([H])([H])[H])C([H])([H])[H])C(C([H])([H])[H])(C([H])([H])[H])C([H])([H])[H])C([H])([H])c2c([H])c(OC([H])([H])C([H])([H])Oc3c([H])c([H])c(N(C(=O)N4C([H])([H])C([H])([H])C([H])([H])C([H])(n5nc(-c6c([H])c([H])c(Oc7c([H])c([H])c(F)c([H])c7F)c([H])c6[H])c(C(=O)N([H])[H])c5N([H])[H])C4([H])[H])C([H])([H])[H])c([H])c3C([H])([H])[H])c([H])c([H])c2C1([H])[H]

>  <smiles>  (17) 
[H]c1c([H])c([H])c2c(c1[H])C([H])([H])C([H])([H])C([H])([H])C2([H])N([H])C(=O)C1([H])N(C(=O)C([H])(N([H])C(=O)C([H])(N([H])C([H])([H])[H])C([H])([H])[H])C(C([H])([H])[H])(C([H])([H])[H])C([H])([H])[H])C([H])([H])c2c([H])c(OC([H])([H])C([H])([H])Oc3c([H])c([H])c(N(C(=O)N4C([H])([H])C([H])([H])C([H])([H])C([H])(n5nc(-c6c([H])c([H])c(Oc7c([H])c([H])c(F)c([H])c7F)c([H])c6[H])c(C(=O)N([H])[H])c5N([H])[H])C4([H])[H])C([H])([H])[H])c([H])c3C([H])([H])[H])c([H])c([H])c2C1([H])[H]

$$$$
17:0:0
     RDKit          3D

104112  0  0  1  0  0  0  0  0999 V2000
  -24.9500  -22.8410   20.8640 C   0  0  0  0  0  3  0  0  0  0  0  0
  -24.6760  -22.3160   19.6470 C   0  0  0  0  0  3  0  0  0  0  0  0
  -26.0100  -23.8180   20.9320 C   0  0  0  0  0  0  0  0  0  0  0  0
  -26.3880  -23.6570   18.6030 C   0  0  0  0  0  0  0  0  0  0  0  0
  -26.6570  -24.1700   19.8360 N   0  0  0  0  0  0  0  0  0  0  0  0
  -25.3730  -22.6820   18.5060 N   0  0  0  0  0  0  0  0  0  0  0  0
  -26.3430  -24.3820   22.1130 N   0  0  0  0  0  0  0  0  0  0  0  0
  -27.0200  -24.0360   17.6180 O   0  0  0  0  0  0  0  0  0  0  0  0
  -25.8160  -24.1590   22.9530 H   0  0  0  0  0  0  0  0  0  0  0  0
  -27.2760  -25.4920   22.2950 C   0  0  0  0  0  2  0  0  0  0  0  0
  -28.7020  -25.1750   21.7940 C   0  0  0  0  0  2  0  0  0  0  0  0
  -29.5790  -26.4230   21.5610 C   0  0  0  0  0  2  0  0  0  0  0  0
  -29.2200  -27.0900   20.3550 O   0  0  0  0  0  0  0  0  0  0  0  0
  -24.9190  -31.9810   23.2770 C   0  0  0  0  0  0  0  0  0  0  0  0
  -28.0120  -27.7360   20.3680 C   0  0  0  0  0  0  0  0  0  0  0  0
  -23.8990  -30.5080   21.5700 C   0  0  0  0  0  3  0  0  0  0  0  0
  -25.5290  -29.0560   20.2480 C   0  0  0  0  0  0  0  0  0  0  0  0
  -26.4050  -31.0210   21.5260 C   0  0  0  0  0  2  0  0  0  0  0  0
  -26.6130  -29.6570   20.9040 C   0  0  0  0  0  0  0  0  0  0  0  0
  -27.8590  -28.9980   20.9740 C   0  0  0  0  0  3  0  0  0  0  0  0
  -26.9240  -27.1470   19.7010 C   0  0  0  0  0  3  0  0  0  0  0  0
  -25.6740  -27.7920   19.6500 C   0  0  0  0  0  3  0  0  0  0  0  0
  -24.2350  -29.8350   20.2110 C   0  0  0  0  0  2  0  0  0  0  0  0
  -25.0880  -31.1840   22.1840 N   0  0  0  0  0  0  0  0  0  0  0  0
  -23.7930  -32.1890   23.7470 O   0  0  0  0  0  0  0  0  0  0  0  0
  -23.2530  -29.4540   22.4930 C   0  0  0  0  0  0  0  0  0  0  0  0
  -21.9530  -29.1890   22.2760 N   0  0  0  0  0  0  0  0  0  0  0  0
  -23.9180  -28.8740   23.3540 O   0  0  0  0  0  0  0  0  0  0  0  0
  -21.4790  -29.7180   21.5570 H   0  0  0  0  0  0  0  0  0  0  0  0
  -18.5900  -27.9340   22.6940 C   0  0  0  0  0  0  0  0  0  0  0  0
  -21.1440  -28.2010   22.9880 C   0  0  0  0  0  3  0  0  0  0  0  0
  -21.2640  -26.8050   22.3320 C   0  0  0  0  0  2  0  0  0  0  0  0
  -20.1670  -26.5310   21.2980 C   0  0  0  0  0  2  0  0  0  0  0  0
  -18.7810  -26.6300   21.9390 C   0  0  0  0  0  2  0  0  0  0  0  0
  -19.7000  -28.6820   23.1700 C   0  0  0  0  0  0  0  0  0  0  0  0
  -19.4690  -29.9050   23.8330 C   0  0  0  0  0  3  0  0  0  0  0  0
  -18.1610  -30.3900   24.0190 C   0  0  0  0  0  3  0  0  0  0  0  0
  -17.0640  -29.6370   23.5640 C   0  0  0  0  0  3  0  0  0  0  0  0
  -17.2790  -28.4110   22.9100 C   0  0  0  0  0  3  0  0  0  0  0  0
  -26.1250  -32.6860   23.9710 C   0  0  0  0  0  3  0  0  0  0  0  0
  -25.6910  -34.0360   24.3490 N   0  0  0  0  0  0  0  0  0  0  0  0
  -25.9450  -35.1430   23.6420 C   0  0  0  0  0  0  0  0  0  0  0  0
  -26.6480  -35.1410   22.6240 O   0  0  0  0  0  0  0  0  0  0  0  0
  -25.0660  -34.0990   25.1420 H   0  0  0  0  0  0  0  0  0  0  0  0
  -24.0690  -36.7840   23.3150 C   0  0  0  0  0  1  0  0  0  0  0  0
  -25.3290  -36.4660   24.1360 C   0  0  0  0  0  3  0  0  0  0  0  0
  -27.3770  -37.4930   25.0200 C   0  0  0  0  0  1  0  0  0  0  0  0
  -26.2660  -37.6100   24.0780 N   0  0  0  0  0  0  0  0  0  0  0  0
  -25.7810  -38.4830   24.2680 H   0  0  0  0  0  0  0  0  0  0  0  0
  -26.6570  -31.9040   25.2330 C   0  0  1  0  0  0  0  0  0  0  0  0
  -25.5320  -31.4070   26.1740 C   0  0  0  0  0  1  0  0  0  0  0  0
  -27.4930  -30.6800   24.7970 C   0  0  0  0  0  1  0  0  0  0  0  0
  -27.6050  -32.8090   26.0530 C   0  0  0  0  0  1  0  0  0  0  0  0
  -25.0490  -22.0150   17.2330 C   0  0  0  0  0  2  0  0  0  0  0  0
  -25.7710  -20.6610   17.1170 C   0  0  0  0  0  2  0  0  0  0  0  0
  -25.8810  -20.1230   15.6710 C   0  0  0  0  0  2  0  0  0  0  0  0
  -26.6220  -18.7730   15.5650 C   0  0  0  0  0  2  0  0  0  0  0  0
  -28.0890  -18.8430   16.0030 C   0  0  0  0  0  0  0  0  0  0  0  0
  -28.3990  -18.2230   17.1450 N   0  0  0  0  0  0  0  0  0  0  0  0
  -28.9170  -19.4560   15.3250 O   0  0  0  0  0  0  0  0  0  0  0  0
  -27.6420  -17.7450   17.6160 H   0  0  0  0  0  0  0  0  0  0  0  0
  -29.6860  -18.2400   17.8380 C   0  0  0  0  0  2  0  0  0  0  0  0
  -29.4890  -17.6260   19.2320 C   0  0  0  0  0  2  0  0  0  0  0  0
  -30.7120  -16.8840   19.8080 C   0  0  0  0  0  2  0  0  0  0  0  0
  -30.4750  -16.4920   21.2830 C   0  0  0  0  0  2  0  0  0  0  0  0
  -31.3780  -15.3770   21.8690 C   0  0  0  0  0  2  0  0  0  0  0  0
  -31.5070  -13.1900   20.6260 C   0  0  0  0  0  0  0  0  0  0  0  0
  -30.8080  -11.7620   18.7510 C   0  0  0  0  0  2  0  0  0  0  0  0
  -29.9280  -12.6280   17.8220 C   0  0  0  0  0  2  0  0  0  0  0  0
  -28.4570  -12.6490   18.2940 C   0  0  0  0  0  2  0  0  0  0  0  0
  -28.3170  -12.9460   19.8110 C   0  0  0  0  0  3  0  0  0  0  0  0
  -29.2750  -12.0460   20.6230 C   0  0  0  0  0  2  0  0  0  0  0  0
  -30.6420  -12.2780   20.1170 N   0  0  0  0  0  0  0  0  0  0  0  0
  -32.6590  -13.3580   20.2080 O   0  0  0  0  0  0  0  0  0  0  0  0
  -30.9220  -14.0430   21.4820 N   0  0  0  0  0  0  0  0  0  0  0  0
  -29.9830  -13.7880   21.7590 H   0  0  0  0  0  0  0  0  0  0  0  0
  -26.0080  -13.7900   20.5800 C   0  0  0  0  0  0  0  0  0  0  0  0
  -24.8480  -13.1340   20.8840 C   0  0  0  0  0  0  0  0  0  0  0  0
  -25.1450  -11.7430   20.7590 C   0  0  0  0  0  0  0  0  0  0  0  0
  -26.9370  -12.8100   20.2670 N   0  0  0  0  0  0  0  0  0  0  0  0
  -26.4190  -11.5680   20.4370 N   0  0  0  0  0  0  0  0  0  0  0  0
  -24.2780  -10.5700   20.8750 C   0  0  0  0  0  0  0  0  0  0  0  0
  -24.6000   -9.5070   21.7440 C   0  0  0  0  0  3  0  0  0  0  0  0
  -23.7460   -8.3900   21.8510 C   0  0  0  0  0  3  0  0  0  0  0  0
  -22.5540   -8.3350   21.0890 C   0  0  0  0  0  0  0  0  0  0  0  0
  -22.2520   -9.3870   20.2070 C   0  0  0  0  0  3  0  0  0  0  0  0
  -23.1060  -10.4950   20.0980 C   0  0  0  0  0  3  0  0  0  0  0  0
  -21.6750   -7.2790   21.1090 O   0  0  0  0  0  0  0  0  0  0  0  0
  -21.4470   -6.5540   22.2520 C   0  0  0  0  0  0  0  0  0  0  0  0
  -21.0280   -7.1670   23.4520 C   0  0  0  0  0  3  0  0  0  0  0  0
  -20.7370   -6.3760   24.5820 C   0  0  0  0  0  3  0  0  0  0  0  0
  -20.8560   -4.9750   24.5110 C   0  0  0  0  0  0  0  0  0  0  0  0
  -21.2690   -4.3620   23.3160 C   0  0  0  0  0  3  0  0  0  0  0  0
  -21.5610   -5.1510   22.1880 C   0  0  0  0  0  0  0  0  0  0  0  0
  -21.9390   -4.5550   21.0320 F   0  0  0  0  0  0  0  0  0  0  0  0
  -20.5680   -4.2140   25.5940 F   0  0  0  0  0  0  0  0  0  0  0  0
  -23.5180  -13.7600   21.1920 C   0  0  0  0  0  0  0  0  0  0  0  0
  -22.7160  -13.1210   22.0380 N   0  0  0  0  0  0  0  0  0  0  0  0
  -23.1990  -14.8460   20.7140 O   0  0  0  0  0  0  0  0  0  0  0  0
  -22.9920  -12.2420   22.4500 H   0  0  0  0  0  0  0  0  0  0  0  0
  -21.8200  -13.5190   22.2790 H   0  0  0  0  0  0  0  0  0  0  0  0
  -26.3490  -15.1320   20.5370 N   0  0  0  0  0  0  0  0  0  0  0  0
  -25.6900  -15.8730   20.7370 H   0  0  0  0  0  0  0  0  0  0  0  0
  -27.2750  -15.4620   20.3030 H   0  0  0  0  0  0  0  0  0  0  0  0
  1  3  1  0
  2  1  2  0
  3  7  1  0
  4  5  1  0
  5  3  2  0
  6  4  1  0
  6  2  1  0
  7 10  1  0
  7  9  1  0
  8  4  2  0
 11 10  1  0
 12 11  1  0
 13 15  1  0
 13 12  1  0
 14 25  2  0
 15 20  1  0
 16 24  1  0
 16 26  1  0
 17 19  1  0
 18 24  1  0
 19 20  2  0
 19 18  1  0
 21 15  2  0
 22 21  1  0
 22 17  2  0
 23 17  1  0
 23 16  1  0
 24 14  1  0
 26 28  2  0
 27 26  1  0
 29 27  1  0
 30 39  2  0
 30 35  1  0
 31 27  1  0
 31 35  1  0
 32 31  1  0
 33 34  1  0
 33 32  1  0
 34 30  1  0
 35 36  2  0
 36 37  1  0
 38 37  2  0
 39 38  1  0
 40 14  1  0
 40 41  1  0
 40 50  1  0
 41 44  1  0
 42 46  1  0
 42 41  1  0
 43 42  2  0
 46 45  1  0
 48 46  1  0
 48 49  1  0
 48 47  1  0
 50 53  1  1
 50 51  1  0
 52 50  1  0
 54  6  1  0
 55 54  1  0
 56 55  1  0
 57 56  1  0
 57 58  1  0
 58 59  1  0
 59 61  1  0
 59 62  1  0
 60 58  2  0
 62 63  1  0
 63 64  1  0
 64 65  1  0
 65 66  1  0
 67 75  1  0
 68 73  1  0
 69 70  1  0
 69 68  1  0
 71 70  1  0
 71 80  1  0
 71 72  1  0
 73 72  1  0
 73 67  1  0
 74 67  2  0
 75 76  1  0
 75 66  1  0
 77 78  2  0
 78 97  1  0
 79 82  1  0
 79 78  1  0
 80 81  1  0
 80 77  1  0
 81 79  2  0
 82 83  1  0
 83 84  2  0
 85 88  1  0
 85 84  1  0
 86 85  2  0
 87 86  1  0
 87 82  2  0
 88 89  1  0
 89 90  1  0
 90 91  2  0
 92 91  1  0
 92 96  1  0
 93 92  2  0
 94 89  2  0
 94 93  1  0
 95 94  1  0
 97 98  1  0
 98101  1  0
 98100  1  0
 99 97  2  0
102 77  1  0
102103  1  0
104102  1  0
M  ISO  4  12 101  13 101  67 100  75 100
M  END
>  <TORSDO>  (18) 
F 29

>  <SCORE>  (18) 
-7.642

>  <name>  (18) 
17

>  <ligand_id>  (18) 
17

>  <original_smiles>  (18) 
[H]c1c([H])c([H])c2c(c1[H])C([H])([H])C([H])([H])C([H])([H])C2([H])N([H])C(=O)C1([H])N(C(=O)C([H])(N([H])C(=O)C([H])(N([H])C([H])([H])[H])C([H])([H])[H])C(C([H])([H])[H])(C([H])([H])[H])C([H])([H])[H])C([H])([H])c2c([H])c(OC([H])([H])C([H])([H])C([H])([H])N([H])c3nc(=O)n(C([H])([H])C([H])([H])C([H])([H])C([H])([H])C(=O)N([H])C([H])([H])C([H])([H])C([H])([H])C([H])([H])C([H])([H])N([H])C(=O)N4C([H])([H])C([H])([H])C([H])([H])C([H])(n5nc(-c6c([H])c([H])c(Oc7c([H])c([H])c(F)c([H])c7F)c([H])c6[H])c(C(=O)N([H])[H])c5N([H])[H])C4([H])[H])c([H])c3[H])c([H])c([H])c2C1([H])[H]

>  <smiles>  (18) 
[H]c1c([H])c([H])c2c(c1[H])C([H])([H])C([H])([H])C([H])([H])C2([H])N([H])C(=O)C1([H])N(C(=O)C([H])(N([H])C(=O)C([H])(N([H])C([H])([H])[H])C([H])([H])[H])C(C([H])([H])[H])(C([H])([H])[H])C([H])([H])[H])C([H])([H])c2c([H])c(OC([H])([H])C([H])([H])C([H])([H])N([H])c3nc(=O)n(C([H])([H])C([H])([H])C([H])([H])C([H])([H])C(=O)N([H])C([H])([H])C([H])([H])C([H])([H])C([H])([H])C([H])([H])N([H])C(=O)N4C([H])([H])C([H])([H])C([H])([H])C([H])(n5nc(-c6c([H])c([H])c(Oc7c([H])c([H])c(F)c([H])c7F)c([H])c6[H])c(C(=O)N([H])[H])c5N([H])[H])C4([H])[H])c([H])c3[H])c([H])c([H])c2C1([H])[H]

$$$$
18:0:0
     RDKit          3D

 96104  0  0  1  0  0  0  0  0999 V2000
  -30.5940  -23.2820   19.4840 C   0  0  0  0  0  1  0  0  0  0  0  0
  -29.2680  -23.3000   20.1400 N   0  0  1  0  0  4  0  0  0  0  0  0
  -28.6130  -23.1210   19.3920 H   0  0  0  0  0  0  0  0  0  0  0  0
  -29.1080  -22.1040   21.1010 C   0  0  0  0  0  2  0  0  0  0  0  0
  -30.6640  -20.0110   21.7120 C   0  0  0  0  0  3  0  0  0  0  0  0
  -30.8870  -18.5880   21.7510 C   0  0  0  0  0  3  0  0  0  0  0  0
  -28.9030  -19.7000   20.1220 C   0  0  0  0  0  3  0  0  0  0  0  0
  -29.6530  -20.6170   20.9040 C   0  0  0  0  0  0  0  0  0  0  0  0
  -30.0670  -17.6750   21.0240 C   0  0  0  0  0  0  0  0  0  0  0  0
  -29.0540  -18.2750   20.2170 C   0  0  0  0  0  0  0  0  0  0  0  0
  -31.0060  -15.1910   20.7340 C   0  0  0  0  0  0  0  0  0  0  0  0
  -30.9870  -12.9000   19.7180 C   0  0  0  0  0  2  0  0  0  0  0  0
  -30.1040  -12.9200   18.4490 C   0  0  0  0  0  2  0  0  0  0  0  0
  -28.6160  -12.7130   18.7960 C   0  0  0  0  0  2  0  0  0  0  0  0
  -28.1500  -13.6010   19.9820 C   0  0  0  0  0  3  0  0  0  0  0  0
  -29.1450  -13.5250   21.1610 C   0  0  0  0  0  2  0  0  0  0  0  0
  -30.4670  -13.9270   20.6500 N   0  0  0  0  0  0  0  0  0  0  0  0
  -32.1790  -15.3990   20.4040 O   0  0  0  0  0  0  0  0  0  0  0  0
  -30.1110  -16.1960   21.0470 N   0  0  0  0  0  0  0  0  0  0  0  0
  -29.2080  -15.8090   21.2780 H   0  0  0  0  0  0  0  0  0  0  0  0
  -25.7100  -14.1440   20.5630 C   0  0  0  0  0  0  0  0  0  0  0  0
  -24.6410  -13.3540   20.8760 C   0  0  0  0  0  0  0  0  0  0  0  0
  -25.1270  -12.0120   20.8620 C   0  0  0  0  0  0  0  0  0  0  0  0
  -26.7840  -13.2870   20.3900 N   0  0  0  0  0  0  0  0  0  0  0  0
  -26.4340  -11.9960   20.6240 N   0  0  0  0  0  0  0  0  0  0  0  0
  -24.4130  -10.7370   21.0030 C   0  0  0  0  0  0  0  0  0  0  0  0
  -24.7580   -9.8040   22.0040 C   0  0  0  0  0  3  0  0  0  0  0  0
  -24.0430   -8.5940   22.1290 C   0  0  0  0  0  3  0  0  0  0  0  0
  -22.9710   -8.3080   21.2500 C   0  0  0  0  0  0  0  0  0  0  0  0
  -22.6460   -9.2310   20.2410 C   0  0  0  0  0  3  0  0  0  0  0  0
  -23.3620  -10.4320   20.1150 C   0  0  0  0  0  3  0  0  0  0  0  0
  -22.2380   -7.1470   21.2820 O   0  0  0  0  0  0  0  0  0  0  0  0
  -21.9870   -6.4850   22.4570 C   0  0  0  0  0  0  0  0  0  0  0  0
  -21.3240   -7.1080   23.5350 C   0  0  0  0  0  3  0  0  0  0  0  0
  -21.0260   -6.3700   24.6980 C   0  0  0  0  0  3  0  0  0  0  0  0
  -21.3820   -5.0120   24.7820 C   0  0  0  0  0  0  0  0  0  0  0  0
  -22.0380   -4.3880   23.7060 C   0  0  0  0  0  3  0  0  0  0  0  0
  -22.3380   -5.1230   22.5470 C   0  0  0  0  0  0  0  0  0  0  0  0
  -22.9530   -4.5130   21.5040 F   0  0  0  0  0  0  0  0  0  0  0  0
  -21.0890   -4.3010   25.8950 F   0  0  0  0  0  0  0  0  0  0  0  0
  -23.2240  -13.8090   21.0830 C   0  0  0  0  0  0  0  0  0  0  0  0
  -22.4710  -13.1090   21.9240 N   0  0  0  0  0  0  0  0  0  0  0  0
  -22.7910  -14.8230   20.5340 O   0  0  0  0  0  0  0  0  0  0  0  0
  -22.8310  -12.2880   22.3870 H   0  0  0  0  0  0  0  0  0  0  0  0
  -21.5210  -13.4010   22.1080 H   0  0  0  0  0  0  0  0  0  0  0  0
  -25.8520  -15.5160   20.3880 N   0  0  0  0  0  0  0  0  0  0  0  0
  -25.0660  -16.1510   20.4680 H   0  0  0  0  0  0  0  0  0  0  0  0
  -26.7280  -15.9920   20.2150 H   0  0  0  0  0  0  0  0  0  0  0  0
  -27.2360  -17.9240   18.6620 C   0  0  0  0  0  1  0  0  0  0  0  0
  -28.1970  -17.3990   19.5810 O   0  0  0  0  0  0  0  0  0  0  0  0
  -28.8590  -24.7070   20.6860 C   0  0  0  0  0  3  0  0  0  0  0  0
  -29.6030  -25.0420   22.0280 C   0  0  0  0  0  2  0  0  0  0  0  0
  -29.4550  -25.7780   24.4480 C   0  0  0  0  0  1  0  0  0  0  0  0
  -28.7360  -25.0530   23.3020 C   0  0  0  0  0  2  0  0  0  0  0  0
  -28.9980  -26.0650   19.7900 C   0  0  0  0  0  2  0  0  0  0  0  0
  -28.0430  -26.5690   18.8030 O   0  0  0  0  0  0  0  0  0  0  0  0
  -24.5050  -31.5560   22.8090 C   0  0  0  0  0  0  0  0  0  0  0  0
  -26.9550  -27.3970   19.1170 C   0  0  0  0  0  0  0  0  0  0  0  0
  -23.2090  -30.3270   21.0980 C   0  0  0  0  0  3  0  0  0  0  0  0
  -24.5850  -28.9640   19.4300 C   0  0  0  0  0  0  0  0  0  0  0  0
  -25.7310  -30.7000   20.8000 C   0  0  0  0  0  2  0  0  0  0  0  0
  -25.7840  -29.3950   20.0150 C   0  0  0  0  0  0  0  0  0  0  0  0
  -26.9750  -28.6160   19.8640 C   0  0  0  0  0  3  0  0  0  0  0  0
  -25.7380  -27.0240   18.5170 C   0  0  0  0  0  3  0  0  0  0  0  0
  -24.5630  -27.7820   18.6750 C   0  0  0  0  0  3  0  0  0  0  0  0
  -23.3450  -29.8120   19.6420 C   0  0  0  0  0  2  0  0  0  0  0  0
  -24.5010  -30.8750   21.6250 N   0  0  0  0  0  0  0  0  0  0  0  0
  -23.4560  -31.7550   23.4380 O   0  0  0  0  0  0  0  0  0  0  0  0
  -22.6230  -29.1990   21.9820 C   0  0  0  0  0  0  0  0  0  0  0  0
  -21.2930  -29.0150   21.9260 N   0  0  0  0  0  0  0  0  0  0  0  0
  -23.3600  -28.4950   22.6750 O   0  0  0  0  0  0  0  0  0  0  0  0
  -20.7530  -29.6410   21.3440 H   0  0  0  0  0  0  0  0  0  0  0  0
  -17.9700  -27.7010   22.4930 C   0  0  0  0  0  0  0  0  0  0  0  0
  -20.5360  -27.9820   22.6390 C   0  0  0  0  0  3  0  0  0  0  0  0
  -20.6230  -26.6230   21.9070 C   0  0  0  0  0  2  0  0  0  0  0  0
  -19.4660  -26.3870   20.9310 C   0  0  0  0  0  2  0  0  0  0  0  0
  -18.1230  -26.4350   21.6670 C   0  0  0  0  0  2  0  0  0  0  0  0
  -19.1020  -28.4350   22.9360 C   0  0  0  0  0  0  0  0  0  0  0  0
  -18.9030  -29.6200   23.6750 C   0  0  0  0  0  3  0  0  0  0  0  0
  -17.6040  -30.0720   23.9730 C   0  0  0  0  0  3  0  0  0  0  0  0
  -16.4870  -29.3330   23.5460 C   0  0  0  0  0  3  0  0  0  0  0  0
  -16.6710  -28.1500   22.8090 C   0  0  0  0  0  3  0  0  0  0  0  0
  -25.8190  -32.1330   23.4160 C   0  0  0  0  0  3  0  0  0  0  0  0
  -25.5090  -33.4610   23.9640 N   0  0  0  0  0  0  0  0  0  0  0  0
  -25.7980  -34.6220   23.3600 C   0  0  0  0  0  0  0  0  0  0  0  0
  -26.4210  -34.6860   22.2980 O   0  0  0  0  0  0  0  0  0  0  0  0
  -24.9510  -33.4830   24.8030 H   0  0  0  0  0  0  0  0  0  0  0  0
  -24.0440  -36.4240   23.3480 C   0  0  0  0  0  1  0  0  0  0  0  0
  -25.3150  -35.9150   24.0450 C   0  0  0  0  0  3  0  0  0  0  0  0
  -27.4680  -36.6920   24.9300 C   0  0  0  0  0  1  0  0  0  0  0  0
  -26.3330  -36.9870   24.0600 N   0  0  0  0  0  0  0  0  0  0  0  0
  -25.9260  -37.8690   24.3550 H   0  0  0  0  0  0  0  0  0  0  0  0
  -26.4520  -31.2060   24.5260 C   0  0  1  0  0  0  0  0  0  0  0  0
  -25.4580  -30.7980   25.6370 C   0  0  0  0  0  1  0  0  0  0  0  0
  -27.0210  -29.9150   23.8940 C   0  0  0  0  0  1  0  0  0  0  0  0
  -27.6390  -31.9380   25.1970 C   0  0  0  0  0  1  0  0  0  0  0  0
  1  2  1  0
  2 51  1  0
  2  4  1  0
  2  3  1  6
  5  6  1  0
  7 10  2  0
  7  8  1  0
  8  4  1  0
  8  5  2  0
  9 19  1  0
  9  6  2  0
 10  9  1  0
 11 19  1  0
 12 17  1  0
 13 14  1  0
 13 12  1  0
 15 14  1  0
 15 24  1  0
 15 16  1  0
 17 11  1  0
 17 16  1  0
 18 11  2  0
 19 20  1  0
 21 22  2  0
 22 41  1  0
 23 22  1  0
 23 26  1  0
 24 21  1  0
 24 25  1  0
 25 23  2  0
 26 27  1  0
 27 28  2  0
 29 32  1  0
 29 28  1  0
 30 29  2  0
 31 30  1  0
 31 26  2  0
 32 33  1  0
 33 38  2  0
 33 34  1  0
 34 35  2  0
 35 36  1  0
 36 40  1  0
 37 36  2  0
 38 37  1  0
 39 38  1  0
 41 42  1  0
 42 45  1  0
 42 44  1  0
 43 41  2  0
 46 47  1  0
 46 21  1  0
 48 46  1  0
 49 50  1  0
 50 10  1  0
 51 55  1  0
 51 52  1  0
 52 54  1  0
 54 53  1  0
 56 58  1  0
 56 55  1  0
 57 68  2  0
 58 63  1  0
 59 67  1  0
 59 69  1  0
 60 66  1  0
 60 62  1  0
 61 67  1  0
 62 61  1  0
 63 62  2  0
 64 65  1  0
 64 58  2  0
 65 60  2  0
 66 59  1  0
 67 57  1  0
 69 71  2  0
 70 69  1  0
 72 70  1  0
 73 82  2  0
 73 78  1  0
 74 70  1  0
 74 78  1  0
 75 74  1  0
 76 77  1  0
 76 75  1  0
 77 73  1  0
 78 79  2  0
 79 80  1  0
 81 80  2  0
 82 81  1  0
 83 57  1  0
 83 84  1  0
 83 93  1  0
 84 87  1  0
 85 84  1  0
 85 89  1  0
 86 85  2  0
 89 88  1  0
 89 91  1  0
 91 92  1  0
 91 90  1  0
 93 96  1  1
 93 94  1  0
 95 93  1  0
M  ISO  4  11 100  19 100  55 101  56 101
M  END
>  <TORSDO>  (19) 
F 23

>  <SCORE>  (19) 
-11.089

>  <name>  (19) 
18

>  <ligand_id>  (19) 
18

>  <original_smiles>  (19) 
[H]c1c([H])c([H])c2c(c1[H])C([H])([H])C([H])([H])C([H])([H])C2([H])N([H])C(=O)C1([H])N(C(=O)C([H])(N([H])C(=O)C([H])(N([H])C([H])([H])[H])C([H])([H])[H])C(C([H])([H])[H])(C([H])([H])[H])C([H])([H])[H])C([H])([H])c2c([H])c(OC([H])([H])C([H])(C([H])([H])C([H])([H])C([H])([H])[H])[N+]([H])(C([H])([H])[H])C([H])([H])c3c([H])c([H])c(N([H])C(=O)N4C([H])([H])C([H])([H])C([H])([H])C([H])(n5nc(-c6c([H])c([H])c(Oc7c([H])c([H])c(F)c([H])c7F)c([H])c6[H])c(C(=O)N([H])[H])c5N([H])[H])C4([H])[H])c(OC([H])([H])[H])c3[H])c([H])c([H])c2C1([H])[H]

>  <smiles>  (19) 
[H]c1c([H])c([H])c2c(c1[H])C([H])([H])C([H])([H])C([H])([H])C2([H])N([H])C(=O)C1([H])N(C(=O)C([H])(N([H])C(=O)C([H])(N([H])C([H])([H])[H])C([H])([H])[H])C(C([H])([H])[H])(C([H])([H])[H])C([H])([H])[H])C([H])([H])c2c([H])c(OC([H])([H])C([H])(C([H])([H])C([H])([H])C([H])([H])[H])[N+]([H])(C([H])([H])[H])C([H])([H])c3c([H])c([H])c(N([H])C(=O)N4C([H])([H])C([H])([H])C([H])([H])C([H])(n5nc(-c6c([H])c([H])c(Oc7c([H])c([H])c(F)c([H])c7F)c([H])c6[H])c(C(=O)N([H])[H])c5N([H])[H])C4([H])[H])c(OC([H])([H])[H])c3[H])c([H])c([H])c2C1([H])[H]

$$$$
19:0:0
     RDKit          3D

 90 98  0  0  1  0  0  0  0  0999 V2000
  -28.2610  -21.6180   21.0860 C   0  0  0  0  0  3  0  0  0  0  0  0
  -28.1040  -22.7940   20.0730 C   0  0  0  0  0  3  0  0  0  0  0  0
  -28.1500  -24.2290   20.7040 C   0  0  0  0  0  2  0  0  0  0  0  0
  -28.5430  -25.3690   19.7180 C   0  0  0  0  0  2  0  0  0  0  0  0
  -28.4560  -26.7150   20.2430 O   0  0  0  0  0  0  0  0  0  0  0  0
  -24.6090  -31.9120   23.2320 C   0  0  0  0  0  0  0  0  0  0  0  0
  -27.2650  -27.4270   20.2000 C   0  0  0  0  0  0  0  0  0  0  0  0
  -23.4060  -30.4960   21.5970 C   0  0  0  0  0  3  0  0  0  0  0  0
  -24.8670  -28.9470   20.1890 C   0  0  0  0  0  0  0  0  0  0  0  0
  -25.9290  -30.8600   21.3880 C   0  0  0  0  0  2  0  0  0  0  0  0
  -26.0240  -29.4770   20.7700 C   0  0  0  0  0  0  0  0  0  0  0  0
  -27.2270  -28.7270   20.7680 C   0  0  0  0  0  3  0  0  0  0  0  0
  -26.0830  -26.9120   19.6220 C   0  0  0  0  0  3  0  0  0  0  0  0
  -24.8940  -27.6650   19.6110 C   0  0  0  0  0  3  0  0  0  0  0  0
  -23.6200  -29.8040   20.2230 C   0  0  0  0  0  2  0  0  0  0  0  0
  -24.6670  -31.1030   22.1340 N   0  0  0  0  0  0  0  0  0  0  0  0
  -23.5260  -32.1840   23.7700 O   0  0  0  0  0  0  0  0  0  0  0  0
  -22.7510  -29.4820   22.5640 C   0  0  0  0  0  0  0  0  0  0  0  0
  -21.4260  -29.3020   22.4410 N   0  0  0  0  0  0  0  0  0  0  0  0
  -23.4350  -28.8590   23.3810 O   0  0  0  0  0  0  0  0  0  0  0  0
  -20.9310  -29.8660   21.7650 H   0  0  0  0  0  0  0  0  0  0  0  0
  -18.0560  -28.1030   22.9420 C   0  0  0  0  0  0  0  0  0  0  0  0
  -20.6120  -28.3640   23.2150 C   0  0  0  0  0  3  0  0  0  0  0  0
  -20.7160  -26.9300   22.6460 C   0  0  0  0  0  2  0  0  0  0  0  0
  -19.6150  -26.6020   21.6310 C   0  0  0  0  0  2  0  0  0  0  0  0
  -18.2330  -26.7500   22.2750 C   0  0  0  0  0  2  0  0  0  0  0  0
  -19.1730  -28.8670   23.3720 C   0  0  0  0  0  0  0  0  0  0  0  0
  -18.9560  -30.1320   23.9580 C   0  0  0  0  0  3  0  0  0  0  0  0
  -17.6500  -30.6340   24.1170 C   0  0  0  0  0  3  0  0  0  0  0  0
  -16.5460  -29.8670   23.7060 C   0  0  0  0  0  3  0  0  0  0  0  0
  -16.7490  -28.6030   23.1240 C   0  0  0  0  0  3  0  0  0  0  0  0
  -25.8910  -32.5520   23.8520 C   0  0  0  0  0  3  0  0  0  0  0  0
  -25.5830  -33.9530   24.1680 N   0  0  0  0  0  0  0  0  0  0  0  0
  -25.9160  -34.9980   23.3980 C   0  0  0  0  0  0  0  0  0  0  0  0
  -26.5900  -34.8830   22.3700 O   0  0  0  0  0  0  0  0  0  0  0  0
  -24.9930  -34.1170   24.9700 H   0  0  0  0  0  0  0  0  0  0  0  0
  -24.1950  -36.7920   23.0110 C   0  0  0  0  0  1  0  0  0  0  0  0
  -25.4270  -36.3910   23.8380 C   0  0  0  0  0  3  0  0  0  0  0  0
  -27.5590  -37.2830   24.6720 C   0  0  0  0  0  1  0  0  0  0  0  0
  -26.4600  -37.4430   23.7220 N   0  0  0  0  0  0  0  0  0  0  0  0
  -26.0540  -38.3650   23.8600 H   0  0  0  0  0  0  0  0  0  0  0  0
  -26.4040  -31.7930   25.1370 C   0  0  1  0  0  0  0  0  0  0  0  0
  -25.3120  -31.5670   26.2090 C   0  0  0  0  0  1  0  0  0  0  0  0
  -26.9830  -30.4120   24.7520 C   0  0  0  0  0  1  0  0  0  0  0  0
  -27.5520  -32.5920   25.7980 C   0  0  0  0  0  1  0  0  0  0  0  0
  -28.1190  -20.2960   20.5190 O   0  0  0  0  0  0  0  0  0  0  0  0
  -31.6210  -19.1510   19.9750 C   0  0  0  0  0  3  0  0  0  0  0  0
  -31.4870  -17.7550   20.1630 C   0  0  0  0  0  3  0  0  0  0  0  0
  -30.5110  -20.0080   20.0960 C   0  0  0  0  0  3  0  0  0  0  0  0
  -29.1170  -18.0700   20.5680 C   0  0  0  0  0  3  0  0  0  0  0  0
  -30.2230  -17.1770   20.4620 C   0  0  0  0  0  0  0  0  0  0  0  0
  -29.2410  -19.4810   20.4080 C   0  0  0  0  0  0  0  0  0  0  0  0
  -30.6930  -14.6470   20.3060 C   0  0  0  0  0  0  0  0  0  0  0  0
  -30.3530  -12.4180   19.2820 C   0  0  0  0  0  2  0  0  0  0  0  0
  -29.4270  -12.6010   18.0630 C   0  0  0  0  0  2  0  0  0  0  0  0
  -27.9510  -12.4800   18.4860 C   0  0  0  0  0  2  0  0  0  0  0  0
  -27.6060  -13.3160   19.7480 C   0  0  0  0  0  3  0  0  0  0  0  0
  -28.6820  -13.1820   20.8540 C   0  0  0  0  0  2  0  0  0  0  0  0
  -30.0000  -13.4630   20.2590 N   0  0  0  0  0  0  0  0  0  0  0  0
  -31.8460  -14.7330   19.8850 O   0  0  0  0  0  0  0  0  0  0  0  0
  -29.9850  -15.7530   20.6780 N   0  0  0  0  0  0  0  0  0  0  0  0
  -29.0620  -15.5380   21.0170 H   0  0  0  0  0  0  0  0  0  0  0  0
  -25.2150  -13.8910   20.4900 C   0  0  0  0  0  0  0  0  0  0  0  0
  -24.1530  -13.1150   20.8710 C   0  0  0  0  0  0  0  0  0  0  0  0
  -24.6210  -11.7640   20.8310 C   0  0  0  0  0  0  0  0  0  0  0  0
  -26.2620  -13.0200   20.2470 N   0  0  0  0  0  0  0  0  0  0  0  0
  -25.9100  -11.7340   20.5100 N   0  0  0  0  0  0  0  0  0  0  0  0
  -23.8970  -10.5010   21.0240 C   0  0  0  0  0  0  0  0  0  0  0  0
  -24.3400   -9.5250   21.9470 C   0  0  0  0  0  3  0  0  0  0  0  0
  -23.6110   -8.3300   22.1280 C   0  0  0  0  0  3  0  0  0  0  0  0
  -22.4260   -8.1020   21.3870 C   0  0  0  0  0  0  0  0  0  0  0  0
  -22.0050   -9.0620   20.4540 C   0  0  0  0  0  3  0  0  0  0  0  0
  -22.7350  -10.2500   20.2670 C   0  0  0  0  0  3  0  0  0  0  0  0
  -21.6680   -6.9590   21.4770 O   0  0  0  0  0  0  0  0  0  0  0  0
  -21.6330   -6.2060   22.6230 C   0  0  0  0  0  0  0  0  0  0  0  0
  -21.2260   -6.7500   23.8610 C   0  0  0  0  0  3  0  0  0  0  0  0
  -21.1360   -5.9250   24.9980 C   0  0  0  0  0  3  0  0  0  0  0  0
  -21.4470   -4.5540   24.9020 C   0  0  0  0  0  0  0  0  0  0  0  0
  -21.8490   -4.0090   23.6690 C   0  0  0  0  0  3  0  0  0  0  0  0
  -21.9390   -4.8330   22.5330 C   0  0  0  0  0  0  0  0  0  0  0  0
  -22.3060   -4.2990   21.3430 F   0  0  0  0  0  0  0  0  0  0  0  0
  -21.3560   -3.7590   25.9930 F   0  0  0  0  0  0  0  0  0  0  0  0
  -22.7590  -13.5930   21.1550 C   0  0  0  0  0  0  0  0  0  0  0  0
  -22.0390  -12.8890   22.0270 N   0  0  0  0  0  0  0  0  0  0  0  0
  -22.3130  -14.6170   20.6450 O   0  0  0  0  0  0  0  0  0  0  0  0
  -22.4130  -12.0630   22.4670 H   0  0  0  0  0  0  0  0  0  0  0  0
  -21.1000  -13.1830   22.2560 H   0  0  0  0  0  0  0  0  0  0  0  0
  -25.3730  -15.2640   20.3070 N   0  0  0  0  0  0  0  0  0  0  0  0
  -24.5850  -15.9040   20.3290 H   0  0  0  0  0  0  0  0  0  0  0  0
  -26.1920  -15.6730   19.8760 H   0  0  0  0  0  0  0  0  0  0  0  0
  2  3  1  0
  2  1  2  0
  4  5  1  0
  4  3  1  0
  6 17  2  0
  7  5  1  0
  7 12  1  0
  8 16  1  0
  8 18  1  0
  9 15  1  0
  9 11  1  0
 10 16  1  0
 11 10  1  0
 12 11  2  0
 13  7  2  0
 14 13  1  0
 14  9  2  0
 15  8  1  0
 16  6  1  0
 18 20  2  0
 19 18  1  0
 21 19  1  0
 22 31  2  0
 22 27  1  0
 23 19  1  0
 23 27  1  0
 24 23  1  0
 25 26  1  0
 25 24  1  0
 26 22  1  0
 27 28  2  0
 28 29  1  0
 30 29  2  0
 31 30  1  0
 32  6  1  0
 32 33  1  0
 32 42  1  0
 33 36  1  0
 34 38  1  0
 34 33  1  0
 35 34  2  0
 38 37  1  0
 40 38  1  0
 40 41  1  0
 40 39  1  0
 42 45  1  1
 42 43  1  0
 44 42  1  0
 46  1  1  0
 47 49  2  0
 47 48  1  0
 48 51  2  0
 49 52  1  0
 51 50  1  0
 51 61  1  0
 52 46  1  0
 52 50  2  0
 53 61  1  0
 54 59  1  0
 55 56  1  0
 55 54  1  0
 57 56  1  0
 57 66  1  0
 57 58  1  0
 59 53  1  0
 59 58  1  0
 60 53  2  0
 61 62  1  0
 63 64  2  0
 64 83  1  0
 65 64  1  0
 65 68  1  0
 66 63  1  0
 66 67  1  0
 67 65  2  0
 68 69  1  0
 69 70  2  0
 71 74  1  0
 71 70  1  0
 72 71  2  0
 73 72  1  0
 73 68  2  0
 74 75  1  0
 75 76  1  0
 76 77  2  0
 78 77  1  0
 78 82  1  0
 79 78  2  0
 80 75  2  0
 80 79  1  0
 81 80  1  0
 83 84  1  0
 84 87  1  0
 84 86  1  0
 85 83  2  0
 88 89  1  0
 88 63  1  0
 90 88  1  0
M  ISO  4   4 101   5 101  53 100  61 100
M  END
>  <TORSDO>  (20) 
F 21

>  <SCORE>  (20) 
-13.667

>  <name>  (20) 
19

>  <ligand_id>  (20) 
19

>  <original_smiles>  (20) 
[H]c1c([H])c(OC([H])([H])C([H])([H])C([H])([H])C([H])([H])Oc2c([H])c([H])c3c(c2[H])C([H])([H])N(C(=O)C([H])(N([H])C(=O)C([H])(N([H])C([H])([H])[H])C([H])([H])[H])C(C([H])([H])[H])(C([H])([H])[H])C([H])([H])[H])C([H])(C(=O)N([H])C2([H])c4c([H])c([H])c([H])c([H])c4C([H])([H])C([H])([H])C2([H])[H])C3([H])[H])c([H])c(N([H])C(=O)N2C([H])([H])C([H])([H])C([H])([H])C([H])(n3nc(-c4c([H])c([H])c(Oc5c([H])c([H])c(F)c([H])c5F)c([H])c4[H])c(C(=O)N([H])[H])c3N([H])[H])C2([H])[H])c1[H]

>  <smiles>  (20) 
[H]c1c([H])c(OC([H])([H])C([H])([H])C([H])([H])C([H])([H])Oc2c([H])c([H])c3c(c2[H])C([H])([H])N(C(=O)C([H])(N([H])C(=O)C([H])(N([H])C([H])([H])[H])C([H])([H])[H])C(C([H])([H])[H])(C([H])([H])[H])C([H])([H])[H])C([H])(C(=O)N([H])C2([H])c4c([H])c([H])c([H])c([H])c4C([H])([H])C([H])([H])C2([H])[H])C3([H])[H])c([H])c(N([H])C(=O)N2C([H])([H])C([H])([H])C([H])([H])C([H])(n3nc(-c4c([H])c([H])c(Oc5c([H])c([H])c(F)c([H])c5F)c([H])c4[H])c(C(=O)N([H])[H])c3N([H])[H])C2([H])[H])c1[H]

$$$$
20:0:0
     RDKit          3D

104112  0  0  1  0  0  0  0  0999 V2000
  -28.0800  -20.8360   18.4720 C   0  0  0  0  0  0  0  0  0  0  0  0
  -28.6320  -22.6180   16.8100 C   0  0  0  0  0  1  0  0  0  0  0  0
  -27.2290  -19.9920   17.9840 N   0  0  0  0  0  0  0  0  0  0  0  0
  -29.0280  -20.4630   19.4060 N   0  0  0  0  0  0  0  0  0  0  0  0
  -28.1660  -22.1790   18.1230 N   0  0  0  0  0  0  0  0  0  0  0  0
  -29.5490  -21.2270   19.8380 H   0  0  0  0  0  0  0  0  0  0  0  0
  -28.8780  -18.7880   21.1840 C   0  0  0  0  0  3  0  0  0  0  0  0
  -30.3180  -18.4150   19.2590 C   0  0  0  0  0  3  0  0  0  0  0  0
  -29.2650  -17.5360   21.7160 C   0  0  0  0  0  3  0  0  0  0  0  0
  -30.7270  -17.1880   19.8000 C   0  0  0  0  0  3  0  0  0  0  0  0
  -29.3930  -19.2250   19.9440 C   0  0  0  0  0  0  0  0  0  0  0  0
  -30.1920  -16.7220   21.0300 C   0  0  0  0  0  0  0  0  0  0  0  0
  -31.1540  -14.4800   20.8640 C   0  0  0  0  0  0  0  0  0  0  0  0
  -30.6280  -12.8710   19.0910 C   0  0  0  0  0  2  0  0  0  0  0  0
  -29.7460  -13.5970   18.0510 C   0  0  0  0  0  2  0  0  0  0  0  0
  -28.2580  -13.5310   18.4490 C   0  0  0  0  0  2  0  0  0  0  0  0
  -28.0120  -13.9390   19.9260 C   0  0  0  0  0  3  0  0  0  0  0  0
  -28.9950  -13.2020   20.8680 C   0  0  0  0  0  2  0  0  0  0  0  0
  -30.3660  -13.4770   20.4040 N   0  0  0  0  0  0  0  0  0  0  0  0
  -32.3270  -14.6520   20.5100 O   0  0  0  0  0  0  0  0  0  0  0  0
  -30.4890  -15.4270   21.5450 N   0  0  0  0  0  0  0  0  0  0  0  0
  -29.7530  -15.0510   22.1270 H   0  0  0  0  0  0  0  0  0  0  0  0
  -25.5810  -14.6300   20.4290 C   0  0  0  0  0  0  0  0  0  0  0  0
  -24.4750  -13.8930   20.7560 C   0  0  0  0  0  0  0  0  0  0  0  0
  -24.9100  -12.5340   20.8240 C   0  0  0  0  0  0  0  0  0  0  0  0
  -26.6210  -13.7190   20.3160 N   0  0  0  0  0  0  0  0  0  0  0  0
  -26.2170  -12.4580   20.6130 N   0  0  0  0  0  0  0  0  0  0  0  0
  -24.1520  -11.2920   21.0210 C   0  0  0  0  0  0  0  0  0  0  0  0
  -24.4330  -10.4200   22.0950 C   0  0  0  0  0  3  0  0  0  0  0  0
  -23.6800   -9.2400   22.2730 C   0  0  0  0  0  3  0  0  0  0  0  0
  -22.6310   -8.9250   21.3750 C   0  0  0  0  0  0  0  0  0  0  0  0
  -22.3730   -9.7850   20.2950 C   0  0  0  0  0  3  0  0  0  0  0  0
  -23.1270  -10.9570   20.1160 C   0  0  0  0  0  3  0  0  0  0  0  0
  -21.8640   -7.7880   21.4550 O   0  0  0  0  0  0  0  0  0  0  0  0
  -21.7760   -7.0600   22.6140 C   0  0  0  0  0  0  0  0  0  0  0  0
  -21.1330   -7.5640   23.7660 C   0  0  0  0  0  3  0  0  0  0  0  0
  -21.0050   -6.7540   24.9120 C   0  0  0  0  0  3  0  0  0  0  0  0
  -21.5100   -5.4410   24.9070 C   0  0  0  0  0  0  0  0  0  0  0  0
  -22.1460   -4.9340   23.7590 C   0  0  0  0  0  3  0  0  0  0  0  0
  -22.2750   -5.7420   22.6150 C   0  0  0  0  0  0  0  0  0  0  0  0
  -22.8700   -5.2420   21.5050 F   0  0  0  0  0  0  0  0  0  0  0  0
  -21.3820   -4.6590   26.0050 F   0  0  0  0  0  0  0  0  0  0  0  0
  -23.0700  -14.4020   20.9070 C   0  0  0  0  0  0  0  0  0  0  0  0
  -22.2760  -13.7640   21.7600 N   0  0  0  0  0  0  0  0  0  0  0  0
  -22.6840  -15.4020   20.3030 O   0  0  0  0  0  0  0  0  0  0  0  0
  -22.6000  -12.9560   22.2700 H   0  0  0  0  0  0  0  0  0  0  0  0
  -21.3310  -14.0900   21.9060 H   0  0  0  0  0  0  0  0  0  0  0  0
  -25.7880  -15.9860   20.2010 N   0  0  0  0  0  0  0  0  0  0  0  0
  -25.0330  -16.6610   20.2390 H   0  0  0  0  0  0  0  0  0  0  0  0
  -26.6720  -16.3980   19.9330 H   0  0  0  0  0  0  0  0  0  0  0  0
  -27.7090  -23.2400   19.0240 C   0  0  0  0  0  2  0  0  0  0  0  0
  -28.7760  -23.7200   20.0150 C   0  0  0  0  0  0  0  0  0  0  0  0
  -29.6940  -22.9770   20.3860 O   0  0  0  0  0  0  0  0  0  0  0  0
  -28.6310  -25.1470   20.5400 C   0  0  0  0  0  2  0  0  0  0  0  0
  -29.9400  -25.9620   20.6110 C   0  0  0  0  0  2  0  0  0  0  0  0
  -30.6010  -26.0020   22.0060 C   0  0  0  0  0  2  0  0  0  0  0  0
  -31.0230  -27.4240   22.4340 C   0  0  0  0  0  2  0  0  0  0  0  0
  -30.0660  -28.0680   23.2770 O   0  0  0  0  0  0  0  0  0  0  0  0
  -24.4560  -32.4250   23.0200 C   0  0  0  0  0  0  0  0  0  0  0  0
  -28.8330  -28.3230   22.7230 C   0  0  0  0  0  0  0  0  0  0  0  0
  -24.1960  -30.2660   21.8420 C   0  0  0  0  0  3  0  0  0  0  0  0
  -26.3240  -28.8980   21.5640 C   0  0  0  0  0  0  0  0  0  0  0  0
  -26.5060  -31.3230   22.1360 C   0  0  0  0  0  2  0  0  0  0  0  0
  -27.0760  -29.9230   22.1510 C   0  0  0  0  0  0  0  0  0  0  0  0
  -28.3290  -29.6420   22.7360 C   0  0  0  0  0  3  0  0  0  0  0  0
  -28.0420  -27.2960   22.1640 C   0  0  0  0  0  3  0  0  0  0  0  0
  -26.7980  -27.5760   21.5760 C   0  0  0  0  0  3  0  0  0  0  0  0
  -24.9990  -29.2820   20.9510 C   0  0  0  0  0  2  0  0  0  0  0  0
  -25.0470  -31.3750   22.3840 N   0  0  0  0  0  0  0  0  0  0  0  0
  -23.2230  -32.5000   23.1250 O   0  0  0  0  0  0  0  0  0  0  0  0
  -23.4720  -29.4540   22.9410 C   0  0  0  0  0  0  0  0  0  0  0  0
  -22.2680  -28.9580   22.6210 N   0  0  0  0  0  0  0  0  0  0  0  0
  -24.0040  -29.2590   24.0370 O   0  0  0  0  0  0  0  0  0  0  0  0
  -21.8990  -29.1660   21.7030 H   0  0  0  0  0  0  0  0  0  0  0  0
  -18.8820  -27.8020   23.1220 C   0  0  0  0  0  0  0  0  0  0  0  0
  -21.4190  -28.1360   23.4820 C   0  0  0  0  0  3  0  0  0  0  0  0
  -21.5620  -26.6370   23.1360 C   0  0  0  0  0  2  0  0  0  0  0  0
  -20.5170  -26.1470   22.1290 C   0  0  0  0  0  2  0  0  0  0  0  0
  -19.1020  -26.3680   22.6720 C   0  0  0  0  0  2  0  0  0  0  0  0
  -19.9700  -28.6380   23.4870 C   0  0  0  0  0  0  0  0  0  0  0  0
  -19.7120  -29.9730   23.8650 C   0  0  0  0  0  3  0  0  0  0  0  0
  -18.3970  -30.4740   23.8820 C   0  0  0  0  0  3  0  0  0  0  0  0
  -17.3220  -29.6400   23.5330 C   0  0  0  0  0  3  0  0  0  0  0  0
  -17.5650  -28.3050   23.1580 C   0  0  0  0  0  3  0  0  0  0  0  0
  -25.2950  -33.5920   23.6290 C   0  0  0  0  0  3  0  0  0  0  0  0
  -25.7770  -33.3080   25.1040 C   0  0  1  0  0  0  0  0  0  0  0  0
  -24.7600  -32.5060   25.9490 C   0  0  0  0  0  1  0  0  0  0  0  0
  -27.1090  -32.5220   25.0990 C   0  0  0  0  0  1  0  0  0  0  0  0
  -26.0540  -34.6460   25.8300 C   0  0  0  0  0  1  0  0  0  0  0  0
  -24.4700  -34.8050   23.5730 N   0  0  0  0  0  0  0  0  0  0  0  0
  -24.6290  -35.7890   22.6780 C   0  0  0  0  0  0  0  0  0  0  0  0
  -25.5430  -35.8030   21.8490 O   0  0  0  0  0  0  0  0  0  0  0  0
  -23.6700  -34.8380   24.1870 H   0  0  0  0  0  0  0  0  0  0  0  0
  -22.6910  -36.8510   21.4760 C   0  0  0  0  0  1  0  0  0  0  0  0
  -23.6080  -36.9420   22.7070 C   0  0  0  0  0  3  0  0  0  0  0  0
  -24.9310  -38.5390   24.0210 C   0  0  0  0  0  1  0  0  0  0  0  0
  -24.2360  -38.2800   22.7630 N   0  0  0  0  0  0  0  0  0  0  0  0
  -23.5400  -39.0100   22.6300 H   0  0  0  0  0  0  0  0  0  0  0  0
  -26.2270  -20.4700   17.0400 C   0  0  0  0  0  2  0  0  0  0  0  0
  -24.8420  -20.4850   17.7010 C   0  0  0  0  0  2  0  0  0  0  0  0
  -23.8950  -19.6590   16.9380 N   0  0  0  0  0  4  0  0  0  0  0  0
  -23.8680  -19.9630   15.9820 H   0  0  0  0  0  0  0  0  0  0  0  0
  -22.9730  -19.7110   17.3320 H   0  0  0  0  0  0  0  0  0  0  0  0
  -24.2240  -18.7100   16.9610 H   0  0  0  0  0  0  0  0  0  0  0  0
  1  4  1  0
  2  5  1  0
  3  1  2  0
  4  6  1  0
  4 11  1  0
  5  1  1  0
  5 51  1  0
  7  9  1  0
  8 10  2  0
  8 11  1  0
 10 12  1  0
 11  7  2  0
 12 21  1  0
 12  9  2  0
 13 21  1  0
 14 19  1  0
 15 16  1  0
 15 14  1  0
 17 16  1  0
 17 26  1  0
 17 18  1  0
 19 13  1  0
 19 18  1  0
 20 13  2  0
 21 22  1  0
 23 24  2  0
 24 25  1  0
 24 43  1  0
 25 28  1  0
 26 23  1  0
 26 27  1  0
 27 25  2  0
 28 29  1  0
 29 30  2  0
 31 34  1  0
 31 30  1  0
 32 31  2  0
 33 32  1  0
 33 28  2  0
 34 35  1  0
 35 40  2  0
 35 36  1  0
 36 37  2  0
 38 37  1  0
 38 42  1  0
 39 38  2  0
 40 39  1  0
 41 40  1  0
 43 44  1  0
 44 47  1  0
 44 46  1  0
 45 43  2  0
 48 49  1  0
 48 23  1  0
 50 48  1  0
 51 52  1  0
 52 53  2  0
 52 54  1  0
 54 55  1  0
 55 56  1  0
 56 57  1  0
 57 58  1  0
 59 70  2  0
 60 65  1  0
 60 58  1  0
 61 69  1  0
 61 71  1  0
 62 67  2  0
 62 64  1  0
 63 64  1  0
 63 69  1  0
 64 65  2  0
 66 60  2  0
 67 66  1  0
 68 62  1  0
 68 61  1  0
 69 59  1  0
 71 73  2  0
 72 71  1  0
 74 72  1  0
 75 84  2  0
 75 80  1  0
 76 72  1  0
 76 80  1  0
 77 76  1  0
 78 79  1  0
 78 77  1  0
 79 75  1  0
 80 81  2  0
 81 82  1  0
 83 82  2  0
 84 83  1  0
 85 59  1  0
 85 86  1  0
 86 89  1  1
 86 87  1  0
 88 86  1  0
 90 85  1  0
 90 93  1  0
 91 95  1  0
 91 90  1  0
 92 91  2  0
 95 94  1  0
 95 97  1  0
 97 96  1  0
 98 97  1  0
 99100  1  0
 99  3  1  0
101104  1  0
101103  1  0
101100  1  0
102101  1  0
M  ISO  4  13 100  21 100  57 101  58 101
M  END
>  <TORSDO>  (21) 
F 26

>  <SCORE>  (21) 
-0.991

>  <name>  (21) 
20

>  <ligand_id>  (21) 
20

>  <original_smiles>  (21) 
[H]c1c([H])c([H])c2c(c1[H])C([H])([H])C([H])([H])C([H])([H])C2([H])N([H])C(=O)C1([H])N(C(=O)C([H])(N([H])C(=O)C([H])(N([H])C([H])([H])[H])C([H])([H])[H])C(C([H])([H])[H])(C([H])([H])[H])C([H])([H])[H])C([H])([H])c2c([H])c(OC([H])([H])C([H])([H])C([H])([H])C([H])([H])C(=O)C([H])([H])N(C(=NC([H])([H])C([H])([H])[N+]([H])([H])[H])N([H])c3c([H])c([H])c(N([H])C(=O)N4C([H])([H])C([H])([H])C([H])([H])C([H])(n5nc(-c6c([H])c([H])c(Oc7c([H])c([H])c(F)c([H])c7F)c([H])c6[H])c(C(=O)N([H])[H])c5N([H])[H])C4([H])[H])c([H])c3[H])C([H])([H])[H])c([H])c([H])c2C1([H])[H]

>  <smiles>  (21) 
[H]c1c([H])c([H])c2c(c1[H])C([H])([H])C([H])([H])C([H])([H])C2([H])N([H])C(=O)C1([H])N(C(=O)C([H])(N([H])C(=O)C([H])(N([H])C([H])([H])[H])C([H])([H])[H])C(C([H])([H])[H])(C([H])([H])[H])C([H])([H])[H])C([H])([H])c2c([H])c(OC([H])([H])C([H])([H])C([H])([H])C([H])([H])C(=O)C([H])([H])N(C(=NC([H])([H])C([H])([H])[N+]([H])([H])[H])N([H])c3c([H])c([H])c(N([H])C(=O)N4C([H])([H])C([H])([H])C([H])([H])C([H])(n5nc(-c6c([H])c([H])c(Oc7c([H])c([H])c(F)c([H])c7F)c([H])c6[H])c(C(=O)N([H])[H])c5N([H])[H])C4([H])[H])c([H])c3[H])C([H])([H])[H])c([H])c([H])c2C1([H])[H]

$$$$
21:0:0
     RDKit          3D

 99107  0  0  1  0  0  0  0  0999 V2000
  -30.8080  -22.8000   17.3930 O   0  0  0  0  0  0  0  0  0  0  0  0
  -31.2650  -19.3980   18.8370 C   0  0  0  0  0  3  0  0  0  0  0  0
  -31.0820  -21.0520   20.6140 C   0  0  0  0  0  3  0  0  0  0  0  0
  -31.1110  -20.4090   17.8720 C   0  0  0  0  0  3  0  0  0  0  0  0
  -30.9450  -22.0650   19.6460 C   0  0  0  0  0  3  0  0  0  0  0  0
  -31.2300  -19.7040   20.2180 C   0  0  0  0  0  0  0  0  0  0  0  0
  -30.9470  -21.7550   18.2720 C   0  0  0  0  0  0  0  0  0  0  0  0
  -30.6170  -17.5290   21.1160 C   0  0  0  0  0  0  0  0  0  0  0  0
  -32.2790  -18.8850   22.3210 C   0  0  0  0  0  1  0  0  0  0  0  0
  -31.3590  -18.6670   21.1960 N   0  0  0  0  0  0  0  0  0  0  0  0
  -29.6700  -17.4010   20.3280 O   0  0  0  0  0  0  0  0  0  0  0  0
  -30.9230  -16.3530   22.0650 C   0  0  0  0  0  2  0  0  0  0  0  0
  -30.7000  -14.4500   20.4730 C   0  0  0  0  0  0  0  0  0  0  0  0
  -30.3060  -12.4510   19.0870 C   0  0  0  0  0  2  0  0  0  0  0  0
  -29.3370  -12.7240   17.9240 C   0  0  0  0  0  2  0  0  0  0  0  0
  -27.8750  -12.5550   18.3780 C   0  0  0  0  0  2  0  0  0  0  0  0
  -27.5670  -13.3350   19.6820 C   0  0  0  0  0  3  0  0  0  0  0  0
  -28.6330  -13.0380   20.7600 C   0  0  0  0  0  2  0  0  0  0  0  0
  -29.9650  -13.3440   20.2020 N   0  0  0  0  0  0  0  0  0  0  0  0
  -31.6710  -14.8100   19.7990 O   0  0  0  0  0  0  0  0  0  0  0  0
  -30.3420  -15.0940   21.5910 N   0  0  0  0  0  0  0  0  0  0  0  0
  -29.5460  -14.7320   22.0930 H   0  0  0  0  0  0  0  0  0  0  0  0
  -25.1640  -13.9200   20.4050 C   0  0  0  0  0  0  0  0  0  0  0  0
  -24.1060  -13.1360   20.7850 C   0  0  0  0  0  0  0  0  0  0  0  0
  -24.5830  -11.7900   20.7510 C   0  0  0  0  0  0  0  0  0  0  0  0
  -26.2170  -13.0500   20.1670 N   0  0  0  0  0  0  0  0  0  0  0  0
  -25.8700  -11.7630   20.4290 N   0  0  0  0  0  0  0  0  0  0  0  0
  -23.8740  -10.5180   20.9500 C   0  0  0  0  0  0  0  0  0  0  0  0
  -24.2960   -9.5800   21.9170 C   0  0  0  0  0  3  0  0  0  0  0  0
  -23.5870   -8.3740   22.1010 C   0  0  0  0  0  3  0  0  0  0  0  0
  -22.4410   -8.0980   21.3190 C   0  0  0  0  0  0  0  0  0  0  0  0
  -22.0380   -9.0250   20.3420 C   0  0  0  0  0  3  0  0  0  0  0  0
  -22.7490  -10.2230   20.1550 C   0  0  0  0  0  3  0  0  0  0  0  0
  -21.7060   -6.9400   21.4100 O   0  0  0  0  0  0  0  0  0  0  0  0
  -21.6150   -6.2360   22.5840 C   0  0  0  0  0  0  0  0  0  0  0  0
  -21.0790   -6.8090   23.7570 C   0  0  0  0  0  3  0  0  0  0  0  0
  -20.9410   -6.0280   24.9230 C   0  0  0  0  0  3  0  0  0  0  0  0
  -21.3290   -4.6750   24.9150 C   0  0  0  0  0  0  0  0  0  0  0  0
  -21.8580   -4.1010   23.7450 C   0  0  0  0  0  3  0  0  0  0  0  0
  -21.9980   -4.8790   22.5820 C   0  0  0  0  0  0  0  0  0  0  0  0
  -22.4890   -4.3160   21.4520 F   0  0  0  0  0  0  0  0  0  0  0  0
  -21.1880   -3.9220   26.0300 F   0  0  0  0  0  0  0  0  0  0  0  0
  -22.7070  -13.5980   21.0740 C   0  0  0  0  0  0  0  0  0  0  0  0
  -21.9940  -12.8870   21.9420 N   0  0  0  0  0  0  0  0  0  0  0  0
  -22.2540  -14.6220   20.5650 O   0  0  0  0  0  0  0  0  0  0  0  0
  -22.3730  -12.0590   22.3750 H   0  0  0  0  0  0  0  0  0  0  0  0
  -21.0550  -13.1790   22.1760 H   0  0  0  0  0  0  0  0  0  0  0  0
  -25.3120  -15.2910   20.2260 N   0  0  0  0  0  0  0  0  0  0  0  0
  -24.5450  -15.9430   20.3450 H   0  0  0  0  0  0  0  0  0  0  0  0
  -26.1680  -15.7380   19.9180 H   0  0  0  0  0  0  0  0  0  0  0  0
  -30.3230  -22.5220   16.0830 C   0  0  0  0  0  2  0  0  0  0  0  0
  -30.0910  -23.8690   15.3860 C   0  0  0  0  0  2  0  0  0  0  0  0
  -29.0970  -24.7580   16.1540 C   0  0  0  0  0  2  0  0  0  0  0  0
  -29.1500  -26.2440   15.7500 C   0  0  0  0  0  2  0  0  0  0  0  0
  -28.9920  -27.1780   16.9630 C   0  0  0  0  0  2  0  0  0  0  0  0
  -30.2900  -27.2780   17.7920 C   0  0  0  0  0  2  0  0  0  0  0  0
  -30.1640  -28.0720   19.1070 C   0  0  0  0  0  2  0  0  0  0  0  0
  -29.7380  -27.2280   20.3280 C   0  0  0  0  0  2  0  0  0  0  0  0
  -28.4620  -26.6160   20.1500 O   0  0  0  0  0  0  0  0  0  0  0  0
  -24.5560  -31.7770   23.2120 C   0  0  0  0  0  0  0  0  0  0  0  0
  -27.3170  -27.3820   20.1930 C   0  0  0  0  0  0  0  0  0  0  0  0
  -23.3840  -30.3530   21.5570 C   0  0  0  0  0  3  0  0  0  0  0  0
  -24.8780  -28.8180   20.1710 C   0  0  0  0  0  0  0  0  0  0  0  0
  -25.9040  -30.7450   21.3960 C   0  0  0  0  0  2  0  0  0  0  0  0
  -26.0160  -29.3740   20.7660 C   0  0  0  0  0  0  0  0  0  0  0  0
  -27.2370  -28.6700   20.7740 C   0  0  0  0  0  3  0  0  0  0  0  0
  -26.1560  -26.8250   19.6200 C   0  0  0  0  0  3  0  0  0  0  0  0
  -24.9400  -27.5380   19.5910 C   0  0  0  0  0  3  0  0  0  0  0  0
  -23.6230  -29.6620   20.1870 C   0  0  0  0  0  2  0  0  0  0  0  0
  -24.6310  -30.9730   22.1140 N   0  0  0  0  0  0  0  0  0  0  0  0
  -23.4660  -32.0450   23.7360 O   0  0  0  0  0  0  0  0  0  0  0  0
  -22.7290  -29.3340   22.5160 C   0  0  0  0  0  0  0  0  0  0  0  0
  -21.4020  -29.1650   22.3940 N   0  0  0  0  0  0  0  0  0  0  0  0
  -23.4120  -28.6980   23.3220 O   0  0  0  0  0  0  0  0  0  0  0  0
  -20.9110  -29.7340   21.7180 H   0  0  0  0  0  0  0  0  0  0  0  0
  -18.0140  -28.0510   22.9530 C   0  0  0  0  0  0  0  0  0  0  0  0
  -20.5840  -28.2330   23.1680 C   0  0  0  0  0  3  0  0  0  0  0  0
  -20.6300  -26.8120   22.5590 C   0  0  0  0  0  2  0  0  0  0  0  0
  -19.4960  -26.5430   21.5650 C   0  0  0  0  0  2  0  0  0  0  0  0
  -18.1360  -26.7110   22.2470 C   0  0  0  0  0  2  0  0  0  0  0  0
  -19.1630  -28.7720   23.3730 C   0  0  0  0  0  0  0  0  0  0  0  0
  -18.9950  -30.0280   23.9950 C   0  0  0  0  0  3  0  0  0  0  0  0
  -17.7100  -30.5630   24.2000 C   0  0  0  0  0  3  0  0  0  0  0  0
  -16.5750  -29.8390   23.7970 C   0  0  0  0  0  3  0  0  0  0  0  0
  -16.7280  -28.5840   23.1790 C   0  0  0  0  0  3  0  0  0  0  0  0
  -25.8320  -32.4210   23.8430 C   0  0  0  0  0  3  0  0  0  0  0  0
  -25.5020  -33.8110   24.1820 N   0  0  0  0  0  0  0  0  0  0  0  0
  -25.8190  -34.8720   23.4290 C   0  0  0  0  0  0  0  0  0  0  0  0
  -26.4910  -34.7870   22.3970 O   0  0  0  0  0  0  0  0  0  0  0  0
  -24.8980  -33.9500   24.9800 H   0  0  0  0  0  0  0  0  0  0  0  0
  -24.0690  -36.6420   23.0760 C   0  0  0  0  0  1  0  0  0  0  0  0
  -25.3100  -36.2490   23.8930 C   0  0  0  0  0  3  0  0  0  0  0  0
  -27.4210  -37.1610   24.7560 C   0  0  0  0  0  1  0  0  0  0  0  0
  -26.3280  -37.3160   23.7980 N   0  0  0  0  0  0  0  0  0  0  0  0
  -25.9070  -38.2310   23.9440 H   0  0  0  0  0  0  0  0  0  0  0  0
  -26.3620  -31.6420   25.1100 C   0  0  1  0  0  0  0  0  0  0  0  0
  -25.2710  -31.3630   26.1660 C   0  0  0  0  0  1  0  0  0  0  0  0
  -26.9750  -30.2830   24.7020 C   0  0  0  0  0  1  0  0  0  0  0  0
  -27.4910  -32.4500   25.7930 C   0  0  0  0  0  1  0  0  0  0  0  0
  1  7  1  0
  2  6  1  0
  4  7  1  0
  4  2  2  0
  5  3  1  0
  6  3  2  0
  6 10  1  0
  7  5  2  0
  8 10  1  0
  8 12  1  0
 10  9  1  0
 11  8  2  0
 13 21  1  0
 14 19  1  0
 15 16  1  0
 15 14  1  0
 17 16  1  0
 17 26  1  0
 17 18  1  0
 19 13  1  0
 19 18  1  0
 20 13  2  0
 21 12  1  0
 21 22  1  0
 23 24  2  0
 24 43  1  0
 25 24  1  0
 25 28  1  0
 26 23  1  0
 26 27  1  0
 27 25  2  0
 28 29  1  0
 29 30  2  0
 31 34  1  0
 31 30  1  0
 32 31  2  0
 33 32  1  0
 33 28  2  0
 34 35  1  0
 35 36  1  0
 36 37  2  0
 38 37  1  0
 38 42  1  0
 39 38  2  0
 40 35  2  0
 40 39  1  0
 41 40  1  0
 43 44  1  0
 44 47  1  0
 44 46  1  0
 45 43  2  0
 48 49  1  0
 48 23  1  0
 50 48  1  0
 51  1  1  0
 52 51  1  0
 52 53  1  0
 54 53  1  0
 54 55  1  0
 55 56  1  0
 56 57  1  0
 57 58  1  0
 59 61  1  0
 59 58  1  0
 60 71  2  0
 61 66  1  0
 62 70  1  0
 62 72  1  0
 63 69  1  0
 63 65  1  0
 64 70  1  0
 65 66  2  0
 65 64  1  0
 67 61  2  0
 68 67  1  0
 68 63  2  0
 69 62  1  0
 70 60  1  0
 72 74  2  0
 73 72  1  0
 75 73  1  0
 76 85  2  0
 76 81  1  0
 77 73  1  0
 77 81  1  0
 78 77  1  0
 79 80  1  0
 79 78  1  0
 80 76  1  0
 81 82  2  0
 82 83  1  0
 84 83  2  0
 85 84  1  0
 86 60  1  0
 86 87  1  0
 86 96  1  0
 87 90  1  0
 88 92  1  0
 88 87  1  0
 89 88  2  0
 92 91  1  0
 94 92  1  0
 94 95  1  0
 94 93  1  0
 96 99  1  1
 96 97  1  0
 98 96  1  0
M  ISO  4  13 100  21 100  58 101  59 101
M  END
>  <TORSDO>  (22) 
F 27

>  <SCORE>  (22) 
-11.447

>  <name>  (22) 
21

>  <ligand_id>  (22) 
21

>  <original_smiles>  (22) 
[H]c1c([H])c([H])c2c(c1[H])C([H])([H])C([H])([H])C([H])([H])C2([H])N([H])C(=O)C1([H])N(C(=O)C([H])(N([H])C(=O)C([H])(N([H])C([H])([H])[H])C([H])([H])[H])C(C([H])([H])[H])(C([H])([H])[H])C([H])([H])[H])C([H])([H])c2c([H])c(OC([H])([H])C([H])([H])C([H])([H])C([H])([H])C([H])([H])C([H])([H])C([H])([H])C([H])([H])Oc3c([H])c([H])c(N(C(=O)C([H])([H])N([H])C(=O)N4C([H])([H])C([H])([H])C([H])([H])C([H])(n5nc(-c6c([H])c([H])c(Oc7c([H])c([H])c(F)c([H])c7F)c([H])c6[H])c(C(=O)N([H])[H])c5N([H])[H])C4([H])[H])C([H])([H])[H])c([H])c3[H])c([H])c([H])c2C1([H])[H]

>  <smiles>  (22) 
[H]c1c([H])c([H])c2c(c1[H])C([H])([H])C([H])([H])C([H])([H])C2([H])N([H])C(=O)C1([H])N(C(=O)C([H])(N([H])C(=O)C([H])(N([H])C([H])([H])[H])C([H])([H])[H])C(C([H])([H])[H])(C([H])([H])[H])C([H])([H])[H])C([H])([H])c2c([H])c(OC([H])([H])C([H])([H])C([H])([H])C([H])([H])C([H])([H])C([H])([H])C([H])([H])C([H])([H])Oc3c([H])c([H])c(N(C(=O)C([H])([H])N([H])C(=O)N4C([H])([H])C([H])([H])C([H])([H])C([H])(n5nc(-c6c([H])c([H])c(Oc7c([H])c([H])c(F)c([H])c7F)c([H])c6[H])c(C(=O)N([H])[H])c5N([H])[H])C4([H])[H])C([H])([H])[H])c([H])c3[H])c([H])c([H])c2C1([H])[H]

$$$$
22:0:0
     RDKit          3D

 97105  0  0  1  0  0  0  0  0999 V2000
  -29.8120  -21.0180   22.4480 C   0  0  0  0  0  3  0  0  0  0  0  0
  -29.4620  -22.3810   22.5440 C   0  0  0  0  0  3  0  0  0  0  0  0
  -30.9750  -22.9110   20.7190 C   0  0  0  0  0  3  0  0  0  0  0  0
  -31.3370  -21.5520   20.6190 C   0  0  0  0  0  0  0  0  0  0  0  0
  -30.7420  -20.5930   21.4720 C   0  0  0  0  0  0  0  0  0  0  0  0
  -30.0320  -23.3420   21.6830 C   0  0  0  0  0  0  0  0  0  0  0  0
  -32.3480  -21.1410   19.5580 C   0  0  0  0  0  1  0  0  0  0  0  0
  -30.3350  -18.1520   21.2750 C   0  0  0  0  0  0  0  0  0  0  0  0
  -31.1260  -19.2380   21.3100 N   0  0  0  0  0  0  0  0  0  0  0  0
  -29.3040  -18.0060   21.9340 O   0  0  0  0  0  0  0  0  0  0  0  0
  -31.9850  -19.1140   20.7940 H   0  0  0  0  0  0  0  0  0  0  0  0
  -30.8120  -17.0640   20.2990 C   0  0  0  0  0  3  0  0  0  0  0  0
  -31.0420  -14.5830   20.3480 C   0  0  0  0  0  0  0  0  0  0  0  0
  -30.6500  -12.4720   19.1600 C   0  0  0  0  0  2  0  0  0  0  0  0
  -29.7140  -12.7490   17.9660 C   0  0  0  0  0  2  0  0  0  0  0  0
  -28.2350  -12.6650   18.3940 C   0  0  0  0  0  2  0  0  0  0  0  0
  -27.9310  -13.4450   19.7020 C   0  0  0  0  0  3  0  0  0  0  0  0
  -28.9920  -13.1800   20.7950 C   0  0  0  0  0  2  0  0  0  0  0  0
  -30.3150  -13.4440   20.2140 N   0  0  0  0  0  0  0  0  0  0  0  0
  -32.2170  -14.6650   19.9860 O   0  0  0  0  0  0  0  0  0  0  0  0
  -30.3470  -15.7000   20.6240 N   0  0  0  0  0  0  0  0  0  0  0  0
  -29.3870  -15.6080   20.9170 H   0  0  0  0  0  0  0  0  0  0  0  0
  -25.5330  -14.0710   20.3860 C   0  0  0  0  0  0  0  0  0  0  0  0
  -24.4570  -13.3090   20.7560 C   0  0  0  0  0  0  0  0  0  0  0  0
  -24.9130  -11.9560   20.7470 C   0  0  0  0  0  0  0  0  0  0  0  0
  -26.5750  -13.1830   20.1760 N   0  0  0  0  0  0  0  0  0  0  0  0
  -26.2050  -11.9050   20.4500 N   0  0  0  0  0  0  0  0  0  0  0  0
  -24.1780  -10.6990   20.9440 C   0  0  0  0  0  0  0  0  0  0  0  0
  -24.5850   -9.7490   21.9060 C   0  0  0  0  0  3  0  0  0  0  0  0
  -23.8530   -8.5570   22.0920 C   0  0  0  0  0  3  0  0  0  0  0  0
  -22.6980   -8.3060   21.3130 C   0  0  0  0  0  0  0  0  0  0  0  0
  -22.3100   -9.2440   20.3390 C   0  0  0  0  0  3  0  0  0  0  0  0
  -23.0440  -10.4270   20.1520 C   0  0  0  0  0  3  0  0  0  0  0  0
  -21.9380   -7.1660   21.4060 O   0  0  0  0  0  0  0  0  0  0  0  0
  -21.8330   -6.4620   22.5790 C   0  0  0  0  0  0  0  0  0  0  0  0
  -21.3450   -7.0570   23.7630 C   0  0  0  0  0  3  0  0  0  0  0  0
  -21.1890   -6.2780   24.9270 C   0  0  0  0  0  3  0  0  0  0  0  0
  -21.5150   -4.9090   24.9090 C   0  0  0  0  0  0  0  0  0  0  0  0
  -21.9970   -4.3160   23.7300 C   0  0  0  0  0  3  0  0  0  0  0  0
  -22.1540   -5.0900   22.5670 C   0  0  0  0  0  0  0  0  0  0  0  0
  -22.5970   -4.5070   21.4270 F   0  0  0  0  0  0  0  0  0  0  0  0
  -21.3590   -4.1600   26.0260 F   0  0  0  0  0  0  0  0  0  0  0  0
  -23.0600  -13.7970   21.0100 C   0  0  0  0  0  0  0  0  0  0  0  0
  -22.3210  -13.1200   21.8810 N   0  0  0  0  0  0  0  0  0  0  0  0
  -22.6310  -14.8160   20.4700 O   0  0  0  0  0  0  0  0  0  0  0  0
  -22.6800  -12.2970   22.3420 H   0  0  0  0  0  0  0  0  0  0  0  0
  -21.3820  -13.4310   22.0930 H   0  0  0  0  0  0  0  0  0  0  0  0
  -25.7050  -15.4390   20.1910 N   0  0  0  0  0  0  0  0  0  0  0  0
  -24.9360  -16.0940   20.2740 H   0  0  0  0  0  0  0  0  0  0  0  0
  -26.5580  -15.8690   19.8640 H   0  0  0  0  0  0  0  0  0  0  0  0
  -29.0490  -17.2960   18.3990 C   0  0  0  0  0  1  0  0  0  0  0  0
  -31.4690  -16.7870   17.7970 C   0  0  0  0  0  1  0  0  0  0  0  0
  -30.5250  -17.4530   18.8120 C   0  0  0  0  0  3  0  0  0  0  0  0
  -29.6080  -24.6470   21.8310 O   0  0  0  0  0  0  0  0  0  0  0  0
  -30.3530  -25.7030   21.2230 C   0  0  0  0  0  2  0  0  0  0  0  0
  -29.4770  -26.9600   21.1750 C   0  0  0  0  0  2  0  0  0  0  0  0
  -28.5150  -26.7660   20.1420 O   0  0  0  0  0  0  0  0  0  0  0  0
  -24.6410  -31.9060   23.2230 C   0  0  0  0  0  0  0  0  0  0  0  0
  -27.3710  -27.5260   20.1800 C   0  0  0  0  0  0  0  0  0  0  0  0
  -23.4570  -30.4860   21.5730 C   0  0  0  0  0  3  0  0  0  0  0  0
  -24.9430  -28.9660   20.1630 C   0  0  0  0  0  0  0  0  0  0  0  0
  -25.9740  -30.8910   21.3850 C   0  0  0  0  0  2  0  0  0  0  0  0
  -26.0830  -29.5190   20.7610 C   0  0  0  0  0  0  0  0  0  0  0  0
  -27.2970  -28.8060   20.7770 C   0  0  0  0  0  3  0  0  0  0  0  0
  -26.2210  -26.9870   19.5720 C   0  0  0  0  0  3  0  0  0  0  0  0
  -25.0040  -27.6940   19.5660 C   0  0  0  0  0  3  0  0  0  0  0  0
  -23.6860  -29.8040   20.1960 C   0  0  0  0  0  2  0  0  0  0  0  0
  -24.7080  -31.1090   22.1200 N   0  0  0  0  0  0  0  0  0  0  0  0
  -23.5540  -32.1640   23.7580 O   0  0  0  0  0  0  0  0  0  0  0  0
  -22.8190  -29.4580   22.5320 C   0  0  0  0  0  0  0  0  0  0  0  0
  -21.4960  -29.2680   22.4080 N   0  0  0  0  0  0  0  0  0  0  0  0
  -23.5090  -28.8330   23.3410 O   0  0  0  0  0  0  0  0  0  0  0  0
  -21.0010  -29.8230   21.7250 H   0  0  0  0  0  0  0  0  0  0  0  0
  -18.1260  -28.0840   22.9350 C   0  0  0  0  0  0  0  0  0  0  0  0
  -20.6870  -28.3250   23.1790 C   0  0  0  0  0  3  0  0  0  0  0  0
  -20.7770  -26.9020   22.5840 C   0  0  0  0  0  2  0  0  0  0  0  0
  -19.6610  -26.5960   21.5810 C   0  0  0  0  0  2  0  0  0  0  0  0
  -18.2870  -26.7420   22.2410 C   0  0  0  0  0  2  0  0  0  0  0  0
  -19.2530  -28.8340   23.3620 C   0  0  0  0  0  0  0  0  0  0  0  0
  -19.0490  -30.0930   23.9680 C   0  0  0  0  0  3  0  0  0  0  0  0
  -17.7490  -30.6000   24.1530 C   0  0  0  0  0  3  0  0  0  0  0  0
  -16.6360  -29.8460   23.7440 C   0  0  0  0  0  3  0  0  0  0  0  0
  -16.8250  -28.5890   23.1400 C   0  0  0  0  0  3  0  0  0  0  0  0
  -25.9190  -32.5510   23.8470 C   0  0  0  0  0  3  0  0  0  0  0  0
  -25.5960  -33.9470   24.1710 N   0  0  0  0  0  0  0  0  0  0  0  0
  -25.9280  -34.9980   23.4100 C   0  0  0  0  0  0  0  0  0  0  0  0
  -26.6090  -34.8980   22.3860 O   0  0  0  0  0  0  0  0  0  0  0  0
  -24.9960  -34.1000   24.9690 H   0  0  0  0  0  0  0  0  0  0  0  0
  -24.1960  -36.7780   23.0140 C   0  0  0  0  0  1  0  0  0  0  0  0
  -25.4200  -36.3830   23.8560 C   0  0  0  0  0  3  0  0  0  0  0  0
  -27.5270  -37.2810   24.7380 C   0  0  0  0  0  1  0  0  0  0  0  0
  -26.4470  -37.4440   23.7700 N   0  0  0  0  0  0  0  0  0  0  0  0
  -26.0310  -38.3610   23.9090 H   0  0  0  0  0  0  0  0  0  0  0  0
  -26.4440  -31.7860   25.1230 C   0  0  1  0  0  0  0  0  0  0  0  0
  -25.3510  -31.5330   26.1870 C   0  0  0  0  0  1  0  0  0  0  0  0
  -27.0450  -30.4160   24.7280 C   0  0  0  0  0  1  0  0  0  0  0  0
  -27.5830  -32.5930   25.7890 C   0  0  0  0  0  1  0  0  0  0  0  0
  1  2  1  0
  3  6  1  0
  4  3  2  0
  4  5  1  0
  5  1  2  0
  6 54  1  0
  6  2  2  0
  7  4  1  0
  8  9  1  0
  8 10  2  0
  9  5  1  0
 11  9  1  0
 12 53  1  0
 12 21  1  0
 12  8  1  0
 13 21  1  0
 14 19  1  0
 15 16  1  0
 15 14  1  0
 17 16  1  0
 17 26  1  0
 17 18  1  0
 19 13  1  0
 19 18  1  0
 20 13  2  0
 21 22  1  0
 23 24  2  0
 24 43  1  0
 25 24  1  0
 25 28  1  0
 26 23  1  0
 26 27  1  0
 27 25  2  0
 28 29  1  0
 29 30  2  0
 31 34  1  0
 31 30  1  0
 32 31  2  0
 33 32  1  0
 33 28  2  0
 34 35  1  0
 35 36  1  0
 36 37  2  0
 38 37  1  0
 38 42  1  0
 39 38  2  0
 40 35  2  0
 40 39  1  0
 41 40  1  0
 43 44  1  0
 44 47  1  0
 44 46  1  0
 45 43  2  0
 48 49  1  0
 48 23  1  0
 50 48  1  0
 51 53  1  0
 52 53  1  0
 55 54  1  0
 56 55  1  0
 57 59  1  0
 57 56  1  0
 58 69  2  0
 59 64  1  0
 60 68  1  0
 60 70  1  0
 61 67  1  0
 61 63  1  0
 62 68  1  0
 63 64  2  0
 63 62  1  0
 65 59  2  0
 66 65  1  0
 66 61  2  0
 67 60  1  0
 68 58  1  0
 70 72  2  0
 71 70  1  0
 73 71  1  0
 74 83  2  0
 74 79  1  0
 75 71  1  0
 75 79  1  0
 76 75  1  0
 77 78  1  0
 77 76  1  0
 78 74  1  0
 79 80  2  0
 80 81  1  0
 82 81  2  0
 83 82  1  0
 84 58  1  0
 84 85  1  0
 84 94  1  0
 85 88  1  0
 86 90  1  0
 86 85  1  0
 87 86  2  0
 90 89  1  0
 92 90  1  0
 92 93  1  0
 92 91  1  0
 94 97  1  1
 94 95  1  0
 96 94  1  0
M  ISO  4  13 100  21 100  56 101  57 101
M  END
>  <TORSDO>  (23) 
F 22

>  <SCORE>  (23) 
-12.670

>  <name>  (23) 
22

>  <ligand_id>  (23) 
22

>  <original_smiles>  (23) 
[H]c1c([H])c([H])c2c(c1[H])C([H])([H])C([H])([H])C([H])([H])C2([H])N([H])C(=O)C1([H])N(C(=O)C([H])(N([H])C(=O)C([H])(N([H])C([H])([H])[H])C([H])([H])[H])C(C([H])([H])[H])(C([H])([H])[H])C([H])([H])[H])C([H])([H])c2c([H])c(OC([H])([H])C([H])([H])Oc3c([H])c([H])c(N([H])C(=O)C([H])(N([H])C(=O)N4C([H])([H])C([H])([H])C([H])([H])C([H])(n5nc(-c6c([H])c([H])c(Oc7c([H])c([H])c(F)c([H])c7F)c([H])c6[H])c(C(=O)N([H])[H])c5N([H])[H])C4([H])[H])C([H])(C([H])([H])[H])C([H])([H])[H])c(C([H])([H])[H])c3[H])c([H])c([H])c2C1([H])[H]

>  <smiles>  (23) 
[H]c1c([H])c([H])c2c(c1[H])C([H])([H])C([H])([H])C([H])([H])C2([H])N([H])C(=O)C1([H])N(C(=O)C([H])(N([H])C(=O)C([H])(N([H])C([H])([H])[H])C([H])([H])[H])C(C([H])([H])[H])(C([H])([H])[H])C([H])([H])[H])C([H])([H])c2c([H])c(OC([H])([H])C([H])([H])Oc3c([H])c([H])c(N([H])C(=O)C([H])(N([H])C(=O)N4C([H])([H])C([H])([H])C([H])([H])C([H])(n5nc(-c6c([H])c([H])c(Oc7c([H])c([H])c(F)c([H])c7F)c([H])c6[H])c(C(=O)N([H])[H])c5N([H])[H])C4([H])[H])C([H])(C([H])([H])[H])C([H])([H])[H])c(C([H])([H])[H])c3[H])c([H])c([H])c2C1([H])[H]

$$$$
23:0:0
     RDKit          3D

 83 90  0  0  1  0  0  0  0  0999 V2000
  -27.9770  -23.9420   20.2520 C   0  0  0  0  0  3  0  0  0  0  0  0
  -28.1620  -25.6720   20.2750 O   0  0  0  0  0  0  0  0  0  0  0  0
  -24.6340  -31.8930   23.2090 C   0  0  0  0  0  0  0  0  0  0  0  0
  -27.1660  -26.8490   20.2330 C   0  0  0  0  0  0  0  0  0  0  0  0
  -23.4400  -30.4880   21.5810 C   0  0  0  0  0  3  0  0  0  0  0  0
  -24.8850  -28.8420   20.1730 C   0  0  0  0  0  0  0  0  0  0  0  0
  -26.0160  -30.6470   21.4440 C   0  0  0  0  0  2  0  0  0  0  0  0
  -26.0810  -29.2160   20.7960 C   0  0  0  0  0  0  0  0  0  0  0  0
  -27.2080  -28.2460   20.7930 C   0  0  0  0  0  3  0  0  0  0  0  0
  -25.9320  -26.6670   19.5590 C   0  0  0  0  0  3  0  0  0  0  0  0
  -24.8460  -27.5910   19.5320 C   0  0  0  0  0  3  0  0  0  0  0  0
  -23.6760  -29.7870   20.2130 C   0  0  0  0  0  2  0  0  0  0  0  0
  -24.7210  -31.0410   22.1300 N   0  0  0  0  0  0  0  0  0  0  0  0
  -23.5430  -32.1940   23.7230 O   0  0  0  0  0  0  0  0  0  0  0  0
  -22.7310  -29.5100   22.5560 C   0  0  0  0  0  0  0  0  0  0  0  0
  -21.3980  -29.3540   22.4330 N   0  0  0  0  0  0  0  0  0  0  0  0
  -23.3890  -28.8910   23.3950 O   0  0  0  0  0  0  0  0  0  0  0  0
  -20.9190  -29.9100   21.7390 H   0  0  0  0  0  0  0  0  0  0  0  0
  -18.0110  -28.1460   22.9530 C   0  0  0  0  0  0  0  0  0  0  0  0
  -20.5730  -28.4200   23.2090 C   0  0  0  0  0  3  0  0  0  0  0  0
  -20.6740  -26.9830   22.6430 C   0  0  0  0  0  2  0  0  0  0  0  0
  -19.5720  -26.6560   21.6300 C   0  0  0  0  0  2  0  0  0  0  0  0
  -18.1910  -26.7970   22.2780 C   0  0  0  0  0  2  0  0  0  0  0  0
  -19.1290  -28.9140   23.3750 C   0  0  0  0  0  0  0  0  0  0  0  0
  -18.9060  -30.1740   23.9730 C   0  0  0  0  0  3  0  0  0  0  0  0
  -17.5990  -30.6660   24.1490 C   0  0  0  0  0  3  0  0  0  0  0  0
  -16.4960  -29.8960   23.7400 C   0  0  0  0  0  3  0  0  0  0  0  0
  -16.7040  -28.6370   23.1480 C   0  0  0  0  0  3  0  0  0  0  0  0
  -25.9000  -32.5430   23.8440 C   0  0  0  0  0  3  0  0  0  0  0  0
  -26.4050  -31.7810   25.1330 C   0  0  1  0  0  0  0  0  0  0  0  0
  -25.3030  -31.5520   26.1950 C   0  0  0  0  0  1  0  0  0  0  0  0
  -26.9900  -30.4000   24.7650 C   0  0  0  0  0  1  0  0  0  0  0  0
  -27.5520  -32.5800   25.7960 C   0  0  0  0  0  1  0  0  0  0  0  0
  -25.5780  -33.9420   24.1850 N   0  0  0  0  0  0  0  0  0  0  0  0
  -25.8770  -35.0090   23.4300 C   0  0  0  0  0  0  0  0  0  0  0  0
  -26.5140  -34.9190   22.3770 O   0  0  0  0  0  0  0  0  0  0  0  0
  -25.0080  -34.0850   25.0050 H   0  0  0  0  0  0  0  0  0  0  0  0
  -24.1150  -36.7930   23.1700 C   0  0  0  0  0  1  0  0  0  0  0  0
  -25.4000  -36.3940   23.9170 C   0  0  0  0  0  3  0  0  0  0  0  0
  -27.5590  -37.3080   24.6490 C   0  0  0  0  0  1  0  0  0  0  0  0
  -26.4140  -37.4610   23.7560 N   0  0  0  0  0  0  0  0  0  0  0  0
  -26.0030  -38.3760   23.9220 H   0  0  0  0  0  0  0  0  0  0  0  0
  -29.0010  -22.3180   20.2390 C   0  0  0  0  0  3  0  0  0  0  0  0
  -28.7820  -20.4130   20.2980 C   0  0  0  0  0  3  0  0  0  0  0  0
  -29.8210  -18.7980   20.2210 C   0  0  0  0  0  3  0  0  0  0  0  0
  -30.3040  -15.6940   20.1720 C   0  0  0  0  0  0  0  0  0  0  0  0
  -30.3910  -13.1780   19.3000 C   0  0  0  0  0  2  0  0  0  0  0  0
  -29.4600  -12.7830   18.1200 C   0  0  0  0  0  2  0  0  0  0  0  0
  -28.0570  -12.4070   18.6230 C   0  0  0  0  0  2  0  0  0  0  0  0
  -27.5710  -13.3930   19.7060 C   0  0  0  0  0  3  0  0  0  0  0  0
  -28.6400  -13.6720   20.7900 C   0  0  0  0  0  2  0  0  0  0  0  0
  -29.7790  -14.3310   20.0990 N   0  0  0  0  0  0  0  0  0  0  0  0
  -31.5360  -15.6380   19.9800 O   0  0  0  0  0  0  0  0  0  0  0  0
  -28.0950  -16.9420   20.3360 C   0  0  0  0  0  1  0  0  0  0  0  0
  -29.5460  -17.0590   20.2530 N   0  0  0  0  0  0  0  0  0  0  0  0
  -25.2270  -13.9050   20.5530 C   0  0  0  0  0  0  0  0  0  0  0  0
  -24.1820  -13.1120   20.9300 C   0  0  0  0  0  0  0  0  0  0  0  0
  -24.6590  -11.7670   20.8520 C   0  0  0  0  0  0  0  0  0  0  0  0
  -26.2700  -13.0450   20.2580 N   0  0  0  0  0  0  0  0  0  0  0  0
  -25.9430  -11.7510   20.5060 N   0  0  0  0  0  0  0  0  0  0  0  0
  -23.9460  -10.4970   21.0300 C   0  0  0  0  0  0  0  0  0  0  0  0
  -24.3830   -9.5290   21.9600 C   0  0  0  0  0  3  0  0  0  0  0  0
  -23.6650   -8.3240   22.1280 C   0  0  0  0  0  3  0  0  0  0  0  0
  -22.4970   -8.0820   21.3680 C   0  0  0  0  0  0  0  0  0  0  0  0
  -22.0790   -9.0400   20.4260 C   0  0  0  0  0  3  0  0  0  0  0  0
  -22.7970  -10.2350   20.2560 C   0  0  0  0  0  3  0  0  0  0  0  0
  -21.7510   -6.9310   21.4470 O   0  0  0  0  0  0  0  0  0  0  0  0
  -21.6660   -6.2070   22.6100 C   0  0  0  0  0  0  0  0  0  0  0  0
  -21.1570   -6.7690   23.8010 C   0  0  0  0  0  3  0  0  0  0  0  0
  -21.0230   -5.9700   24.9530 C   0  0  0  0  0  3  0  0  0  0  0  0
  -21.3870   -4.6100   24.9160 C   0  0  0  0  0  0  0  0  0  0  0  0
  -21.8880   -4.0490   23.7290 C   0  0  0  0  0  3  0  0  0  0  0  0
  -22.0250   -4.8450   22.5780 C   0  0  0  0  0  0  0  0  0  0  0  0
  -22.4900   -4.2930   21.4300 F   0  0  0  0  0  0  0  0  0  0  0  0
  -21.2500   -3.8400   26.0200 F   0  0  0  0  0  0  0  0  0  0  0  0
  -22.7910  -13.5760   21.2460 C   0  0  0  0  0  0  0  0  0  0  0  0
  -22.0930  -12.8600   22.1190 N   0  0  0  0  0  0  0  0  0  0  0  0
  -22.3340  -14.6080   20.7550 O   0  0  0  0  0  0  0  0  0  0  0  0
  -22.4780  -12.0280   22.5390 H   0  0  0  0  0  0  0  0  0  0  0  0
  -21.1590  -13.1510   22.3740 H   0  0  0  0  0  0  0  0  0  0  0  0
  -25.3630  -15.2790   20.4050 N   0  0  0  0  0  0  0  0  0  0  0  0
  -24.5980  -15.9230   20.5720 H   0  0  0  0  0  0  0  0  0  0  0  0
  -26.2100  -15.7380   20.1030 H   0  0  0  0  0  0  0  0  0  0  0  0
  1  2  1  0
  3 14  2  0
  4  2  1  0
  4  9  1  0
  5 13  1  0
  5 15  1  0
  6 12  1  0
  6  8  1  0
  7 13  1  0
  8  7  1  0
  9  8  2  0
 10  4  2  0
 11 10  1  0
 11  6  2  0
 12  5  1  0
 13  3  1  0
 15 17  2  0
 16 15  1  0
 18 16  1  0
 19 28  2  0
 19 24  1  0
 20 16  1  0
 20 24  1  0
 21 20  1  0
 22 23  1  0
 22 21  1  0
 23 19  1  0
 24 25  2  0
 25 26  1  0
 27 26  2  0
 28 27  1  0
 29  3  1  0
 29 34  1  0
 29 30  1  0
 30 33  1  1
 30 31  1  0
 32 30  1  0
 34 37  1  0
 35 39  1  0
 35 34  1  0
 36 35  2  0
 39 38  1  0
 41 39  1  0
 41 42  1  0
 41 40  1  0
 43  1  2  0
 43 44  1  0
 45 55  1  0
 45 44  2  0
 46 55  1  0
 47 52  1  0
 48 49  1  0
 48 47  1  0
 50 49  1  0
 50 59  1  0
 50 51  1  0
 52 46  1  0
 52 51  1  0
 53 46  2  0
 55 54  1  0
 56 57  2  0
 57 76  1  0
 58 57  1  0
 58 61  1  0
 59 60  1  0
 59 56  1  0
 60 58  2  0
 61 62  1  0
 62 63  2  0
 64 67  1  0
 64 63  1  0
 65 64  2  0
 66 65  1  0
 66 61  2  0
 67 68  1  0
 68 69  1  0
 69 70  2  0
 71 70  1  0
 71 75  1  0
 72 71  2  0
 73 68  2  0
 73 72  1  0
 74 73  1  0
 76 77  1  0
 77 80  1  0
 77 79  1  0
 78 76  2  0
 81 56  1  0
 81 82  1  0
 83 81  1  0
M  ISO  4   1 101   2 101  46 100  55 100
M  END
>  <TORSDO>  (24) 
F 19

>  <SCORE>  (24) 
-16.403

>  <name>  (24) 
23

>  <ligand_id>  (24) 
23

>  <original_smiles>  (24) 
[H]c1c([H])c([H])c2c(c1[H])C([H])([H])C([H])([H])C([H])([H])C2([H])N([H])C(=O)C1([H])N(C(=O)C([H])(N([H])C(=O)C([H])(N([H])C([H])([H])[H])C([H])([H])[H])C(C([H])([H])[H])(C([H])([H])[H])C([H])([H])[H])C([H])([H])c2c([H])c(OC([H])([H])C([H])([H])C([H])([H])C([H])([H])N(C(=O)N3C([H])([H])C([H])([H])C([H])([H])C([H])(n4nc(-c5c([H])c([H])c(Oc6c([H])c([H])c(F)c([H])c6F)c([H])c5[H])c(C(=O)N([H])[H])c4N([H])[H])C3([H])[H])C([H])([H])[H])c([H])c([H])c2C1([H])[H]

>  <smiles>  (24) 
[H]c1c([H])c([H])c2c(c1[H])C([H])([H])C([H])([H])C([H])([H])C2([H])N([H])C(=O)C1([H])N(C(=O)C([H])(N([H])C(=O)C([H])(N([H])C([H])([H])[H])C([H])([H])[H])C(C([H])([H])[H])(C([H])([H])[H])C([H])([H])[H])C([H])([H])c2c([H])c(OC([H])([H])C([H])([H])C([H])([H])C([H])([H])N(C(=O)N3C([H])([H])C([H])([H])C([H])([H])C([H])(n4nc(-c5c([H])c([H])c(Oc6c([H])c([H])c(F)c([H])c6F)c([H])c5[H])c(C(=O)N([H])[H])c4N([H])[H])C3([H])[H])C([H])([H])[H])c([H])c([H])c2C1([H])[H]

$$$$
24:0:0
     RDKit          3D

103112  0  0  1  0  0  0  0  0999 V2000
  -29.6680  -22.6030   19.9600 C   0  0  0  0  0  0  0  0  0  0  0  0
  -27.5300  -20.9650   17.7700 C   0  0  0  0  0  2  0  0  0  0  0  0
  -26.5740  -20.5720   20.1200 C   0  0  0  0  0  2  0  0  0  0  0  0
  -27.7130  -22.3610   18.3770 C   0  0  0  0  0  2  0  0  0  0  0  0
  -27.5220  -21.6500   20.7050 C   0  0  0  0  0  2  0  0  0  0  0  0
  -27.1100  -19.9030   18.8270 C   0  0  0  0  0  3  0  0  0  0  0  0
  -28.3920  -22.2420   19.6720 N   0  0  0  0  0  0  0  0  0  0  0  0
  -30.0650  -22.6620   21.1300 O   0  0  0  0  0  0  0  0  0  0  0  0
  -28.4240  -17.9460   17.9530 C   0  0  0  0  0  3  0  0  0  0  0  0
  -28.8940  -18.6390   20.2380 C   0  0  0  0  0  3  0  0  0  0  0  0
  -29.3350  -16.8900   18.0880 C   0  0  0  0  0  3  0  0  0  0  0  0
  -29.7930  -17.5600   20.3900 C   0  0  0  0  0  3  0  0  0  0  0  0
  -28.1810  -18.8250   19.0270 C   0  0  0  0  0  0  0  0  0  0  0  0
  -29.9920  -16.6690   19.3150 C   0  0  0  0  0  0  0  0  0  0  0  0
  -31.3630  -14.9100   20.4290 C   0  0  0  0  0  0  0  0  0  0  0  0
  -31.2420  -12.5240   19.9680 C   0  0  0  0  0  2  0  0  0  0  0  0
  -30.4190  -12.3910   18.6640 C   0  0  0  0  0  2  0  0  0  0  0  0
  -28.9040  -12.3530   18.9620 C   0  0  0  0  0  2  0  0  0  0  0  0
  -28.4280  -13.4620   19.9410 C   0  0  0  0  0  3  0  0  0  0  0  0
  -29.3850  -13.5820   21.1560 C   0  0  0  0  0  2  0  0  0  0  0  0
  -30.7670  -13.7210   20.6610 N   0  0  0  0  0  0  0  0  0  0  0  0
  -32.5700  -15.1290   20.5230 O   0  0  0  0  0  0  0  0  0  0  0  0
  -30.7510  -15.4850   19.3900 N   0  0  0  0  0  0  0  0  0  0  0  0
  -30.4250  -14.7800   18.7470 H   0  0  0  0  0  0  0  0  0  0  0  0
  -26.0320  -14.2180   20.5010 C   0  0  0  0  0  0  0  0  0  0  0  0
  -24.8960  -13.5110   20.7840 C   0  0  0  0  0  0  0  0  0  0  0  0
  -25.2780  -12.1330   20.7780 C   0  0  0  0  0  0  0  0  0  0  0  0
  -27.0370  -13.2740   20.3380 N   0  0  0  0  0  0  0  0  0  0  0  0
  -26.5800  -12.0170   20.5630 N   0  0  0  0  0  0  0  0  0  0  0  0
  -24.4720  -10.9140   20.9050 C   0  0  0  0  0  0  0  0  0  0  0  0
  -24.7570   -9.9360   21.8850 C   0  0  0  0  0  3  0  0  0  0  0  0
  -23.9530   -8.7810   21.9980 C   0  0  0  0  0  3  0  0  0  0  0  0
  -22.8530   -8.5930   21.1270 C   0  0  0  0  0  0  0  0  0  0  0  0
  -22.5890   -9.5580   20.1390 C   0  0  0  0  0  3  0  0  0  0  0  0
  -23.3920  -10.7050   20.0250 C   0  0  0  0  0  3  0  0  0  0  0  0
  -22.0390   -7.4890   21.1450 O   0  0  0  0  0  0  0  0  0  0  0  0
  -21.7870   -6.8000   22.3040 C   0  0  0  0  0  0  0  0  0  0  0  0
  -21.2120   -7.4260   23.4320 C   0  0  0  0  0  3  0  0  0  0  0  0
  -20.9080   -6.6670   24.5790 C   0  0  0  0  0  3  0  0  0  0  0  0
  -21.1640   -5.2830   24.5960 C   0  0  0  0  0  0  0  0  0  0  0  0
  -21.7350   -4.6580   23.4740 C   0  0  0  0  0  3  0  0  0  0  0  0
  -22.0440   -5.4140   22.3300 C   0  0  0  0  0  0  0  0  0  0  0  0
  -22.5760   -4.8060   21.2440 F   0  0  0  0  0  0  0  0  0  0  0  0
  -20.8610   -4.5490   25.6930 F   0  0  0  0  0  0  0  0  0  0  0  0
  -23.5120  -14.0690   20.9590 C   0  0  0  0  0  0  0  0  0  0  0  0
  -22.6880  -13.4200   21.7740 N   0  0  0  0  0  0  0  0  0  0  0  0
  -23.1670  -15.1110   20.4020 O   0  0  0  0  0  0  0  0  0  0  0  0
  -22.9830  -12.5810   22.2490 H   0  0  0  0  0  0  0  0  0  0  0  0
  -21.7510  -13.7670   21.9240 H   0  0  0  0  0  0  0  0  0  0  0  0
  -26.2840  -15.5790   20.3490 N   0  0  0  0  0  0  0  0  0  0  0  0
  -25.5460  -16.2680   20.4350 H   0  0  0  0  0  0  0  0  0  0  0  0
  -27.1870  -15.9890   20.1380 H   0  0  0  0  0  0  0  0  0  0  0  0
  -30.6850  -22.9660   18.8470 C   0  0  0  0  0  3  0  0  0  0  0  0
  -31.1370  -25.4040   18.6310 C   0  0  0  0  0  0  0  0  0  0  0  0
  -31.2880  -24.2300   19.2480 N   0  0  0  0  0  0  0  0  0  0  0  0
  -30.7240  -25.5130   17.4750 O   0  0  0  0  0  0  0  0  0  0  0  0
  -31.6260  -24.2450   20.2010 H   0  0  0  0  0  0  0  0  0  0  0  0
  -31.4500  -26.6400   19.4750 C   0  0  0  0  0  2  0  0  0  0  0  0
  -30.2090  -27.5240   19.6750 C   0  0  0  0  0  2  0  0  0  0  0  0
  -29.2030  -26.8160   20.4030 O   0  0  0  0  0  0  0  0  0  0  0  0
  -24.8420  -31.6620   23.2630 C   0  0  0  0  0  0  0  0  0  0  0  0
  -27.9870  -27.4460   20.3840 C   0  0  0  0  0  0  0  0  0  0  0  0
  -23.8490  -30.2030   21.5270 C   0  0  0  0  0  3  0  0  0  0  0  0
  -25.4980  -28.7570   20.2260 C   0  0  0  0  0  0  0  0  0  0  0  0
  -26.3500  -30.7210   21.5240 C   0  0  0  0  0  2  0  0  0  0  0  0
  -26.5680  -29.3610   20.8990 C   0  0  0  0  0  0  0  0  0  0  0  0
  -27.8140  -28.7110   20.9820 C   0  0  0  0  0  3  0  0  0  0  0  0
  -26.9000  -26.8290   19.7340 C   0  0  0  0  0  3  0  0  0  0  0  0
  -25.6560  -27.4840   19.6460 C   0  0  0  0  0  3  0  0  0  0  0  0
  -24.2030  -29.5350   20.1700 C   0  0  0  0  0  2  0  0  0  0  0  0
  -25.0260  -30.8770   22.1650 N   0  0  0  0  0  0  0  0  0  0  0  0
  -23.7090  -31.8700   23.7190 O   0  0  0  0  0  0  0  0  0  0  0  0
  -23.1850  -29.1420   22.4330 C   0  0  0  0  0  0  0  0  0  0  0  0
  -21.8750  -28.9250   22.2340 N   0  0  0  0  0  0  0  0  0  0  0  0
  -23.8470  -28.5190   23.2670 O   0  0  0  0  0  0  0  0  0  0  0  0
  -21.4030  -29.4820   21.5360 H   0  0  0  0  0  0  0  0  0  0  0  0
  -18.5020  -27.6850   22.5890 C   0  0  0  0  0  0  0  0  0  0  0  0
  -21.0490  -27.9470   22.9400 C   0  0  0  0  0  3  0  0  0  0  0  0
  -21.1790  -26.5450   22.3010 C   0  0  0  0  0  2  0  0  0  0  0  0
  -20.1060  -26.2620   21.2450 C   0  0  0  0  0  2  0  0  0  0  0  0
  -18.7070  -26.3680   21.8600 C   0  0  0  0  0  2  0  0  0  0  0  0
  -19.6030  -28.4330   23.0830 C   0  0  0  0  0  0  0  0  0  0  0  0
  -19.3600  -29.6690   23.7210 C   0  0  0  0  0  3  0  0  0  0  0  0
  -18.0480  -30.1550   23.8720 C   0  0  0  0  0  3  0  0  0  0  0  0
  -16.9610  -29.4010   23.3980 C   0  0  0  0  0  3  0  0  0  0  0  0
  -17.1880  -28.1680   22.7620 C   0  0  0  0  0  3  0  0  0  0  0  0
  -26.0400  -32.3590   23.9830 C   0  0  0  0  0  3  0  0  0  0  0  0
  -25.6410  -33.7440   24.2650 N   0  0  0  0  0  0  0  0  0  0  0  0
  -25.9940  -34.8020   23.5210 C   0  0  0  0  0  0  0  0  0  0  0  0
  -26.7570  -34.7170   22.5550 O   0  0  0  0  0  0  0  0  0  0  0  0
  -24.9730  -33.8800   25.0090 H   0  0  0  0  0  0  0  0  0  0  0  0
  -24.2200  -36.5020   22.9880 C   0  0  0  0  0  1  0  0  0  0  0  0
  -25.4040  -36.1710   23.9110 C   0  0  0  0  0  3  0  0  0  0  0  0
  -27.4180  -37.1660   24.9010 C   0  0  0  0  0  1  0  0  0  0  0  0
  -26.3910  -37.2710   23.8680 N   0  0  0  0  0  0  0  0  0  0  0  0
  -25.9300  -38.1710   23.9710 H   0  0  0  0  0  0  0  0  0  0  0  0
  -26.4830  -31.6230   25.3070 C   0  0  1  0  0  0  0  0  0  0  0  0
  -25.3160  -31.3360   26.2800 C   0  0  0  0  0  1  0  0  0  0  0  0
  -27.1670  -30.2760   24.9770 C   0  0  0  0  0  1  0  0  0  0  0  0
  -27.5300  -32.4790   26.0580 C   0  0  0  0  0  1  0  0  0  0  0  0
  -32.4940  -22.0650   17.2860 C   0  0  0  0  0  1  0  0  0  0  0  0
  -32.8330  -21.7630   19.7550 C   0  0  0  0  0  1  0  0  0  0  0  0
  -31.7790  -21.8750   18.6320 C   0  0  0  0  0  3  0  0  0  0  0  0
  1  8  2  0
  2  4  1  0
  2  6  1  0
  3  5  1  0
  4  7  1  0
  6 13  1  0
  6  3  1  0
  7  1  1  0
  7  5  1  0
  9 11  2  0
  9 13  1  0
 10 12  1  0
 11 14  1  0
 13 10  2  0
 14 23  1  0
 14 12  2  0
 15 22  2  0
 15 21  1  0
 16 21  1  0
 17 18  1  0
 17 16  1  0
 19 18  1  0
 19 28  1  0
 19 20  1  0
 21 20  1  0
 23 15  1  0
 24 23  1  0
 25 26  2  0
 26 45  1  0
 27 26  1  0
 27 30  1  0
 28 25  1  0
 28 29  1  0
 29 27  2  0
 30 31  1  0
 31 32  2  0
 33 36  1  0
 33 32  1  0
 34 33  2  0
 35 34  1  0
 35 30  2  0
 36 37  1  0
 37 42  2  0
 37 38  1  0
 38 39  2  0
 39 40  1  0
 40 44  1  0
 41 40  2  0
 42 41  1  0
 43 42  1  0
 45 46  1  0
 46 49  1  0
 46 48  1  0
 47 45  2  0
 50 51  1  0
 50 25  1  0
 52 50  1  0
 53103  1  0
 53 55  1  0
 53  1  1  0
 54 55  1  0
 54 58  1  0
 55 57  1  0
 56 54  2  0
 58 59  1  0
 59 60  1  0
 61 72  2  0
 62 60  1  0
 62 67  1  0
 63 71  1  0
 63 73  1  0
 64 66  1  0
 65 71  1  0
 66 67  2  0
 66 65  1  0
 68 62  2  0
 69 68  1  0
 69 64  2  0
 70 64  1  0
 70 63  1  0
 71 61  1  0
 73 75  2  0
 74 73  1  0
 76 74  1  0
 77 86  2  0
 77 82  1  0
 78 74  1  0
 78 82  1  0
 79 78  1  0
 80 81  1  0
 80 79  1  0
 81 77  1  0
 82 83  2  0
 83 84  1  0
 85 84  2  0
 86 85  1  0
 87 61  1  0
 87 88  1  0
 87 97  1  0
 88 91  1  0
 89 93  1  0
 89 88  1  0
 90 89  2  0
 93 92  1  0
 95 93  1  0
 95 96  1  0
 95 94  1  0
 97100  1  1
 97 98  1  0
 99 97  1  0
101103  1  0
103102  1  0
M  ISO  4  15 100  23 100  59 101  60 101
M  END
>  <TORSDO>  (25) 
F 22

>  <SCORE>  (25) 
-10.617

>  <name>  (25) 
24

>  <ligand_id>  (25) 
24

>  <original_smiles>  (25) 
[H]c1c([H])c([H])c2c(c1[H])C([H])([H])C([H])([H])C([H])([H])C2([H])N([H])C(=O)C1([H])N(C(=O)C([H])(N([H])C(=O)C([H])(N([H])C([H])([H])[H])C([H])([H])[H])C(C([H])([H])[H])(C([H])([H])[H])C([H])([H])[H])C([H])([H])c2c([H])c(OC([H])([H])C([H])([H])C(=O)N([H])C([H])(C(=O)N3C([H])([H])C([H])([H])C([H])(c4c([H])c([H])c(N([H])C(=O)N5C([H])([H])C([H])([H])C([H])([H])C([H])(n6nc(-c7c([H])c([H])c(Oc8c([H])c([H])c(F)c([H])c8F)c([H])c7[H])c(C(=O)N([H])[H])c6N([H])[H])C5([H])[H])c([H])c4[H])C([H])([H])C3([H])[H])C([H])(C([H])([H])[H])C([H])([H])[H])c([H])c([H])c2C1([H])[H]

>  <smiles>  (25) 
[H]c1c([H])c([H])c2c(c1[H])C([H])([H])C([H])([H])C([H])([H])C2([H])N([H])C(=O)C1([H])N(C(=O)C([H])(N([H])C(=O)C([H])(N([H])C([H])([H])[H])C([H])([H])[H])C(C([H])([H])[H])(C([H])([H])[H])C([H])([H])[H])C([H])([H])c2c([H])c(OC([H])([H])C([H])([H])C(=O)N([H])C([H])(C(=O)N3C([H])([H])C([H])([H])C([H])(c4c([H])c([H])c(N([H])C(=O)N5C([H])([H])C([H])([H])C([H])([H])C([H])(n6nc(-c7c([H])c([H])c(Oc8c([H])c([H])c(F)c([H])c8F)c([H])c7[H])c(C(=O)N([H])[H])c6N([H])[H])C5([H])[H])c([H])c4[H])C([H])([H])C3([H])[H])C([H])(C([H])([H])[H])C([H])([H])[H])c([H])c([H])c2C1([H])[H]

$$$$
25:0:0
     RDKit          3D

 99108  0  0  1  0  0  0  0  0999 V2000
  -29.2350  -18.4520   19.2710 C   0  0  0  0  0  3  0  0  0  0  0  0
  -31.5800  -19.0520   19.2090 C   0  0  0  0  0  3  0  0  0  0  0  0
  -28.9170  -19.5500   18.4380 C   0  0  0  0  0  3  0  0  0  0  0  0
  -31.2640  -20.1290   18.3370 C   0  0  0  0  0  3  0  0  0  0  0  0
  -30.5520  -18.2500   19.7560 C   0  0  0  0  0  0  0  0  0  0  0  0
  -29.9250  -20.4490   18.0080 C   0  0  0  0  0  0  0  0  0  0  0  0
  -30.7600  -17.4250   21.0580 C   0  0  0  0  0  3  0  0  0  0  0  0
  -32.1020  -15.5180   20.0840 C   0  0  0  0  0  0  0  0  0  0  0  0
  -31.7980  -13.3790   18.8800 C   0  0  0  0  0  2  0  0  0  0  0  0
  -30.7350  -13.5790   17.7790 C   0  0  0  0  0  2  0  0  0  0  0  0
  -29.3030  -13.3940   18.3250 C   0  0  0  0  0  2  0  0  0  0  0  0
  -29.0690  -14.1500   19.6570 C   0  0  0  0  0  3  0  0  0  0  0  0
  -30.2340  -13.9110   20.6430 C   0  0  0  0  0  2  0  0  0  0  0  0
  -31.5020  -14.2980   19.9910 N   0  0  0  0  0  0  0  0  0  0  0  0
  -33.0210  -15.8770   19.3410 O   0  0  0  0  0  0  0  0  0  0  0  0
  -31.7000  -16.2860   21.1070 N   0  0  0  0  0  0  0  0  0  0  0  0
  -31.4590  -15.7000   21.8920 H   0  0  0  0  0  0  0  0  0  0  0  0
  -26.7950  -14.6630   20.7700 C   0  0  0  0  0  0  0  0  0  0  0  0
  -25.7520  -13.8590   21.1430 C   0  0  0  0  0  0  0  0  0  0  0  0
  -26.1570  -12.5230   20.8330 C   0  0  0  0  0  0  0  0  0  0  0  0
  -27.7720  -13.8190   20.2560 N   0  0  0  0  0  0  0  0  0  0  0  0
  -27.3930  -12.5160   20.3490 N   0  0  0  0  0  0  0  0  0  0  0  0
  -25.4130  -11.2580   20.9170 C   0  0  0  0  0  0  0  0  0  0  0  0
  -25.7270  -10.2810   21.8860 C   0  0  0  0  0  3  0  0  0  0  0  0
  -24.9850   -9.0820   21.9630 C   0  0  0  0  0  3  0  0  0  0  0  0
  -23.9130   -8.8540   21.0680 C   0  0  0  0  0  0  0  0  0  0  0  0
  -23.6170   -9.8220   20.0890 C   0  0  0  0  0  3  0  0  0  0  0  0
  -24.3630  -11.0110   20.0100 C   0  0  0  0  0  3  0  0  0  0  0  0
  -23.1560   -7.7090   21.0470 O   0  0  0  0  0  0  0  0  0  0  0  0
  -22.6480   -7.1620   22.1980 C   0  0  0  0  0  0  0  0  0  0  0  0
  -21.9290   -7.9330   23.1360 C   0  0  0  0  0  3  0  0  0  0  0  0
  -21.3690   -7.3190   24.2740 C   0  0  0  0  0  3  0  0  0  0  0  0
  -21.5150   -5.9320   24.4680 C   0  0  0  0  0  0  0  0  0  0  0  0
  -22.2250   -5.1600   23.5310 C   0  0  0  0  0  3  0  0  0  0  0  0
  -22.7880   -5.7740   22.3990 C   0  0  0  0  0  0  0  0  0  0  0  0
  -23.4540   -5.0210   21.4900 F   0  0  0  0  0  0  0  0  0  0  0  0
  -20.9700   -5.3390   25.5570 F   0  0  0  0  0  0  0  0  0  0  0  0
  -24.4140  -14.3110   21.6650 C   0  0  0  0  0  0  0  0  0  0  0  0
  -23.8070  -13.5430   22.5650 N   0  0  0  0  0  0  0  0  0  0  0  0
  -23.9160  -15.3770   21.3070 O   0  0  0  0  0  0  0  0  0  0  0  0
  -24.2120  -12.6740   22.8800 H   0  0  0  0  0  0  0  0  0  0  0  0
  -22.9150  -13.8280   22.9460 H   0  0  0  0  0  0  0  0  0  0  0  0
  -26.9880  -16.0400   20.8080 N   0  0  0  0  0  0  0  0  0  0  0  0
  -26.2860  -16.6740   21.1750 H   0  0  0  0  0  0  0  0  0  0  0  0
  -27.8080  -16.5090   20.4500 H   0  0  0  0  0  0  0  0  0  0  0  0
  -30.5050  -18.1340   23.5810 C   0  0  0  0  0  1  0  0  0  0  0  0
  -31.1750  -18.3890   22.2190 C   0  0  0  0  0  3  0  0  0  0  0  0
  -29.7190  -21.8900   21.5300 C   0  0  0  0  0  3  0  0  0  0  0  0
  -29.8040  -20.5300   21.8920 C   0  0  0  0  0  3  0  0  0  0  0  0
  -30.8820  -22.6020   21.1830 C   0  0  0  0  0  3  0  0  0  0  0  0
  -32.2150  -20.5910   21.5200 C   0  0  0  0  0  3  0  0  0  0  0  0
  -31.0550  -19.8700   21.8730 C   0  0  0  0  0  0  0  0  0  0  0  0
  -32.1290  -21.9520   21.1780 C   0  0  0  0  0  0  0  0  0  0  0  0
  -33.2520  -22.6270   20.8340 F   0  0  0  0  0  0  0  0  0  0  0  0
  -29.6580  -21.6040   17.2740 O   0  0  0  0  0  0  0  0  0  0  0  0
  -28.5550  -22.4410   17.6870 C   0  0  0  0  0  2  0  0  0  0  0  0
  -28.6390  -23.9120   17.1600 C   0  0  0  0  0  2  0  0  0  0  0  0
  -27.5870  -24.8650   17.8170 C   0  0  0  0  0  2  0  0  0  0  0  0
  -27.7690  -26.2880   17.5760 O   0  0  0  0  0  0  0  0  0  0  0  0
  -24.8930  -30.4880   22.6180 C   0  0  0  0  0  0  0  0  0  0  0  0
  -26.7220  -27.1250   17.9460 C   0  0  0  0  0  0  0  0  0  0  0  0
  -23.4140  -29.8930   20.7300 C   0  0  0  0  0  3  0  0  0  0  0  0
  -24.5640  -28.8160   18.7210 C   0  0  0  0  0  0  0  0  0  0  0  0
  -25.9570  -30.0000   20.4210 C   0  0  0  0  0  2  0  0  0  0  0  0
  -25.8160  -28.9500   19.3340 C   0  0  0  0  0  0  0  0  0  0  0  0
  -26.8950  -28.1170   18.9490 C   0  0  0  0  0  3  0  0  0  0  0  0
  -25.4570  -27.0380   17.3190 C   0  0  0  0  0  3  0  0  0  0  0  0
  -24.3820  -27.8610   17.7080 C   0  0  0  0  0  3  0  0  0  0  0  0
  -23.4560  -29.7350   19.1870 C   0  0  0  0  0  2  0  0  0  0  0  0
  -24.7760  -30.1220   21.3120 N   0  0  0  0  0  0  0  0  0  0  0  0
  -23.8920  -30.6700   23.3260 O   0  0  0  0  0  0  0  0  0  0  0  0
  -22.6850  -28.6740   21.3420 C   0  0  0  0  0  0  0  0  0  0  0  0
  -21.3440  -28.7300   21.3800 N   0  0  0  0  0  0  0  0  0  0  0  0
  -23.3230  -27.6980   21.7460 O   0  0  0  0  0  0  0  0  0  0  0  0
  -20.8940  -29.5620   21.0280 H   0  0  0  0  0  0  0  0  0  0  0  0
  -17.8850  -27.9070   22.0130 C   0  0  0  0  0  0  0  0  0  0  0  0
  -20.4580  -27.6820   21.8870 C   0  0  0  0  0  3  0  0  0  0  0  0
  -20.2110  -26.6010   20.8100 C   0  0  0  0  0  2  0  0  0  0  0  0
  -18.9560  -26.8630   19.9730 C   0  0  0  0  0  2  0  0  0  0  0  0
  -17.7120  -26.9290   20.8650 C   0  0  0  0  0  2  0  0  0  0  0  0
  -19.1740  -28.2730   22.4840 C   0  0  0  0  0  0  0  0  0  0  0  0
  -19.2770  -29.2160   23.5310 C   0  0  0  0  0  3  0  0  0  0  0  0
  -18.1250  -29.7790   24.1100 C   0  0  0  0  0  3  0  0  0  0  0  0
  -16.8510  -29.4020   23.6500 C   0  0  0  0  0  3  0  0  0  0  0  0
  -16.7340  -28.4690   22.6050 C   0  0  0  0  0  3  0  0  0  0  0  0
  -26.2900  -30.7200   23.2760 C   0  0  0  0  0  3  0  0  0  0  0  0
  -26.2060  -31.9580   24.0600 N   0  0  0  0  0  0  0  0  0  0  0  0
  -26.6930  -33.1430   23.6680 C   0  0  0  0  0  0  0  0  0  0  0  0
  -27.3300  -33.2930   22.6230 O   0  0  0  0  0  0  0  0  0  0  0  0
  -25.6530  -31.9200   24.9040 H   0  0  0  0  0  0  0  0  0  0  0  0
  -25.3030  -35.2150   23.9840 C   0  0  0  0  0  1  0  0  0  0  0  0
  -26.4280  -34.3560   24.5820 C   0  0  0  0  0  3  0  0  0  0  0  0
  -28.6440  -34.5360   25.6220 C   0  0  0  0  0  1  0  0  0  0  0  0
  -27.6250  -35.1940   24.8100 N   0  0  0  0  0  0  0  0  0  0  0  0
  -27.3700  -36.0670   25.2660 H   0  0  0  0  0  0  0  0  0  0  0  0
  -26.7600  -29.5170   24.1820 C   0  0  1  0  0  0  0  0  0  0  0  0
  -25.7150  -29.0890   25.2360 C   0  0  0  0  0  1  0  0  0  0  0  0
  -27.1020  -28.2730   23.3260 C   0  0  0  0  0  1  0  0  0  0  0  0
  -28.0570  -29.9040   24.9310 C   0  0  0  0  0  1  0  0  0  0  0  0
  1  5  1  0
  2  5  2  0
  3  1  2  0
  4  2  1  0
  5  7  1  0
  6  4  2  0
  6  3  1  0
  7 16  1  0
  7 47  1  0
  8 16  1  0
  9 14  1  0
 10 11  1  0
 10  9  1  0
 12 11  1  0
 12 21  1  0
 12 13  1  0
 14  8  1  0
 14 13  1  0
 15  8  2  0
 16 17  1  0
 18 43  1  0
 18 19  2  0
 19 38  1  0
 20 23  1  0
 20 19  1  0
 21 22  1  0
 21 18  1  0
 22 20  2  0
 23 24  1  0
 24 25  2  0
 26 25  1  0
 27 26  2  0
 28 27  1  0
 28 23  2  0
 29 26  1  0
 29 30  1  0
 30 35  2  0
 30 31  1  0
 31 32  2  0
 32 33  1  0
 33 37  1  0
 34 33  2  0
 35 34  1  0
 36 35  1  0
 38 39  1  0
 39 41  1  0
 39 42  1  0
 40 38  2  0
 43 44  1  0
 45 43  1  0
 47 46  1  0
 48 49  1  0
 50 48  2  0
 51 52  1  0
 52 49  2  0
 52 47  1  0
 53 50  1  0
 53 51  2  0
 54 53  1  0
 55 56  1  0
 55  6  1  0
 57 56  1  0
 57 58  1  0
 59 58  1  0
 59 61  1  0
 60 71  2  0
 61 66  1  0
 62 70  1  0
 62 72  1  0
 63 69  1  0
 63 65  1  0
 64 70  1  0
 65 64  1  0
 66 65  2  0
 67 68  1  0
 67 61  2  0
 68 63  2  0
 69 62  1  0
 70 60  1  0
 72 73  1  0
 72 74  2  0
 75 73  1  0
 76 81  2  0
 76 85  1  0
 77 73  1  0
 77 81  1  0
 78 77  1  0
 79 78  1  0
 79 80  1  0
 80 76  1  0
 81 82  1  0
 82 83  2  0
 84 83  1  0
 85 84  2  0
 86 60  1  0
 86 87  1  0
 86 96  1  0
 87 90  1  0
 88 87  1  0
 88 92  1  0
 89 88  2  0
 92 91  1  0
 92 94  1  0
 94 95  1  0
 94 93  1  0
 96 99  1  1
 96 97  1  0
 98 96  1  0
M  ISO  4   8 100  16 100  58 101  59 101
M  END
>  <TORSDO>  (26) 
F 23

>  <SCORE>  (26) 
-6.467

>  <name>  (26) 
25

>  <ligand_id>  (26) 
25

>  <original_smiles>  (26) 
[H]c1c([H])c([H])c2c(c1[H])C([H])([H])C([H])([H])C([H])([H])C2([H])N([H])C(=O)C1([H])N(C(=O)C([H])(N([H])C(=O)C([H])(N([H])C([H])([H])[H])C([H])([H])[H])C(C([H])([H])[H])(C([H])([H])[H])C([H])([H])[H])C([H])([H])c2c([H])c(OC([H])([H])C([H])([H])C([H])([H])Oc3c([H])c([H])c(C([H])(N([H])C(=O)N4C([H])([H])C([H])([H])C([H])([H])C([H])(n5nc(-c6c([H])c([H])c(Oc7c([H])c([H])c(F)c([H])c7F)c([H])c6[H])c(C(=O)N([H])[H])c5N([H])[H])C4([H])[H])C([H])(c4c([H])c([H])c([H])c(F)c4[H])C([H])([H])[H])c([H])c3[H])c([H])c([H])c2C1([H])[H]

>  <smiles>  (26) 
[H]c1c([H])c([H])c2c(c1[H])C([H])([H])C([H])([H])C([H])([H])C2([H])N([H])C(=O)C1([H])N(C(=O)C([H])(N([H])C(=O)C([H])(N([H])C([H])([H])[H])C([H])([H])[H])C(C([H])([H])[H])(C([H])([H])[H])C([H])([H])[H])C([H])([H])c2c([H])c(OC([H])([H])C([H])([H])C([H])([H])Oc3c([H])c([H])c(C([H])(N([H])C(=O)N4C([H])([H])C([H])([H])C([H])([H])C([H])(n5nc(-c6c([H])c([H])c(Oc7c([H])c([H])c(F)c([H])c7F)c([H])c6[H])c(C(=O)N([H])[H])c5N([H])[H])C4([H])[H])C([H])(c4c([H])c([H])c([H])c(F)c4[H])C([H])([H])[H])c([H])c3[H])c([H])c([H])c2C1([H])[H]

$$$$
26:0:0
     RDKit          3D

 88 96  0  0  1  0  0  0  0  0999 V2000
  -28.2700  -18.1960   20.5690 C   0  0  0  0  0  3  0  0  0  0  0  0
  -30.5440  -18.6580   20.1620 C   0  0  0  0  0  3  0  0  0  0  0  0
  -27.9690  -19.6050   20.5110 C   0  0  0  0  0  3  0  0  0  0  0  0
  -30.2360  -20.0970   20.1140 C   0  0  0  0  0  3  0  0  0  0  0  0
  -29.5660  -17.6210   20.3920 C   0  0  0  0  0  0  0  0  0  0  0  0
  -28.9130  -20.6520   20.2830 C   0  0  0  0  0  0  0  0  0  0  0  0
  -30.5640  -15.0240   20.2100 C   0  0  0  0  0  0  0  0  0  0  0  0
  -30.4770  -12.6790   19.2500 C   0  0  0  0  0  2  0  0  0  0  0  0
  -29.4990  -12.6500   18.0480 C   0  0  0  0  0  2  0  0  0  0  0  0
  -28.0470  -12.4370   18.5210 C   0  0  0  0  0  2  0  0  0  0  0  0
  -27.6750  -13.3480   19.7200 C   0  0  0  0  0  3  0  0  0  0  0  0
  -28.7640  -13.3150   20.8150 C   0  0  0  0  0  2  0  0  0  0  0  0
  -30.0230  -13.7410   20.1870 N   0  0  0  0  0  0  0  0  0  0  0  0
  -31.7370  -15.1720   19.8490 O   0  0  0  0  0  0  0  0  0  0  0  0
  -29.6830  -16.0950   20.4860 N   0  0  0  0  0  0  0  0  0  0  0  0
  -28.8050  -15.6890   20.7700 H   0  0  0  0  0  0  0  0  0  0  0  0
  -25.3170  -13.9250   20.5440 C   0  0  0  0  0  0  0  0  0  0  0  0
  -24.2620  -13.1460   20.9340 C   0  0  0  0  0  0  0  0  0  0  0  0
  -24.7190  -11.7940   20.8530 C   0  0  0  0  0  0  0  0  0  0  0  0
  -26.3480  -13.0470   20.2490 N   0  0  0  0  0  0  0  0  0  0  0  0
  -25.9980  -11.7600   20.4990 N   0  0  0  0  0  0  0  0  0  0  0  0
  -23.9930  -10.5300   21.0340 C   0  0  0  0  0  0  0  0  0  0  0  0
  -24.4280   -9.5560   21.9590 C   0  0  0  0  0  3  0  0  0  0  0  0
  -23.7020   -8.3560   22.1280 C   0  0  0  0  0  3  0  0  0  0  0  0
  -22.5270   -8.1240   21.3750 C   0  0  0  0  0  0  0  0  0  0  0  0
  -22.1100   -9.0890   20.4410 C   0  0  0  0  0  3  0  0  0  0  0  0
  -22.8370  -10.2790   20.2680 C   0  0  0  0  0  3  0  0  0  0  0  0
  -21.7730   -6.9790   21.4560 O   0  0  0  0  0  0  0  0  0  0  0  0
  -21.6880   -6.2530   22.6170 C   0  0  0  0  0  0  0  0  0  0  0  0
  -21.1540   -6.8030   23.8030 C   0  0  0  0  0  3  0  0  0  0  0  0
  -21.0220   -6.0010   24.9530 C   0  0  0  0  0  3  0  0  0  0  0  0
  -21.4140   -4.6490   24.9190 C   0  0  0  0  0  0  0  0  0  0  0  0
  -21.9400   -4.0980   23.7370 C   0  0  0  0  0  3  0  0  0  0  0  0
  -22.0740   -4.8980   22.5890 C   0  0  0  0  0  0  0  0  0  0  0  0
  -22.5620   -4.3560   21.4470 F   0  0  0  0  0  0  0  0  0  0  0  0
  -21.2790   -3.8750   26.0220 F   0  0  0  0  0  0  0  0  0  0  0  0
  -22.8760  -13.6220   21.2610 C   0  0  0  0  0  0  0  0  0  0  0  0
  -22.1760  -12.9110   22.1370 N   0  0  0  0  0  0  0  0  0  0  0  0
  -22.4260  -14.6590   20.7750 O   0  0  0  0  0  0  0  0  0  0  0  0
  -22.5530  -12.0730   22.5520 H   0  0  0  0  0  0  0  0  0  0  0  0
  -21.2460  -13.2120   22.3990 H   0  0  0  0  0  0  0  0  0  0  0  0
  -25.4790  -15.2980   20.3870 N   0  0  0  0  0  0  0  0  0  0  0  0
  -24.6990  -15.9360   20.5080 H   0  0  0  0  0  0  0  0  0  0  0  0
  -26.2670  -15.7220   19.9170 H   0  0  0  0  0  0  0  0  0  0  0  0
  -28.3850  -22.0170   20.2260 O   0  0  0  0  0  0  0  0  0  0  0  0
  -29.0060  -23.4170   20.2140 C   0  0  0  0  0  3  0  0  0  0  0  0
  -28.0130  -24.7620   20.0050 C   0  0  0  0  0  3  0  0  0  0  0  0
  -28.2930  -26.2800   20.1940 O   0  0  0  0  0  0  0  0  0  0  0  0
  -24.6160  -31.8830   23.2510 C   0  0  0  0  0  0  0  0  0  0  0  0
  -27.2250  -27.2480   20.1450 C   0  0  0  0  0  0  0  0  0  0  0  0
  -23.4230  -30.5100   21.5880 C   0  0  0  0  0  3  0  0  0  0  0  0
  -24.8820  -28.9690   20.1390 C   0  0  0  0  0  0  0  0  0  0  0  0
  -25.9760  -30.7940   21.4300 C   0  0  0  0  0  2  0  0  0  0  0  0
  -26.0590  -29.4160   20.7540 C   0  0  0  0  0  0  0  0  0  0  0  0
  -27.2310  -28.5720   20.7390 C   0  0  0  0  0  3  0  0  0  0  0  0
  -26.0180  -26.9000   19.4960 C   0  0  0  0  0  3  0  0  0  0  0  0
  -24.8750  -27.7250   19.4950 C   0  0  0  0  0  3  0  0  0  0  0  0
  -23.6490  -29.8570   20.1990 C   0  0  0  0  0  2  0  0  0  0  0  0
  -24.6910  -31.0830   22.1440 N   0  0  0  0  0  0  0  0  0  0  0  0
  -23.5270  -32.1530   23.7830 O   0  0  0  0  0  0  0  0  0  0  0  0
  -22.7510  -29.4810   22.5320 C   0  0  0  0  0  0  0  0  0  0  0  0
  -21.4240  -29.3020   22.3970 N   0  0  0  0  0  0  0  0  0  0  0  0
  -23.4240  -28.8480   23.3490 O   0  0  0  0  0  0  0  0  0  0  0  0
  -20.9370  -29.8650   21.7140 H   0  0  0  0  0  0  0  0  0  0  0  0
  -18.0440  -28.1000   22.8940 C   0  0  0  0  0  0  0  0  0  0  0  0
  -20.6060  -28.3490   23.1520 C   0  0  0  0  0  3  0  0  0  0  0  0
  -20.6990  -26.9300   22.5440 C   0  0  0  0  0  2  0  0  0  0  0  0
  -19.5900  -26.6350   21.5290 C   0  0  0  0  0  2  0  0  0  0  0  0
  -18.2130  -26.7680   22.1850 C   0  0  0  0  0  2  0  0  0  0  0  0
  -19.1680  -28.8500   23.3340 C   0  0  0  0  0  0  0  0  0  0  0  0
  -18.9540  -30.0990   23.9590 C   0  0  0  0  0  3  0  0  0  0  0  0
  -17.6520  -30.5970   24.1490 C   0  0  0  0  0  3  0  0  0  0  0  0
  -16.5430  -29.8440   23.7240 C   0  0  0  0  0  3  0  0  0  0  0  0
  -16.7410  -28.5970   23.1030 C   0  0  0  0  0  3  0  0  0  0  0  0
  -25.8900  -32.5140   23.8890 C   0  0  0  0  0  3  0  0  0  0  0  0
  -26.3890  -31.7410   25.1720 C   0  0  1  0  0  0  0  0  0  0  0  0
  -25.2800  -31.5020   26.2240 C   0  0  0  0  0  1  0  0  0  0  0  0
  -26.9790  -30.3650   24.7900 C   0  0  0  0  0  1  0  0  0  0  0  0
  -27.5300  -32.5350   25.8510 C   0  0  0  0  0  1  0  0  0  0  0  0
  -25.5790  -33.9130   24.2220 N   0  0  0  0  0  0  0  0  0  0  0  0
  -25.8850  -34.9680   23.4560 C   0  0  0  0  0  0  0  0  0  0  0  0
  -26.5270  -34.8660   22.4060 O   0  0  0  0  0  0  0  0  0  0  0  0
  -25.0080  -34.0650   25.0400 H   0  0  0  0  0  0  0  0  0  0  0  0
  -24.1320  -36.7490   23.1580 C   0  0  0  0  0  1  0  0  0  0  0  0
  -25.4060  -36.3550   23.9250 C   0  0  0  0  0  3  0  0  0  0  0  0
  -27.5520  -37.2720   24.6870 C   0  0  0  0  0  1  0  0  0  0  0  0
  -26.4250  -37.4160   23.7700 N   0  0  0  0  0  0  0  0  0  0  0  0
  -26.0150  -38.3350   23.9150 H   0  0  0  0  0  0  0  0  0  0  0  0
  2  5  1  0
  3  1  1  0
  4  2  2  0
  4  6  1  0
  5 15  1  0
  5  1  2  0
  6  3  2  0
  7 15  1  0
  8 13  1  0
  9 10  1  0
  9  8  1  0
 11 10  1  0
 11 20  1  0
 11 12  1  0
 13  7  1  0
 13 12  1  0
 14  7  2  0
 15 16  1  0
 17 18  2  0
 18 37  1  0
 19 18  1  0
 19 22  1  0
 20 21  1  0
 20 17  1  0
 21 19  2  0
 22 23  1  0
 23 24  2  0
 25 28  1  0
 25 24  1  0
 26 25  2  0
 27 26  1  0
 27 22  2  0
 28 29  1  0
 29 30  1  0
 30 31  2  0
 32 31  1  0
 32 36  1  0
 33 32  2  0
 34 29  2  0
 34 33  1  0
 35 34  1  0
 37 38  1  0
 38 41  1  0
 38 40  1  0
 39 37  2  0
 42 43  1  0
 42 17  1  0
 44 42  1  0
 45  6  1  0
 46 45  1  0
 47 48  1  0
 47 46  2  0
 49 60  2  0
 50 48  1  0
 50 55  1  0
 51 59  1  0
 51 61  1  0
 52 58  1  0
 52 54  1  0
 53 59  1  0
 54 53  1  0
 55 54  2  0
 56 50  2  0
 57 56  1  0
 57 52  2  0
 58 51  1  0
 59 49  1  0
 61 63  2  0
 62 61  1  0
 64 62  1  0
 65 74  2  0
 65 70  1  0
 66 62  1  0
 66 70  1  0
 67 66  1  0
 68 69  1  0
 68 67  1  0
 69 65  1  0
 70 71  2  0
 71 72  1  0
 73 72  2  0
 74 73  1  0
 75 49  1  0
 75 80  1  0
 75 76  1  0
 76 79  1  1
 76 77  1  0
 78 76  1  0
 80 83  1  0
 81 85  1  0
 81 80  1  0
 82 81  2  0
 85 84  1  0
 87 88  1  0
 87 85  1  0
 87 86  1  0
M  ISO  4   7 100  15 100  47 101  48 101
M  END
>  <TORSDO>  (27) 
F 19

>  <SCORE>  (27) 
-14.020

>  <name>  (27) 
26

>  <ligand_id>  (27) 
26

>  <original_smiles>  (27) 
[H]c1c([H])c([H])c2c(c1[H])C([H])([H])C([H])([H])C([H])([H])C2([H])N([H])C(=O)C1([H])N(C(=O)C([H])(N([H])C(=O)C([H])(N([H])C([H])([H])[H])C([H])([H])[H])C(C([H])([H])[H])(C([H])([H])[H])C([H])([H])[H])C([H])([H])c2c([H])c(OC([H])([H])C([H])([H])Oc3c([H])c([H])c(N([H])C(=O)N4C([H])([H])C([H])([H])C([H])([H])C([H])(n5nc(-c6c([H])c([H])c(Oc7c([H])c([H])c(F)c([H])c7F)c([H])c6[H])c(C(=O)N([H])[H])c5N([H])[H])C4([H])[H])c([H])c3[H])c([H])c([H])c2C1([H])[H]

>  <smiles>  (27) 
[H]c1c([H])c([H])c2c(c1[H])C([H])([H])C([H])([H])C([H])([H])C2([H])N([H])C(=O)C1([H])N(C(=O)C([H])(N([H])C(=O)C([H])(N([H])C([H])([H])[H])C([H])([H])[H])C(C([H])([H])[H])(C([H])([H])[H])C([H])([H])[H])C([H])([H])c2c([H])c(OC([H])([H])C([H])([H])Oc3c([H])c([H])c(N([H])C(=O)N4C([H])([H])C([H])([H])C([H])([H])C([H])(n5nc(-c6c([H])c([H])c(Oc7c([H])c([H])c(F)c([H])c7F)c([H])c6[H])c(C(=O)N([H])[H])c5N([H])[H])C4([H])[H])c([H])c3[H])c([H])c([H])c2C1([H])[H]

$$$$
27:0:0
     RDKit          3D

108116  0  0  1  0  0  0  0  0999 V2000
  -26.6040  -24.0040   15.7970 C   0  0  0  0  0  2  0  0  0  0  0  0
  -26.4700  -23.4500   17.2250 C   0  0  0  0  0  2  0  0  0  0  0  0
  -27.8180  -23.4700   17.9610 C   0  0  0  0  0  2  0  0  0  0  0  0
  -27.8200  -22.6790   19.2810 C   0  0  0  0  0  2  0  0  0  0  0  0
  -28.8910  -20.5410   19.9630 C   0  0  0  0  0  0  0  0  0  0  0  0
  -28.2920  -21.3180   19.0550 N   0  0  0  0  0  0  0  0  0  0  0  0
  -28.9180  -20.8020   21.1680 O   0  0  0  0  0  0  0  0  0  0  0  0
  -28.2600  -20.9700   18.1070 H   0  0  0  0  0  0  0  0  0  0  0  0
  -30.2220  -19.3260   18.1920 C   0  0  0  0  0  3  0  0  0  0  0  0
  -30.8690  -18.1740   17.7180 C   0  0  0  0  0  3  0  0  0  0  0  0
  -29.5330  -18.1050   20.1870 C   0  0  0  0  0  3  0  0  0  0  0  0
  -29.5400  -19.2970   19.4280 C   0  0  0  0  0  0  0  0  0  0  0  0
  -30.8510  -16.9830   18.4620 C   0  0  0  0  0  0  0  0  0  0  0  0
  -30.1870  -16.9400   19.7270 C   0  0  0  0  0  0  0  0  0  0  0  0
  -30.8320  -14.6910   20.5630 C   0  0  0  0  0  0  0  0  0  0  0  0
  -30.5660  -12.5250   19.5000 C   0  0  0  0  0  2  0  0  0  0  0  0
  -29.6750  -12.7170   18.2540 C   0  0  0  0  0  2  0  0  0  0  0  0
  -28.1860  -12.5830   18.6260 C   0  0  0  0  0  2  0  0  0  0  0  0
  -27.7920  -13.4540   19.8480 C   0  0  0  0  0  3  0  0  0  0  0  0
  -28.7990  -13.2790   21.0070 C   0  0  0  0  0  2  0  0  0  0  0  0
  -30.1540  -13.5220   20.4910 N   0  0  0  0  0  0  0  0  0  0  0  0
  -32.0440  -14.7870   20.3790 O   0  0  0  0  0  0  0  0  0  0  0  0
  -30.0430  -15.7750   20.5450 N   0  0  0  0  0  0  0  0  0  0  0  0
  -29.1210  -15.6340   20.9210 H   0  0  0  0  0  0  0  0  0  0  0  0
  -25.3640  -14.0660   20.4470 C   0  0  0  0  0  0  0  0  0  0  0  0
  -24.2850  -13.2950   20.7930 C   0  0  0  0  0  0  0  0  0  0  0  0
  -24.7550  -11.9460   20.8130 C   0  0  0  0  0  0  0  0  0  0  0  0
  -26.4210  -13.1850   20.2810 N   0  0  0  0  0  0  0  0  0  0  0  0
  -26.0570  -11.9080   20.5630 N   0  0  0  0  0  0  0  0  0  0  0  0
  -24.0300  -10.6820   20.9980 C   0  0  0  0  0  0  0  0  0  0  0  0
  -24.4460   -9.7260   21.9520 C   0  0  0  0  0  3  0  0  0  0  0  0
  -23.7240   -8.5260   22.1210 C   0  0  0  0  0  3  0  0  0  0  0  0
  -22.5740   -8.2710   21.3380 C   0  0  0  0  0  0  0  0  0  0  0  0
  -22.1810   -9.2140   20.3720 C   0  0  0  0  0  3  0  0  0  0  0  0
  -22.9030  -10.4060   20.1990 C   0  0  0  0  0  3  0  0  0  0  0  0
  -21.8240   -7.1230   21.4160 O   0  0  0  0  0  0  0  0  0  0  0  0
  -21.7500   -6.3890   22.5730 C   0  0  0  0  0  0  0  0  0  0  0  0
  -21.3090   -6.9550   23.7890 C   0  0  0  0  0  3  0  0  0  0  0  0
  -21.1840   -6.1480   24.9370 C   0  0  0  0  0  3  0  0  0  0  0  0
  -21.4880   -4.7740   24.8710 C   0  0  0  0  0  0  0  0  0  0  0  0
  -21.9220   -4.2090   23.6600 C   0  0  0  0  0  3  0  0  0  0  0  0
  -22.0490   -5.0130   22.5130 C   0  0  0  0  0  0  0  0  0  0  0  0
  -22.4470   -4.4560   21.3450 F   0  0  0  0  0  0  0  0  0  0  0  0
  -21.3610   -3.9990   25.9740 F   0  0  0  0  0  0  0  0  0  0  0  0
  -22.8730  -13.7670   20.9930 C   0  0  0  0  0  0  0  0  0  0  0  0
  -22.1130  -13.0920   21.8500 N   0  0  0  0  0  0  0  0  0  0  0  0
  -22.4500  -14.7710   20.4210 O   0  0  0  0  0  0  0  0  0  0  0  0
  -22.4640  -12.2840   22.3430 H   0  0  0  0  0  0  0  0  0  0  0  0
  -21.1630  -13.3930   22.0170 H   0  0  0  0  0  0  0  0  0  0  0  0
  -25.5320  -15.4320   20.2430 N   0  0  0  0  0  0  0  0  0  0  0  0
  -24.7650  -16.0940   20.2960 H   0  0  0  0  0  0  0  0  0  0  0  0
  -26.3940  -15.8560   19.9230 H   0  0  0  0  0  0  0  0  0  0  0  0
  -31.4760  -15.8810   17.8810 N   0  0  0  0  0  0  0  0  0  0  0  0
  -32.1680  -16.0680   17.1650 H   0  0  0  0  0  0  0  0  0  0  0  0
  -31.8510  -15.2370   18.5790 H   0  0  0  0  0  0  0  0  0  0  0  0
  -25.3050  -24.5850   15.2250 C   0  0  0  0  0  2  0  0  0  0  0  0
  -25.5360  -25.2030   13.8290 C   0  0  0  0  0  2  0  0  0  0  0  0
  -24.8730  -26.5770   13.5910 C   0  0  0  0  0  2  0  0  0  0  0  0
  -25.2040  -27.6660   14.6400 C   0  0  0  0  0  2  0  0  0  0  0  0
  -26.6340  -27.6950   15.0320 N   0  0  0  0  0  4  0  0  0  0  0  0
  -27.1960  -27.9680   14.2400 H   0  0  0  0  0  0  0  0  0  0  0  0
  -26.9000  -26.7620   15.2930 H   0  0  0  0  0  0  0  0  0  0  0  0
  -26.9130  -28.5930   16.1760 C   0  0  0  0  0  2  0  0  0  0  0  0
  -29.4580  -28.8340   15.9370 C   0  0  0  0  0  1  0  0  0  0  0  0
  -28.2950  -28.3740   16.8350 C   0  0  0  0  0  3  0  0  0  0  0  0
  -28.5110  -26.9380   17.3880 C   0  0  0  0  0  2  0  0  0  0  0  0
  -29.1320  -26.8850   18.8130 C   0  0  0  0  0  2  0  0  0  0  0  0
  -28.2440  -26.3990   19.8300 O   0  0  0  0  0  0  0  0  0  0  0  0
  -24.5380  -31.5890   23.0680 C   0  0  0  0  0  0  0  0  0  0  0  0
  -27.0930  -27.1280   19.9610 C   0  0  0  0  0  0  0  0  0  0  0  0
  -23.3070  -30.2280   21.4080 C   0  0  0  0  0  3  0  0  0  0  0  0
  -24.7300  -28.6490   20.0030 C   0  0  0  0  0  0  0  0  0  0  0  0
  -25.8410  -30.5270   21.2320 C   0  0  0  0  0  2  0  0  0  0  0  0
  -25.8980  -29.1580   20.5870 C   0  0  0  0  0  0  0  0  0  0  0  0
  -27.0890  -28.4040   20.5660 C   0  0  0  0  0  3  0  0  0  0  0  0
  -25.9010  -26.5990   19.4290 C   0  0  0  0  0  3  0  0  0  0  0  0
  -24.7210  -27.3650   19.4290 C   0  0  0  0  0  3  0  0  0  0  0  0
  -23.5100  -29.5410   20.0320 C   0  0  0  0  0  2  0  0  0  0  0  0
  -24.5800  -30.7940   21.9610 N   0  0  0  0  0  0  0  0  0  0  0  0
  -23.4610  -31.8890   23.6000 O   0  0  0  0  0  0  0  0  0  0  0  0
  -22.6190  -29.2210   22.3590 C   0  0  0  0  0  0  0  0  0  0  0  0
  -21.2850  -29.1220   22.2560 N   0  0  0  0  0  0  0  0  0  0  0  0
  -23.2810  -28.5370   23.1420 O   0  0  0  0  0  0  0  0  0  0  0  0
  -20.8120  -29.7230   21.5960 H   0  0  0  0  0  0  0  0  0  0  0  0
  -17.8510  -28.1540   22.8220 C   0  0  0  0  0  0  0  0  0  0  0  0
  -20.4270  -28.2110   23.0170 C   0  0  0  0  0  3  0  0  0  0  0  0
  -20.4040  -26.8020   22.3790 C   0  0  0  0  0  2  0  0  0  0  0  0
  -19.2500  -26.6040   21.3920 C   0  0  0  0  0  2  0  0  0  0  0  0
  -17.9050  -26.8230   22.0900 C   0  0  0  0  0  2  0  0  0  0  0  0
  -19.0360  -28.8140   23.2420 C   0  0  0  0  0  0  0  0  0  0  0  0
  -18.9310  -30.0690   23.8840 C   0  0  0  0  0  3  0  0  0  0  0  0
  -17.6720  -30.6570   24.1090 C   0  0  0  0  0  3  0  0  0  0  0  0
  -16.5030  -29.9900   23.7060 C   0  0  0  0  0  3  0  0  0  0  0  0
  -16.5930  -28.7410   23.0680 C   0  0  0  0  0  3  0  0  0  0  0  0
  -25.8390  -32.1730   23.7030 C   0  0  0  0  0  3  0  0  0  0  0  0
  -25.5590  -33.5680   24.0670 N   0  0  0  0  0  0  0  0  0  0  0  0
  -25.9110  -34.6300   23.3330 C   0  0  0  0  0  0  0  0  0  0  0  0
  -26.5760  -34.5400   22.2950 O   0  0  0  0  0  0  0  0  0  0  0  0
  -24.9660  -33.7140   24.8690 H   0  0  0  0  0  0  0  0  0  0  0  0
  -24.2150  -36.4610   23.0320 C   0  0  0  0  0  1  0  0  0  0  0  0
  -25.4520  -36.0140   23.8250 C   0  0  0  0  0  3  0  0  0  0  0  0
  -27.6070  -36.8430   24.6590 C   0  0  0  0  0  1  0  0  0  0  0  0
  -26.5010  -37.0530   23.7290 N   0  0  0  0  0  0  0  0  0  0  0  0
  -26.1120  -37.9760   23.9040 H   0  0  0  0  0  0  0  0  0  0  0  0
  -26.3430  -31.3580   24.9570 C   0  0  1  0  0  0  0  0  0  0  0  0
  -25.2500  -31.1250   26.0270 C   0  0  0  0  0  1  0  0  0  0  0  0
  -26.8900  -29.9780   24.5220 C   0  0  0  0  0  1  0  0  0  0  0  0
  -27.5160  -32.1080   25.6290 C   0  0  0  0  0  1  0  0  0  0  0  0
  1  2  1  0
  2  3  1  0
  3  4  1  0
  5  7  2  0
  6  4  1  0
  6  5  1  0
  8  6  1  0
  9 12  1  0
 10  9  2  0
 10 13  1  0
 12  5  1  0
 12 11  2  0
 13 14  2  0
 14 11  1  0
 14 23  1  0
 16 21  1  0
 17 18  1  0
 17 16  1  0
 19 18  1  0
 19 28  1  0
 19 20  1  0
 21 15  1  0
 21 20  1  0
 22 15  2  0
 23 15  1  0
 23 24  1  0
 25 26  2  0
 26 27  1  0
 26 45  1  0
 27 30  1  0
 28 25  1  0
 28 29  1  0
 29 27  2  0
 30 31  1  0
 31 32  2  0
 33 36  1  0
 33 32  1  0
 34 33  2  0
 35 34  1  0
 35 30  2  0
 36 37  1  0
 37 38  1  0
 38 39  2  0
 40 39  1  0
 40 44  1  0
 41 40  2  0
 42 37  2  0
 42 41  1  0
 43 42  1  0
 45 46  1  0
 46 49  1  0
 46 48  1  0
 47 45  2  0
 50 51  1  0
 50 25  1  0
 52 50  1  0
 53 13  1  0
 53 55  1  0
 54 53  1  0
 56  1  1  0
 57 56  1  0
 58 57  1  0
 58 59  1  0
 59 60  1  0
 60 62  1  0
 60 63  1  0
 61 60  1  0
 63 65  1  0
 65 64  1  0
 65 66  1  0
 66 67  1  0
 67 68  1  0
 68 70  1  0
 69 80  2  0
 70 75  1  0
 71 79  1  0
 71 81  1  0
 72 78  1  0
 72 74  1  0
 73 79  1  0
 74 73  1  0
 75 74  2  0
 76 70  2  0
 77 76  1  0
 77 72  2  0
 78 71  1  0
 79 69  1  0
 81 83  2  0
 82 81  1  0
 84 82  1  0
 85 94  2  0
 85 90  1  0
 86 82  1  0
 86 90  1  0
 87 86  1  0
 88 89  1  0
 88 87  1  0
 89 85  1  0
 90 91  2  0
 91 92  1  0
 93 92  2  0
 94 93  1  0
 95 69  1  0
 95 96  1  0
 95105  1  0
 96 99  1  0
 97101  1  0
 97 96  1  0
 98 97  2  0
101100  1  0
103101  1  0
103104  1  0
103102  1  0
105108  1  1
105106  1  0
107105  1  0
M  ISO  4  15 100  23 100  67 101  68 101
M  END
>  <TORSDO>  (28) 
F 31

>  <SCORE>  (28) 
-9.573

>  <name>  (28) 
27

>  <ligand_id>  (28) 
27

>  <original_smiles>  (28) 
[H]c1c([H])c([H])c2c(c1[H])C([H])([H])C([H])([H])C([H])([H])C2([H])N([H])C(=O)C1([H])N(C(=O)C([H])(N([H])C(=O)C([H])(N([H])C([H])([H])[H])C([H])([H])[H])C(C([H])([H])[H])(C([H])([H])[H])C([H])([H])[H])C([H])([H])c2c([H])c(OC([H])([H])C([H])([H])C([H])(C([H])([H])[H])C([H])([H])[N+]([H])([H])C([H])([H])C([H])([H])C([H])([H])C([H])([H])C([H])([H])C([H])([H])C([H])([H])C([H])([H])N([H])C(=O)c3c([H])c([H])c(N([H])[H])c(N([H])C(=O)N4C([H])([H])C([H])([H])C([H])([H])C([H])(n5nc(-c6c([H])c([H])c(Oc7c([H])c([H])c(F)c([H])c7F)c([H])c6[H])c(C(=O)N([H])[H])c5N([H])[H])C4([H])[H])c3[H])c([H])c([H])c2C1([H])[H]

>  <smiles>  (28) 
[H]c1c([H])c([H])c2c(c1[H])C([H])([H])C([H])([H])C([H])([H])C2([H])N([H])C(=O)C1([H])N(C(=O)C([H])(N([H])C(=O)C([H])(N([H])C([H])([H])[H])C([H])([H])[H])C(C([H])([H])[H])(C([H])([H])[H])C([H])([H])[H])C([H])([H])c2c([H])c(OC([H])([H])C([H])([H])C([H])(C([H])([H])[H])C([H])([H])[N+]([H])([H])C([H])([H])C([H])([H])C([H])([H])C([H])([H])C([H])([H])C([H])([H])C([H])([H])C([H])([H])N([H])C(=O)c3c([H])c([H])c(N([H])[H])c(N([H])C(=O)N4C([H])([H])C([H])([H])C([H])([H])C([H])(n5nc(-c6c([H])c([H])c(Oc7c([H])c([H])c(F)c([H])c7F)c([H])c6[H])c(C(=O)N([H])[H])c5N([H])[H])C4([H])[H])c3[H])c([H])c([H])c2C1([H])[H]

$$$$
28:0:0
     RDKit          3D

105110  0  0  1  0  0  0  0  0999 V2000
  -22.6960  -10.6160   20.5200 C   0  0  0  0  0  2  0  0  0  0  0  0
  -23.9590   -9.4840   19.7700 C   0  0  0  0  0  0  0  0  0  0  0  0
  -25.4680   -9.4190   19.8140 N   0  0  0  0  0  0  0  0  0  0  0  0
  -23.4550   -8.6210   19.0500 O   0  0  0  0  0  0  0  0  0  0  0  0
  -25.7070   -9.1100   18.8810 H   0  0  0  0  0  0  0  0  0  0  0  0
  -27.4420   -6.7120   21.4170 C   0  0  0  0  0  3  0  0  0  0  0  0
  -26.5470   -7.6110   20.8380 C   0  0  0  0  0  3  0  0  0  0  0  0
  -28.8950   -8.5400   21.9900 C   0  0  0  0  0  3  0  0  0  0  0  0
  -28.6360   -7.1620   21.9730 C   0  0  0  0  0  0  0  0  0  0  0  0
  -26.7220   -9.0170   20.7540 C   0  0  0  0  0  0  0  0  0  0  0  0
  -28.0910   -9.5630   21.4020 C   0  0  0  0  0  0  0  0  0  0  0  0
  -30.0040  -12.1540   21.1300 C   0  0  2  0  0  0  0  0  0  0  0  0
  -31.2140  -11.1660   21.2670 C   0  0  0  0  0  1  0  0  0  0  0  0
  -30.4310  -10.3490   19.7180 C   0  0  0  0  0  1  0  0  0  0  0  0
  -28.8030  -10.9770   19.2150 C   0  0  0  0  0  2  0  0  0  0  0  0
  -27.9650  -12.3700   20.0690 C   0  0  0  0  0  2  0  0  0  0  0  0
  -28.8380  -13.1730   21.5170 C   0  0  0  0  0  1  0  0  0  0  0  0
  -30.3560  -12.5040   22.0130 N   0  0  0  0  0  1  0  0  0  0  0  0
  -30.5500  -12.9020   20.0570 O   0  0  0  0  0  1  0  0  0  0  0  0
  -28.9880  -10.9000   21.7460 N   0  0  0  0  0  2  0  0  0  0  0  0
  -29.0650  -10.9770   22.7490 H   0  0  0  0  0  0  0  0  0  0  0  0
  -25.6520  -12.7790   19.9620 C   0  0  0  0  0  0  0  0  0  0  0  0
  -24.5170  -12.3730   20.5100 C   0  0  0  0  0  0  0  0  0  0  0  0
  -24.9190  -11.2080   21.5100 C   0  0  0  0  0  0  0  0  0  0  0  0
  -26.6310  -12.1080   20.5310 N   0  0  0  0  0  0  0  0  0  0  0  0
  -26.2400  -11.2470   21.5350 N   0  0  0  0  0  0  0  0  0  0  0  0
  -24.3210   -9.8500   22.2180 C   0  0  0  0  0  0  0  0  0  0  0  0
  -24.7630   -9.3130   23.4490 C   0  0  0  0  0  3  0  0  0  0  0  0
  -24.0240   -8.3310   24.1890 C   0  0  0  0  0  3  0  0  0  0  0  0
  -22.7130   -7.9310   23.8000 C   0  0  0  0  0  0  0  0  0  0  0  0
  -22.2960   -8.3250   22.5580 C   0  0  0  0  0  3  0  0  0  0  0  0
  -23.2460   -8.9780   21.7670 C   0  0  0  0  0  3  0  0  0  0  0  0
  -21.8360   -7.0970   24.4480 O   0  0  0  0  0  0  0  0  0  0  0  0
  -21.6130   -5.8410   23.9820 C   0  0  0  0  0  0  0  0  0  0  0  0
  -22.4830   -4.7920   24.3330 C   0  0  0  0  0  3  0  0  0  0  0  0
  -22.2350   -3.4970   23.8570 C   0  0  0  0  0  3  0  0  0  0  0  0
  -21.1060   -3.2480   23.0580 C   0  0  0  0  0  0  0  0  0  0  0  0
  -20.2170   -4.2920   22.7380 C   0  0  0  0  0  3  0  0  0  0  0  0
  -20.4680   -5.5920   23.2010 C   0  0  0  0  0  0  0  0  0  0  0  0
  -19.6020   -6.5950   22.9080 F   0  0  0  0  0  0  0  0  0  0  0  0
  -20.8690   -1.9970   22.6090 F   0  0  0  0  0  0  0  0  0  0  0  0
  -23.2460  -12.9970   19.6940 C   0  0  0  0  0  0  0  0  0  0  0  0
  -22.0680  -13.4840   20.1090 N   0  0  0  0  0  0  0  0  0  0  0  0
  -23.1750  -13.0050   18.5010 O   0  0  0  0  0  0  0  0  0  0  0  0
  -21.8800  -13.5450   21.0990 H   0  0  0  0  0  0  0  0  0  0  0  0
  -21.3770  -13.7570   19.4250 H   0  0  0  0  0  0  0  0  0  0  0  0
  -25.9300  -13.6220   18.9030 N   0  0  0  0  0  0  0  0  0  0  0  0
  -25.1740  -13.8840   18.2800 H   0  0  0  0  0  0  0  0  0  0  0  0
  -26.8350  -13.6030   18.4480 H   0  0  0  0  0  0  0  0  0  0  0  0
  -29.6700   -6.1690   22.4970 C   0  0  1  0  0  0  0  0  0  0  0  0
  -29.2560   -4.9090   22.3670 F   0  0  0  0  0  0  0  0  0  0  0  0
  -30.8070   -6.3070   21.8140 F   0  0  0  0  0  0  0  0  0  0  0  0
  -29.9200   -6.3890   23.7870 F   0  0  0  0  0  0  0  0  0  0  0  0
  -22.6570  -12.0090   21.8710 C   0  0  0  0  0  2  0  0  0  0  0  0
  -23.6570  -13.6010   22.2000 C   0  0  0  0  0  2  0  0  0  0  0  0
  -24.0140  -15.2400   21.4060 C   0  0  0  0  0  2  0  0  0  0  0  0
  -25.4420  -16.2490   20.9320 C   0  0  0  0  0  3  0  0  0  0  0  0
  -25.7700  -17.6120   19.7960 C   0  0  0  0  0  3  0  0  0  0  0  0
  -27.1590  -18.7420   19.5810 C   0  0  0  0  0  2  0  0  0  0  0  0
  -28.7120  -20.7090   18.0410 C   0  0  0  0  0  0  0  0  0  0  0  0
  -27.7480  -19.6060   18.2800 N   0  0  0  0  0  0  0  0  0  0  0  0
  -29.1290  -21.2720   19.0570 O   0  0  0  0  0  0  0  0  0  0  0  0
  -27.4520  -19.1950   17.4040 H   0  0  0  0  0  0  0  0  0  0  0  0
  -29.3850  -21.3120   16.5440 C   0  0  0  0  0  2  0  0  0  0  0  0
  -30.6880  -22.2940   16.2110 O   0  0  0  0  0  0  0  0  0  0  0  0
  -30.7200  -27.2220   10.8190 C   0  0  0  0  0  0  0  0  0  0  0  0
  -31.0410  -22.5670   14.8160 C   0  0  0  0  0  0  0  0  0  0  0  0
  -29.7900  -24.9740   10.4700 C   0  0  0  0  0  3  0  0  0  0  0  0
  -30.6570  -23.1080   12.0070 C   0  0  0  0  0  0  0  0  0  0  0  0
  -31.8590  -25.2730   11.9690 C   0  0  0  0  0  2  0  0  0  0  0  0
  -31.4210  -24.0160   12.7530 C   0  0  0  0  0  0  0  0  0  0  0  0
  -31.6350  -23.7430   14.1670 C   0  0  0  0  0  3  0  0  0  0  0  0
  -30.5520  -21.6040   13.9230 C   0  0  0  0  0  3  0  0  0  0  0  0
  -30.2990  -21.8820   12.5730 C   0  0  0  0  0  3  0  0  0  0  0  0
  -30.2100  -23.4850   10.6060 C   0  0  0  0  0  2  0  0  0  0  0  0
  -30.7990  -25.8850   11.0970 N   0  0  0  0  0  0  0  0  0  0  0  0
  -29.8340  -27.6830   10.0790 O   0  0  0  0  0  0  0  0  0  0  0  0
  -28.3620  -25.1810   11.0410 C   0  0  0  0  0  0  0  0  0  0  0  0
  -27.3280  -25.0050   10.1980 N   0  0  0  0  0  0  0  0  0  0  0  0
  -28.2010  -25.4810   12.2260 O   0  0  0  0  0  0  0  0  0  0  0  0
  -27.5340  -24.7750    9.2360 H   0  0  0  0  0  0  0  0  0  0  0  0
  -23.9630  -24.8680    8.8620 C   0  0  0  0  0  0  0  0  0  0  0  0
  -25.9090  -25.1200   10.5470 C   0  0  0  0  0  3  0  0  0  0  0  0
  -25.3850  -23.8120   11.1860 C   0  0  0  0  0  2  0  0  0  0  0  0
  -24.7620  -22.8520   10.1690 C   0  0  0  0  0  2  0  0  0  0  0  0
  -23.5830  -23.5200    9.4530 C   0  0  0  0  0  2  0  0  0  0  0  0
  -25.0640  -25.6120    9.3660 C   0  0  0  0  0  0  0  0  0  0  0  0
  -25.3910  -26.8440    8.7620 C   0  0  0  0  0  3  0  0  0  0  0  0
  -24.6440  -27.3340    7.6740 C   0  0  0  0  0  3  0  0  0  0  0  0
  -23.5480  -26.6010    7.1860 C   0  0  0  0  0  3  0  0  0  0  0  0
  -23.2060  -25.3740    7.7840 C   0  0  0  0  0  3  0  0  0  0  0  0
  -31.7470  -28.2360   11.4030 C   0  0  0  0  0  3  0  0  0  0  0  0
  -31.2020  -29.0140   12.6650 C   0  0  1  0  0  0  0  0  0  0  0  0
  -29.8390  -29.7060   12.4280 C   0  0  0  0  0  1  0  0  0  0  0  0
  -31.0390  -28.0650   13.8740 C   0  0  0  0  0  1  0  0  0  0  0  0
  -32.2180  -30.1000   13.0910 C   0  0  0  0  0  1  0  0  0  0  0  0
  -32.0960  -29.1860   10.3330 N   0  0  0  0  0  0  0  0  0  0  0  0
  -33.1970  -29.1170    9.5730 C   0  0  0  0  0  0  0  0  0  0  0  0
  -34.0730  -28.2670    9.7460 O   0  0  0  0  0  0  0  0  0  0  0  0
  -31.3970  -29.8760   10.0990 H   0  0  0  0  0  0  0  0  0  0  0  0
  -32.9930  -29.5150    7.0930 C   0  0  0  0  0  1  0  0  0  0  0  0
  -33.3530  -30.1560    8.4440 C   0  0  0  0  0  3  0  0  0  0  0  0
  -35.0200  -31.6360    9.4770 C   0  0  0  0  0  1  0  0  0  0  0  0
  -34.7100  -30.7420    8.3650 N   0  0  0  0  0  0  0  0  0  0  0  0
  -34.8280  -31.2610    7.4990 H   0  0  0  0  0  0  0  0  0  0  0  0
  1 54  1  0
  2  3  1  0
  2  1  1  0
  3 10  1  0
  4  2  2  0
  5  3  1  0
  6  9  1  0
  7  6  2  0
  9  8  2  0
  9 50  1  0
 10  7  1  0
 10 11  2  0
 11 20  1  0
 11  8  1  0
 12 13  1  6
 12 17  1  0
 12 18  1  0
 15 14  1  0
 15 16  1  0
 16 25  1  0
 19 12  1  0
 20 21  1  0
 22 23  2  0
 22 25  1  0
 23 24  1  0
 24 26  2  0
 24 27  1  0
 25 26  1  0
 27 28  1  0
 28 29  2  0
 30 29  1  0
 30 33  1  0
 31 30  2  0
 32 27  2  0
 32 31  1  0
 34 35  1  0
 34 33  1  0
 36 35  2  0
 37 36  1  0
 38 37  2  0
 38 39  1  0
 39 34  2  0
 40 39  1  0
 41 37  1  0
 42 43  1  0
 42 23  1  0
 43 45  1  0
 44 42  2  0
 46 43  1  0
 47 22  1  0
 48 47  1  0
 49 47  1  0
 50 53  1  1
 51 50  1  0
 52 50  1  0
 54 55  1  0
 56 55  1  0
 57 56  1  0
 58 57  2  0
 59 58  1  0
 60 61  1  0
 60 62  2  0
 61 59  1  0
 63 61  1  0
 64 60  1  0
 65 64  1  0
 66 76  1  0
 67 65  1  0
 68 75  1  0
 68 78  1  0
 68 76  1  0
 69 74  2  0
 69 71  1  0
 70 71  1  0
 71 72  2  0
 72 67  1  0
 73 67  2  0
 74 73  1  0
 75 69  1  0
 76 70  1  0
 77 66  2  0
 78 80  2  0
 79 78  1  0
 81 79  1  0
 82 87  1  0
 82 86  1  0
 83 79  1  0
 83 84  1  0
 85 84  1  0
 86 85  1  0
 87 83  1  0
 88 87  2  0
 89 88  1  0
 90 89  2  0
 90 91  1  0
 91 82  2  0
 92 66  1  0
 92 93  1  0
 93 96  1  1
 93 95  1  0
 94 93  1  0
 97 92  1  0
 98 99  2  0
 98 97  1  0
100 97  1  0
102101  1  0
102 98  1  0
104102  1  0
104103  1  0
105104  1  0
M  ISO  4  12 100  20 100  64 101  65 101
M  END
>  <TORSDO>  (29) 
F 27

>  <SCORE>  (29) 
2.729

>  <name>  (29) 
28

>  <ligand_id>  (29) 
28

>  <original_smiles>  (29) 
[H]c1c([H])c([H])c2c(c1[H])C([H])([H])C([H])([H])C([H])([H])C2([H])N([H])C(=O)C1([H])N(C(=O)C([H])(N([H])C(=O)C([H])(N([H])C([H])([H])[H])C([H])([H])[H])C(C([H])([H])[H])(C([H])([H])[H])C([H])([H])[H])C([H])([H])c2c([H])c(OC([H])([H])C(=O)N([H])C([H])([H])C([H])([H])C([H])([H])C([H])([H])C([H])([H])C([H])([H])C([H])([H])C(=O)N([H])c3c([H])c([H])c(C(F)(F)F)c([H])c3N([H])C(=O)N3C([H])([H])C([H])([H])C([H])([H])C([H])(n4nc(-c5c([H])c([H])c(Oc6c([H])c([H])c(F)c([H])c6F)c([H])c5[H])c(C(=O)N([H])[H])c4N([H])[H])C3([H])[H])c([H])c([H])c2C1([H])[H]

>  <smiles>  (29) 
[H]c1c([H])c([H])c2c(c1[H])C([H])([H])C([H])([H])C([H])([H])C2([H])N([H])C(=O)C1([H])N(C(=O)C([H])(N([H])C(=O)C([H])(N([H])C([H])([H])[H])C([H])([H])[H])C(C([H])([H])[H])(C([H])([H])[H])C([H])([H])[H])C([H])([H])c2c([H])c(OC([H])([H])C(=O)N([H])C([H])([H])C([H])([H])C([H])([H])C([H])([H])C([H])([H])C([H])([H])C([H])([H])C(=O)N([H])c3c([H])c([H])c(C(F)(F)F)c([H])c3N([H])C(=O)N3C([H])([H])C([H])([H])C([H])([H])C([H])(n4nc(-c5c([H])c([H])c(Oc6c([H])c([H])c(F)c([H])c6F)c([H])c5[H])c(C(=O)N([H])[H])c4N([H])[H])C3([H])[H])c([H])c([H])c2C1([H])[H]

$$$$
29:0:0
     RDKit          3D

 90 98  0  0  1  0  0  0  0  0999 V2000
  -31.0900  -17.8700   19.9420 C   0  0  0  0  0  3  0  0  0  0  0  0
  -31.0830  -19.2900   19.8000 C   0  0  0  0  0  3  0  0  0  0  0  0
  -28.7210  -19.3530   20.2200 C   0  0  0  0  0  3  0  0  0  0  0  0
  -29.9060  -17.1450   20.2400 C   0  0  0  0  0  0  0  0  0  0  0  0
  -29.9050  -20.0780   19.9250 C   0  0  0  0  0  0  0  0  0  0  0  0
  -28.7270  -17.9340   20.3870 C   0  0  0  0  0  0  0  0  0  0  0  0
  -27.2410  -17.1560   20.7970 Cl  0  0  0  0  0  0  0  0  0  0  0  0
  -30.5490  -14.6370   19.9140 C   0  0  0  0  0  0  0  0  0  0  0  0
  -30.2370  -12.4090   18.8490 C   0  0  0  0  0  2  0  0  0  0  0  0
  -29.2080  -12.5570   17.7060 C   0  0  0  0  0  2  0  0  0  0  0  0
  -27.7700  -12.4040   18.2400 C   0  0  0  0  0  2  0  0  0  0  0  0
  -27.5090  -13.2570   19.5100 C   0  0  0  0  0  3  0  0  0  0  0  0
  -28.6460  -13.0840   20.5440 C   0  0  0  0  0  2  0  0  0  0  0  0
  -29.9140  -13.4210   19.8770 N   0  0  0  0  0  0  0  0  0  0  0  0
  -31.6700  -14.7840   19.4210 O   0  0  0  0  0  0  0  0  0  0  0  0
  -29.8090  -15.6880   20.3890 N   0  0  0  0  0  0  0  0  0  0  0  0
  -28.9500  -15.3920   20.8290 H   0  0  0  0  0  0  0  0  0  0  0  0
  -25.1790  -13.8640   20.4090 C   0  0  0  0  0  0  0  0  0  0  0  0
  -24.1340  -13.0970   20.8460 C   0  0  0  0  0  0  0  0  0  0  0  0
  -24.5790  -11.7420   20.7580 C   0  0  0  0  0  0  0  0  0  0  0  0
  -26.1960  -12.9800   20.0880 N   0  0  0  0  0  0  0  0  0  0  0  0
  -25.8430  -11.6970   20.3550 N   0  0  0  0  0  0  0  0  0  0  0  0
  -23.8520  -10.4850   20.9780 C   0  0  0  0  0  0  0  0  0  0  0  0
  -24.3380   -9.4980   21.8630 C   0  0  0  0  0  3  0  0  0  0  0  0
  -23.6110   -8.3050   22.0720 C   0  0  0  0  0  3  0  0  0  0  0  0
  -22.3850   -8.0940   21.3960 C   0  0  0  0  0  0  0  0  0  0  0  0
  -21.9190   -9.0700   20.5000 C   0  0  0  0  0  3  0  0  0  0  0  0
  -22.6450  -10.2540   20.2880 C   0  0  0  0  0  3  0  0  0  0  0  0
  -21.6250   -6.9560   21.5180 O   0  0  0  0  0  0  0  0  0  0  0  0
  -21.6420   -6.1970   22.6620 C   0  0  0  0  0  0  0  0  0  0  0  0
  -21.2990   -6.7390   23.9190 C   0  0  0  0  0  3  0  0  0  0  0  0
  -21.2630   -5.9070   25.0570 C   0  0  0  0  0  3  0  0  0  0  0  0
  -21.5580   -4.5360   24.9380 C   0  0  0  0  0  0  0  0  0  0  0  0
  -21.8950   -3.9940   23.6850 C   0  0  0  0  0  3  0  0  0  0  0  0
  -21.9330   -4.8230   22.5490 C   0  0  0  0  0  0  0  0  0  0  0  0
  -22.2370   -4.2920   21.3410 F   0  0  0  0  0  0  0  0  0  0  0  0
  -21.5160   -3.7360   26.0290 F   0  0  0  0  0  0  0  0  0  0  0  0
  -22.7680  -13.5860   21.2320 C   0  0  0  0  0  0  0  0  0  0  0  0
  -22.1050  -12.8870   22.1460 N   0  0  0  0  0  0  0  0  0  0  0  0
  -22.3010  -14.6200   20.7590 O   0  0  0  0  0  0  0  0  0  0  0  0
  -22.4970  -12.0500   22.5510 H   0  0  0  0  0  0  0  0  0  0  0  0
  -21.1910  -13.1950   22.4490 H   0  0  0  0  0  0  0  0  0  0  0  0
  -25.3370  -15.2340   20.2360 N   0  0  0  0  0  0  0  0  0  0  0  0
  -24.5960  -15.8930   20.4500 H   0  0  0  0  0  0  0  0  0  0  0  0
  -26.1880  -15.6870   19.9280 H   0  0  0  0  0  0  0  0  0  0  0  0
  -30.0120  -21.4800   19.7880 O   0  0  0  0  0  0  0  0  0  0  0  0
  -28.8630  -22.3870   19.7400 C   0  0  0  0  0  3  0  0  0  0  0  0
  -29.2230  -23.9470   19.7530 C   0  0  0  0  0  3  0  0  0  0  0  0
  -28.0460  -24.9850   19.5050 C   0  0  0  0  0  2  0  0  0  0  0  0
  -28.2630  -26.4430   19.6740 O   0  0  0  0  0  0  0  0  0  0  0  0
  -24.4980  -31.6200   23.0230 C   0  0  0  0  0  0  0  0  0  0  0  0
  -27.1280  -27.2740   19.6890 C   0  0  0  0  0  0  0  0  0  0  0  0
  -23.2890  -30.2960   21.3270 C   0  0  0  0  0  3  0  0  0  0  0  0
  -24.7390  -28.8480   19.8000 C   0  0  0  0  0  0  0  0  0  0  0  0
  -25.8220  -30.6610   21.1270 C   0  0  0  0  0  2  0  0  0  0  0  0
  -25.9110  -29.3220   20.4040 C   0  0  0  0  0  0  0  0  0  0  0  0
  -27.1080  -28.5480   20.3370 C   0  0  0  0  0  3  0  0  0  0  0  0
  -25.9270  -26.8560   19.0670 C   0  0  0  0  0  3  0  0  0  0  0  0
  -24.7490  -27.6210   19.1240 C   0  0  0  0  0  3  0  0  0  0  0  0
  -23.4910  -29.7010   19.9090 C   0  0  0  0  0  2  0  0  0  0  0  0
  -24.5560  -30.8730   21.8820 N   0  0  0  0  0  0  0  0  0  0  0  0
  -23.4180  -31.8540   23.5860 O   0  0  0  0  0  0  0  0  0  0  0  0
  -22.6540  -29.2190   22.2380 C   0  0  0  0  0  0  0  0  0  0  0  0
  -21.3250  -29.0420   22.1310 N   0  0  0  0  0  0  0  0  0  0  0  0
  -23.3530  -28.5480   23.0010 O   0  0  0  0  0  0  0  0  0  0  0  0
  -20.8200  -29.6370   21.4900 H   0  0  0  0  0  0  0  0  0  0  0  0
  -17.9610  -27.8230   22.6560 C   0  0  0  0  0  0  0  0  0  0  0  0
  -20.5270  -28.0580   22.8620 C   0  0  0  0  0  3  0  0  0  0  0  0
  -20.6050  -26.6670   22.1900 C   0  0  0  0  0  2  0  0  0  0  0  0
  -19.4700  -26.4150   21.1920 C   0  0  0  0  0  2  0  0  0  0  0  0
  -18.1090  -26.5220   21.8880 C   0  0  0  0  0  2  0  0  0  0  0  0
  -19.0950  -28.5520   23.1000 C   0  0  0  0  0  0  0  0  0  0  0  0
  -18.9000  -29.7740   23.7810 C   0  0  0  0  0  3  0  0  0  0  0  0
  -17.6040  -30.2670   24.0200 C   0  0  0  0  0  3  0  0  0  0  0  0
  -16.4830  -29.5330   23.5910 C   0  0  0  0  0  3  0  0  0  0  0  0
  -16.6630  -28.3130   22.9150 C   0  0  0  0  0  3  0  0  0  0  0  0
  -25.7800  -32.2350   23.6620 C   0  0  0  0  0  3  0  0  0  0  0  0
  -26.3140  -31.4130   24.8990 C   0  0  1  0  0  0  0  0  0  0  0  0
  -25.2330  -31.1250   25.9670 C   0  0  0  0  0  1  0  0  0  0  0  0
  -26.8990  -30.0550   24.4430 C   0  0  0  0  0  1  0  0  0  0  0  0
  -27.4670  -32.1830   25.5820 C   0  0  0  0  0  1  0  0  0  0  0  0
  -25.4630  -33.6140   24.0550 N   0  0  0  0  0  0  0  0  0  0  0  0
  -25.7690  -34.7020   23.3360 C   0  0  0  0  0  0  0  0  0  0  0  0
  -26.4190  -34.6490   22.2880 O   0  0  0  0  0  0  0  0  0  0  0  0
  -24.8820  -33.7290   24.8740 H   0  0  0  0  0  0  0  0  0  0  0  0
  -24.0060  -36.4820   23.1030 C   0  0  0  0  0  1  0  0  0  0  0  0
  -25.2770  -36.0650   23.8610 C   0  0  0  0  0  3  0  0  0  0  0  0
  -27.4210  -36.9520   24.6650 C   0  0  0  0  0  1  0  0  0  0  0  0
  -26.2910  -37.1370   23.7570 N   0  0  0  0  0  0  0  0  0  0  0  0
  -25.8760  -38.0450   23.9470 H   0  0  0  0  0  0  0  0  0  0  0  0
  1  4  1  0
  2  5  1  0
  2  1  2  0
  3  6  1  0
  4  6  2  0
  4 16  1  0
  5  3  2  0
  6  7  1  0
  8 16  1  0
  9 14  1  0
 10 11  1  0
 10  9  1  0
 12 11  1  0
 12 21  1  0
 12 13  1  0
 14  8  1  0
 14 13  1  0
 15  8  2  0
 16 17  1  0
 18 19  2  0
 19 38  1  0
 20 19  1  0
 20 23  1  0
 21 22  1  0
 21 18  1  0
 22 20  2  0
 23 24  1  0
 24 25  2  0
 26 29  1  0
 26 25  1  0
 27 26  2  0
 28 27  1  0
 28 23  2  0
 29 30  1  0
 30 31  1  0
 31 32  2  0
 33 32  1  0
 33 37  1  0
 34 33  2  0
 35 30  2  0
 35 34  1  0
 36 35  1  0
 38 39  1  0
 39 42  1  0
 39 41  1  0
 40 38  2  0
 43 18  1  0
 43 44  1  0
 45 43  1  0
 46  5  1  0
 47 48  2  0
 47 46  1  0
 49 50  1  0
 49 48  1  0
 50 52  1  0
 51 62  2  0
 52 57  1  0
 53 61  1  0
 53 63  1  0
 54 60  1  0
 54 56  1  0
 55 61  1  0
 56 55  1  0
 57 56  2  0
 58 59  1  0
 58 52  2  0
 59 54  2  0
 60 53  1  0
 61 51  1  0
 63 65  2  0
 64 63  1  0
 66 64  1  0
 67 76  2  0
 67 72  1  0
 68 64  1  0
 68 72  1  0
 69 68  1  0
 70 71  1  0
 70 69  1  0
 71 67  1  0
 72 73  2  0
 73 74  1  0
 75 74  2  0
 76 75  1  0
 77 51  1  0
 77 82  1  0
 77 78  1  0
 78 81  1  1
 78 79  1  0
 80 78  1  0
 82 85  1  0
 83 87  1  0
 83 82  1  0
 84 83  2  0
 87 86  1  0
 89 87  1  0
 89 90  1  0
 89 88  1  0
M  ISO  4   8 100  16 100  49 101  50 101
M  END
>  <TORSDO>  (30) 
F 20

>  <SCORE>  (30) 
-12.886

>  <name>  (30) 
29

>  <ligand_id>  (30) 
29

>  <original_smiles>  (30) 
[H]c1c([H])c([H])c2c(c1[H])C([H])([H])C([H])([H])C([H])([H])C2([H])N([H])C(=O)C1([H])N(C(=O)C([H])(N([H])C(=O)C([H])(N([H])C([H])([H])[H])C([H])([H])[H])C(C([H])([H])[H])(C([H])([H])[H])C([H])([H])[H])C([H])([H])c2c([H])c(OC([H])([H])C([H])([H])C([H])([H])Oc3c([H])c([H])c(N([H])C(=O)N4C([H])([H])C([H])([H])C([H])([H])C([H])(n5nc(-c6c([H])c([H])c(Oc7c([H])c([H])c(F)c([H])c7F)c([H])c6[H])c(C(=O)N([H])[H])c5N([H])[H])C4([H])[H])c(Cl)c3[H])c([H])c([H])c2C1([H])[H]

>  <smiles>  (30) 
[H]c1c([H])c([H])c2c(c1[H])C([H])([H])C([H])([H])C([H])([H])C2([H])N([H])C(=O)C1([H])N(C(=O)C([H])(N([H])C(=O)C([H])(N([H])C([H])([H])[H])C([H])([H])[H])C(C([H])([H])[H])(C([H])([H])[H])C([H])([H])[H])C([H])([H])c2c([H])c(OC([H])([H])C([H])([H])C([H])([H])Oc3c([H])c([H])c(N([H])C(=O)N4C([H])([H])C([H])([H])C([H])([H])C([H])(n5nc(-c6c([H])c([H])c(Oc7c([H])c([H])c(F)c([H])c7F)c([H])c6[H])c(C(=O)N([H])[H])c5N([H])[H])C4([H])[H])c(Cl)c3[H])c([H])c([H])c2C1([H])[H]

$$$$
30:0:0
     RDKit          3D

 91 99  0  0  1  0  0  0  0  0999 V2000
  -28.8640  -23.4360   20.4200 C   0  0  0  0  0  0  0  0  0  0  0  0
  -28.5660  -22.1230   19.9750 N   0  0  0  0  0  0  0  0  0  0  0  0
  -29.8230  -23.6340   21.1690 O   0  0  0  0  0  0  0  0  0  0  0  0
  -27.7870  -22.1740   19.3320 H   0  0  0  0  0  0  0  0  0  0  0  0
  -29.9680  -20.0950   21.0900 C   0  0  0  0  0  3  0  0  0  0  0  0
  -30.2410  -18.6590   21.2010 C   0  0  0  0  0  3  0  0  0  0  0  0
  -28.4700  -19.6430   19.3310 C   0  0  0  0  0  3  0  0  0  0  0  0
  -28.7380  -18.2200   19.4300 C   0  0  0  0  0  0  0  0  0  0  0  0
  -29.0390  -20.6720   20.1540 C   0  0  0  0  0  0  0  0  0  0  0  0
  -29.6360  -17.6320   20.3850 C   0  0  0  0  0  0  0  0  0  0  0  0
  -27.9880  -17.3060   18.4760 C   0  0  0  0  0  1  0  0  0  0  0  0
  -30.5120  -15.0110   20.4260 C   0  0  0  0  0  0  0  0  0  0  0  0
  -30.4420  -12.6530   19.5020 C   0  0  0  0  0  2  0  0  0  0  0  0
  -29.5160  -12.6120   18.2620 C   0  0  0  0  0  2  0  0  0  0  0  0
  -28.0470  -12.4000   18.6790 C   0  0  0  0  0  2  0  0  0  0  0  0
  -27.6280  -13.3220   19.8530 C   0  0  0  0  0  3  0  0  0  0  0  0
  -28.6730  -13.3200   20.9900 C   0  0  0  0  0  2  0  0  0  0  0  0
  -29.9550  -13.7350   20.4020 N   0  0  0  0  0  0  0  0  0  0  0  0
  -31.7030  -15.1280   20.1210 O   0  0  0  0  0  0  0  0  0  0  0  0
  -29.6580  -16.1200   20.6440 N   0  0  0  0  0  0  0  0  0  0  0  0
  -28.7370  -15.7720   20.8630 H   0  0  0  0  0  0  0  0  0  0  0  0
  -25.2330  -13.8960   20.5660 C   0  0  0  0  0  0  0  0  0  0  0  0
  -24.1680  -13.1180   20.9240 C   0  0  0  0  0  0  0  0  0  0  0  0
  -24.6370  -11.7690   20.8970 C   0  0  0  0  0  0  0  0  0  0  0  0
  -26.2830  -13.0210   20.3370 N   0  0  0  0  0  0  0  0  0  0  0  0
  -25.9320  -11.7360   20.6010 N   0  0  0  0  0  0  0  0  0  0  0  0
  -23.9120  -10.5040   21.0800 C   0  0  0  0  0  0  0  0  0  0  0  0
  -24.3390   -9.5370   22.0160 C   0  0  0  0  0  3  0  0  0  0  0  0
  -23.6130   -8.3380   22.1880 C   0  0  0  0  0  3  0  0  0  0  0  0
  -22.4460   -8.1000   21.4240 C   0  0  0  0  0  0  0  0  0  0  0  0
  -22.0390   -9.0560   20.4770 C   0  0  0  0  0  3  0  0  0  0  0  0
  -22.7650  -10.2460   20.3030 C   0  0  0  0  0  3  0  0  0  0  0  0
  -21.6920   -6.9540   21.5040 O   0  0  0  0  0  0  0  0  0  0  0  0
  -21.6370   -6.2070   22.6540 C   0  0  0  0  0  0  0  0  0  0  0  0
  -21.1860   -6.7540   23.8750 C   0  0  0  0  0  3  0  0  0  0  0  0
  -21.0800   -5.9340   25.0170 C   0  0  0  0  0  3  0  0  0  0  0  0
  -21.4140   -4.5690   24.9370 C   0  0  0  0  0  0  0  0  0  0  0  0
  -21.8580   -4.0220   23.7200 C   0  0  0  0  0  3  0  0  0  0  0  0
  -21.9660   -4.8390   22.5810 C   0  0  0  0  0  0  0  0  0  0  0  0
  -22.3740   -4.3030   21.4060 F   0  0  0  0  0  0  0  0  0  0  0  0
  -21.3050   -3.7790   26.0310 F   0  0  0  0  0  0  0  0  0  0  0  0
  -22.7670  -13.5910   21.1790 C   0  0  0  0  0  0  0  0  0  0  0  0
  -22.0340  -12.8980   22.0440 N   0  0  0  0  0  0  0  0  0  0  0  0
  -22.3300  -14.6110   20.6490 O   0  0  0  0  0  0  0  0  0  0  0  0
  -22.3990  -12.0730   22.4940 H   0  0  0  0  0  0  0  0  0  0  0  0
  -21.0920  -13.1980   22.2570 H   0  0  0  0  0  0  0  0  0  0  0  0
  -25.3910  -15.2670   20.3940 N   0  0  0  0  0  0  0  0  0  0  0  0
  -24.6150  -15.9110   20.5050 H   0  0  0  0  0  0  0  0  0  0  0  0
  -26.2350  -15.7180   20.0710 H   0  0  0  0  0  0  0  0  0  0  0  0
  -27.9360  -24.7350   19.9640 C   0  0  0  0  0  2  0  0  0  0  0  0
  -28.2350  -26.2250   20.3050 O   0  0  0  0  0  0  0  0  0  0  0  0
  -24.6230  -31.9270   23.2730 C   0  0  0  0  0  0  0  0  0  0  0  0
  -27.1900  -27.2200   20.2250 C   0  0  0  0  0  0  0  0  0  0  0  0
  -23.4170  -30.5340   21.6370 C   0  0  0  0  0  3  0  0  0  0  0  0
  -24.8610  -28.9650   20.2030 C   0  0  0  0  0  0  0  0  0  0  0  0
  -25.9710  -30.7980   21.4670 C   0  0  0  0  0  2  0  0  0  0  0  0
  -26.0420  -29.4070   20.8110 C   0  0  0  0  0  0  0  0  0  0  0  0
  -27.2060  -28.5490   20.8100 C   0  0  0  0  0  3  0  0  0  0  0  0
  -25.9830  -26.8860   19.5660 C   0  0  0  0  0  3  0  0  0  0  0  0
  -24.8440  -27.7170   19.5660 C   0  0  0  0  0  3  0  0  0  0  0  0
  -23.6330  -29.8600   20.2570 C   0  0  0  0  0  2  0  0  0  0  0  0
  -24.6910  -31.1070   22.1800 N   0  0  0  0  0  0  0  0  0  0  0  0
  -23.5390  -32.2120   23.8050 O   0  0  0  0  0  0  0  0  0  0  0  0
  -22.7410  -29.5250   22.6000 C   0  0  0  0  0  0  0  0  0  0  0  0
  -21.4140  -29.3490   22.4720 N   0  0  0  0  0  0  0  0  0  0  0  0
  -23.4130  -28.9030   23.4270 O   0  0  0  0  0  0  0  0  0  0  0  0
  -20.9270  -29.9030   21.7790 H   0  0  0  0  0  0  0  0  0  0  0  0
  -18.0360  -28.1340   22.9650 C   0  0  0  0  0  0  0  0  0  0  0  0
  -20.5930  -28.4120   23.2430 C   0  0  0  0  0  3  0  0  0  0  0  0
  -20.7060  -26.9760   22.6790 C   0  0  0  0  0  2  0  0  0  0  0  0
  -19.6110  -26.6410   21.6610 C   0  0  0  0  0  2  0  0  0  0  0  0
  -18.2240  -26.7820   22.2970 C   0  0  0  0  0  2  0  0  0  0  0  0
  -19.1480  -28.9060   23.3950 C   0  0  0  0  0  0  0  0  0  0  0  0
  -18.9180  -30.1690   23.9810 C   0  0  0  0  0  3  0  0  0  0  0  0
  -17.6080  -30.6610   24.1400 C   0  0  0  0  0  3  0  0  0  0  0  0
  -16.5120  -29.8870   23.7250 C   0  0  0  0  0  3  0  0  0  0  0  0
  -16.7260  -28.6240   23.1440 C   0  0  0  0  0  3  0  0  0  0  0  0
  -25.9040  -32.5610   23.8960 C   0  0  0  0  0  3  0  0  0  0  0  0
  -25.6010  -33.9650   24.2100 N   0  0  0  0  0  0  0  0  0  0  0  0
  -25.9210  -35.0090   23.4320 C   0  0  0  0  0  0  0  0  0  0  0  0
  -26.5700  -34.8890   22.3900 O   0  0  0  0  0  0  0  0  0  0  0  0
  -25.0230  -34.1320   25.0200 H   0  0  0  0  0  0  0  0  0  0  0  0
  -24.1810  -36.7980   23.1060 C   0  0  0  0  0  1  0  0  0  0  0  0
  -25.4500  -36.4060   23.8830 C   0  0  0  0  0  3  0  0  0  0  0  0
  -27.6080  -37.3090   24.6280 C   0  0  0  0  0  1  0  0  0  0  0  0
  -26.4770  -37.4580   23.7160 N   0  0  0  0  0  0  0  0  0  0  0  0
  -26.0740  -38.3800   23.8570 H   0  0  0  0  0  0  0  0  0  0  0  0
  -26.4040  -31.8050   25.1890 C   0  0  1  0  0  0  0  0  0  0  0  0
  -25.3010  -31.5930   26.2520 C   0  0  0  0  0  1  0  0  0  0  0  0
  -26.9790  -30.4150   24.8270 C   0  0  0  0  0  1  0  0  0  0  0  0
  -27.5560  -32.6000   25.8470 C   0  0  0  0  0  1  0  0  0  0  0  0
  1  3  2  0
  2  9  1  0
  2  1  1  0
  4  2  1  0
  5  6  1  0
  7  8  2  0
  7  9  1  0
  8 10  1  0
  9  5  2  0
 10 20  1  0
 10  6  2  0
 11  8  1  0
 12 20  1  0
 13 18  1  0
 14 15  1  0
 14 13  1  0
 16 15  1  0
 16 25  1  0
 16 17  1  0
 18 12  1  0
 18 17  1  0
 19 12  2  0
 20 21  1  0
 22 23  2  0
 23 42  1  0
 24 23  1  0
 24 27  1  0
 25 22  1  0
 25 26  1  0
 26 24  2  0
 27 28  1  0
 28 29  2  0
 30 33  1  0
 30 29  1  0
 31 30  2  0
 32 31  1  0
 32 27  2  0
 33 34  1  0
 34 35  1  0
 35 36  2  0
 37 36  1  0
 37 41  1  0
 38 37  2  0
 39 34  2  0
 39 38  1  0
 40 39  1  0
 42 43  1  0
 43 46  1  0
 43 45  1  0
 44 42  2  0
 47 48  1  0
 47 22  1  0
 49 47  1  0
 50 51  1  0
 50  1  1  0
 52 63  2  0
 53 51  1  0
 53 58  1  0
 54 62  1  0
 54 64  1  0
 55 61  1  0
 55 57  1  0
 56 62  1  0
 57 56  1  0
 58 57  2  0
 59 60  1  0
 59 53  2  0
 60 55  2  0
 61 54  1  0
 62 52  1  0
 64 66  2  0
 65 64  1  0
 67 65  1  0
 68 77  2  0
 68 73  1  0
 69 65  1  0
 69 73  1  0
 70 69  1  0
 71 72  1  0
 71 70  1  0
 72 68  1  0
 73 74  2  0
 74 75  1  0
 76 75  2  0
 77 76  1  0
 78 52  1  0
 78 79  1  0
 78 88  1  0
 79 82  1  0
 80 84  1  0
 80 79  1  0
 81 80  2  0
 84 83  1  0
 86 87  1  0
 86 84  1  0
 86 85  1  0
 88 91  1  1
 88 89  1  0
 90 88  1  0
M  ISO  4  12 100  20 100  50 101  51 101
M  END
>  <TORSDO>  (31) 
F 18

>  <SCORE>  (31) 
-14.712

>  <name>  (31) 
30

>  <ligand_id>  (31) 
30

>  <original_smiles>  (31) 
[H]c1c([H])c([H])c2c(c1[H])C([H])([H])C([H])([H])C([H])([H])C2([H])N([H])C(=O)C1([H])N(C(=O)C([H])(N([H])C(=O)C([H])(N([H])C([H])([H])[H])C([H])([H])[H])C(C([H])([H])[H])(C([H])([H])[H])C([H])([H])[H])C([H])([H])c2c([H])c(OC([H])([H])C(=O)N([H])c3c([H])c([H])c(N([H])C(=O)N4C([H])([H])C([H])([H])C([H])([H])C([H])(n5nc(-c6c([H])c([H])c(Oc7c([H])c([H])c(F)c([H])c7F)c([H])c6[H])c(C(=O)N([H])[H])c5N([H])[H])C4([H])[H])c(C([H])([H])[H])c3[H])c([H])c([H])c2C1([H])[H]

>  <smiles>  (31) 
[H]c1c([H])c([H])c2c(c1[H])C([H])([H])C([H])([H])C([H])([H])C2([H])N([H])C(=O)C1([H])N(C(=O)C([H])(N([H])C(=O)C([H])(N([H])C([H])([H])[H])C([H])([H])[H])C(C([H])([H])[H])(C([H])([H])[H])C([H])([H])[H])C([H])([H])c2c([H])c(OC([H])([H])C(=O)N([H])c3c([H])c([H])c(N([H])C(=O)N4C([H])([H])C([H])([H])C([H])([H])C([H])(n5nc(-c6c([H])c([H])c(Oc7c([H])c([H])c(F)c([H])c7F)c([H])c6[H])c(C(=O)N([H])[H])c5N([H])[H])C4([H])[H])c(C([H])([H])[H])c3[H])c([H])c([H])c2C1([H])[H]

$$$$
31:0:0
     RDKit          3D

 98 98  0  0  1  0  0  0  0  0999 V2000
  -22.2260  -15.1850   22.5460 C   0  0  0  0  0 15  0  0  0  0  0  0
  -23.3030  -16.6470   21.6270 C   0  0  0  0  0 15  0  0  0  0  0  0
  -25.1460  -13.0830   22.4570 C   0  0  0  0  0 15  0  0  0  0  0  0
  -23.0770  -13.3640   22.8920 C   0  0  0  0  0  1  0  0  0  0  0  0
  -26.1840  -14.5890   21.4420 C   0  0  0  0  0  1  0  0  0  0  0  0
  -25.2190  -16.3710   21.0840 C   0  0  0  0  0  1  0  0  0  0  0  0
  -29.0460  -13.8530   20.1330 C   0  0  0  0  0  0  0  0  0  0  0  0
  -29.8420  -11.6560   18.8930 C   0  0  0  0  0  2  0  0  0  0  0  0
  -28.9090  -11.3550   17.6630 C   0  0  0  0  0  2  0  0  0  0  0  0
  -27.4680  -11.0160   18.0830 C   0  0  0  0  0  2  0  0  0  0  0  0
  -27.1470  -11.9800   19.1810 C   0  0  0  0  0  3  0  0  0  0  0  0
  -28.0380  -11.7900   20.4060 C   0  0  0  0  0  2  0  0  0  0  0  0
  -29.1470  -12.4900   19.9590 N   0  0  0  0  0  0  0  0  0  0  0  0
  -30.0710  -14.3540   19.5520 O   0  0  0  0  0  0  0  0  0  0  0  0
  -27.8030  -14.5470   20.8090 N   0  0  0  0  0  0  0  0  0  0  0  0
  -28.0490  -15.5210   20.6900 H   0  0  0  0  0  0  0  0  0  0  0  0
  -25.0580  -13.0700   19.4510 C   0  0  0  0  0  3  0  0  0  0  0  0
  -24.1540  -12.8610   20.3500 C   0  0  0  0  0  3  0  0  0  0  0  0
  -24.2380  -11.4620   20.8320 C   0  0  0  0  0  3  0  0  0  0  0  0
  -25.8420  -11.9980   19.5930 N   0  0  0  0  0  0  0  0  0  0  0  0
  -25.3540  -10.9820   20.3200 N   0  0  0  0  0  2  0  0  0  0  0  0
  -23.4390  -10.4610   21.6790 C   0  0  0  0  0  3  0  0  0  0  0  0
  -24.4200   -9.0670   21.9740 C   0  0  0  0  0  3  0  0  0  0  0  0
  -23.6830   -7.5950   22.3350 C   0  0  0  0  0  3  0  0  0  0  0  0
  -22.0260   -7.3820   22.4260 C   0  0  0  0  0  0  0  0  0  0  0  0
  -20.9030   -8.5130   22.1710 C   0  0  0  0  0  3  0  0  0  0  0  0
  -21.3460  -10.0390   21.8740 C   0  0  0  0  0  2  0  0  0  0  0  0
  -21.3760   -6.2800   22.7510 O   0  0  0  0  0  0  0  0  0  0  0  0
  -21.4880   -5.8490   24.0210 C   0  0  0  0  0  0  0  0  0  0  0  0
  -21.3220   -6.6050   25.2080 C   0  0  0  0  0  3  0  0  0  0  0  0
  -21.4910   -5.9670   26.4480 C   0  0  0  0  0  3  0  0  0  0  0  0
  -21.7540   -4.5850   26.4840 C   0  0  0  0  0  0  0  0  0  0  0  0
  -21.8510   -3.8400   25.2970 C   0  0  0  0  0  3  0  0  0  0  0  0
  -21.7160   -4.4840   24.0660 C   0  0  0  0  0  0  0  0  0  0  0  0
  -21.7720   -3.8040   22.8960 F   0  0  0  0  0  0  0  0  0  0  0  0
  -21.8770   -3.9520   27.6690 F   0  0  0  0  0  0  0  0  0  0  0  0
  -23.7670  -14.2240   20.9130 C   0  0  0  0  0  2  0  0  0  0  0  0
  -24.3990  -15.1250   22.7230 N   0  0  0  0  0  2  0  0  0  0  0  0
  -22.8090  -14.5430   20.1540 O   0  0  0  0  0  1  0  0  0  0  0  0
  -25.0340  -14.6300   23.3300 H   0  0  0  0  0  0  0  0  0  0  0  0
  -23.9180  -15.9560   23.0360 H   0  0  0  0  0  0  0  0  0  0  0  0
  -25.3800  -14.2530   18.7810 N   0  0  0  0  0  0  0  0  0  0  0  0
  -24.7100  -15.0030   18.6580 H   0  0  0  0  0  0  0  0  0  0  0  0
  -26.1700  -14.3400   18.1550 H   0  0  0  0  0  0  0  0  0  0  0  0
  -21.5580  -12.2170   20.3510 C   0  0  0  0  0 15  0  0  0  0  0  0
  -22.2930  -11.0550   23.5250 C   0  0  0  0  0  2  0  0  0  0  0  0
  -21.8900  -10.6070   19.2630 C   0  0  0  0  0  1  0  0  0  0  0  0
  -22.5810   -9.3480   22.9840 C   0  0  0  0  0  3  0  0  0  0  0  0
  -21.9740  -12.3920   22.3430 C   0  0  0  0  0  2  0  0  0  0  0  0
  -21.9940   -7.9100   19.1160 C   0  0  0  0  0  1  0  0  0  0  0  0
  -22.3750   -9.0570   20.0310 N   0  0  0  0  0  0  0  0  0  0  0  0
  -23.3740   -9.0730   19.8680 H   0  0  0  0  0  0  0  0  0  0  0  0
  -26.0550  -17.5620   20.6280 O   0  0  0  0  0  0  0  0  0  0  0  0
  -25.7880  -19.0840   20.1380 C   0  0  0  0  0  2  0  0  0  0  0  0
  -26.7920  -20.5630   20.1890 C   0  0  0  0  0  2  0  0  0  0  0  0
  -26.8610  -22.0840   19.2520 C   0  0  0  0  0  3  0  0  0  0  0  0
  -27.3520  -23.7410   19.6830 C   0  0  0  0  0  3  0  0  0  0  0  0
  -27.7310  -25.1590   18.9480 O   0  0  0  0  0  0  0  0  0  0  0  0
  -24.9030  -31.0790   22.3770 C   0  0  0  0  0  0  0  0  0  0  0  0
  -26.8780  -26.3340   18.9650 C   0  0  0  0  0  0  0  0  0  0  0  0
  -23.4830  -29.6900   20.9290 C   0  0  0  0  0  3  0  0  0  0  0  0
  -24.6830  -28.1990   19.2190 C   0  0  0  0  0  0  0  0  0  0  0  0
  -25.9760  -29.9920   20.3520 C   0  0  0  0  0  2  0  0  0  0  0  0
  -25.9490  -28.6040   19.6640 C   0  0  0  0  0  0  0  0  0  0  0  0
  -27.0670  -27.6850   19.5060 C   0  0  0  0  0  3  0  0  0  0  0  0
  -25.6220  -26.0970   18.4040 C   0  0  0  0  0  3  0  0  0  0  0  0
  -24.5410  -26.9790   18.5470 C   0  0  0  0  0  3  0  0  0  0  0  0
  -23.4800  -29.0830   19.5030 C   0  0  0  0  0  2  0  0  0  0  0  0
  -24.8180  -30.2800   21.2680 N   0  0  0  0  0  0  0  0  0  0  0  0
  -23.9120  -31.3130   23.0870 O   0  0  0  0  0  0  0  0  0  0  0  0
  -23.0160  -28.6240   21.9550 C   0  0  0  0  0  0  0  0  0  0  0  0
  -21.7070  -28.3150   21.9710 N   0  0  0  0  0  0  0  0  0  0  0  0
  -23.8290  -28.0840   22.7090 O   0  0  0  0  0  0  0  0  0  0  0  0
  -21.0960  -28.8090   21.3350 H   0  0  0  0  0  0  0  0  0  0  0  0
  -18.5660  -26.6770   22.7420 C   0  0  0  0  0  0  0  0  0  0  0  0
  -21.0720  -27.3100   22.8300 C   0  0  0  0  0  3  0  0  0  0  0  0
  -21.3440  -25.8790   22.3120 C   0  0  0  0  0  2  0  0  0  0  0  0
  -20.2430  -25.3530   21.3840 C   0  0  0  0  0  2  0  0  0  0  0  0
  -18.8950  -25.3350   22.1090 C   0  0  0  0  0  2  0  0  0  0  0  0
  -19.5870  -27.6100   23.0660 C   0  0  0  0  0  0  0  0  0  0  0  0
  -19.2240  -28.8550   23.6250 C   0  0  0  0  0  3  0  0  0  0  0  0
  -17.8720  -29.1730   23.8580 C   0  0  0  0  0  3  0  0  0  0  0  0
  -16.8670  -28.2400   23.5460 C   0  0  0  0  0  3  0  0  0  0  0  0
  -17.2150  -26.9950   22.9950 C   0  0  0  0  0  3  0  0  0  0  0  0
  -26.2430  -31.7560   22.7930 C   0  0  0  0  0  3  0  0  0  0  0  0
  -25.9300  -33.1070   23.2900 N   0  0  0  0  0  0  0  0  0  0  0  0
  -26.0360  -34.2320   22.5700 C   0  0  0  0  0  0  0  0  0  0  0  0
  -26.4770  -34.2460   21.4180 O   0  0  0  0  0  0  0  0  0  0  0  0
  -25.5140  -33.1650   24.2070 H   0  0  0  0  0  0  0  0  0  0  0  0
  -24.1690  -35.9150   22.7470 C   0  0  0  0  0  1  0  0  0  0  0  0
  -25.5820  -35.5500   23.2310 C   0  0  0  0  0  3  0  0  0  0  0  0
  -27.7970  -36.5340   23.6320 C   0  0  0  0  0  1  0  0  0  0  0  0
  -26.5000  -36.6830   22.9770 N   0  0  0  0  0  0  0  0  0  0  0  0
  -26.0870  -37.5580   23.2910 H   0  0  0  0  0  0  0  0  0  0  0  0
  -27.0300  -30.9430   23.8950 C   0  0  1  0  0  0  0  0  0  0  0  0
  -26.1790  -30.5810   25.1330 C   0  0  0  0  0  1  0  0  0  0  0  0
  -27.5940  -29.6270   23.3120 C   0  0  0  0  0  1  0  0  0  0  0  0
  -28.2460  -31.7670   24.3840 C   0  0  0  0  0  1  0  0  0  0  0  0
  7 15  1  0
  8 13  1  0
  9 10  1  0
  9  8  1  0
 11 10  1  0
 11 20  1  0
 11 12  1  0
 13  7  1  0
 13 12  1  0
 14  7  2  0
 15  5  1  0
 16 15  1  0
 17 42  1  0
 17 20  1  0
 17 18  1  0
 18 19  1  0
 18 37  1  0
 19 21  1  0
 19 22  1  0
 20 21  1  0
 22 23  1  0
 22 48  1  0
 23 24  2  0
 24 25  1  0
 25 28  1  0
 26 25  2  0
 27 26  1  0
 27 48  1  0
 28 29  1  0
 29 34  2  0
 29 30  1  0
 30 31  2  0
 31 32  1  0
 32 36  1  0
 33 32  2  0
 34 33  1  0
 35 34  1  0
 38 41  1  0
 38 40  1  0
 39 37  1  0
 43 42  1  0
 44 42  1  0
 47 51  1  0
 48 46  1  0
 49  4  1  0
 49 46  1  0
 50 51  1  0
 52 51  1  0
 53  6  1  0
 54 55  1  0
 54 53  1  0
 56 57  2  0
 56 55  1  0
 58 60  1  0
 58 57  1  0
 59 70  2  0
 60 65  1  0
 61 69  1  0
 61 71  1  0
 62 68  1  0
 62 64  1  0
 63 69  1  0
 64 63  1  0
 65 64  2  0
 66 67  1  0
 66 60  2  0
 67 62  2  0
 68 61  1  0
 69 59  1  0
 71 72  1  0
 71 73  2  0
 74 72  1  0
 75 84  2  0
 75 80  1  0
 76 72  1  0
 76 80  1  0
 77 76  1  0
 78 79  1  0
 78 77  1  0
 79 75  1  0
 80 81  2  0
 81 82  1  0
 83 82  2  0
 84 83  1  0
 85 59  1  0
 85 86  1  0
 85 95  1  0
 86 89  1  0
 87 91  1  0
 87 86  1  0
 88 87  2  0
 91 90  1  0
 93 91  1  0
 93 94  1  0
 93 92  1  0
 95 98  1  1
 95 96  1  0
 97 95  1  0
M  ISO  4   7 100  15 100  57 101  58 101
M  END
>  <TORSDO>  (32) 
F 22

>  <SCORE>  (32) 
26.748

>  <name>  (32) 
31

>  <ligand_id>  (32) 
31

>  <original_smiles>  (32) 
[H]c1c([H])c([H])c2c(c1[H])C([H])([H])C([H])([H])C([H])([H])C2([H])N([H])C(=O)C1([H])N(C(=O)C([H])(N([H])C(=O)C([H])(N([H])C([H])([H])[H])C([H])([H])[H])C(C([H])([H])[H])(C([H])([H])[H])C([H])([H])[H])C([H])([H])c2c([H])c(OC([H])([H])C([H])([H])C([H])([H])C([H])([H])Oc3c([H])c([H])c(C4([H])C([H])([H])C([H])([H])[N+]([H])(C([H])([H])[H])C([H])([H])C4([H])[H])c([H])c3N([H])C(=O)N3C([H])([H])C([H])([H])C([H])([H])C([H])(n4nc(-c5c([H])c([H])c(Oc6c([H])c([H])c(F)c([H])c6F)c([H])c5[H])c(C(=O)N([H])[H])c4N([H])[H])C3([H])[H])c([H])c([H])c2C1([H])[H]

>  <smiles>  (32) 
[H]c1c([H])c([H])c2c(c1[H])C([H])([H])C([H])([H])C([H])([H])C2([H])N([H])C(=O)C1([H])N(C(=O)C([H])(N([H])C(=O)C([H])(N([H])C([H])([H])[H])C([H])([H])[H])C(C([H])([H])[H])(C([H])([H])[H])C([H])([H])[H])C([H])([H])c2c([H])c(OC([H])([H])C([H])([H])C([H])([H])C([H])([H])Oc3c([H])c([H])c(C4([H])C([H])([H])C([H])([H])[N+]([H])(C([H])([H])[H])C([H])([H])C4([H])[H])c([H])c3N([H])C(=O)N3C([H])([H])C([H])([H])C([H])([H])C([H])(n4nc(-c5c([H])c([H])c(Oc6c([H])c([H])c(F)c([H])c6F)c([H])c5[H])c(C(=O)N([H])[H])c4N([H])[H])C3([H])[H])c([H])c([H])c2C1([H])[H]

$$$$
32:0:0
     RDKit          3D

 90 98  0  0  1  0  0  0  0  0999 V2000
  -30.6050  -14.7730   20.4630 C   0  0  0  0  0  0  0  0  0  0  0  0
  -30.3880  -12.4990   19.4350 C   0  0  0  0  0  2  0  0  0  0  0  0
  -29.4660  -12.5690   18.1980 C   0  0  0  0  0  2  0  0  0  0  0  0
  -27.9910  -12.4070   18.6120 C   0  0  0  0  0  2  0  0  0  0  0  0
  -27.6050  -13.2980   19.8230 C   0  0  0  0  0  3  0  0  0  0  0  0
  -28.6500  -13.2160   20.9560 C   0  0  0  0  0  2  0  0  0  0  0  0
  -29.9510  -13.5620   20.3710 N   0  0  0  0  0  0  0  0  0  0  0  0
  -31.8060  -14.8210   20.1770 O   0  0  0  0  0  0  0  0  0  0  0  0
  -29.3920  -18.4820   20.4210 C   0  0  0  0  0  3  0  0  0  0  0  0
  -31.8380  -18.9240   21.4790 C   0  0  0  0  0  3  0  0  0  0  0  0
  -29.7810  -19.8780   20.5900 C   0  0  0  0  0  0  0  0  0  0  0  0
  -31.0830  -20.0580   21.1190 C   0  0  0  0  0  0  0  0  0  0  0  0
  -30.2430  -17.3530   20.7780 C   0  0  0  0  0  0  0  0  0  0  0  0
  -31.4450  -17.6390   21.3250 N   0  0  0  0  0  0  0  0  0  0  0  0
  -29.8440  -15.9310   20.6120 N   0  0  0  0  0  0  0  0  0  0  0  0
  -31.8520  -21.6040   21.2430 Cl  0  0  0  0  0  0  0  0  0  0  0  0
  -28.8500  -15.7710   20.6190 H   0  0  0  0  0  0  0  0  0  0  0  0
  -25.2070  -13.8940   20.5070 C   0  0  0  0  0  0  0  0  0  0  0  0
  -24.1350  -13.1230   20.8670 C   0  0  0  0  0  0  0  0  0  0  0  0
  -24.5980  -11.7720   20.8550 C   0  0  0  0  0  0  0  0  0  0  0  0
  -26.2540  -13.0130   20.2960 N   0  0  0  0  0  0  0  0  0  0  0  0
  -25.8950  -11.7320   20.5700 N   0  0  0  0  0  0  0  0  0  0  0  0
  -23.8670  -10.5110   21.0430 C   0  0  0  0  0  0  0  0  0  0  0  0
  -24.2880   -9.5460   21.9830 C   0  0  0  0  0  3  0  0  0  0  0  0
  -23.5560   -8.3520   22.1600 C   0  0  0  0  0  3  0  0  0  0  0  0
  -22.3890   -8.1150   21.3950 C   0  0  0  0  0  0  0  0  0  0  0  0
  -21.9880   -9.0700   20.4430 C   0  0  0  0  0  3  0  0  0  0  0  0
  -22.7200  -10.2550   20.2650 C   0  0  0  0  0  3  0  0  0  0  0  0
  -21.6300   -6.9730   21.4800 O   0  0  0  0  0  0  0  0  0  0  0  0
  -21.5710   -6.2310   22.6330 C   0  0  0  0  0  0  0  0  0  0  0  0
  -21.1510   -6.7920   23.8590 C   0  0  0  0  0  3  0  0  0  0  0  0
  -21.0390   -5.9780   25.0040 C   0  0  0  0  0  3  0  0  0  0  0  0
  -21.3360   -4.6050   24.9230 C   0  0  0  0  0  0  0  0  0  0  0  0
  -21.7500   -4.0430   23.7030 C   0  0  0  0  0  3  0  0  0  0  0  0
  -21.8640   -4.8540   22.5600 C   0  0  0  0  0  0  0  0  0  0  0  0
  -22.2430   -4.3030   21.3810 F   0  0  0  0  0  0  0  0  0  0  0  0
  -21.2210   -3.8210   26.0220 F   0  0  0  0  0  0  0  0  0  0  0  0
  -22.7340  -13.6040   21.1070 C   0  0  0  0  0  0  0  0  0  0  0  0
  -21.9900  -12.9180   21.9670 N   0  0  0  0  0  0  0  0  0  0  0  0
  -22.3070  -14.6240   20.5680 O   0  0  0  0  0  0  0  0  0  0  0  0
  -22.3480  -12.0910   22.4240 H   0  0  0  0  0  0  0  0  0  0  0  0
  -21.0500  -13.2240   22.1750 H   0  0  0  0  0  0  0  0  0  0  0  0
  -25.3700  -15.2620   20.3170 N   0  0  0  0  0  0  0  0  0  0  0  0
  -24.5850  -15.9020   20.3880 H   0  0  0  0  0  0  0  0  0  0  0  0
  -26.2030  -15.7010   19.9500 H   0  0  0  0  0  0  0  0  0  0  0  0
  -28.9880  -20.9770   20.1290 O   0  0  0  0  0  0  0  0  0  0  0  0
  -28.7770  -22.2700   20.8620 C   0  0  0  0  0  3  0  0  0  0  0  0
  -28.7820  -23.7030   20.0860 C   0  0  0  0  0  3  0  0  0  0  0  0
  -28.2360  -25.0380   20.8350 C   0  0  0  0  0  2  0  0  0  0  0  0
  -28.3860  -26.4330   20.2940 O   0  0  0  0  0  0  0  0  0  0  0  0
  -24.6150  -31.9010   23.2650 C   0  0  0  0  0  0  0  0  0  0  0  0
  -27.2710  -27.2980   20.2820 C   0  0  0  0  0  0  0  0  0  0  0  0
  -23.4330  -30.4840   21.6240 C   0  0  0  0  0  3  0  0  0  0  0  0
  -24.9030  -28.9190   20.2280 C   0  0  0  0  0  0  0  0  0  0  0  0
  -25.9730  -30.8050   21.4610 C   0  0  0  0  0  2  0  0  0  0  0  0
  -26.0670  -29.4180   20.8280 C   0  0  0  0  0  0  0  0  0  0  0  0
  -27.2570  -28.6210   20.8370 C   0  0  0  0  0  3  0  0  0  0  0  0
  -26.0830  -26.8560   19.6620 C   0  0  0  0  0  3  0  0  0  0  0  0
  -24.9150  -27.6470   19.6320 C   0  0  0  0  0  3  0  0  0  0  0  0
  -23.6640  -29.7930   20.2540 C   0  0  0  0  0  2  0  0  0  0  0  0
  -24.6920  -31.0830   22.1730 N   0  0  0  0  0  0  0  0  0  0  0  0
  -23.5250  -32.1780   23.7870 O   0  0  0  0  0  0  0  0  0  0  0  0
  -22.7610  -29.4770   22.5900 C   0  0  0  0  0  0  0  0  0  0  0  0
  -21.4340  -29.3030   22.4600 N   0  0  0  0  0  0  0  0  0  0  0  0
  -23.4350  -28.8520   23.4140 O   0  0  0  0  0  0  0  0  0  0  0  0
  -20.9480  -29.8570   21.7690 H   0  0  0  0  0  0  0  0  0  0  0  0
  -18.0510  -28.1210   22.9620 C   0  0  0  0  0  0  0  0  0  0  0  0
  -20.6110  -28.3700   23.2310 C   0  0  0  0  0  3  0  0  0  0  0  0
  -20.7070  -26.9380   22.6600 C   0  0  0  0  0  2  0  0  0  0  0  0
  -19.6060  -26.6170   21.6450 C   0  0  0  0  0  2  0  0  0  0  0  0
  -18.2230  -26.7700   22.2880 C   0  0  0  0  0  2  0  0  0  0  0  0
  -19.1730  -28.8800   23.3900 C   0  0  0  0  0  0  0  0  0  0  0  0
  -18.9620  -30.1440   23.9810 C   0  0  0  0  0  3  0  0  0  0  0  0
  -17.6600  -30.6520   24.1460 C   0  0  0  0  0  3  0  0  0  0  0  0
  -16.5520  -29.8910   23.7360 C   0  0  0  0  0  3  0  0  0  0  0  0
  -16.7470  -28.6270   23.1510 C   0  0  0  0  0  3  0  0  0  0  0  0
  -25.8890  -32.5460   23.8930 C   0  0  0  0  0  3  0  0  0  0  0  0
  -26.3930  -31.7920   25.1850 C   0  0  1  0  0  0  0  0  0  0  0  0
  -25.2900  -31.5690   26.2440 C   0  0  0  0  0  1  0  0  0  0  0  0
  -26.9800  -30.4090   24.8190 C   0  0  0  0  0  1  0  0  0  0  0  0
  -27.5350  -32.5990   25.8480 C   0  0  0  0  0  1  0  0  0  0  0  0
  -25.5690  -33.9470   24.2030 N   0  0  0  0  0  0  0  0  0  0  0  0
  -25.9110  -34.9940   23.4420 C   0  0  0  0  0  0  0  0  0  0  0  0
  -26.5940  -34.8840   22.4200 O   0  0  0  0  0  0  0  0  0  0  0  0
  -24.9630  -34.1070   24.9950 H   0  0  0  0  0  0  0  0  0  0  0  0
  -24.1840  -36.7830   23.0600 C   0  0  0  0  0  1  0  0  0  0  0  0
  -25.4190  -36.3870   23.8830 C   0  0  0  0  0  3  0  0  0  0  0  0
  -27.5450  -37.2810   24.7250 C   0  0  0  0  0  1  0  0  0  0  0  0
  -26.4500  -37.4400   23.7720 N   0  0  0  0  0  0  0  0  0  0  0  0
  -26.0400  -38.3590   23.9150 H   0  0  0  0  0  0  0  0  0  0  0  0
  1 15  1  0
  2  7  1  0
  3  4  1  0
  3  2  1  0
  5  4  1  0
  5 21  1  0
  5  6  1  0
  7  1  1  0
  7  6  1  0
  8  1  2  0
  9 11  2  0
  9 13  1  0
 11 12  1  0
 12 16  1  0
 12 10  2  0
 13 14  2  0
 14 10  1  0
 15 17  1  0
 15 13  1  0
 18 19  2  0
 19 38  1  0
 20 19  1  0
 20 23  1  0
 21 18  1  0
 21 22  1  0
 22 20  2  0
 23 24  1  0
 24 25  2  0
 26 29  1  0
 26 25  1  0
 27 26  2  0
 28 27  1  0
 28 23  2  0
 29 30  1  0
 30 31  1  0
 31 32  2  0
 33 32  1  0
 33 37  1  0
 34 33  2  0
 35 30  2  0
 35 34  1  0
 36 35  1  0
 38 39  1  0
 39 42  1  0
 39 41  1  0
 40 38  2  0
 43 44  1  0
 43 18  1  0
 45 43  1  0
 46 11  1  0
 46 47  1  0
 48 49  1  0
 48 47  2  0
 50 49  1  0
 51 62  2  0
 52 50  1  0
 52 57  1  0
 53 61  1  0
 53 63  1  0
 54 60  1  0
 54 56  1  0
 55 61  1  0
 56 57  2  0
 56 55  1  0
 58 52  2  0
 59 58  1  0
 59 54  2  0
 60 53  1  0
 61 51  1  0
 63 65  2  0
 64 63  1  0
 66 64  1  0
 67 76  2  0
 67 72  1  0
 68 64  1  0
 68 72  1  0
 69 68  1  0
 70 71  1  0
 70 69  1  0
 71 67  1  0
 72 73  2  0
 73 74  1  0
 75 74  2  0
 76 75  1  0
 77 51  1  0
 77 82  1  0
 77 78  1  0
 78 81  1  1
 78 79  1  0
 80 78  1  0
 82 85  1  0
 83 87  1  0
 83 82  1  0
 84 83  2  0
 87 86  1  0
 89 87  1  0
 89 90  1  0
 89 88  1  0
M  ISO  4   1 100  15 100  49 101  50 101
M  END
>  <TORSDO>  (33) 
F 19

>  <SCORE>  (33) 
-14.392

>  <name>  (33) 
32

>  <ligand_id>  (33) 
32

>  <original_smiles>  (33) 
[H]c1nc(N([H])C(=O)N2C([H])([H])C([H])([H])C([H])([H])C([H])(n3nc(-c4c([H])c([H])c(Oc5c([H])c([H])c(F)c([H])c5F)c([H])c4[H])c(C(=O)N([H])[H])c3N([H])[H])C2([H])[H])c([H])c(OC([H])([H])C([H])([H])C([H])([H])Oc2c([H])c([H])c3c(c2[H])C([H])([H])N(C(=O)C([H])(N([H])C(=O)C([H])(N([H])C([H])([H])[H])C([H])([H])[H])C(C([H])([H])[H])(C([H])([H])[H])C([H])([H])[H])C([H])(C(=O)N([H])C2([H])c4c([H])c([H])c([H])c([H])c4C([H])([H])C([H])([H])C2([H])[H])C3([H])[H])c1Cl

>  <smiles>  (33) 
[H]c1nc(N([H])C(=O)N2C([H])([H])C([H])([H])C([H])([H])C([H])(n3nc(-c4c([H])c([H])c(Oc5c([H])c([H])c(F)c([H])c5F)c([H])c4[H])c(C(=O)N([H])[H])c3N([H])[H])C2([H])[H])c([H])c(OC([H])([H])C([H])([H])C([H])([H])Oc2c([H])c([H])c3c(c2[H])C([H])([H])N(C(=O)C([H])(N([H])C(=O)C([H])(N([H])C([H])([H])[H])C([H])([H])[H])C(C([H])([H])[H])(C([H])([H])[H])C([H])([H])[H])C([H])(C(=O)N([H])C2([H])c4c([H])c([H])c([H])c([H])c4C([H])([H])C([H])([H])C2([H])[H])C3([H])[H])c1Cl

$$$$
33:0:0
     RDKit          3D

 87 94  0  0  1  0  0  0  0  0999 V2000
  -28.6920  -23.6810   20.2600 C   0  0  0  0  0  0  0  0  0  0  0  0
  -27.8120  -24.7100   20.3110 N   0  0  0  0  0  0  0  0  0  0  0  0
  -30.1730  -23.9520   20.0780 C   0  0  0  0  0  2  0  0  0  0  0  0
  -30.9570  -24.0600   21.6790 Cl  0  0  0  0  0  0  0  0  0  0  0  0
  -28.2090  -26.1950   20.1830 O   0  0  0  0  0  0  0  0  0  0  0  0
  -24.6360  -31.9100   23.2290 C   0  0  0  0  0  0  0  0  0  0  0  0
  -27.1490  -27.1760   20.1760 C   0  0  0  0  0  0  0  0  0  0  0  0
  -23.4060  -30.5190   21.6060 C   0  0  0  0  0  3  0  0  0  0  0  0
  -24.8280  -28.9320   20.1650 C   0  0  0  0  0  0  0  0  0  0  0  0
  -25.9580  -30.7690   21.4090 C   0  0  0  0  0  2  0  0  0  0  0  0
  -26.0150  -29.3720   20.7660 C   0  0  0  0  0  0  0  0  0  0  0  0
  -27.1720  -28.5060   20.7620 C   0  0  0  0  0  3  0  0  0  0  0  0
  -25.9410  -26.8430   19.5270 C   0  0  0  0  0  3  0  0  0  0  0  0
  -24.8030  -27.6790   19.5310 C   0  0  0  0  0  3  0  0  0  0  0  0
  -23.6050  -29.8350   20.2270 C   0  0  0  0  0  2  0  0  0  0  0  0
  -24.6880  -31.0890   22.1360 N   0  0  0  0  0  0  0  0  0  0  0  0
  -23.5590  -32.2020   23.7710 O   0  0  0  0  0  0  0  0  0  0  0  0
  -22.7350  -29.5180   22.5790 C   0  0  0  0  0  0  0  0  0  0  0  0
  -21.4080  -29.3410   22.4600 N   0  0  0  0  0  0  0  0  0  0  0  0
  -23.4120  -28.9020   23.4070 O   0  0  0  0  0  0  0  0  0  0  0  0
  -20.9180  -29.8890   21.7670 H   0  0  0  0  0  0  0  0  0  0  0  0
  -18.0360  -28.1180   22.9680 C   0  0  0  0  0  0  0  0  0  0  0  0
  -20.5920  -28.4070   23.2420 C   0  0  0  0  0  3  0  0  0  0  0  0
  -20.7080  -26.9690   22.6860 C   0  0  0  0  0  2  0  0  0  0  0  0
  -19.6120  -26.6220   21.6720 C   0  0  0  0  0  2  0  0  0  0  0  0
  -18.2280  -26.7620   22.3100 C   0  0  0  0  0  2  0  0  0  0  0  0
  -19.1460  -28.8970   23.3910 C   0  0  0  0  0  0  0  0  0  0  0  0
  -18.9120  -30.1640   23.9690 C   0  0  0  0  0  3  0  0  0  0  0  0
  -17.6020  -30.6530   24.1280 C   0  0  0  0  0  3  0  0  0  0  0  0
  -16.5070  -29.8720   23.7200 C   0  0  0  0  0  3  0  0  0  0  0  0
  -16.7240  -28.6070   23.1460 C   0  0  0  0  0  3  0  0  0  0  0  0
  -25.9270  -32.5380   23.8390 C   0  0  0  0  0  3  0  0  0  0  0  0
  -25.6220  -33.9340   24.1920 N   0  0  0  0  0  0  0  0  0  0  0  0
  -25.9210  -34.9970   23.4350 C   0  0  0  0  0  0  0  0  0  0  0  0
  -26.5510  -34.9060   22.3770 O   0  0  0  0  0  0  0  0  0  0  0  0
  -25.0550  -34.0770   25.0150 H   0  0  0  0  0  0  0  0  0  0  0  0
  -24.1650  -36.7840   23.1890 C   0  0  0  0  0  1  0  0  0  0  0  0
  -25.4510  -36.3790   23.9280 C   0  0  0  0  0  3  0  0  0  0  0  0
  -27.6210  -37.2780   24.6490 C   0  0  0  0  0  1  0  0  0  0  0  0
  -26.4690  -37.4420   23.7670 N   0  0  0  0  0  0  0  0  0  0  0  0
  -26.0630  -38.3570   23.9420 H   0  0  0  0  0  0  0  0  0  0  0  0
  -26.4580  -31.7550   25.1030 C   0  0  1  0  0  0  0  0  0  0  0  0
  -25.3790  -31.5180   26.1860 C   0  0  0  0  0  1  0  0  0  0  0  0
  -27.0280  -30.3770   24.6980 C   0  0  0  0  0  1  0  0  0  0  0  0
  -27.6200  -32.5400   25.7550 C   0  0  0  0  0  1  0  0  0  0  0  0
  -28.3470  -22.0360   20.3950 C   0  0  0  0  0  3  0  0  0  0  0  0
  -29.4100  -20.7140   20.2860 C   0  0  0  0  0  3  0  0  0  0  0  0
  -29.0080  -19.0640   20.4150 C   0  0  0  0  0  3  0  0  0  0  0  0
  -30.0670  -17.7390   20.3010 C   0  0  0  0  0  3  0  0  0  0  0  0
  -30.4560  -15.0060   20.2650 C   0  0  0  0  0  0  0  0  0  0  0  0
  -30.3430  -12.6520   19.3250 C   0  0  0  0  0  2  0  0  0  0  0  0
  -29.4090  -12.5960   18.0940 C   0  0  0  0  0  2  0  0  0  0  0  0
  -27.9470  -12.3790   18.5290 C   0  0  0  0  0  2  0  0  0  0  0  0
  -27.5370  -13.3050   19.7050 C   0  0  0  0  0  3  0  0  0  0  0  0
  -28.5940  -13.3230   20.8290 C   0  0  0  0  0  2  0  0  0  0  0  0
  -29.8600  -13.7460   20.2170 N   0  0  0  0  0  0  0  0  0  0  0  0
  -31.6560  -15.0660   19.9710 O   0  0  0  0  0  0  0  0  0  0  0  0
  -29.6920  -16.1990   20.4330 N   0  0  0  0  0  0  0  0  0  0  0  0
  -28.7200  -16.0250   20.6420 H   0  0  0  0  0  0  0  0  0  0  0  0
  -25.1540  -13.8680   20.4500 C   0  0  0  0  0  0  0  0  0  0  0  0
  -24.0970  -13.0870   20.8270 C   0  0  0  0  0  0  0  0  0  0  0  0
  -24.5700  -11.7390   20.7970 C   0  0  0  0  0  0  0  0  0  0  0  0
  -26.2020  -12.9970   20.2070 N   0  0  0  0  0  0  0  0  0  0  0  0
  -25.8610  -11.7110   20.4830 N   0  0  0  0  0  0  0  0  0  0  0  0
  -23.8520  -10.4720   20.9880 C   0  0  0  0  0  0  0  0  0  0  0  0
  -24.2790   -9.5150   21.9360 C   0  0  0  0  0  3  0  0  0  0  0  0
  -23.5580   -8.3150   22.1160 C   0  0  0  0  0  3  0  0  0  0  0  0
  -22.3960   -8.0620   21.3480 C   0  0  0  0  0  0  0  0  0  0  0  0
  -21.9890   -9.0080   20.3910 C   0  0  0  0  0  3  0  0  0  0  0  0
  -22.7110  -10.1990   20.2080 C   0  0  0  0  0  3  0  0  0  0  0  0
  -21.6470   -6.9130   21.4390 O   0  0  0  0  0  0  0  0  0  0  0  0
  -21.5770   -6.1880   22.6030 C   0  0  0  0  0  0  0  0  0  0  0  0
  -21.1090   -6.7580   23.8070 C   0  0  0  0  0  3  0  0  0  0  0  0
  -20.9870   -5.9590   24.9620 C   0  0  0  0  0  3  0  0  0  0  0  0
  -21.3200   -4.5920   24.9140 C   0  0  0  0  0  0  0  0  0  0  0  0
  -21.7800   -4.0230   23.7140 C   0  0  0  0  0  3  0  0  0  0  0  0
  -21.9040   -4.8190   22.5600 C   0  0  0  0  0  0  0  0  0  0  0  0
  -22.3280   -4.2590   21.4010 F   0  0  0  0  0  0  0  0  0  0  0  0
  -21.1940   -3.8240   26.0200 F   0  0  0  0  0  0  0  0  0  0  0  0
  -22.6970  -13.5550   21.0970 C   0  0  0  0  0  0  0  0  0  0  0  0
  -21.9750  -12.8600   21.9690 N   0  0  0  0  0  0  0  0  0  0  0  0
  -22.2510  -14.5730   20.5690 O   0  0  0  0  0  0  0  0  0  0  0  0
  -22.3480  -12.0400   22.4230 H   0  0  0  0  0  0  0  0  0  0  0  0
  -21.0330  -13.1530   22.1880 H   0  0  0  0  0  0  0  0  0  0  0  0
  -25.3060  -15.2410   20.2690 N   0  0  0  0  0  0  0  0  0  0  0  0
  -24.5320  -15.8870   20.3790 H   0  0  0  0  0  0  0  0  0  0  0  0
  -26.1370  -15.6840   19.8960 H   0  0  0  0  0  0  0  0  0  0  0  0
  1  2  2  0
  1 46  1  0
  3  1  1  0
  3  4  1  0
  5  2  1  0
  6 17  2  0
  7  5  1  0
  7 12  1  0
  8 16  1  0
  8 18  1  0
  9 15  1  0
  9 11  1  0
 10 16  1  0
 11 10  1  0
 12 11  2  0
 13 14  1  0
 13  7  2  0
 14  9  2  0
 15  8  1  0
 16  6  1  0
 18 20  2  0
 19 18  1  0
 21 19  1  0
 22 31  2  0
 22 27  1  0
 23 19  1  0
 23 27  1  0
 24 23  1  0
 25 26  1  0
 25 24  1  0
 26 22  1  0
 27 28  2  0
 28 29  1  0
 30 29  2  0
 31 30  1  0
 32  6  1  0
 32 33  1  0
 32 42  1  0
 33 36  1  0
 34 38  1  0
 34 33  1  0
 35 34  2  0
 38 37  1  0
 40 38  1  0
 40 41  1  0
 40 39  1  0
 42 45  1  1
 42 43  1  0
 44 42  1  0
 47 46  2  0
 47 48  1  0
 49 48  2  0
 49 58  1  0
 50 58  1  0
 51 56  1  0
 52 53  1  0
 52 51  1  0
 54 53  1  0
 54 63  1  0
 54 55  1  0
 56 50  1  0
 56 55  1  0
 57 50  2  0
 58 59  1  0
 60 61  2  0
 61 80  1  0
 62 61  1  0
 62 65  1  0
 63 60  1  0
 63 64  1  0
 64 62  2  0
 65 66  1  0
 66 67  2  0
 68 71  1  0
 68 67  1  0
 69 68  2  0
 70 69  1  0
 70 65  2  0
 71 72  1  0
 72 73  1  0
 73 74  2  0
 75 74  1  0
 75 79  1  0
 76 75  2  0
 77 72  2  0
 77 76  1  0
 78 77  1  0
 80 81  1  0
 81 84  1  0
 81 83  1  0
 82 80  2  0
 85 86  1  0
 85 60  1  0
 87 85  1  0
M  ISO  4   2 101   5 101  50 100  58 100
M  END
>  <TORSDO>  (34) 
F 21

>  <SCORE>  (34) 
-14.601

>  <name>  (34) 
33

>  <ligand_id>  (34) 
33

>  <original_smiles>  (34) 
[H]c1c([H])c([H])c2c(c1[H])C([H])([H])C([H])([H])C([H])([H])C2([H])N([H])C(=O)C1([H])N(C(=O)C([H])(N([H])C(=O)C([H])(N([H])C([H])([H])[H])C([H])([H])[H])C(C([H])([H])[H])(C([H])([H])[H])C([H])([H])[H])C([H])([H])c2c([H])c(ON=C(C([H])([H])Cl)C([H])([H])C([H])([H])C([H])([H])C([H])([H])N([H])C(=O)N3C([H])([H])C([H])([H])C([H])([H])C([H])(n4nc(-c5c([H])c([H])c(Oc6c([H])c([H])c(F)c([H])c6F)c([H])c5[H])c(C(=O)N([H])[H])c4N([H])[H])C3([H])[H])c([H])c([H])c2C1([H])[H]

>  <smiles>  (34) 
[H]c1c([H])c([H])c2c(c1[H])C([H])([H])C([H])([H])C([H])([H])C2([H])N([H])C(=O)C1([H])N(C(=O)C([H])(N([H])C(=O)C([H])(N([H])C([H])([H])[H])C([H])([H])[H])C(C([H])([H])[H])(C([H])([H])[H])C([H])([H])[H])C([H])([H])c2c([H])c(ON=C(C([H])([H])Cl)C([H])([H])C([H])([H])C([H])([H])C([H])([H])N([H])C(=O)N3C([H])([H])C([H])([H])C([H])([H])C([H])(n4nc(-c5c([H])c([H])c(Oc6c([H])c([H])c(F)c([H])c6F)c([H])c5[H])c(C(=O)N([H])[H])c4N([H])[H])C3([H])[H])c([H])c([H])c2C1([H])[H]

$$$$
34:0:0
     RDKit          3D

 90 98  0  0  1  0  0  0  0  0999 V2000
  -28.6990  -21.8670   20.2510 C   0  0  0  0  0  2  0  0  0  0  0  0
  -29.5080  -22.9700   20.9900 C   0  0  0  0  0  2  0  0  0  0  0  0
  -29.5520  -24.4040   20.3670 C   0  0  0  0  0  2  0  0  0  0  0  0
  -28.2150  -25.1920   20.3710 C   0  0  0  0  0  2  0  0  0  0  0  0
  -28.3670  -26.6220   20.1720 O   0  0  0  0  0  0  0  0  0  0  0  0
  -24.5110  -31.8270   23.2180 C   0  0  0  0  0  0  0  0  0  0  0  0
  -27.1980  -27.3700   20.1580 C   0  0  0  0  0  0  0  0  0  0  0  0
  -23.3200  -30.4000   21.5900 C   0  0  0  0  0  3  0  0  0  0  0  0
  -24.7880  -28.8750   20.1680 C   0  0  0  0  0  0  0  0  0  0  0  0
  -25.8440  -30.7840   21.3830 C   0  0  0  0  0  2  0  0  0  0  0  0
  -25.9470  -29.4090   20.7470 C   0  0  0  0  0  0  0  0  0  0  0  0
  -27.1560  -28.6680   20.7320 C   0  0  0  0  0  3  0  0  0  0  0  0
  -26.0150  -26.8670   19.5660 C   0  0  0  0  0  3  0  0  0  0  0  0
  -24.8200  -27.6050   19.5740 C   0  0  0  0  0  3  0  0  0  0  0  0
  -23.5340  -29.7200   20.2140 C   0  0  0  0  0  2  0  0  0  0  0  0
  -24.5770  -31.0190   22.1210 N   0  0  0  0  0  0  0  0  0  0  0  0
  -23.4270  -32.0890   23.7590 O   0  0  0  0  0  0  0  0  0  0  0  0
  -22.6860  -29.3750   22.5570 C   0  0  0  0  0  0  0  0  0  0  0  0
  -21.3620  -29.1780   22.4400 N   0  0  0  0  0  0  0  0  0  0  0  0
  -23.3810  -28.7590   23.3690 O   0  0  0  0  0  0  0  0  0  0  0  0
  -20.8600  -29.7270   21.7560 H   0  0  0  0  0  0  0  0  0  0  0  0
  -18.0040  -27.9500   22.9690 C   0  0  0  0  0  0  0  0  0  0  0  0
  -20.5610  -28.2330   23.2190 C   0  0  0  0  0  3  0  0  0  0  0  0
  -20.6730  -26.8010   22.6450 C   0  0  0  0  0  2  0  0  0  0  0  0
  -19.5650  -26.4660   21.6410 C   0  0  0  0  0  2  0  0  0  0  0  0
  -18.1870  -26.5990   22.2970 C   0  0  0  0  0  2  0  0  0  0  0  0
  -19.1190  -28.7230   23.3890 C   0  0  0  0  0  0  0  0  0  0  0  0
  -18.8930  -29.9860   23.9770 C   0  0  0  0  0  3  0  0  0  0  0  0
  -17.5860  -30.4760   24.1520 C   0  0  0  0  0  3  0  0  0  0  0  0
  -16.4850  -29.7010   23.7500 C   0  0  0  0  0  3  0  0  0  0  0  0
  -16.6950  -28.4390   23.1640 C   0  0  0  0  0  3  0  0  0  0  0  0
  -25.7890  -32.4800   23.8280 C   0  0  0  0  0  3  0  0  0  0  0  0
  -25.4590  -33.8730   24.1610 N   0  0  0  0  0  0  0  0  0  0  0  0
  -25.7630  -34.9300   23.3960 C   0  0  0  0  0  0  0  0  0  0  0  0
  -26.4240  -34.8370   22.3580 O   0  0  0  0  0  0  0  0  0  0  0  0
  -24.8720  -34.0180   24.9690 H   0  0  0  0  0  0  0  0  0  0  0  0
  -23.9960  -36.6870   23.0580 C   0  0  0  0  0  1  0  0  0  0  0  0
  -25.2540  -36.3100   23.8560 C   0  0  0  0  0  3  0  0  0  0  0  0
  -27.3820  -37.2350   24.6580 C   0  0  0  0  0  1  0  0  0  0  0  0
  -26.2640  -37.3820   23.7290 N   0  0  0  0  0  0  0  0  0  0  0  0
  -25.8430  -38.2940   23.8820 H   0  0  0  0  0  0  0  0  0  0  0  0
  -26.3310  -31.7170   25.0980 C   0  0  1  0  0  0  0  0  0  0  0  0
  -25.2530  -31.4580   26.1750 C   0  0  0  0  0  1  0  0  0  0  0  0
  -26.9350  -30.3510   24.6980 C   0  0  0  0  0  1  0  0  0  0  0  0
  -27.4740  -32.5310   25.7510 C   0  0  0  0  0  1  0  0  0  0  0  0
  -29.5070  -20.9570   19.4790 O   0  0  0  0  0  0  0  0  0  0  0  0
  -30.0150  -17.2870   19.1570 C   0  0  0  0  0  3  0  0  0  0  0  0
  -29.8250  -17.8010   21.5070 C   0  0  0  0  0  3  0  0  0  0  0  0
  -29.8390  -18.6590   18.8530 C   0  0  0  0  0  3  0  0  0  0  0  0
  -29.6340  -19.1720   21.2020 C   0  0  0  0  0  3  0  0  0  0  0  0
  -30.0360  -16.8190   20.4980 C   0  0  0  0  0  0  0  0  0  0  0  0
  -29.6430  -19.6270   19.8640 C   0  0  0  0  0  0  0  0  0  0  0  0
  -30.7250  -14.4880   19.9540 C   0  0  0  0  0  0  0  0  0  0  0  0
  -30.2490  -12.4210   18.6670 C   0  0  0  0  0  2  0  0  0  0  0  0
  -29.2090  -12.6920   17.5620 C   0  0  0  0  0  2  0  0  0  0  0  0
  -27.7790  -12.5340   18.1140 C   0  0  0  0  0  2  0  0  0  0  0  0
  -27.5660  -13.3070   19.4410 C   0  0  0  0  0  3  0  0  0  0  0  0
  -28.7060  -13.0200   20.4370 C   0  0  0  0  0  2  0  0  0  0  0  0
  -29.9850  -13.3490   19.7820 N   0  0  0  0  0  0  0  0  0  0  0  0
  -31.7480  -14.7020   19.2950 O   0  0  0  0  0  0  0  0  0  0  0  0
  -30.4290  -15.0750   22.2650 C   0  0  0  0  0  1  0  0  0  0  0  0
  -30.2680  -15.4180   20.8430 N   0  0  0  0  0  0  0  0  0  0  0  0
  -25.2580  -13.9020   20.4090 C   0  0  0  0  0  0  0  0  0  0  0  0
  -24.2120  -13.1220   20.8270 C   0  0  0  0  0  0  0  0  0  0  0  0
  -24.6410  -11.7680   20.6730 C   0  0  0  0  0  0  0  0  0  0  0  0
  -26.2570  -13.0210   20.0270 N   0  0  0  0  0  0  0  0  0  0  0  0
  -25.8950  -11.7300   20.2420 N   0  0  0  0  0  0  0  0  0  0  0  0
  -23.9090  -10.5080   20.8530 C   0  0  0  0  0  0  0  0  0  0  0  0
  -24.3910   -9.4890   21.7050 C   0  0  0  0  0  3  0  0  0  0  0  0
  -23.6600   -8.2940   21.8750 C   0  0  0  0  0  3  0  0  0  0  0  0
  -22.4340   -8.1090   21.1940 C   0  0  0  0  0  0  0  0  0  0  0  0
  -21.9700   -9.1160   20.3300 C   0  0  0  0  0  3  0  0  0  0  0  0
  -22.7010  -10.3030   20.1570 C   0  0  0  0  0  3  0  0  0  0  0  0
  -21.6690   -6.9700   21.2790 O   0  0  0  0  0  0  0  0  0  0  0  0
  -21.6710   -6.1830   22.4020 C   0  0  0  0  0  0  0  0  0  0  0  0
  -21.3380   -6.6980   23.6740 C   0  0  0  0  0  3  0  0  0  0  0  0
  -21.2850   -5.8390   24.7900 C   0  0  0  0  0  3  0  0  0  0  0  0
  -21.5550   -4.4670   24.6370 C   0  0  0  0  0  0  0  0  0  0  0  0
  -21.8830   -3.9510   23.3700 C   0  0  0  0  0  3  0  0  0  0  0  0
  -21.9380   -4.8060   22.2560 C   0  0  0  0  0  0  0  0  0  0  0  0
  -22.2330   -4.3000   21.0340 F   0  0  0  0  0  0  0  0  0  0  0  0
  -21.4980   -3.6400   25.7060 F   0  0  0  0  0  0  0  0  0  0  0  0
  -22.8560  -13.6030   21.2580 C   0  0  0  0  0  0  0  0  0  0  0  0
  -22.2080  -12.8790   22.1640 N   0  0  0  0  0  0  0  0  0  0  0  0
  -22.3830  -14.6530   20.8260 O   0  0  0  0  0  0  0  0  0  0  0  0
  -22.6040  -12.0290   22.5350 H   0  0  0  0  0  0  0  0  0  0  0  0
  -21.3020  -13.1820   22.4920 H   0  0  0  0  0  0  0  0  0  0  0  0
  -25.4350  -15.2770   20.3030 N   0  0  0  0  0  0  0  0  0  0  0  0
  -24.7020  -15.9390   20.5350 H   0  0  0  0  0  0  0  0  0  0  0  0
  -26.2760  -15.7220   19.9550 H   0  0  0  0  0  0  0  0  0  0  0  0
  1  2  1  0
  3  4  1  0
  3  2  1  0
  5  4  1  0
  6 17  2  0
  7  5  1  0
  7 12  1  0
  8 16  1  0
  8 18  1  0
  9 15  1  0
  9 11  1  0
 10 16  1  0
 11 10  1  0
 12 11  2  0
 13 14  1  0
 13  7  2  0
 14  9  2  0
 15  8  1  0
 16  6  1  0
 18 20  2  0
 19 18  1  0
 21 19  1  0
 22 31  2  0
 22 27  1  0
 23 19  1  0
 23 27  1  0
 24 23  1  0
 25 26  1  0
 25 24  1  0
 26 22  1  0
 27 28  2  0
 28 29  1  0
 30 29  2  0
 31 30  1  0
 32  6  1  0
 32 33  1  0
 32 42  1  0
 33 36  1  0
 34 38  1  0
 34 33  1  0
 35 34  2  0
 38 37  1  0
 40 38  1  0
 40 41  1  0
 40 39  1  0
 42 45  1  1
 42 43  1  0
 44 42  1  0
 46 52  1  0
 46  1  1  0
 47 51  1  0
 49 47  2  0
 49 52  1  0
 50 48  1  0
 51 62  1  0
 51 48  2  0
 52 50  2  0
 53 62  1  0
 54 59  1  0
 55 56  1  0
 55 54  1  0
 57 56  1  0
 57 66  1  0
 57 58  1  0
 59 53  1  0
 59 58  1  0
 60 53  2  0
 62 61  1  0
 63 64  2  0
 64 83  1  0
 65 64  1  0
 65 68  1  0
 66 67  1  0
 66 63  1  0
 67 65  2  0
 68 69  1  0
 69 70  2  0
 71 74  1  0
 71 70  1  0
 72 71  2  0
 73 72  1  0
 73 68  2  0
 74 75  1  0
 75 76  1  0
 76 77  2  0
 78 77  1  0
 78 82  1  0
 79 78  2  0
 80 75  2  0
 80 79  1  0
 81 80  1  0
 83 84  1  0
 84 87  1  0
 84 86  1  0
 85 83  2  0
 88 63  1  0
 88 89  1  0
 90 88  1  0
M  ISO  4   4 101   5 101  53 100  62 100
M  END
>  <TORSDO>  (35) 
F 21

>  <SCORE>  (35) 
-11.829

>  <name>  (35) 
34

>  <ligand_id>  (35) 
34

>  <original_smiles>  (35) 
[H]c1c([H])c([H])c2c(c1[H])C([H])([H])C([H])([H])C([H])([H])C2([H])N([H])C(=O)C1([H])N(C(=O)C([H])(N([H])C(=O)C([H])(N([H])C([H])([H])[H])C([H])([H])[H])C(C([H])([H])[H])(C([H])([H])[H])C([H])([H])[H])C([H])([H])c2c([H])c(OC([H])([H])C([H])([H])C([H])([H])C([H])([H])Oc3c([H])c([H])c(N(C(=O)N4C([H])([H])C([H])([H])C([H])([H])C([H])(n5nc(-c6c([H])c([H])c(Oc7c([H])c([H])c(F)c([H])c7F)c([H])c6[H])c(C(=O)N([H])[H])c5N([H])[H])C4([H])[H])C([H])([H])[H])c([H])c3[H])c([H])c([H])c2C1([H])[H]

>  <smiles>  (35) 
[H]c1c([H])c([H])c2c(c1[H])C([H])([H])C([H])([H])C([H])([H])C2([H])N([H])C(=O)C1([H])N(C(=O)C([H])(N([H])C(=O)C([H])(N([H])C([H])([H])[H])C([H])([H])[H])C(C([H])([H])[H])(C([H])([H])[H])C([H])([H])[H])C([H])([H])c2c([H])c(OC([H])([H])C([H])([H])C([H])([H])C([H])([H])Oc3c([H])c([H])c(N(C(=O)N4C([H])([H])C([H])([H])C([H])([H])C([H])(n5nc(-c6c([H])c([H])c(Oc7c([H])c([H])c(F)c([H])c7F)c([H])c6[H])c(C(=O)N([H])[H])c5N([H])[H])C4([H])[H])C([H])([H])[H])c([H])c3[H])c([H])c([H])c2C1([H])[H]

$$$$
35:0:0
     RDKit          3D

 99107  0  0  1  0  0  0  0  0999 V2000
  -29.6380  -20.2670   25.3180 C   0  0  0  0  0  2  0  0  0  0  0  0
  -30.2090  -21.3090   24.3390 C   0  0  0  0  0  2  0  0  0  0  0  0
  -29.2240  -21.7450   23.2630 C   0  0  0  0  0  0  0  0  0  0  0  0
  -29.6950  -22.6280   22.3790 N   0  0  0  0  0  0  0  0  0  0  0  0
  -28.0780  -21.2960   23.2260 O   0  0  0  0  0  0  0  0  0  0  0  0
  -30.6590  -22.9240   22.4760 H   0  0  0  0  0  0  0  0  0  0  0  0
  -28.9280  -23.2030   21.2850 C   0  0  0  0  0  2  0  0  0  0  0  0
  -29.1570  -24.7170   21.1920 C   0  0  0  0  0  2  0  0  0  0  0  0
  -28.3130  -25.3240   20.0690 C   0  0  0  0  0  2  0  0  0  0  0  0
  -28.4020  -26.7480   20.1150 O   0  0  0  0  0  0  0  0  0  0  0  0
  -24.6090  -31.8710   23.2170 C   0  0  0  0  0  0  0  0  0  0  0  0
  -27.2250  -27.4620   20.0890 C   0  0  0  0  0  0  0  0  0  0  0  0
  -23.3930  -30.4990   21.5550 C   0  0  0  0  0  3  0  0  0  0  0  0
  -24.8400  -28.9770   20.1090 C   0  0  0  0  0  0  0  0  0  0  0  0
  -25.9220  -30.8410   21.3710 C   0  0  0  0  0  2  0  0  0  0  0  0
  -25.9960  -29.4810   20.7160 C   0  0  0  0  0  0  0  0  0  0  0  0
  -27.1900  -28.7290   20.7080 C   0  0  0  0  0  3  0  0  0  0  0  0
  -26.0570  -26.9800   19.4520 C   0  0  0  0  0  3  0  0  0  0  0  0
  -24.8650  -27.7270   19.4710 C   0  0  0  0  0  3  0  0  0  0  0  0
  -23.5980  -29.8370   20.1650 C   0  0  0  0  0  2  0  0  0  0  0  0
  -24.6590  -31.0850   22.1050 N   0  0  0  0  0  0  0  0  0  0  0  0
  -23.5310  -32.1430   23.7610 O   0  0  0  0  0  0  0  0  0  0  0  0
  -22.7370  -29.4650   22.4990 C   0  0  0  0  0  0  0  0  0  0  0  0
  -21.4100  -29.3010   22.3760 N   0  0  0  0  0  0  0  0  0  0  0  0
  -23.4170  -28.8120   23.2950 O   0  0  0  0  0  0  0  0  0  0  0  0
  -20.9220  -29.8830   21.7090 H   0  0  0  0  0  0  0  0  0  0  0  0
  -18.0240  -28.1370   22.8510 C   0  0  0  0  0  0  0  0  0  0  0  0
  -20.5840  -28.3610   23.1320 C   0  0  0  0  0  3  0  0  0  0  0  0
  -20.6710  -26.9350   22.5410 C   0  0  0  0  0  2  0  0  0  0  0  0
  -19.5670  -26.6370   21.5210 C   0  0  0  0  0  2  0  0  0  0  0  0
  -18.1860  -26.7920   22.1650 C   0  0  0  0  0  2  0  0  0  0  0  0
  -19.1510  -28.8800   23.2940 C   0  0  0  0  0  0  0  0  0  0  0  0
  -18.9460  -30.1410   23.8950 C   0  0  0  0  0  3  0  0  0  0  0  0
  -17.6470  -30.6600   24.0570 C   0  0  0  0  0  3  0  0  0  0  0  0
  -16.5350  -29.9130   23.6310 C   0  0  0  0  0  3  0  0  0  0  0  0
  -16.7240  -28.6520   23.0370 C   0  0  0  0  0  3  0  0  0  0  0  0
  -25.9010  -32.4840   23.8430 C   0  0  0  0  0  3  0  0  0  0  0  0
  -26.4470  -31.6600   25.0730 C   0  0  1  0  0  0  0  0  0  0  0  0
  -25.3770  -31.3710   26.1510 C   0  0  0  0  0  1  0  0  0  0  0  0
  -27.0290  -30.3040   24.6090 C   0  0  0  0  0  1  0  0  0  0  0  0
  -27.6060  -32.4290   25.7510 C   0  0  0  0  0  1  0  0  0  0  0  0
  -25.5910  -33.8640   24.2370 N   0  0  0  0  0  0  0  0  0  0  0  0
  -25.9020  -34.9490   23.5150 C   0  0  0  0  0  0  0  0  0  0  0  0
  -26.5600  -34.8960   22.4710 O   0  0  0  0  0  0  0  0  0  0  0  0
  -25.0110  -33.9800   25.0550 H   0  0  0  0  0  0  0  0  0  0  0  0
  -24.1460  -36.7270   23.2640 C   0  0  0  0  0  1  0  0  0  0  0  0
  -25.4090  -36.3110   24.0350 C   0  0  0  0  0  3  0  0  0  0  0  0
  -27.5560  -37.1790   24.8490 C   0  0  0  0  0  1  0  0  0  0  0  0
  -26.4280  -37.3810   23.9450 N   0  0  0  0  0  0  0  0  0  0  0  0
  -26.0170  -38.2880   24.1490 H   0  0  0  0  0  0  0  0  0  0  0  0
  -30.7480  -19.6390   26.1790 C   0  0  0  0  0  2  0  0  0  0  0  0
  -31.7800  -19.0710   25.3640 O   0  0  0  0  0  0  0  0  0  0  0  0
  -30.0900  -16.0840   23.9400 C   0  0  0  0  0  3  0  0  0  0  0  0
  -30.4090  -17.1170   24.8290 C   0  0  0  0  0  3  0  0  0  0  0  0
  -31.8960  -16.7790   22.4570 C   0  0  0  0  0  3  0  0  0  0  0  0
  -30.8200  -15.9050   22.7490 C   0  0  0  0  0  0  0  0  0  0  0  0
  -32.2080  -17.8310   23.3480 C   0  0  0  0  0  0  0  0  0  0  0  0
  -31.4580  -18.0160   24.5350 C   0  0  0  0  0  0  0  0  0  0  0  0
  -30.7760  -14.3050   20.7740 C   0  0  0  0  0  0  0  0  0  0  0  0
  -30.4300  -12.3060   19.3510 C   0  0  0  0  0  2  0  0  0  0  0  0
  -29.4730  -12.5460   18.1720 C   0  0  0  0  0  2  0  0  0  0  0  0
  -27.9980  -12.4020   18.5960 C   0  0  0  0  0  2  0  0  0  0  0  0
  -27.6660  -13.2000   19.8810 C   0  0  0  0  0  3  0  0  0  0  0  0
  -28.7030  -12.8840   20.9750 C   0  0  0  0  0  2  0  0  0  0  0  0
  -30.0530  -13.2000   20.4540 N   0  0  0  0  0  0  0  0  0  0  0  0
  -31.7380  -14.7100   20.1150 O   0  0  0  0  0  0  0  0  0  0  0  0
  -30.3820  -14.8240   21.9480 N   0  0  0  0  0  0  0  0  0  0  0  0
  -29.5890  -14.3290   22.3230 H   0  0  0  0  0  0  0  0  0  0  0  0
  -25.2580  -13.8170   20.5670 C   0  0  0  0  0  0  0  0  0  0  0  0
  -24.1830  -13.0450   20.9150 C   0  0  0  0  0  0  0  0  0  0  0  0
  -24.6400  -11.6910   20.8740 C   0  0  0  0  0  0  0  0  0  0  0  0
  -26.3040  -12.9340   20.3390 N   0  0  0  0  0  0  0  0  0  0  0  0
  -25.9310  -11.6510   20.5760 N   0  0  0  0  0  0  0  0  0  0  0  0
  -23.9080  -10.4290   21.0420 C   0  0  0  0  0  0  0  0  0  0  0  0
  -24.3630   -9.4200   21.9190 C   0  0  0  0  0  3  0  0  0  0  0  0
  -23.6310   -8.2240   22.0760 C   0  0  0  0  0  3  0  0  0  0  0  0
  -22.4280   -8.0290   21.3560 C   0  0  0  0  0  0  0  0  0  0  0  0
  -21.9930   -9.0260   20.4650 C   0  0  0  0  0  3  0  0  0  0  0  0
  -22.7260  -10.2130   20.3060 C   0  0  0  0  0  3  0  0  0  0  0  0
  -21.6640   -6.8890   21.4250 O   0  0  0  0  0  0  0  0  0  0  0  0
  -21.6850   -6.0740   22.5290 C   0  0  0  0  0  0  0  0  0  0  0  0
  -21.4010   -6.5650   23.8220 C   0  0  0  0  0  3  0  0  0  0  0  0
  -21.3660   -5.6800   24.9180 C   0  0  0  0  0  3  0  0  0  0  0  0
  -21.6050   -4.3070   24.7230 C   0  0  0  0  0  0  0  0  0  0  0  0
  -21.8810   -3.8160   23.4350 C   0  0  0  0  0  3  0  0  0  0  0  0
  -21.9190   -4.6970   22.3400 C   0  0  0  0  0  0  0  0  0  0  0  0
  -22.1660   -4.2170   21.0980 F   0  0  0  0  0  0  0  0  0  0  0  0
  -21.5640   -3.4540   25.7740 F   0  0  0  0  0  0  0  0  0  0  0  0
  -22.7850  -13.5220   21.1850 C   0  0  0  0  0  0  0  0  0  0  0  0
  -22.0510  -12.8210   22.0400 N   0  0  0  0  0  0  0  0  0  0  0  0
  -22.3520  -14.5530   20.6700 O   0  0  0  0  0  0  0  0  0  0  0  0
  -22.4130  -11.9860   22.4770 H   0  0  0  0  0  0  0  0  0  0  0  0
  -21.1130  -13.1250   22.2650 H   0  0  0  0  0  0  0  0  0  0  0  0
  -25.4300  -15.1880   20.4070 N   0  0  0  0  0  0  0  0  0  0  0  0
  -24.6680  -15.8470   20.5190 H   0  0  0  0  0  0  0  0  0  0  0  0
  -26.2950  -15.6330   20.1280 H   0  0  0  0  0  0  0  0  0  0  0  0
  -33.2580  -18.7030   23.0550 N   0  0  0  0  0  0  0  0  0  0  0  0
  -33.6060  -19.2710   23.8210 H   0  0  0  0  0  0  0  0  0  0  0  0
  -33.9920  -18.3840   22.4310 H   0  0  0  0  0  0  0  0  0  0  0  0
  1 51  1  0
  2  1  1  0
  3  2  1  0
  4  6  1  0
  4  3  1  0
  5  3  2  0
  7  4  1  0
  8  7  1  0
  9 10  1  0
  9  8  1  0
 11 22  2  0
 12 10  1  0
 12 17  1  0
 13 21  1  0
 13 23  1  0
 14 20  1  0
 14 16  1  0
 15 21  1  0
 16 15  1  0
 17 16  2  0
 18 19  1  0
 18 12  2  0
 19 14  2  0
 20 13  1  0
 21 11  1  0
 23 25  2  0
 24 23  1  0
 26 24  1  0
 27 36  2  0
 27 32  1  0
 28 24  1  0
 28 32  1  0
 29 28  1  0
 30 31  1  0
 30 29  1  0
 31 27  1  0
 32 33  2  0
 33 34  1  0
 35 34  2  0
 36 35  1  0
 37 11  1  0
 37 42  1  0
 37 38  1  0
 38 41  1  1
 38 39  1  0
 40 38  1  0
 42 45  1  0
 43 47  1  0
 43 42  1  0
 44 43  2  0
 47 46  1  0
 49 47  1  0
 49 50  1  0
 49 48  1  0
 52 51  1  0
 53 54  1  0
 55 56  1  0
 55 57  2  0
 56 53  2  0
 57 58  1  0
 58 54  2  0
 58 52  1  0
 59 67  1  0
 60 65  1  0
 61 62  1  0
 61 60  1  0
 63 62  1  0
 63 72  1  0
 63 64  1  0
 65 59  1  0
 65 64  1  0
 66 59  2  0
 67 68  1  0
 67 56  1  0
 69 70  2  0
 70 89  1  0
 71 70  1  0
 71 74  1  0
 72 69  1  0
 72 73  1  0
 73 71  2  0
 74 75  1  0
 75 76  2  0
 77 80  1  0
 77 76  1  0
 78 77  2  0
 79 78  1  0
 79 74  2  0
 80 81  1  0
 81 82  1  0
 82 83  2  0
 84 83  1  0
 84 88  1  0
 85 84  2  0
 86 81  2  0
 86 85  1  0
 87 86  1  0
 89 90  1  0
 90 93  1  0
 90 92  1  0
 91 89  2  0
 94 95  1  0
 94 69  1  0
 96 94  1  0
 97 57  1  0
 97 98  1  0
 99 97  1  0
M  ISO  4   9 101  10 101  59 100  67 100
M  END
>  <TORSDO>  (36) 
F 25

>  <SCORE>  (36) 
12.799

>  <name>  (36) 
35

>  <ligand_id>  (36) 
35

>  <original_smiles>  (36) 
[H]c1c([H])c([H])c2c(c1[H])C([H])([H])C([H])([H])C([H])([H])C2([H])N([H])C(=O)C1([H])N(C(=O)C([H])(N([H])C(=O)C([H])(N([H])C([H])([H])[H])C([H])([H])[H])C(C([H])([H])[H])(C([H])([H])[H])C([H])([H])[H])C([H])([H])c2c([H])c(OC([H])([H])C([H])([H])C([H])([H])N([H])C(=O)C([H])([H])C([H])([H])C([H])([H])Oc3c([H])c([H])c(N([H])C(=O)N4C([H])([H])C([H])([H])C([H])([H])C([H])(n5nc(-c6c([H])c([H])c(Oc7c([H])c([H])c(F)c([H])c7F)c([H])c6[H])c(C(=O)N([H])[H])c5N([H])[H])C4([H])[H])c([H])c3N([H])[H])c([H])c([H])c2C1([H])[H]

>  <smiles>  (36) 
[H]c1c([H])c([H])c2c(c1[H])C([H])([H])C([H])([H])C([H])([H])C2([H])N([H])C(=O)C1([H])N(C(=O)C([H])(N([H])C(=O)C([H])(N([H])C([H])([H])[H])C([H])([H])[H])C(C([H])([H])[H])(C([H])([H])[H])C([H])([H])[H])C([H])([H])c2c([H])c(OC([H])([H])C([H])([H])C([H])([H])N([H])C(=O)C([H])([H])C([H])([H])C([H])([H])Oc3c([H])c([H])c(N([H])C(=O)N4C([H])([H])C([H])([H])C([H])([H])C([H])(n5nc(-c6c([H])c([H])c(Oc7c([H])c([H])c(F)c([H])c7F)c([H])c6[H])c(C(=O)N([H])[H])c5N([H])[H])C4([H])[H])c([H])c3N([H])[H])c([H])c([H])c2C1([H])[H]

$$$$
36:0:0
     RDKit          3D

101109  0  0  1  0  0  0  0  0999 V2000
  -25.2800  -22.9920   26.2640 C   0  0  0  0  0  2  0  0  0  0  0  0
  -26.7880  -22.6750   26.1840 C   0  0  0  0  0  2  0  0  0  0  0  0
  -27.0980  -21.1680   26.1240 C   0  0  0  0  0  2  0  0  0  0  0  0
  -28.5470  -20.8800   25.6960 C   0  0  0  0  0  2  0  0  0  0  0  0
  -28.9230  -19.3870   25.7030 C   0  0  0  0  0  2  0  0  0  0  0  0
  -27.9930  -18.6680   24.8980 O   0  0  0  0  0  0  0  0  0  0  0  0
  -30.0930  -16.2000   23.0270 C   0  0  0  0  0  3  0  0  0  0  0  0
  -29.6340  -17.0220   24.0820 C   0  0  0  0  0  3  0  0  0  0  0  0
  -28.2630  -17.0050   21.6300 C   0  0  0  0  0  3  0  0  0  0  0  0
  -29.4170  -16.2070   21.7860 C   0  0  0  0  0  0  0  0  0  0  0  0
  -28.4870  -17.8380   23.9160 C   0  0  0  0  0  0  0  0  0  0  0  0
  -27.7930  -17.8010   22.6890 C   0  0  0  0  0  0  0  0  0  0  0  0
  -26.6890  -18.5670   22.5150 F   0  0  0  0  0  0  0  0  0  0  0  0
  -30.6980  -14.4660   20.5420 C   0  0  0  0  0  0  0  0  0  0  0  0
  -30.4230  -12.2860   19.4510 C   0  0  0  0  0  2  0  0  0  0  0  0
  -29.5090  -12.4870   18.2230 C   0  0  0  0  0  2  0  0  0  0  0  0
  -28.0260  -12.3540   18.6240 C   0  0  0  0  0  2  0  0  0  0  0  0
  -27.6590  -13.2050   19.8720 C   0  0  0  0  0  3  0  0  0  0  0  0
  -28.6950  -13.0050   21.0030 C   0  0  0  0  0  2  0  0  0  0  0  0
  -30.0330  -13.2840   20.4560 N   0  0  0  0  0  0  0  0  0  0  0  0
  -31.8620  -14.6200   20.1650 O   0  0  0  0  0  0  0  0  0  0  0  0
  -29.9100  -15.5480   20.6290 N   0  0  0  0  0  0  0  0  0  0  0  0
  -30.1690  -16.2230   19.9260 H   0  0  0  0  0  0  0  0  0  0  0  0
  -25.2550  -13.8140   20.5640 C   0  0  0  0  0  0  0  0  0  0  0  0
  -24.1810  -13.0450   20.9180 C   0  0  0  0  0  0  0  0  0  0  0  0
  -24.6360  -11.6900   20.8720 C   0  0  0  0  0  0  0  0  0  0  0  0
  -26.2990  -12.9320   20.3310 N   0  0  0  0  0  0  0  0  0  0  0  0
  -25.9290  -11.6480   20.5720 N   0  0  0  0  0  0  0  0  0  0  0  0
  -23.9030  -10.4300   21.0410 C   0  0  0  0  0  0  0  0  0  0  0  0
  -24.3600   -9.4210   21.9180 C   0  0  0  0  0  3  0  0  0  0  0  0
  -23.6280   -8.2250   22.0740 C   0  0  0  0  0  3  0  0  0  0  0  0
  -22.4260   -8.0270   21.3550 C   0  0  0  0  0  0  0  0  0  0  0  0
  -21.9910   -9.0250   20.4640 C   0  0  0  0  0  3  0  0  0  0  0  0
  -22.7220  -10.2130   20.3050 C   0  0  0  0  0  3  0  0  0  0  0  0
  -21.6620   -6.8870   21.4240 O   0  0  0  0  0  0  0  0  0  0  0  0
  -21.6850   -6.0720   22.5270 C   0  0  0  0  0  0  0  0  0  0  0  0
  -21.4020   -6.5620   23.8210 C   0  0  0  0  0  3  0  0  0  0  0  0
  -21.3670   -5.6760   24.9180 C   0  0  0  0  0  3  0  0  0  0  0  0
  -21.6050   -4.3030   24.7210 C   0  0  0  0  0  0  0  0  0  0  0  0
  -21.8810   -3.8130   23.4330 C   0  0  0  0  0  3  0  0  0  0  0  0
  -21.9190   -4.6950   22.3390 C   0  0  0  0  0  0  0  0  0  0  0  0
  -22.1650   -4.2150   21.0970 F   0  0  0  0  0  0  0  0  0  0  0  0
  -21.5650   -3.4500   25.7730 F   0  0  0  0  0  0  0  0  0  0  0  0
  -22.7820  -13.5240   21.1850 C   0  0  0  0  0  0  0  0  0  0  0  0
  -22.0450  -12.8270   22.0410 N   0  0  0  0  0  0  0  0  0  0  0  0
  -22.3530  -14.5560   20.6680 O   0  0  0  0  0  0  0  0  0  0  0  0
  -22.4020  -11.9930   22.4830 H   0  0  0  0  0  0  0  0  0  0  0  0
  -21.1060  -13.1330   22.2560 H   0  0  0  0  0  0  0  0  0  0  0  0
  -25.4260  -15.1850   20.3970 N   0  0  0  0  0  0  0  0  0  0  0  0
  -24.6620  -15.8440   20.5030 H   0  0  0  0  0  0  0  0  0  0  0  0
  -26.2710  -15.6070   20.0350 H   0  0  0  0  0  0  0  0  0  0  0  0
  -24.7440  -23.6990   25.0100 C   0  0  0  0  0  2  0  0  0  0  0  0
  -24.6170  -22.7850   23.7770 C   0  0  0  0  0  2  0  0  0  0  0  0
  -24.8350  -23.5190   22.4410 C   0  0  0  0  0  2  0  0  0  0  0  0
  -26.8120  -25.0120   22.3700 C   0  0  0  0  0  0  0  0  0  0  0  0
  -26.9600  -22.6320   21.5970 C   0  0  0  0  0  1  0  0  0  0  0  0
  -26.2600  -23.7860   22.1800 N   0  0  0  0  0  0  0  0  0  0  0  0
  -26.1910  -25.9500   22.8760 O   0  0  0  0  0  0  0  0  0  0  0  0
  -28.2650  -25.2650   21.9380 C   0  0  0  0  0  2  0  0  0  0  0  0
  -28.4190  -25.4110   20.4110 C   0  0  0  0  0  2  0  0  0  0  0  0
  -28.4390  -26.7880   20.0410 O   0  0  0  0  0  0  0  0  0  0  0  0
  -24.6140  -31.8630   23.2130 C   0  0  0  0  0  0  0  0  0  0  0  0
  -27.2490  -27.4740   20.0780 C   0  0  0  0  0  0  0  0  0  0  0  0
  -23.4030  -30.4890   21.5460 C   0  0  0  0  0  3  0  0  0  0  0  0
  -24.8550  -28.9580   20.1250 C   0  0  0  0  0  0  0  0  0  0  0  0
  -25.9270  -30.8520   21.3540 C   0  0  0  0  0  2  0  0  0  0  0  0
  -26.0130  -29.4860   20.7060 C   0  0  0  0  0  0  0  0  0  0  0  0
  -27.2150  -28.7480   20.6820 C   0  0  0  0  0  3  0  0  0  0  0  0
  -26.0710  -26.9470   19.5060 C   0  0  0  0  0  3  0  0  0  0  0  0
  -24.8720  -27.6810   19.5380 C   0  0  0  0  0  3  0  0  0  0  0  0
  -23.6210  -29.8230   20.1620 C   0  0  0  0  0  2  0  0  0  0  0  0
  -24.6650  -31.0810   22.0980 N   0  0  0  0  0  0  0  0  0  0  0  0
  -23.5330  -32.1320   23.7560 O   0  0  0  0  0  0  0  0  0  0  0  0
  -22.7400  -29.4610   22.4920 C   0  0  0  0  0  0  0  0  0  0  0  0
  -21.4120  -29.2930   22.3660 N   0  0  0  0  0  0  0  0  0  0  0  0
  -23.4140  -28.8170   23.3010 O   0  0  0  0  0  0  0  0  0  0  0  0
  -20.9260  -29.8630   21.6890 H   0  0  0  0  0  0  0  0  0  0  0  0
  -18.0290  -28.1430   22.8410 C   0  0  0  0  0  0  0  0  0  0  0  0
  -20.5880  -28.3640   23.1390 C   0  0  0  0  0  3  0  0  0  0  0  0
  -20.6640  -26.9280   22.5760 C   0  0  0  0  0  2  0  0  0  0  0  0
  -19.5870  -26.6360   21.5260 C   0  0  0  0  0  2  0  0  0  0  0  0
  -18.1900  -26.8090   22.1280 C   0  0  0  0  0  2  0  0  0  0  0  0
  -19.1540  -28.8820   23.2960 C   0  0  0  0  0  0  0  0  0  0  0  0
  -18.9460  -30.1360   23.9090 C   0  0  0  0  0  3  0  0  0  0  0  0
  -17.6480  -30.6520   24.0720 C   0  0  0  0  0  3  0  0  0  0  0  0
  -16.5370  -29.9080   23.6410 C   0  0  0  0  0  3  0  0  0  0  0  0
  -16.7290  -28.6560   23.0320 C   0  0  0  0  0  3  0  0  0  0  0  0
  -25.9040  -32.4830   23.8420 C   0  0  0  0  0  3  0  0  0  0  0  0
  -25.5880  -33.8610   24.2370 N   0  0  0  0  0  0  0  0  0  0  0  0
  -25.9010  -34.9470   23.5150 C   0  0  0  0  0  0  0  0  0  0  0  0
  -26.5530  -34.8910   22.4680 O   0  0  0  0  0  0  0  0  0  0  0  0
  -25.0200  -33.9790   25.0640 H   0  0  0  0  0  0  0  0  0  0  0  0
  -24.1480  -36.7320   23.2630 C   0  0  0  0  0  1  0  0  0  0  0  0
  -25.4090  -36.3110   24.0350 C   0  0  0  0  0  3  0  0  0  0  0  0
  -27.5580  -37.1800   24.8460 C   0  0  0  0  0  1  0  0  0  0  0  0
  -26.4280  -37.3800   23.9420 N   0  0  0  0  0  0  0  0  0  0  0  0
  -26.0160  -38.2860   24.1490 H   0  0  0  0  0  0  0  0  0  0  0  0
  -26.4530  -31.6590   25.0720 C   0  0  1  0  0  0  0  0  0  0  0  0
  -25.3890  -31.3620   26.1540 C   0  0  0  0  0  1  0  0  0  0  0  0
  -27.0310  -30.3040   24.6020 C   0  0  0  0  0  1  0  0  0  0  0  0
  -27.6070  -32.4320   25.7500 C   0  0  0  0  0  1  0  0  0  0  0  0
  2  1  1  0
  3  2  1  0
  4  5  1  0
  4  3  1  0
  6  5  1  0
  7  8  1  0
  9 10  1  0
  9 12  2  0
 10  7  2  0
 11  8  2  0
 11  6  1  0
 12 11  1  0
 13 12  1  0
 14 22  1  0
 15 20  1  0
 16 17  1  0
 16 15  1  0
 18 17  1  0
 18 27  1  0
 18 19  1  0
 20 14  1  0
 20 19  1  0
 21 14  2  0
 22 10  1  0
 23 22  1  0
 24 25  2  0
 25 44  1  0
 26 25  1  0
 26 29  1  0
 27 24  1  0
 27 28  1  0
 28 26  2  0
 29 30  1  0
 30 31  2  0
 32 35  1  0
 32 31  1  0
 33 32  2  0
 34 33  1  0
 34 29  2  0
 35 36  1  0
 36 37  1  0
 37 38  2  0
 39 38  1  0
 39 43  1  0
 40 39  2  0
 41 36  2  0
 41 40  1  0
 42 41  1  0
 44 45  1  0
 45 48  1  0
 45 47  1  0
 46 44  2  0
 49 50  1  0
 49 24  1  0
 51 49  1  0
 52  1  1  0
 53 52  1  0
 54 53  1  0
 55 58  2  0
 56 57  1  0
 57 55  1  0
 57 54  1  0
 59 55  1  0
 60 59  1  0
 61 63  1  0
 61 60  1  0
 62 73  2  0
 63 68  1  0
 64 72  1  0
 64 74  1  0
 65 71  1  0
 65 67  1  0
 66 72  1  0
 67 66  1  0
 68 67  2  0
 69 70  1  0
 69 63  2  0
 70 65  2  0
 71 64  1  0
 72 62  1  0
 74 76  2  0
 75 74  1  0
 77 75  1  0
 78 87  2  0
 78 83  1  0
 79 75  1  0
 79 83  1  0
 80 79  1  0
 81 82  1  0
 81 80  1  0
 82 78  1  0
 83 84  2  0
 84 85  1  0
 86 85  2  0
 87 86  1  0
 88 62  1  0
 88 89  1  0
 88 98  1  0
 89 92  1  0
 90 94  1  0
 90 89  1  0
 91 90  2  0
 94 93  1  0
 96 94  1  0
 96 97  1  0
 96 95  1  0
 98101  1  1
 98 99  1  0
100 98  1  0
M  ISO  4  14 100  22 100  60 101  61 101
M  END
>  <TORSDO>  (37) 
F 28

>  <SCORE>  (37) 
43.649

>  <name>  (37) 
36

>  <ligand_id>  (37) 
36

>  <original_smiles>  (37) 
[H]c1c([H])c([H])c2c(c1[H])C([H])([H])C([H])([H])C([H])([H])C2([H])N([H])C(=O)C1([H])N(C(=O)C([H])(N([H])C(=O)C([H])(N([H])C([H])([H])[H])C([H])([H])[H])C(C([H])([H])[H])(C([H])([H])[H])C([H])([H])[H])C([H])([H])c2c([H])c(OC([H])([H])C([H])([H])C(=O)N(C([H])([H])[H])C([H])([H])C([H])([H])C([H])([H])C([H])([H])C([H])([H])C([H])([H])C([H])([H])C([H])([H])Oc3c([H])c([H])c(N([H])C(=O)N4C([H])([H])C([H])([H])C([H])([H])C([H])(n5nc(-c6c([H])c([H])c(Oc7c([H])c([H])c(F)c([H])c7F)c([H])c6[H])c(C(=O)N([H])[H])c5N([H])[H])C4([H])[H])c([H])c3F)c([H])c([H])c2C1([H])[H]

>  <smiles>  (37) 
[H]c1c([H])c([H])c2c(c1[H])C([H])([H])C([H])([H])C([H])([H])C2([H])N([H])C(=O)C1([H])N(C(=O)C([H])(N([H])C(=O)C([H])(N([H])C([H])([H])[H])C([H])([H])[H])C(C([H])([H])[H])(C([H])([H])[H])C([H])([H])[H])C([H])([H])c2c([H])c(OC([H])([H])C([H])([H])C(=O)N(C([H])([H])[H])C([H])([H])C([H])([H])C([H])([H])C([H])([H])C([H])([H])C([H])([H])C([H])([H])C([H])([H])Oc3c([H])c([H])c(N([H])C(=O)N4C([H])([H])C([H])([H])C([H])([H])C([H])(n5nc(-c6c([H])c([H])c(Oc7c([H])c([H])c(F)c([H])c7F)c([H])c6[H])c(C(=O)N([H])[H])c5N([H])[H])C4([H])[H])c([H])c3F)c([H])c([H])c2C1([H])[H]

$$$$
37:0:0
     RDKit          3D

 96104  0  0  1  0  0  0  0  0999 V2000
  -30.6250  -20.7980   18.3170 C   0  0  0  0  0  0  0  0  0  0  0  0
  -30.3180  -20.4000   19.5670 N   0  0  0  0  0  0  0  0  0  0  0  0
  -31.7820  -20.6540   17.9250 O   0  0  0  0  0  0  0  0  0  0  0  0
  -31.1300  -20.0360   20.0520 H   0  0  0  0  0  0  0  0  0  0  0  0
  -29.5870  -21.3870   17.3460 C   0  0  0  0  0  2  0  0  0  0  0  0
  -30.0710  -22.2130   15.0060 C   0  0  0  0  0  3  0  0  0  0  0  0
  -30.9290  -23.5330   16.8840 C   0  0  0  0  0  3  0  0  0  0  0  0
  -30.5910  -23.1540   14.1110 C   0  0  0  0  0  3  0  0  0  0  0  0
  -31.4460  -24.4740   15.9720 C   0  0  0  0  0  3  0  0  0  0  0  0
  -30.2180  -22.4030   16.3990 C   0  0  0  0  0  0  0  0  0  0  0  0
  -31.2790  -24.2730   14.5830 C   0  0  0  0  0  0  0  0  0  0  0  0
  -32.1700  -26.3810   13.8790 C   0  0  0  0  0  0  0  0  0  0  0  0
  -31.4570  -28.6880   14.2780 C   0  0  0  0  0  2  0  0  0  0  0  0
  -31.2570  -28.9590   15.7760 C   0  0  0  0  0  2  0  0  0  0  0  0
  -29.8350  -28.5860   16.2370 C   0  0  0  0  0  2  0  0  0  0  0  0
  -29.4100  -27.1790   15.7490 C   0  0  0  0  0  3  0  0  0  0  0  0
  -29.7300  -26.9900   14.2450 C   0  0  0  0  0  2  0  0  0  0  0  0
  -31.1620  -27.2790   14.0470 N   0  0  0  0  0  0  0  0  0  0  0  0
  -33.3680  -26.6580   13.8920 O   0  0  0  0  0  0  0  0  0  0  0  0
  -31.7970  -25.1400   13.6050 N   0  0  0  0  0  0  0  0  0  0  0  0
  -32.3640  -24.6720   12.9060 H   0  0  0  0  0  0  0  0  0  0  0  0
  -27.3570  -26.9540   17.2880 C   0  0  0  0  0  0  0  0  0  0  0  0
  -26.0290  -26.7050   17.0150 C   0  0  0  0  0  0  0  0  0  0  0  0
  -25.9470  -26.5580   15.6010 C   0  0  0  0  0  0  0  0  0  0  0  0
  -28.0060  -26.9110   16.0610 N   0  0  0  0  0  0  0  0  0  0  0  0
  -27.1490  -26.6440   15.0450 N   0  0  0  0  0  0  0  0  0  0  0  0
  -24.7740  -26.3940   14.7290 C   0  0  0  0  0  0  0  0  0  0  0  0
  -24.5910  -25.2300   13.9500 C   0  0  0  0  0  3  0  0  0  0  0  0
  -23.4470  -25.0850   13.1350 C   0  0  0  0  0  3  0  0  0  0  0  0
  -22.4710  -26.1090   13.0960 C   0  0  0  0  0  0  0  0  0  0  0  0
  -22.6660  -27.2720   13.8570 C   0  0  0  0  0  3  0  0  0  0  0  0
  -23.8080  -27.4160   14.6640 C   0  0  0  0  0  3  0  0  0  0  0  0
  -21.3420  -26.0670   12.3110 O   0  0  0  0  0  0  0  0  0  0  0  0
  -20.2540  -25.3040   12.6540 C   0  0  0  0  0  0  0  0  0  0  0  0
  -19.2370  -25.7950   13.5020 C   0  0  0  0  0  3  0  0  0  0  0  0
  -18.1040  -25.0040   13.7700 C   0  0  0  0  0  3  0  0  0  0  0  0
  -17.9800  -23.7290   13.1870 C   0  0  0  0  0  0  0  0  0  0  0  0
  -18.9890  -23.2420   12.3410 C   0  0  0  0  0  3  0  0  0  0  0  0
  -20.1200  -24.0280   12.0700 C   0  0  0  0  0  0  0  0  0  0  0  0
  -21.0780  -23.5610   11.2350 F   0  0  0  0  0  0  0  0  0  0  0  0
  -16.8860  -22.9750   13.4430 F   0  0  0  0  0  0  0  0  0  0  0  0
  -24.9050  -26.7010   18.0100 C   0  0  0  0  0  0  0  0  0  0  0  0
  -24.0760  -25.6580   17.9870 N   0  0  0  0  0  0  0  0  0  0  0  0
  -24.7770  -27.5880   18.8460 O   0  0  0  0  0  0  0  0  0  0  0  0
  -24.1910  -24.9140   17.3180 H   0  0  0  0  0  0  0  0  0  0  0  0
  -23.3170  -25.6140   18.6480 H   0  0  0  0  0  0  0  0  0  0  0  0
  -28.0410  -27.2070   18.4620 N   0  0  0  0  0  0  0  0  0  0  0  0
  -27.5620  -27.2260   19.3530 H   0  0  0  0  0  0  0  0  0  0  0  0
  -29.0500  -27.2400   18.5510 H   0  0  0  0  0  0  0  0  0  0  0  0
  -29.1000  -20.5340   20.3870 C   0  0  0  0  0  2  0  0  0  0  0  0
  -29.1560  -21.7710   21.3910 C   0  0  0  0  0  2  0  0  0  0  0  0
  -30.5830  -22.0310   22.0250 C   0  0  0  0  0  2  0  0  0  0  0  0
  -30.8820  -20.9170   23.0310 C   0  0  0  0  0  2  0  0  0  0  0  0
  -32.3680  -20.5010   23.3530 C   0  0  0  0  0  2  0  0  0  0  0  0
  -32.8770  -20.0350   21.9790 C   0  0  0  0  0  2  0  0  0  0  0  0
  -33.9780  -19.2220   21.5600 O   0  0  0  0  0  0  0  0  0  0  0  0
  -41.0870  -19.8380   22.0040 C   0  0  0  0  0  0  0  0  0  0  0  0
  -35.1020  -20.0370   21.3660 C   0  0  0  0  0  0  0  0  0  0  0  0
  -39.8280  -21.9520   21.7480 C   0  0  0  0  0  3  0  0  0  0  0  0
  -37.3940  -21.6960   21.1090 C   0  0  0  0  0  0  0  0  0  0  0  0
  -38.9140  -19.7460   20.7620 C   0  0  0  0  0  2  0  0  0  0  0  0
  -37.5150  -20.3100   20.9580 C   0  0  0  0  0  0  0  0  0  0  0  0
  -36.3610  -19.4850   21.0370 C   0  0  0  0  0  3  0  0  0  0  0  0
  -35.0610  -21.4600   21.5350 C   0  0  0  0  0  3  0  0  0  0  0  0
  -36.1680  -22.2810   21.3760 C   0  0  0  0  0  3  0  0  0  0  0  0
  -38.6290  -22.5410   20.9680 C   0  0  0  0  0  2  0  0  0  0  0  0
  -39.9690  -20.4680   21.5330 N   0  0  0  0  0  0  0  0  0  0  0  0
  -42.0020  -20.4730   22.5450 O   0  0  0  0  0  0  0  0  0  0  0  0
  -39.7140  -22.3380   23.2380 C   0  0  0  0  0  0  0  0  0  0  0  0
  -39.9900  -23.6150   23.5570 N   0  0  0  0  0  0  0  0  0  0  0  0
  -39.3600  -21.5080   24.0780 O   0  0  0  0  0  0  0  0  0  0  0  0
  -40.0660  -24.2790   22.8050 H   0  0  0  0  0  0  0  0  0  0  0  0
  -40.4080  -26.6930   25.3860 C   0  0  0  0  0  0  0  0  0  0  0  0
  -39.9460  -24.1920   24.9030 C   0  0  0  0  0  3  0  0  0  0  0  0
  -38.4720  -24.5080   25.2300 C   0  0  0  0  0  2  0  0  0  0  0  0
  -38.1390  -25.9290   24.7320 C   0  0  0  0  0  2  0  0  0  0  0  0
  -38.9200  -26.9260   25.5950 C   0  0  0  0  0  2  0  0  0  0  0  0
  -40.9010  -25.4040   25.0250 C   0  0  0  0  0  0  0  0  0  0  0  0
  -42.2840  -25.2640   24.7520 C   0  0  0  0  0  3  0  0  0  0  0  0
  -43.1600  -26.3700   24.8680 C   0  0  0  0  0  3  0  0  0  0  0  0
  -42.6640  -27.6230   25.2540 C   0  0  0  0  0  3  0  0  0  0  0  0
  -41.2850  -27.7870   25.4920 C   0  0  0  0  0  3  0  0  0  0  0  0
  -41.2810  -18.2990   21.8470 C   0  0  0  0  0  3  0  0  0  0  0  0
  -42.5610  -18.0840   21.1660 N   0  0  0  0  0  0  0  0  0  0  0  0
  -42.7040  -17.9900   19.8360 C   0  0  0  0  0  0  0  0  0  0  0  0
  -41.7480  -18.0160   19.0510 O   0  0  0  0  0  0  0  0  0  0  0  0
  -43.3850  -18.1190   21.7510 H   0  0  0  0  0  0  0  0  0  0  0  0
  -44.5320  -19.1660   18.5750 C   0  0  0  0  0  1  0  0  0  0  0  0
  -44.1330  -17.8600   19.2820 C   0  0  0  0  0  3  0  0  0  0  0  0
  -44.2320  -15.4160   19.0270 C   0  0  0  0  0  1  0  0  0  0  0  0
  -44.3000  -16.7140   18.3610 N   0  0  0  0  0  0  0  0  0  0  0  0
  -45.1820  -16.7740   17.8640 H   0  0  0  0  0  0  0  0  0  0  0  0
  -41.2340  -17.5180   23.2180 C   0  0  1  0  0  0  0  0  0  0  0  0
  -42.5880  -17.4610   23.9680 C   0  0  0  0  0  1  0  0  0  0  0  0
  -40.2020  -18.1500   24.1800 C   0  0  0  0  0  1  0  0  0  0  0  0
  -40.7710  -16.0640   22.9760 C   0  0  0  0  0  1  0  0  0  0  0  0
  1  2  1  0
  2  4  1  0
  2 50  1  0
  3  1  2  0
  5  1  1  0
  6 10  1  0
  8 11  1  0
  8  6  2  0
  9  7  1  0
 10  7  2  0
 10  5  1  0
 11  9  2  0
 12 19  2  0
 12 18  1  0
 13 14  1  0
 14 15  1  0
 16 17  1  0
 16 25  1  0
 16 15  1  0
 18 17  1  0
 18 13  1  0
 20 12  1  0
 20 11  1  0
 21 20  1  0
 22 47  1  0
 23 22  2  0
 23 42  1  0
 24 23  1  0
 25 22  1  0
 26 24  2  0
 26 25  1  0
 27 24  1  0
 28 27  2  0
 29 28  1  0
 30 29  2  0
 30 31  1  0
 31 32  2  0
 32 27  1  0
 33 34  1  0
 33 30  1  0
 34 35  1  0
 35 36  2  0
 37 41  1  0
 37 36  1  0
 38 37  2  0
 39 38  1  0
 39 34  2  0
 40 39  1  0
 42 44  2  0
 43 42  1  0
 43 46  1  0
 45 43  1  0
 47 49  1  0
 47 48  1  0
 50 51  1  0
 51 52  1  0
 52 53  1  0
 53 54  1  0
 55 54  1  0
 56 55  1  0
 57 68  2  0
 58 64  1  0
 58 56  1  0
 59 69  1  0
 60 65  1  0
 61 62  1  0
 61 67  1  0
 62 63  1  0
 62 60  2  0
 63 58  2  0
 65 64  2  0
 66 60  1  0
 66 59  1  0
 67 59  1  0
 67 57  1  0
 69 70  1  0
 69 71  2  0
 72 70  1  0
 73 82  1  0
 73 77  1  0
 74 70  1  0
 74 78  1  0
 74 75  1  0
 76 75  1  0
 76 77  1  0
 78 73  2  0
 79 80  2  0
 79 78  1  0
 80 81  1  0
 81 82  2  0
 83 57  1  0
 83 93  1  0
 84 87  1  0
 84 83  1  0
 85 84  1  0
 86 85  2  0
 89 88  1  0
 89 85  1  0
 91 90  1  0
 91 89  1  0
 92 91  1  0
 93 94  1  1
 93 95  1  0
 96 93  1  0
M  ISO  4  12 100  20 100  55 101  56 101
M  END
>  <TORSDO>  (38) 
F 24

>  <SCORE>  (38) 
-4.986

>  <name>  (38) 
37

>  <ligand_id>  (38) 
37

>  <original_smiles>  (38) 
[H]c1c([H])c([H])c2c(c1[H])C([H])([H])C([H])([H])C([H])([H])C2([H])N([H])C(=O)C1([H])N(C(=O)C([H])(N([H])C(=O)C([H])(N([H])C([H])([H])[H])C([H])([H])[H])C(C([H])([H])[H])(C([H])([H])[H])C([H])([H])[H])C([H])([H])c2c([H])c(OC([H])([H])C([H])([H])C([H])([H])C([H])([H])C([H])([H])C([H])([H])N([H])C(=O)C([H])([H])c3c([H])c([H])c(N([H])C(=O)N4C([H])([H])C([H])([H])C([H])([H])C([H])(n5nc(-c6c([H])c([H])c(Oc7c([H])c([H])c(F)c([H])c7F)c([H])c6[H])c(C(=O)N([H])[H])c5N([H])[H])C4([H])[H])c([H])c3[H])c([H])c([H])c2C1([H])[H]

>  <smiles>  (38) 
[H]c1c([H])c([H])c2c(c1[H])C([H])([H])C([H])([H])C([H])([H])C2([H])N([H])C(=O)C1([H])N(C(=O)C([H])(N([H])C(=O)C([H])(N([H])C([H])([H])[H])C([H])([H])[H])C(C([H])([H])[H])(C([H])([H])[H])C([H])([H])[H])C([H])([H])c2c([H])c(OC([H])([H])C([H])([H])C([H])([H])C([H])([H])C([H])([H])C([H])([H])N([H])C(=O)C([H])([H])c3c([H])c([H])c(N([H])C(=O)N4C([H])([H])C([H])([H])C([H])([H])C([H])(n5nc(-c6c([H])c([H])c(Oc7c([H])c([H])c(F)c([H])c7F)c([H])c6[H])c(C(=O)N([H])[H])c5N([H])[H])C4([H])[H])c([H])c3[H])c([H])c([H])c2C1([H])[H]

$$$$
38:0:0
     RDKit          3D

 99107  0  0  1  0  0  0  0  0999 V2000
  -27.6000  -18.8480   17.5270 C   0  0  0  0  0  2  0  0  0  0  0  0
  -29.9460  -18.9720   16.6320 C   0  0  0  0  0  0  0  0  0  0  0  0
  -29.4330  -18.9580   15.1920 C   0  0  0  0  0  1  0  0  0  0  0  0
  -29.0750  -18.8920   17.6780 N   0  0  0  0  0  0  0  0  0  0  0  0
  -31.1690  -19.0640   16.7870 O   0  0  0  0  0  0  0  0  0  0  0  0
  -30.6460  -19.2930   21.0630 C   0  0  0  0  0  3  0  0  0  0  0  0
  -30.6090  -17.9720   21.5480 C   0  0  0  0  0  3  0  0  0  0  0  0
  -30.1340  -19.5950   19.7870 C   0  0  0  0  0  3  0  0  0  0  0  0
  -29.5640  -17.2370   19.4590 C   0  0  0  0  0  0  0  0  0  0  0  0
  -30.0770  -16.9360   20.7550 C   0  0  0  0  0  0  0  0  0  0  0  0
  -29.5910  -18.5740   18.9770 C   0  0  0  0  0  0  0  0  0  0  0  0
  -29.0040  -16.1470   18.5590 C   0  0  0  0  0  1  0  0  0  0  0  0
  -30.8420  -14.6210   21.0830 C   0  0  0  0  0  0  0  0  0  0  0  0
  -30.7410  -12.3660   20.1050 C   0  0  0  0  0  2  0  0  0  0  0  0
  -29.8980  -12.4050   18.8100 C   0  0  0  0  0  2  0  0  0  0  0  0
  -28.3830  -12.3350   19.1090 C   0  0  0  0  0  2  0  0  0  0  0  0
  -27.9200  -13.2250   20.2980 C   0  0  0  0  0  3  0  0  0  0  0  0
  -28.8850  -13.0920   21.4950 C   0  0  0  0  0  2  0  0  0  0  0  0
  -30.2440  -13.4040   21.0160 N   0  0  0  0  0  0  0  0  0  0  0  0
  -32.0190  -14.8230   20.7660 O   0  0  0  0  0  0  0  0  0  0  0  0
  -29.9890  -15.6330   21.3200 N   0  0  0  0  0  0  0  0  0  0  0  0
  -29.0650  -15.3380   21.5970 H   0  0  0  0  0  0  0  0  0  0  0  0
  -25.4700  -13.8250   20.8190 C   0  0  0  0  0  0  0  0  0  0  0  0
  -24.3830  -13.0440   21.1090 C   0  0  0  0  0  0  0  0  0  0  0  0
  -24.8580  -11.6970   21.1190 C   0  0  0  0  0  0  0  0  0  0  0  0
  -26.5370  -12.9490   20.6740 N   0  0  0  0  0  0  0  0  0  0  0  0
  -26.1670  -11.6670   20.9100 N   0  0  0  0  0  0  0  0  0  0  0  0
  -24.1350  -10.4290   21.2560 C   0  0  0  0  0  0  0  0  0  0  0  0
  -24.5240   -9.4590   22.2060 C   0  0  0  0  0  3  0  0  0  0  0  0
  -23.8040   -8.2520   22.3320 C   0  0  0  0  0  3  0  0  0  0  0  0
  -22.6800   -8.0070   21.5070 C   0  0  0  0  0  0  0  0  0  0  0  0
  -22.3110   -8.9660   20.5470 C   0  0  0  0  0  3  0  0  0  0  0  0
  -23.0320  -10.1650   20.4190 C   0  0  0  0  0  3  0  0  0  0  0  0
  -21.9350   -6.8540   21.5420 O   0  0  0  0  0  0  0  0  0  0  0  0
  -21.8450   -6.0900   22.6790 C   0  0  0  0  0  0  0  0  0  0  0  0
  -21.3420   -6.6140   23.8900 C   0  0  0  0  0  3  0  0  0  0  0  0
  -21.2020   -5.7770   25.0150 C   0  0  0  0  0  3  0  0  0  0  0  0
  -21.5510   -4.4160   24.9270 C   0  0  0  0  0  0  0  0  0  0  0  0
  -22.0450   -3.8910   23.7190 C   0  0  0  0  0  3  0  0  0  0  0  0
  -22.1880   -4.7270   22.5980 C   0  0  0  0  0  0  0  0  0  0  0  0
  -22.6450   -4.2110   21.4310 F   0  0  0  0  0  0  0  0  0  0  0  0
  -21.4090   -3.6090   26.0040 F   0  0  0  0  0  0  0  0  0  0  0  0
  -22.9650  -13.5070   21.2760 C   0  0  0  0  0  0  0  0  0  0  0  0
  -22.1830  -12.8080   22.0890 N   0  0  0  0  0  0  0  0  0  0  0  0
  -22.5550  -14.5260   20.7200 O   0  0  0  0  0  0  0  0  0  0  0  0
  -22.5230  -11.9840   22.5620 H   0  0  0  0  0  0  0  0  0  0  0  0
  -21.2270  -13.1000   22.2410 H   0  0  0  0  0  0  0  0  0  0  0  0
  -25.6350  -15.1970   20.6490 N   0  0  0  0  0  0  0  0  0  0  0  0
  -24.8550  -15.8440   20.7050 H   0  0  0  0  0  0  0  0  0  0  0  0
  -26.5040  -15.6500   20.3990 H   0  0  0  0  0  0  0  0  0  0  0  0
  -26.9030  -20.1690   17.1270 C   0  0  0  0  0  2  0  0  0  0  0  0
  -27.2990  -21.3850   17.9740 C   0  0  0  0  0  2  0  0  0  0  0  0
  -27.3500  -22.6830   17.1550 C   0  0  0  0  0  2  0  0  0  0  0  0
  -27.9330  -23.8230   17.9910 C   0  0  0  0  0  2  0  0  0  0  0  0
  -28.5450  -24.9640   17.1640 C   0  0  0  0  0  2  0  0  0  0  0  0
  -29.0450  -26.1590   18.0020 C   0  0  0  0  0  2  0  0  0  0  0  0
  -30.0060  -25.7930   19.1560 C   0  0  0  0  0  2  0  0  0  0  0  0
  -29.3620  -25.4120   20.5110 C   0  0  0  0  0  2  0  0  0  0  0  0
  -28.9880  -26.5580   21.2650 O   0  0  0  0  0  0  0  0  0  0  0  0
  -24.8080  -31.8330   23.4260 C   0  0  0  0  0  0  0  0  0  0  0  0
  -27.7710  -27.1710   21.0710 C   0  0  0  0  0  0  0  0  0  0  0  0
  -23.7690  -30.2510   21.8290 C   0  0  0  0  0  3  0  0  0  0  0  0
  -25.3550  -28.5980   20.7190 C   0  0  0  0  0  0  0  0  0  0  0  0
  -26.2950  -30.6350   21.8280 C   0  0  0  0  0  2  0  0  0  0  0  0
  -26.4470  -29.2090   21.3490 C   0  0  0  0  0  0  0  0  0  0  0  0
  -27.6510  -28.4990   21.5270 C   0  0  0  0  0  3  0  0  0  0  0  0
  -26.6490  -26.5560   20.4650 C   0  0  0  0  0  3  0  0  0  0  0  0
  -25.4490  -27.2670   20.2800 C   0  0  0  0  0  3  0  0  0  0  0  0
  -24.1090  -29.4350   20.5530 C   0  0  0  0  0  2  0  0  0  0  0  0
  -24.9700  -30.9280   22.4180 N   0  0  0  0  0  0  0  0  0  0  0  0
  -23.6800  -32.1400   23.8350 O   0  0  0  0  0  0  0  0  0  0  0  0
  -23.0390  -29.3230   22.8270 C   0  0  0  0  0  0  0  0  0  0  0  0
  -21.7400  -29.0850   22.5800 N   0  0  0  0  0  0  0  0  0  0  0  0
  -23.6410  -28.8140   23.7750 O   0  0  0  0  0  0  0  0  0  0  0  0
  -21.3160  -29.5480   21.7870 H   0  0  0  0  0  0  0  0  0  0  0  0
  -18.3510  -27.8700   22.8580 C   0  0  0  0  0  0  0  0  0  0  0  0
  -20.8630  -28.2140   23.3600 C   0  0  0  0  0  3  0  0  0  0  0  0
  -21.0430  -26.7340   22.9540 C   0  0  0  0  0  2  0  0  0  0  0  0
  -20.0570  -26.2800   21.8730 C   0  0  0  0  0  2  0  0  0  0  0  0
  -18.6130  -26.4620   22.3520 C   0  0  0  0  0  2  0  0  0  0  0  0
  -19.4090  -28.6990   23.3160 C   0  0  0  0  0  0  0  0  0  0  0  0
  -19.1170  -30.0130   23.7410 C   0  0  0  0  0  3  0  0  0  0  0  0
  -17.7960  -30.5010   23.7140 C   0  0  0  0  0  3  0  0  0  0  0  0
  -16.7500  -29.6710   23.2750 C   0  0  0  0  0  3  0  0  0  0  0  0
  -17.0280  -28.3590   22.8550 C   0  0  0  0  0  3  0  0  0  0  0  0
  -26.0290  -32.5400   24.0930 C   0  0  0  0  0  3  0  0  0  0  0  0
  -26.4850  -31.8560   25.4400 C   0  0  1  0  0  0  0  0  0  0  0  0
  -25.3240  -31.5730   26.4210 C   0  0  0  0  0  1  0  0  0  0  0  0
  -27.1980  -30.5130   25.1530 C   0  0  0  0  0  1  0  0  0  0  0  0
  -27.5140  -32.7560   26.1640 C   0  0  0  0  0  1  0  0  0  0  0  0
  -25.6560  -33.9410   24.3220 N   0  0  0  0  0  0  0  0  0  0  0  0
  -25.9880  -34.9570   23.5140 C   0  0  0  0  0  0  0  0  0  0  0  0
  -26.7110  -34.8170   22.5230 O   0  0  0  0  0  0  0  0  0  0  0  0
  -25.0200  -34.1210   25.0840 H   0  0  0  0  0  0  0  0  0  0  0  0
  -24.2030  -36.6430   22.9780 C   0  0  0  0  0  1  0  0  0  0  0  0
  -25.4280  -36.3490   23.8580 C   0  0  0  0  0  3  0  0  0  0  0  0
  -27.4900  -37.3800   24.7030 C   0  0  0  0  0  1  0  0  0  0  0  0
  -26.4200  -37.4350   23.7090 N   0  0  0  0  0  0  0  0  0  0  0  0
  -25.9710  -38.3450   23.7770 H   0  0  0  0  0  0  0  0  0  0  0  0
  1  4  1  0
  2  5  2  0
  2  4  1  0
  3  2  1  0
  4 11  1  0
  6  7  1  0
  8  6  2  0
  9 10  1  0
 10 21  1  0
 10  7  2  0
 11  9  2  0
 11  8  1  0
 12  9  1  0
 13 21  1  0
 14 19  1  0
 15 16  1  0
 15 14  1  0
 17 16  1  0
 17 26  1  0
 17 18  1  0
 19 13  1  0
 19 18  1  0
 20 13  2  0
 21 22  1  0
 23 24  2  0
 24 25  1  0
 24 43  1  0
 25 28  1  0
 26 23  1  0
 26 27  1  0
 27 25  2  0
 28 29  1  0
 29 30  2  0
 31 34  1  0
 31 30  1  0
 32 31  2  0
 33 32  1  0
 33 28  2  0
 34 35  1  0
 35 36  1  0
 36 37  2  0
 38 37  1  0
 38 42  1  0
 39 38  2  0
 40 35  2  0
 40 39  1  0
 41 40  1  0
 43 44  1  0
 44 47  1  0
 44 46  1  0
 45 43  2  0
 48 49  1  0
 48 23  1  0
 50 48  1  0
 51  1  1  0
 51 52  1  0
 53 52  1  0
 53 54  1  0
 55 54  1  0
 55 56  1  0
 56 57  1  0
 57 58  1  0
 58 59  1  0
 60 71  2  0
 61 59  1  0
 61 66  1  0
 62 70  1  0
 62 72  1  0
 63 65  1  0
 64 70  1  0
 65 66  2  0
 65 64  1  0
 67 61  2  0
 68 67  1  0
 68 63  2  0
 69 63  1  0
 69 62  1  0
 70 60  1  0
 72 74  2  0
 73 72  1  0
 75 73  1  0
 76 81  1  0
 77 73  1  0
 78 77  1  0
 79 80  1  0
 79 78  1  0
 80 76  1  0
 81 77  1  0
 81 82  2  0
 83 82  1  0
 84 83  2  0
 85 76  2  0
 85 84  1  0
 86 60  1  0
 86 91  1  0
 86 87  1  0
 87 90  1  1
 87 88  1  0
 89 87  1  0
 91 94  1  0
 92 96  1  0
 92 91  1  0
 93 92  2  0
 96 95  1  0
 98 99  1  0
 98 96  1  0
 98 97  1  0
M  ISO  4  13 100  21 100  58 101  59 101
M  END
>  <TORSDO>  (39) 
F 26

>  <SCORE>  (39) 
-10.634

>  <name>  (39) 
38

>  <ligand_id>  (39) 
38

>  <original_smiles>  (39) 
[H]c1c([H])c(N([H])C(=O)N2C([H])([H])C([H])([H])C([H])([H])C([H])(n3nc(-c4c([H])c([H])c(Oc5c([H])c([H])c(F)c([H])c5F)c([H])c4[H])c(C(=O)N([H])[H])c3N([H])[H])C2([H])[H])c(C([H])([H])[H])c(N(C(=O)C([H])([H])[H])C([H])([H])C([H])([H])C([H])([H])C([H])([H])C([H])([H])C([H])([H])C([H])([H])C([H])([H])C([H])([H])Oc2c([H])c([H])c3c(c2[H])C([H])([H])N(C(=O)C([H])(N([H])C(=O)C([H])(N([H])C([H])([H])[H])C([H])([H])[H])C(C([H])([H])[H])(C([H])([H])[H])C([H])([H])[H])C([H])(C(=O)N([H])C2([H])c4c([H])c([H])c([H])c([H])c4C([H])([H])C([H])([H])C2([H])[H])C3([H])[H])c1[H]

>  <smiles>  (39) 
[H]c1c([H])c(N([H])C(=O)N2C([H])([H])C([H])([H])C([H])([H])C([H])(n3nc(-c4c([H])c([H])c(Oc5c([H])c([H])c(F)c([H])c5F)c([H])c4[H])c(C(=O)N([H])[H])c3N([H])[H])C2([H])[H])c(C([H])([H])[H])c(N(C(=O)C([H])([H])[H])C([H])([H])C([H])([H])C([H])([H])C([H])([H])C([H])([H])C([H])([H])C([H])([H])C([H])([H])C([H])([H])Oc2c([H])c([H])c3c(c2[H])C([H])([H])N(C(=O)C([H])(N([H])C(=O)C([H])(N([H])C([H])([H])[H])C([H])([H])[H])C(C([H])([H])[H])(C([H])([H])[H])C([H])([H])[H])C([H])(C(=O)N([H])C2([H])c4c([H])c([H])c([H])c([H])c4C([H])([H])C([H])([H])C2([H])[H])C3([H])[H])c1[H]

$$$$
39:0:0
     RDKit          3D

 95103  0  0  1  0  0  0  0  0999 V2000
  -29.1340  -17.2540   19.4880 C   0  0  0  0  0  3  0  0  0  0  0  0
  -28.6500  -19.6590   19.4150 C   0  0  0  0  0  3  0  0  0  0  0  0
  -28.5110  -18.3620   18.8730 C   0  0  0  0  0  0  0  0  0  0  0  0
  -30.0150  -18.7400   21.2120 C   0  0  0  0  0  0  0  0  0  0  0  0
  -29.8640  -17.3820   20.6860 C   0  0  0  0  0  0  0  0  0  0  0  0
  -29.4450  -19.9150   20.5560 C   0  0  0  0  0  0  0  0  0  0  0  0
  -30.7880  -18.9520   22.5050 C   0  0  0  0  0  1  0  0  0  0  0  0
  -30.9960  -15.0450   20.7840 C   0  0  0  0  0  0  0  0  0  0  0  0
  -30.7920  -12.8100   19.6750 C   0  0  0  0  0  2  0  0  0  0  0  0
  -29.9360  -12.9080   18.3950 C   0  0  0  0  0  2  0  0  0  0  0  0
  -28.4350  -12.7770   18.7240 C   0  0  0  0  0  2  0  0  0  0  0  0
  -28.0040  -13.6310   19.9500 C   0  0  0  0  0  3  0  0  0  0  0  0
  -28.9920  -13.5160   21.1290 C   0  0  0  0  0  2  0  0  0  0  0  0
  -30.3280  -13.8540   20.6210 N   0  0  0  0  0  0  0  0  0  0  0  0
  -32.1710  -15.1440   20.4170 O   0  0  0  0  0  0  0  0  0  0  0  0
  -30.3600  -16.1420   21.3340 N   0  0  0  0  0  0  0  0  0  0  0  0
  -30.7590  -16.3310   22.2420 H   0  0  0  0  0  0  0  0  0  0  0  0
  -25.5890  -14.2450   20.5480 C   0  0  0  0  0  0  0  0  0  0  0  0
  -24.4950  -13.4760   20.8320 C   0  0  0  0  0  0  0  0  0  0  0  0
  -24.9440  -12.1190   20.7990 C   0  0  0  0  0  0  0  0  0  0  0  0
  -26.6330  -13.3530   20.3560 N   0  0  0  0  0  0  0  0  0  0  0  0
  -26.2490  -12.0700   20.5690 N   0  0  0  0  0  0  0  0  0  0  0  0
  -24.1970  -10.8600   20.9250 C   0  0  0  0  0  0  0  0  0  0  0  0
  -24.5200   -9.9070   21.9170 C   0  0  0  0  0  3  0  0  0  0  0  0
  -23.7740   -8.7130   22.0330 C   0  0  0  0  0  3  0  0  0  0  0  0
  -22.6970   -8.4640   21.1500 C   0  0  0  0  0  0  0  0  0  0  0  0
  -22.3960   -9.4050   20.1530 C   0  0  0  0  0  3  0  0  0  0  0  0
  -23.1400  -10.5910   20.0360 C   0  0  0  0  0  3  0  0  0  0  0  0
  -21.9360   -7.3230   21.1630 O   0  0  0  0  0  0  0  0  0  0  0  0
  -21.6860   -6.6420   22.3250 C   0  0  0  0  0  0  0  0  0  0  0  0
  -21.0390   -7.2470   23.4240 C   0  0  0  0  0  3  0  0  0  0  0  0
  -20.7420   -6.4860   24.5720 C   0  0  0  0  0  3  0  0  0  0  0  0
  -21.0840   -5.1210   24.6230 C   0  0  0  0  0  0  0  0  0  0  0  0
  -21.7230   -4.5160   23.5260 C   0  0  0  0  0  3  0  0  0  0  0  0
  -22.0200   -5.2730   22.3800 C   0  0  0  0  0  0  0  0  0  0  0  0
  -22.6170   -4.6810   21.3190 F   0  0  0  0  0  0  0  0  0  0  0  0
  -20.7940   -4.3900   25.7210 F   0  0  0  0  0  0  0  0  0  0  0  0
  -23.0880  -13.9620   21.0300 C   0  0  0  0  0  0  0  0  0  0  0  0
  -22.3010  -13.2600   21.8370 N   0  0  0  0  0  0  0  0  0  0  0  0
  -22.6900  -15.0000   20.5000 O   0  0  0  0  0  0  0  0  0  0  0  0
  -22.6360  -12.4200   22.2880 H   0  0  0  0  0  0  0  0  0  0  0  0
  -21.3520  -13.5600   22.0070 H   0  0  0  0  0  0  0  0  0  0  0  0
  -25.7850  -15.6200   20.4280 N   0  0  0  0  0  0  0  0  0  0  0  0
  -25.0230  -16.2870   20.5000 H   0  0  0  0  0  0  0  0  0  0  0  0
  -26.6960  -16.0550   20.3920 H   0  0  0  0  0  0  0  0  0  0  0  0
  -27.7010  -18.1760   17.5980 C   0  0  1  0  0  0  0  0  0  0  0  0
  -27.3630  -16.9020   17.4020 F   0  0  0  0  0  0  0  0  0  0  0  0
  -26.5840  -18.9030   17.6570 F   0  0  0  0  0  0  0  0  0  0  0  0
  -28.4240  -18.5830   16.5560 F   0  0  0  0  0  0  0  0  0  0  0  0
  -29.6620  -21.2930   20.9660 N   0  0  0  0  0  0  0  0  0  0  0  0
  -30.4190  -21.4820   21.6160 H   0  0  0  0  0  0  0  0  0  0  0  0
  -28.8760  -22.4970   20.4800 C   0  0  0  0  0  2  0  0  0  0  0  0
  -29.3130  -23.9890   20.9350 C   0  0  0  0  0  3  0  0  0  0  0  0
  -28.4250  -25.2460   20.4300 C   0  0  0  0  0  3  0  0  0  0  0  0
  -28.6530  -26.6870   20.8300 O   0  0  0  0  0  0  0  0  0  0  0  0
  -24.7950  -32.2020   23.5750 C   0  0  0  0  0  0  0  0  0  0  0  0
  -27.5810  -27.6020   20.6860 C   0  0  0  0  0  0  0  0  0  0  0  0
  -23.6910  -30.7810   21.8920 C   0  0  0  0  0  3  0  0  0  0  0  0
  -25.2260  -29.2520   20.5290 C   0  0  0  0  0  0  0  0  0  0  0  0
  -26.2380  -31.1140   21.8330 C   0  0  0  0  0  2  0  0  0  0  0  0
  -26.3600  -29.7320   21.1960 C   0  0  0  0  0  0  0  0  0  0  0  0
  -27.5410  -28.9200   21.2660 C   0  0  0  0  0  3  0  0  0  0  0  0
  -26.4310  -27.2150   19.9580 C   0  0  0  0  0  3  0  0  0  0  0  0
  -25.2700  -28.0040   19.8920 C   0  0  0  0  0  3  0  0  0  0  0  0
  -23.9800  -30.1200   20.5210 C   0  0  0  0  0  2  0  0  0  0  0  0
  -24.9260  -31.3830   22.4900 N   0  0  0  0  0  0  0  0  0  0  0  0
  -23.6830  -32.4690   24.0540 O   0  0  0  0  0  0  0  0  0  0  0  0
  -23.0010  -29.7540   22.8240 C   0  0  0  0  0  0  0  0  0  0  0  0
  -21.6910  -29.5350   22.6210 N   0  0  0  0  0  0  0  0  0  0  0  0
  -23.6470  -29.1570   23.6900 O   0  0  0  0  0  0  0  0  0  0  0  0
  -21.2290  -30.0700   21.8990 H   0  0  0  0  0  0  0  0  0  0  0  0
  -18.3150  -28.2790   22.9790 C   0  0  0  0  0  0  0  0  0  0  0  0
  -20.8540  -28.5890   23.3640 C   0  0  0  0  0  3  0  0  0  0  0  0
  -21.0090  -27.1560   22.8070 C   0  0  0  0  0  2  0  0  0  0  0  0
  -19.9610  -26.8050   21.7460 C   0  0  0  0  0  2  0  0  0  0  0  0
  -18.5460  -26.9300   22.3220 C   0  0  0  0  0  2  0  0  0  0  0  0
  -19.3980  -29.0650   23.4550 C   0  0  0  0  0  0  0  0  0  0  0  0
  -19.1280  -30.3260   24.0300 C   0  0  0  0  0  3  0  0  0  0  0  0
  -17.8070  -30.8020   24.1350 C   0  0  0  0  0  3  0  0  0  0  0  0
  -16.7390  -30.0150   23.6740 C   0  0  0  0  0  3  0  0  0  0  0  0
  -16.9910  -28.7560   23.1020 C   0  0  0  0  0  3  0  0  0  0  0  0
  -26.0380  -32.8630   24.2480 C   0  0  0  0  0  3  0  0  0  0  0  0
  -25.7220  -34.2820   24.4680 N   0  0  0  0  0  0  0  0  0  0  0  0
  -26.0830  -35.2780   23.6460 C   0  0  0  0  0  0  0  0  0  0  0  0
  -26.7850  -35.0980   22.6480 O   0  0  0  0  0  0  0  0  0  0  0  0
  -25.1070  -34.4940   25.2390 H   0  0  0  0  0  0  0  0  0  0  0  0
  -24.3680  -37.0430   23.1110 C   0  0  0  0  0  1  0  0  0  0  0  0
  -25.5860  -36.6980   23.9840 C   0  0  0  0  0  3  0  0  0  0  0  0
  -27.6930  -37.6460   24.8140 C   0  0  0  0  0  1  0  0  0  0  0  0
  -26.6250  -37.7380   23.8210 N   0  0  0  0  0  0  0  0  0  0  0  0
  -26.2180  -38.6660   23.8810 H   0  0  0  0  0  0  0  0  0  0  0  0
  -26.4470  -32.1700   25.6070 C   0  0  1  0  0  0  0  0  0  0  0  0
  -25.2640  -31.9640   26.5820 C   0  0  0  0  0  1  0  0  0  0  0  0
  -27.0850  -30.7850   25.3490 C   0  0  0  0  0  1  0  0  0  0  0  0
  -27.5230  -33.0180   26.3220 C   0  0  0  0  0  1  0  0  0  0  0  0
  1  5  1  0
  2  6  2  0
  3  2  1  0
  3  1  2  0
  4  7  1  0
  5  4  2  0
  5 16  1  0
  6 50  1  0
  6  4  1  0
  8 16  1  0
  9 14  1  0
 10 11  1  0
 10  9  1  0
 12 11  1  0
 12 21  1  0
 12 13  1  0
 14  8  1  0
 14 13  1  0
 15  8  2  0
 16 17  1  0
 18 19  2  0
 19 38  1  0
 20 19  1  0
 20 23  1  0
 21 18  1  0
 21 22  1  0
 22 20  2  0
 23 24  1  0
 24 25  2  0
 26 29  1  0
 26 25  1  0
 27 26  2  0
 28 27  1  0
 28 23  2  0
 29 30  1  0
 30 35  2  0
 30 31  1  0
 31 32  2  0
 32 33  1  0
 33 37  1  0
 34 33  2  0
 35 34  1  0
 36 35  1  0
 38 39  1  0
 39 42  1  0
 39 41  1  0
 40 38  2  0
 43 44  1  0
 43 18  1  0
 45 43  1  0
 46 48  1  1
 46  3  1  0
 47 46  1  0
 49 46  1  0
 50 51  1  0
 52 53  1  0
 52 50  1  0
 54 55  1  0
 54 53  2  0
 56 67  2  0
 57 55  1  0
 57 62  1  0
 58 66  1  0
 58 68  1  0
 59 61  1  0
 60 66  1  0
 61 62  2  0
 61 60  1  0
 63 57  2  0
 64 63  1  0
 64 59  2  0
 65 59  1  0
 65 58  1  0
 66 56  1  0
 68 70  2  0
 69 68  1  0
 71 69  1  0
 72 81  2  0
 72 77  1  0
 73 69  1  0
 73 77  1  0
 74 73  1  0
 75 76  1  0
 75 74  1  0
 76 72  1  0
 77 78  2  0
 78 79  1  0
 80 79  2  0
 81 80  1  0
 82 56  1  0
 82 83  1  0
 82 92  1  0
 83 86  1  0
 84 88  1  0
 84 83  1  0
 85 84  2  0
 88 87  1  0
 90 91  1  0
 90 88  1  0
 90 89  1  0
 92 95  1  1
 92 93  1  0
 94 92  1  0
M  ISO  4   8 100  16 100  54 101  55 101
M  END
>  <TORSDO>  (40) 
F 21

>  <SCORE>  (40) 
-11.222

>  <name>  (40) 
39

>  <ligand_id>  (40) 
39

>  <original_smiles>  (40) 
[H]c1c([H])c([H])c2c(c1[H])C([H])([H])C([H])([H])C([H])([H])C2([H])N([H])C(=O)C1([H])N(C(=O)C([H])(N([H])C(=O)C([H])(N([H])C([H])([H])[H])C([H])([H])[H])C(C([H])([H])[H])(C([H])([H])[H])C([H])([H])[H])C([H])([H])c2c([H])c(OC([H])([H])C([H])([H])C([H])([H])N([H])c3c([H])c(C(F)(F)F)c([H])c(N([H])C(=O)N4C([H])([H])C([H])([H])C([H])([H])C([H])(n5nc(-c6c([H])c([H])c(Oc7c([H])c([H])c(F)c([H])c7F)c([H])c6[H])c(C(=O)N([H])[H])c5N([H])[H])C4([H])[H])c3C([H])([H])[H])c([H])c([H])c2C1([H])[H]

>  <smiles>  (40) 
[H]c1c([H])c([H])c2c(c1[H])C([H])([H])C([H])([H])C([H])([H])C2([H])N([H])C(=O)C1([H])N(C(=O)C([H])(N([H])C(=O)C([H])(N([H])C([H])([H])[H])C([H])([H])[H])C(C([H])([H])[H])(C([H])([H])[H])C([H])([H])[H])C([H])([H])c2c([H])c(OC([H])([H])C([H])([H])C([H])([H])N([H])c3c([H])c(C(F)(F)F)c([H])c(N([H])C(=O)N4C([H])([H])C([H])([H])C([H])([H])C([H])(n5nc(-c6c([H])c([H])c(Oc7c([H])c([H])c(F)c([H])c7F)c([H])c6[H])c(C(=O)N([H])[H])c5N([H])[H])C4([H])[H])c3C([H])([H])[H])c([H])c([H])c2C1([H])[H]

$$$$
40:0:0
     RDKit          3D

 91 99  0  0  1  0  0  0  0  0999 V2000
  -29.5440  -20.4480   21.0170 C   0  0  0  0  0  3  0  0  0  0  0  0
  -29.3630  -20.6850   19.6550 C   0  0  0  0  0  3  0  0  0  0  0  0
  -30.5830  -18.3370   20.5110 C   0  0  0  0  0  3  0  0  0  0  0  0
  -30.4140  -18.4310   19.0940 C   0  0  0  0  0  0  0  0  0  0  0  0
  -30.1640  -19.2880   21.4560 C   0  0  0  0  0  0  0  0  0  0  0  0
  -29.7340  -19.8210   18.5900 C   0  0  0  0  0  0  0  0  0  0  0  0
  -31.5580  -15.6960   19.1290 C   0  0  0  0  0  0  0  0  0  0  0  0
  -31.4670  -13.0850   19.0060 C   0  0  0  0  0  2  0  0  0  0  0  0
  -30.5490  -12.4730   17.9150 C   0  0  0  0  0  2  0  0  0  0  0  0
  -29.1060  -12.3500   18.4310 C   0  0  0  0  0  2  0  0  0  0  0  0
  -28.6600  -13.6190   19.2010 C   0  0  0  0  0  3  0  0  0  0  0  0
  -29.7120  -14.1430   20.2020 C   0  0  0  0  0  2  0  0  0  0  0  0
  -30.9230  -14.4420   19.4150 N   0  0  0  0  0  0  0  0  0  0  0  0
  -32.7800  -15.5300   18.9870 O   0  0  0  0  0  0  0  0  0  0  0  0
  -30.9600  -16.9820   18.5920 N   0  0  0  0  0  0  0  0  0  0  0  0
  -31.4030  -17.1250   17.6960 H   0  0  0  0  0  0  0  0  0  0  0  0
  -26.4940  -14.4860   20.2100 C   0  0  0  0  0  0  0  0  0  0  0  0
  -25.3430  -13.8690   20.6070 C   0  0  0  0  0  0  0  0  0  0  0  0
  -25.5610  -12.4680   20.4270 C   0  0  0  0  0  0  0  0  0  0  0  0
  -27.3450  -13.4760   19.8020 N   0  0  0  0  0  0  0  0  0  0  0  0
  -26.8020  -12.2460   20.0010 N   0  0  0  0  0  0  0  0  0  0  0  0
  -24.6370  -11.3360   20.5700 C   0  0  0  0  0  0  0  0  0  0  0  0
  -25.0940  -10.0510   20.9410 C   0  0  0  0  0  3  0  0  0  0  0  0
  -24.1840   -8.9840   21.1030 C   0  0  0  0  0  3  0  0  0  0  0  0
  -22.8000   -9.1940   20.8910 C   0  0  0  0  0  0  0  0  0  0  0  0
  -22.3510  -10.4670   20.4940 C   0  0  0  0  0  3  0  0  0  0  0  0
  -23.2600  -11.5260   20.3330 C   0  0  0  0  0  3  0  0  0  0  0  0
  -21.8450   -8.2110   20.9980 O   0  0  0  0  0  0  0  0  0  0  0  0
  -21.9380   -7.2190   21.9390 C   0  0  0  0  0  0  0  0  0  0  0  0
  -21.8980   -7.4990   23.3230 C   0  0  0  0  0  3  0  0  0  0  0  0
  -21.9240   -6.4440   24.2570 C   0  0  0  0  0  3  0  0  0  0  0  0
  -21.9780   -5.1090   23.8110 C   0  0  0  0  0  0  0  0  0  0  0  0
  -22.0100   -4.8280   22.4340 C   0  0  0  0  0  3  0  0  0  0  0  0
  -21.9860   -5.8800   21.5020 C   0  0  0  0  0  0  0  0  0  0  0  0
  -21.9960   -5.6040   20.1750 F   0  0  0  0  0  0  0  0  0  0  0  0
  -21.9920   -4.0930   24.7050 F   0  0  0  0  0  0  0  0  0  0  0  0
  -24.0720  -14.5480   21.0260 C   0  0  0  0  0  0  0  0  0  0  0  0
  -23.5120  -14.1500   22.1610 N   0  0  0  0  0  0  0  0  0  0  0  0
  -23.5960  -15.4750   20.3700 O   0  0  0  0  0  0  0  0  0  0  0  0
  -23.9110  -13.4000   22.7080 H   0  0  0  0  0  0  0  0  0  0  0  0
  -22.6700  -14.6000   22.4870 H   0  0  0  0  0  0  0  0  0  0  0  0
  -26.8780  -15.8220   20.1280 N   0  0  0  0  0  0  0  0  0  0  0  0
  -26.2450  -16.5810   20.3610 H   0  0  0  0  0  0  0  0  0  0  0  0
  -27.7640  -16.1390   19.7560 H   0  0  0  0  0  0  0  0  0  0  0  0
  -30.2540  -19.0880   22.8140 O   0  0  0  0  0  0  0  0  0  0  0  0
  -31.6810  -17.5630   24.0350 C   0  0  0  0  0  1  0  0  0  0  0  0
  -31.5600  -18.9410   23.3650 C   0  0  0  0  0  2  0  0  0  0  0  0
  -29.2260  -20.6030   17.3590 O   0  0  0  0  0  0  0  0  0  0  0  0
  -29.1190  -22.2630   16.9990 C   0  0  0  0  0  2  0  0  0  0  0  0
  -27.9640  -23.7030   17.1290 C   0  0  0  0  0  2  0  0  0  0  0  0
  -28.0740  -25.3830   17.2170 O   0  0  0  0  0  0  0  0  0  0  0  0
  -25.2780  -29.8430   22.7040 C   0  0  0  0  0  0  0  0  0  0  0  0
  -27.0900  -26.4070   17.7310 C   0  0  0  0  0  0  0  0  0  0  0  0
  -23.7540  -29.0230   20.9500 C   0  0  0  0  0  3  0  0  0  0  0  0
  -24.8570  -28.0840   18.8010 C   0  0  0  0  0  0  0  0  0  0  0  0
  -26.2390  -29.4120   20.3800 C   0  0  0  0  0  2  0  0  0  0  0  0
  -26.1560  -28.3110   19.2760 C   0  0  0  0  0  0  0  0  0  0  0  0
  -27.2580  -27.5040   18.7240 C   0  0  0  0  0  3  0  0  0  0  0  0
  -25.7550  -26.3530   17.2680 C   0  0  0  0  0  3  0  0  0  0  0  0
  -24.6820  -27.1360   17.7780 C   0  0  0  0  0  3  0  0  0  0  0  0
  -23.6880  -28.8690   19.4060 C   0  0  0  0  0  2  0  0  0  0  0  0
  -25.1240  -29.4360   21.4000 N   0  0  0  0  0  0  0  0  0  0  0  0
  -24.3240  -29.8670   23.4990 O   0  0  0  0  0  0  0  0  0  0  0  0
  -23.2620  -27.7170   21.6260 C   0  0  0  0  0  0  0  0  0  0  0  0
  -21.9450  -27.4410   21.5710 N   0  0  0  0  0  0  0  0  0  0  0  0
  -24.0690  -26.9610   22.1750 O   0  0  0  0  0  0  0  0  0  0  0  0
  -21.3360  -28.1140   21.1290 H   0  0  0  0  0  0  0  0  0  0  0  0
  -18.9010  -25.4680   21.5100 C   0  0  0  0  0  0  0  0  0  0  0  0
  -21.3020  -26.2310   22.0940 C   0  0  0  0  0  3  0  0  0  0  0  0
  -21.7760  -24.9770   21.3220 C   0  0  0  0  0  2  0  0  0  0  0  0
  -20.8570  -24.6100   20.1510 C   0  0  0  0  0  2  0  0  0  0  0  0
  -19.4370  -24.3330   20.6510 C   0  0  0  0  0  2  0  0  0  0  0  0
  -19.7770  -26.3680   22.1740 C   0  0  0  0  0  0  0  0  0  0  0  0
  -19.2250  -27.4210   22.9330 C   0  0  0  0  0  3  0  0  0  0  0  0
  -17.8300  -27.5850   23.0350 C   0  0  0  0  0  3  0  0  0  0  0  0
  -16.9680  -26.6850   22.3830 C   0  0  0  0  0  3  0  0  0  0  0  0
  -17.5040  -25.6280   21.6270 C   0  0  0  0  0  3  0  0  0  0  0  0
  -26.6600  -30.3060   23.2590 C   0  0  0  0  0  3  0  0  0  0  0  0
  -26.4770  -31.6290   23.8830 N   0  0  0  0  0  0  0  0  0  0  0  0
  -27.0590  -32.7620   23.4690 C   0  0  0  0  0  0  0  0  0  0  0  0
  -27.8650  -32.7930   22.5370 O   0  0  0  0  0  0  0  0  0  0  0  0
  -25.7900  -31.6860   24.6180 H   0  0  0  0  0  0  0  0  0  0  0  0
  -25.7580  -34.9170   23.3210 C   0  0  0  0  0  1  0  0  0  0  0  0
  -26.6920  -34.0710   24.2030 C   0  0  0  0  0  3  0  0  0  0  0  0
  -28.6590  -34.2800   25.6590 C   0  0  0  0  0  1  0  0  0  0  0  0
  -27.8670  -34.8830   24.5900 N   0  0  0  0  0  0  0  0  0  0  0  0
  -27.5830  -35.8110   24.8920 H   0  0  0  0  0  0  0  0  0  0  0  0
  -27.2740  -29.2970   24.3070 C   0  0  1  0  0  0  0  0  0  0  0  0
  -26.3250  -28.9500   25.4800 C   0  0  0  0  0  1  0  0  0  0  0  0
  -27.6770  -27.9700   23.6280 C   0  0  0  0  0  1  0  0  0  0  0  0
  -28.5680  -29.8910   24.9100 C   0  0  0  0  0  1  0  0  0  0  0  0
  1  5  1  0
  2  1  2  0
  3  5  2  0
  4  3  1  0
  5 45  1  0
  6  4  2  0
  6  2  1  0
  7 13  1  0
  8 13  1  0
  9 10  1  0
  9  8  1  0
 11 10  1  0
 11 20  1  0
 11 12  1  0
 13 12  1  0
 14  7  2  0
 15  4  1  0
 15  7  1  0
 16 15  1  0
 17 18  2  0
 18 37  1  0
 19 22  1  0
 19 18  1  0
 20 21  1  0
 20 17  1  0
 21 19  2  0
 22 23  1  0
 23 24  2  0
 25 28  1  0
 25 24  1  0
 26 25  2  0
 27 26  1  0
 27 22  2  0
 28 29  1  0
 29 30  1  0
 30 31  2  0
 32 31  1  0
 32 36  1  0
 33 32  2  0
 34 29  2  0
 34 33  1  0
 35 34  1  0
 37 38  1  0
 38 41  1  0
 38 40  1  0
 39 37  2  0
 42 17  1  0
 42 43  1  0
 44 42  1  0
 45 47  1  0
 47 46  1  0
 48  6  1  0
 49 50  1  0
 49 48  1  0
 50 51  1  0
 51 53  1  0
 52 63  2  0
 53 58  1  0
 54 62  1  0
 54 64  1  0
 55 57  1  0
 55 61  1  0
 56 62  1  0
 57 56  1  0
 58 57  2  0
 59 53  2  0
 59 60  1  0
 60 55  2  0
 61 54  1  0
 62 52  1  0
 64 66  2  0
 65 64  1  0
 67 65  1  0
 68 77  2  0
 68 73  1  0
 69 65  1  0
 69 73  1  0
 70 69  1  0
 71 72  1  0
 71 70  1  0
 72 68  1  0
 73 74  2  0
 74 75  1  0
 76 75  2  0
 77 76  1  0
 78 52  1  0
 78 79  1  0
 78 88  1  0
 79 82  1  0
 80 79  1  0
 80 84  1  0
 81 80  2  0
 84 83  1  0
 84 86  1  0
 86 87  1  0
 86 85  1  0
 88 91  1  1
 88 89  1  0
 90 88  1  0
M  ISO  4   7 100  15 100  50 101  51 101
M  END
>  <TORSDO>  (41) 
F 21

>  <SCORE>  (41) 
-6.844

>  <name>  (41) 
40

>  <ligand_id>  (41) 
40

>  <original_smiles>  (41) 
[H]c1c([H])c([H])c2c(c1[H])C([H])([H])C([H])([H])C([H])([H])C2([H])N([H])C(=O)C1([H])N(C(=O)C([H])(N([H])C(=O)C([H])(N([H])C([H])([H])[H])C([H])([H])[H])C(C([H])([H])[H])(C([H])([H])[H])C([H])([H])[H])C([H])([H])c2c([H])c(OC([H])([H])C([H])([H])Oc3c([H])c([H])c(OC([H])([H])C([H])([H])[H])c([H])c3N([H])C(=O)N3C([H])([H])C([H])([H])C([H])([H])C([H])(n4nc(-c5c([H])c([H])c(Oc6c([H])c([H])c(F)c([H])c6F)c([H])c5[H])c(C(=O)N([H])[H])c4N([H])[H])C3([H])[H])c([H])c([H])c2C1([H])[H]

>  <smiles>  (41) 
[H]c1c([H])c([H])c2c(c1[H])C([H])([H])C([H])([H])C([H])([H])C2([H])N([H])C(=O)C1([H])N(C(=O)C([H])(N([H])C(=O)C([H])(N([H])C([H])([H])[H])C([H])([H])[H])C(C([H])([H])[H])(C([H])([H])[H])C([H])([H])[H])C([H])([H])c2c([H])c(OC([H])([H])C([H])([H])Oc3c([H])c([H])c(OC([H])([H])C([H])([H])[H])c([H])c3N([H])C(=O)N3C([H])([H])C([H])([H])C([H])([H])C([H])(n4nc(-c5c([H])c([H])c(Oc6c([H])c([H])c(F)c([H])c6F)c([H])c5[H])c(C(=O)N([H])[H])c4N([H])[H])C3([H])[H])c([H])c([H])c2C1([H])[H]

$$$$
41:0:0
     RDKit          3D

 93101  0  0  1  0  0  0  0  0999 V2000
  -29.2050  -22.3940   20.1420 C   0  0  0  0  0  0  0  0  0  0  0  0
  -29.1710  -21.2650   19.3620 N   0  0  0  0  0  0  0  0  0  0  0  0
  -29.6370  -22.3450   21.3020 O   0  0  0  0  0  0  0  0  0  0  0  0
  -28.7710  -21.4050   18.4420 H   0  0  0  0  0  0  0  0  0  0  0  0
  -30.7270  -19.3250   19.8980 C   0  0  0  0  0  3  0  0  0  0  0  0
  -30.9490  -17.9200   20.0770 C   0  0  0  0  0  3  0  0  0  0  0  0
  -28.3540  -18.9390   19.7260 C   0  0  0  0  0  3  0  0  0  0  0  0
  -29.4240  -19.8700   19.7160 C   0  0  0  0  0  0  0  0  0  0  0  0
  -29.8650  -16.9980   20.0960 C   0  0  0  0  0  0  0  0  0  0  0  0
  -28.5690  -17.5480   19.9320 C   0  0  0  0  0  0  0  0  0  0  0  0
  -30.6870  -14.5580   19.6930 C   0  0  0  0  0  0  0  0  0  0  0  0
  -30.3360  -12.4110   18.4980 C   0  0  0  0  0  2  0  0  0  0  0  0
  -29.2820  -12.6560   17.3930 C   0  0  0  0  0  2  0  0  0  0  0  0
  -27.8530  -12.5030   17.9510 C   0  0  0  0  0  2  0  0  0  0  0  0
  -27.6450  -13.2770   19.2820 C   0  0  0  0  0  3  0  0  0  0  0  0
  -28.7950  -12.9870   20.2730 C   0  0  0  0  0  2  0  0  0  0  0  0
  -30.0560  -13.3450   19.6010 N   0  0  0  0  0  0  0  0  0  0  0  0
  -31.7990  -14.7480   19.1900 O   0  0  0  0  0  0  0  0  0  0  0  0
  -29.9360  -15.5490   20.2550 N   0  0  0  0  0  0  0  0  0  0  0  0
  -29.1100  -15.1800   20.7030 H   0  0  0  0  0  0  0  0  0  0  0  0
  -25.3050  -13.8800   20.1600 C   0  0  0  0  0  0  0  0  0  0  0  0
  -24.2740  -13.1080   20.6210 C   0  0  0  0  0  0  0  0  0  0  0  0
  -24.7400  -11.7590   20.5760 C   0  0  0  0  0  0  0  0  0  0  0  0
  -26.3380  -13.0010   19.8700 N   0  0  0  0  0  0  0  0  0  0  0  0
  -26.0050  -11.7210   20.1750 N   0  0  0  0  0  0  0  0  0  0  0  0
  -24.0380  -10.4960   20.8390 C   0  0  0  0  0  0  0  0  0  0  0  0
  -24.4750   -9.6060   21.8440 C   0  0  0  0  0  3  0  0  0  0  0  0
  -23.7720   -8.4070   22.0890 C   0  0  0  0  0  3  0  0  0  0  0  0
  -22.6180   -8.0950   21.3330 C   0  0  0  0  0  0  0  0  0  0  0  0
  -22.2010   -8.9750   20.3180 C   0  0  0  0  0  3  0  0  0  0  0  0
  -22.9060  -10.1640   20.0700 C   0  0  0  0  0  3  0  0  0  0  0  0
  -21.8870   -6.9410   21.4830 O   0  0  0  0  0  0  0  0  0  0  0  0
  -21.7490   -6.3310   22.7040 C   0  0  0  0  0  0  0  0  0  0  0  0
  -21.2040   -7.0080   23.8170 C   0  0  0  0  0  3  0  0  0  0  0  0
  -21.0150   -6.3230   25.0340 C   0  0  0  0  0  3  0  0  0  0  0  0
  -21.3630   -4.9620   25.1380 C   0  0  0  0  0  0  0  0  0  0  0  0
  -21.9000   -4.2860   24.0270 C   0  0  0  0  0  3  0  0  0  0  0  0
  -22.0910   -4.9680   22.8140 C   0  0  0  0  0  0  0  0  0  0  0  0
  -22.5900   -4.3070   21.7420 F   0  0  0  0  0  0  0  0  0  0  0  0
  -21.1750   -4.3010   26.3030 F   0  0  0  0  0  0  0  0  0  0  0  0
  -22.9000  -13.5850   20.9950 C   0  0  0  0  0  0  0  0  0  0  0  0
  -22.2600  -12.9180   21.9500 N   0  0  0  0  0  0  0  0  0  0  0  0
  -22.4070  -14.5870   20.4770 O   0  0  0  0  0  0  0  0  0  0  0  0
  -22.6750  -12.1090   22.3860 H   0  0  0  0  0  0  0  0  0  0  0  0
  -21.3430  -13.2210   22.2470 H   0  0  0  0  0  0  0  0  0  0  0  0
  -25.4390  -15.2460   19.9500 N   0  0  0  0  0  0  0  0  0  0  0  0
  -24.6850  -15.8910   20.1530 H   0  0  0  0  0  0  0  0  0  0  0  0
  -26.3170  -15.7190   19.7560 H   0  0  0  0  0  0  0  0  0  0  0  0
  -26.7880  -16.6510   21.1510 C   0  0  0  0  0  1  0  0  0  0  0  0
  -27.5010  -16.6920   19.9210 O   0  0  0  0  0  0  0  0  0  0  0  0
  -28.6750  -23.7750   19.5510 C   0  0  0  0  0  2  0  0  0  0  0  0
  -28.2530  -25.0840   20.3770 C   0  0  0  0  0  2  0  0  0  0  0  0
  -28.4020  -26.4420   19.8100 O   0  0  0  0  0  0  0  0  0  0  0  0
  -24.5060  -31.6470   22.9570 C   0  0  0  0  0  0  0  0  0  0  0  0
  -27.2640  -27.2530   19.8070 C   0  0  0  0  0  0  0  0  0  0  0  0
  -23.3510  -30.2600   21.2700 C   0  0  0  0  0  3  0  0  0  0  0  0
  -24.8540  -28.7790   19.8270 C   0  0  0  0  0  0  0  0  0  0  0  0
  -25.8840  -30.6540   21.1170 C   0  0  0  0  0  2  0  0  0  0  0  0
  -26.0050  -29.2950   20.4380 C   0  0  0  0  0  0  0  0  0  0  0  0
  -27.2150  -28.5410   20.4170 C   0  0  0  0  0  3  0  0  0  0  0  0
  -26.0920  -26.7810   19.1790 C   0  0  0  0  0  3  0  0  0  0  0  0
  -24.8950  -27.5280   19.1910 C   0  0  0  0  0  3  0  0  0  0  0  0
  -23.5970  -29.6210   19.8800 C   0  0  0  0  0  2  0  0  0  0  0  0
  -24.5980  -30.8680   21.8400 N   0  0  0  0  0  0  0  0  0  0  0  0
  -23.4110  -31.8880   23.4870 O   0  0  0  0  0  0  0  0  0  0  0  0
  -22.7070  -29.2030   22.1960 C   0  0  0  0  0  0  0  0  0  0  0  0
  -21.3780  -29.0320   22.0850 N   0  0  0  0  0  0  0  0  0  0  0  0
  -23.3990  -28.5430   22.9740 O   0  0  0  0  0  0  0  0  0  0  0  0
  -20.8790  -29.6210   21.4350 H   0  0  0  0  0  0  0  0  0  0  0  0
  -17.9950  -27.8910   22.6570 C   0  0  0  0  0  0  0  0  0  0  0  0
  -20.5700  -28.0650   22.8290 C   0  0  0  0  0  3  0  0  0  0  0  0
  -20.6060  -26.6730   22.1560 C   0  0  0  0  0  2  0  0  0  0  0  0
  -19.4520  -26.4490   21.1730 C   0  0  0  0  0  2  0  0  0  0  0  0
  -18.1040  -26.5860   21.8890 C   0  0  0  0  0  2  0  0  0  0  0  0
  -19.1540  -28.5920   23.0840 C   0  0  0  0  0  0  0  0  0  0  0  0
  -18.9970  -29.8180   23.7660 C   0  0  0  0  0  3  0  0  0  0  0  0
  -17.7140  -30.3380   24.0260 C   0  0  0  0  0  3  0  0  0  0  0  0
  -16.5710  -29.6300   23.6170 C   0  0  0  0  0  3  0  0  0  0  0  0
  -16.7140  -28.4090   22.9340 C   0  0  0  0  0  3  0  0  0  0  0  0
  -25.7660  -32.2920   23.6110 C   0  0  0  0  0  3  0  0  0  0  0  0
  -26.3310  -31.4620   24.8260 C   0  0  1  0  0  0  0  0  0  0  0  0
  -25.2600  -31.0990   25.8810 C   0  0  0  0  0  1  0  0  0  0  0  0
  -26.9810  -30.1480   24.3350 C   0  0  0  0  0  1  0  0  0  0  0  0
  -27.4490  -32.2650   25.5350 C   0  0  0  0  0  1  0  0  0  0  0  0
  -25.4030  -33.6510   24.0370 N   0  0  0  0  0  0  0  0  0  0  0  0
  -25.6820  -34.7650   23.3460 C   0  0  0  0  0  0  0  0  0  0  0  0
  -26.3430  -34.7570   22.3040 O   0  0  0  0  0  0  0  0  0  0  0  0
  -24.8080  -33.7260   24.8490 H   0  0  0  0  0  0  0  0  0  0  0  0
  -23.8770  -36.5010   23.1250 C   0  0  0  0  0  1  0  0  0  0  0  0
  -25.1420  -36.0970   23.9010 C   0  0  0  0  0  3  0  0  0  0  0  0
  -27.2430  -37.0160   24.7770 C   0  0  0  0  0  1  0  0  0  0  0  0
  -26.1290  -37.1990   23.8510 N   0  0  0  0  0  0  0  0  0  0  0  0
  -25.6850  -38.0870   24.0610 H   0  0  0  0  0  0  0  0  0  0  0  0
  1  3  2  0
  2  8  1  0
  2  1  1  0
  4  2  1  0
  5  6  1  0
  6  9  2  0
  7 10  2  0
  8  7  1  0
  8  5  2  0
  9 19  1  0
 10  9  1  0
 11 19  1  0
 12 17  1  0
 13 14  1  0
 13 12  1  0
 15 14  1  0
 15 24  1  0
 15 16  1  0
 17 11  1  0
 17 16  1  0
 18 11  2  0
 19 20  1  0
 21 22  2  0
 22 41  1  0
 23 22  1  0
 23 26  1  0
 24 21  1  0
 24 25  1  0
 25 23  2  0
 26 27  1  0
 27 28  2  0
 29 32  1  0
 29 28  1  0
 30 29  2  0
 31 30  1  0
 31 26  2  0
 32 33  1  0
 33 38  2  0
 33 34  1  0
 34 35  2  0
 35 36  1  0
 36 40  1  0
 37 36  2  0
 38 37  1  0
 39 38  1  0
 41 42  1  0
 42 45  1  0
 42 44  1  0
 43 41  2  0
 46 47  1  0
 46 21  1  0
 48 46  1  0
 50 10  1  0
 50 49  1  0
 51  1  1  0
 51 52  1  0
 53 52  1  0
 54 65  2  0
 55 53  1  0
 55 60  1  0
 56 64  1  0
 56 66  1  0
 57 63  1  0
 57 59  1  0
 58 64  1  0
 59 58  1  0
 60 59  2  0
 61 62  1  0
 61 55  2  0
 62 57  2  0
 63 56  1  0
 64 54  1  0
 66 68  2  0
 67 66  1  0
 69 67  1  0
 70 79  2  0
 70 75  1  0
 71 67  1  0
 71 75  1  0
 72 71  1  0
 73 74  1  0
 73 72  1  0
 74 70  1  0
 75 76  2  0
 76 77  1  0
 78 77  2  0
 79 78  1  0
 80 54  1  0
 80 85  1  0
 80 81  1  0
 81 84  1  1
 81 82  1  0
 83 81  1  0
 85 88  1  0
 86 90  1  0
 86 85  1  0
 87 86  2  0
 90 89  1  0
 92 90  1  0
 92 93  1  0
 92 91  1  0
M  ISO  4  11 100  19 100  52 101  53 101
M  END
>  <TORSDO>  (42) 
F 20

>  <SCORE>  (42) 
-11.475

>  <name>  (42) 
41

>  <ligand_id>  (42) 
41

>  <original_smiles>  (42) 
[H]c1c([H])c([H])c2c(c1[H])C([H])([H])C([H])([H])C([H])([H])C2([H])N([H])C(=O)C1([H])N(C(=O)C([H])(N([H])C(=O)C([H])(N([H])C([H])([H])[H])C([H])([H])[H])C(C([H])([H])[H])(C([H])([H])[H])C([H])([H])[H])C([H])([H])c2c([H])c(OC([H])([H])C([H])([H])C(=O)N([H])c3c([H])c([H])c(N([H])C(=O)N4C([H])([H])C([H])([H])C([H])([H])C([H])(n5nc(-c6c([H])c([H])c(Oc7c([H])c([H])c(F)c([H])c7F)c([H])c6[H])c(C(=O)N([H])[H])c5N([H])[H])C4([H])[H])c(OC([H])([H])[H])c3[H])c([H])c([H])c2C1([H])[H]

>  <smiles>  (42) 
[H]c1c([H])c([H])c2c(c1[H])C([H])([H])C([H])([H])C([H])([H])C2([H])N([H])C(=O)C1([H])N(C(=O)C([H])(N([H])C(=O)C([H])(N([H])C([H])([H])[H])C([H])([H])[H])C(C([H])([H])[H])(C([H])([H])[H])C([H])([H])[H])C([H])([H])c2c([H])c(OC([H])([H])C([H])([H])C(=O)N([H])c3c([H])c([H])c(N([H])C(=O)N4C([H])([H])C([H])([H])C([H])([H])C([H])(n5nc(-c6c([H])c([H])c(Oc7c([H])c([H])c(F)c([H])c7F)c([H])c6[H])c(C(=O)N([H])[H])c5N([H])[H])C4([H])[H])c(OC([H])([H])[H])c3[H])c([H])c([H])c2C1([H])[H]

$$$$
42:0:0
     RDKit          3D

101109  0  0  1  0  0  0  0  0999 V2000
  -31.8400  -21.8910   23.5980 C   0  0  0  0  0  2  0  0  0  0  0  0
  -30.9610  -20.7370   23.0740 C   0  0  0  0  0  2  0  0  0  0  0  0
  -30.7080  -20.7430   21.5520 C   0  0  0  0  0  2  0  0  0  0  0  0
  -32.8820  -20.5760   20.2500 C   0  0  0  0  0  1  0  0  0  0  0  0
  -31.6890  -19.9460   20.8100 N   0  0  0  0  0  0  0  0  0  0  0  0
  -32.5500  -16.2930   20.5010 C   0  0  0  0  0  3  0  0  0  0  0  0
  -30.3200  -17.9240   21.0010 C   0  0  0  0  0  3  0  0  0  0  0  0
  -31.2790  -15.6990   20.6800 C   0  0  0  0  0  0  0  0  0  0  0  0
  -31.5780  -18.5340   20.7890 C   0  0  0  0  0  0  0  0  0  0  0  0
  -30.1730  -16.5260   20.9440 C   0  0  0  0  0  0  0  0  0  0  0  0
  -32.6990  -17.6940   20.5490 C   0  0  0  0  0  0  0  0  0  0  0  0
  -28.9520  -15.9650   21.1240 F   0  0  0  0  0  0  0  0  0  0  0  0
  -33.9400  -18.2140   20.3770 F   0  0  0  0  0  0  0  0  0  0  0  0
  -31.3160  -13.4310   19.6400 C   0  0  0  0  0  0  0  0  0  0  0  0
  -30.5720  -11.4000   18.4550 C   0  0  0  0  0  2  0  0  0  0  0  0
  -29.5030  -11.7640   17.4050 C   0  0  0  0  0  2  0  0  0  0  0  0
  -28.0970  -11.7890   18.0350 C   0  0  0  0  0  2  0  0  0  0  0  0
  -28.0460  -12.6160   19.3460 C   0  0  0  0  0  3  0  0  0  0  0  0
  -29.2010  -12.2120   20.2900 C   0  0  0  0  0  2  0  0  0  0  0  0
  -30.4760  -12.3650   19.5600 N   0  0  0  0  0  0  0  0  0  0  0  0
  -32.2880  -13.5770   18.8940 O   0  0  0  0  0  0  0  0  0  0  0  0
  -31.0080  -14.3040   20.6080 N   0  0  0  0  0  0  0  0  0  0  0  0
  -30.2610  -14.0030   21.2150 H   0  0  0  0  0  0  0  0  0  0  0  0
  -25.8650  -13.4860   20.4070 C   0  0  0  0  0  0  0  0  0  0  0  0
  -24.7670  -12.8340   20.9030 C   0  0  0  0  0  0  0  0  0  0  0  0
  -25.0400  -11.4400   20.7640 C   0  0  0  0  0  0  0  0  0  0  0  0
  -26.7460  -12.4930   20.0030 N   0  0  0  0  0  0  0  0  0  0  0  0
  -26.2570  -11.2560   20.2700 N   0  0  0  0  0  0  0  0  0  0  0  0
  -24.1900  -10.2690   21.0190 C   0  0  0  0  0  0  0  0  0  0  0  0
  -24.6000   -9.2340   21.8900 C   0  0  0  0  0  3  0  0  0  0  0  0
  -23.7580   -8.1270   22.1320 C   0  0  0  0  0  3  0  0  0  0  0  0
  -22.4920   -8.0480   21.5050 C   0  0  0  0  0  0  0  0  0  0  0  0
  -22.0990   -9.0690   20.6220 C   0  0  0  0  0  3  0  0  0  0  0  0
  -22.9400  -10.1670   20.3770 C   0  0  0  0  0  3  0  0  0  0  0  0
  -21.6180   -6.9990   21.6620 O   0  0  0  0  0  0  0  0  0  0  0  0
  -21.5570   -6.2800   22.8290 C   0  0  0  0  0  0  0  0  0  0  0  0
  -21.2920   -6.8980   24.0700 C   0  0  0  0  0  3  0  0  0  0  0  0
  -21.1680   -6.1130   25.2350 C   0  0  0  0  0  3  0  0  0  0  0  0
  -21.3020   -4.7130   25.1590 C   0  0  0  0  0  0  0  0  0  0  0  0
  -21.5620   -4.0970   23.9220 C   0  0  0  0  0  3  0  0  0  0  0  0
  -21.6860   -4.8790   22.7600 C   0  0  0  0  0  0  0  0  0  0  0  0
  -21.9160   -4.2780   21.5680 F   0  0  0  0  0  0  0  0  0  0  0  0
  -21.1770   -3.9590   26.2750 F   0  0  0  0  0  0  0  0  0  0  0  0
  -23.4950  -13.4670   21.3920 C   0  0  0  0  0  0  0  0  0  0  0  0
  -22.8300  -12.8390   22.3550 N   0  0  0  0  0  0  0  0  0  0  0  0
  -23.1090  -14.5490   20.9520 O   0  0  0  0  0  0  0  0  0  0  0  0
  -23.1580  -11.9620   22.7320 H   0  0  0  0  0  0  0  0  0  0  0  0
  -21.9810  -13.2420   22.7240 H   0  0  0  0  0  0  0  0  0  0  0  0
  -26.1800  -14.8310   20.2490 N   0  0  0  0  0  0  0  0  0  0  0  0
  -25.5380  -15.5740   20.4980 H   0  0  0  0  0  0  0  0  0  0  0  0
  -27.0460  -15.1740   19.8520 H   0  0  0  0  0  0  0  0  0  0  0  0
  -31.0980  -22.9510   24.4360 C   0  0  0  0  0  2  0  0  0  0  0  0
  -29.6020  -24.2360   22.9290 C   0  0  0  0  0  0  0  0  0  0  0  0
  -29.8000  -23.3300   23.8850 N   0  0  0  0  0  0  0  0  0  0  0  0
  -28.3110  -24.4350   22.6730 N   0  0  0  0  0  0  0  0  0  0  0  0
  -30.5090  -24.8260   22.3420 O   0  0  0  0  0  0  0  0  0  0  0  0
  -28.9900  -22.9040   24.3120 H   0  0  0  0  0  0  0  0  0  0  0  0
  -27.6240  -23.9280   23.2130 H   0  0  0  0  0  0  0  0  0  0  0  0
  -27.7970  -25.3300   21.6440 C   0  0  0  0  0  2  0  0  0  0  0  0
  -27.4360  -24.5590   20.3610 C   0  0  0  0  0  2  0  0  0  0  0  0
  -27.1690  -25.4490   19.2870 O   0  0  0  0  0  0  0  0  0  0  0  0
  -24.5230  -30.7960   23.1860 C   0  0  0  0  0  0  0  0  0  0  0  0
  -26.1600  -26.3500   19.5090 C   0  0  0  0  0  0  0  0  0  0  0  0
  -23.0170  -29.8630   21.4580 C   0  0  0  0  0  3  0  0  0  0  0  0
  -24.0960  -28.2430   19.8110 C   0  0  0  0  0  0  0  0  0  0  0  0
  -25.5540  -29.7520   21.1760 C   0  0  0  0  0  2  0  0  0  0  0  0
  -25.3490  -28.4750   20.3930 C   0  0  0  0  0  0  0  0  0  0  0  0
  -26.3890  -27.5360   20.2370 C   0  0  0  0  0  3  0  0  0  0  0  0
  -24.8930  -26.1180   18.9370 C   0  0  0  0  0  3  0  0  0  0  0  0
  -23.8570  -27.0610   19.0870 C   0  0  0  0  0  3  0  0  0  0  0  0
  -23.0500  -29.3170   20.0040 C   0  0  0  0  0  2  0  0  0  0  0  0
  -24.3860  -30.1390   22.0000 N   0  0  0  0  0  0  0  0  0  0  0  0
  -23.5330  -31.2080   23.8070 O   0  0  0  0  0  0  0  0  0  0  0  0
  -22.2000  -28.8830   22.3310 C   0  0  0  0  0  0  0  0  0  0  0  0
  -20.8640  -28.9920   22.2590 N   0  0  0  0  0  0  0  0  0  0  0  0
  -22.7640  -28.0340   23.0260 O   0  0  0  0  0  0  0  0  0  0  0  0
  -20.4830  -29.7200   21.6710 H   0  0  0  0  0  0  0  0  0  0  0  0
  -17.3310  -28.4660   22.8090 C   0  0  0  0  0  0  0  0  0  0  0  0
  -19.8920  -28.1510   22.9590 C   0  0  0  0  0  3  0  0  0  0  0  0
  -19.6700  -26.8160   22.2120 C   0  0  0  0  0  2  0  0  0  0  0  0
  -18.4920  -26.8600   21.2340 C   0  0  0  0  0  2  0  0  0  0  0  0
  -17.1950  -27.2060   21.9710 C   0  0  0  0  0  2  0  0  0  0  0  0
  -18.6010  -28.9190   23.2600 C   0  0  0  0  0  0  0  0  0  0  0  0
  -18.6760  -30.1140   24.0080 C   0  0  0  0  0  3  0  0  0  0  0  0
  -17.5140  -30.8520   24.3050 C   0  0  0  0  0  3  0  0  0  0  0  0
  -16.2600  -30.3920   23.8680 C   0  0  0  0  0  3  0  0  0  0  0  0
  -16.1700  -29.2000   23.1270 C   0  0  0  0  0  3  0  0  0  0  0  0
  -25.9270  -31.0810   23.8080 C   0  0  0  0  0  3  0  0  0  0  0  0
  -25.8760  -32.4160   24.4190 N   0  0  0  0  0  0  0  0  0  0  0  0
  -26.4140  -33.5190   23.8810 C   0  0  0  0  0  0  0  0  0  0  0  0
  -27.0780  -33.5030   22.8400 O   0  0  0  0  0  0  0  0  0  0  0  0
  -25.3050  -32.5130   25.2460 H   0  0  0  0  0  0  0  0  0  0  0  0
  -25.0760  -35.6440   23.9000 C   0  0  0  0  0  1  0  0  0  0  0  0
  -26.1810  -34.8530   24.6160 C   0  0  0  0  0  3  0  0  0  0  0  0
  -28.4040  -35.1180   25.6230 C   0  0  0  0  0  1  0  0  0  0  0  0
  -27.4000  -35.6840   24.7260 N   0  0  0  0  0  0  0  0  0  0  0  0
  -27.1720  -36.6190   25.0550 H   0  0  0  0  0  0  0  0  0  0  0  0
  -26.3680  -29.9990   24.8680 C   0  0  1  0  0  0  0  0  0  0  0  0
  -25.3060  -29.7350   25.9610 C   0  0  0  0  0  1  0  0  0  0  0  0
  -26.6800  -28.6530   24.1730 C   0  0  0  0  0  1  0  0  0  0  0  0
  -27.6720  -30.4520   25.5670 C   0  0  0  0  0  1  0  0  0  0  0  0
  1 52  1  0
  2  1  1  0
  3  2  1  0
  4  5  1  0
  5  3  1  0
  6 11  2  0
  6  8  1  0
  8 10  2  0
  9  5  1  0
  9  7  2  0
 10  7  1  0
 10 12  1  0
 11  9  1  0
 13 11  1  0
 14 22  1  0
 15 20  1  0
 16 17  1  0
 16 15  1  0
 18 17  1  0
 18 27  1  0
 18 19  1  0
 20 14  1  0
 20 19  1  0
 21 14  2  0
 22  8  1  0
 22 23  1  0
 24 25  2  0
 25 44  1  0
 26 25  1  0
 26 29  1  0
 27 28  1  0
 27 24  1  0
 28 26  2  0
 29 30  1  0
 30 31  2  0
 32 35  1  0
 32 31  1  0
 33 32  2  0
 34 33  1  0
 34 29  2  0
 35 36  1  0
 36 37  1  0
 37 38  2  0
 39 38  1  0
 39 43  1  0
 40 39  2  0
 41 36  2  0
 41 40  1  0
 42 41  1  0
 44 45  1  0
 45 48  1  0
 45 47  1  0
 46 44  2  0
 49 24  1  0
 49 50  1  0
 51 49  1  0
 53 54  1  0
 54 57  1  0
 54 52  1  0
 55 53  1  0
 55 58  1  0
 56 53  2  0
 59 55  1  0
 60 59  1  0
 61 63  1  0
 61 60  1  0
 62 73  2  0
 63 68  1  0
 64 72  1  0
 64 74  1  0
 65 71  1  0
 65 67  1  0
 66 72  1  0
 67 66  1  0
 68 67  2  0
 69 70  1  0
 69 63  2  0
 70 65  2  0
 71 64  1  0
 72 62  1  0
 74 76  2  0
 75 74  1  0
 77 75  1  0
 78 87  2  0
 78 83  1  0
 79 75  1  0
 79 83  1  0
 80 79  1  0
 81 82  1  0
 81 80  1  0
 82 78  1  0
 83 84  2  0
 84 85  1  0
 86 85  2  0
 87 86  1  0
 88 62  1  0
 88 89  1  0
 88 98  1  0
 89 92  1  0
 90 89  1  0
 90 94  1  0
 91 90  2  0
 94 93  1  0
 94 96  1  0
 96 97  1  0
 96 95  1  0
 98101  1  1
 98 99  1  0
100 98  1  0
M  ISO  4  14 100  22 100  60 101  61 101
M  END
>  <TORSDO>  (43) 
F 24

>  <SCORE>  (43) 
-8.567

>  <name>  (43) 
42

>  <ligand_id>  (43) 
42

>  <original_smiles>  (43) 
[H]c1c([H])c([H])c2c(c1[H])C([H])([H])C([H])([H])C([H])([H])C2([H])N([H])C(=O)C1([H])N(C(=O)C([H])(N([H])C(=O)C([H])(N([H])C([H])([H])[H])C([H])([H])[H])C(C([H])([H])[H])(C([H])([H])[H])C([H])([H])[H])C([H])([H])c2c([H])c(OC([H])([H])C([H])([H])N([H])C(=O)N([H])C([H])([H])C([H])([H])C([H])([H])C([H])([H])N(c3c([H])c(F)c(N([H])C(=O)N4C([H])([H])C([H])([H])C([H])([H])C([H])(n5nc(-c6c([H])c([H])c(Oc7c([H])c([H])c(F)c([H])c7F)c([H])c6[H])c(C(=O)N([H])[H])c5N([H])[H])C4([H])[H])c([H])c3F)C([H])([H])[H])c([H])c([H])c2C1([H])[H]

>  <smiles>  (43) 
[H]c1c([H])c([H])c2c(c1[H])C([H])([H])C([H])([H])C([H])([H])C2([H])N([H])C(=O)C1([H])N(C(=O)C([H])(N([H])C(=O)C([H])(N([H])C([H])([H])[H])C([H])([H])[H])C(C([H])([H])[H])(C([H])([H])[H])C([H])([H])[H])C([H])([H])c2c([H])c(OC([H])([H])C([H])([H])N([H])C(=O)N([H])C([H])([H])C([H])([H])C([H])([H])C([H])([H])N(c3c([H])c(F)c(N([H])C(=O)N4C([H])([H])C([H])([H])C([H])([H])C([H])(n5nc(-c6c([H])c([H])c(Oc7c([H])c([H])c(F)c([H])c7F)c([H])c6[H])c(C(=O)N([H])[H])c5N([H])[H])C4([H])[H])c([H])c3F)C([H])([H])[H])c([H])c([H])c2C1([H])[H]

$$$$
43:0:0
     RDKit          3D

 92100  0  0  1  0  0  0  0  0999 V2000
  -30.7120  -18.5430   20.3690 C   0  0  0  0  0  3  0  0  0  0  0  0
  -30.4470  -19.9870   20.3790 C   0  0  0  0  0  3  0  0  0  0  0  0
  -28.4310  -18.1610   19.9380 C   0  0  0  0  0  3  0  0  0  0  0  0
  -29.6990  -17.5370   20.1680 C   0  0  0  0  0  0  0  0  0  0  0  0
  -29.1490  -20.5980   20.2020 C   0  0  0  0  0  0  0  0  0  0  0  0
  -28.1480  -19.5930   19.9580 C   0  0  0  0  0  0  0  0  0  0  0  0
  -30.5900  -14.8950   19.9090 C   0  0  0  0  0  0  0  0  0  0  0  0
  -30.4010  -12.5590   18.9290 C   0  0  0  0  0  2  0  0  0  0  0  0
  -29.3820  -12.5720   17.7650 C   0  0  0  0  0  2  0  0  0  0  0  0
  -27.9450  -12.3740   18.2900 C   0  0  0  0  0  2  0  0  0  0  0  0
  -27.6350  -13.2750   19.5130 C   0  0  0  0  0  3  0  0  0  0  0  0
  -28.7650  -13.2240   20.5640 C   0  0  0  0  0  2  0  0  0  0  0  0
  -30.0110  -13.6280   19.8890 N   0  0  0  0  0  0  0  0  0  0  0  0
  -31.7600  -15.0040   19.5210 O   0  0  0  0  0  0  0  0  0  0  0  0
  -29.7510  -15.9990   20.1940 N   0  0  0  0  0  0  0  0  0  0  0  0
  -28.8510  -15.6210   20.4430 H   0  0  0  0  0  0  0  0  0  0  0  0
  -25.3220  -13.8850   20.4330 C   0  0  0  0  0  0  0  0  0  0  0  0
  -24.2680  -13.1210   20.8580 C   0  0  0  0  0  0  0  0  0  0  0  0
  -24.6940  -11.7610   20.7440 C   0  0  0  0  0  0  0  0  0  0  0  0
  -26.3230  -12.9920   20.0900 N   0  0  0  0  0  0  0  0  0  0  0  0
  -25.9580  -11.7070   20.3380 N   0  0  0  0  0  0  0  0  0  0  0  0
  -23.9510  -10.5110   20.9430 C   0  0  0  0  0  0  0  0  0  0  0  0
  -24.3980   -9.5190   21.8430 C   0  0  0  0  0  3  0  0  0  0  0  0
  -23.6550   -8.3340   22.0340 C   0  0  0  0  0  3  0  0  0  0  0  0
  -22.4480   -8.1320   21.3230 C   0  0  0  0  0  0  0  0  0  0  0  0
  -22.0170   -9.1120   20.4110 C   0  0  0  0  0  3  0  0  0  0  0  0
  -22.7610  -10.2880   20.2200 C   0  0  0  0  0  3  0  0  0  0  0  0
  -21.6760   -6.9990   21.4220 O   0  0  0  0  0  0  0  0  0  0  0  0
  -21.6130   -6.2700   22.5820 C   0  0  0  0  0  0  0  0  0  0  0  0
  -21.2010   -6.8480   23.8030 C   0  0  0  0  0  3  0  0  0  0  0  0
  -21.0830   -6.0470   24.9560 C   0  0  0  0  0  3  0  0  0  0  0  0
  -21.3660   -4.6690   24.8900 C   0  0  0  0  0  0  0  0  0  0  0  0
  -21.7730   -4.0930   23.6750 C   0  0  0  0  0  3  0  0  0  0  0  0
  -21.8930   -4.8910   22.5230 C   0  0  0  0  0  0  0  0  0  0  0  0
  -22.2630   -4.3240   21.3480 F   0  0  0  0  0  0  0  0  0  0  0  0
  -21.2450   -3.8980   25.9960 F   0  0  0  0  0  0  0  0  0  0  0  0
  -22.9060  -13.6200   21.2440 C   0  0  0  0  0  0  0  0  0  0  0  0
  -22.2320  -12.9230   22.1510 N   0  0  0  0  0  0  0  0  0  0  0  0
  -22.4510  -14.6640   20.7770 O   0  0  0  0  0  0  0  0  0  0  0  0
  -22.6120  -12.0790   22.5520 H   0  0  0  0  0  0  0  0  0  0  0  0
  -21.3230  -13.2420   22.4530 H   0  0  0  0  0  0  0  0  0  0  0  0
  -25.4990  -15.2580   20.2790 N   0  0  0  0  0  0  0  0  0  0  0  0
  -24.7220  -15.8940   20.4190 H   0  0  0  0  0  0  0  0  0  0  0  0
  -26.2390  -15.6540   19.7170 H   0  0  0  0  0  0  0  0  0  0  0  0
  -28.8410  -23.2970   19.7420 C   0  0  0  0  0  0  0  0  0  0  0  0
  -28.0810  -22.2230   21.7790 C   0  0  0  0  0  1  0  0  0  0  0  0
  -28.7520  -22.0700   20.4810 N   0  0  0  0  0  0  0  0  0  0  0  0
  -29.5070  -23.3330   18.7040 O   0  0  0  0  0  0  0  0  0  0  0  0
  -28.0720  -24.7110   20.2020 C   0  0  0  0  0  2  0  0  0  0  0  0
  -28.2160  -26.0990   19.5170 O   0  0  0  0  0  0  0  0  0  0  0  0
  -24.6220  -31.5900   22.9090 C   0  0  0  0  0  0  0  0  0  0  0  0
  -27.1480  -27.0650   19.5830 C   0  0  0  0  0  0  0  0  0  0  0  0
  -23.3830  -30.2780   21.2260 C   0  0  0  0  0  3  0  0  0  0  0  0
  -24.8040  -28.7850   19.6920 C   0  0  0  0  0  0  0  0  0  0  0  0
  -25.9300  -30.5710   21.0100 C   0  0  0  0  0  2  0  0  0  0  0  0
  -25.9970  -29.2150   20.2880 C   0  0  0  0  0  0  0  0  0  0  0  0
  -27.1730  -28.3750   20.2090 C   0  0  0  0  0  3  0  0  0  0  0  0
  -25.9250  -26.7290   18.9630 C   0  0  0  0  0  3  0  0  0  0  0  0
  -24.7790  -27.5540   19.0170 C   0  0  0  0  0  3  0  0  0  0  0  0
  -23.5760  -29.6750   19.8080 C   0  0  0  0  0  2  0  0  0  0  0  0
  -24.6650  -30.8310   21.7710 N   0  0  0  0  0  0  0  0  0  0  0  0
  -23.5490  -31.8430   23.4780 O   0  0  0  0  0  0  0  0  0  0  0  0
  -22.7320  -29.2180   22.1510 C   0  0  0  0  0  0  0  0  0  0  0  0
  -21.3980  -29.0710   22.0710 N   0  0  0  0  0  0  0  0  0  0  0  0
  -23.4290  -28.5360   22.9070 O   0  0  0  0  0  0  0  0  0  0  0  0
  -20.8900  -29.6700   21.4350 H   0  0  0  0  0  0  0  0  0  0  0  0
  -18.0240  -27.8990   22.6620 C   0  0  0  0  0  0  0  0  0  0  0  0
  -20.5970  -28.0980   22.8170 C   0  0  0  0  0  3  0  0  0  0  0  0
  -20.6400  -26.7060   22.1430 C   0  0  0  0  0  2  0  0  0  0  0  0
  -19.4840  -26.4740   21.1640 C   0  0  0  0  0  2  0  0  0  0  0  0
  -18.1390  -26.5970   21.8870 C   0  0  0  0  0  2  0  0  0  0  0  0
  -19.1770  -28.6100   23.0880 C   0  0  0  0  0  0  0  0  0  0  0  0
  -19.0130  -29.8280   23.7820 C   0  0  0  0  0  3  0  0  0  0  0  0
  -17.7290  -30.3360   24.0490 C   0  0  0  0  0  3  0  0  0  0  0  0
  -16.5900  -29.6220   23.6370 C   0  0  0  0  0  3  0  0  0  0  0  0
  -16.7380  -28.4040   22.9500 C   0  0  0  0  0  3  0  0  0  0  0  0
  -25.9140  -32.1970   23.5350 C   0  0  0  0  0  3  0  0  0  0  0  0
  -26.4930  -31.3290   24.7200 C   0  0  1  0  0  0  0  0  0  0  0  0
  -25.4530  -31.0010   25.8170 C   0  0  0  0  0  1  0  0  0  0  0  0
  -27.0640  -29.9900   24.1980 C   0  0  0  0  0  1  0  0  0  0  0  0
  -27.6680  -32.0810   25.3940 C   0  0  0  0  0  1  0  0  0  0  0  0
  -25.5930  -33.5540   24.0040 N   0  0  0  0  0  0  0  0  0  0  0  0
  -25.8830  -34.6810   23.3390 C   0  0  0  0  0  0  0  0  0  0  0  0
  -26.5180  -34.6860   22.2800 O   0  0  0  0  0  0  0  0  0  0  0  0
  -25.0230  -33.6210   24.8350 H   0  0  0  0  0  0  0  0  0  0  0  0
  -24.1170  -36.4700   23.2190 C   0  0  0  0  0  1  0  0  0  0  0  0
  -25.3930  -36.0120   23.9430 C   0  0  0  0  0  3  0  0  0  0  0  0
  -27.5470  -36.8540   24.7730 C   0  0  0  0  0  1  0  0  0  0  0  0
  -26.4050  -37.0900   23.8940 N   0  0  0  0  0  0  0  0  0  0  0  0
  -25.9910  -37.9820   24.1470 H   0  0  0  0  0  0  0  0  0  0  0  0
  -25.8470  -19.2220   19.2630 C   0  0  0  0  0  1  0  0  0  0  0  0
  -26.8650  -20.0790   19.7770 O   0  0  0  0  0  0  0  0  0  0  0  0
  1  2  1  0
  3  6  2  0
  3  4  1  0
  4 15  1  0
  4  1  2  0
  5  2  2  0
  5 47  1  0
  6  5  1  0
  7 15  1  0
  8 13  1  0
  9 10  1  0
  9  8  1  0
 11 10  1  0
 11 20  1  0
 11 12  1  0
 13  7  1  0
 13 12  1  0
 14  7  2  0
 15 16  1  0
 17 18  2  0
 18 37  1  0
 19 18  1  0
 19 22  1  0
 20 21  1  0
 20 17  1  0
 21 19  2  0
 22 23  1  0
 23 24  2  0
 25 28  1  0
 25 24  1  0
 26 25  2  0
 27 26  1  0
 27 22  2  0
 28 29  1  0
 29 30  1  0
 30 31  2  0
 32 31  1  0
 32 36  1  0
 33 32  2  0
 34 29  2  0
 34 33  1  0
 35 34  1  0
 37 38  1  0
 38 41  1  0
 38 40  1  0
 39 37  2  0
 42 43  1  0
 42 17  1  0
 44 42  1  0
 45 49  1  0
 45 47  1  0
 47 46  1  0
 48 45  2  0
 50 52  1  0
 50 49  1  0
 51 62  2  0
 52 57  1  0
 53 61  1  0
 53 63  1  0
 54 60  1  0
 54 56  1  0
 55 61  1  0
 56 55  1  0
 57 56  2  0
 58 59  1  0
 58 52  2  0
 59 54  2  0
 60 53  1  0
 61 51  1  0
 63 65  2  0
 64 63  1  0
 66 64  1  0
 67 76  2  0
 67 72  1  0
 68 64  1  0
 68 72  1  0
 69 68  1  0
 70 71  1  0
 70 69  1  0
 71 67  1  0
 72 73  2  0
 73 74  1  0
 75 74  2  0
 76 75  1  0
 77 51  1  0
 77 82  1  0
 77 78  1  0
 78 81  1  1
 78 79  1  0
 80 78  1  0
 82 85  1  0
 83 87  1  0
 83 82  1  0
 84 83  2  0
 87 86  1  0
 89 87  1  0
 89 90  1  0
 89 88  1  0
 91 92  1  0
 92  6  1  0
M  ISO  4   7 100  15 100  49 101  50 101
M  END
>  <TORSDO>  (44) 
F 19

>  <SCORE>  (44) 
-12.690

>  <name>  (44) 
43

>  <ligand_id>  (44) 
43

>  <original_smiles>  (44) 
[H]c1c([H])c([H])c2c(c1[H])C([H])([H])C([H])([H])C([H])([H])C2([H])N([H])C(=O)C1([H])N(C(=O)C([H])(N([H])C(=O)C([H])(N([H])C([H])([H])[H])C([H])([H])[H])C(C([H])([H])[H])(C([H])([H])[H])C([H])([H])[H])C([H])([H])c2c([H])c(OC([H])([H])C(=O)N(c3c([H])c([H])c(N([H])C(=O)N4C([H])([H])C([H])([H])C([H])([H])C([H])(n5nc(-c6c([H])c([H])c(Oc7c([H])c([H])c(F)c([H])c7F)c([H])c6[H])c(C(=O)N([H])[H])c5N([H])[H])C4([H])[H])c([H])c3OC([H])([H])[H])C([H])([H])[H])c([H])c([H])c2C1([H])[H]

>  <smiles>  (44) 
[H]c1c([H])c([H])c2c(c1[H])C([H])([H])C([H])([H])C([H])([H])C2([H])N([H])C(=O)C1([H])N(C(=O)C([H])(N([H])C(=O)C([H])(N([H])C([H])([H])[H])C([H])([H])[H])C(C([H])([H])[H])(C([H])([H])[H])C([H])([H])[H])C([H])([H])c2c([H])c(OC([H])([H])C(=O)N(c3c([H])c([H])c(N([H])C(=O)N4C([H])([H])C([H])([H])C([H])([H])C([H])(n5nc(-c6c([H])c([H])c(Oc7c([H])c([H])c(F)c([H])c7F)c([H])c6[H])c(C(=O)N([H])[H])c5N([H])[H])C4([H])[H])c([H])c3OC([H])([H])[H])C([H])([H])[H])c([H])c([H])c2C1([H])[H]

$$$$
44:0:0
     RDKit          3D

 95103  0  0  1  0  0  0  0  0999 V2000
  -29.5780  -19.1320   20.8060 C   0  0  0  0  0  3  0  0  0  0  0  0
  -29.7030  -20.5350   20.8040 C   0  0  0  0  0  3  0  0  0  0  0  0
  -27.9090  -20.6890   19.1820 C   0  0  0  0  0  3  0  0  0  0  0  0
  -28.5810  -18.4830   20.0380 C   0  0  0  0  0  0  0  0  0  0  0  0
  -28.8580  -21.3340   20.0130 C   0  0  0  0  0  0  0  0  0  0  0  0
  -27.7640  -19.2890   19.2000 C   0  0  0  0  0  0  0  0  0  0  0  0
  -26.8320  -18.7280   18.3900 F   0  0  0  0  0  0  0  0  0  0  0  0
  -27.0640  -16.5440   20.3260 C   0  0  0  0  0  1  0  0  0  0  0  0
  -28.4060  -17.0790   20.1140 N   0  0  0  0  0  0  0  0  0  0  0  0
  -29.5570  -16.1890   20.2420 C   0  0  0  0  0  2  0  0  0  0  0  0
  -30.3940  -16.4520   21.5150 C   0  0  0  0  0  2  0  0  0  0  0  0
  -31.4490  -15.3710   21.8260 C   0  0  0  0  0  2  0  0  0  0  0  0
  -32.3900  -13.4660   20.4960 C   0  0  0  0  0  0  0  0  0  0  0  0
  -32.1000  -11.0340   20.7610 C   0  0  0  0  0  2  0  0  0  0  0  0
  -31.4220  -10.3950   19.5340 C   0  0  0  0  0  2  0  0  0  0  0  0
  -29.8900  -10.4350   19.6860 C   0  0  0  0  0  2  0  0  0  0  0  0
  -29.3770  -11.8510   20.0460 C   0  0  0  0  0  3  0  0  0  0  0  0
  -30.1770  -12.4470   21.2190 C   0  0  0  0  0  2  0  0  0  0  0  0
  -31.6190  -12.4190   20.8990 N   0  0  0  0  0  0  0  0  0  0  0  0
  -33.4900  -13.3230   19.9600 O   0  0  0  0  0  0  0  0  0  0  0  0
  -31.8930  -14.7040   20.6000 N   0  0  0  0  0  0  0  0  0  0  0  0
  -32.3910  -15.3310   19.9860 H   0  0  0  0  0  0  0  0  0  0  0  0
  -27.0310  -12.8890   20.2870 C   0  0  0  0  0  0  0  0  0  0  0  0
  -25.8110  -12.3380   20.5780 C   0  0  0  0  0  0  0  0  0  0  0  0
  -26.0490  -10.9450   20.7880 C   0  0  0  0  0  0  0  0  0  0  0  0
  -27.9430  -11.8450   20.3330 N   0  0  0  0  0  0  0  0  0  0  0  0
  -27.3450  -10.6790   20.6920 N   0  0  0  0  0  0  0  0  0  0  0  0
  -25.1090   -9.8400   21.0180 C   0  0  0  0  0  0  0  0  0  0  0  0
  -25.2000   -9.0190   22.1650 C   0  0  0  0  0  3  0  0  0  0  0  0
  -24.2760   -7.9730   22.3730 C   0  0  0  0  0  3  0  0  0  0  0  0
  -23.2450   -7.7400   21.4330 C   0  0  0  0  0  0  0  0  0  0  0  0
  -23.1710   -8.5460   20.2830 C   0  0  0  0  0  3  0  0  0  0  0  0
  -24.0960   -9.5830   20.0740 C   0  0  0  0  0  3  0  0  0  0  0  0
  -22.3170   -6.7310   21.5380 O   0  0  0  0  0  0  0  0  0  0  0  0
  -21.8690   -6.2910   22.7570 C   0  0  0  0  0  0  0  0  0  0  0  0
  -21.2460   -7.1610   23.6790 C   0  0  0  0  0  3  0  0  0  0  0  0
  -20.7370   -6.6530   24.8920 C   0  0  0  0  0  3  0  0  0  0  0  0
  -20.8430   -5.2790   25.1800 C   0  0  0  0  0  0  0  0  0  0  0  0
  -21.4570   -4.4110   24.2600 C   0  0  0  0  0  3  0  0  0  0  0  0
  -21.9670   -4.9160   23.0510 C   0  0  0  0  0  0  0  0  0  0  0  0
  -22.5410   -4.0740   22.1580 F   0  0  0  0  0  0  0  0  0  0  0  0
  -20.3470   -4.7880   26.3400 F   0  0  0  0  0  0  0  0  0  0  0  0
  -24.4840  -13.0410   20.5660 C   0  0  0  0  0  0  0  0  0  0  0  0
  -23.5490  -12.5990   21.4010 N   0  0  0  0  0  0  0  0  0  0  0  0
  -24.2840  -14.0180   19.8450 O   0  0  0  0  0  0  0  0  0  0  0  0
  -23.7220  -11.8110   22.0070 H   0  0  0  0  0  0  0  0  0  0  0  0
  -22.6520  -13.0620   21.4410 H   0  0  0  0  0  0  0  0  0  0  0  0
  -27.4360  -14.1800   19.9650 N   0  0  0  0  0  0  0  0  0  0  0  0
  -26.7840  -14.9530   19.9000 H   0  0  0  0  0  0  0  0  0  0  0  0
  -28.3900  -14.4470   19.7580 H   0  0  0  0  0  0  0  0  0  0  0  0
  -29.0080  -22.7010   20.1140 O   0  0  0  0  0  0  0  0  0  0  0  0
  -27.8790  -23.5170   19.8210 C   0  0  0  0  0  2  0  0  0  0  0  0
  -28.1560  -24.9850   20.1720 C   0  0  0  0  0  2  0  0  0  0  0  0
  -29.1070  -25.7050   19.1930 C   0  0  0  0  0  2  0  0  0  0  0  0
  -29.1560  -27.1100   19.4690 O   0  0  0  0  0  0  0  0  0  0  0  0
  -25.0970  -31.3440   23.4700 C   0  0  0  0  0  0  0  0  0  0  0  0
  -27.9490  -27.7680   19.5720 C   0  0  0  0  0  0  0  0  0  0  0  0
  -23.9680  -30.2880   21.5370 C   0  0  0  0  0  3  0  0  0  0  0  0
  -25.4980  -29.1440   19.8530 C   0  0  0  0  0  0  0  0  0  0  0  0
  -26.4800  -30.7660   21.4820 C   0  0  0  0  0  2  0  0  0  0  0  0
  -26.6260  -29.5710   20.5650 C   0  0  0  0  0  0  0  0  0  0  0  0
  -27.8560  -28.8920   20.4190 C   0  0  0  0  0  3  0  0  0  0  0  0
  -26.8010  -27.3540   18.8560 C   0  0  0  0  0  3  0  0  0  0  0  0
  -25.5790  -28.0340   18.9970 C   0  0  0  0  0  3  0  0  0  0  0  0
  -24.2240  -29.9300   20.0500 C   0  0  0  0  0  2  0  0  0  0  0  0
  -25.1980  -30.8000   22.2240 N   0  0  0  0  0  0  0  0  0  0  0  0
  -23.9980  -31.4590   24.0300 O   0  0  0  0  0  0  0  0  0  0  0  0
  -23.3400  -29.0640   22.2410 C   0  0  0  0  0  0  0  0  0  0  0  0
  -22.0360  -28.8460   22.0070 N   0  0  0  0  0  0  0  0  0  0  0  0
  -24.0240  -28.3230   22.9500 O   0  0  0  0  0  0  0  0  0  0  0  0
  -21.5440  -29.5020   21.4170 H   0  0  0  0  0  0  0  0  0  0  0  0
  -18.7250  -27.4030   22.0570 C   0  0  0  0  0  0  0  0  0  0  0  0
  -21.2420  -27.7360   22.5340 C   0  0  0  0  0  3  0  0  0  0  0  0
  -21.4650  -26.4510   21.7040 C   0  0  0  0  0  2  0  0  0  0  0  0
  -20.4400  -26.2730   20.5790 C   0  0  0  0  0  2  0  0  0  0  0  0
  -19.0190  -26.2200   21.1500 C   0  0  0  0  0  2  0  0  0  0  0  0
  -19.7690  -28.1240   22.6940 C   0  0  0  0  0  0  0  0  0  0  0  0
  -19.4420  -29.2370   23.4990 C   0  0  0  0  0  3  0  0  0  0  0  0
  -18.1010  -29.6310   23.6730 C   0  0  0  0  0  3  0  0  0  0  0  0
  -17.0710  -28.9040   23.0530 C   0  0  0  0  0  3  0  0  0  0  0  0
  -17.3830  -27.7910   22.2510 C   0  0  0  0  0  3  0  0  0  0  0  0
  -26.3500  -31.8660   24.2390 C   0  0  0  0  0  3  0  0  0  0  0  0
  -26.0280  -33.2040   24.7490 N   0  0  0  0  0  0  0  0  0  0  0  0
  -26.4230  -34.3500   24.1760 C   0  0  0  0  0  0  0  0  0  0  0  0
  -27.1670  -34.3860   23.1920 O   0  0  0  0  0  0  0  0  0  0  0  0
  -25.3790  -33.2500   25.5190 H   0  0  0  0  0  0  0  0  0  0  0  0
  -24.7350  -36.2020   23.9620 C   0  0  0  0  0  1  0  0  0  0  0  0
  -25.9110  -35.6640   24.7950 C   0  0  0  0  0  3  0  0  0  0  0  0
  -27.9870  -36.3790   25.8910 C   0  0  0  0  0  1  0  0  0  0  0  0
  -26.9550  -36.7050   24.9110 N   0  0  0  0  0  0  0  0  0  0  0  0
  -26.5460  -37.5970   25.1690 H   0  0  0  0  0  0  0  0  0  0  0  0
  -26.8010  -30.9130   25.4120 C   0  0  1  0  0  0  0  0  0  0  0  0
  -25.6530  -30.5240   26.3730 C   0  0  0  0  0  1  0  0  0  0  0  0
  -27.4110  -29.6060   24.8530 C   0  0  0  0  0  1  0  0  0  0  0  0
  -27.9120  -31.5960   26.2460 C   0  0  0  0  0  1  0  0  0  0  0  0
  2  1  1  0
  3  6  2  0
  3  5  1  0
  4  9  1  0
  4  1  2  0
  5 51  1  0
  5  2  2  0
  6  4  1  0
  7  6  1  0
  9 10  1  0
  9  8  1  0
 10 11  1  0
 11 12  1  0
 13 21  1  0
 13 19  1  0
 14 19  1  0
 15 16  1  0
 15 14  1  0
 17 16  1  0
 17 26  1  0
 17 18  1  0
 19 18  1  0
 20 13  2  0
 21 12  1  0
 22 21  1  0
 23 26  1  0
 23 24  2  0
 24 25  1  0
 25 28  1  0
 26 27  1  0
 27 25  2  0
 28 29  1  0
 29 30  2  0
 31 34  1  0
 31 30  1  0
 32 31  2  0
 33 32  1  0
 33 28  2  0
 34 35  1  0
 35 40  2  0
 35 36  1  0
 36 37  2  0
 37 38  1  0
 38 42  1  0
 39 38  2  0
 40 39  1  0
 41 40  1  0
 43 24  1  0
 43 44  1  0
 44 47  1  0
 44 46  1  0
 45 43  2  0
 48 23  1  0
 49 48  1  0
 50 48  1  0
 52 51  1  0
 52 53  1  0
 54 55  1  0
 54 53  1  0
 55 57  1  0
 56 67  2  0
 57 62  1  0
 58 66  1  0
 58 68  1  0
 59 65  1  0
 59 61  1  0
 60 66  1  0
 61 60  1  0
 62 61  2  0
 63 64  1  0
 63 57  2  0
 64 59  2  0
 65 58  1  0
 66 56  1  0
 68 70  2  0
 69 68  1  0
 71 69  1  0
 72 81  2  0
 72 77  1  0
 73 69  1  0
 73 77  1  0
 74 73  1  0
 75 76  1  0
 75 74  1  0
 76 72  1  0
 77 78  2  0
 78 79  1  0
 80 79  2  0
 81 80  1  0
 82 56  1  0
 82 83  1  0
 82 92  1  0
 83 86  1  0
 84 83  1  0
 84 88  1  0
 85 84  2  0
 88 87  1  0
 88 90  1  0
 90 91  1  0
 90 89  1  0
 92 95  1  1
 92 93  1  0
 94 92  1  0
M  ISO  4  13 100  21 100  54 101  55 101
M  END
>  <TORSDO>  (45) 
F 24

>  <SCORE>  (45) 
-8.145

>  <name>  (45) 
44

>  <ligand_id>  (45) 
44

>  <original_smiles>  (45) 
[H]c1c([H])c([H])c2c(c1[H])C([H])([H])C([H])([H])C([H])([H])C2([H])N([H])C(=O)C1([H])N(C(=O)C([H])(N([H])C(=O)C([H])(N([H])C([H])([H])[H])C([H])([H])[H])C(C([H])([H])[H])(C([H])([H])[H])C([H])([H])[H])C([H])([H])c2c([H])c(OC([H])([H])C([H])([H])C([H])([H])Oc3c([H])c([H])c(N(C([H])([H])[H])C([H])([H])C([H])([H])C([H])([H])N([H])C(=O)N4C([H])([H])C([H])([H])C([H])([H])C([H])(n5nc(-c6c([H])c([H])c(Oc7c([H])c([H])c(F)c([H])c7F)c([H])c6[H])c(C(=O)N([H])[H])c5N([H])[H])C4([H])[H])c(F)c3[H])c([H])c([H])c2C1([H])[H]

>  <smiles>  (45) 
[H]c1c([H])c([H])c2c(c1[H])C([H])([H])C([H])([H])C([H])([H])C2([H])N([H])C(=O)C1([H])N(C(=O)C([H])(N([H])C(=O)C([H])(N([H])C([H])([H])[H])C([H])([H])[H])C(C([H])([H])[H])(C([H])([H])[H])C([H])([H])[H])C([H])([H])c2c([H])c(OC([H])([H])C([H])([H])C([H])([H])Oc3c([H])c([H])c(N(C([H])([H])[H])C([H])([H])C([H])([H])C([H])([H])N([H])C(=O)N4C([H])([H])C([H])([H])C([H])([H])C([H])(n5nc(-c6c([H])c([H])c(Oc7c([H])c([H])c(F)c([H])c7F)c([H])c6[H])c(C(=O)N([H])[H])c5N([H])[H])C4([H])[H])c(F)c3[H])c([H])c([H])c2C1([H])[H]

$$$$
45:0:0
     RDKit          3D

103112  0  0  1  0  0  0  0  0999 V2000
  -27.5840  -22.7240   20.5360 C   0  0  0  0  0  3  0  0  0  0  0  0
  -23.9090  -22.8580   19.6360 C   0  0  0  0  0  2  0  0  0  0  0  0
  -25.3150  -22.3760   19.2880 C   0  0  0  0  0  2  0  0  0  0  0  0
  -24.1660  -23.8640   20.7580 C   0  0  0  0  0  2  0  0  0  0  0  0
  -26.0670  -22.3990   20.6360 C   0  0  0  0  0  3  0  0  0  0  0  0
  -25.3350  -23.3530   21.4990 N   0  0  0  0  0  4  0  0  0  0  0  0
  -25.0250  -22.8680   22.3270 H   0  0  0  0  0  0  0  0  0  0  0  0
  -25.9470  -24.1080   21.7850 H   0  0  0  0  0  0  0  0  0  0  0  0
  -28.2240  -25.1310   20.3080 C   0  0  0  0  0  0  0  0  0  0  0  0
  -27.8540  -23.9560   19.7920 N   0  0  0  0  0  0  0  0  0  0  0  0
  -28.1850  -25.3270   21.5260 O   0  0  0  0  0  0  0  0  0  0  0  0
  -27.8820  -23.8400   18.7860 H   0  0  0  0  0  0  0  0  0  0  0  0
  -28.6590  -26.2310   19.3190 C   0  0  0  0  0  2  0  0  0  0  0  0
  -28.6090  -27.5360   19.9110 O   0  0  0  0  0  0  0  0  0  0  0  0
  -24.8150  -32.1080   23.7770 C   0  0  0  0  0  0  0  0  0  0  0  0
  -27.3940  -28.1790   20.0340 C   0  0  0  0  0  0  0  0  0  0  0  0
  -23.5470  -30.8480   22.0680 C   0  0  0  0  0  3  0  0  0  0  0  0
  -24.9500  -29.5570   20.3780 C   0  0  0  0  0  0  0  0  0  0  0  0
  -26.0340  -31.3490   21.7400 C   0  0  0  0  0  2  0  0  0  0  0  0
  -26.1250  -30.0640   20.9440 C   0  0  0  0  0  0  0  0  0  0  0  0
  -27.3490  -29.3830   20.7700 C   0  0  0  0  0  3  0  0  0  0  0  0
  -26.1960  -27.6850   19.4620 C   0  0  0  0  0  3  0  0  0  0  0  0
  -24.9790  -28.3680   19.6330 C   0  0  0  0  0  3  0  0  0  0  0  0
  -23.6810  -30.3450   20.6060 C   0  0  0  0  0  2  0  0  0  0  0  0
  -24.8220  -31.4410   22.5890 N   0  0  0  0  0  0  0  0  0  0  0  0
  -23.7660  -32.2690   24.4150 O   0  0  0  0  0  0  0  0  0  0  0  0
  -23.0090  -29.6930   22.9420 C   0  0  0  0  0  0  0  0  0  0  0  0
  -21.7570  -29.2820   22.6810 N   0  0  0  0  0  0  0  0  0  0  0  0
  -23.7180  -29.1680   23.8050 O   0  0  0  0  0  0  0  0  0  0  0  0
  -21.2420  -29.7690   21.9620 H   0  0  0  0  0  0  0  0  0  0  0  0
  -18.6850  -27.3800   22.6960 C   0  0  0  0  0  0  0  0  0  0  0  0
  -21.0520  -28.1890   23.3490 C   0  0  0  0  0  3  0  0  0  0  0  0
  -21.5520  -26.8170   22.8420 C   0  0  0  0  0  2  0  0  0  0  0  0
  -20.7150  -26.2590   21.6870 C   0  0  0  0  0  2  0  0  0  0  0  0
  -19.2500  -26.1000   22.1050 C   0  0  0  0  0  2  0  0  0  0  0  0
  -19.5320  -28.3680   23.2650 C   0  0  0  0  0  0  0  0  0  0  0  0
  -18.9590  -29.5550   23.7680 C   0  0  0  0  0  3  0  0  0  0  0  0
  -17.5680  -29.7630   23.7130 C   0  0  0  0  0  3  0  0  0  0  0  0
  -16.7320  -28.7770   23.1630 C   0  0  0  0  0  3  0  0  0  0  0  0
  -17.2890  -27.5870   22.6610 C   0  0  0  0  0  3  0  0  0  0  0  0
  -26.1180  -32.7220   24.3770 C   0  0  0  0  0  3  0  0  0  0  0  0
  -25.8220  -34.1150   24.7340 N   0  0  0  0  0  0  0  0  0  0  0  0
  -26.1300  -35.1760   23.9760 C   0  0  0  0  0  0  0  0  0  0  0  0
  -26.7640  -35.0840   22.9220 O   0  0  0  0  0  0  0  0  0  0  0  0
  -25.2500  -34.2620   25.5520 H   0  0  0  0  0  0  0  0  0  0  0  0
  -24.3480  -36.9360   23.7610 C   0  0  0  0  0  1  0  0  0  0  0  0
  -25.6590  -36.5560   24.4670 C   0  0  0  0  0  3  0  0  0  0  0  0
  -27.8530  -37.4600   25.0930 C   0  0  0  0  0  1  0  0  0  0  0  0
  -26.6600  -37.6270   24.2670 N   0  0  0  0  0  0  0  0  0  0  0  0
  -26.2590  -38.5370   24.4740 H   0  0  0  0  0  0  0  0  0  0  0  0
  -26.6610  -31.9270   25.6270 C   0  0  1  0  0  0  0  0  0  0  0  0
  -25.5710  -31.5990   26.6730 C   0  0  0  0  0  1  0  0  0  0  0  0
  -27.3090  -30.5940   25.1840 C   0  0  0  0  0  1  0  0  0  0  0  0
  -27.7670  -32.7480   26.3300 C   0  0  0  0  0  1  0  0  0  0  0  0
  -28.4650  -21.6060   19.9600 C   0  0  0  0  0  0  0  0  0  0  0  0
  -29.7440  -21.5950   20.3710 N   0  0  0  0  0  0  0  0  0  0  0  0
  -27.9730  -20.8070   19.1560 O   0  0  0  0  0  0  0  0  0  0  0  0
  -29.9790  -22.3150   21.0370 H   0  0  0  0  0  0  0  0  0  0  0  0
  -31.9650  -19.1570   18.5300 C   0  0  0  0  0  3  0  0  0  0  0  0
  -30.8160  -19.8840   18.8900 C   0  0  0  0  0  3  0  0  0  0  0  0
  -33.1980  -20.2170   20.3340 C   0  0  0  0  0  3  0  0  0  0  0  0
  -32.0490  -20.9470   20.7020 C   0  0  0  0  0  0  0  0  0  0  0  0
  -33.1840  -19.3220   19.2340 C   0  0  0  0  0  0  0  0  0  0  0  0
  -30.8460  -20.7910   19.9740 C   0  0  0  0  0  0  0  0  0  0  0  0
  -32.1250  -21.9110   21.8800 C   0  0  0  0  0  1  0  0  0  0  0  0
  -34.5620  -18.0950   17.6260 C   0  0  0  0  0  0  0  0  0  0  0  0
  -34.7810  -16.0080   16.3200 C   0  0  0  0  0  2  0  0  0  0  0  0
  -33.4710  -15.6010   15.6230 C   0  0  0  0  0  2  0  0  0  0  0  0
  -32.5830  -14.7760   16.5730 C   0  0  0  0  0  2  0  0  0  0  0  0
  -32.4020  -15.4560   17.9540 C   0  0  0  0  0  3  0  0  0  0  0  0
  -33.7690  -15.8790   18.5320 C   0  0  0  0  0  2  0  0  0  0  0  0
  -34.4480  -16.7430   17.5470 N   0  0  0  0  0  0  0  0  0  0  0  0
  -34.8870  -18.8050   16.6650 O   0  0  0  0  0  0  0  0  0  0  0  0
  -35.5420  -18.6200   19.7600 C   0  0  0  0  0  1  0  0  0  0  0  0
  -34.3810  -18.6180   18.8570 N   0  0  0  0  0  0  0  0  0  0  0  0
  -30.4890  -14.8360   19.5660 C   0  0  0  0  0  0  0  0  0  0  0  0
  -30.2010  -13.6760   20.2380 C   0  0  0  0  0  0  0  0  0  0  0  0
  -31.2450  -12.7590   19.9060 C   0  0  0  0  0  0  0  0  0  0  0  0
  -31.6690  -14.5930   18.8780 N   0  0  0  0  0  0  0  0  0  0  0  0
  -32.1460  -13.3460   19.1300 N   0  0  0  0  0  0  0  0  0  0  0  0
  -31.4090  -11.3360   20.2380 C   0  0  0  0  0  0  0  0  0  0  0  0
  -32.6190  -10.8360   20.7660 C   0  0  0  0  0  3  0  0  0  0  0  0
  -32.7460   -9.4690   21.0940 C   0  0  0  0  0  3  0  0  0  0  0  0
  -31.6560   -8.5880   20.8960 C   0  0  0  0  0  0  0  0  0  0  0  0
  -30.4630   -9.0870   20.3470 C   0  0  0  0  0  3  0  0  0  0  0  0
  -30.3390  -10.4460   20.0170 C   0  0  0  0  0  3  0  0  0  0  0  0
  -31.6960   -7.2390   21.1600 O   0  0  0  0  0  0  0  0  0  0  0  0
  -32.5430   -6.7160   22.1030 C   0  0  0  0  0  0  0  0  0  0  0  0
  -32.4100   -7.0200   23.4750 C   0  0  0  0  0  3  0  0  0  0  0  0
  -33.2600   -6.4050   24.4180 C   0  0  0  0  0  3  0  0  0  0  0  0
  -34.2340   -5.4840   23.9920 C   0  0  0  0  0  0  0  0  0  0  0  0
  -34.3660   -5.1760   22.6270 C   0  0  0  0  0  3  0  0  0  0  0  0
  -33.5200   -5.7890   21.6860 C   0  0  0  0  0  0  0  0  0  0  0  0
  -33.6360   -5.4730   20.3730 F   0  0  0  0  0  0  0  0  0  0  0  0
  -35.0460   -4.8880   24.8990 F   0  0  0  0  0  0  0  0  0  0  0  0
  -28.9800  -13.4020   21.0670 C   0  0  0  0  0  0  0  0  0  0  0  0
  -29.1150  -12.5810   22.1030 N   0  0  0  0  0  0  0  0  0  0  0  0
  -27.9080  -13.9520   20.8250 O   0  0  0  0  0  0  0  0  0  0  0  0
  -30.0000  -12.1400   22.3080 H   0  0  0  0  0  0  0  0  0  0  0  0
  -28.3220  -12.3900   22.6990 H   0  0  0  0  0  0  0  0  0  0  0  0
  -29.8430  -16.0650   19.4700 N   0  0  0  0  0  0  0  0  0  0  0  0
  -28.9630  -16.2520   19.9360 H   0  0  0  0  0  0  0  0  0  0  0  0
  -30.1730  -16.8460   18.9190 H   0  0  0  0  0  0  0  0  0  0  0  0
  1 55  1  0
  2  4  1  0
  3  2  1  0
  3  5  1  0
  4  6  1  0
  5  1  1  0
  5  6  1  0
  6  8  1  0
  6  7  1  0
  9 11  2  0
 10  9  1  0
 10  1  1  0
 12 10  1  0
 13 14  1  0
 13  9  1  0
 14 16  1  0
 15 26  2  0
 16 21  1  0
 17 25  1  0
 17 27  1  0
 18 24  1  0
 18 20  1  0
 19 25  1  0
 20 19  1  0
 21 20  2  0
 22 23  1  0
 22 16  2  0
 23 18  2  0
 24 17  1  0
 25 15  1  0
 27 29  2  0
 28 27  1  0
 30 28  1  0
 31 36  1  0
 32 28  1  0
 33 32  1  0
 34 35  1  0
 34 33  1  0
 35 31  1  0
 36 32  1  0
 36 37  2  0
 38 37  1  0
 39 38  2  0
 40 31  2  0
 40 39  1  0
 41 15  1  0
 41 42  1  0
 41 51  1  0
 42 45  1  0
 43 47  1  0
 43 42  1  0
 44 43  2  0
 47 46  1  0
 49 47  1  0
 49 50  1  0
 49 48  1  0
 51 54  1  1
 51 52  1  0
 53 51  1  0
 55 56  1  0
 56 58  1  0
 57 55  2  0
 59 60  2  0
 59 63  1  0
 60 64  1  0
 61 62  1  0
 62 65  1  0
 63 61  2  0
 64 56  1  0
 64 62  2  0
 66 75  1  0
 67 72  1  0
 68 67  1  0
 68 69  1  0
 70 69  1  0
 70 71  1  0
 70 79  1  0
 72 66  1  0
 72 71  1  0
 73 66  2  0
 75 63  1  0
 75 74  1  0
 76 77  2  0
 77 96  1  0
 78 81  1  0
 78 77  1  0
 79 80  1  0
 79 76  1  0
 80 78  2  0
 81 82  1  0
 82 83  2  0
 84 83  1  0
 84 87  1  0
 85 84  2  0
 86 81  2  0
 86 85  1  0
 87 88  1  0
 88 89  1  0
 89 90  2  0
 91 90  1  0
 91 95  1  0
 92 91  2  0
 93 88  2  0
 93 92  1  0
 94 93  1  0
 96 97  1  0
 97 99  1  0
 97100  1  0
 98 96  2  0
101 76  1  0
101102  1  0
103101  1  0
M  ISO  4  13 101  14 101  66 100  75 100
M  END
>  <TORSDO>  (46) 
F 21

>  <SCORE>  (46) 
-7.896

>  <name>  (46) 
45

>  <ligand_id>  (46) 
45

>  <original_smiles>  (46) 
[H]c1c([H])c([H])c2c(c1[H])C([H])([H])C([H])([H])C([H])([H])C2([H])N([H])C(=O)C1([H])N(C(=O)C([H])(N([H])C(=O)C([H])(N([H])C([H])([H])[H])C([H])([H])[H])C(C([H])([H])[H])(C([H])([H])[H])C([H])([H])[H])C([H])([H])c2c([H])c(OC([H])([H])C(=O)N([H])C([H])(C(=O)N([H])c3c([H])c([H])c(N(C(=O)N4C([H])([H])C([H])([H])C([H])([H])C([H])(n5nc(-c6c([H])c([H])c(Oc7c([H])c([H])c(F)c([H])c7F)c([H])c6[H])c(C(=O)N([H])[H])c5N([H])[H])C4([H])[H])C([H])([H])[H])c([H])c3C([H])([H])[H])C3([H])C([H])([H])C([H])([H])C([H])([H])[N+]3([H])[H])c([H])c([H])c2C1([H])[H]

>  <smiles>  (46) 
[H]c1c([H])c([H])c2c(c1[H])C([H])([H])C([H])([H])C([H])([H])C2([H])N([H])C(=O)C1([H])N(C(=O)C([H])(N([H])C(=O)C([H])(N([H])C([H])([H])[H])C([H])([H])[H])C(C([H])([H])[H])(C([H])([H])[H])C([H])([H])[H])C([H])([H])c2c([H])c(OC([H])([H])C(=O)N([H])C([H])(C(=O)N([H])c3c([H])c([H])c(N(C(=O)N4C([H])([H])C([H])([H])C([H])([H])C([H])(n5nc(-c6c([H])c([H])c(Oc7c([H])c([H])c(F)c([H])c7F)c([H])c6[H])c(C(=O)N([H])[H])c5N([H])[H])C4([H])[H])C([H])([H])[H])c([H])c3C([H])([H])[H])C3([H])C([H])([H])C([H])([H])C([H])([H])[N+]3([H])[H])c([H])c([H])c2C1([H])[H]

$$$$
46:0:0
     RDKit          3D

 89 97  0  0  1  0  0  0  0  0999 V2000
  -29.5440  -21.4810   19.8000 O   0  0  0  0  0  0  0  0  0  0  0  0
  -30.2950  -17.8220   19.2330 C   0  0  0  0  0  3  0  0  0  0  0  0
  -29.6100  -18.0620   21.5290 C   0  0  0  0  0  3  0  0  0  0  0  0
  -30.1380  -19.2310   19.0550 C   0  0  0  0  0  3  0  0  0  0  0  0
  -29.4900  -19.4810   21.3580 C   0  0  0  0  0  3  0  0  0  0  0  0
  -30.0110  -17.1830   20.4750 C   0  0  0  0  0  0  0  0  0  0  0  0
  -29.7280  -20.1090   20.1010 C   0  0  0  0  0  0  0  0  0  0  0  0
  -30.6810  -14.6900   20.0640 C   0  0  0  0  0  0  0  0  0  0  0  0
  -30.4070  -12.4780   18.9480 C   0  0  0  0  0  2  0  0  0  0  0  0
  -29.4060  -12.6530   17.7840 C   0  0  0  0  0  2  0  0  0  0  0  0
  -27.9570  -12.4770   18.2740 C   0  0  0  0  0  2  0  0  0  0  0  0
  -27.6670  -13.2830   19.5690 C   0  0  0  0  0  3  0  0  0  0  0  0
  -28.7820  -13.0970   20.6240 C   0  0  0  0  0  2  0  0  0  0  0  0
  -30.0640  -13.4630   19.9990 N   0  0  0  0  0  0  0  0  0  0  0  0
  -31.7780  -14.8690   19.5220 O   0  0  0  0  0  0  0  0  0  0  0  0
  -30.0080  -15.7210   20.6770 N   0  0  0  0  0  0  0  0  0  0  0  0
  -29.2980  -15.3940   21.3180 H   0  0  0  0  0  0  0  0  0  0  0  0
  -25.3150  -13.8610   20.4180 C   0  0  0  0  0  0  0  0  0  0  0  0
  -24.2640  -13.0810   20.8230 C   0  0  0  0  0  0  0  0  0  0  0  0
  -24.7220  -11.7300   20.7360 C   0  0  0  0  0  0  0  0  0  0  0  0
  -26.3440  -12.9850   20.1100 N   0  0  0  0  0  0  0  0  0  0  0  0
  -25.9970  -11.6970   20.3590 N   0  0  0  0  0  0  0  0  0  0  0  0
  -24.0000  -10.4630   20.9290 C   0  0  0  0  0  0  0  0  0  0  0  0
  -24.4340   -9.5050   21.8700 C   0  0  0  0  0  3  0  0  0  0  0  0
  -23.7110   -8.3070   22.0570 C   0  0  0  0  0  3  0  0  0  0  0  0
  -22.5420   -8.0580   21.3020 C   0  0  0  0  0  0  0  0  0  0  0  0
  -22.1280   -9.0050   20.3490 C   0  0  0  0  0  3  0  0  0  0  0  0
  -22.8510  -10.1940   20.1600 C   0  0  0  0  0  3  0  0  0  0  0  0
  -21.7930   -6.9100   21.3950 O   0  0  0  0  0  0  0  0  0  0  0  0
  -21.6850   -6.2140   22.5740 C   0  0  0  0  0  0  0  0  0  0  0  0
  -21.1710   -6.8070   23.7460 C   0  0  0  0  0  3  0  0  0  0  0  0
  -21.0150   -6.0350   24.9150 C   0  0  0  0  0  3  0  0  0  0  0  0
  -21.3580   -4.6720   24.9110 C   0  0  0  0  0  0  0  0  0  0  0  0
  -21.8680   -4.0770   23.7420 C   0  0  0  0  0  3  0  0  0  0  0  0
  -22.0250   -4.8450   22.5760 C   0  0  0  0  0  0  0  0  0  0  0  0
  -22.4920   -4.2620   21.4470 F   0  0  0  0  0  0  0  0  0  0  0  0
  -21.2020   -3.9290   26.0300 F   0  0  0  0  0  0  0  0  0  0  0  0
  -22.8840  -13.5550   21.1750 C   0  0  0  0  0  0  0  0  0  0  0  0
  -22.1950  -12.8410   22.0630 N   0  0  0  0  0  0  0  0  0  0  0  0
  -22.4230  -14.5940   20.7030 O   0  0  0  0  0  0  0  0  0  0  0  0
  -22.5800  -12.0020   22.4720 H   0  0  0  0  0  0  0  0  0  0  0  0
  -21.2690  -13.1360   22.3320 H   0  0  0  0  0  0  0  0  0  0  0  0
  -25.4750  -15.2350   20.2710 N   0  0  0  0  0  0  0  0  0  0  0  0
  -24.7240  -15.8930   20.4490 H   0  0  0  0  0  0  0  0  0  0  0  0
  -26.3150  -15.6820   19.9300 H   0  0  0  0  0  0  0  0  0  0  0  0
  -29.5360  -22.5380   20.8210 C   0  0  0  0  0  2  0  0  0  0  0  0
  -29.6060  -24.0830   20.3680 C   0  0  0  0  0  3  0  0  0  0  0  0
  -28.3060  -24.9980   20.2520 C   0  0  0  0  0  3  0  0  0  0  0  0
  -28.4640  -26.4780   20.2340 O   0  0  0  0  0  0  0  0  0  0  0  0
  -24.6350  -31.8460   23.2070 C   0  0  0  0  0  0  0  0  0  0  0  0
  -27.3140  -27.2920   20.1940 C   0  0  0  0  0  0  0  0  0  0  0  0
  -23.4500  -30.4330   21.5650 C   0  0  0  0  0  3  0  0  0  0  0  0
  -24.9230  -28.8770   20.1610 C   0  0  0  0  0  0  0  0  0  0  0  0
  -25.9890  -30.7640   21.3990 C   0  0  0  0  0  2  0  0  0  0  0  0
  -26.0830  -29.3840   20.7600 C   0  0  0  0  0  0  0  0  0  0  0  0
  -27.2790  -28.6040   20.7640 C   0  0  0  0  0  3  0  0  0  0  0  0
  -26.1260  -26.8340   19.5790 C   0  0  0  0  0  3  0  0  0  0  0  0
  -24.9470  -27.6060   19.5630 C   0  0  0  0  0  3  0  0  0  0  0  0
  -23.6760  -29.7400   20.1940 C   0  0  0  0  0  2  0  0  0  0  0  0
  -24.7100  -31.0330   22.1130 N   0  0  0  0  0  0  0  0  0  0  0  0
  -23.5480  -32.1220   23.7320 O   0  0  0  0  0  0  0  0  0  0  0  0
  -22.7860  -29.4210   22.5280 C   0  0  0  0  0  0  0  0  0  0  0  0
  -21.4620  -29.2400   22.3930 N   0  0  0  0  0  0  0  0  0  0  0  0
  -23.4610  -28.7970   23.3520 O   0  0  0  0  0  0  0  0  0  0  0  0
  -20.9810  -29.7870   21.6940 H   0  0  0  0  0  0  0  0  0  0  0  0
  -18.0800  -28.0600   22.8960 C   0  0  0  0  0  0  0  0  0  0  0  0
  -20.6400  -28.3050   23.1600 C   0  0  0  0  0  3  0  0  0  0  0  0
  -20.7370  -26.8770   22.5740 C   0  0  0  0  0  2  0  0  0  0  0  0
  -19.6290  -26.5640   21.5650 C   0  0  0  0  0  2  0  0  0  0  0  0
  -18.2490  -26.7140   22.2100 C   0  0  0  0  0  2  0  0  0  0  0  0
  -19.2040  -28.8150   23.3260 C   0  0  0  0  0  0  0  0  0  0  0  0
  -18.9940  -30.0760   23.9240 C   0  0  0  0  0  3  0  0  0  0  0  0
  -17.6920  -30.5810   24.1000 C   0  0  0  0  0  3  0  0  0  0  0  0
  -16.5830  -29.8240   23.6860 C   0  0  0  0  0  3  0  0  0  0  0  0
  -16.7780  -28.5660   23.0900 C   0  0  0  0  0  3  0  0  0  0  0  0
  -25.9120  -32.4860   23.8370 C   0  0  0  0  0  3  0  0  0  0  0  0
  -26.4240  -31.7160   25.1150 C   0  0  1  0  0  0  0  0  0  0  0  0
  -25.3250  -31.4660   26.1740 C   0  0  0  0  0  1  0  0  0  0  0  0
  -27.0240  -30.3450   24.7260 C   0  0  0  0  0  1  0  0  0  0  0  0
  -27.5650  -32.5170   25.7860 C   0  0  0  0  0  1  0  0  0  0  0  0
  -25.5930  -33.8820   24.1710 N   0  0  0  0  0  0  0  0  0  0  0  0
  -25.9220  -34.9400   23.4160 C   0  0  0  0  0  0  0  0  0  0  0  0
  -26.5960  -34.8420   22.3870 O   0  0  0  0  0  0  0  0  0  0  0  0
  -25.0020  -34.0290   24.9740 H   0  0  0  0  0  0  0  0  0  0  0  0
  -24.1860  -36.7230   23.0530 C   0  0  0  0  0  1  0  0  0  0  0  0
  -25.4230  -36.3230   23.8750 C   0  0  0  0  0  3  0  0  0  0  0  0
  -27.5440  -37.2150   24.7320 C   0  0  0  0  0  1  0  0  0  0  0  0
  -26.4500  -37.3830   23.7760 N   0  0  0  0  0  0  0  0  0  0  0  0
  -26.0400  -38.3000   23.9230 H   0  0  0  0  0  0  0  0  0  0  0  0
  1  7  1  0
  1 46  1  0
  2  6  1  0
  4  2  2  0
  4  7  1  0
  5  3  1  0
  6 16  1  0
  6  3  2  0
  7  5  2  0
  8 16  1  0
  9 14  1  0
 10 11  1  0
 10  9  1  0
 12 11  1  0
 12 21  1  0
 12 13  1  0
 14  8  1  0
 14 13  1  0
 15  8  2  0
 16 17  1  0
 18 19  2  0
 19 38  1  0
 20 19  1  0
 20 23  1  0
 21 22  1  0
 21 18  1  0
 22 20  2  0
 23 24  1  0
 24 25  2  0
 26 29  1  0
 26 25  1  0
 27 26  2  0
 28 27  1  0
 28 23  2  0
 29 30  1  0
 30 35  2  0
 30 31  1  0
 31 32  2  0
 33 32  1  0
 33 37  1  0
 34 33  2  0
 35 34  1  0
 36 35  1  0
 38 39  1  0
 39 42  1  0
 39 41  1  0
 40 38  2  0
 43 18  1  0
 43 44  1  0
 45 43  1  0
 47 46  1  0
 48 47  2  0
 49 48  1  0
 50 61  2  0
 51 49  1  0
 51 56  1  0
 52 60  1  0
 52 62  1  0
 53 59  1  0
 53 55  1  0
 54 60  1  0
 55 56  2  0
 55 54  1  0
 57 51  2  0
 58 57  1  0
 58 53  2  0
 59 52  1  0
 60 50  1  0
 62 64  2  0
 63 62  1  0
 65 63  1  0
 66 75  2  0
 66 71  1  0
 67 63  1  0
 67 71  1  0
 68 67  1  0
 69 70  1  0
 69 68  1  0
 70 66  1  0
 71 72  2  0
 72 73  1  0
 74 73  2  0
 75 74  1  0
 76 50  1  0
 76 81  1  0
 76 77  1  0
 77 80  1  1
 77 78  1  0
 79 77  1  0
 81 84  1  0
 82 86  1  0
 82 81  1  0
 83 82  2  0
 86 85  1  0
 88 86  1  0
 88 89  1  0
 88 87  1  0
M  ISO  4   8 100  16 100  48 101  49 101
M  END
>  <TORSDO>  (47) 
F 20

>  <SCORE>  (47) 
-13.067

>  <name>  (47) 
46

>  <ligand_id>  (47) 
46

>  <original_smiles>  (47) 
[H]c1c([H])c([H])c2c(c1[H])C([H])([H])C([H])([H])C([H])([H])C2([H])N([H])C(=O)C1([H])N(C(=O)C([H])(N([H])C(=O)C([H])(N([H])C([H])([H])[H])C([H])([H])[H])C(C([H])([H])[H])(C([H])([H])[H])C([H])([H])[H])C([H])([H])c2c([H])c(OC([H])([H])C([H])([H])C([H])([H])Oc3c([H])c([H])c(N([H])C(=O)N4C([H])([H])C([H])([H])C([H])([H])C([H])(n5nc(-c6c([H])c([H])c(Oc7c([H])c([H])c(F)c([H])c7F)c([H])c6[H])c(C(=O)N([H])[H])c5N([H])[H])C4([H])[H])c([H])c3[H])c([H])c([H])c2C1([H])[H]

>  <smiles>  (47) 
[H]c1c([H])c([H])c2c(c1[H])C([H])([H])C([H])([H])C([H])([H])C2([H])N([H])C(=O)C1([H])N(C(=O)C([H])(N([H])C(=O)C([H])(N([H])C([H])([H])[H])C([H])([H])[H])C(C([H])([H])[H])(C([H])([H])[H])C([H])([H])[H])C([H])([H])c2c([H])c(OC([H])([H])C([H])([H])C([H])([H])Oc3c([H])c([H])c(N([H])C(=O)N4C([H])([H])C([H])([H])C([H])([H])C([H])(n5nc(-c6c([H])c([H])c(Oc7c([H])c([H])c(F)c([H])c7F)c([H])c6[H])c(C(=O)N([H])[H])c5N([H])[H])C4([H])[H])c([H])c3[H])c([H])c([H])c2C1([H])[H]

$$$$
47:0:0
     RDKit          3D

 99107  0  0  1  0  0  0  0  0999 V2000
  -29.2570  -21.1920   21.3710 N   0  0  0  0  0  0  0  0  0  0  0  0
  -29.8240  -19.0320   22.4070 C   0  0  0  0  0  3  0  0  0  0  0  0
  -30.1550  -17.6650   22.2550 C   0  0  0  0  0  3  0  0  0  0  0  0
  -30.3130  -19.4150   20.0610 C   0  0  0  0  0  3  0  0  0  0  0  0
  -29.8340  -19.9030   21.2950 C   0  0  0  0  0  0  0  0  0  0  0  0
  -30.5090  -17.1640   20.9800 C   0  0  0  0  0  0  0  0  0  0  0  0
  -30.6510  -18.0520   19.8830 C   0  0  0  0  0  0  0  0  0  0  0  0
  -31.4150  -14.7920   20.6630 C   0  0  0  0  0  0  0  0  0  0  0  0
  -31.1700  -12.7480   19.3250 C   0  0  0  0  0  2  0  0  0  0  0  0
  -30.2320  -13.1050   18.1500 C   0  0  0  0  0  2  0  0  0  0  0  0
  -28.7510  -12.9290   18.5530 C   0  0  0  0  0  2  0  0  0  0  0  0
  -28.4090  -13.6420   19.8870 C   0  0  0  0  0  3  0  0  0  0  0  0
  -29.4530  -13.2720   20.9720 C   0  0  0  0  0  2  0  0  0  0  0  0
  -30.7930  -13.6040   20.4520 N   0  0  0  0  0  0  0  0  0  0  0  0
  -32.6170  -14.9960   20.4740 O   0  0  0  0  0  0  0  0  0  0  0  0
  -30.5060  -15.7820   20.6640 N   0  0  0  0  0  0  0  0  0  0  0  0
  -29.5950  -15.4430   20.4060 H   0  0  0  0  0  0  0  0  0  0  0  0
  -26.0000  -14.2580   20.5500 C   0  0  0  0  0  0  0  0  0  0  0  0
  -24.9170  -13.4820   20.8580 C   0  0  0  0  0  0  0  0  0  0  0  0
  -25.3700  -12.1290   20.7890 C   0  0  0  0  0  0  0  0  0  0  0  0
  -27.0440  -13.3730   20.3190 N   0  0  0  0  0  0  0  0  0  0  0  0
  -26.6670  -12.0890   20.5220 N   0  0  0  0  0  0  0  0  0  0  0  0
  -24.6350  -10.8650   20.9020 C   0  0  0  0  0  0  0  0  0  0  0  0
  -25.0170   -9.8710   21.8300 C   0  0  0  0  0  3  0  0  0  0  0  0
  -24.2820   -8.6730   21.9340 C   0  0  0  0  0  3  0  0  0  0  0  0
  -23.1530   -8.4570   21.1070 C   0  0  0  0  0  0  0  0  0  0  0  0
  -22.7930   -9.4400   20.1680 C   0  0  0  0  0  3  0  0  0  0  0  0
  -23.5290  -10.6310   20.0600 C   0  0  0  0  0  3  0  0  0  0  0  0
  -22.3970   -7.3110   21.1230 O   0  0  0  0  0  0  0  0  0  0  0  0
  -22.1620   -6.6180   22.2850 C   0  0  0  0  0  0  0  0  0  0  0  0
  -21.5890   -7.2360   23.4180 C   0  0  0  0  0  3  0  0  0  0  0  0
  -21.2980   -6.4710   24.5640 C   0  0  0  0  0  3  0  0  0  0  0  0
  -21.5750   -5.0900   24.5800 C   0  0  0  0  0  0  0  0  0  0  0  0
  -22.1450   -4.4740   23.4520 C   0  0  0  0  0  3  0  0  0  0  0  0
  -22.4340   -5.2360   22.3060 C   0  0  0  0  0  0  0  0  0  0  0  0
  -22.9600   -4.6320   21.2140 F   0  0  0  0  0  0  0  0  0  0  0  0
  -21.2900   -4.3530   25.6780 F   0  0  0  0  0  0  0  0  0  0  0  0
  -23.5120  -13.9540   21.1010 C   0  0  0  0  0  0  0  0  0  0  0  0
  -22.7630  -13.2330   21.9290 N   0  0  0  0  0  0  0  0  0  0  0  0
  -23.0890  -14.9900   20.5940 O   0  0  0  0  0  0  0  0  0  0  0  0
  -23.1230  -12.3950   22.3610 H   0  0  0  0  0  0  0  0  0  0  0  0
  -21.8180  -13.5210   22.1350 H   0  0  0  0  0  0  0  0  0  0  0  0
  -26.1770  -15.6340   20.4300 N   0  0  0  0  0  0  0  0  0  0  0  0
  -25.4010  -16.2750   20.5380 H   0  0  0  0  0  0  0  0  0  0  0  0
  -27.0110  -16.0790   20.0720 H   0  0  0  0  0  0  0  0  0  0  0  0
  -31.0630  -17.5240   18.6680 O   0  0  0  0  0  0  0  0  0  0  0  0
  -31.5400  -18.4270   17.6670 C   0  0  0  0  0  2  0  0  0  0  0  0
  -31.8200  -16.5580   15.9450 C   0  0  0  0  0  1  0  0  0  0  0  0
  -33.0210  -18.7540   15.6420 C   0  0  0  0  0  1  0  0  0  0  0  0
  -32.4830  -17.7380   16.6620 C   0  0  0  0  0  3  0  0  0  0  0  0
  -28.2710  -21.5810   20.3550 C   0  0  0  0  0  2  0  0  0  0  0  0
  -27.8130  -20.4190   19.4500 C   0  0  0  0  0  2  0  0  0  0  0  0
  -27.1840  -19.7430   17.0690 C   0  0  0  0  0  1  0  0  0  0  0  0
  -27.3790  -20.9000   18.0580 C   0  0  0  0  0  2  0  0  0  0  0  0
  -29.9140  -22.2440   22.1510 C   0  0  0  0  0  2  0  0  0  0  0  0
  -30.4940  -23.3990   21.2880 C   0  0  0  0  0  2  0  0  0  0  0  0
  -30.0930  -24.8080   21.7890 C   0  0  0  0  0  2  0  0  0  0  0  0
  -30.4880  -25.9550   20.8340 C   0  0  0  0  0  2  0  0  0  0  0  0
  -30.0540  -27.2270   21.3430 O   0  0  0  0  0  0  0  0  0  0  0  0
  -25.1380  -31.8260   23.6370 C   0  0  0  0  0  0  0  0  0  0  0  0
  -28.7680  -27.7030   21.1550 C   0  0  0  0  0  0  0  0  0  0  0  0
  -24.3690  -30.2160   21.9230 C   0  0  0  0  0  3  0  0  0  0  0  0
  -26.1970  -28.8500   20.7880 C   0  0  0  0  0  0  0  0  0  0  0  0
  -26.8250  -30.9180   22.0420 C   0  0  0  0  0  2  0  0  0  0  0  0
  -27.1800  -29.5520   21.4920 C   0  0  0  0  0  0  0  0  0  0  0  0
  -28.4620  -28.9850   21.6720 C   0  0  0  0  0  3  0  0  0  0  0  0
  -27.7500  -27.0050   20.4620 C   0  0  0  0  0  3  0  0  0  0  0  0
  -26.4740  -27.5720   20.2760 C   0  0  0  0  0  3  0  0  0  0  0  0
  -24.8550  -29.5270   20.6210 C   0  0  0  0  0  2  0  0  0  0  0  0
  -25.4510  -31.0070   22.5930 N   0  0  0  0  0  0  0  0  0  0  0  0
  -23.9660  -31.9610   24.0150 O   0  0  0  0  0  0  0  0  0  0  0  0
  -23.7360  -29.1450   22.8390 C   0  0  0  0  0  0  0  0  0  0  0  0
  -22.4770  -28.7770   22.5510 N   0  0  0  0  0  0  0  0  0  0  0  0
  -24.3810  -28.6440   23.7660 O   0  0  0  0  0  0  0  0  0  0  0  0
  -22.0110  -29.2380   21.7810 H   0  0  0  0  0  0  0  0  0  0  0  0
  -19.2340  -27.1940   22.7100 C   0  0  0  0  0  0  0  0  0  0  0  0
  -21.6960  -27.7600   23.2550 C   0  0  0  0  0  3  0  0  0  0  0  0
  -22.0330  -26.3440   22.7350 C   0  0  0  0  0  2  0  0  0  0  0  0
  -21.0980  -25.8760   21.6160 C   0  0  0  0  0  2  0  0  0  0  0  0
  -19.6440  -25.8650   22.0980 C   0  0  0  0  0  2  0  0  0  0  0  0
  -20.2000  -28.0900   23.2390 C   0  0  0  0  0  0  0  0  0  0  0  0
  -19.7710  -29.3280   23.7660 C   0  0  0  0  0  3  0  0  0  0  0  0
  -18.4070  -29.6750   23.7700 C   0  0  0  0  0  3  0  0  0  0  0  0
  -17.4540  -28.7780   23.2600 C   0  0  0  0  0  3  0  0  0  0  0  0
  -17.8660  -27.5390   22.7360 C   0  0  0  0  0  3  0  0  0  0  0  0
  -26.2290  -32.6510   24.3860 C   0  0  0  0  0  3  0  0  0  0  0  0
  -25.7330  -34.0280   24.5170 N   0  0  0  0  0  0  0  0  0  0  0  0
  -26.0710  -35.0390   23.7040 C   0  0  0  0  0  0  0  0  0  0  0  0
  -26.9000  -34.9190   22.7990 O   0  0  0  0  0  0  0  0  0  0  0  0
  -25.0110  -34.1870   25.2050 H   0  0  0  0  0  0  0  0  0  0  0  0
  -24.2310  -36.5630   22.9250 C   0  0  0  0  0  1  0  0  0  0  0  0
  -25.3790  -36.3960   23.9330 C   0  0  0  0  0  3  0  0  0  0  0  0
  -27.2740  -37.6010   24.9220 C   0  0  0  0  0  1  0  0  0  0  0  0
  -26.3010  -37.5500   23.8350 N   0  0  0  0  0  0  0  0  0  0  0  0
  -25.7830  -38.4250   23.8330 H   0  0  0  0  0  0  0  0  0  0  0  0
  -26.5990  -32.0550   25.8010 C   0  0  1  0  0  0  0  0  0  0  0  0
  -25.3700  -31.7460   26.6850 C   0  0  0  0  0  1  0  0  0  0  0  0
  -27.4080  -30.7460   25.6460 C   0  0  0  0  0  1  0  0  0  0  0  0
  -27.5050  -33.0460   26.5690 C   0  0  0  0  0  1  0  0  0  0  0  0
  1 55  1  0
  3  2  1  0
  4  5  1  0
  5  1  1  0
  5  2  2  0
  6  3  2  0
  7  4  2  0
  7  6  1  0
  8 16  1  0
  9 14  1  0
 10 11  1  0
 10  9  1  0
 12 11  1  0
 12 21  1  0
 12 13  1  0
 14  8  1  0
 14 13  1  0
 15  8  2  0
 16  6  1  0
 17 16  1  0
 18 19  2  0
 19 38  1  0
 20 19  1  0
 20 23  1  0
 21 22  1  0
 21 18  1  0
 22 20  2  0
 23 24  1  0
 24 25  2  0
 26 29  1  0
 26 25  1  0
 27 26  2  0
 28 27  1  0
 28 23  2  0
 29 30  1  0
 30 35  2  0
 30 31  1  0
 31 32  2  0
 32 33  1  0
 33 37  1  0
 34 33  2  0
 35 34  1  0
 36 35  1  0
 38 39  1  0
 39 42  1  0
 39 41  1  0
 40 38  2  0
 43 44  1  0
 43 18  1  0
 45 43  1  0
 46  7  1  0
 47 46  1  0
 48 50  1  0
 49 50  1  0
 50 47  1  0
 51  1  1  0
 52 51  1  0
 53 54  1  0
 54 52  1  0
 56 57  1  0
 56 55  1  0
 58 59  1  0
 58 57  1  0
 60 71  2  0
 61 59  1  0
 61 66  1  0
 62 70  1  0
 62 72  1  0
 63 65  1  0
 64 70  1  0
 65 66  2  0
 65 64  1  0
 67 61  2  0
 68 67  1  0
 68 63  2  0
 69 63  1  0
 69 62  1  0
 70 60  1  0
 72 74  2  0
 73 72  1  0
 75 73  1  0
 76 85  2  0
 76 81  1  0
 77 73  1  0
 78 77  1  0
 79 80  1  0
 79 78  1  0
 80 76  1  0
 81 77  1  0
 81 82  2  0
 82 83  1  0
 84 83  2  0
 85 84  1  0
 86 60  1  0
 86 87  1  0
 86 96  1  0
 87 90  1  0
 88 92  1  0
 88 87  1  0
 89 88  2  0
 92 91  1  0
 94 92  1  0
 94 93  1  0
 95 94  1  0
 96 99  1  1
 96 97  1  0
 98 96  1  0
M  ISO  4   8 100  16 100  58 101  59 101
M  END
>  <TORSDO>  (48) 
F 27

>  <SCORE>  (48) 
-9.088

>  <name>  (48) 
47

>  <ligand_id>  (48) 
47

>  <original_smiles>  (48) 
[H]c1c([H])c([H])c2c(c1[H])C([H])([H])C([H])([H])C([H])([H])C2([H])N([H])C(=O)C1([H])N(C(=O)C([H])(N([H])C(=O)C([H])(N([H])C([H])([H])[H])C([H])([H])[H])C(C([H])([H])[H])(C([H])([H])[H])C([H])([H])[H])C([H])([H])c2c([H])c(OC([H])([H])C([H])([H])C([H])([H])C([H])([H])N(c3c([H])c([H])c(N([H])C(=O)N4C([H])([H])C([H])([H])C([H])([H])C([H])(n5nc(-c6c([H])c([H])c(Oc7c([H])c([H])c(F)c([H])c7F)c([H])c6[H])c(C(=O)N([H])[H])c5N([H])[H])C4([H])[H])c(OC([H])([H])C([H])(C([H])([H])[H])C([H])([H])[H])c3[H])C([H])([H])C([H])([H])C([H])([H])C([H])([H])[H])c([H])c([H])c2C1([H])[H]

>  <smiles>  (48) 
[H]c1c([H])c([H])c2c(c1[H])C([H])([H])C([H])([H])C([H])([H])C2([H])N([H])C(=O)C1([H])N(C(=O)C([H])(N([H])C(=O)C([H])(N([H])C([H])([H])[H])C([H])([H])[H])C(C([H])([H])[H])(C([H])([H])[H])C([H])([H])[H])C([H])([H])c2c([H])c(OC([H])([H])C([H])([H])C([H])([H])C([H])([H])N(c3c([H])c([H])c(N([H])C(=O)N4C([H])([H])C([H])([H])C([H])([H])C([H])(n5nc(-c6c([H])c([H])c(Oc7c([H])c([H])c(F)c([H])c7F)c([H])c6[H])c(C(=O)N([H])[H])c5N([H])[H])C4([H])[H])c(OC([H])([H])C([H])(C([H])([H])[H])C([H])([H])[H])c3[H])C([H])([H])C([H])([H])C([H])([H])C([H])([H])[H])c([H])c([H])c2C1([H])[H]

$$$$
48:0:0
     RDKit          3D

 95103  0  0  1  0  0  0  0  0999 V2000
  -28.7020  -21.5020   20.7990 C   0  0  0  0  0  0  0  0  0  0  0  0
  -28.2540  -22.5690   21.4850 N   0  0  0  0  0  0  0  0  0  0  0  0
  -29.1170  -21.5800   19.6400 O   0  0  0  0  0  0  0  0  0  0  0  0
  -27.9220  -22.3870   22.4240 H   0  0  0  0  0  0  0  0  0  0  0  0
  -28.6220  -20.1430   21.5280 C   0  0  0  0  0  2  0  0  0  0  0  0
  -31.8140  -17.2100   20.9960 C   0  0  0  0  0  3  0  0  0  0  0  0
  -32.1380  -18.5640   21.2150 C   0  0  0  0  0  3  0  0  0  0  0  0
  -29.4530  -17.7780   21.0710 C   0  0  0  0  0  3  0  0  0  0  0  0
  -29.7670  -19.1470   21.2770 C   0  0  0  0  0  0  0  0  0  0  0  0
  -30.4640  -16.7980   20.9170 C   0  0  0  0  0  0  0  0  0  0  0  0
  -31.1250  -19.5410   21.3670 C   0  0  0  0  0  0  0  0  0  0  0  0
  -30.7110  -14.4390   20.0890 C   0  0  0  0  0  0  0  0  0  0  0  0
  -30.3400  -12.2860   18.9330 C   0  0  0  0  0  2  0  0  0  0  0  0
  -29.3520  -12.4860   17.7660 C   0  0  0  0  0  2  0  0  0  0  0  0
  -27.8950  -12.3590   18.2540 C   0  0  0  0  0  2  0  0  0  0  0  0
  -27.6130  -13.2080   19.5220 C   0  0  0  0  0  3  0  0  0  0  0  0
  -28.7070  -12.9820   20.5890 C   0  0  0  0  0  2  0  0  0  0  0  0
  -30.0130  -13.2750   19.9730 N   0  0  0  0  0  0  0  0  0  0  0  0
  -31.7960  -14.6150   19.5300 O   0  0  0  0  0  0  0  0  0  0  0  0
  -30.0770  -15.4300   20.7550 N   0  0  0  0  0  0  0  0  0  0  0  0
  -29.1470  -15.1920   21.0620 H   0  0  0  0  0  0  0  0  0  0  0  0
  -25.2540  -13.8430   20.3350 C   0  0  0  0  0  0  0  0  0  0  0  0
  -24.1920  -13.0850   20.7450 C   0  0  0  0  0  0  0  0  0  0  0  0
  -24.6320  -11.7260   20.6890 C   0  0  0  0  0  0  0  0  0  0  0  0
  -26.2770  -12.9500   20.0540 N   0  0  0  0  0  0  0  0  0  0  0  0
  -25.9070  -11.6700   20.3210 N   0  0  0  0  0  0  0  0  0  0  0  0
  -23.8970  -10.4730   20.9060 C   0  0  0  0  0  0  0  0  0  0  0  0
  -24.3270   -9.5190   21.8550 C   0  0  0  0  0  3  0  0  0  0  0  0
  -23.5940   -8.3290   22.0560 C   0  0  0  0  0  3  0  0  0  0  0  0
  -22.4160   -8.0860   21.3090 C   0  0  0  0  0  0  0  0  0  0  0  0
  -22.0070   -9.0270   20.3490 C   0  0  0  0  0  3  0  0  0  0  0  0
  -22.7400  -10.2090   20.1450 C   0  0  0  0  0  3  0  0  0  0  0  0
  -21.6530   -6.9490   21.4200 O   0  0  0  0  0  0  0  0  0  0  0  0
  -21.5750   -6.2470   22.5970 C   0  0  0  0  0  0  0  0  0  0  0  0
  -21.1270   -6.8480   23.7940 C   0  0  0  0  0  3  0  0  0  0  0  0
  -20.9930   -6.0720   24.9620 C   0  0  0  0  0  3  0  0  0  0  0  0
  -21.2980   -4.6970   24.9350 C   0  0  0  0  0  0  0  0  0  0  0  0
  -21.7410   -4.0970   23.7430 C   0  0  0  0  0  3  0  0  0  0  0  0
  -21.8760   -4.8700   22.5770 C   0  0  0  0  0  0  0  0  0  0  0  0
  -22.2810   -4.2820   21.4260 F   0  0  0  0  0  0  0  0  0  0  0  0
  -21.1640   -3.9510   26.0570 F   0  0  0  0  0  0  0  0  0  0  0  0
  -22.8130  -13.5790   21.0770 C   0  0  0  0  0  0  0  0  0  0  0  0
  -22.1100  -12.8900   21.9690 N   0  0  0  0  0  0  0  0  0  0  0  0
  -22.3680  -14.6120   20.5780 O   0  0  0  0  0  0  0  0  0  0  0  0
  -22.4800  -12.0520   22.3950 H   0  0  0  0  0  0  0  0  0  0  0  0
  -21.1860  -13.2040   22.2300 H   0  0  0  0  0  0  0  0  0  0  0  0
  -25.4290  -15.2120   20.1570 N   0  0  0  0  0  0  0  0  0  0  0  0
  -24.6710  -15.8720   20.3030 H   0  0  0  0  0  0  0  0  0  0  0  0
  -26.2550  -15.6440   19.7650 H   0  0  0  0  0  0  0  0  0  0  0  0
  -32.3870  -21.1830   22.5640 C   0  0  0  0  0  1  0  0  0  0  0  0
  -31.4200  -20.8700   21.5680 O   0  0  0  0  0  0  0  0  0  0  0  0
  -28.1010  -23.9520   21.0210 C   0  0  0  0  0  2  0  0  0  0  0  0
  -29.2270  -24.8710   21.5400 C   0  0  0  0  0  2  0  0  0  0  0  0
  -28.9110  -26.3770   21.4380 C   0  0  0  0  0  2  0  0  0  0  0  0
  -28.4210  -26.7170   20.1420 O   0  0  0  0  0  0  0  0  0  0  0  0
  -24.5870  -31.8700   23.2390 C   0  0  0  0  0  0  0  0  0  0  0  0
  -27.2720  -27.4730   20.1570 C   0  0  0  0  0  0  0  0  0  0  0  0
  -23.3940  -30.4610   21.5920 C   0  0  0  0  0  3  0  0  0  0  0  0
  -24.8610  -28.9360   20.1690 C   0  0  0  0  0  0  0  0  0  0  0  0
  -25.9120  -30.8410   21.4010 C   0  0  0  0  0  2  0  0  0  0  0  0
  -26.0080  -29.4730   20.7650 C   0  0  0  0  0  0  0  0  0  0  0  0
  -27.2170  -28.7460   20.7680 C   0  0  0  0  0  3  0  0  0  0  0  0
  -26.1180  -26.9480   19.5480 C   0  0  0  0  0  3  0  0  0  0  0  0
  -24.9090  -27.6700   19.5550 C   0  0  0  0  0  3  0  0  0  0  0  0
  -23.6070  -29.7800   20.2120 C   0  0  0  0  0  2  0  0  0  0  0  0
  -24.6490  -31.0720   22.1360 N   0  0  0  0  0  0  0  0  0  0  0  0
  -23.5030  -32.1380   23.7770 O   0  0  0  0  0  0  0  0  0  0  0  0
  -22.7470  -29.4380   22.5530 C   0  0  0  0  0  0  0  0  0  0  0  0
  -21.4230  -29.2600   22.4290 N   0  0  0  0  0  0  0  0  0  0  0  0
  -23.4340  -28.8080   23.3620 O   0  0  0  0  0  0  0  0  0  0  0  0
  -20.9280  -29.8190   21.7470 H   0  0  0  0  0  0  0  0  0  0  0  0
  -18.0500  -28.0650   22.9460 C   0  0  0  0  0  0  0  0  0  0  0  0
  -20.6100  -28.3130   23.1920 C   0  0  0  0  0  3  0  0  0  0  0  0
  -20.7070  -26.8880   22.5940 C   0  0  0  0  0  2  0  0  0  0  0  0
  -19.5840  -26.5720   21.6020 C   0  0  0  0  0  2  0  0  0  0  0  0
  -18.2170  -26.7140   22.2740 C   0  0  0  0  0  2  0  0  0  0  0  0
  -19.1740  -28.8230   23.3680 C   0  0  0  0  0  0  0  0  0  0  0  0
  -18.9650  -30.0860   23.9610 C   0  0  0  0  0  3  0  0  0  0  0  0
  -17.6640  -30.5930   24.1390 C   0  0  0  0  0  3  0  0  0  0  0  0
  -16.5550  -29.8310   23.7330 C   0  0  0  0  0  3  0  0  0  0  0  0
  -16.7480  -28.5700   23.1420 C   0  0  0  0  0  3  0  0  0  0  0  0
  -25.8710  -32.5050   23.8610 C   0  0  0  0  0  3  0  0  0  0  0  0
  -25.5600  -33.9020   24.1900 N   0  0  0  0  0  0  0  0  0  0  0  0
  -25.8950  -34.9520   23.4290 C   0  0  0  0  0  0  0  0  0  0  0  0
  -26.5690  -34.8470   22.4010 O   0  0  0  0  0  0  0  0  0  0  0  0
  -24.9670  -34.0600   24.9910 H   0  0  0  0  0  0  0  0  0  0  0  0
  -24.1630  -36.7350   23.0590 C   0  0  0  0  0  1  0  0  0  0  0  0
  -25.4000  -36.3380   23.8810 C   0  0  0  0  0  3  0  0  0  0  0  0
  -27.5260  -37.2280   24.7260 C   0  0  0  0  0  1  0  0  0  0  0  0
  -26.4300  -37.3940   23.7740 N   0  0  0  0  0  0  0  0  0  0  0  0
  -26.0210  -38.3140   23.9190 H   0  0  0  0  0  0  0  0  0  0  0  0
  -26.3950  -31.7330   25.1350 C   0  0  1  0  0  0  0  0  0  0  0  0
  -25.3030  -31.4830   26.2020 C   0  0  0  0  0  1  0  0  0  0  0  0
  -26.9850  -30.3610   24.7360 C   0  0  0  0  0  1  0  0  0  0  0  0
  -27.5440  -32.5320   25.7960 C   0  0  0  0  0  1  0  0  0  0  0  0
  1  2  1  0
  1  5  1  0
  2  4  1  0
  3  1  2  0
  6  7  1  0
  7 11  2  0
  8  9  2  0
  9 11  1  0
  9  5  1  0
 10  6  2  0
 10  8  1  0
 11 51  1  0
 12 20  1  0
 13 18  1  0
 14 15  1  0
 14 13  1  0
 16 15  1  0
 16 25  1  0
 16 17  1  0
 18 12  1  0
 18 17  1  0
 19 12  2  0
 20 10  1  0
 20 21  1  0
 22 23  2  0
 23 42  1  0
 24 23  1  0
 24 27  1  0
 25 26  1  0
 25 22  1  0
 26 24  2  0
 27 28  1  0
 28 29  2  0
 30 33  1  0
 30 29  1  0
 31 30  2  0
 32 31  1  0
 32 27  2  0
 33 34  1  0
 34 35  1  0
 35 36  2  0
 37 36  1  0
 37 41  1  0
 38 37  2  0
 39 34  2  0
 39 38  1  0
 40 39  1  0
 42 43  1  0
 43 46  1  0
 43 45  1  0
 44 42  2  0
 47 48  1  0
 47 22  1  0
 49 47  1  0
 51 50  1  0
 52  2  1  0
 52 53  1  0
 54 53  1  0
 55 57  1  0
 55 54  1  0
 56 67  2  0
 57 62  1  0
 58 66  1  0
 58 68  1  0
 59 65  1  0
 59 61  1  0
 60 66  1  0
 61 62  2  0
 61 60  1  0
 63 64  1  0
 63 57  2  0
 64 59  2  0
 65 58  1  0
 66 56  1  0
 68 70  2  0
 69 68  1  0
 71 69  1  0
 72 81  2  0
 72 77  1  0
 73 69  1  0
 73 77  1  0
 74 73  1  0
 75 76  1  0
 75 74  1  0
 76 72  1  0
 77 78  2  0
 78 79  1  0
 80 79  2  0
 81 80  1  0
 82 56  1  0
 82 83  1  0
 82 92  1  0
 83 86  1  0
 84 88  1  0
 84 83  1  0
 85 84  2  0
 88 87  1  0
 90 88  1  0
 90 91  1  0
 90 89  1  0
 92 95  1  1
 92 93  1  0
 94 92  1  0
M  ISO  4  12 100  20 100  54 101  55 101
M  END
>  <TORSDO>  (49) 
F 22

>  <SCORE>  (49) 
-12.396

>  <name>  (49) 
48

>  <ligand_id>  (49) 
48

>  <original_smiles>  (49) 
[H]c1c([H])c([H])c2c(c1[H])C([H])([H])C([H])([H])C([H])([H])C2([H])N([H])C(=O)C1([H])N(C(=O)C([H])(N([H])C(=O)C([H])(N([H])C([H])([H])[H])C([H])([H])[H])C(C([H])([H])[H])(C([H])([H])[H])C([H])([H])[H])C([H])([H])c2c([H])c(OC([H])([H])C([H])([H])C([H])([H])N([H])C(=O)C([H])([H])c3c([H])c(N([H])C(=O)N4C([H])([H])C([H])([H])C([H])([H])C([H])(n5nc(-c6c([H])c([H])c(Oc7c([H])c([H])c(F)c([H])c7F)c([H])c6[H])c(C(=O)N([H])[H])c5N([H])[H])C4([H])[H])c([H])c([H])c3OC([H])([H])[H])c([H])c([H])c2C1([H])[H]

>  <smiles>  (49) 
[H]c1c([H])c([H])c2c(c1[H])C([H])([H])C([H])([H])C([H])([H])C2([H])N([H])C(=O)C1([H])N(C(=O)C([H])(N([H])C(=O)C([H])(N([H])C([H])([H])[H])C([H])([H])[H])C(C([H])([H])[H])(C([H])([H])[H])C([H])([H])[H])C([H])([H])c2c([H])c(OC([H])([H])C([H])([H])C([H])([H])N([H])C(=O)C([H])([H])c3c([H])c(N([H])C(=O)N4C([H])([H])C([H])([H])C([H])([H])C([H])(n5nc(-c6c([H])c([H])c(Oc7c([H])c([H])c(F)c([H])c7F)c([H])c6[H])c(C(=O)N([H])[H])c5N([H])[H])C4([H])[H])c([H])c([H])c3OC([H])([H])[H])c([H])c([H])c2C1([H])[H]

$$$$
49:0:0
     RDKit          3D

 95103  0  0  1  0  0  0  0  0999 V2000
  -31.4000  -20.9190   21.3320 N   0  0  0  0  0  0  0  0  0  0  0  0
  -32.3330  -21.1600   21.0050 H   0  0  0  0  0  0  0  0  0  0  0  0
  -29.7920  -19.0410   21.4360 C   0  0  0  0  0  3  0  0  0  0  0  0
  -31.9380  -17.2700   21.0740 C   0  0  0  0  0  3  0  0  0  0  0  0
  -29.5510  -17.6500   21.3790 C   0  0  0  0  0  0  0  0  0  0  0  0
  -31.1000  -19.5500   21.2940 C   0  0  0  0  0  0  0  0  0  0  0  0
  -30.6200  -16.7520   21.1450 C   0  0  0  0  0  0  0  0  0  0  0  0
  -32.1850  -18.6630   21.1300 C   0  0  0  0  0  0  0  0  0  0  0  0
  -28.1320  -17.1400   21.5570 C   0  0  0  0  0  1  0  0  0  0  0  0
  -30.7420  -14.5360   20.0130 C   0  0  0  0  0  0  0  0  0  0  0  0
  -30.2590  -12.5150   18.6840 C   0  0  0  0  0  2  0  0  0  0  0  0
  -29.2280  -12.8220   17.5800 C   0  0  0  0  0  2  0  0  0  0  0  0
  -27.7930  -12.6630   18.1160 C   0  0  0  0  0  2  0  0  0  0  0  0
  -27.5720  -13.4040   19.4620 C   0  0  0  0  0  3  0  0  0  0  0  0
  -28.7100  -13.0930   20.4640 C   0  0  0  0  0  2  0  0  0  0  0  0
  -29.9990  -13.4110   19.8230 N   0  0  0  0  0  0  0  0  0  0  0  0
  -31.7290  -14.7910   19.3210 O   0  0  0  0  0  0  0  0  0  0  0  0
  -30.3280  -15.3560   20.9970 N   0  0  0  0  0  0  0  0  0  0  0  0
  -29.5290  -15.0150   21.5080 H   0  0  0  0  0  0  0  0  0  0  0  0
  -25.2230  -13.9610   20.3650 C   0  0  0  0  0  0  0  0  0  0  0  0
  -24.1900  -13.1650   20.7830 C   0  0  0  0  0  0  0  0  0  0  0  0
  -24.6540  -11.8190   20.6590 C   0  0  0  0  0  0  0  0  0  0  0  0
  -26.2560  -13.0990   20.0240 N   0  0  0  0  0  0  0  0  0  0  0  0
  -25.9180  -11.8040   20.2540 N   0  0  0  0  0  0  0  0  0  0  0  0
  -23.9490  -10.5450   20.8480 C   0  0  0  0  0  0  0  0  0  0  0  0
  -24.4200   -9.5690   21.7530 C   0  0  0  0  0  3  0  0  0  0  0  0
  -23.7150   -8.3580   21.9310 C   0  0  0  0  0  3  0  0  0  0  0  0
  -22.5260   -8.1150   21.2040 C   0  0  0  0  0  0  0  0  0  0  0  0
  -22.0740   -9.0810   20.2870 C   0  0  0  0  0  3  0  0  0  0  0  0
  -22.7790  -10.2830   20.1060 C   0  0  0  0  0  3  0  0  0  0  0  0
  -21.7890   -6.9590   21.2940 O   0  0  0  0  0  0  0  0  0  0  0  0
  -21.7320   -6.2300   22.4550 C   0  0  0  0  0  0  0  0  0  0  0  0
  -21.2900   -6.7980   23.6700 C   0  0  0  0  0  3  0  0  0  0  0  0
  -21.1810   -5.9950   24.8230 C   0  0  0  0  0  3  0  0  0  0  0  0
  -21.5000   -4.6260   24.7620 C   0  0  0  0  0  0  0  0  0  0  0  0
  -21.9340   -4.0570   23.5510 C   0  0  0  0  0  3  0  0  0  0  0  0
  -22.0470   -4.8570   22.4020 C   0  0  0  0  0  0  0  0  0  0  0  0
  -22.4440   -4.3000   21.2320 F   0  0  0  0  0  0  0  0  0  0  0  0
  -21.3870   -3.8530   25.8680 F   0  0  0  0  0  0  0  0  0  0  0  0
  -22.8150  -13.6190   21.1800 C   0  0  0  0  0  0  0  0  0  0  0  0
  -22.1690  -12.8950   22.0870 N   0  0  0  0  0  0  0  0  0  0  0  0
  -22.3240  -14.6500   20.7220 O   0  0  0  0  0  0  0  0  0  0  0  0
  -22.5800  -12.0610   22.4820 H   0  0  0  0  0  0  0  0  0  0  0  0
  -21.2480  -13.1770   22.3930 H   0  0  0  0  0  0  0  0  0  0  0  0
  -25.3630  -15.3380   20.2250 N   0  0  0  0  0  0  0  0  0  0  0  0
  -24.5950  -15.9750   20.4010 H   0  0  0  0  0  0  0  0  0  0  0  0
  -26.1630  -15.7890   19.8010 H   0  0  0  0  0  0  0  0  0  0  0  0
  -34.5690  -18.3720   20.9820 C   0  0  0  0  0  1  0  0  0  0  0  0
  -33.4420  -19.2320   21.0210 O   0  0  0  0  0  0  0  0  0  0  0  0
  -30.3700  -21.9460   21.2820 C   0  0  0  0  0  2  0  0  0  0  0  0
  -31.0150  -23.3310   21.1110 C   0  0  0  0  0  2  0  0  0  0  0  0
  -29.9960  -24.4780   21.0190 C   0  0  0  0  0  2  0  0  0  0  0  0
  -30.6690  -25.8370   20.7540 C   0  0  0  0  0  2  0  0  0  0  0  0
  -29.6860  -27.0150   20.7100 C   0  0  0  0  0  2  0  0  0  0  0  0
  -28.7140  -26.7790   19.6990 O   0  0  0  0  0  0  0  0  0  0  0  0
  -24.6320  -31.6150   23.0160 C   0  0  0  0  0  0  0  0  0  0  0  0
  -27.5330  -27.4830   19.7780 C   0  0  0  0  0  0  0  0  0  0  0  0
  -23.5010  -30.2100   21.3180 C   0  0  0  0  0  3  0  0  0  0  0  0
  -25.0400  -28.8110   19.8420 C   0  0  0  0  0  0  0  0  0  0  0  0
  -25.9940  -30.7300   21.1330 C   0  0  0  0  0  2  0  0  0  0  0  0
  -26.1600  -29.3890   20.4530 C   0  0  0  0  0  0  0  0  0  0  0  0
  -27.4060  -28.7320   20.4290 C   0  0  0  0  0  3  0  0  0  0  0  0
  -26.4030  -26.9170   19.1580 C   0  0  0  0  0  3  0  0  0  0  0  0
  -25.1550  -27.5690   19.1930 C   0  0  0  0  0  3  0  0  0  0  0  0
  -23.7460  -29.5880   19.9170 C   0  0  0  0  0  2  0  0  0  0  0  0
  -24.7260  -30.8660   21.8820 N   0  0  0  0  0  0  0  0  0  0  0  0
  -23.5390  -31.8050   23.5700 O   0  0  0  0  0  0  0  0  0  0  0  0
  -22.9110  -29.1220   22.2420 C   0  0  0  0  0  0  0  0  0  0  0  0
  -21.5910  -28.8980   22.1330 N   0  0  0  0  0  0  0  0  0  0  0  0
  -23.6350  -28.4810   23.0080 O   0  0  0  0  0  0  0  0  0  0  0  0
  -21.0650  -29.4680   21.4850 H   0  0  0  0  0  0  0  0  0  0  0  0
  -18.2620  -27.6160   22.6920 C   0  0  0  0  0  0  0  0  0  0  0  0
  -20.8260  -27.8960   22.8720 C   0  0  0  0  0  3  0  0  0  0  0  0
  -20.9230  -26.5110   22.1920 C   0  0  0  0  0  2  0  0  0  0  0  0
  -19.7820  -26.2410   21.2060 C   0  0  0  0  0  2  0  0  0  0  0  0
  -18.4280  -26.3190   21.9180 C   0  0  0  0  0  2  0  0  0  0  0  0
  -19.3890  -28.3640   23.1260 C   0  0  0  0  0  0  0  0  0  0  0  0
  -19.1810  -29.5810   23.8100 C   0  0  0  0  0  3  0  0  0  0  0  0
  -17.8780  -30.0490   24.0660 C   0  0  0  0  0  3  0  0  0  0  0  0
  -16.7660  -29.2980   23.6470 C   0  0  0  0  0  3  0  0  0  0  0  0
  -16.9590  -28.0820   22.9660 C   0  0  0  0  0  3  0  0  0  0  0  0
  -25.8850  -32.2900   23.6590 C   0  0  0  0  0  3  0  0  0  0  0  0
  -25.5040  -33.6550   24.0400 N   0  0  0  0  0  0  0  0  0  0  0  0
  -25.7770  -34.7480   23.3160 C   0  0  0  0  0  0  0  0  0  0  0  0
  -26.4470  -34.7160   22.2800 O   0  0  0  0  0  0  0  0  0  0  0  0
  -24.9040  -33.7490   24.8470 H   0  0  0  0  0  0  0  0  0  0  0  0
  -23.9530  -36.4540   23.0220 C   0  0  0  0  0  1  0  0  0  0  0  0
  -25.2160  -36.0900   23.8220 C   0  0  0  0  0  3  0  0  0  0  0  0
  -27.3040  -37.0570   24.6780 C   0  0  0  0  0  1  0  0  0  0  0  0
  -26.1870  -37.2020   23.7470 N   0  0  0  0  0  0  0  0  0  0  0  0
  -25.7310  -38.0910   23.9390 H   0  0  0  0  0  0  0  0  0  0  0  0
  -26.4490  -31.4980   24.9020 C   0  0  1  0  0  0  0  0  0  0  0  0
  -25.3760  -31.1600   25.9620 C   0  0  0  0  0  1  0  0  0  0  0  0
  -27.1040  -30.1720   24.4500 C   0  0  0  0  0  1  0  0  0  0  0  0
  -27.5570  -32.3260   25.5930 C   0  0  0  0  0  1  0  0  0  0  0  0
  2  1  1  0
  4  8  2  0
  4  7  1  0
  5  3  1  0
  5  9  1  0
  6  1  1  0
  6  3  2  0
  7  5  2  0
  8  6  1  0
 10 18  1  0
 11 16  1  0
 12 13  1  0
 12 11  1  0
 14 13  1  0
 14 23  1  0
 14 15  1  0
 16 10  1  0
 16 15  1  0
 17 10  2  0
 18  7  1  0
 18 19  1  0
 20 21  2  0
 21 40  1  0
 22 21  1  0
 22 25  1  0
 23 24  1  0
 23 20  1  0
 24 22  2  0
 25 26  1  0
 26 27  2  0
 28 31  1  0
 28 27  1  0
 29 28  2  0
 30 29  1  0
 30 25  2  0
 31 32  1  0
 32 33  1  0
 33 34  2  0
 35 34  1  0
 35 39  1  0
 36 35  2  0
 37 32  2  0
 37 36  1  0
 38 37  1  0
 40 41  1  0
 41 44  1  0
 41 43  1  0
 42 40  2  0
 45 20  1  0
 45 46  1  0
 47 45  1  0
 48 49  1  0
 49  8  1  0
 50  1  1  0
 51 50  1  0
 52 51  1  0
 53 52  1  0
 54 53  1  0
 55 57  1  0
 55 54  1  0
 56 67  2  0
 57 62  1  0
 58 66  1  0
 58 68  1  0
 59 65  1  0
 59 61  1  0
 60 66  1  0
 61 60  1  0
 62 61  2  0
 63 64  1  0
 63 57  2  0
 64 59  2  0
 65 58  1  0
 66 56  1  0
 68 70  2  0
 69 68  1  0
 71 69  1  0
 72 81  2  0
 72 77  1  0
 73 69  1  0
 73 77  1  0
 74 73  1  0
 75 76  1  0
 75 74  1  0
 76 72  1  0
 77 78  2  0
 78 79  1  0
 80 79  2  0
 81 80  1  0
 82 56  1  0
 82 83  1  0
 82 92  1  0
 83 86  1  0
 84 88  1  0
 84 83  1  0
 85 84  2  0
 88 87  1  0
 90 88  1  0
 90 91  1  0
 90 89  1  0
 92 95  1  1
 92 93  1  0
 94 92  1  0
M  ISO  4  10 100  18 100  54 101  55 101
M  END
>  <TORSDO>  (50) 
F 23

>  <SCORE>  (50) 
-9.642

>  <name>  (50) 
49

>  <ligand_id>  (50) 
49

>  <original_smiles>  (50) 
[H]c1c([H])c([H])c2c(c1[H])C([H])([H])C([H])([H])C([H])([H])C2([H])N([H])C(=O)C1([H])N(C(=O)C([H])(N([H])C(=O)C([H])(N([H])C([H])([H])[H])C([H])([H])[H])C(C([H])([H])[H])(C([H])([H])[H])C([H])([H])[H])C([H])([H])c2c([H])c(OC([H])([H])C([H])([H])C([H])([H])C([H])([H])C([H])([H])N([H])c3c([H])c(C([H])([H])[H])c(N([H])C(=O)N4C([H])([H])C([H])([H])C([H])([H])C([H])(n5nc(-c6c([H])c([H])c(Oc7c([H])c([H])c(F)c([H])c7F)c([H])c6[H])c(C(=O)N([H])[H])c5N([H])[H])C4([H])[H])c([H])c3OC([H])([H])[H])c([H])c([H])c2C1([H])[H]

>  <smiles>  (50) 
[H]c1c([H])c([H])c2c(c1[H])C([H])([H])C([H])([H])C([H])([H])C2([H])N([H])C(=O)C1([H])N(C(=O)C([H])(N([H])C(=O)C([H])(N([H])C([H])([H])[H])C([H])([H])[H])C(C([H])([H])[H])(C([H])([H])[H])C([H])([H])[H])C([H])([H])c2c([H])c(OC([H])([H])C([H])([H])C([H])([H])C([H])([H])C([H])([H])N([H])c3c([H])c(C([H])([H])[H])c(N([H])C(=O)N4C([H])([H])C([H])([H])C([H])([H])C([H])(n5nc(-c6c([H])c([H])c(Oc7c([H])c([H])c(F)c([H])c7F)c([H])c6[H])c(C(=O)N([H])[H])c5N([H])[H])C4([H])[H])c([H])c3OC([H])([H])[H])c([H])c([H])c2C1([H])[H]

$$$$
50:0:0
     RDKit          3D

 89 96  0  0  1  0  0  0  0  0999 V2000
  -29.4770  -20.4960   20.1810 O   0  0  0  0  0  0  0  0  0  0  0  0
  -29.2000  -19.0510   20.6230 C   0  0  0  0  0  0  0  0  0  0  0  0
  -28.2840  -18.8080   21.4090 O   0  0  0  0  0  0  0  0  0  0  0  0
  -30.1220  -17.7750   19.9980 C   0  0  0  0  0  3  0  0  0  0  0  0
  -30.6350  -15.0660   20.2460 C   0  0  0  0  0  0  0  0  0  0  0  0
  -30.4970  -12.7410   19.2570 C   0  0  0  0  0  2  0  0  0  0  0  0
  -29.5570  -12.7370   18.0290 C   0  0  0  0  0  2  0  0  0  0  0  0
  -28.0980  -12.5140   18.4660 C   0  0  0  0  0  2  0  0  0  0  0  0
  -27.7000  -13.4090   19.6690 C   0  0  0  0  0  3  0  0  0  0  0  0
  -28.7610  -13.3920   20.7900 C   0  0  0  0  0  2  0  0  0  0  0  0
  -30.0300  -13.8120   20.1830 N   0  0  0  0  0  0  0  0  0  0  0  0
  -31.8370  -15.1200   19.9680 O   0  0  0  0  0  0  0  0  0  0  0  0
  -29.8630  -16.2530   20.3770 N   0  0  0  0  0  0  0  0  0  0  0  0
  -28.9060  -16.0820   20.6470 H   0  0  0  0  0  0  0  0  0  0  0  0
  -25.3100  -13.9610   20.3970 C   0  0  0  0  0  0  0  0  0  0  0  0
  -24.2550  -13.1750   20.7720 C   0  0  0  0  0  0  0  0  0  0  0  0
  -24.7390  -11.8310   20.7550 C   0  0  0  0  0  0  0  0  0  0  0  0
  -26.3650  -13.0950   20.1680 N   0  0  0  0  0  0  0  0  0  0  0  0
  -26.0310  -11.8090   20.4500 N   0  0  0  0  0  0  0  0  0  0  0  0
  -24.0290  -10.5600   20.9560 C   0  0  0  0  0  0  0  0  0  0  0  0
  -24.4600   -9.6150   21.9130 C   0  0  0  0  0  3  0  0  0  0  0  0
  -23.7470   -8.4100   22.1000 C   0  0  0  0  0  3  0  0  0  0  0  0
  -22.5900   -8.1440   21.3310 C   0  0  0  0  0  0  0  0  0  0  0  0
  -22.1790   -9.0770   20.3630 C   0  0  0  0  0  3  0  0  0  0  0  0
  -22.8930  -10.2730   20.1740 C   0  0  0  0  0  3  0  0  0  0  0  0
  -21.8510   -6.9890   21.4260 O   0  0  0  0  0  0  0  0  0  0  0  0
  -21.7810   -6.2730   22.5930 C   0  0  0  0  0  0  0  0  0  0  0  0
  -21.3040   -6.8470   23.7920 C   0  0  0  0  0  3  0  0  0  0  0  0
  -21.1830   -6.0570   24.9520 C   0  0  0  0  0  3  0  0  0  0  0  0
  -21.5300   -4.6920   24.9150 C   0  0  0  0  0  0  0  0  0  0  0  0
  -21.9990   -4.1180   23.7210 C   0  0  0  0  0  3  0  0  0  0  0  0
  -22.1210   -4.9050   22.5630 C   0  0  0  0  0  0  0  0  0  0  0  0
  -22.5550   -4.3420   21.4100 F   0  0  0  0  0  0  0  0  0  0  0  0
  -21.4060   -3.9300   26.0270 F   0  0  0  0  0  0  0  0  0  0  0  0
  -22.8510  -13.6360   21.0320 C   0  0  0  0  0  0  0  0  0  0  0  0
  -22.1320  -12.9420   21.9070 N   0  0  0  0  0  0  0  0  0  0  0  0
  -22.4010  -14.6480   20.4960 O   0  0  0  0  0  0  0  0  0  0  0  0
  -22.5100  -12.1250   22.3620 H   0  0  0  0  0  0  0  0  0  0  0  0
  -21.1900  -13.2340   22.1250 H   0  0  0  0  0  0  0  0  0  0  0  0
  -25.4550  -15.3310   20.2050 N   0  0  0  0  0  0  0  0  0  0  0  0
  -24.6780  -15.9760   20.3110 H   0  0  0  0  0  0  0  0  0  0  0  0
  -26.2860  -15.7770   19.8410 H   0  0  0  0  0  0  0  0  0  0  0  0
  -28.8510  -17.4470   17.7790 C   0  0  0  0  0  1  0  0  0  0  0  0
  -31.3750  -17.2380   17.7810 C   0  0  0  0  0  1  0  0  0  0  0  0
  -30.1620  -17.9100   18.4460 C   0  0  0  0  0  3  0  0  0  0  0  0
  -28.6440  -21.7600   20.5240 C   0  0  0  0  0  3  0  0  0  0  0  0
  -29.0240  -23.3860   20.2150 C   0  0  0  0  0  3  0  0  0  0  0  0
  -27.9750  -24.7060   20.3700 C   0  0  0  0  0  2  0  0  0  0  0  0
  -28.2640  -26.2410   20.2430 O   0  0  0  0  0  0  0  0  0  0  0  0
  -24.6270  -31.9360   23.2410 C   0  0  0  0  0  0  0  0  0  0  0  0
  -27.2040  -27.2230   20.2030 C   0  0  0  0  0  0  0  0  0  0  0  0
  -23.4260  -30.5360   21.6090 C   0  0  0  0  0  3  0  0  0  0  0  0
  -24.8730  -28.9690   20.1780 C   0  0  0  0  0  0  0  0  0  0  0  0
  -25.9790  -30.8090   21.4340 C   0  0  0  0  0  2  0  0  0  0  0  0
  -26.0550  -29.4160   20.7820 C   0  0  0  0  0  0  0  0  0  0  0  0
  -27.2220  -28.5610   20.7750 C   0  0  0  0  0  3  0  0  0  0  0  0
  -25.9950  -26.8850   19.5550 C   0  0  0  0  0  3  0  0  0  0  0  0
  -24.8570  -27.7180   19.5490 C   0  0  0  0  0  3  0  0  0  0  0  0
  -23.6440  -29.8620   20.2290 C   0  0  0  0  0  2  0  0  0  0  0  0
  -24.6980  -31.1150   22.1490 N   0  0  0  0  0  0  0  0  0  0  0  0
  -23.5410  -32.2180   23.7720 O   0  0  0  0  0  0  0  0  0  0  0  0
  -22.7550  -29.5250   22.5730 C   0  0  0  0  0  0  0  0  0  0  0  0
  -21.4280  -29.3440   22.4480 N   0  0  0  0  0  0  0  0  0  0  0  0
  -23.4300  -28.9060   23.3990 O   0  0  0  0  0  0  0  0  0  0  0  0
  -20.9380  -29.8960   21.7580 H   0  0  0  0  0  0  0  0  0  0  0  0
  -18.0540  -28.1250   22.9580 C   0  0  0  0  0  0  0  0  0  0  0  0
  -20.6120  -28.4050   23.2220 C   0  0  0  0  0  3  0  0  0  0  0  0
  -20.7220  -26.9710   22.6530 C   0  0  0  0  0  2  0  0  0  0  0  0
  -19.6220  -26.6380   21.6400 C   0  0  0  0  0  2  0  0  0  0  0  0
  -18.2390  -26.7760   22.2850 C   0  0  0  0  0  2  0  0  0  0  0  0
  -19.1680  -28.8970   23.3850 C   0  0  0  0  0  0  0  0  0  0  0  0
  -18.9390  -30.1580   23.9760 C   0  0  0  0  0  3  0  0  0  0  0  0
  -17.6300  -30.6490   24.1430 C   0  0  0  0  0  3  0  0  0  0  0  0
  -16.5310  -29.8740   23.7320 C   0  0  0  0  0  3  0  0  0  0  0  0
  -16.7440  -28.6140   23.1470 C   0  0  0  0  0  3  0  0  0  0  0  0
  -25.9040  -32.5780   23.8630 C   0  0  0  0  0  3  0  0  0  0  0  0
  -25.5880  -33.9760   24.1930 N   0  0  0  0  0  0  0  0  0  0  0  0
  -25.9090  -35.0320   23.4340 C   0  0  0  0  0  0  0  0  0  0  0  0
  -26.5670  -34.9310   22.3950 O   0  0  0  0  0  0  0  0  0  0  0  0
  -25.0020  -34.1290   25.0010 H   0  0  0  0  0  0  0  0  0  0  0  0
  -24.1700  -36.8220   23.1050 C   0  0  0  0  0  1  0  0  0  0  0  0
  -25.4240  -36.4200   23.8980 C   0  0  0  0  0  3  0  0  0  0  0  0
  -27.5650  -37.3170   24.7000 C   0  0  0  0  0  1  0  0  0  0  0  0
  -26.4510  -37.4770   23.7700 N   0  0  0  0  0  0  0  0  0  0  0  0
  -26.0440  -38.3970   23.9180 H   0  0  0  0  0  0  0  0  0  0  0  0
  -26.4210  -31.8130   25.1440 C   0  0  1  0  0  0  0  0  0  0  0  0
  -25.3260  -31.5780   26.2130 C   0  0  0  0  0  1  0  0  0  0  0  0
  -27.0080  -30.4350   24.7650 C   0  0  0  0  0  1  0  0  0  0  0  0
  -27.5690  -32.6120   25.8030 C   0  0  0  0  0  1  0  0  0  0  0  0
  1 46  1  0
  1  2  1  0
  2  3  2  0
  4 45  1  0
  4 13  1  0
  4  2  1  0
  5 13  1  0
  6 11  1  0
  7  8  1  0
  7  6  1  0
  9  8  1  0
  9 18  1  0
  9 10  1  0
 11  5  1  0
 11 10  1  0
 12  5  2  0
 13 14  1  0
 15 16  2  0
 16 35  1  0
 17 16  1  0
 17 20  1  0
 18 15  1  0
 18 19  1  0
 19 17  2  0
 20 21  1  0
 21 22  2  0
 23 26  1  0
 23 22  1  0
 24 23  2  0
 25 24  1  0
 25 20  2  0
 26 27  1  0
 27 28  1  0
 28 29  2  0
 30 29  1  0
 30 34  1  0
 31 30  2  0
 32 27  2  0
 32 31  1  0
 33 32  1  0
 35 36  1  0
 36 39  1  0
 36 38  1  0
 37 35  2  0
 40 41  1  0
 40 15  1  0
 42 40  1  0
 43 45  1  0
 44 45  1  0
 47 48  1  0
 47 46  2  0
 49 48  1  0
 50 61  2  0
 51 49  1  0
 51 56  1  0
 52 60  1  0
 52 62  1  0
 53 59  1  0
 53 55  1  0
 54 60  1  0
 55 54  1  0
 56 55  2  0
 57 51  2  0
 58 57  1  0
 58 53  2  0
 59 52  1  0
 60 50  1  0
 62 64  2  0
 63 62  1  0
 65 63  1  0
 66 75  2  0
 66 71  1  0
 67 63  1  0
 67 71  1  0
 68 67  1  0
 69 70  1  0
 69 68  1  0
 70 66  1  0
 71 72  2  0
 72 73  1  0
 74 73  2  0
 75 74  1  0
 76 50  1  0
 76 77  1  0
 76 86  1  0
 77 80  1  0
 78 82  1  0
 78 77  1  0
 79 78  2  0
 82 81  1  0
 84 82  1  0
 84 85  1  0
 84 83  1  0
 86 89  1  1
 86 87  1  0
 88 86  1  0
M  ISO  4   5 100  13 100  48 101  49 101
M  END
>  <TORSDO>  (51) 
F 22

>  <SCORE>  (51) 
-12.722

>  <name>  (51) 
50

>  <ligand_id>  (51) 
50

>  <original_smiles>  (51) 
[H]c1c([H])c([H])c2c(c1[H])C([H])([H])C([H])([H])C([H])([H])C2([H])N([H])C(=O)C1([H])N(C(=O)C([H])(N([H])C(=O)C([H])(N([H])C([H])([H])[H])C([H])([H])[H])C(C([H])([H])[H])(C([H])([H])[H])C([H])([H])[H])C([H])([H])c2c([H])c(OC([H])([H])C([H])([H])C([H])([H])OC(=O)C([H])(N([H])C(=O)N3C([H])([H])C([H])([H])C([H])([H])C([H])(n4nc(-c5c([H])c([H])c(Oc6c([H])c([H])c(F)c([H])c6F)c([H])c5[H])c(C(=O)N([H])[H])c4N([H])[H])C3([H])[H])C([H])(C([H])([H])[H])C([H])([H])[H])c([H])c([H])c2C1([H])[H]

>  <smiles>  (51) 
[H]c1c([H])c([H])c2c(c1[H])C([H])([H])C([H])([H])C([H])([H])C2([H])N([H])C(=O)C1([H])N(C(=O)C([H])(N([H])C(=O)C([H])(N([H])C([H])([H])[H])C([H])([H])[H])C(C([H])([H])[H])(C([H])([H])[H])C([H])([H])[H])C([H])([H])c2c([H])c(OC([H])([H])C([H])([H])C([H])([H])OC(=O)C([H])(N([H])C(=O)N3C([H])([H])C([H])([H])C([H])([H])C([H])(n4nc(-c5c([H])c([H])c(Oc6c([H])c([H])c(F)c([H])c6F)c([H])c5[H])c(C(=O)N([H])[H])c4N([H])[H])C3([H])[H])C([H])(C([H])([H])[H])C([H])([H])[H])c([H])c([H])c2C1([H])[H]

$$$$
51:0:0
     RDKit          3D

 96104  0  0  1  0  0  0  0  0999 V2000
  -30.6440  -20.3880   22.8230 C   0  0  0  0  0  2  0  0  0  0  0  0
  -32.1070  -19.8700   20.8150 C   0  0  0  0  0  3  0  0  0  0  0  0
  -32.5140  -19.0160   19.7780 C   0  0  0  0  0  3  0  0  0  0  0  0
  -30.6790  -18.1000   21.6880 C   0  0  0  0  0  3  0  0  0  0  0  0
  -31.1630  -19.4270   21.7600 C   0  0  0  0  0  0  0  0  0  0  0  0
  -31.9700  -17.7200   19.6530 C   0  0  0  0  0  0  0  0  0  0  0  0
  -31.0540  -17.2270   20.6310 C   0  0  0  0  0  0  0  0  0  0  0  0
  -30.8750  -14.7600   20.3240 C   0  0  0  0  0  0  0  0  0  0  0  0
  -30.5160  -12.5540   19.2670 C   0  0  0  0  0  2  0  0  0  0  0  0
  -29.5720  -12.6580   18.0540 C   0  0  0  0  0  2  0  0  0  0  0  0
  -28.1100  -12.4590   18.4990 C   0  0  0  0  0  2  0  0  0  0  0  0
  -27.7410  -13.3450   19.7120 C   0  0  0  0  0  3  0  0  0  0  0  0
  -28.8230  -13.2900   20.8240 C   0  0  0  0  0  2  0  0  0  0  0  0
  -30.1180  -13.6200   20.2080 N   0  0  0  0  0  0  0  0  0  0  0  0
  -32.0830  -14.6930   20.0970 O   0  0  0  0  0  0  0  0  0  0  0  0
  -28.9030  -16.3220   20.1190 C   0  0  0  0  0  1  0  0  0  0  0  0
  -30.2960  -16.0080   20.4570 N   0  0  0  0  0  0  0  0  0  0  0  0
  -25.3640  -13.9740   20.4490 C   0  0  0  0  0  0  0  0  0  0  0  0
  -24.2980  -13.2050   20.8260 C   0  0  0  0  0  0  0  0  0  0  0  0
  -24.7610  -11.8540   20.8020 C   0  0  0  0  0  0  0  0  0  0  0  0
  -26.4050  -13.0840   20.2190 N   0  0  0  0  0  0  0  0  0  0  0  0
  -26.0500  -11.8080   20.4950 N   0  0  0  0  0  0  0  0  0  0  0  0
  -24.0400  -10.5940   20.9940 C   0  0  0  0  0  0  0  0  0  0  0  0
  -24.4710   -9.6400   21.9420 C   0  0  0  0  0  3  0  0  0  0  0  0
  -23.7540   -8.4380   22.1220 C   0  0  0  0  0  3  0  0  0  0  0  0
  -22.5930   -8.1850   21.3540 C   0  0  0  0  0  0  0  0  0  0  0  0
  -22.1830   -9.1280   20.3950 C   0  0  0  0  0  3  0  0  0  0  0  0
  -22.9000  -10.3210   20.2140 C   0  0  0  0  0  3  0  0  0  0  0  0
  -21.8460   -7.0350   21.4440 O   0  0  0  0  0  0  0  0  0  0  0  0
  -21.7840   -6.3090   22.6050 C   0  0  0  0  0  0  0  0  0  0  0  0
  -21.3180   -6.8730   23.8130 C   0  0  0  0  0  3  0  0  0  0  0  0
  -21.2050   -6.0710   24.9660 C   0  0  0  0  0  3  0  0  0  0  0  0
  -21.5460   -4.7060   24.9110 C   0  0  0  0  0  0  0  0  0  0  0  0
  -22.0060   -4.1420   23.7080 C   0  0  0  0  0  3  0  0  0  0  0  0
  -22.1210   -4.9420   22.5570 C   0  0  0  0  0  0  0  0  0  0  0  0
  -22.5430   -4.3900   21.3940 F   0  0  0  0  0  0  0  0  0  0  0  0
  -21.4300   -3.9330   26.0170 F   0  0  0  0  0  0  0  0  0  0  0  0
  -22.8990  -13.6820   21.0920 C   0  0  0  0  0  0  0  0  0  0  0  0
  -22.1730  -12.9920   21.9620 N   0  0  0  0  0  0  0  0  0  0  0  0
  -22.4580  -14.7010   20.5610 O   0  0  0  0  0  0  0  0  0  0  0  0
  -22.5430  -12.1680   22.4140 H   0  0  0  0  0  0  0  0  0  0  0  0
  -21.2340  -13.2920   22.1830 H   0  0  0  0  0  0  0  0  0  0  0  0
  -25.5230  -15.3430   20.2580 N   0  0  0  0  0  0  0  0  0  0  0  0
  -24.7550  -15.9970   20.3710 H   0  0  0  0  0  0  0  0  0  0  0  0
  -26.3720  -15.7830   19.9300 H   0  0  0  0  0  0  0  0  0  0  0  0
  -32.3140  -16.9910   18.5170 N   0  0  0  0  0  0  0  0  0  0  0  0
  -33.1620  -17.2890   18.0480 H   0  0  0  0  0  0  0  0  0  0  0  0
  -32.3450  -15.9880   18.7080 H   0  0  0  0  0  0  0  0  0  0  0  0
  -29.3580  -21.1410   22.4090 C   0  0  0  0  0  2  0  0  0  0  0  0
  -29.6430  -23.5830   21.9560 C   0  0  0  0  0  0  0  0  0  0  0  0
  -29.5820  -22.3040   21.5390 N   0  0  0  0  0  0  0  0  0  0  0  0
  -29.6880  -23.8720   23.1530 O   0  0  0  0  0  0  0  0  0  0  0  0
  -29.5860  -22.1300   20.5420 H   0  0  0  0  0  0  0  0  0  0  0  0
  -29.6300  -24.7000   20.8930 C   0  0  0  0  0  2  0  0  0  0  0  0
  -28.7650  -25.9190   21.3030 C   0  0  0  0  0  2  0  0  0  0  0  0
  -28.7470  -26.9520   20.3050 O   0  0  0  0  0  0  0  0  0  0  0  0
  -24.7160  -32.0000   23.3040 C   0  0  0  0  0  0  0  0  0  0  0  0
  -27.5700  -27.6640   20.2820 C   0  0  0  0  0  0  0  0  0  0  0  0
  -23.5860  -30.5510   21.6450 C   0  0  0  0  0  3  0  0  0  0  0  0
  -25.1200  -29.0680   20.2440 C   0  0  0  0  0  0  0  0  0  0  0  0
  -26.0970  -31.0090   21.4800 C   0  0  0  0  0  2  0  0  0  0  0  0
  -26.2460  -29.6410   20.8480 C   0  0  0  0  0  0  0  0  0  0  0  0
  -27.4780  -28.9470   20.8640 C   0  0  0  0  0  3  0  0  0  0  0  0
  -26.4320  -27.1010   19.6690 C   0  0  0  0  0  3  0  0  0  0  0  0
  -25.2070  -27.7970   19.6500 C   0  0  0  0  0  3  0  0  0  0  0  0
  -23.8400  -29.8760   20.2700 C   0  0  0  0  0  2  0  0  0  0  0  0
  -24.8160  -31.2020   22.2030 N   0  0  0  0  0  0  0  0  0  0  0  0
  -23.6190  -32.2290   23.8310 O   0  0  0  0  0  0  0  0  0  0  0  0
  -22.9590  -29.5080   22.5990 C   0  0  0  0  0  0  0  0  0  0  0  0
  -21.6440  -29.2780   22.4550 N   0  0  0  0  0  0  0  0  0  0  0  0
  -23.6550  -28.9070   23.4220 O   0  0  0  0  0  0  0  0  0  0  0  0
  -21.1420  -29.8180   21.7630 H   0  0  0  0  0  0  0  0  0  0  0  0
  -18.3090  -27.9680   22.9090 C   0  0  0  0  0  0  0  0  0  0  0  0
  -20.8520  -28.3130   23.2160 C   0  0  0  0  0  3  0  0  0  0  0  0
  -21.0120  -26.8860   22.6410 C   0  0  0  0  0  2  0  0  0  0  0  0
  -19.9350  -26.5260   21.6120 C   0  0  0  0  0  2  0  0  0  0  0  0
  -18.5410  -26.6240   22.2370 C   0  0  0  0  0  2  0  0  0  0  0  0
  -19.3940  -28.7660   23.3550 C   0  0  0  0  0  0  0  0  0  0  0  0
  -19.1240  -30.0220   23.9420 C   0  0  0  0  0  3  0  0  0  0  0  0
  -17.8010  -30.4790   24.0890 C   0  0  0  0  0  3  0  0  0  0  0  0
  -16.7290  -29.6770   23.6610 C   0  0  0  0  0  3  0  0  0  0  0  0
  -16.9840  -28.4230   23.0760 C   0  0  0  0  0  3  0  0  0  0  0  0
  -25.9710  -32.6770   23.9410 C   0  0  0  0  0  3  0  0  0  0  0  0
  -25.6180  -34.0720   24.2340 N   0  0  0  0  0  0  0  0  0  0  0  0
  -25.9360  -35.1160   23.4560 C   0  0  0  0  0  0  0  0  0  0  0  0
  -26.6280  -35.0080   22.4400 O   0  0  0  0  0  0  0  0  0  0  0  0
  -25.0050  -34.2280   25.0200 H   0  0  0  0  0  0  0  0  0  0  0  0
  -24.1680  -36.8530   23.0230 C   0  0  0  0  0  1  0  0  0  0  0  0
  -25.4000  -36.5000   23.8720 C   0  0  0  0  0  3  0  0  0  0  0  0
  -27.4890  -37.4630   24.7330 C   0  0  0  0  0  1  0  0  0  0  0  0
  -26.4070  -37.5780   23.7590 N   0  0  0  0  0  0  0  0  0  0  0  0
  -25.9710  -38.4900   23.8740 H   0  0  0  0  0  0  0  0  0  0  0  0
  -26.4820  -31.9440   25.2410 C   0  0  1  0  0  0  0  0  0  0  0  0
  -25.3730  -31.6930   26.2880 C   0  0  0  0  0  1  0  0  0  0  0  0
  -27.1150  -30.5780   24.8850 C   0  0  0  0  0  1  0  0  0  0  0  0
  -27.5920  -32.7850   25.9150 C   0  0  0  0  0  1  0  0  0  0  0  0
  2  5  1  0
  3  2  2  0
  4  5  2  0
  5  1  1  0
  6  3  1  0
  6  7  2  0
  7  4  1  0
  8 17  1  0
  9 14  1  0
 10 11  1  0
 10  9  1  0
 12 11  1  0
 12 21  1  0
 12 13  1  0
 14  8  1  0
 14 13  1  0
 15  8  2  0
 16 17  1  0
 17  7  1  0
 18 19  2  0
 19 38  1  0
 20 19  1  0
 20 23  1  0
 21 18  1  0
 21 22  1  0
 22 20  2  0
 23 24  1  0
 24 25  2  0
 26 29  1  0
 26 25  1  0
 27 26  2  0
 28 27  1  0
 28 23  2  0
 29 30  1  0
 30 31  1  0
 31 32  2  0
 33 32  1  0
 33 37  1  0
 34 33  2  0
 35 30  2  0
 35 34  1  0
 36 35  1  0
 38 39  1  0
 39 42  1  0
 39 41  1  0
 40 38  2  0
 43 44  1  0
 43 18  1  0
 45 43  1  0
 46 48  1  0
 46  6  1  0
 47 46  1  0
 49  1  1  0
 50 52  2  0
 51 50  1  0
 51 49  1  0
 53 51  1  0
 54 55  1  0
 54 50  1  0
 56 55  1  0
 57 68  2  0
 58 56  1  0
 58 63  1  0
 59 67  1  0
 59 69  1  0
 60 66  1  0
 60 62  1  0
 61 67  1  0
 62 63  2  0
 62 61  1  0
 64 58  2  0
 65 64  1  0
 65 60  2  0
 66 59  1  0
 67 57  1  0
 69 71  2  0
 70 69  1  0
 72 70  1  0
 73 82  2  0
 73 78  1  0
 74 70  1  0
 74 78  1  0
 75 74  1  0
 76 77  1  0
 76 75  1  0
 77 73  1  0
 78 79  2  0
 79 80  1  0
 81 80  2  0
 82 81  1  0
 83 57  1  0
 83 84  1  0
 83 93  1  0
 84 87  1  0
 85 89  1  0
 85 84  1  0
 86 85  2  0
 89 88  1  0
 91 89  1  0
 91 92  1  0
 91 90  1  0
 93 96  1  1
 93 94  1  0
 95 93  1  0
M  ISO  4   8 100  17 100  55 101  56 101
M  END
>  <TORSDO>  (52) 
F 22

>  <SCORE>  (52) 
-13.227

>  <name>  (52) 
51

>  <ligand_id>  (52) 
51

>  <original_smiles>  (52) 
[H]c1c([H])c([H])c2c(c1[H])C([H])([H])C([H])([H])C([H])([H])C2([H])N([H])C(=O)C1([H])N(C(=O)C([H])(N([H])C(=O)C([H])(N([H])C([H])([H])[H])C([H])([H])[H])C(C([H])([H])[H])(C([H])([H])[H])C([H])([H])[H])C([H])([H])c2c([H])c(OC([H])([H])C([H])([H])C(=O)N([H])C([H])([H])C([H])([H])c3c([H])c([H])c(N([H])[H])c(N(C(=O)N4C([H])([H])C([H])([H])C([H])([H])C([H])(n5nc(-c6c([H])c([H])c(Oc7c([H])c([H])c(F)c([H])c7F)c([H])c6[H])c(C(=O)N([H])[H])c5N([H])[H])C4([H])[H])C([H])([H])[H])c3[H])c([H])c([H])c2C1([H])[H]

>  <smiles>  (52) 
[H]c1c([H])c([H])c2c(c1[H])C([H])([H])C([H])([H])C([H])([H])C2([H])N([H])C(=O)C1([H])N(C(=O)C([H])(N([H])C(=O)C([H])(N([H])C([H])([H])[H])C([H])([H])[H])C(C([H])([H])[H])(C([H])([H])[H])C([H])([H])[H])C([H])([H])c2c([H])c(OC([H])([H])C([H])([H])C(=O)N([H])C([H])([H])C([H])([H])c3c([H])c([H])c(N([H])[H])c(N(C(=O)N4C([H])([H])C([H])([H])C([H])([H])C([H])(n5nc(-c6c([H])c([H])c(Oc7c([H])c([H])c(F)c([H])c7F)c([H])c6[H])c(C(=O)N([H])[H])c5N([H])[H])C4([H])[H])C([H])([H])[H])c3[H])c([H])c([H])c2C1([H])[H]

$$$$
52:0:0
     RDKit          3D

 92100  0  0  1  0  0  0  0  0999 V2000
  -30.5610  -18.1210   21.7850 C   0  0  0  0  0  3  0  0  0  0  0  0
  -29.6700  -19.2580   19.8340 C   0  0  0  0  0  0  0  0  0  0  0  0
  -30.1210  -17.9570   20.4570 C   0  0  0  0  0  0  0  0  0  0  0  0
  -29.6690  -20.6260   20.4920 C   0  0  0  0  0  0  0  0  0  0  0  0
  -30.5180  -19.3680   22.4560 C   0  0  0  0  0  0  0  0  0  0  0  0
  -30.0780  -20.5690   21.8450 C   0  0  0  0  0  0  0  0  0  0  0  0
  -29.1310  -19.1400   18.4190 C   0  0  0  0  0  1  0  0  0  0  0  0
  -30.9210  -19.4130   23.7490 F   0  0  0  0  0  0  0  0  0  0  0  0
  -30.1070  -21.7110   22.5760 F   0  0  0  0  0  0  0  0  0  0  0  0
  -30.7840  -15.2660   19.9950 C   0  0  0  0  0  0  0  0  0  0  0  0
  -30.6220  -12.9220   18.9700 C   0  0  0  0  0  2  0  0  0  0  0  0
  -29.6330  -12.8670   17.7820 C   0  0  0  0  0  2  0  0  0  0  0  0
  -28.1900  -12.6520   18.2780 C   0  0  0  0  0  2  0  0  0  0  0  0
  -27.8360  -13.5670   19.4770 C   0  0  0  0  0  3  0  0  0  0  0  0
  -28.9380  -13.5740   20.5540 C   0  0  0  0  0  2  0  0  0  0  0  0
  -30.1670  -14.0130   19.8830 N   0  0  0  0  0  0  0  0  0  0  0  0
  -32.0070  -15.2830   19.8090 O   0  0  0  0  0  0  0  0  0  0  0  0
  -30.0050  -16.4830   19.9510 N   0  0  0  0  0  0  0  0  0  0  0  0
  -29.0730  -16.2750   19.6290 H   0  0  0  0  0  0  0  0  0  0  0  0
  -25.5000  -14.1710   20.3190 C   0  0  0  0  0  0  0  0  0  0  0  0
  -24.4380  -13.4080   20.7160 C   0  0  0  0  0  0  0  0  0  0  0  0
  -24.8830  -12.0510   20.6580 C   0  0  0  0  0  0  0  0  0  0  0  0
  -26.5200  -13.2790   20.0310 N   0  0  0  0  0  0  0  0  0  0  0  0
  -26.1610  -11.9980   20.3040 N   0  0  0  0  0  0  0  0  0  0  0  0
  -24.1450  -10.7980   20.8610 C   0  0  0  0  0  0  0  0  0  0  0  0
  -24.5590   -9.8420   21.8140 C   0  0  0  0  0  3  0  0  0  0  0  0
  -23.8200   -8.6550   22.0030 C   0  0  0  0  0  3  0  0  0  0  0  0
  -22.6530   -8.4150   21.2390 C   0  0  0  0  0  0  0  0  0  0  0  0
  -22.2570   -9.3590   20.2760 C   0  0  0  0  0  3  0  0  0  0  0  0
  -22.9970  -10.5380   20.0850 C   0  0  0  0  0  3  0  0  0  0  0  0
  -21.8860   -7.2780   21.3380 O   0  0  0  0  0  0  0  0  0  0  0  0
  -21.7990   -6.5680   22.5080 C   0  0  0  0  0  0  0  0  0  0  0  0
  -21.2860   -7.1410   23.6920 C   0  0  0  0  0  3  0  0  0  0  0  0
  -21.1510   -6.3540   24.8530 C   0  0  0  0  0  3  0  0  0  0  0  0
  -21.5180   -4.9960   24.8310 C   0  0  0  0  0  0  0  0  0  0  0  0
  -22.0230   -4.4220   23.6510 C   0  0  0  0  0  3  0  0  0  0  0  0
  -22.1610   -5.2060   22.4920 C   0  0  0  0  0  0  0  0  0  0  0  0
  -22.6290   -4.6430   21.3530 F   0  0  0  0  0  0  0  0  0  0  0  0
  -21.3800   -4.2370   25.9430 F   0  0  0  0  0  0  0  0  0  0  0  0
  -23.0570  -13.9020   21.0330 C   0  0  0  0  0  0  0  0  0  0  0  0
  -22.3470  -13.2130   21.9170 N   0  0  0  0  0  0  0  0  0  0  0  0
  -22.6180  -14.9370   20.5290 O   0  0  0  0  0  0  0  0  0  0  0  0
  -22.7160  -12.3760   22.3440 H   0  0  0  0  0  0  0  0  0  0  0  0
  -21.4220  -13.5270   22.1730 H   0  0  0  0  0  0  0  0  0  0  0  0
  -25.6740  -15.5420   20.1510 N   0  0  0  0  0  0  0  0  0  0  0  0
  -24.9190  -16.2000   20.3100 H   0  0  0  0  0  0  0  0  0  0  0  0
  -26.5110  -15.9830   19.7960 H   0  0  0  0  0  0  0  0  0  0  0  0
  -30.4380  -22.3130   18.8760 C   0  0  0  0  0  1  0  0  0  0  0  0
  -29.4720  -22.0220   19.9300 N   0  0  0  0  0  0  0  0  0  0  0  0
  -28.4890  -23.2480   20.2090 C   0  0  0  0  0  2  0  0  0  0  0  0
  -28.8440  -24.8400   20.7680 C   0  0  0  0  0  2  0  0  0  0  0  0
  -28.6610  -26.3350   20.2630 O   0  0  0  0  0  0  0  0  0  0  0  0
  -24.7210  -31.9110   23.2900 C   0  0  0  0  0  0  0  0  0  0  0  0
  -27.5260  -27.2410   20.3390 C   0  0  0  0  0  0  0  0  0  0  0  0
  -23.6060  -30.4670   21.6360 C   0  0  0  0  0  3  0  0  0  0  0  0
  -25.1350  -28.9220   20.2560 C   0  0  0  0  0  0  0  0  0  0  0  0
  -26.1520  -30.8160   21.5150 C   0  0  0  0  0  2  0  0  0  0  0  0
  -26.2910  -29.4140   20.8770 C   0  0  0  0  0  0  0  0  0  0  0  0
  -27.4880  -28.5940   20.8890 C   0  0  0  0  0  3  0  0  0  0  0  0
  -26.3380  -26.8510   19.6910 C   0  0  0  0  0  3  0  0  0  0  0  0
  -25.1740  -27.6550   19.6470 C   0  0  0  0  0  3  0  0  0  0  0  0
  -23.8780  -29.7830   20.2680 C   0  0  0  0  0  2  0  0  0  0  0  0
  -24.8460  -31.0890   22.2020 N   0  0  0  0  0  0  0  0  0  0  0  0
  -23.6160  -32.1570   23.7980 O   0  0  0  0  0  0  0  0  0  0  0  0
  -22.9440  -29.4420   22.5920 C   0  0  0  0  0  0  0  0  0  0  0  0
  -21.6330  -29.1980   22.4240 N   0  0  0  0  0  0  0  0  0  0  0  0
  -23.6180  -28.8660   23.4510 O   0  0  0  0  0  0  0  0  0  0  0  0
  -21.1430  -29.7150   21.7070 H   0  0  0  0  0  0  0  0  0  0  0  0
  -18.3100  -27.8040   22.8160 C   0  0  0  0  0  0  0  0  0  0  0  0
  -20.8360  -28.2260   23.1800 C   0  0  0  0  0  3  0  0  0  0  0  0
  -21.0460  -26.7930   22.6380 C   0  0  0  0  0  2  0  0  0  0  0  0
  -20.0070  -26.3860   21.5880 C   0  0  0  0  0  2  0  0  0  0  0  0
  -18.5940  -26.4580   22.1730 C   0  0  0  0  0  2  0  0  0  0  0  0
  -19.3630  -28.6410   23.2740 C   0  0  0  0  0  0  0  0  0  0  0  0
  -19.0420  -29.8970   23.8350 C   0  0  0  0  0  3  0  0  0  0  0  0
  -17.7040  -30.3190   23.9410 C   0  0  0  0  0  3  0  0  0  0  0  0
  -16.6660  -29.4810   23.4990 C   0  0  0  0  0  3  0  0  0  0  0  0
  -16.9690  -28.2260   22.9420 C   0  0  0  0  0  3  0  0  0  0  0  0
  -25.9610  -32.5990   23.9400 C   0  0  0  0  0  3  0  0  0  0  0  0
  -26.4420  -31.8850   25.2650 C   0  0  1  0  0  0  0  0  0  0  0  0
  -25.3120  -31.6470   26.2930 C   0  0  0  0  0  1  0  0  0  0  0  0
  -27.0810  -30.5140   24.9460 C   0  0  0  0  0  1  0  0  0  0  0  0
  -27.5400  -32.7350   25.9470 C   0  0  0  0  0  1  0  0  0  0  0  0
  -25.6030  -34.0000   24.2190 N   0  0  0  0  0  0  0  0  0  0  0  0
  -25.9220  -35.0410   23.4380 C   0  0  0  0  0  0  0  0  0  0  0  0
  -26.6110  -34.9240   22.4210 O   0  0  0  0  0  0  0  0  0  0  0  0
  -24.9870  -34.1600   25.0020 H   0  0  0  0  0  0  0  0  0  0  0  0
  -24.1550  -36.7820   23.0070 C   0  0  0  0  0  1  0  0  0  0  0  0
  -25.3940  -36.4310   23.8470 C   0  0  0  0  0  3  0  0  0  0  0  0
  -27.4850  -37.4050   24.6880 C   0  0  0  0  0  1  0  0  0  0  0  0
  -26.4000  -37.5070   23.7160 N   0  0  0  0  0  0  0  0  0  0  0  0
  -25.9670  -38.4210   23.8190 H   0  0  0  0  0  0  0  0  0  0  0  0
  1  5  1  0
  2  3  1  0
  2  4  2  0
  3  1  2  0
  4  6  1  0
  5  8  1  0
  6  5  2  0
  6  9  1  0
  7  2  1  0
 11 16  1  0
 12 13  1  0
 12 11  1  0
 14 13  1  0
 14 23  1  0
 14 15  1  0
 16 10  1  0
 16 15  1  0
 17 10  2  0
 18 10  1  0
 18  3  1  0
 19 18  1  0
 20 21  2  0
 21 40  1  0
 22 21  1  0
 22 25  1  0
 23 24  1  0
 23 20  1  0
 24 22  2  0
 25 26  1  0
 26 27  2  0
 28 31  1  0
 28 27  1  0
 29 28  2  0
 30 29  1  0
 30 25  2  0
 31 32  1  0
 32 33  1  0
 33 34  2  0
 35 34  1  0
 35 39  1  0
 36 35  2  0
 37 32  2  0
 37 36  1  0
 38 37  1  0
 40 41  1  0
 41 44  1  0
 41 43  1  0
 42 40  2  0
 45 46  1  0
 45 20  1  0
 47 45  1  0
 48 49  1  0
 49 50  1  0
 49  4  1  0
 50 51  1  0
 52 54  1  0
 52 51  1  0
 53 64  2  0
 54 59  1  0
 55 63  1  0
 55 65  1  0
 56 62  1  0
 56 58  1  0
 57 63  1  0
 58 59  2  0
 58 57  1  0
 60 54  2  0
 61 60  1  0
 61 56  2  0
 62 55  1  0
 63 53  1  0
 65 67  2  0
 66 65  1  0
 68 66  1  0
 69 78  2  0
 69 74  1  0
 70 66  1  0
 70 74  1  0
 71 70  1  0
 72 73  1  0
 72 71  1  0
 73 69  1  0
 74 75  2  0
 75 76  1  0
 77 76  2  0
 78 77  1  0
 79 53  1  0
 79 84  1  0
 79 80  1  0
 80 83  1  1
 80 81  1  0
 82 80  1  0
 84 87  1  0
 85 89  1  0
 85 84  1  0
 86 85  2  0
 89 88  1  0
 91 92  1  0
 91 89  1  0
 91 90  1  0
M  ISO  4  10 100  18 100  51 101  52 101
M  END
>  <TORSDO>  (53) 
F 19

>  <SCORE>  (53) 
-14.450

>  <name>  (53) 
52

>  <ligand_id>  (53) 
52

>  <original_smiles>  (53) 
[H]c1c([H])c([H])c2c(c1[H])C([H])([H])C([H])([H])C([H])([H])C2([H])N([H])C(=O)C1([H])N(C(=O)C([H])(N([H])C(=O)C([H])(N([H])C([H])([H])[H])C([H])([H])[H])C(C([H])([H])[H])(C([H])([H])[H])C([H])([H])[H])C([H])([H])c2c([H])c(OC([H])([H])C([H])([H])N(c3c(F)c(F)c([H])c(N([H])C(=O)N4C([H])([H])C([H])([H])C([H])([H])C([H])(n5nc(-c6c([H])c([H])c(Oc7c([H])c([H])c(F)c([H])c7F)c([H])c6[H])c(C(=O)N([H])[H])c5N([H])[H])C4([H])[H])c3C([H])([H])[H])C([H])([H])[H])c([H])c([H])c2C1([H])[H]

>  <smiles>  (53) 
[H]c1c([H])c([H])c2c(c1[H])C([H])([H])C([H])([H])C([H])([H])C2([H])N([H])C(=O)C1([H])N(C(=O)C([H])(N([H])C(=O)C([H])(N([H])C([H])([H])[H])C([H])([H])[H])C(C([H])([H])[H])(C([H])([H])[H])C([H])([H])[H])C([H])([H])c2c([H])c(OC([H])([H])C([H])([H])N(c3c(F)c(F)c([H])c(N([H])C(=O)N4C([H])([H])C([H])([H])C([H])([H])C([H])(n5nc(-c6c([H])c([H])c(Oc7c([H])c([H])c(F)c([H])c7F)c([H])c6[H])c(C(=O)N([H])[H])c5N([H])[H])C4([H])[H])c3C([H])([H])[H])C([H])([H])[H])c([H])c([H])c2C1([H])[H]

$$$$
53:0:0
     RDKit          3D

 94102  0  0  1  0  0  0  0  0999 V2000
  -31.1200  -17.1660   18.6870 C   0  0  0  0  0  3  0  0  0  0  0  0
  -31.0370  -18.5470   18.4450 C   0  0  0  0  0  3  0  0  0  0  0  0
  -30.4200  -18.9220   20.7590 C   0  0  0  0  0  3  0  0  0  0  0  0
  -30.4910  -17.5300   21.0200 C   0  0  0  0  0  0  0  0  0  0  0  0
  -30.8540  -16.6340   19.9740 C   0  0  0  0  0  0  0  0  0  0  0  0
  -30.6840  -19.4410   19.4690 C   0  0  0  0  0  0  0  0  0  0  0  0
  -31.3880  -14.2520   19.4480 C   0  0  0  0  0  0  0  0  0  0  0  0
  -30.7310  -12.2610   18.1690 C   0  0  0  0  0  2  0  0  0  0  0  0
  -29.6460  -12.6860   17.1570 C   0  0  0  0  0  2  0  0  0  0  0  0
  -28.2440  -12.6290   17.7960 C   0  0  0  0  0  2  0  0  0  0  0  0
  -28.1840  -13.3440   19.1730 C   0  0  0  0  0  3  0  0  0  0  0  0
  -29.3600  -12.8950   20.0720 C   0  0  0  0  0  2  0  0  0  0  0  0
  -30.6150  -13.1400   19.3410 N   0  0  0  0  0  0  0  0  0  0  0  0
  -32.4370  -14.4090   18.8160 O   0  0  0  0  0  0  0  0  0  0  0  0
  -30.8670  -15.2220   20.2170 N   0  0  0  0  0  0  0  0  0  0  0  0
  -30.1700  -14.9020   20.8750 H   0  0  0  0  0  0  0  0  0  0  0  0
  -25.9620  -14.0690   20.2540 C   0  0  0  0  0  0  0  0  0  0  0  0
  -24.9020  -13.3500   20.7370 C   0  0  0  0  0  0  0  0  0  0  0  0
  -25.2490  -11.9740   20.5660 C   0  0  0  0  0  0  0  0  0  0  0  0
  -26.8940  -13.1350   19.8290 N   0  0  0  0  0  0  0  0  0  0  0  0
  -26.4750  -11.8670   20.0690 N   0  0  0  0  0  0  0  0  0  0  0  0
  -24.4650  -10.7540   20.7950 C   0  0  0  0  0  0  0  0  0  0  0  0
  -24.9100   -9.7440   21.6750 C   0  0  0  0  0  3  0  0  0  0  0  0
  -24.1290   -8.5870   21.8910 C   0  0  0  0  0  3  0  0  0  0  0  0
  -22.8890   -8.4350   21.2280 C   0  0  0  0  0  0  0  0  0  0  0  0
  -22.4620   -9.4330   20.3340 C   0  0  0  0  0  3  0  0  0  0  0  0
  -23.2420  -10.5800   20.1160 C   0  0  0  0  0  3  0  0  0  0  0  0
  -22.0760   -7.3350   21.3570 O   0  0  0  0  0  0  0  0  0  0  0  0
  -21.9940   -6.6340   22.5340 C   0  0  0  0  0  0  0  0  0  0  0  0
  -21.5930   -7.2480   23.7400 C   0  0  0  0  0  3  0  0  0  0  0  0
  -21.4560   -6.4750   24.9110 C   0  0  0  0  0  3  0  0  0  0  0  0
  -21.7110   -5.0920   24.8760 C   0  0  0  0  0  0  0  0  0  0  0  0
  -22.1050   -4.4780   23.6750 C   0  0  0  0  0  3  0  0  0  0  0  0
  -22.2440   -5.2470   22.5060 C   0  0  0  0  0  0  0  0  0  0  0  0
  -22.6040   -4.6470   21.3450 F   0  0  0  0  0  0  0  0  0  0  0  0
  -21.5710   -4.3470   25.9990 F   0  0  0  0  0  0  0  0  0  0  0  0
  -23.6000  -13.9010   21.2410 C   0  0  0  0  0  0  0  0  0  0  0  0
  -22.9620  -13.2080   22.1790 N   0  0  0  0  0  0  0  0  0  0  0  0
  -23.1620  -14.9790   20.8390 O   0  0  0  0  0  0  0  0  0  0  0  0
  -23.3310  -12.3340   22.5230 H   0  0  0  0  0  0  0  0  0  0  0  0
  -22.0930  -13.5560   22.5570 H   0  0  0  0  0  0  0  0  0  0  0  0
  -26.2010  -15.4340   20.1230 N   0  0  0  0  0  0  0  0  0  0  0  0
  -25.5170  -16.1320   20.3900 H   0  0  0  0  0  0  0  0  0  0  0  0
  -27.0370  -15.8330   19.7180 H   0  0  0  0  0  0  0  0  0  0  0  0
  -30.1780  -17.0190   22.4270 C   0  0  1  0  0  0  0  0  0  0  0  0
  -29.5870  -17.9470   23.1820 F   0  0  0  0  0  0  0  0  0  0  0  0
  -29.3630  -15.9640   22.3700 F   0  0  0  0  0  0  0  0  0  0  0  0
  -31.3070  -16.6490   23.0310 F   0  0  0  0  0  0  0  0  0  0  0  0
  -30.6140  -20.7730   19.1220 O   0  0  0  0  0  0  0  0  0  0  0  0
  -30.1370  -21.7250   20.0670 C   0  0  0  0  0  2  0  0  0  0  0  0
  -30.1850  -23.0970   19.3750 C   0  0  0  0  0  2  0  0  0  0  0  0
  -29.6560  -24.2660   20.2240 C   0  0  0  0  0  2  0  0  0  0  0  0
  -29.8520  -25.6200   19.5160 C   0  0  0  0  0  2  0  0  0  0  0  0
  -29.4910  -26.7150   20.3550 O   0  0  0  0  0  0  0  0  0  0  0  0
  -25.0500  -31.3980   23.2930 C   0  0  0  0  0  0  0  0  0  0  0  0
  -28.2320  -27.2730   20.2850 C   0  0  0  0  0  0  0  0  0  0  0  0
  -24.0640  -29.9560   21.5400 C   0  0  0  0  0  3  0  0  0  0  0  0
  -25.7200  -28.5690   20.1840 C   0  0  0  0  0  0  0  0  0  0  0  0
  -26.5580  -30.5110   21.5200 C   0  0  0  0  0  2  0  0  0  0  0  0
  -26.7890  -29.1680   20.8600 C   0  0  0  0  0  0  0  0  0  0  0  0
  -28.0410  -28.5230   20.9130 C   0  0  0  0  0  3  0  0  0  0  0  0
  -27.1380  -26.6710   19.6200 C   0  0  0  0  0  3  0  0  0  0  0  0
  -25.8870  -27.3160   19.5660 C   0  0  0  0  0  3  0  0  0  0  0  0
  -24.4120  -29.3280   20.1630 C   0  0  0  0  0  2  0  0  0  0  0  0
  -25.2370  -30.6370   22.1780 N   0  0  0  0  0  0  0  0  0  0  0  0
  -23.9180  -31.5740   23.7660 O   0  0  0  0  0  0  0  0  0  0  0  0
  -23.4330  -28.8620   22.4320 C   0  0  0  0  0  0  0  0  0  0  0  0
  -22.1540  -28.5450   22.1730 N   0  0  0  0  0  0  0  0  0  0  0  0
  -24.0950  -28.3020   23.3100 O   0  0  0  0  0  0  0  0  0  0  0  0
  -21.6790  -29.0570   21.4430 H   0  0  0  0  0  0  0  0  0  0  0  0
  -18.9030  -26.9750   22.2950 C   0  0  0  0  0  0  0  0  0  0  0  0
  -21.3670  -27.5190   22.8560 C   0  0  0  0  0  3  0  0  0  0  0  0
  -21.6960  -26.1110   22.3110 C   0  0  0  0  0  2  0  0  0  0  0  0
  -20.7620  -25.6670   21.1820 C   0  0  0  0  0  2  0  0  0  0  0  0
  -19.3070  -25.6540   21.6610 C   0  0  0  0  0  2  0  0  0  0  0  0
  -19.8720  -27.8580   22.8410 C   0  0  0  0  0  0  0  0  0  0  0  0
  -19.4470  -29.0900   23.3860 C   0  0  0  0  0  3  0  0  0  0  0  0
  -18.0840  -29.4400   23.3940 C   0  0  0  0  0  3  0  0  0  0  0  0
  -17.1280  -28.5560   22.8660 C   0  0  0  0  0  3  0  0  0  0  0  0
  -17.5370  -27.3250   22.3220 C   0  0  0  0  0  3  0  0  0  0  0  0
  -26.2430  -32.1040   24.0120 C   0  0  0  0  0  3  0  0  0  0  0  0
  -25.8400  -33.4920   24.2740 N   0  0  0  0  0  0  0  0  0  0  0  0
  -26.1900  -34.5410   23.5190 C   0  0  0  0  0  0  0  0  0  0  0  0
  -26.9550  -34.4470   22.5550 O   0  0  0  0  0  0  0  0  0  0  0  0
  -25.1680  -33.6360   25.0140 H   0  0  0  0  0  0  0  0  0  0  0  0
  -24.4080  -36.2280   22.9690 C   0  0  0  0  0  1  0  0  0  0  0  0
  -25.5970  -35.9130   23.8910 C   0  0  0  0  0  3  0  0  0  0  0  0
  -27.6050  -36.9330   24.8680 C   0  0  0  0  0  1  0  0  0  0  0  0
  -26.5810  -37.0160   23.8300 N   0  0  0  0  0  0  0  0  0  0  0  0
  -26.1180  -37.9170   23.9130 H   0  0  0  0  0  0  0  0  0  0  0  0
  -26.6770  -31.3860   25.3470 C   0  0  1  0  0  0  0  0  0  0  0  0
  -25.5040  -31.1150   26.3180 C   0  0  0  0  0  1  0  0  0  0  0  0
  -27.3590  -30.0320   25.0410 C   0  0  0  0  0  1  0  0  0  0  0  0
  -27.7240  -32.2480   26.0920 C   0  0  0  0  0  1  0  0  0  0  0  0
  1  5  1  0
  2  1  2  0
  2  6  1  0
  3  4  1  0
  4 45  1  0
  5 15  1  0
  5  4  2  0
  6  3  2  0
  7 15  1  0
  8 13  1  0
  9 10  1  0
  9  8  1  0
 11 10  1  0
 11 20  1  0
 11 12  1  0
 13  7  1  0
 13 12  1  0
 14  7  2  0
 15 16  1  0
 17 18  2  0
 18 37  1  0
 19 18  1  0
 19 22  1  0
 20 21  1  0
 20 17  1  0
 21 19  2  0
 22 23  1  0
 23 24  2  0
 25 28  1  0
 25 24  1  0
 26 25  2  0
 27 26  1  0
 27 22  2  0
 28 29  1  0
 29 30  1  0
 30 31  2  0
 32 31  1  0
 32 36  1  0
 33 32  2  0
 34 29  2  0
 34 33  1  0
 35 34  1  0
 37 38  1  0
 38 40  1  0
 38 41  1  0
 39 37  2  0
 42 17  1  0
 42 43  1  0
 44 42  1  0
 45 48  1  1
 45 46  1  0
 47 45  1  0
 49  6  1  0
 49 50  1  0
 51 50  1  0
 51 52  1  0
 53 52  1  0
 53 54  1  0
 55 66  2  0
 56 54  1  0
 56 61  1  0
 57 65  1  0
 57 67  1  0
 58 60  1  0
 59 65  1  0
 60 61  2  0
 60 59  1  0
 62 56  2  0
 63 62  1  0
 63 58  2  0
 64 58  1  0
 64 57  1  0
 65 55  1  0
 67 69  2  0
 68 67  1  0
 70 68  1  0
 71 80  2  0
 71 76  1  0
 72 68  1  0
 73 72  1  0
 74 75  1  0
 74 73  1  0
 75 71  1  0
 76 72  1  0
 76 77  2  0
 77 78  1  0
 79 78  2  0
 80 79  1  0
 81 55  1  0
 81 82  1  0
 81 91  1  0
 82 85  1  0
 83 87  1  0
 83 82  1  0
 84 83  2  0
 87 86  1  0
 89 87  1  0
 89 90  1  0
 89 88  1  0
 91 94  1  1
 91 92  1  0
 93 91  1  0
M  ISO  4   7 100  15 100  53 101  54 101
M  END
>  <TORSDO>  (54) 
F 22

>  <SCORE>  (54) 
-8.540

>  <name>  (54) 
53

>  <ligand_id>  (54) 
53

>  <original_smiles>  (54) 
[H]c1c([H])c([H])c2c(c1[H])C([H])([H])C([H])([H])C([H])([H])C2([H])N([H])C(=O)C1([H])N(C(=O)C([H])(N([H])C(=O)C([H])(N([H])C([H])([H])[H])C([H])([H])[H])C(C([H])([H])[H])(C([H])([H])[H])C([H])([H])[H])C([H])([H])c2c([H])c(OC([H])([H])C([H])([H])C([H])([H])C([H])([H])Oc3c([H])c([H])c(N([H])C(=O)N4C([H])([H])C([H])([H])C([H])([H])C([H])(n5nc(-c6c([H])c([H])c(Oc7c([H])c([H])c(F)c([H])c7F)c([H])c6[H])c(C(=O)N([H])[H])c5N([H])[H])C4([H])[H])c(C(F)(F)F)c3[H])c([H])c([H])c2C1([H])[H]

>  <smiles>  (54) 
[H]c1c([H])c([H])c2c(c1[H])C([H])([H])C([H])([H])C([H])([H])C2([H])N([H])C(=O)C1([H])N(C(=O)C([H])(N([H])C(=O)C([H])(N([H])C([H])([H])[H])C([H])([H])[H])C(C([H])([H])[H])(C([H])([H])[H])C([H])([H])[H])C([H])([H])c2c([H])c(OC([H])([H])C([H])([H])C([H])([H])C([H])([H])Oc3c([H])c([H])c(N([H])C(=O)N4C([H])([H])C([H])([H])C([H])([H])C([H])(n5nc(-c6c([H])c([H])c(Oc7c([H])c([H])c(F)c([H])c7F)c([H])c6[H])c(C(=O)N([H])[H])c5N([H])[H])C4([H])[H])c(C(F)(F)F)c3[H])c([H])c([H])c2C1([H])[H]

$$$$
54:0:0
     RDKit          3D

 89 97  0  0  1  0  0  0  0  0999 V2000
  -31.7360  -19.5940   20.5480 C   0  0  0  0  0  3  0  0  0  0  0  0
  -31.3540  -18.2320   20.5150 C   0  0  0  0  0  3  0  0  0  0  0  0
  -30.8120  -20.6660   20.5110 C   0  0  0  0  0  3  0  0  0  0  0  0
  -30.0030  -17.8210   20.4490 C   0  0  0  0  0  0  0  0  0  0  0  0
  -29.4200  -20.4580   20.4320 C   0  0  0  0  0  0  0  0  0  0  0  0
  -29.0550  -18.9920   20.4090 C   0  0  0  0  0  0  0  0  0  0  0  0
  -27.7360  -18.6910   20.3460 F   0  0  0  0  0  0  0  0  0  0  0  0
  -30.4750  -15.0820   20.3220 C   0  0  0  0  0  0  0  0  0  0  0  0
  -30.3690  -12.7170   19.3710 C   0  0  0  0  0  2  0  0  0  0  0  0
  -29.4230  -12.6390   18.1500 C   0  0  0  0  0  2  0  0  0  0  0  0
  -27.9700  -12.4030   18.6030 C   0  0  0  0  0  2  0  0  0  0  0  0
  -27.5640  -13.3230   19.7840 C   0  0  0  0  0  3  0  0  0  0  0  0
  -28.6330  -13.3670   20.8950 C   0  0  0  0  0  2  0  0  0  0  0  0
  -29.8810  -13.8130   20.2640 N   0  0  0  0  0  0  0  0  0  0  0  0
  -31.6820  -15.1140   20.0540 O   0  0  0  0  0  0  0  0  0  0  0  0
  -29.6970  -16.2890   20.4560 N   0  0  0  0  0  0  0  0  0  0  0  0
  -28.7160  -16.0900   20.5650 H   0  0  0  0  0  0  0  0  0  0  0  0
  -25.1910  -13.8700   20.5620 C   0  0  0  0  0  0  0  0  0  0  0  0
  -24.1390  -13.0820   20.9360 C   0  0  0  0  0  0  0  0  0  0  0  0
  -24.6150  -11.7360   20.8890 C   0  0  0  0  0  0  0  0  0  0  0  0
  -26.2390  -13.0030   20.2990 N   0  0  0  0  0  0  0  0  0  0  0  0
  -25.9030  -11.7130   20.5640 N   0  0  0  0  0  0  0  0  0  0  0  0
  -23.9000  -10.4650   21.0730 C   0  0  0  0  0  0  0  0  0  0  0  0
  -24.3490   -9.4910   21.9910 C   0  0  0  0  0  3  0  0  0  0  0  0
  -23.6320   -8.2870   22.1670 C   0  0  0  0  0  3  0  0  0  0  0  0
  -22.4510   -8.0510   21.4240 C   0  0  0  0  0  0  0  0  0  0  0  0
  -22.0210   -9.0150   20.4940 C   0  0  0  0  0  3  0  0  0  0  0  0
  -22.7390  -10.2080   20.3170 C   0  0  0  0  0  3  0  0  0  0  0  0
  -21.7020   -6.9020   21.5090 O   0  0  0  0  0  0  0  0  0  0  0  0
  -21.6700   -6.1470   22.6550 C   0  0  0  0  0  0  0  0  0  0  0  0
  -21.2420   -6.6840   23.8890 C   0  0  0  0  0  3  0  0  0  0  0  0
  -21.1590   -5.8560   25.0260 C   0  0  0  0  0  3  0  0  0  0  0  0
  -21.4940   -4.4910   24.9290 C   0  0  0  0  0  0  0  0  0  0  0  0
  -21.9150   -3.9540   23.7000 C   0  0  0  0  0  3  0  0  0  0  0  0
  -22.0000   -4.7790   22.5660 C   0  0  0  0  0  0  0  0  0  0  0  0
  -22.3860   -4.2520   21.3790 F   0  0  0  0  0  0  0  0  0  0  0  0
  -21.4050   -3.6930   26.0190 F   0  0  0  0  0  0  0  0  0  0  0  0
  -22.7410  -13.5450   21.2230 C   0  0  0  0  0  0  0  0  0  0  0  0
  -22.0280  -12.8400   22.0940 N   0  0  0  0  0  0  0  0  0  0  0  0
  -22.2900  -14.5690   20.7120 O   0  0  0  0  0  0  0  0  0  0  0  0
  -22.4070  -12.0130   22.5300 H   0  0  0  0  0  0  0  0  0  0  0  0
  -21.0900  -13.1330   22.3300 H   0  0  0  0  0  0  0  0  0  0  0  0
  -25.3390  -15.2430   20.3940 N   0  0  0  0  0  0  0  0  0  0  0  0
  -24.5630  -15.8840   20.5200 H   0  0  0  0  0  0  0  0  0  0  0  0
  -26.1650  -15.6970   20.0270 H   0  0  0  0  0  0  0  0  0  0  0  0
  -28.5380  -21.6530   20.3810 O   0  0  0  0  0  0  0  0  0  0  0  0
  -28.9390  -23.1800   20.4270 C   0  0  0  0  0  3  0  0  0  0  0  0
  -27.9170  -24.5570   20.2640 C   0  0  0  0  0  3  0  0  0  0  0  0
  -28.2140  -26.1110   20.3780 O   0  0  0  0  0  0  0  0  0  0  0  0
  -24.6360  -31.9320   23.2850 C   0  0  0  0  0  0  0  0  0  0  0  0
  -27.1800  -27.1350   20.3030 C   0  0  0  0  0  0  0  0  0  0  0  0
  -23.4340  -30.5380   21.6470 C   0  0  0  0  0  3  0  0  0  0  0  0
  -24.8760  -28.9370   20.2400 C   0  0  0  0  0  0  0  0  0  0  0  0
  -25.9950  -30.7670   21.5000 C   0  0  0  0  0  2  0  0  0  0  0  0
  -26.0580  -29.3660   20.8550 C   0  0  0  0  0  0  0  0  0  0  0  0
  -27.2120  -28.4830   20.8650 C   0  0  0  0  0  3  0  0  0  0  0  0
  -25.9700  -26.8220   19.6470 C   0  0  0  0  0  3  0  0  0  0  0  0
  -24.8470  -27.6800   19.6190 C   0  0  0  0  0  3  0  0  0  0  0  0
  -23.6590  -29.8510   20.2740 C   0  0  0  0  0  2  0  0  0  0  0  0
  -24.7090  -31.1030   22.1980 N   0  0  0  0  0  0  0  0  0  0  0  0
  -23.5480  -32.2300   23.8030 O   0  0  0  0  0  0  0  0  0  0  0  0
  -22.7370  -29.5450   22.6120 C   0  0  0  0  0  0  0  0  0  0  0  0
  -21.4080  -29.3870   22.4790 N   0  0  0  0  0  0  0  0  0  0  0  0
  -23.3960  -28.9180   23.4450 O   0  0  0  0  0  0  0  0  0  0  0  0
  -20.9310  -29.9430   21.7840 H   0  0  0  0  0  0  0  0  0  0  0  0
  -18.0140  -28.2140   22.9670 C   0  0  0  0  0  0  0  0  0  0  0  0
  -20.5730  -28.4620   23.2510 C   0  0  0  0  0  3  0  0  0  0  0  0
  -20.6690  -27.0240   22.6910 C   0  0  0  0  0  2  0  0  0  0  0  0
  -19.5720  -26.7020   21.6700 C   0  0  0  0  0  2  0  0  0  0  0  0
  -18.1860  -26.8600   22.3030 C   0  0  0  0  0  2  0  0  0  0  0  0
  -19.1340  -28.9730   23.3990 C   0  0  0  0  0  0  0  0  0  0  0  0
  -18.9170  -30.2400   23.9840 C   0  0  0  0  0  3  0  0  0  0  0  0
  -17.6140  -30.7490   24.1390 C   0  0  0  0  0  3  0  0  0  0  0  0
  -16.5080  -29.9880   23.7220 C   0  0  0  0  0  3  0  0  0  0  0  0
  -16.7090  -28.7220   23.1420 C   0  0  0  0  0  3  0  0  0  0  0  0
  -25.9140  -32.5620   23.9170 C   0  0  0  0  0  3  0  0  0  0  0  0
  -26.4080  -31.7960   25.2060 C   0  0  1  0  0  0  0  0  0  0  0  0
  -25.3020  -31.5800   26.2650 C   0  0  0  0  0  1  0  0  0  0  0  0
  -26.9820  -30.4090   24.8360 C   0  0  0  0  0  1  0  0  0  0  0  0
  -27.5600  -32.5830   25.8720 C   0  0  0  0  0  1  0  0  0  0  0  0
  -25.6100  -33.9660   24.2420 N   0  0  0  0  0  0  0  0  0  0  0  0
  -25.9290  -35.0160   23.4740 C   0  0  0  0  0  0  0  0  0  0  0  0
  -26.5780  -34.9050   22.4300 O   0  0  0  0  0  0  0  0  0  0  0  0
  -25.0320  -34.1260   25.0550 H   0  0  0  0  0  0  0  0  0  0  0  0
  -24.1860  -36.8060   23.1700 C   0  0  0  0  0  1  0  0  0  0  0  0
  -25.4590  -36.4100   23.9360 C   0  0  0  0  0  3  0  0  0  0  0  0
  -27.6200  -37.3100   24.6770 C   0  0  0  0  0  1  0  0  0  0  0  0
  -26.4840  -37.4630   23.7720 N   0  0  0  0  0  0  0  0  0  0  0  0
  -26.0830  -38.3840   23.9210 H   0  0  0  0  0  0  0  0  0  0  0  0
  2  1  1  0
  3  1  2  0
  4 16  1  0
  4  2  2  0
  5  3  1  0
  6  5  2  0
  6  4  1  0
  7  6  1  0
  8 16  1  0
  9 14  1  0
 10 11  1  0
 10  9  1  0
 12 11  1  0
 12 21  1  0
 12 13  1  0
 14  8  1  0
 14 13  1  0
 15  8  2  0
 16 17  1  0
 18 19  2  0
 19 38  1  0
 20 19  1  0
 20 23  1  0
 21 18  1  0
 21 22  1  0
 22 20  2  0
 23 24  1  0
 24 25  2  0
 26 29  1  0
 26 25  1  0
 27 26  2  0
 28 27  1  0
 28 23  2  0
 29 30  1  0
 30 31  1  0
 31 32  2  0
 33 32  1  0
 33 37  1  0
 34 33  2  0
 35 30  2  0
 35 34  1  0
 36 35  1  0
 38 39  1  0
 39 42  1  0
 39 41  1  0
 40 38  2  0
 43 44  1  0
 43 18  1  0
 45 43  1  0
 46 47  1  0
 46  5  1  0
 48 49  1  0
 48 47  2  0
 50 61  2  0
 51 49  1  0
 51 56  1  0
 52 60  1  0
 52 62  1  0
 53 59  1  0
 53 55  1  0
 54 60  1  0
 55 56  2  0
 55 54  1  0
 57 51  2  0
 58 57  1  0
 58 53  2  0
 59 52  1  0
 60 50  1  0
 62 64  2  0
 63 62  1  0
 65 63  1  0
 66 75  2  0
 66 71  1  0
 67 63  1  0
 67 71  1  0
 68 67  1  0
 69 70  1  0
 69 68  1  0
 70 66  1  0
 71 72  2  0
 72 73  1  0
 74 73  2  0
 75 74  1  0
 76 50  1  0
 76 81  1  0
 76 77  1  0
 77 80  1  1
 77 78  1  0
 79 77  1  0
 81 84  1  0
 82 86  1  0
 82 81  1  0
 83 82  2  0
 86 85  1  0
 88 89  1  0
 88 86  1  0
 88 87  1  0
M  ISO  4   8 100  16 100  48 101  49 101
M  END
>  <TORSDO>  (55) 
F 19

>  <SCORE>  (55) 
-15.199

>  <name>  (55) 
54

>  <ligand_id>  (55) 
54

>  <original_smiles>  (55) 
[H]c1c([H])c(OC([H])([H])C([H])([H])Oc2c([H])c([H])c3c(c2[H])C([H])([H])N(C(=O)C([H])(N([H])C(=O)C([H])(N([H])C([H])([H])[H])C([H])([H])[H])C(C([H])([H])[H])(C([H])([H])[H])C([H])([H])[H])C([H])(C(=O)N([H])C2([H])c4c([H])c([H])c([H])c([H])c4C([H])([H])C([H])([H])C2([H])[H])C3([H])[H])c(F)c(N([H])C(=O)N2C([H])([H])C([H])([H])C([H])([H])C([H])(n3nc(-c4c([H])c([H])c(Oc5c([H])c([H])c(F)c([H])c5F)c([H])c4[H])c(C(=O)N([H])[H])c3N([H])[H])C2([H])[H])c1[H]

>  <smiles>  (55) 
[H]c1c([H])c(OC([H])([H])C([H])([H])Oc2c([H])c([H])c3c(c2[H])C([H])([H])N(C(=O)C([H])(N([H])C(=O)C([H])(N([H])C([H])([H])[H])C([H])([H])[H])C(C([H])([H])[H])(C([H])([H])[H])C([H])([H])[H])C([H])(C(=O)N([H])C2([H])c4c([H])c([H])c([H])c([H])c4C([H])([H])C([H])([H])C2([H])[H])C3([H])[H])c(F)c(N([H])C(=O)N2C([H])([H])C([H])([H])C([H])([H])C([H])(n3nc(-c4c([H])c([H])c(Oc5c([H])c([H])c(F)c([H])c5F)c([H])c4[H])c(C(=O)N([H])[H])c3N([H])[H])C2([H])[H])c1[H]

$$$$
55:0:0
     RDKit          3D

 91 99  0  0  1  0  0  0  0  0999 V2000
  -29.9620  -20.9370   21.3580 O   0  0  0  0  0  0  0  0  0  0  0  0
  -30.8470  -17.4360   22.0490 C   0  0  0  0  0  3  0  0  0  0  0  0
  -30.7720  -18.8420   22.0910 C   0  0  0  0  0  3  0  0  0  0  0  0
  -29.3550  -17.4330   20.1270 C   0  0  0  0  0  3  0  0  0  0  0  0
  -30.1340  -16.7220   21.0680 C   0  0  0  0  0  0  0  0  0  0  0  0
  -29.9810  -19.5660   21.1720 C   0  0  0  0  0  0  0  0  0  0  0  0
  -29.2790  -18.8430   20.1680 C   0  0  0  0  0  0  0  0  0  0  0  0
  -28.5130  -19.4690   19.2430 F   0  0  0  0  0  0  0  0  0  0  0  0
  -30.6890  -14.4640   20.2610 C   0  0  0  0  0  0  0  0  0  0  0  0
  -30.3460  -12.3840   18.9750 C   0  0  0  0  0  2  0  0  0  0  0  0
  -29.3490  -12.6650   17.8310 C   0  0  0  0  0  2  0  0  0  0  0  0
  -27.8930  -12.5140   18.3130 C   0  0  0  0  0  2  0  0  0  0  0  0
  -27.6200  -13.2770   19.6360 C   0  0  0  0  0  3  0  0  0  0  0  0
  -28.7140  -12.9550   20.6780 C   0  0  0  0  0  2  0  0  0  0  0  0
  -30.0230  -13.2910   20.0850 N   0  0  0  0  0  0  0  0  0  0  0  0
  -31.7320  -14.7530   19.6660 O   0  0  0  0  0  0  0  0  0  0  0  0
  -30.0980  -15.3070   21.1210 N   0  0  0  0  0  0  0  0  0  0  0  0
  -29.3130  -14.9070   21.6130 H   0  0  0  0  0  0  0  0  0  0  0  0
  -25.2400  -13.8660   20.4250 C   0  0  0  0  0  0  0  0  0  0  0  0
  -24.1880  -13.0820   20.8170 C   0  0  0  0  0  0  0  0  0  0  0  0
  -24.6510  -11.7340   20.7420 C   0  0  0  0  0  0  0  0  0  0  0  0
  -26.2820  -12.9920   20.1490 N   0  0  0  0  0  0  0  0  0  0  0  0
  -25.9300  -11.7040   20.3910 N   0  0  0  0  0  0  0  0  0  0  0  0
  -23.9380  -10.4640   20.9310 C   0  0  0  0  0  0  0  0  0  0  0  0
  -24.3780   -9.5010   21.8660 C   0  0  0  0  0  3  0  0  0  0  0  0
  -23.6650   -8.2960   22.0410 C   0  0  0  0  0  3  0  0  0  0  0  0
  -22.4960   -8.0460   21.2850 C   0  0  0  0  0  0  0  0  0  0  0  0
  -22.0750   -8.9980   20.3390 C   0  0  0  0  0  3  0  0  0  0  0  0
  -22.7890  -10.1950   20.1610 C   0  0  0  0  0  3  0  0  0  0  0  0
  -21.7540   -6.8920   21.3710 O   0  0  0  0  0  0  0  0  0  0  0  0
  -21.6740   -6.1740   22.5360 C   0  0  0  0  0  0  0  0  0  0  0  0
  -21.1740   -6.7410   23.7290 C   0  0  0  0  0  3  0  0  0  0  0  0
  -21.0460   -5.9470   24.8870 C   0  0  0  0  0  3  0  0  0  0  0  0
  -21.4060   -4.5860   24.8500 C   0  0  0  0  0  0  0  0  0  0  0  0
  -21.8990   -4.0190   23.6620 C   0  0  0  0  0  3  0  0  0  0  0  0
  -22.0300   -4.8110   22.5080 C   0  0  0  0  0  0  0  0  0  0  0  0
  -22.4860   -4.2540   21.3590 F   0  0  0  0  0  0  0  0  0  0  0  0
  -21.2750   -3.8200   25.9590 F   0  0  0  0  0  0  0  0  0  0  0  0
  -22.7990  -13.5470   21.1490 C   0  0  0  0  0  0  0  0  0  0  0  0
  -22.1030  -12.8240   22.0190 N   0  0  0  0  0  0  0  0  0  0  0  0
  -22.3410  -14.5850   20.6710 O   0  0  0  0  0  0  0  0  0  0  0  0
  -22.4870  -11.9830   22.4240 H   0  0  0  0  0  0  0  0  0  0  0  0
  -21.1740  -13.1170   22.2870 H   0  0  0  0  0  0  0  0  0  0  0  0
  -25.3970  -15.2390   20.2650 N   0  0  0  0  0  0  0  0  0  0  0  0
  -24.6350  -15.8950   20.3990 H   0  0  0  0  0  0  0  0  0  0  0  0
  -26.2380  -15.6790   19.9110 H   0  0  0  0  0  0  0  0  0  0  0  0
  -29.1550  -21.7840   20.5410 C   0  0  0  0  0  2  0  0  0  0  0  0
  -29.2290  -23.1940   21.1610 C   0  0  0  0  0  2  0  0  0  0  0  0
  -28.6940  -24.3490   20.2870 C   0  0  0  0  0  2  0  0  0  0  0  0
  -28.6430  -25.6870   21.0600 C   0  0  0  0  0  2  0  0  0  0  0  0
  -28.5440  -26.8160   20.1910 O   0  0  0  0  0  0  0  0  0  0  0  0
  -24.6030  -31.9090   23.2560 C   0  0  0  0  0  0  0  0  0  0  0  0
  -27.3560  -27.5020   20.2350 C   0  0  0  0  0  0  0  0  0  0  0  0
  -23.4400  -30.4840   21.6020 C   0  0  0  0  0  3  0  0  0  0  0  0
  -24.9350  -28.9530   20.2120 C   0  0  0  0  0  0  0  0  0  0  0  0
  -25.9600  -30.8800   21.4350 C   0  0  0  0  0  2  0  0  0  0  0  0
  -26.0760  -29.5050   20.8100 C   0  0  0  0  0  0  0  0  0  0  0  0
  -27.2920  -28.7870   20.8160 C   0  0  0  0  0  3  0  0  0  0  0  0
  -26.2010  -26.9510   19.6450 C   0  0  0  0  0  3  0  0  0  0  0  0
  -24.9910  -27.6730   19.6310 C   0  0  0  0  0  3  0  0  0  0  0  0
  -23.6790  -29.7950   20.2310 C   0  0  0  0  0  2  0  0  0  0  0  0
  -24.6850  -31.1060   22.1570 N   0  0  0  0  0  0  0  0  0  0  0  0
  -23.5100  -32.1690   23.7770 O   0  0  0  0  0  0  0  0  0  0  0  0
  -22.7870  -29.4610   22.5570 C   0  0  0  0  0  0  0  0  0  0  0  0
  -21.4690  -29.2570   22.4060 N   0  0  0  0  0  0  0  0  0  0  0  0
  -23.4650  -28.8480   23.3870 O   0  0  0  0  0  0  0  0  0  0  0  0
  -20.9830  -29.8040   21.7090 H   0  0  0  0  0  0  0  0  0  0  0  0
  -18.1010  -28.0280   22.8510 C   0  0  0  0  0  0  0  0  0  0  0  0
  -20.6510  -28.3120   23.1630 C   0  0  0  0  0  3  0  0  0  0  0  0
  -20.7770  -26.8810   22.5900 C   0  0  0  0  0  2  0  0  0  0  0  0
  -19.6950  -26.5470   21.5590 C   0  0  0  0  0  2  0  0  0  0  0  0
  -18.3010  -26.6810   22.1790 C   0  0  0  0  0  2  0  0  0  0  0  0
  -19.2040  -28.8020   23.2980 C   0  0  0  0  0  0  0  0  0  0  0  0
  -18.9640  -30.0650   23.8820 C   0  0  0  0  0  3  0  0  0  0  0  0
  -17.6510  -30.5530   24.0260 C   0  0  0  0  0  3  0  0  0  0  0  0
  -16.5620  -29.7760   23.5960 C   0  0  0  0  0  3  0  0  0  0  0  0
  -16.7870  -28.5160   23.0130 C   0  0  0  0  0  3  0  0  0  0  0  0
  -25.8710  -32.5570   23.8930 C   0  0  0  0  0  3  0  0  0  0  0  0
  -25.5440  -33.9550   24.2050 N   0  0  0  0  0  0  0  0  0  0  0  0
  -25.8890  -35.0040   23.4460 C   0  0  0  0  0  0  0  0  0  0  0  0
  -26.5870  -34.8980   22.4340 O   0  0  0  0  0  0  0  0  0  0  0  0
  -24.9270  -34.1110   24.9890 H   0  0  0  0  0  0  0  0  0  0  0  0
  -24.1650  -36.7840   23.0180 C   0  0  0  0  0  1  0  0  0  0  0  0
  -25.3770  -36.3920   23.8780 C   0  0  0  0  0  3  0  0  0  0  0  0
  -27.4730  -37.2920   24.7860 C   0  0  0  0  0  1  0  0  0  0  0  0
  -26.4090  -37.4490   23.7990 N   0  0  0  0  0  0  0  0  0  0  0  0
  -25.9920  -38.3680   23.9260 H   0  0  0  0  0  0  0  0  0  0  0  0
  -26.3740  -31.8010   25.1840 C   0  0  1  0  0  0  0  0  0  0  0  0
  -25.2640  -31.5580   26.2340 C   0  0  0  0  0  1  0  0  0  0  0  0
  -26.9830  -30.4300   24.8100 C   0  0  0  0  0  1  0  0  0  0  0  0
  -27.5040  -32.6150   25.8600 C   0  0  0  0  0  1  0  0  0  0  0  0
  2  3  1  0
  4  7  2  0
  4  5  1  0
  5 17  1  0
  5  2  2  0
  6  1  1  0
  6  3  2  0
  7  6  1  0
  8  7  1  0
  9 17  1  0
 10 15  1  0
 11 12  1  0
 11 10  1  0
 13 12  1  0
 13 22  1  0
 13 14  1  0
 15  9  1  0
 15 14  1  0
 16  9  2  0
 17 18  1  0
 19 20  2  0
 20 39  1  0
 21 20  1  0
 21 24  1  0
 22 23  1  0
 22 19  1  0
 23 21  2  0
 24 25  1  0
 25 26  2  0
 27 30  1  0
 27 26  1  0
 28 27  2  0
 29 28  1  0
 29 24  2  0
 30 31  1  0
 31 32  1  0
 32 33  2  0
 34 33  1  0
 34 38  1  0
 35 34  2  0
 36 31  2  0
 36 35  1  0
 37 36  1  0
 39 40  1  0
 40 43  1  0
 40 42  1  0
 41 39  2  0
 44 45  1  0
 44 19  1  0
 46 44  1  0
 47 48  1  0
 47  1  1  0
 49 50  1  0
 49 48  1  0
 51 53  1  0
 51 50  1  0
 52 63  2  0
 53 58  1  0
 54 62  1  0
 54 64  1  0
 55 61  1  0
 55 57  1  0
 56 62  1  0
 57 58  2  0
 57 56  1  0
 59 53  2  0
 60 59  1  0
 60 55  2  0
 61 54  1  0
 62 52  1  0
 64 66  2  0
 65 64  1  0
 67 65  1  0
 68 77  2  0
 68 73  1  0
 69 65  1  0
 69 73  1  0
 70 69  1  0
 71 72  1  0
 71 70  1  0
 72 68  1  0
 73 74  2  0
 74 75  1  0
 76 75  2  0
 77 76  1  0
 78 52  1  0
 78 79  1  0
 78 88  1  0
 79 82  1  0
 80 84  1  0
 80 79  1  0
 81 80  2  0
 84 83  1  0
 86 84  1  0
 86 87  1  0
 86 85  1  0
 88 91  1  1
 88 89  1  0
 90 88  1  0
M  ISO  4   9 100  17 100  50 101  51 101
M  END
>  <TORSDO>  (56) 
F 21

>  <SCORE>  (56) 
-13.563

>  <name>  (56) 
55

>  <ligand_id>  (56) 
55

>  <original_smiles>  (56) 
[H]c1c([H])c([H])c2c(c1[H])C([H])([H])C([H])([H])C([H])([H])C2([H])N([H])C(=O)C1([H])N(C(=O)C([H])(N([H])C(=O)C([H])(N([H])C([H])([H])[H])C([H])([H])[H])C(C([H])([H])[H])(C([H])([H])[H])C([H])([H])[H])C([H])([H])c2c([H])c(OC([H])([H])C([H])([H])C([H])([H])C([H])([H])Oc3c([H])c([H])c(N([H])C(=O)N4C([H])([H])C([H])([H])C([H])([H])C([H])(n5nc(-c6c([H])c([H])c(Oc7c([H])c([H])c(F)c([H])c7F)c([H])c6[H])c(C(=O)N([H])[H])c5N([H])[H])C4([H])[H])c([H])c3F)c([H])c([H])c2C1([H])[H]

>  <smiles>  (56) 
[H]c1c([H])c([H])c2c(c1[H])C([H])([H])C([H])([H])C([H])([H])C2([H])N([H])C(=O)C1([H])N(C(=O)C([H])(N([H])C(=O)C([H])(N([H])C([H])([H])[H])C([H])([H])[H])C(C([H])([H])[H])(C([H])([H])[H])C([H])([H])[H])C([H])([H])c2c([H])c(OC([H])([H])C([H])([H])C([H])([H])C([H])([H])Oc3c([H])c([H])c(N([H])C(=O)N4C([H])([H])C([H])([H])C([H])([H])C([H])(n5nc(-c6c([H])c([H])c(Oc7c([H])c([H])c(F)c([H])c7F)c([H])c6[H])c(C(=O)N([H])[H])c5N([H])[H])C4([H])[H])c([H])c3F)c([H])c([H])c2C1([H])[H]

$$$$
56:0:0
     RDKit          3D

 89 97  0  0  1  0  0  0  0  0999 V2000
  -28.7430  -21.3740   21.0060 O   0  0  0  0  0  0  0  0  0  0  0  0
  -30.6060  -18.2980   19.7180 C   0  0  0  0  0  3  0  0  0  0  0  0
  -28.6320  -17.6000   20.8990 C   0  0  0  0  0  3  0  0  0  0  0  0
  -30.2860  -19.6690   19.9710 C   0  0  0  0  0  3  0  0  0  0  0  0
  -28.3290  -18.9690   21.1680 C   0  0  0  0  0  3  0  0  0  0  0  0
  -29.7750  -17.2220   20.1520 C   0  0  0  0  0  0  0  0  0  0  0  0
  -29.1220  -20.0490   20.6900 C   0  0  0  0  0  0  0  0  0  0  0  0
  -30.6750  -14.8170   19.9440 C   0  0  0  0  0  0  0  0  0  0  0  0
  -30.4590  -12.5200   19.0130 C   0  0  0  0  0  2  0  0  0  0  0  0
  -29.4710  -12.5230   17.8260 C   0  0  0  0  0  2  0  0  0  0  0  0
  -28.0060  -12.4430   18.3130 C   0  0  0  0  0  2  0  0  0  0  0  0
  -27.6840  -13.3340   19.5470 C   0  0  0  0  0  3  0  0  0  0  0  0
  -28.7950  -13.2650   20.6140 C   0  0  0  0  0  2  0  0  0  0  0  0
  -30.0540  -13.5930   19.9400 N   0  0  0  0  0  0  0  0  0  0  0  0
  -31.8950  -14.8950   19.7630 O   0  0  0  0  0  0  0  0  0  0  0  0
  -29.6910  -15.9800   18.0910 C   0  0  0  0  0  1  0  0  0  0  0  0
  -29.8800  -15.8870   19.5530 N   0  0  0  0  0  0  0  0  0  0  0  0
  -25.3240  -13.9170   20.3730 C   0  0  0  0  0  0  0  0  0  0  0  0
  -24.2770  -13.1340   20.7760 C   0  0  0  0  0  0  0  0  0  0  0  0
  -24.7460  -11.7850   20.7190 C   0  0  0  0  0  0  0  0  0  0  0  0
  -26.3640  -13.0430   20.0950 N   0  0  0  0  0  0  0  0  0  0  0  0
  -26.0250  -11.7560   20.3680 N   0  0  0  0  0  0  0  0  0  0  0  0
  -24.0350  -10.5170   20.9220 C   0  0  0  0  0  0  0  0  0  0  0  0
  -24.4870   -9.5600   21.8570 C   0  0  0  0  0  3  0  0  0  0  0  0
  -23.7760   -8.3550   22.0460 C   0  0  0  0  0  3  0  0  0  0  0  0
  -22.6010   -8.1010   21.3020 C   0  0  0  0  0  0  0  0  0  0  0  0
  -22.1670   -9.0470   20.3560 C   0  0  0  0  0  3  0  0  0  0  0  0
  -22.8780  -10.2440   20.1650 C   0  0  0  0  0  3  0  0  0  0  0  0
  -21.8600   -6.9460   21.4010 O   0  0  0  0  0  0  0  0  0  0  0  0
  -21.7910   -6.2360   22.5720 C   0  0  0  0  0  0  0  0  0  0  0  0
  -21.3120   -6.8150   23.7690 C   0  0  0  0  0  3  0  0  0  0  0  0
  -21.1920   -6.0300   24.9330 C   0  0  0  0  0  3  0  0  0  0  0  0
  -21.5400   -4.6650   24.9010 C   0  0  0  0  0  0  0  0  0  0  0  0
  -22.0130   -4.0870   23.7100 C   0  0  0  0  0  3  0  0  0  0  0  0
  -22.1340   -4.8690   22.5480 C   0  0  0  0  0  0  0  0  0  0  0  0
  -22.5700   -4.3010   21.3980 F   0  0  0  0  0  0  0  0  0  0  0  0
  -21.4180   -3.9070   26.0160 F   0  0  0  0  0  0  0  0  0  0  0  0
  -22.8870  -13.6020   21.1000 C   0  0  0  0  0  0  0  0  0  0  0  0
  -22.1970  -12.9040   21.9950 N   0  0  0  0  0  0  0  0  0  0  0  0
  -22.4230  -14.6230   20.5940 O   0  0  0  0  0  0  0  0  0  0  0  0
  -22.5790  -12.0740   22.4240 H   0  0  0  0  0  0  0  0  0  0  0  0
  -21.2710  -13.2110   22.2610 H   0  0  0  0  0  0  0  0  0  0  0  0
  -25.4730  -15.2880   20.1930 N   0  0  0  0  0  0  0  0  0  0  0  0
  -24.6970  -15.9340   20.3020 H   0  0  0  0  0  0  0  0  0  0  0  0
  -26.2950  -15.7230   19.7930 H   0  0  0  0  0  0  0  0  0  0  0  0
  -28.9530  -22.5120   20.1040 C   0  0  0  0  0  3  0  0  0  0  0  0
  -28.5500  -23.9560   20.6780 C   0  0  0  0  0  3  0  0  0  0  0  0
  -28.5640  -25.2010   19.6740 C   0  0  0  0  0  2  0  0  0  0  0  0
  -28.4610  -26.6000   20.1730 O   0  0  0  0  0  0  0  0  0  0  0  0
  -24.5710  -31.8730   23.1470 C   0  0  0  0  0  0  0  0  0  0  0  0
  -27.3000  -27.3900   20.0880 C   0  0  0  0  0  0  0  0  0  0  0  0
  -23.4150  -30.4790   21.4700 C   0  0  0  0  0  3  0  0  0  0  0  0
  -24.9100  -28.9700   20.0460 C   0  0  0  0  0  0  0  0  0  0  0  0
  -25.9500  -30.8440   21.3230 C   0  0  0  0  0  2  0  0  0  0  0  0
  -26.0610  -29.4750   20.6620 C   0  0  0  0  0  0  0  0  0  0  0  0
  -27.2570  -28.6970   20.6670 C   0  0  0  0  0  3  0  0  0  0  0  0
  -26.1180  -26.9310   19.4650 C   0  0  0  0  0  3  0  0  0  0  0  0
  -24.9400  -27.7030   19.4430 C   0  0  0  0  0  3  0  0  0  0  0  0
  -23.6640  -29.8330   20.0810 C   0  0  0  0  0  2  0  0  0  0  0  0
  -24.6640  -31.0830   22.0370 N   0  0  0  0  0  0  0  0  0  0  0  0
  -23.4760  -32.1220   23.6710 O   0  0  0  0  0  0  0  0  0  0  0  0
  -22.7560  -29.4350   22.4030 C   0  0  0  0  0  0  0  0  0  0  0  0
  -21.4310  -29.2500   22.2650 N   0  0  0  0  0  0  0  0  0  0  0  0
  -23.4340  -28.7990   23.2140 O   0  0  0  0  0  0  0  0  0  0  0  0
  -20.9400  -29.8240   21.5920 H   0  0  0  0  0  0  0  0  0  0  0  0
  -18.0580  -28.0280   22.7360 C   0  0  0  0  0  0  0  0  0  0  0  0
  -20.6160  -28.2910   23.0120 C   0  0  0  0  0  3  0  0  0  0  0  0
  -20.7220  -26.8730   22.4050 C   0  0  0  0  0  2  0  0  0  0  0  0
  -19.6220  -26.5710   21.3820 C   0  0  0  0  0  2  0  0  0  0  0  0
  -18.2400  -26.6950   22.0290 C   0  0  0  0  0  2  0  0  0  0  0  0
  -19.1740  -28.7830   23.1850 C   0  0  0  0  0  0  0  0  0  0  0  0
  -18.9510  -30.0300   23.8100 C   0  0  0  0  0  3  0  0  0  0  0  0
  -17.6440  -30.5220   23.9870 C   0  0  0  0  0  3  0  0  0  0  0  0
  -16.5420  -29.7640   23.5530 C   0  0  0  0  0  3  0  0  0  0  0  0
  -16.7500  -28.5190   22.9350 C   0  0  0  0  0  3  0  0  0  0  0  0
  -25.8340  -32.5180   23.7970 C   0  0  0  0  0  3  0  0  0  0  0  0
  -26.3420  -31.7420   25.0750 C   0  0  1  0  0  0  0  0  0  0  0  0
  -25.2390  -31.4730   26.1260 C   0  0  0  0  0  1  0  0  0  0  0  0
  -26.9550  -30.3800   24.6780 C   0  0  0  0  0  1  0  0  0  0  0  0
  -27.4670  -32.5480   25.7630 C   0  0  0  0  0  1  0  0  0  0  0  0
  -25.4980  -33.9080   24.1390 N   0  0  0  0  0  0  0  0  0  0  0  0
  -25.8180  -34.9740   23.3930 C   0  0  0  0  0  0  0  0  0  0  0  0
  -26.4990  -34.8930   22.3680 O   0  0  0  0  0  0  0  0  0  0  0  0
  -24.9030  -34.0440   24.9420 H   0  0  0  0  0  0  0  0  0  0  0  0
  -24.0690  -36.7450   23.0290 C   0  0  0  0  0  1  0  0  0  0  0  0
  -25.3010  -36.3500   23.8580 C   0  0  0  0  0  3  0  0  0  0  0  0
  -27.4060  -37.2620   24.7370 C   0  0  0  0  0  1  0  0  0  0  0  0
  -26.3200  -37.4210   23.7740 N   0  0  0  0  0  0  0  0  0  0  0  0
  -25.8960  -38.3340   23.9230 H   0  0  0  0  0  0  0  0  0  0  0  0
  2  4  2  0
  2  6  1  0
  3  5  1  0
  4  7  1  0
  6  3  2  0
  7  1  1  0
  7  5  2  0
  9 14  1  0
 10 11  1  0
 10  9  1  0
 12 11  1  0
 12 21  1  0
 12 13  1  0
 14  8  1  0
 14 13  1  0
 15  8  2  0
 16 17  1  0
 17  8  1  0
 17  6  1  0
 18 19  2  0
 19 38  1  0
 20 19  1  0
 20 23  1  0
 21 22  1  0
 21 18  1  0
 22 20  2  0
 23 24  1  0
 24 25  2  0
 26 29  1  0
 26 25  1  0
 27 26  2  0
 28 27  1  0
 28 23  2  0
 29 30  1  0
 30 31  1  0
 31 32  2  0
 33 32  1  0
 33 37  1  0
 34 33  2  0
 35 30  2  0
 35 34  1  0
 36 35  1  0
 38 39  1  0
 39 42  1  0
 39 41  1  0
 40 38  2  0
 43 44  1  0
 43 18  1  0
 45 43  1  0
 46 47  2  0
 46  1  1  0
 48 49  1  0
 48 47  1  0
 50 61  2  0
 51 49  1  0
 51 56  1  0
 52 60  1  0
 52 62  1  0
 53 59  1  0
 53 55  1  0
 54 60  1  0
 55 56  2  0
 55 54  1  0
 57 51  2  0
 58 57  1  0
 58 53  2  0
 59 52  1  0
 60 50  1  0
 62 64  2  0
 63 62  1  0
 65 63  1  0
 66 75  2  0
 66 71  1  0
 67 63  1  0
 67 71  1  0
 68 67  1  0
 69 70  1  0
 69 68  1  0
 70 66  1  0
 71 72  2  0
 72 73  1  0
 74 73  2  0
 75 74  1  0
 76 50  1  0
 76 81  1  0
 76 77  1  0
 77 80  1  1
 77 78  1  0
 79 77  1  0
 81 84  1  0
 82 86  1  0
 82 81  1  0
 83 82  2  0
 86 85  1  0
 88 86  1  0
 88 89  1  0
 88 87  1  0
M  ISO  4   8 100  17 100  48 101  49 101
M  END
>  <TORSDO>  (57) 
F 20

>  <SCORE>  (57) 
-12.025

>  <name>  (57) 
56

>  <ligand_id>  (57) 
56

>  <original_smiles>  (57) 
[H]c1c([H])c([H])c2c(c1[H])C([H])([H])C([H])([H])C([H])([H])C2([H])N([H])C(=O)C1([H])N(C(=O)C([H])(N([H])C(=O)C([H])(N([H])C([H])([H])[H])C([H])([H])[H])C(C([H])([H])[H])(C([H])([H])[H])C([H])([H])[H])C([H])([H])c2c([H])c(OC([H])([H])C([H])([H])C([H])([H])Oc3c([H])c([H])c(N(C(=O)N4C([H])([H])C([H])([H])C([H])([H])C([H])(n5nc(-c6c([H])c([H])c(Oc7c([H])c([H])c(F)c([H])c7F)c([H])c6[H])c(C(=O)N([H])[H])c5N([H])[H])C4([H])[H])C([H])([H])[H])c([H])c3[H])c([H])c([H])c2C1([H])[H]

>  <smiles>  (57) 
[H]c1c([H])c([H])c2c(c1[H])C([H])([H])C([H])([H])C([H])([H])C2([H])N([H])C(=O)C1([H])N(C(=O)C([H])(N([H])C(=O)C([H])(N([H])C([H])([H])[H])C([H])([H])[H])C(C([H])([H])[H])(C([H])([H])[H])C([H])([H])[H])C([H])([H])c2c([H])c(OC([H])([H])C([H])([H])C([H])([H])Oc3c([H])c([H])c(N(C(=O)N4C([H])([H])C([H])([H])C([H])([H])C([H])(n5nc(-c6c([H])c([H])c(Oc7c([H])c([H])c(F)c([H])c7F)c([H])c6[H])c(C(=O)N([H])[H])c5N([H])[H])C4([H])[H])C([H])([H])[H])c([H])c3[H])c([H])c([H])c2C1([H])[H]

$$$$
57:0:0
     RDKit          3D

 99108  0  0  1  0  0  0  0  0999 V2000
  -30.6890  -25.0530   20.0140 C   0  0  0  0  0  0  0  0  0  0  0  0
  -31.3450  -21.9250   21.7080 C   0  0  0  0  0  2  0  0  0  0  0  0
  -31.4950  -21.6510   19.2100 C   0  0  0  0  0  2  0  0  0  0  0  0
  -31.7940  -23.3880   21.5390 C   0  0  0  0  0  2  0  0  0  0  0  0
  -31.9430  -23.1210   19.1020 C   0  0  0  0  0  2  0  0  0  0  0  0
  -31.9110  -21.0600   20.5700 C   0  0  0  0  0  3  0  0  0  0  0  0
  -31.3940  -23.9110   20.2180 N   0  0  0  0  0  0  0  0  0  0  0  0
  -30.4900  -25.5080   18.8820 O   0  0  0  0  0  0  0  0  0  0  0  0
  -30.2110  -19.2180   20.9460 C   0  0  0  0  0  3  0  0  0  0  0  0
  -29.8210  -17.8670   21.0080 C   0  0  0  0  0  3  0  0  0  0  0  0
  -32.1330  -17.2020   20.6470 C   0  0  0  0  0  3  0  0  0  0  0  0
  -31.5600  -19.5770   20.7110 C   0  0  0  0  0  0  0  0  0  0  0  0
  -32.5420  -18.5530   20.5910 C   0  0  0  0  0  0  0  0  0  0  0  0
  -30.7750  -16.8530   20.8120 C   0  0  0  0  0  0  0  0  0  0  0  0
  -30.9120  -14.5470   20.0050 C   0  0  0  0  0  0  0  0  0  0  0  0
  -30.5040  -12.4340   18.8120 C   0  0  0  0  0  2  0  0  0  0  0  0
  -29.5030  -12.6690   17.6640 C   0  0  0  0  0  2  0  0  0  0  0  0
  -28.0560  -12.5310   18.1710 C   0  0  0  0  0  2  0  0  0  0  0  0
  -27.7910  -13.3580   19.4580 C   0  0  0  0  0  3  0  0  0  0  0  0
  -28.8980  -13.1120   20.5080 C   0  0  0  0  0  2  0  0  0  0  0  0
  -30.1990  -13.3990   19.8790 N   0  0  0  0  0  0  0  0  0  0  0  0
  -31.9670  -14.7470   19.3950 O   0  0  0  0  0  0  0  0  0  0  0  0
  -30.3550  -15.4970   20.7750 N   0  0  0  0  0  0  0  0  0  0  0  0
  -29.4410  -15.2800   21.1420 H   0  0  0  0  0  0  0  0  0  0  0  0
  -25.4300  -13.9670   20.2840 C   0  0  0  0  0  0  0  0  0  0  0  0
  -24.3800  -13.1950   20.7040 C   0  0  0  0  0  0  0  0  0  0  0  0
  -24.8370  -11.8430   20.6430 C   0  0  0  0  0  0  0  0  0  0  0  0
  -26.4620  -13.0860   20.0000 N   0  0  0  0  0  0  0  0  0  0  0  0
  -26.1110  -11.8030   20.2720 N   0  0  0  0  0  0  0  0  0  0  0  0
  -24.1200  -10.5800   20.8640 C   0  0  0  0  0  0  0  0  0  0  0  0
  -24.5290   -9.6620   21.8560 C   0  0  0  0  0  3  0  0  0  0  0  0
  -23.8130   -8.4630   22.0610 C   0  0  0  0  0  3  0  0  0  0  0  0
  -22.6720   -8.1740   21.2750 C   0  0  0  0  0  0  0  0  0  0  0  0
  -22.2830   -9.0820   20.2740 C   0  0  0  0  0  3  0  0  0  0  0  0
  -23.0010  -10.2710   20.0660 C   0  0  0  0  0  3  0  0  0  0  0  0
  -21.9300   -7.0240   21.3860 O   0  0  0  0  0  0  0  0  0  0  0  0
  -21.7830   -6.3750   22.5860 C   0  0  0  0  0  0  0  0  0  0  0  0
  -21.2300   -7.0150   23.7160 C   0  0  0  0  0  3  0  0  0  0  0  0
  -21.0330   -6.2920   24.9100 C   0  0  0  0  0  3  0  0  0  0  0  0
  -21.3780   -4.9280   24.9730 C   0  0  0  0  0  0  0  0  0  0  0  0
  -21.9230   -4.2870   23.8460 C   0  0  0  0  0  3  0  0  0  0  0  0
  -22.1220   -5.0080   22.6550 C   0  0  0  0  0  0  0  0  0  0  0  0
  -22.6290   -4.3800   21.5670 F   0  0  0  0  0  0  0  0  0  0  0  0
  -21.1810   -4.2300   26.1150 F   0  0  0  0  0  0  0  0  0  0  0  0
  -23.0000  -13.6720   21.0510 C   0  0  0  0  0  0  0  0  0  0  0  0
  -22.3270  -12.9860   21.9680 N   0  0  0  0  0  0  0  0  0  0  0  0
  -22.5280  -14.6890   20.5440 O   0  0  0  0  0  0  0  0  0  0  0  0
  -22.7210  -12.1630   22.3970 H   0  0  0  0  0  0  0  0  0  0  0  0
  -21.4040  -13.2890   22.2460 H   0  0  0  0  0  0  0  0  0  0  0  0
  -25.5900  -15.3370   20.1030 N   0  0  0  0  0  0  0  0  0  0  0  0
  -24.8320  -15.9970   20.2450 H   0  0  0  0  0  0  0  0  0  0  0  0
  -26.4260  -15.7700   19.7310 H   0  0  0  0  0  0  0  0  0  0  0  0
  -34.0270  -18.8590   20.3780 C   0  0  1  0  0  0  0  0  0  0  0  0
  -34.7580  -17.7500   20.2630 F   0  0  0  0  0  0  0  0  0  0  0  0
  -34.1960  -19.5670   19.2590 F   0  0  0  0  0  0  0  0  0  0  0  0
  -34.5170  -19.5470   21.4110 F   0  0  0  0  0  0  0  0  0  0  0  0
  -30.1120  -25.7930   21.2310 C   0  0  0  0  0  2  0  0  0  0  0  0
  -29.3120  -27.0710   20.9260 C   0  0  0  0  0  2  0  0  0  0  0  0
  -28.2010  -26.7680   20.0820 O   0  0  0  0  0  0  0  0  0  0  0  0
  -24.5100  -31.9960   23.2510 C   0  0  0  0  0  0  0  0  0  0  0  0
  -27.0790  -27.5610   20.1430 C   0  0  0  0  0  0  0  0  0  0  0  0
  -23.2560  -30.5900   21.6440 C   0  0  0  0  0  3  0  0  0  0  0  0
  -24.6710  -29.0390   20.1960 C   0  0  0  0  0  0  0  0  0  0  0  0
  -25.7710  -30.9540   21.3740 C   0  0  0  0  0  2  0  0  0  0  0  0
  -25.8390  -29.5790   20.7490 C   0  0  0  0  0  0  0  0  0  0  0  0
  -27.0440  -28.8540   20.7180 C   0  0  0  0  0  3  0  0  0  0  0  0
  -25.8970  -27.0330   19.5840 C   0  0  0  0  0  3  0  0  0  0  0  0
  -24.6930  -27.7620   19.6090 C   0  0  0  0  0  3  0  0  0  0  0  0
  -23.4280  -29.8950   20.2650 C   0  0  0  0  0  2  0  0  0  0  0  0
  -24.5320  -31.1940   22.1490 N   0  0  0  0  0  0  0  0  0  0  0  0
  -23.4450  -32.2750   23.8180 O   0  0  0  0  0  0  0  0  0  0  0  0
  -22.6270  -29.5780   22.6270 C   0  0  0  0  0  0  0  0  0  0  0  0
  -21.3080  -29.3600   22.4940 N   0  0  0  0  0  0  0  0  0  0  0  0
  -23.3210  -28.9890   23.4590 O   0  0  0  0  0  0  0  0  0  0  0  0
  -20.8120  -29.8880   21.7910 H   0  0  0  0  0  0  0  0  0  0  0  0
  -17.9710  -28.0570   22.9460 C   0  0  0  0  0  0  0  0  0  0  0  0
  -20.5080  -28.4230   23.2800 C   0  0  0  0  0  3  0  0  0  0  0  0
  -20.6800  -26.9760   22.7660 C   0  0  0  0  0  2  0  0  0  0  0  0
  -19.6230  -26.5700   21.7350 C   0  0  0  0  0  2  0  0  0  0  0  0
  -18.2180  -26.6890   22.3320 C   0  0  0  0  0  2  0  0  0  0  0  0
  -19.0470  -28.8770   23.3760 C   0  0  0  0  0  0  0  0  0  0  0  0
  -18.7650  -30.1560   23.9050 C   0  0  0  0  0  3  0  0  0  0  0  0
  -17.4390  -30.6140   24.0120 C   0  0  0  0  0  3  0  0  0  0  0  0
  -16.3760  -29.7900   23.6010 C   0  0  0  0  0  3  0  0  0  0  0  0
  -16.6430  -28.5150   23.0730 C   0  0  0  0  0  3  0  0  0  0  0  0
  -25.8170  -32.6200   23.8370 C   0  0  0  0  0  3  0  0  0  0  0  0
  -26.3720  -31.8410   25.0920 C   0  0  1  0  0  0  0  0  0  0  0  0
  -25.3100  -31.5910   26.1880 C   0  0  0  0  0  1  0  0  0  0  0  0
  -26.9470  -30.4690   24.6690 C   0  0  0  0  0  1  0  0  0  0  0  0
  -27.5390  -32.6330   25.7270 C   0  0  0  0  0  1  0  0  0  0  0  0
  -25.5240  -34.0180   24.1790 N   0  0  0  0  0  0  0  0  0  0  0  0
  -25.8390  -35.0700   23.4120 C   0  0  0  0  0  0  0  0  0  0  0  0
  -26.4820  -34.9670   22.3630 O   0  0  0  0  0  0  0  0  0  0  0  0
  -24.9500  -34.1730   24.9950 H   0  0  0  0  0  0  0  0  0  0  0  0
  -24.1120  -36.8690   23.0950 C   0  0  0  0  0  1  0  0  0  0  0  0
  -25.3660  -36.4580   23.8830 C   0  0  0  0  0  3  0  0  0  0  0  0
  -27.5220  -37.3280   24.6740 C   0  0  0  0  0  1  0  0  0  0  0  0
  -26.4000  -37.5090   23.7570 N   0  0  0  0  0  0  0  0  0  0  0  0
  -26.0000  -38.4280   23.9250 H   0  0  0  0  0  0  0  0  0  0  0  0
  1  7  1  0
  1 57  1  0
  3  6  1  0
  4  2  1  0
  5  3  1  0
  5  7  1  0
  6 12  1  0
  6  2  1  0
  7  4  1  0
  8  1  2  0
  9 10  1  0
 11 14  1  0
 12  9  2  0
 13 11  2  0
 13 12  1  0
 14 10  2  0
 15 23  1  0
 16 21  1  0
 17 18  1  0
 17 16  1  0
 19 18  1  0
 19 28  1  0
 19 20  1  0
 21 15  1  0
 21 20  1  0
 22 15  2  0
 23 14  1  0
 23 24  1  0
 25 26  2  0
 26 45  1  0
 27 26  1  0
 27 30  1  0
 28 29  1  0
 28 25  1  0
 29 27  2  0
 30 31  1  0
 31 32  2  0
 33 36  1  0
 33 32  1  0
 34 33  2  0
 35 34  1  0
 35 30  2  0
 36 37  1  0
 37 42  2  0
 37 38  1  0
 38 39  2  0
 39 40  1  0
 40 44  1  0
 41 40  2  0
 42 41  1  0
 43 42  1  0
 45 46  1  0
 46 49  1  0
 46 48  1  0
 47 45  2  0
 50 51  1  0
 50 25  1  0
 52 50  1  0
 53 13  1  0
 53 56  1  1
 54 53  1  0
 55 53  1  0
 58 57  1  0
 59 61  1  0
 59 58  1  0
 60 71  2  0
 61 66  1  0
 62 70  1  0
 62 72  1  0
 63 69  1  0
 63 65  1  0
 64 70  1  0
 65 64  1  0
 66 65  2  0
 67 68  1  0
 67 61  2  0
 68 63  2  0
 69 62  1  0
 70 60  1  0
 72 74  2  0
 73 72  1  0
 75 73  1  0
 76 85  2  0
 76 81  1  0
 77 73  1  0
 77 81  1  0
 78 77  1  0
 79 80  1  0
 79 78  1  0
 80 76  1  0
 81 82  2  0
 82 83  1  0
 84 83  2  0
 85 84  1  0
 86 60  1  0
 86 91  1  0
 86 87  1  0
 87 90  1  1
 87 88  1  0
 89 87  1  0
 91 94  1  0
 92 96  1  0
 92 91  1  0
 93 92  2  0
 96 95  1  0
 98 96  1  0
 98 99  1  0
 98 97  1  0
M  ISO  4  15 100  23 100  58 101  59 101
M  END
>  <TORSDO>  (58) 
F 20

>  <SCORE>  (58) 
-12.837

>  <name>  (58) 
57

>  <ligand_id>  (58) 
57

>  <original_smiles>  (58) 
[H]c1c([H])c([H])c2c(c1[H])C([H])([H])C([H])([H])C([H])([H])C2([H])N([H])C(=O)C1([H])N(C(=O)C([H])(N([H])C(=O)C([H])(N([H])C([H])([H])[H])C([H])([H])[H])C(C([H])([H])[H])(C([H])([H])[H])C([H])([H])[H])C([H])([H])c2c([H])c(OC([H])([H])C([H])([H])C(=O)N3C([H])([H])C([H])([H])C([H])(c4c([H])c([H])c(N([H])C(=O)N5C([H])([H])C([H])([H])C([H])([H])C([H])(n6nc(-c7c([H])c([H])c(Oc8c([H])c([H])c(F)c([H])c8F)c([H])c7[H])c(C(=O)N([H])[H])c6N([H])[H])C5([H])[H])c([H])c4C(F)(F)F)C([H])([H])C3([H])[H])c([H])c([H])c2C1([H])[H]

>  <smiles>  (58) 
[H]c1c([H])c([H])c2c(c1[H])C([H])([H])C([H])([H])C([H])([H])C2([H])N([H])C(=O)C1([H])N(C(=O)C([H])(N([H])C(=O)C([H])(N([H])C([H])([H])[H])C([H])([H])[H])C(C([H])([H])[H])(C([H])([H])[H])C([H])([H])[H])C([H])([H])c2c([H])c(OC([H])([H])C([H])([H])C(=O)N3C([H])([H])C([H])([H])C([H])(c4c([H])c([H])c(N([H])C(=O)N5C([H])([H])C([H])([H])C([H])([H])C([H])(n6nc(-c7c([H])c([H])c(Oc8c([H])c([H])c(F)c([H])c8F)c([H])c7[H])c(C(=O)N([H])[H])c6N([H])[H])C5([H])[H])c([H])c4C(F)(F)F)C([H])([H])C3([H])[H])c([H])c([H])c2C1([H])[H]

$$$$
58:0:0
     RDKit          3D

 99106  0  0  1  0  0  0  0  0999 V2000
  -22.5240  -24.5360   23.0260 C   0  0  0  0  0  2  0  0  0  0  0  0
  -23.6760  -24.8180   24.0030 C   0  0  0  0  0  0  0  0  0  0  0  0
  -23.4790  -25.8070   24.8870 N   0  0  0  0  0  0  0  0  0  0  0  0
  -24.7120  -24.1530   23.9680 O   0  0  0  0  0  0  0  0  0  0  0  0
  -22.6010  -26.3050   24.8420 H   0  0  0  0  0  0  0  0  0  0  0  0
  -24.3650  -26.1660   25.9890 C   0  0  0  0  0  2  0  0  0  0  0  0
  -23.8460  -27.4060   26.7470 C   0  0  0  0  0  2  0  0  0  0  0  0
  -24.4480  -27.5620   28.1540 C   0  0  0  0  0  2  0  0  0  0  0  0
  -23.6390  -28.5270   29.0450 C   0  0  0  0  0  2  0  0  0  0  0  0
  -24.0180  -28.4170   30.4160 O   0  0  0  0  0  0  0  0  0  0  0  0
  -20.2150  -27.1600   36.2690 C   0  0  0  0  0  0  0  0  0  0  0  0
  -23.1730  -28.9580   31.3610 C   0  0  0  0  0  0  0  0  0  0  0  0
  -19.8120  -29.3450   35.1860 C   0  0  0  0  0  3  0  0  0  0  0  0
  -21.4670  -29.9980   33.3610 C   0  0  0  0  0  0  0  0  0  0  0  0
  -22.0800  -28.1800   34.9620 C   0  0  0  0  0  2  0  0  0  0  0  0
  -22.2220  -28.8460   33.6120 C   0  0  0  0  0  0  0  0  0  0  0  0
  -23.0790  -28.3290   32.6180 C   0  0  0  0  0  3  0  0  0  0  0  0
  -22.4120  -30.1300   31.1270 C   0  0  0  0  0  3  0  0  0  0  0  0
  -21.5570  -30.6430   32.1180 C   0  0  0  0  0  3  0  0  0  0  0  0
  -20.5720  -30.4950   34.4740 C   0  0  0  0  0  2  0  0  0  0  0  0
  -20.6890  -28.1650   35.4790 N   0  0  0  0  0  0  0  0  0  0  0  0
  -19.0870  -27.2310   36.7800 O   0  0  0  0  0  0  0  0  0  0  0  0
  -18.5700  -28.9900   34.3440 C   0  0  0  0  0  0  0  0  0  0  0  0
  -17.6000  -28.3010   34.9720 N   0  0  0  0  0  0  0  0  0  0  0  0
  -18.4740  -29.3590   33.1680 O   0  0  0  0  0  0  0  0  0  0  0  0
  -17.7480  -28.0310   35.9340 H   0  0  0  0  0  0  0  0  0  0  0  0
  -15.0470  -25.7470   35.0360 C   0  0  0  0  0  0  0  0  0  0  0  0
  -16.3250  -27.9020   34.3870 C   0  0  0  0  0  3  0  0  0  0  0  0
  -15.1600  -28.6760   35.0460 C   0  0  0  0  0  2  0  0  0  0  0  0
  -14.5110  -27.9190   36.2090 C   0  0  0  0  0  2  0  0  0  0  0  0
  -13.9790  -26.5630   35.7390 C   0  0  0  0  0  2  0  0  0  0  0  0
  -16.1530  -26.3750   34.4020 C   0  0  0  0  0  0  0  0  0  0  0  0
  -17.1290  -25.5710   33.7770 C   0  0  0  0  0  3  0  0  0  0  0  0
  -17.0120  -24.1660   33.7770 C   0  0  0  0  0  3  0  0  0  0  0  0
  -15.9100  -23.5530   34.3990 C   0  0  0  0  0  3  0  0  0  0  0  0
  -14.9280  -24.3430   35.0200 C   0  0  0  0  0  3  0  0  0  0  0  0
  -21.0700  -25.8990   36.5930 C   0  0  0  0  0  3  0  0  0  0  0  0
  -20.8140  -24.7030   35.5960 C   0  0  1  0  0  0  0  0  0  0  0  0
  -19.3240  -24.5130   35.2250 C   0  0  0  0  0  1  0  0  0  0  0  0
  -21.6000  -24.9200   34.2840 C   0  0  0  0  0  1  0  0  0  0  0  0
  -21.3420  -23.3840   36.2070 C   0  0  0  0  0  1  0  0  0  0  0  0
  -20.7680  -25.5000   37.9720 N   0  0  0  0  0  0  0  0  0  0  0  0
  -20.9940  -26.2610   39.0530 C   0  0  0  0  0  0  0  0  0  0  0  0
  -21.5530  -27.3580   38.9920 O   0  0  0  0  0  0  0  0  0  0  0  0
  -20.2600  -24.6350   38.0900 H   0  0  0  0  0  0  0  0  0  0  0  0
  -19.0820  -26.1690   40.6820 C   0  0  0  0  0  1  0  0  0  0  0  0
  -20.5260  -25.7140   40.4140 C   0  0  0  0  0  3  0  0  0  0  0  0
  -22.7810  -25.6900   41.3900 C   0  0  0  0  0  1  0  0  0  0  0  0
  -21.3940  -26.1260   41.5400 N   0  0  0  0  0  0  0  0  0  0  0  0
  -21.0390  -25.7670   42.4230 H   0  0  0  0  0  0  0  0  0  0  0  0
  -21.9490  -23.0900   23.0100 C   0  0  0  0  0  2  0  0  0  0  0  0
  -20.4140  -22.8890   23.0140 C   0  0  0  0  0  2  0  0  0  0  0  0
  -19.7580  -22.8750   21.6210 C   0  0  0  0  0  2  0  0  0  0  0  0
  -20.2130  -24.0640   20.7610 C   0  0  0  0  0  2  0  0  0  0  0  0
  -21.3340  -23.7220   19.7710 C   0  0  0  0  0  2  0  0  0  0  0  0
  -21.9910  -24.9820   19.1910 C   0  0  0  0  0  2  0  0  0  0  0  0
  -23.3820  -25.2350   19.7880 C   0  0  0  0  0  2  0  0  0  0  0  0
  -23.8970  -26.6660   19.5670 C   0  0  0  0  0  2  0  0  0  0  0  0
  -25.3430  -26.7050   19.0400 C   0  0  0  0  0  2  0  0  0  0  0  0
  -25.8770  -28.1340   18.8220 C   0  0  0  0  0  2  0  0  0  0  0  0
  -27.3320  -28.3220   19.2960 C   0  0  0  0  0  2  0  0  0  0  0  0
  -28.6100  -27.3020   17.4030 C   0  0  0  0  0  0  0  0  0  0  0  0
  -30.2040  -26.3280   15.7840 C   0  0  0  0  0  2  0  0  0  0  0  0
  -29.6180  -25.1350   15.0080 C   0  0  0  0  0  2  0  0  0  0  0  0
  -29.7990  -23.8290   15.8020 C   0  0  0  0  0  2  0  0  0  0  0  0
  -29.3210  -23.9520   17.2730 C   0  0  0  0  0  3  0  0  0  0  0  0
  -29.9150  -25.2130   17.9370 C   0  0  0  0  0  2  0  0  0  0  0  0
  -29.5740  -26.3890   17.1130 N   0  0  0  0  0  0  0  0  0  0  0  0
  -28.1570  -28.0950   16.5690 O   0  0  0  0  0  0  0  0  0  0  0  0
  -28.2540  -27.3590   18.6930 N   0  0  0  0  0  0  0  0  0  0  0  0
  -28.7230  -26.7240   19.3240 H   0  0  0  0  0  0  0  0  0  0  0  0
  -28.7930  -21.7240   18.4540 C   0  0  0  0  0  0  0  0  0  0  0  0
  -29.5960  -20.8050   19.0740 C   0  0  0  0  0  0  0  0  0  0  0  0
  -30.9230  -21.3220   18.9920 C   0  0  0  0  0  0  0  0  0  0  0  0
  -29.6340  -22.7460   18.0380 N   0  0  0  0  0  0  0  0  0  0  0  0
  -30.9190  -22.5150   18.4110 N   0  0  0  0  0  0  0  0  0  0  0  0
  -32.2080  -20.7220   19.3810 C   0  0  0  0  0  0  0  0  0  0  0  0
  -33.1380  -21.4200   20.1840 C   0  0  0  0  0  3  0  0  0  0  0  0
  -34.3580  -20.8180   20.5580 C   0  0  0  0  0  3  0  0  0  0  0  0
  -34.6590  -19.5020   20.1330 C   0  0  0  0  0  0  0  0  0  0  0  0
  -33.7410  -18.8180   19.3150 C   0  0  0  0  0  3  0  0  0  0  0  0
  -32.5280  -19.4210   18.9390 C   0  0  0  0  0  3  0  0  0  0  0  0
  -35.8310  -18.8470   20.4270 O   0  0  0  0  0  0  0  0  0  0  0  0
  -36.6280  -19.2330   21.4750 C   0  0  0  0  0  0  0  0  0  0  0  0
  -36.1450  -19.2760   22.8000 C   0  0  0  0  0  3  0  0  0  0  0  0
  -37.0170  -19.6060   23.8570 C   0  0  0  0  0  3  0  0  0  0  0  0
  -38.3710  -19.8910   23.5900 C   0  0  0  0  0  0  0  0  0  0  0  0
  -38.8540  -19.8460   22.2700 C   0  0  0  0  0  3  0  0  0  0  0  0
  -37.9840  -19.5150   21.2150 C   0  0  0  0  0  0  0  0  0  0  0  0
  -38.4600  -19.4500   19.9490 F   0  0  0  0  0  0  0  0  0  0  0  0
  -39.2120  -20.2030   24.6050 F   0  0  0  0  0  0  0  0  0  0  0  0
  -29.1700  -19.4730   19.6280 C   0  0  0  0  0  0  0  0  0  0  0  0
  -29.7810  -19.0410   20.7250 N   0  0  0  0  0  0  0  0  0  0  0  0
  -28.2540  -18.8320   19.1170 O   0  0  0  0  0  0  0  0  0  0  0  0
  -30.5200  -19.5730   21.1600 H   0  0  0  0  0  0  0  0  0  0  0  0
  -29.5020  -18.1620   21.1370 H   0  0  0  0  0  0  0  0  0  0  0  0
  -27.4280  -21.7730   18.1980 N   0  0  0  0  0  0  0  0  0  0  0  0
  -26.8020  -21.0240   18.4700 H   0  0  0  0  0  0  0  0  0  0  0  0
  -26.9570  -22.5230   17.7080 H   0  0  0  0  0  0  0  0  0  0  0  0
  1  2  1  0
  2  3  1  0
  3  6  1  0
  4  2  2  0
  5  3  1  0
  6  7  1  0
  7  8  1  0
  8  9  1  0
  9 10  1  0
 10 12  1  0
 11 22  2  0
 12 17  1  0
 13 23  1  0
 13 21  1  0
 14 16  1  0
 14 20  1  0
 15 21  1  0
 16 15  1  0
 17 16  2  0
 18 12  2  0
 18 19  1  0
 19 14  2  0
 20 13  1  0
 21 11  1  0
 23 24  1  0
 24 26  1  0
 25 23  2  0
 27 31  1  0
 28 32  1  0
 28 24  1  0
 28 29  1  0
 29 30  1  0
 31 30  1  0
 32 27  2  0
 33 32  1  0
 34 33  2  0
 34 35  1  0
 35 36  2  0
 36 27  1  0
 37 11  1  0
 37 42  1  0
 38 41  1  1
 38 37  1  0
 39 38  1  0
 40 38  1  0
 42 45  1  0
 42 43  1  0
 43 47  1  0
 44 43  2  0
 47 46  1  0
 47 49  1  0
 48 49  1  0
 49 50  1  0
 51 52  1  0
 51  1  1  0
 53 52  1  0
 54 53  1  0
 55 54  1  0
 56 55  1  0
 56 57  1  0
 58 57  1  0
 59 58  1  0
 60 59  1  0
 60 61  1  0
 62 70  1  0
 63 68  1  0
 64 63  1  0
 64 65  1  0
 66 65  1  0
 66 67  1  0
 66 75  1  0
 68 62  1  0
 68 67  1  0
 69 62  2  0
 70 61  1  0
 70 71  1  0
 72 73  2  0
 73 92  1  0
 74 73  1  0
 74 77  1  0
 75 76  1  0
 75 72  1  0
 76 74  2  0
 77 78  1  0
 78 79  2  0
 80 83  1  0
 80 79  1  0
 81 80  2  0
 82 81  1  0
 82 77  2  0
 83 84  1  0
 84 85  1  0
 85 86  2  0
 87 86  1  0
 87 91  1  0
 88 87  2  0
 89 84  2  0
 89 88  1  0
 90 89  1  0
 92 93  1  0
 93 96  1  0
 93 95  1  0
 94 92  2  0
 97 72  1  0
 97 98  1  0
 99 97  1  0
M  ISO  4   9 101  10 101  62 100  70 100
M  END
>  <TORSDO>  (59) 
F 32

>  <SCORE>  (59) 
1.430

>  <name>  (59) 
58

>  <ligand_id>  (59) 
58

>  <original_smiles>  (59) 
[H]c1c([H])c([H])c2c(c1[H])C([H])([H])C([H])([H])C([H])([H])C2([H])N([H])C(=O)C1([H])N(C(=O)C([H])(N([H])C(=O)C([H])(N([H])C([H])([H])[H])C([H])([H])[H])C(C([H])([H])[H])(C([H])([H])[H])C([H])([H])[H])C([H])([H])c2c([H])c(OC([H])([H])C([H])([H])C([H])([H])C([H])([H])N([H])C(=O)C([H])([H])C([H])([H])C([H])([H])C([H])([H])C([H])([H])C([H])([H])C([H])([H])C([H])([H])C([H])([H])C([H])([H])C([H])([H])C([H])([H])N([H])C(=O)N3C([H])([H])C([H])([H])C([H])([H])C([H])(n4nc(-c5c([H])c([H])c(Oc6c([H])c([H])c(F)c([H])c6F)c([H])c5[H])c(C(=O)N([H])[H])c4N([H])[H])C3([H])[H])c([H])c([H])c2C1([H])[H]

>  <smiles>  (59) 
[H]c1c([H])c([H])c2c(c1[H])C([H])([H])C([H])([H])C([H])([H])C2([H])N([H])C(=O)C1([H])N(C(=O)C([H])(N([H])C(=O)C([H])(N([H])C([H])([H])[H])C([H])([H])[H])C(C([H])([H])[H])(C([H])([H])[H])C([H])([H])[H])C([H])([H])c2c([H])c(OC([H])([H])C([H])([H])C([H])([H])C([H])([H])N([H])C(=O)C([H])([H])C([H])([H])C([H])([H])C([H])([H])C([H])([H])C([H])([H])C([H])([H])C([H])([H])C([H])([H])C([H])([H])C([H])([H])C([H])([H])N([H])C(=O)N3C([H])([H])C([H])([H])C([H])([H])C([H])(n4nc(-c5c([H])c([H])c(Oc6c([H])c([H])c(F)c([H])c6F)c([H])c5[H])c(C(=O)N([H])[H])c4N([H])[H])C3([H])[H])c([H])c([H])c2C1([H])[H]

$$$$
59:0:0
     RDKit          3D

118125  0  0  1  0  0  0  0  0999 V2000
  -28.2920  -22.7360   21.7700 C   0  0  0  0  0  0  0  0  0  0  0  0
  -28.9790  -21.7730   20.9390 N   0  0  0  0  0  0  0  0  0  0  0  0
  -28.9860  -23.4800   22.4640 O   0  0  0  0  0  0  0  0  0  0  0  0
  -28.1540  -20.8510   20.1610 C   0  0  0  0  0  2  0  0  0  0  0  0
  -28.5730  -19.3820   20.3860 C   0  0  0  0  0  2  0  0  0  0  0  0
  -27.6640  -18.3600   19.6850 C   0  0  0  0  0  2  0  0  0  0  0  0
  -27.0450  -19.6030   17.5590 C   0  0  0  0  0  0  0  0  0  0  0  0
  -28.2860  -19.5440   17.0630 N   0  0  0  0  0  4  0  0  0  0  0  0
  -26.7560  -19.0070   18.7280 N   0  0  0  0  0  0  0  0  0  0  0  0
  -26.0880  -20.2780   16.8890 N   0  0  0  0  0  0  0  0  0  0  0  0
  -29.0190  -19.0420   17.5420 H   0  0  0  0  0  0  0  0  0  0  0  0
  -28.5370  -19.9870   16.1920 H   0  0  0  0  0  0  0  0  0  0  0  0
  -25.7910  -19.0150   19.0280 H   0  0  0  0  0  0  0  0  0  0  0  0
  -26.3230  -20.6620   15.9860 H   0  0  0  0  0  0  0  0  0  0  0  0
  -24.7120  -20.5350   17.3380 C   0  0  0  0  0  3  0  0  0  0  0  0
  -23.8950  -20.8870   16.2100 N   0  0  0  0  0  0  0  0  0  0  0  0
  -23.9680  -21.8960   16.0590 H   0  0  0  0  0  0  0  0  0  0  0  0
  -22.9200  -20.7490   16.4510 H   0  0  0  0  0  0  0  0  0  0  0  0
  -24.7000  -21.6580   18.2400 N   0  0  0  0  0  0  0  0  0  0  0  0
  -25.2990  -21.4470   19.0310 H   0  0  0  0  0  0  0  0  0  0  0  0
  -23.7820  -21.7380   18.6650 H   0  0  0  0  0  0  0  0  0  0  0  0
  -30.5530  -21.5230   20.7260 C   0  0  0  0  0  2  0  0  0  0  0  0
  -31.3420  -20.2040   19.9530 C   0  0  0  0  0  3  0  0  0  0  0  0
  -32.8770  -20.2080   19.1830 C   0  0  0  0  0  3  0  0  0  0  0  0
  -34.7450  -18.6360   17.7590 C   0  0  0  0  0  0  0  0  0  0  0  0
  -35.7190  -16.7610   16.2960 C   0  0  0  0  0  2  0  0  0  0  0  0
  -34.6090  -16.0290   15.4950 C   0  0  0  0  0  2  0  0  0  0  0  0
  -33.9090  -14.9630   16.3630 C   0  0  0  0  0  2  0  0  0  0  0  0
  -33.5570  -15.5140   17.7690 C   0  0  0  0  0  3  0  0  0  0  0  0
  -34.7690  -16.2000   18.4270 C   0  0  0  0  0  2  0  0  0  0  0  0
  -35.1330  -17.3140   17.5580 N   0  0  0  0  0  0  0  0  0  0  0  0
  -35.2290  -19.4740   16.9790 O   0  0  0  0  0  0  0  0  0  0  0  0
  -33.7430  -18.9380   18.7480 N   0  0  0  0  0  0  0  0  0  0  0  0
  -33.4930  -18.1110   19.2710 H   0  0  0  0  0  0  0  0  0  0  0  0
  -31.7780  -14.4930   19.2920 C   0  0  0  0  0  0  0  0  0  0  0  0
  -31.7150  -13.2950   19.9460 C   0  0  0  0  0  0  0  0  0  0  0  0
  -32.9450  -12.6240   19.6680 C   0  0  0  0  0  0  0  0  0  0  0  0
  -33.0010  -14.4980   18.6450 N   0  0  0  0  0  0  0  0  0  0  0  0
  -33.7320  -13.3920   18.9290 N   0  0  0  0  0  0  0  0  0  0  0  0
  -33.3870  -11.2680   20.0110 C   0  0  0  0  0  0  0  0  0  0  0  0
  -34.6430  -11.0320   20.6110 C   0  0  0  0  0  3  0  0  0  0  0  0
  -35.0370   -9.7200   20.9500 C   0  0  0  0  0  3  0  0  0  0  0  0
  -34.1690   -8.6310   20.6940 C   0  0  0  0  0  0  0  0  0  0  0  0
  -32.9300   -8.8710   20.0750 C   0  0  0  0  0  3  0  0  0  0  0  0
  -32.5420  -10.1770   19.7340 C   0  0  0  0  0  3  0  0  0  0  0  0
  -34.4770   -7.3200   20.9640 O   0  0  0  0  0  0  0  0  0  0  0  0
  -35.3940   -6.9810   21.9280 C   0  0  0  0  0  0  0  0  0  0  0  0
  -35.2780   -7.4370   23.2590 C   0  0  0  0  0  3  0  0  0  0  0  0
  -36.2020   -7.0060   24.2330 C   0  0  0  0  0  3  0  0  0  0  0  0
  -37.2340   -6.1160   23.8820 C   0  0  0  0  0  0  0  0  0  0  0  0
  -37.3480   -5.6580   22.5570 C   0  0  0  0  0  3  0  0  0  0  0  0
  -36.4280   -6.0870   21.5840 C   0  0  0  0  0  0  0  0  0  0  0  0
  -36.5290   -5.6260   20.3140 F   0  0  0  0  0  0  0  0  0  0  0  0
  -38.1160   -5.6960   24.8180 F   0  0  0  0  0  0  0  0  0  0  0  0
  -30.5400  -12.7540   20.6990 C   0  0  0  0  0  0  0  0  0  0  0  0
  -30.7850  -12.0670   21.8080 N   0  0  0  0  0  0  0  0  0  0  0  0
  -29.3890  -12.9760   20.3290 O   0  0  0  0  0  0  0  0  0  0  0  0
  -31.7300  -11.8990   22.1210 H   0  0  0  0  0  0  0  0  0  0  0  0
  -30.0160  -11.7120   22.3580 H   0  0  0  0  0  0  0  0  0  0  0  0
  -30.8970  -15.5650   19.1800 N   0  0  0  0  0  0  0  0  0  0  0  0
  -30.0100  -15.5860   19.6830 H   0  0  0  0  0  0  0  0  0  0  0  0
  -31.0470  -16.3850   18.6090 H   0  0  0  0  0  0  0  0  0  0  0  0
  -26.6340  -22.9870   21.9130 C   0  0  0  0  0  3  0  0  0  0  0  0
  -25.8050  -24.0540   22.9710 C   0  0  0  0  0  3  0  0  0  0  0  0
  -24.1700  -24.5660   22.8920 C   0  0  0  0  0  2  0  0  0  0  0  0
  -23.4540  -26.0240   23.4550 C   0  0  0  0  0  2  0  0  0  0  0  0
  -22.2040  -26.9450   22.6710 C   0  0  0  0  0  2  0  0  0  0  0  0
  -21.9940  -28.3300   21.5600 C   0  0  0  0  0  2  0  0  0  0  0  0
  -22.1770  -28.9600   19.8450 C   0  0  0  0  0  2  0  0  0  0  0  0
  -23.3630  -29.7550   18.7440 C   0  0  0  0  0  2  0  0  0  0  0  0
  -25.0720  -29.6520   18.2730 C   0  0  0  0  0  2  0  0  0  0  0  0
  -26.1390  -29.1560   16.9920 C   0  0  0  0  0  2  0  0  0  0  0  0
  -28.6890  -27.8120   16.7720 C   0  0  0  0  0  0  0  0  0  0  0  0
  -27.2820  -28.0520   16.7760 N   0  0  0  0  0  0  0  0  0  0  0  0
  -29.4410  -28.7510   17.0370 O   0  0  0  0  0  0  0  0  0  0  0  0
  -26.8450  -27.1650   16.5680 H   0  0  0  0  0  0  0  0  0  0  0  0
  -29.4070  -26.3330   16.4160 C   0  0  0  0  0  2  0  0  0  0  0  0
  -30.0770  -25.2950   17.4060 O   0  0  0  0  0  0  0  0  0  0  0  0
  -26.1190  -27.7340   21.7490 C   0  0  0  0  0  0  0  0  0  0  0  0
  -29.2250  -24.4360   17.9900 C   0  0  0  0  0  3  0  0  0  0  0  0
  -25.0460  -26.5810   19.4600 C   0  0  0  0  0  3  0  0  0  0  0  0
  -26.7410  -25.4550   18.0980 C   0  0  0  0  0  0  0  0  0  0  0  0
  -27.4990  -26.8510   20.1130 C   0  0  0  0  0  2  0  0  0  0  0  0
  -27.6710  -25.7440   19.1220 C   0  0  0  0  0  0  0  0  0  0  0  0
  -28.8890  -25.0890   19.1530 C   0  0  0  0  0  2  0  0  0  0  0  0
  -28.2550  -23.8850   17.1310 C   0  0  0  0  0  3  0  0  0  0  0  0
  -26.9760  -24.4460   17.1600 C   0  0  0  0  0  3  0  0  0  0  0  0
  -25.4800  -26.2120   18.0420 C   0  0  0  0  0  2  0  0  0  0  0  0
  -26.1440  -27.0350   20.5210 N   0  0  0  0  0  0  0  0  0  0  0  0
  -25.1530  -28.1820   22.3260 O   0  0  0  0  0  0  0  0  0  0  0  0
  -24.2370  -25.3430   19.7400 C   0  0  0  0  0  0  0  0  0  0  0  0
  -22.9340  -25.3070   19.4310 N   0  0  0  0  0  0  0  0  0  0  0  0
  -24.8140  -24.3640   20.1100 O   0  0  0  0  0  0  0  0  0  0  0  0
  -22.5240  -26.1360   19.0290 H   0  0  0  0  0  0  0  0  0  0  0  0
  -19.5640  -24.2020   19.1250 C   0  0  0  0  0  0  0  0  0  0  0  0
  -21.9960  -24.3020   19.8990 C   0  0  0  0  0  3  0  0  0  0  0  0
  -22.2110  -22.9900   19.1280 C   0  0  0  0  0  2  0  0  0  0  0  0
  -21.3900  -22.9720   17.8500 C   0  0  0  0  0  2  0  0  0  0  0  0
  -19.9040  -23.0450   18.1990 C   0  0  0  0  0  2  0  0  0  0  0  0
  -20.5500  -24.8020   19.9380 C   0  0  0  0  0  0  0  0  0  0  0  0
  -20.1560  -25.8370   20.8210 C   0  0  0  0  0  3  0  0  0  0  0  0
  -18.8470  -26.3400   20.8260 C   0  0  0  0  0  3  0  0  0  0  0  0
  -17.8810  -25.7490   20.0010 C   0  0  0  0  0  3  0  0  0  0  0  0
  -18.2350  -24.6640   19.1770 C   0  0  0  0  0  3  0  0  0  0  0  0
  -27.3130  -28.2280   22.6120 C   0  0  0  0  0  3  0  0  0  0  0  0
  -26.8300  -29.3650   23.4620 N   0  0  0  0  0  0  0  0  0  0  0  0
  -27.0710  -30.6650   23.2900 C   0  0  0  0  0  0  0  0  0  0  0  0
  -27.9120  -31.0690   22.4890 O   0  0  0  0  0  0  0  0  0  0  0  0
  -26.0790  -29.1250   24.0900 H   0  0  0  0  0  0  0  0  0  0  0  0
  -25.3040  -32.4860   23.3150 C   0  0  0  0  0  1  0  0  0  0  0  0
  -26.2900  -31.6700   24.1700 C   0  0  0  0  0  3  0  0  0  0  0  0
  -27.9500  -31.9300   25.9610 C   0  0  0  0  0  1  0  0  0  0  0  0
  -27.1720  -32.5920   24.9150 N   0  0  0  0  0  0  0  0  0  0  0  0
  -26.6360  -33.3430   25.3420 H   0  0  0  0  0  0  0  0  0  0  0  0
  -27.7850  -27.0830   23.5860 C   0  0  1  0  0  0  0  0  0  0  0  0
  -26.6650  -26.3440   24.3580 C   0  0  0  0  0  1  0  0  0  0  0  0
  -28.6260  -26.0290   22.8520 C   0  0  0  0  0  1  0  0  0  0  0  0
  -28.7290  -27.6840   24.6410 C   0  0  0  0  0  1  0  0  0  0  0  0
  1 63  1  0
  1  3  2  0
  2  1  1  0
  4  5  1  0
  4  2  1  0
  6  5  1  0
  7  9  1  0
  8 11  1  0
  8  7  2  0
  9 13  1  0
  9  6  1  0
 10 15  1  0
 10  7  1  0
 12  8  1  0
 14 10  1  0
 15 19  1  0
 16 18  1  0
 16 15  1  0
 17 16  1  0
 19 21  1  0
 19 20  1  0
 22  2  1  0
 23 22  1  0
 24 23  2  0
 25 33  1  0
 26 31  1  0
 27 26  1  0
 27 28  1  0
 29 28  1  0
 29 30  1  0
 29 38  1  0
 31 25  1  0
 31 30  1  0
 32 25  2  0
 33 24  1  0
 33 34  1  0
 35 36  2  0
 36 55  1  0
 37 36  1  0
 37 40  1  0
 38 39  1  0
 38 35  1  0
 39 37  2  0
 40 41  1  0
 41 42  2  0
 43 42  1  0
 43 46  1  0
 44 43  2  0
 45 40  2  0
 45 44  1  0
 46 47  1  0
 47 48  1  0
 48 49  2  0
 50 49  1  0
 50 54  1  0
 51 50  2  0
 52 47  2  0
 52 51  1  0
 53 52  1  0
 55 56  1  0
 56 58  1  0
 56 59  1  0
 57 55  2  0
 60 35  1  0
 60 61  1  0
 62 60  1  0
 63 64  2  0
 65 64  1  0
 65 66  1  0
 67 66  1  0
 68 67  1  0
 69 68  1  0
 70 69  1  0
 71 70  1  0
 72 71  1  0
 73 74  1  0
 73 75  2  0
 74 72  1  0
 76 74  1  0
 77 73  1  0
 77 78  1  0
 79 90  2  0
 80 78  1  0
 80 85  1  0
 81 91  1  0
 81 89  1  0
 82 84  2  0
 83 89  1  0
 84 85  1  0
 84 83  1  0
 86 87  2  0
 86 80  1  0
 87 82  1  0
 88 82  1  0
 88 81  1  0
 89 79  1  0
 91 93  2  0
 92 91  1  0
 94 92  1  0
 95104  2  0
 95100  1  0
 96 92  1  0
 96100  1  0
 97 96  1  0
 98 99  1  0
 98 97  1  0
 99 95  1  0
100101  2  0
101102  1  0
103102  2  0
104103  1  0
105 79  1  0
105106  1  0
105115  1  0
106109  1  0
107106  1  0
107111  1  0
108107  2  0
111110  1  0
111113  1  0
113114  1  0
113112  1  0
115116  1  1
115118  1  0
117115  1  0
M  ISO  4  25 100  33 100  77 101  78 101
M  END
>  <TORSDO>  (60) 
F 38

>  <SCORE>  (60) 
-3.856

>  <name>  (60) 
59

>  <ligand_id>  (60) 
59

>  <original_smiles>  (60) 
[H]c1c([H])c([H])c2c(c1[H])C([H])([H])C([H])([H])C([H])([H])C2([H])N([H])C(=O)C1([H])N(C(=O)C([H])(N([H])C(=O)C([H])(N([H])C([H])([H])[H])C([H])([H])[H])C(C([H])([H])[H])(C([H])([H])[H])C([H])([H])[H])C([H])([H])c2c([H])c(OC([H])([H])C(=O)N([H])C([H])([H])C([H])([H])C([H])([H])C([H])([H])C([H])([H])C([H])([H])C([H])([H])C([H])([H])C([H])([H])C([H])([H])C(=O)N(C([H])([H])C([H])([H])C([H])([H])N([H])C(=O)N3C([H])([H])C([H])([H])C([H])([H])C([H])(n4nc(-c5c([H])c([H])c(Oc6c([H])c([H])c(F)c([H])c6F)c([H])c5[H])c(C(=O)N([H])[H])c4N([H])[H])C3([H])[H])C([H])([H])C([H])([H])C([H])([H])N([H])C(N([H])[H])=[N+]([H])C([H])(N([H])[H])N([H])[H])c([H])c([H])c2C1([H])[H]

>  <smiles>  (60) 
[H]c1c([H])c([H])c2c(c1[H])C([H])([H])C([H])([H])C([H])([H])C2([H])N([H])C(=O)C1([H])N(C(=O)C([H])(N([H])C(=O)C([H])(N([H])C([H])([H])[H])C([H])([H])[H])C(C([H])([H])[H])(C([H])([H])[H])C([H])([H])[H])C([H])([H])c2c([H])c(OC([H])([H])C(=O)N([H])C([H])([H])C([H])([H])C([H])([H])C([H])([H])C([H])([H])C([H])([H])C([H])([H])C([H])([H])C([H])([H])C([H])([H])C(=O)N(C([H])([H])C([H])([H])C([H])([H])N([H])C(=O)N3C([H])([H])C([H])([H])C([H])([H])C([H])(n4nc(-c5c([H])c([H])c(Oc6c([H])c([H])c(F)c([H])c6F)c([H])c5[H])c(C(=O)N([H])[H])c4N([H])[H])C3([H])[H])C([H])([H])C([H])([H])C([H])([H])N([H])C(N([H])[H])=[N+]([H])C([H])(N([H])[H])N([H])[H])c([H])c([H])c2C1([H])[H]

$$$$
60:0:0
     RDKit          3D

 99107  0  0  1  0  0  0  0  0999 V2000
  -31.3230  -22.5530   22.1110 C   0  0  0  0  0  3  0  0  0  0  0  0
  -30.8070  -21.2910   21.7820 C   0  0  0  0  0  3  0  0  0  0  0  0
  -32.2430  -22.7610   19.8540 C   0  0  0  0  0  3  0  0  0  0  0  0
  -31.9350  -23.3300   21.1090 C   0  0  0  0  0  0  0  0  0  0  0  0
  -31.7480  -21.4870   19.5300 C   0  0  0  0  0  0  0  0  0  0  0  0
  -30.9260  -20.8140   20.4620 C   0  0  0  0  0  0  0  0  0  0  0  0
  -31.9860  -20.9440   18.2650 N   0  0  0  0  0  0  0  0  0  0  0  0
  -32.2800  -21.5390   17.4980 H   0  0  0  0  0  0  0  0  0  0  0  0
  -31.4680  -20.1190   17.9820 H   0  0  0  0  0  0  0  0  0  0  0  0
  -31.8760  -24.7740   21.2730 C   0  0  0  0  0  3  0  0  0  0  0  0
  -31.2480  -25.5160   20.3440 C   0  0  0  0  0  3  0  0  0  0  0  0
  -30.8840  -26.9590   20.5000 C   0  0  0  0  0  2  0  0  0  0  0  0
  -29.4760  -27.0370   21.1030 C   0  0  0  0  0  2  0  0  0  0  0  0
  -28.4540  -26.7220   20.1320 O   0  0  0  0  0  0  0  0  0  0  0  0
  -24.5690  -31.8120   23.1960 C   0  0  0  0  0  0  0  0  0  0  0  0
  -27.2700  -27.4300   20.1680 C   0  0  0  0  0  0  0  0  0  0  0  0
  -23.3530  -30.3950   21.5570 C   0  0  0  0  0  3  0  0  0  0  0  0
  -24.8150  -28.8450   20.1520 C   0  0  0  0  0  0  0  0  0  0  0  0
  -25.8580  -30.7940   21.3330 C   0  0  0  0  0  2  0  0  0  0  0  0
  -25.9520  -29.4170   20.7200 C   0  0  0  0  0  0  0  0  0  0  0  0
  -27.1690  -28.7280   20.7180 C   0  0  0  0  0  3  0  0  0  0  0  0
  -26.1120  -26.8560   19.5950 C   0  0  0  0  0  3  0  0  0  0  0  0
  -24.8860  -27.5580   19.5840 C   0  0  0  0  0  3  0  0  0  0  0  0
  -23.5590  -29.6840   20.1890 C   0  0  0  0  0  2  0  0  0  0  0  0
  -24.6110  -31.0130   22.0920 N   0  0  0  0  0  0  0  0  0  0  0  0
  -23.4920  -32.0880   23.7400 O   0  0  0  0  0  0  0  0  0  0  0  0
  -22.7090  -29.3880   22.5330 C   0  0  0  0  0  0  0  0  0  0  0  0
  -21.3800  -29.2260   22.4240 N   0  0  0  0  0  0  0  0  0  0  0  0
  -23.3970  -28.7520   23.3340 O   0  0  0  0  0  0  0  0  0  0  0  0
  -20.8900  -29.7940   21.7460 H   0  0  0  0  0  0  0  0  0  0  0  0
  -17.9930  -28.1050   22.9590 C   0  0  0  0  0  0  0  0  0  0  0  0
  -20.5580  -28.3000   23.1990 C   0  0  0  0  0  3  0  0  0  0  0  0
  -20.6220  -26.8730   22.6080 C   0  0  0  0  0  2  0  0  0  0  0  0
  -19.4980  -26.5850   21.6070 C   0  0  0  0  0  2  0  0  0  0  0  0
  -18.1290  -26.7550   22.2730 C   0  0  0  0  0  2  0  0  0  0  0  0
  -19.1350  -28.8370   23.3790 C   0  0  0  0  0  0  0  0  0  0  0  0
  -18.9560  -30.1030   23.9790 C   0  0  0  0  0  3  0  0  0  0  0  0
  -17.6660  -30.6350   24.1660 C   0  0  0  0  0  3  0  0  0  0  0  0
  -16.5380  -29.8980   23.7660 C   0  0  0  0  0  3  0  0  0  0  0  0
  -16.7020  -28.6360   23.1670 C   0  0  0  0  0  3  0  0  0  0  0  0
  -25.8620  -32.4400   23.8100 C   0  0  0  0  0  3  0  0  0  0  0  0
  -25.5610  -33.8360   24.1490 N   0  0  0  0  0  0  0  0  0  0  0  0
  -25.9100  -34.8900   23.3990 C   0  0  0  0  0  0  0  0  0  0  0  0
  -26.5890  -34.7890   22.3730 O   0  0  0  0  0  0  0  0  0  0  0  0
  -24.9590  -33.9900   24.9430 H   0  0  0  0  0  0  0  0  0  0  0  0
  -24.1920  -36.6880   23.0330 C   0  0  0  0  0  1  0  0  0  0  0  0
  -25.4230  -36.2770   23.8570 C   0  0  0  0  0  3  0  0  0  0  0  0
  -27.5530  -37.1440   24.7120 C   0  0  0  0  0  1  0  0  0  0  0  0
  -26.4590  -37.3280   23.7630 N   0  0  0  0  0  0  0  0  0  0  0  0
  -26.0540  -38.2480   23.9180 H   0  0  0  0  0  0  0  0  0  0  0  0
  -26.3930  -31.6590   25.0730 C   0  0  1  0  0  0  0  0  0  0  0  0
  -25.3140  -31.4100   26.1500 C   0  0  0  0  0  1  0  0  0  0  0  0
  -26.9730  -30.2860   24.6560 C   0  0  0  0  0  1  0  0  0  0  0  0
  -27.5510  -32.4450   25.7300 C   0  0  0  0  0  1  0  0  0  0  0  0
  -30.1220  -19.7820   20.0700 O   0  0  0  0  0  0  0  0  0  0  0  0
  -29.1250  -20.1570   19.1060 C   0  0  0  0  0  2  0  0  0  0  0  0
  -27.7100  -19.7360   19.5470 C   0  0  0  0  0  2  0  0  0  0  0  0
  -27.4020  -18.2260   19.5450 C   0  0  0  0  0  2  0  0  0  0  0  0
  -28.3610  -17.3960   20.4150 C   0  0  0  0  0  2  0  0  0  0  0  0
  -29.4900  -16.7620   19.5930 C   0  0  0  0  0  2  0  0  0  0  0  0
  -30.7530  -16.4470   20.4090 C   0  0  0  0  0  2  0  0  0  0  0  0
  -31.2190  -14.0730   20.0750 C   0  0  0  0  0  0  0  0  0  0  0  0
  -30.7630  -11.8730   19.0810 C   0  0  0  0  0  2  0  0  0  0  0  0
  -29.8120  -12.0350   17.8790 C   0  0  0  0  0  2  0  0  0  0  0  0
  -28.3370  -12.0360   18.3280 C   0  0  0  0  0  2  0  0  0  0  0  0
  -28.0720  -12.9800   19.5280 C   0  0  0  0  0  3  0  0  0  0  0  0
  -29.1280  -12.7860   20.6400 C   0  0  0  0  0  2  0  0  0  0  0  0
  -30.4730  -12.9430   20.0460 N   0  0  0  0  0  0  0  0  0  0  0  0
  -32.2470  -14.2400   19.4080 O   0  0  0  0  0  0  0  0  0  0  0  0
  -30.7030  -15.0530   20.8140 N   0  0  0  0  0  0  0  0  0  0  0  0
  -29.9440  -14.7880   21.4250 H   0  0  0  0  0  0  0  0  0  0  0  0
  -25.7470  -13.8080   20.2690 C   0  0  0  0  0  0  0  0  0  0  0  0
  -24.6240  -13.1350   20.6680 C   0  0  0  0  0  0  0  0  0  0  0  0
  -24.9650  -11.7470   20.6350 C   0  0  0  0  0  0  0  0  0  0  0  0
  -26.7080  -12.8370   20.0310 N   0  0  0  0  0  0  0  0  0  0  0  0
  -26.2380  -11.5930   20.2980 N   0  0  0  0  0  0  0  0  0  0  0  0
  -24.1390  -10.5530   20.8540 C   0  0  0  0  0  0  0  0  0  0  0  0
  -24.5270   -9.5500   21.7690 C   0  0  0  0  0  3  0  0  0  0  0  0
  -23.7130   -8.4150   21.9760 C   0  0  0  0  0  3  0  0  0  0  0  0
  -22.4950   -8.2790   21.2690 C   0  0  0  0  0  0  0  0  0  0  0  0
  -22.1200   -9.2720   20.3460 C   0  0  0  0  0  3  0  0  0  0  0  0
  -22.9340  -10.3980   20.1390 C   0  0  0  0  0  3  0  0  0  0  0  0
  -21.6520   -7.2020   21.3860 O   0  0  0  0  0  0  0  0  0  0  0  0
  -21.6010   -6.4520   22.5330 C   0  0  0  0  0  0  0  0  0  0  0  0
  -21.3070   -7.0280   23.7880 C   0  0  0  0  0  3  0  0  0  0  0  0
  -21.1940   -6.2080   24.9290 C   0  0  0  0  0  3  0  0  0  0  0  0
  -21.3660   -4.8150   24.8150 C   0  0  0  0  0  0  0  0  0  0  0  0
  -21.6520   -4.2400   23.5650 C   0  0  0  0  0  3  0  0  0  0  0  0
  -21.7660   -5.0570   22.4260 C   0  0  0  0  0  0  0  0  0  0  0  0
  -22.0200   -4.4950   21.2200 F   0  0  0  0  0  0  0  0  0  0  0  0
  -21.2500   -4.0250   25.9090 F   0  0  0  0  0  0  0  0  0  0  0  0
  -23.2800  -13.7320   20.9720 C   0  0  0  0  0  0  0  0  0  0  0  0
  -22.5250  -13.1140   21.8730 N   0  0  0  0  0  0  0  0  0  0  0  0
  -22.9100  -14.7840   20.4470 O   0  0  0  0  0  0  0  0  0  0  0  0
  -22.8340  -12.2620   22.3140 H   0  0  0  0  0  0  0  0  0  0  0  0
  -21.6280  -13.5020   22.1260 H   0  0  0  0  0  0  0  0  0  0  0  0
  -26.0280  -15.1570   20.0780 N   0  0  0  0  0  0  0  0  0  0  0  0
  -25.3330  -15.8800   20.2270 H   0  0  0  0  0  0  0  0  0  0  0  0
  -26.9270  -15.5200   19.7890 H   0  0  0  0  0  0  0  0  0  0  0  0
  2  1  1  0
  3  4  1  0
  4 10  1  0
  4  1  2  0
  5  3  2  0
  5  6  1  0
  6  2  2  0
  7  5  1  0
  8  7  1  0
  9  7  1  0
 11 12  1  0
 11 10  2  0
 12 13  1  0
 14 16  1  0
 14 13  1  0
 15 26  2  0
 16 21  1  0
 17 25  1  0
 17 27  1  0
 18 24  1  0
 18 20  1  0
 19 25  1  0
 20 19  1  0
 21 20  2  0
 22 16  2  0
 23 22  1  0
 23 18  2  0
 24 17  1  0
 25 15  1  0
 27 29  2  0
 28 27  1  0
 30 28  1  0
 31 40  2  0
 31 36  1  0
 32 28  1  0
 32 36  1  0
 33 32  1  0
 34 35  1  0
 34 33  1  0
 35 31  1  0
 36 37  2  0
 37 38  1  0
 39 38  2  0
 40 39  1  0
 41 15  1  0
 41 42  1  0
 41 51  1  0
 42 45  1  0
 43 47  1  0
 43 42  1  0
 44 43  2  0
 47 46  1  0
 49 47  1  0
 49 50  1  0
 49 48  1  0
 51 54  1  1
 51 52  1  0
 53 51  1  0
 55  6  1  0
 56 57  1  0
 56 55  1  0
 58 57  1  0
 58 59  1  0
 60 61  1  0
 60 59  1  0
 61 70  1  0
 62 70  1  0
 63 68  1  0
 64 65  1  0
 64 63  1  0
 66 65  1  0
 66 75  1  0
 66 67  1  0
 68 62  1  0
 68 67  1  0
 69 62  2  0
 70 71  1  0
 72 73  2  0
 73 92  1  0
 74 73  1  0
 74 77  1  0
 75 72  1  0
 75 76  1  0
 76 74  2  0
 77 78  1  0
 78 79  2  0
 80 83  1  0
 80 79  1  0
 81 80  2  0
 82 81  1  0
 82 77  2  0
 83 84  1  0
 84 85  1  0
 85 86  2  0
 87 86  1  0
 87 91  1  0
 88 87  2  0
 89 84  2  0
 89 88  1  0
 90 89  1  0
 92 93  1  0
 93 96  1  0
 93 95  1  0
 94 92  2  0
 97 98  1  0
 97 72  1  0
 99 97  1  0
M  ISO  4  13 101  14 101  62 100  70 100
M  END
>  <TORSDO>  (61) 
F 27

>  <SCORE>  (61) 
-10.840

>  <name>  (61) 
60

>  <ligand_id>  (61) 
60

>  <original_smiles>  (61) 
[H]C(=C([H])C([H])([H])C([H])([H])Oc1c([H])c([H])c2c(c1[H])C([H])([H])N(C(=O)C([H])(N([H])C(=O)C([H])(N([H])C([H])([H])[H])C([H])([H])[H])C(C([H])([H])[H])(C([H])([H])[H])C([H])([H])[H])C([H])(C(=O)N([H])C1([H])c3c([H])c([H])c([H])c([H])c3C([H])([H])C([H])([H])C1([H])[H])C2([H])[H])c1c([H])c([H])c(OC([H])([H])C([H])([H])C([H])([H])C([H])([H])C([H])([H])C([H])([H])N([H])C(=O)N2C([H])([H])C([H])([H])C([H])([H])C([H])(n3nc(-c4c([H])c([H])c(Oc5c([H])c([H])c(F)c([H])c5F)c([H])c4[H])c(C(=O)N([H])[H])c3N([H])[H])C2([H])[H])c(N([H])[H])c1[H]

>  <smiles>  (61) 
[H]C(=C([H])C([H])([H])C([H])([H])Oc1c([H])c([H])c2c(c1[H])C([H])([H])N(C(=O)C([H])(N([H])C(=O)C([H])(N([H])C([H])([H])[H])C([H])([H])[H])C(C([H])([H])[H])(C([H])([H])[H])C([H])([H])[H])C([H])(C(=O)N([H])C1([H])c3c([H])c([H])c([H])c([H])c3C([H])([H])C([H])([H])C1([H])[H])C2([H])[H])c1c([H])c([H])c(OC([H])([H])C([H])([H])C([H])([H])C([H])([H])C([H])([H])C([H])([H])N([H])C(=O)N2C([H])([H])C([H])([H])C([H])([H])C([H])(n3nc(-c4c([H])c([H])c(Oc5c([H])c([H])c(F)c([H])c5F)c([H])c4[H])c(C(=O)N([H])[H])c3N([H])[H])C2([H])[H])c(N([H])[H])c1[H]

$$$$
61:0:0
     RDKit          3D

 90 98  0  0  1  0  0  0  0  0999 V2000
  -31.0930  -17.9190   20.5650 C   0  0  0  0  0  3  0  0  0  0  0  0
  -31.0950  -19.3450   20.5020 C   0  0  0  0  0  3  0  0  0  0  0  0
  -28.7000  -19.3790   20.3330 C   0  0  0  0  0  3  0  0  0  0  0  0
  -29.8810  -17.1820   20.5250 C   0  0  0  0  0  0  0  0  0  0  0  0
  -29.9090  -20.1220   20.3880 C   0  0  0  0  0  0  0  0  0  0  0  0
  -28.6910  -17.9520   20.4070 C   0  0  0  0  0  0  0  0  0  0  0  0
  -27.5060  -17.2970   20.3610 F   0  0  0  0  0  0  0  0  0  0  0  0
  -30.5680  -14.6790   20.3110 C   0  0  0  0  0  0  0  0  0  0  0  0
  -30.3460  -12.4480   19.2340 C   0  0  0  0  0  2  0  0  0  0  0  0
  -29.3930  -12.5890   18.0260 C   0  0  0  0  0  2  0  0  0  0  0  0
  -27.9220  -12.4340   18.4630 C   0  0  0  0  0  2  0  0  0  0  0  0
  -27.5740  -13.2900   19.7100 C   0  0  0  0  0  3  0  0  0  0  0  0
  -28.6390  -13.1200   20.8180 C   0  0  0  0  0  2  0  0  0  0  0  0
  -29.9480  -13.4590   20.2340 N   0  0  0  0  0  0  0  0  0  0  0  0
  -31.7320  -14.8330   19.9340 O   0  0  0  0  0  0  0  0  0  0  0  0
  -29.7540  -15.7290   20.6430 N   0  0  0  0  0  0  0  0  0  0  0  0
  -28.8180  -15.4350   20.8750 H   0  0  0  0  0  0  0  0  0  0  0  0
  -25.1820  -13.8950   20.4320 C   0  0  0  0  0  0  0  0  0  0  0  0
  -24.1150  -13.1250   20.8040 C   0  0  0  0  0  0  0  0  0  0  0  0
  -24.5760  -11.7720   20.7780 C   0  0  0  0  0  0  0  0  0  0  0  0
  -26.2260  -13.0130   20.2010 N   0  0  0  0  0  0  0  0  0  0  0  0
  -25.8660  -11.7310   20.4680 N   0  0  0  0  0  0  0  0  0  0  0  0
  -23.8480  -10.5130   20.9740 C   0  0  0  0  0  0  0  0  0  0  0  0
  -24.2760   -9.5510   21.9150 C   0  0  0  0  0  3  0  0  0  0  0  0
  -23.5480   -8.3540   22.0980 C   0  0  0  0  0  3  0  0  0  0  0  0
  -22.3770   -8.1130   21.3420 C   0  0  0  0  0  0  0  0  0  0  0  0
  -21.9680   -9.0640   20.3910 C   0  0  0  0  0  3  0  0  0  0  0  0
  -22.6970  -10.2510   20.2050 C   0  0  0  0  0  3  0  0  0  0  0  0
  -21.6220   -6.9700   21.4330 O   0  0  0  0  0  0  0  0  0  0  0  0
  -21.5600   -6.2390   22.5930 C   0  0  0  0  0  0  0  0  0  0  0  0
  -21.1070   -6.8040   23.8060 C   0  0  0  0  0  3  0  0  0  0  0  0
  -20.9940   -6.0000   24.9580 C   0  0  0  0  0  3  0  0  0  0  0  0
  -21.3220   -4.6320   24.8980 C   0  0  0  0  0  0  0  0  0  0  0  0
  -21.7670   -4.0660   23.6900 C   0  0  0  0  0  3  0  0  0  0  0  0
  -21.8820   -4.8680   22.5400 C   0  0  0  0  0  0  0  0  0  0  0  0
  -22.2920   -4.3140   21.3730 F   0  0  0  0  0  0  0  0  0  0  0  0
  -21.2050   -3.8570   26.0010 F   0  0  0  0  0  0  0  0  0  0  0  0
  -22.7190  -13.6050   21.0780 C   0  0  0  0  0  0  0  0  0  0  0  0
  -21.9920  -12.9140   21.9490 N   0  0  0  0  0  0  0  0  0  0  0  0
  -22.2810  -14.6300   20.5560 O   0  0  0  0  0  0  0  0  0  0  0  0
  -22.3580  -12.0850   22.3930 H   0  0  0  0  0  0  0  0  0  0  0  0
  -21.0560  -13.2180   22.1750 H   0  0  0  0  0  0  0  0  0  0  0  0
  -25.3430  -15.2660   20.2560 N   0  0  0  0  0  0  0  0  0  0  0  0
  -24.5770  -15.9130   20.3970 H   0  0  0  0  0  0  0  0  0  0  0  0
  -26.2090  -15.7380   20.0180 H   0  0  0  0  0  0  0  0  0  0  0  0
  -30.0250  -21.5300   20.3580 O   0  0  0  0  0  0  0  0  0  0  0  0
  -28.8960  -22.4420   20.1650 C   0  0  0  0  0  2  0  0  0  0  0  0
  -29.2560  -23.9960   20.2800 C   0  0  0  0  0  3  0  0  0  0  0  0
  -28.1150  -25.0540   19.9510 C   0  0  0  0  0  3  0  0  0  0  0  0
  -28.3390  -26.5060   20.1590 O   0  0  0  0  0  0  0  0  0  0  0  0
  -24.6140  -31.8650   23.2520 C   0  0  0  0  0  0  0  0  0  0  0  0
  -27.2190  -27.3560   20.1210 C   0  0  0  0  0  0  0  0  0  0  0  0
  -23.4060  -30.4950   21.5920 C   0  0  0  0  0  3  0  0  0  0  0  0
  -24.8530  -28.9680   20.1410 C   0  0  0  0  0  0  0  0  0  0  0  0
  -25.9460  -30.8150   21.4110 C   0  0  0  0  0  2  0  0  0  0  0  0
  -26.0230  -29.4470   20.7430 C   0  0  0  0  0  0  0  0  0  0  0  0
  -27.2090  -28.6530   20.7210 C   0  0  0  0  0  3  0  0  0  0  0  0
  -26.0200  -26.9330   19.4980 C   0  0  0  0  0  3  0  0  0  0  0  0
  -24.8540  -27.7170   19.5100 C   0  0  0  0  0  3  0  0  0  0  0  0
  -23.6170  -29.8420   20.2020 C   0  0  0  0  0  2  0  0  0  0  0  0
  -24.6750  -31.0740   22.1420 N   0  0  0  0  0  0  0  0  0  0  0  0
  -23.5310  -32.1370   23.7920 O   0  0  0  0  0  0  0  0  0  0  0  0
  -22.7430  -29.4640   22.5360 C   0  0  0  0  0  0  0  0  0  0  0  0
  -21.4170  -29.2900   22.4050 N   0  0  0  0  0  0  0  0  0  0  0  0
  -23.4200  -28.8240   23.3450 O   0  0  0  0  0  0  0  0  0  0  0  0
  -20.9300  -29.8560   21.7250 H   0  0  0  0  0  0  0  0  0  0  0  0
  -18.0360  -28.0990   22.8910 C   0  0  0  0  0  0  0  0  0  0  0  0
  -20.5950  -28.3430   23.1610 C   0  0  0  0  0  3  0  0  0  0  0  0
  -20.6890  -26.9200   22.5620 C   0  0  0  0  0  2  0  0  0  0  0  0
  -19.5850  -26.6200   21.5440 C   0  0  0  0  0  2  0  0  0  0  0  0
  -18.2040  -26.7600   22.1930 C   0  0  0  0  0  2  0  0  0  0  0  0
  -19.1580  -28.8490   23.3310 C   0  0  0  0  0  0  0  0  0  0  0  0
  -18.9450  -30.1030   23.9450 C   0  0  0  0  0  3  0  0  0  0  0  0
  -17.6430  -30.6080   24.1200 C   0  0  0  0  0  3  0  0  0  0  0  0
  -16.5350  -29.8550   23.6960 C   0  0  0  0  0  3  0  0  0  0  0  0
  -16.7310  -28.6020   23.0870 C   0  0  0  0  0  3  0  0  0  0  0  0
  -25.8970  -32.4860   23.8840 C   0  0  0  0  0  3  0  0  0  0  0  0
  -26.4020  -31.7040   25.1580 C   0  0  1  0  0  0  0  0  0  0  0  0
  -25.3030  -31.4670   26.2190 C   0  0  0  0  0  1  0  0  0  0  0  0
  -26.9780  -30.3240   24.7620 C   0  0  0  0  0  1  0  0  0  0  0  0
  -27.5540  -32.4870   25.8300 C   0  0  0  0  0  1  0  0  0  0  0  0
  -25.5960  -33.8840   24.2200 N   0  0  0  0  0  0  0  0  0  0  0  0
  -25.9130  -34.9370   23.4560 C   0  0  0  0  0  0  0  0  0  0  0  0
  -26.5620  -34.8340   22.4100 O   0  0  0  0  0  0  0  0  0  0  0  0
  -25.0160  -34.0380   25.0330 H   0  0  0  0  0  0  0  0  0  0  0  0
  -24.1680  -36.7240   23.1540 C   0  0  0  0  0  1  0  0  0  0  0  0
  -25.4370  -36.3260   23.9240 C   0  0  0  0  0  3  0  0  0  0  0  0
  -27.5930  -37.2240   24.6820 C   0  0  0  0  0  1  0  0  0  0  0  0
  -26.4620  -37.3820   23.7720 N   0  0  0  0  0  0  0  0  0  0  0  0
  -26.0580  -38.3010   23.9250 H   0  0  0  0  0  0  0  0  0  0  0  0
  2  1  2  0
  3  5  2  0
  3  6  1  0
  4  1  1  0
  4 16  1  0
  5  2  1  0
  6  4  2  0
  7  6  1  0
  8 16  1  0
  9 14  1  0
 10 11  1  0
 10  9  1  0
 12 11  1  0
 12 21  1  0
 12 13  1  0
 14  8  1  0
 14 13  1  0
 15  8  2  0
 16 17  1  0
 18 19  2  0
 19 38  1  0
 20 19  1  0
 20 23  1  0
 21 18  1  0
 21 22  1  0
 22 20  2  0
 23 24  1  0
 24 25  2  0
 26 29  1  0
 26 25  1  0
 27 26  2  0
 28 27  1  0
 28 23  2  0
 29 30  1  0
 30 31  1  0
 31 32  2  0
 33 32  1  0
 33 37  1  0
 34 33  2  0
 35 30  2  0
 35 34  1  0
 36 35  1  0
 38 39  1  0
 39 42  1  0
 39 41  1  0
 40 38  2  0
 43 44  1  0
 43 18  1  0
 45 43  1  0
 46  5  1  0
 47 48  1  0
 47 46  1  0
 49 50  1  0
 49 48  2  0
 51 62  2  0
 52 50  1  0
 52 57  1  0
 53 61  1  0
 53 63  1  0
 54 60  1  0
 54 56  1  0
 55 61  1  0
 56 55  1  0
 57 56  2  0
 58 59  1  0
 58 52  2  0
 59 54  2  0
 60 53  1  0
 61 51  1  0
 63 65  2  0
 64 63  1  0
 66 64  1  0
 67 76  2  0
 67 72  1  0
 68 64  1  0
 68 72  1  0
 69 68  1  0
 70 71  1  0
 70 69  1  0
 71 67  1  0
 72 73  2  0
 73 74  1  0
 75 74  2  0
 76 75  1  0
 77 51  1  0
 77 82  1  0
 77 78  1  0
 78 81  1  1
 78 79  1  0
 80 78  1  0
 82 85  1  0
 83 87  1  0
 83 82  1  0
 84 83  2  0
 87 86  1  0
 89 87  1  0
 89 90  1  0
 89 88  1  0
M  ISO  4   8 100  16 100  49 101  50 101
M  END
>  <TORSDO>  (62) 
F 20

>  <SCORE>  (62) 
-14.070

>  <name>  (62) 
61

>  <ligand_id>  (62) 
61

>  <original_smiles>  (62) 
[H]c1c([H])c([H])c2c(c1[H])C([H])([H])C([H])([H])C([H])([H])C2([H])N([H])C(=O)C1([H])N(C(=O)C([H])(N([H])C(=O)C([H])(N([H])C([H])([H])[H])C([H])([H])[H])C(C([H])([H])[H])(C([H])([H])[H])C([H])([H])[H])C([H])([H])c2c([H])c(OC([H])([H])C([H])([H])C([H])([H])Oc3c([H])c([H])c(N([H])C(=O)N4C([H])([H])C([H])([H])C([H])([H])C([H])(n5nc(-c6c([H])c([H])c(Oc7c([H])c([H])c(F)c([H])c7F)c([H])c6[H])c(C(=O)N([H])[H])c5N([H])[H])C4([H])[H])c(F)c3[H])c([H])c([H])c2C1([H])[H]

>  <smiles>  (62) 
[H]c1c([H])c([H])c2c(c1[H])C([H])([H])C([H])([H])C([H])([H])C2([H])N([H])C(=O)C1([H])N(C(=O)C([H])(N([H])C(=O)C([H])(N([H])C([H])([H])[H])C([H])([H])[H])C(C([H])([H])[H])(C([H])([H])[H])C([H])([H])[H])C([H])([H])c2c([H])c(OC([H])([H])C([H])([H])C([H])([H])Oc3c([H])c([H])c(N([H])C(=O)N4C([H])([H])C([H])([H])C([H])([H])C([H])(n5nc(-c6c([H])c([H])c(Oc7c([H])c([H])c(F)c([H])c7F)c([H])c6[H])c(C(=O)N([H])[H])c5N([H])[H])C4([H])[H])c(F)c3[H])c([H])c([H])c2C1([H])[H]

$$$$
62:0:0
     RDKit          3D

 93102  0  0  1  0  0  0  0  0999 V2000
  -29.2150  -18.7170   20.8150 C   0  0  0  0  0  3  0  0  0  0  0  0
  -30.3240  -18.7460   18.7360 C   0  0  0  0  0  3  0  0  0  0  0  0
  -28.9510  -20.1290   20.6840 C   0  0  0  0  0  0  0  0  0  0  0  0
  -30.0540  -20.1910   18.6040 C   0  0  0  0  0  0  0  0  0  0  0  0
  -29.3490  -20.9550   19.6150 C   0  0  0  0  0  0  0  0  0  0  0  0
  -29.9430  -17.9170   19.8610 C   0  0  0  0  0  0  0  0  0  0  0  0
  -29.0310  -23.6940   19.2400 C   0  0  0  0  0  0  0  0  0  0  0  0
  -28.0970  -22.3690   21.0920 C   0  0  0  0  0  2  0  0  0  0  0  0
  -28.2200  -20.9540   21.7080 C   0  0  0  0  0  3  0  0  0  0  0  0
  -30.5440  -20.8960   17.3530 C   0  0  0  0  0  1  0  0  0  0  0  0
  -28.8840  -22.4030   19.8450 N   0  0  0  0  0  0  0  0  0  0  0  0
  -29.7430  -23.8390   18.2410 O   0  0  0  0  0  0  0  0  0  0  0  0
  -28.9430  -21.0100   22.8270 F   0  0  0  0  0  0  0  0  0  0  0  0
  -30.8690  -15.3320   19.4910 C   0  0  0  0  0  0  0  0  0  0  0  0
  -30.6790  -12.9790   18.5310 C   0  0  0  0  0  2  0  0  0  0  0  0
  -29.5930  -12.8910   17.4310 C   0  0  0  0  0  2  0  0  0  0  0  0
  -28.2030  -12.6370   18.0430 C   0  0  0  0  0  2  0  0  0  0  0  0
  -27.9270  -13.5620   19.2540 C   0  0  0  0  0  3  0  0  0  0  0  0
  -29.1110  -13.5780   20.2370 C   0  0  0  0  0  2  0  0  0  0  0  0
  -30.3000  -14.0500   19.5020 N   0  0  0  0  0  0  0  0  0  0  0  0
  -31.9290  -15.4640   18.8650 O   0  0  0  0  0  0  0  0  0  0  0  0
  -30.3090  -16.2090   21.6410 C   0  0  0  0  0  1  0  0  0  0  0  0
  -30.2740  -16.4350   20.1850 N   0  0  0  0  0  0  0  0  0  0  0  0
  -25.7070  -14.1070   20.4060 C   0  0  0  0  0  0  0  0  0  0  0  0
  -24.6880  -13.3170   20.8630 C   0  0  0  0  0  0  0  0  0  0  0  0
  -25.0990  -11.9680   20.6290 C   0  0  0  0  0  0  0  0  0  0  0  0
  -26.6710  -13.2400   19.9210 N   0  0  0  0  0  0  0  0  0  0  0  0
  -26.3240  -11.9410   20.1180 N   0  0  0  0  0  0  0  0  0  0  0  0
  -24.3690  -10.7050   20.8070 C   0  0  0  0  0  0  0  0  0  0  0  0
  -24.8270   -9.7060   21.6950 C   0  0  0  0  0  3  0  0  0  0  0  0
  -24.0970   -8.5100   21.8630 C   0  0  0  0  0  3  0  0  0  0  0  0
  -22.8950   -8.3040   21.1460 C   0  0  0  0  0  0  0  0  0  0  0  0
  -22.4570   -9.2920   20.2460 C   0  0  0  0  0  3  0  0  0  0  0  0
  -23.1880  -10.4800   20.0740 C   0  0  0  0  0  3  0  0  0  0  0  0
  -22.1340   -7.1630   21.2280 O   0  0  0  0  0  0  0  0  0  0  0  0
  -21.9890   -6.4760   22.4060 C   0  0  0  0  0  0  0  0  0  0  0  0
  -21.4420   -7.0810   23.5590 C   0  0  0  0  0  3  0  0  0  0  0  0
  -21.2450   -6.3200   24.7280 C   0  0  0  0  0  3  0  0  0  0  0  0
  -21.5860   -4.9540   24.7450 C   0  0  0  0  0  0  0  0  0  0  0  0
  -22.1260   -4.3490   23.5970 C   0  0  0  0  0  3  0  0  0  0  0  0
  -22.3240   -5.1070   22.4290 C   0  0  0  0  0  0  0  0  0  0  0  0
  -22.8250   -4.5140   21.3190 F   0  0  0  0  0  0  0  0  0  0  0  0
  -21.3910   -4.2210   25.8660 F   0  0  0  0  0  0  0  0  0  0  0  0
  -23.3640  -13.7870   21.3930 C   0  0  0  0  0  0  0  0  0  0  0  0
  -22.7590  -13.0240   22.2950 N   0  0  0  0  0  0  0  0  0  0  0  0
  -22.8810  -14.8630   21.0410 O   0  0  0  0  0  0  0  0  0  0  0  0
  -23.1690  -12.1540   22.6010 H   0  0  0  0  0  0  0  0  0  0  0  0
  -21.8750  -13.3150   22.6890 H   0  0  0  0  0  0  0  0  0  0  0  0
  -25.8860  -15.4860   20.3420 N   0  0  0  0  0  0  0  0  0  0  0  0
  -25.1660  -16.1400   20.6290 H   0  0  0  0  0  0  0  0  0  0  0  0
  -26.7040  -15.9410   19.9580 H   0  0  0  0  0  0  0  0  0  0  0  0
  -28.2580  -25.0570   19.8110 C   0  0  0  0  0  2  0  0  0  0  0  0
  -28.4120  -26.5010   19.2420 O   0  0  0  0  0  0  0  0  0  0  0  0
  -24.8200  -31.7670   22.9830 C   0  0  0  0  0  0  0  0  0  0  0  0
  -27.3270  -27.4430   19.3770 C   0  0  0  0  0  0  0  0  0  0  0  0
  -23.5470  -30.4720   21.3150 C   0  0  0  0  0  3  0  0  0  0  0  0
  -24.9420  -29.0850   19.6610 C   0  0  0  0  0  0  0  0  0  0  0  0
  -26.0720  -30.8540   20.9930 C   0  0  0  0  0  2  0  0  0  0  0  0
  -26.1480  -29.5240   20.2230 C   0  0  0  0  0  0  0  0  0  0  0  0
  -27.3410  -28.7220   20.0660 C   0  0  0  0  0  3  0  0  0  0  0  0
  -26.0920  -27.1130   18.7780 C   0  0  0  0  0  3  0  0  0  0  0  0
  -24.9270  -27.8930   18.9210 C   0  0  0  0  0  3  0  0  0  0  0  0
  -23.6910  -29.9230   19.8700 C   0  0  0  0  0  2  0  0  0  0  0  0
  -24.8370  -31.0480   21.8190 N   0  0  0  0  0  0  0  0  0  0  0  0
  -23.7670  -31.9620   23.6080 O   0  0  0  0  0  0  0  0  0  0  0  0
  -22.9740  -29.3580   22.2290 C   0  0  0  0  0  0  0  0  0  0  0  0
  -21.6550  -29.1110   22.1390 N   0  0  0  0  0  0  0  0  0  0  0  0
  -23.7170  -28.7240   22.9820 O   0  0  0  0  0  0  0  0  0  0  0  0
  -21.1080  -29.6890   21.5160 H   0  0  0  0  0  0  0  0  0  0  0  0
  -18.3850  -27.6340   22.6440 C   0  0  0  0  0  0  0  0  0  0  0  0
  -20.9230  -28.0730   22.8700 C   0  0  0  0  0  3  0  0  0  0  0  0
  -21.1140  -26.6850   22.2130 C   0  0  0  0  0  2  0  0  0  0  0  0
  -20.0130  -26.3380   21.2060 C   0  0  0  0  0  2  0  0  0  0  0  0
  -18.6410  -26.3410   21.8870 C   0  0  0  0  0  2  0  0  0  0  0  0
  -19.4540  -28.4550   23.0900 C   0  0  0  0  0  0  0  0  0  0  0  0
  -19.1590  -29.6620   23.7590 C   0  0  0  0  0  3  0  0  0  0  0  0
  -17.8250  -30.0510   23.9850 C   0  0  0  0  0  3  0  0  0  0  0  0
  -16.7710  -29.2280   23.5540 C   0  0  0  0  0  3  0  0  0  0  0  0
  -17.0500  -28.0220   22.8880 C   0  0  0  0  0  3  0  0  0  0  0  0
  -26.1180  -32.3960   23.5720 C   0  0  0  0  0  3  0  0  0  0  0  0
  -25.7830  -33.7440   24.0610 N   0  0  0  0  0  0  0  0  0  0  0  0
  -25.9830  -34.8760   23.3740 C   0  0  0  0  0  0  0  0  0  0  0  0
  -26.5380  -34.9000   22.2730 O   0  0  0  0  0  0  0  0  0  0  0  0
  -25.2830  -33.7960   24.9370 H   0  0  0  0  0  0  0  0  0  0  0  0
  -24.1360  -36.5880   23.4040 C   0  0  0  0  0  1  0  0  0  0  0  0
  -25.4910  -36.1910   24.0120 C   0  0  0  0  0  3  0  0  0  0  0  0
  -27.6650  -37.1370   24.6500 C   0  0  0  0  0  1  0  0  0  0  0  0
  -26.4450  -37.3130   23.8680 N   0  0  0  0  0  0  0  0  0  0  0  0
  -26.0120  -38.1870   24.1520 H   0  0  0  0  0  0  0  0  0  0  0  0
  -26.7540  -31.5340   24.7330 C   0  0  1  0  0  0  0  0  0  0  0  0
  -25.7550  -31.1620   25.8530 C   0  0  0  0  0  1  0  0  0  0  0  0
  -27.3510  -30.2210   24.1760 C   0  0  0  0  0  1  0  0  0  0  0  0
  -27.9250  -32.3110   25.3810 C   0  0  0  0  0  1  0  0  0  0  0  0
  2  6  1  0
  3  1  1  0
  3  9  1  0
  4  2  2  0
  4  5  1  0
  5 11  1  0
  5  3  2  0
  6 23  1  0
  6  1  2  0
  7 52  1  0
  7 11  1  0
  8  9  1  0
  9 13  1  0
 10  4  1  0
 11  8  1  0
 12  7  2  0
 14 20  1  0
 14 23  1  0
 15 20  1  0
 16 17  1  0
 16 15  1  0
 18 17  1  0
 18 27  1  0
 18 19  1  0
 20 19  1  0
 21 14  2  0
 23 22  1  0
 24 25  2  0
 25 44  1  0
 26 29  1  0
 26 25  1  0
 27 28  1  0
 27 24  1  0
 28 26  2  0
 29 30  1  0
 30 31  2  0
 32 35  1  0
 32 31  1  0
 33 32  2  0
 34 33  1  0
 34 29  2  0
 35 36  1  0
 36 41  2  0
 36 37  1  0
 37 38  2  0
 38 39  1  0
 39 43  1  0
 40 39  2  0
 41 40  1  0
 42 41  1  0
 44 45  1  0
 45 47  1  0
 45 48  1  0
 46 44  2  0
 49 24  1  0
 49 50  1  0
 51 49  1  0
 53 55  1  0
 53 52  1  0
 54 65  2  0
 55 60  1  0
 56 64  1  0
 56 66  1  0
 57 63  1  0
 57 59  1  0
 58 64  1  0
 59 58  1  0
 60 59  2  0
 61 62  1  0
 61 55  2  0
 62 57  2  0
 63 56  1  0
 64 54  1  0
 66 68  2  0
 67 66  1  0
 69 67  1  0
 70 79  2  0
 70 75  1  0
 71 67  1  0
 71 75  1  0
 72 71  1  0
 73 74  1  0
 73 72  1  0
 74 70  1  0
 75 76  2  0
 76 77  1  0
 78 77  2  0
 79 78  1  0
 80 54  1  0
 80 81  1  0
 80 90  1  0
 81 84  1  0
 82 86  1  0
 82 81  1  0
 83 82  2  0
 86 85  1  0
 88 86  1  0
 88 89  1  0
 88 87  1  0
 90 93  1  1
 90 91  1  0
 92 90  1  0
M  ISO  4  14 100  23 100  52 101  53 101
M  END
>  <TORSDO>  (63) 
F 17

>  <SCORE>  (63) 
-11.989

>  <name>  (63) 
62

>  <ligand_id>  (63) 
62

>  <original_smiles>  (63) 
[H]c1c([H])c([H])c2c(c1[H])C([H])([H])C([H])([H])C([H])([H])C2([H])N([H])C(=O)C1([H])N(C(=O)C([H])(N([H])C(=O)C([H])(N([H])C([H])([H])[H])C([H])([H])[H])C(C([H])([H])[H])(C([H])([H])[H])C([H])([H])[H])C([H])([H])c2c([H])c(OC([H])([H])C(=O)N3c4c(C([H])([H])[H])c([H])c(N(C(=O)N5C([H])([H])C([H])([H])C([H])([H])C([H])(n6nc(-c7c([H])c([H])c(Oc8c([H])c([H])c(F)c([H])c8F)c([H])c7[H])c(C(=O)N([H])[H])c6N([H])[H])C5([H])[H])C([H])([H])[H])c([H])c4C([H])(F)C3([H])[H])c([H])c([H])c2C1([H])[H]

>  <smiles>  (63) 
[H]c1c([H])c([H])c2c(c1[H])C([H])([H])C([H])([H])C([H])([H])C2([H])N([H])C(=O)C1([H])N(C(=O)C([H])(N([H])C(=O)C([H])(N([H])C([H])([H])[H])C([H])([H])[H])C(C([H])([H])[H])(C([H])([H])[H])C([H])([H])[H])C([H])([H])c2c([H])c(OC([H])([H])C(=O)N3c4c(C([H])([H])[H])c([H])c(N(C(=O)N5C([H])([H])C([H])([H])C([H])([H])C([H])(n6nc(-c7c([H])c([H])c(Oc8c([H])c([H])c(F)c([H])c8F)c([H])c7[H])c(C(=O)N([H])[H])c6N([H])[H])C5([H])[H])C([H])([H])[H])c([H])c4C([H])(F)C3([H])[H])c([H])c([H])c2C1([H])[H]

$$$$
63:0:0
     RDKit          3D

 89 97  0  0  1  0  0  0  0  0999 V2000
  -30.5490  -18.6060   19.3770 C   0  0  0  0  0  3  0  0  0  0  0  0
  -30.2720  -20.0400   19.2110 C   0  0  0  0  0  3  0  0  0  0  0  0
  -28.0350  -19.6540   19.8210 C   0  0  0  0  0  3  0  0  0  0  0  0
  -28.2990  -18.2460   20.0110 C   0  0  0  0  0  0  0  0  0  0  0  0
  -29.5680  -17.6200   19.7690 C   0  0  0  0  0  0  0  0  0  0  0  0
  -28.9760  -20.6430   19.4030 C   0  0  0  0  0  0  0  0  0  0  0  0
  -27.1450  -17.3860   20.5030 C   0  0  0  0  0  1  0  0  0  0  0  0
  -30.4670  -14.9960   19.4830 C   0  0  0  0  0  0  0  0  0  0  0  0
  -30.2860  -12.6240   18.6070 C   0  0  0  0  0  2  0  0  0  0  0  0
  -29.2250  -12.5710   17.4800 C   0  0  0  0  0  2  0  0  0  0  0  0
  -27.8100  -12.3820   18.0610 C   0  0  0  0  0  2  0  0  0  0  0  0
  -27.5330  -13.3290   19.2570 C   0  0  0  0  0  3  0  0  0  0  0  0
  -28.6970  -13.3260   20.2720 C   0  0  0  0  0  2  0  0  0  0  0  0
  -29.9130  -13.7200   19.5430 N   0  0  0  0  0  0  0  0  0  0  0  0
  -31.5980  -15.1190   18.9970 O   0  0  0  0  0  0  0  0  0  0  0  0
  -29.6580  -16.0910   19.8650 N   0  0  0  0  0  0  0  0  0  0  0  0
  -28.8480  -15.7180   20.3320 H   0  0  0  0  0  0  0  0  0  0  0  0
  -25.2720  -13.9510   20.2910 C   0  0  0  0  0  0  0  0  0  0  0  0
  -24.2290  -13.1960   20.7520 C   0  0  0  0  0  0  0  0  0  0  0  0
  -24.6320  -11.8340   20.5970 C   0  0  0  0  0  0  0  0  0  0  0  0
  -26.2460  -13.0540   19.8890 N   0  0  0  0  0  0  0  0  0  0  0  0
  -25.8750  -11.7700   20.1340 N   0  0  0  0  0  0  0  0  0  0  0  0
  -23.8790  -10.5890   20.8050 C   0  0  0  0  0  0  0  0  0  0  0  0
  -24.3160   -9.6070   21.7190 C   0  0  0  0  0  3  0  0  0  0  0  0
  -23.5650   -8.4280   21.9160 C   0  0  0  0  0  3  0  0  0  0  0  0
  -22.3620   -8.2250   21.1990 C   0  0  0  0  0  0  0  0  0  0  0  0
  -21.9430   -9.1970   20.2720 C   0  0  0  0  0  3  0  0  0  0  0  0
  -22.6960  -10.3660   20.0730 C   0  0  0  0  0  3  0  0  0  0  0  0
  -21.5800   -7.1000   21.3060 O   0  0  0  0  0  0  0  0  0  0  0  0
  -21.4480   -6.4270   22.4940 C   0  0  0  0  0  0  0  0  0  0  0  0
  -20.9080   -7.0430   23.6440 C   0  0  0  0  0  3  0  0  0  0  0  0
  -20.7260   -6.2950   24.8250 C   0  0  0  0  0  3  0  0  0  0  0  0
  -21.0730   -4.9320   24.8560 C   0  0  0  0  0  0  0  0  0  0  0  0
  -21.6050   -4.3150   23.7100 C   0  0  0  0  0  3  0  0  0  0  0  0
  -21.7890   -5.0590   22.5320 C   0  0  0  0  0  0  0  0  0  0  0  0
  -22.2830   -4.4550   21.4250 F   0  0  0  0  0  0  0  0  0  0  0  0
  -20.8900   -4.2100   25.9860 F   0  0  0  0  0  0  0  0  0  0  0  0
  -22.8950  -13.7060   21.2130 C   0  0  0  0  0  0  0  0  0  0  0  0
  -22.2640  -13.0120   22.1520 N   0  0  0  0  0  0  0  0  0  0  0  0
  -22.4270  -14.7570   20.7730 O   0  0  0  0  0  0  0  0  0  0  0  0
  -22.6600  -12.1630   22.5280 H   0  0  0  0  0  0  0  0  0  0  0  0
  -21.3740  -13.3360   22.5030 H   0  0  0  0  0  0  0  0  0  0  0  0
  -25.4580  -15.3230   20.1510 N   0  0  0  0  0  0  0  0  0  0  0  0
  -24.7160  -15.9810   20.3580 H   0  0  0  0  0  0  0  0  0  0  0  0
  -26.2340  -15.7450   19.6590 H   0  0  0  0  0  0  0  0  0  0  0  0
  -28.4640  -21.9970   19.1700 O   0  0  0  0  0  0  0  0  0  0  0  0
  -29.0910  -23.3940   19.1400 C   0  0  0  0  0  2  0  0  0  0  0  0
  -28.1110  -24.7550   18.9630 C   0  0  0  0  0  2  0  0  0  0  0  0
  -28.3660  -26.2520   19.3030 O   0  0  0  0  0  0  0  0  0  0  0  0
  -24.6230  -31.4580   22.9420 C   0  0  0  0  0  0  0  0  0  0  0  0
  -27.2810  -27.2010   19.3650 C   0  0  0  0  0  0  0  0  0  0  0  0
  -23.4400  -30.2400   21.1550 C   0  0  0  0  0  3  0  0  0  0  0  0
  -24.9110  -28.8790   19.5500 C   0  0  0  0  0  0  0  0  0  0  0  0
  -25.9870  -30.5800   21.0110 C   0  0  0  0  0  2  0  0  0  0  0  0
  -26.0860  -29.2780   20.2000 C   0  0  0  0  0  0  0  0  0  0  0  0
  -27.2710  -28.4590   20.0910 C   0  0  0  0  0  3  0  0  0  0  0  0
  -26.0730  -26.9030   18.6930 C   0  0  0  0  0  3  0  0  0  0  0  0
  -24.9170  -27.7050   18.7840 C   0  0  0  0  0  3  0  0  0  0  0  0
  -23.6660  -29.7360   19.7050 C   0  0  0  0  0  2  0  0  0  0  0  0
  -24.7040  -30.7740   21.7600 N   0  0  0  0  0  0  0  0  0  0  0  0
  -23.5350  -31.6560   23.5040 O   0  0  0  0  0  0  0  0  0  0  0  0
  -22.7900  -29.1120   21.9930 C   0  0  0  0  0  0  0  0  0  0  0  0
  -21.4530  -28.9790   21.9110 N   0  0  0  0  0  0  0  0  0  0  0  0
  -23.4860  -28.3630   22.6830 O   0  0  0  0  0  0  0  0  0  0  0  0
  -20.9470  -29.6380   21.3350 H   0  0  0  0  0  0  0  0  0  0  0  0
  -18.0670  -27.8360   22.5000 C   0  0  0  0  0  0  0  0  0  0  0  0
  -20.6490  -27.9530   22.5790 C   0  0  0  0  0  3  0  0  0  0  0  0
  -20.6300  -26.6400   21.7620 C   0  0  0  0  0  2  0  0  0  0  0  0
  -19.4340  -26.5400   20.8100 C   0  0  0  0  0  2  0  0  0  0  0  0
  -18.1190  -26.6200   21.5890 C   0  0  0  0  0  2  0  0  0  0  0  0
  -19.2540  -28.4710   22.9520 C   0  0  0  0  0  0  0  0  0  0  0  0
  -19.1480  -29.6150   23.7700 C   0  0  0  0  0  3  0  0  0  0  0  0
  -17.8880  -30.1240   24.1370 C   0  0  0  0  0  3  0  0  0  0  0  0
  -16.7160  -29.4840   23.6980 C   0  0  0  0  0  3  0  0  0  0  0  0
  -16.8070  -28.3400   22.8850 C   0  0  0  0  0  3  0  0  0  0  0  0
  -25.8930  -32.0410   23.6330 C   0  0  0  0  0  3  0  0  0  0  0  0
  -26.3870  -31.1720   24.8560 C   0  0  1  0  0  0  0  0  0  0  0  0
  -25.2810  -30.8710   25.8940 C   0  0  0  0  0  1  0  0  0  0  0  0
  -26.9580  -29.8200   24.3740 C   0  0  0  0  0  1  0  0  0  0  0  0
  -27.5390  -31.9030   25.5850 C   0  0  0  0  0  1  0  0  0  0  0  0
  -25.5740  -33.4090   24.0730 N   0  0  0  0  0  0  0  0  0  0  0  0
  -25.8870  -34.5210   23.3960 C   0  0  0  0  0  0  0  0  0  0  0  0
  -26.5430  -34.5040   22.3510 O   0  0  0  0  0  0  0  0  0  0  0  0
  -24.9900  -33.4950   24.8920 H   0  0  0  0  0  0  0  0  0  0  0  0
  -24.1380  -36.3230   23.2160 C   0  0  0  0  0  1  0  0  0  0  0  0
  -25.3990  -35.8670   23.9690 C   0  0  0  0  0  3  0  0  0  0  0  0
  -27.5330  -36.7180   24.8380 C   0  0  0  0  0  1  0  0  0  0  0  0
  -26.4210  -36.9360   23.9160 N   0  0  0  0  0  0  0  0  0  0  0  0
  -26.0070  -37.8410   24.1260 H   0  0  0  0  0  0  0  0  0  0  0  0
  1  5  1  0
  2  1  2  0
  2  6  1  0
  3  4  1  0
  4  7  1  0
  5 16  1  0
  5  4  2  0
  6  3  2  0
  8 14  1  0
  8 16  1  0
  9 14  1  0
 10 11  1  0
 10  9  1  0
 12 11  1  0
 12 21  1  0
 12 13  1  0
 14 13  1  0
 15  8  2  0
 16 17  1  0
 18 19  2  0
 19 38  1  0
 20 19  1  0
 20 23  1  0
 21 22  1  0
 21 18  1  0
 22 20  2  0
 23 24  1  0
 24 25  2  0
 26 29  1  0
 26 25  1  0
 27 26  2  0
 28 27  1  0
 28 23  2  0
 29 30  1  0
 30 35  2  0
 30 31  1  0
 31 32  2  0
 32 33  1  0
 33 37  1  0
 34 33  2  0
 35 34  1  0
 36 35  1  0
 38 39  1  0
 39 42  1  0
 39 41  1  0
 40 38  2  0
 43 18  1  0
 43 44  1  0
 45 43  1  0
 46  6  1  0
 47 46  1  0
 48 47  1  0
 48 49  1  0
 49 51  1  0
 50 61  2  0
 51 56  1  0
 52 60  1  0
 52 62  1  0
 53 59  1  0
 53 55  1  0
 54 60  1  0
 55 54  1  0
 56 55  2  0
 57 58  1  0
 57 51  2  0
 58 53  2  0
 59 52  1  0
 60 50  1  0
 62 64  2  0
 63 62  1  0
 65 63  1  0
 66 75  2  0
 66 71  1  0
 67 63  1  0
 67 71  1  0
 68 67  1  0
 69 70  1  0
 69 68  1  0
 70 66  1  0
 71 72  2  0
 72 73  1  0
 74 73  2  0
 75 74  1  0
 76 50  1  0
 76 81  1  0
 76 77  1  0
 77 80  1  1
 77 78  1  0
 79 77  1  0
 81 84  1  0
 82 86  1  0
 82 81  1  0
 83 82  2  0
 86 85  1  0
 88 86  1  0
 88 89  1  0
 88 87  1  0
M  ISO  4   8 100  16 100  48 101  49 101
M  END
>  <TORSDO>  (64) 
F 19

>  <SCORE>  (64) 
-12.314

>  <name>  (64) 
63

>  <ligand_id>  (64) 
63

>  <original_smiles>  (64) 
[H]c1c([H])c([H])c2c(c1[H])C([H])([H])C([H])([H])C([H])([H])C2([H])N([H])C(=O)C1([H])N(C(=O)C([H])(N([H])C(=O)C([H])(N([H])C([H])([H])[H])C([H])([H])[H])C(C([H])([H])[H])(C([H])([H])[H])C([H])([H])[H])C([H])([H])c2c([H])c(OC([H])([H])C([H])([H])Oc3c([H])c([H])c(N([H])C(=O)N4C([H])([H])C([H])([H])C([H])([H])C([H])(n5nc(-c6c([H])c([H])c(Oc7c([H])c([H])c(F)c([H])c7F)c([H])c6[H])c(C(=O)N([H])[H])c5N([H])[H])C4([H])[H])c(C([H])([H])[H])c3[H])c([H])c([H])c2C1([H])[H]

>  <smiles>  (64) 
[H]c1c([H])c([H])c2c(c1[H])C([H])([H])C([H])([H])C([H])([H])C2([H])N([H])C(=O)C1([H])N(C(=O)C([H])(N([H])C(=O)C([H])(N([H])C([H])([H])[H])C([H])([H])[H])C(C([H])([H])[H])(C([H])([H])[H])C([H])([H])[H])C([H])([H])c2c([H])c(OC([H])([H])C([H])([H])Oc3c([H])c([H])c(N([H])C(=O)N4C([H])([H])C([H])([H])C([H])([H])C([H])(n5nc(-c6c([H])c([H])c(Oc7c([H])c([H])c(F)c([H])c7F)c([H])c6[H])c(C(=O)N([H])[H])c5N([H])[H])C4([H])[H])c(C([H])([H])[H])c3[H])c([H])c([H])c2C1([H])[H]

$$$$
64:0:0
     RDKit          3D

 90 98  0  0  1  0  0  0  0  0999 V2000
  -31.0370  -17.9100   19.9770 C   0  0  0  0  0  3  0  0  0  0  0  0
  -31.0130  -19.3290   19.8310 C   0  0  0  0  0  3  0  0  0  0  0  0
  -28.7300  -17.9770   20.6360 C   0  0  0  0  0  3  0  0  0  0  0  0
  -29.8880  -17.1860   20.3860 C   0  0  0  0  0  0  0  0  0  0  0  0
  -29.8590  -20.1220   20.0780 C   0  0  0  0  0  0  0  0  0  0  0  0
  -28.7050  -19.3980   20.4900 C   0  0  0  0  0  0  0  0  0  0  0  0
  -27.5490  -20.0520   20.7580 F   0  0  0  0  0  0  0  0  0  0  0  0
  -30.5980  -14.6850   20.1250 C   0  0  0  0  0  0  0  0  0  0  0  0
  -30.3560  -12.4480   19.0640 C   0  0  0  0  0  2  0  0  0  0  0  0
  -29.3690  -12.5900   17.8830 C   0  0  0  0  0  2  0  0  0  0  0  0
  -27.9110  -12.4310   18.3610 C   0  0  0  0  0  2  0  0  0  0  0  0
  -27.6000  -13.2790   19.6230 C   0  0  0  0  0  3  0  0  0  0  0  0
  -28.6980  -13.1110   20.6970 C   0  0  0  0  0  2  0  0  0  0  0  0
  -29.9860  -13.4590   20.0760 N   0  0  0  0  0  0  0  0  0  0  0  0
  -31.7390  -14.8470   19.6810 O   0  0  0  0  0  0  0  0  0  0  0  0
  -29.8100  -15.7270   20.5450 N   0  0  0  0  0  0  0  0  0  0  0  0
  -28.9370  -15.4010   20.9340 H   0  0  0  0  0  0  0  0  0  0  0  0
  -25.2380  -13.8750   20.4420 C   0  0  0  0  0  0  0  0  0  0  0  0
  -24.1830  -13.1000   20.8410 C   0  0  0  0  0  0  0  0  0  0  0  0
  -24.6380  -11.7470   20.7700 C   0  0  0  0  0  0  0  0  0  0  0  0
  -26.2690  -12.9940   20.1530 N   0  0  0  0  0  0  0  0  0  0  0  0
  -25.9140  -11.7080   20.4090 N   0  0  0  0  0  0  0  0  0  0  0  0
  -23.9120  -10.4850   20.9680 C   0  0  0  0  0  0  0  0  0  0  0  0
  -24.3650   -9.5090   21.8830 C   0  0  0  0  0  3  0  0  0  0  0  0
  -23.6420   -8.3110   22.0690 C   0  0  0  0  0  3  0  0  0  0  0  0
  -22.4500   -8.0820   21.3400 C   0  0  0  0  0  0  0  0  0  0  0  0
  -22.0150   -9.0480   20.4150 C   0  0  0  0  0  3  0  0  0  0  0  0
  -22.7400  -10.2360   20.2260 C   0  0  0  0  0  3  0  0  0  0  0  0
  -21.6950   -6.9380   21.4370 O   0  0  0  0  0  0  0  0  0  0  0  0
  -21.6530   -6.1990   22.5920 C   0  0  0  0  0  0  0  0  0  0  0  0
  -21.2070   -6.7480   23.8130 C   0  0  0  0  0  3  0  0  0  0  0  0
  -21.1150   -5.9340   24.9610 C   0  0  0  0  0  3  0  0  0  0  0  0
  -21.4580   -4.5710   24.8850 C   0  0  0  0  0  0  0  0  0  0  0  0
  -21.8970   -4.0200   23.6680 C   0  0  0  0  0  3  0  0  0  0  0  0
  -21.9910   -4.8310   22.5240 C   0  0  0  0  0  0  0  0  0  0  0  0
  -22.3940   -4.2910   21.3490 F   0  0  0  0  0  0  0  0  0  0  0  0
  -21.3620   -3.7860   25.9840 F   0  0  0  0  0  0  0  0  0  0  0  0
  -22.7990  -13.5780   21.1750 C   0  0  0  0  0  0  0  0  0  0  0  0
  -22.1060  -12.8780   22.0650 N   0  0  0  0  0  0  0  0  0  0  0  0
  -22.3450  -14.6100   20.6840 O   0  0  0  0  0  0  0  0  0  0  0  0
  -22.4870  -12.0440   22.4880 H   0  0  0  0  0  0  0  0  0  0  0  0
  -21.1790  -13.1820   22.3300 H   0  0  0  0  0  0  0  0  0  0  0  0
  -25.4000  -15.2470   20.2780 N   0  0  0  0  0  0  0  0  0  0  0  0
  -24.6340  -15.8960   20.4170 H   0  0  0  0  0  0  0  0  0  0  0  0
  -26.2220  -15.6840   19.8800 H   0  0  0  0  0  0  0  0  0  0  0  0
  -29.9680  -21.5220   19.9050 O   0  0  0  0  0  0  0  0  0  0  0  0
  -28.8750  -22.4670   20.1420 C   0  0  0  0  0  3  0  0  0  0  0  0
  -29.2270  -24.0020   19.8750 C   0  0  0  0  0  3  0  0  0  0  0  0
  -28.0550  -25.0580   20.0540 C   0  0  0  0  0  2  0  0  0  0  0  0
  -28.3030  -26.5080   19.8500 O   0  0  0  0  0  0  0  0  0  0  0  0
  -24.6700  -31.8010   23.1690 C   0  0  0  0  0  0  0  0  0  0  0  0
  -27.1900  -27.3650   19.8710 C   0  0  0  0  0  0  0  0  0  0  0  0
  -23.4280  -30.4940   21.4830 C   0  0  0  0  0  3  0  0  0  0  0  0
  -24.8410  -28.9990   19.9700 C   0  0  0  0  0  0  0  0  0  0  0  0
  -25.9690  -30.7950   21.2790 C   0  0  0  0  0  2  0  0  0  0  0  0
  -26.0250  -29.4470   20.5710 C   0  0  0  0  0  0  0  0  0  0  0  0
  -27.2020  -28.6430   20.5130 C   0  0  0  0  0  3  0  0  0  0  0  0
  -25.9840  -26.9800   19.2380 C   0  0  0  0  0  3  0  0  0  0  0  0
  -24.8230  -27.7710   19.2960 C   0  0  0  0  0  3  0  0  0  0  0  0
  -23.6170  -29.8840   20.0710 C   0  0  0  0  0  2  0  0  0  0  0  0
  -24.7090  -31.0450   22.0350 N   0  0  0  0  0  0  0  0  0  0  0  0
  -23.5980  -32.0660   23.7310 O   0  0  0  0  0  0  0  0  0  0  0  0
  -22.7670  -29.4390   22.4030 C   0  0  0  0  0  0  0  0  0  0  0  0
  -21.4370  -29.2880   22.2910 N   0  0  0  0  0  0  0  0  0  0  0  0
  -23.4500  -28.7630   23.1770 O   0  0  0  0  0  0  0  0  0  0  0  0
  -20.9460  -29.8860   21.6410 H   0  0  0  0  0  0  0  0  0  0  0  0
  -18.0450  -28.1480   22.8170 C   0  0  0  0  0  0  0  0  0  0  0  0
  -20.6160  -28.3280   23.0300 C   0  0  0  0  0  3  0  0  0  0  0  0
  -20.6640  -26.9300   22.3690 C   0  0  0  0  0  2  0  0  0  0  0  0
  -19.5260  -26.6940   21.3700 C   0  0  0  0  0  2  0  0  0  0  0  0
  -18.1670  -26.8370   22.0610 C   0  0  0  0  0  2  0  0  0  0  0  0
  -19.1950  -28.8560   23.2580 C   0  0  0  0  0  0  0  0  0  0  0  0
  -19.0250  -30.0880   23.9270 C   0  0  0  0  0  3  0  0  0  0  0  0
  -17.7390  -30.6110   24.1590 C   0  0  0  0  0  3  0  0  0  0  0  0
  -16.6040  -29.8990   23.7320 C   0  0  0  0  0  3  0  0  0  0  0  0
  -16.7580  -28.6700   23.0680 C   0  0  0  0  0  3  0  0  0  0  0  0
  -25.9690  -32.3900   23.8020 C   0  0  0  0  0  3  0  0  0  0  0  0
  -26.4820  -31.5600   25.0420 C   0  0  1  0  0  0  0  0  0  0  0  0
  -25.3960  -31.3020   26.1120 C   0  0  0  0  0  1  0  0  0  0  0  0
  -27.0380  -30.1900   24.5940 C   0  0  0  0  0  1  0  0  0  0  0  0
  -27.6520  -32.3110   25.7230 C   0  0  0  0  0  1  0  0  0  0  0  0
  -25.6830  -33.7790   24.1890 N   0  0  0  0  0  0  0  0  0  0  0  0
  -25.9950  -34.8530   23.4520 C   0  0  0  0  0  0  0  0  0  0  0  0
  -26.6230  -34.7770   22.3920 O   0  0  0  0  0  0  0  0  0  0  0  0
  -25.1190  -33.9120   25.0150 H   0  0  0  0  0  0  0  0  0  0  0  0
  -24.2570  -36.6600   23.2380 C   0  0  0  0  0  1  0  0  0  0  0  0
  -25.5380  -36.2290   23.9710 C   0  0  0  0  0  3  0  0  0  0  0  0
  -27.7130  -37.0900   24.7190 C   0  0  0  0  0  1  0  0  0  0  0  0
  -26.5670  -37.2830   23.8340 N   0  0  0  0  0  0  0  0  0  0  0  0
  -26.1720  -38.2000   24.0220 H   0  0  0  0  0  0  0  0  0  0  0  0
  1  4  1  0
  2  1  2  0
  2  5  1  0
  4 16  1  0
  4  3  2  0
  5  6  2  0
  6  3  1  0
  6  7  1  0
  8 16  1  0
  9 14  1  0
 10 11  1  0
 10  9  1  0
 12 11  1  0
 12 21  1  0
 12 13  1  0
 14  8  1  0
 14 13  1  0
 15  8  2  0
 16 17  1  0
 18 19  2  0
 19 38  1  0
 20 19  1  0
 20 23  1  0
 21 22  1  0
 21 18  1  0
 22 20  2  0
 23 24  1  0
 24 25  2  0
 26 29  1  0
 26 25  1  0
 27 26  2  0
 28 27  1  0
 28 23  2  0
 29 30  1  0
 30 31  1  0
 31 32  2  0
 33 32  1  0
 33 37  1  0
 34 33  2  0
 35 30  2  0
 35 34  1  0
 36 35  1  0
 38 39  1  0
 39 42  1  0
 39 41  1  0
 40 38  2  0
 43 44  1  0
 43 18  1  0
 45 43  1  0
 46  5  1  0
 46 47  1  0
 48 49  1  0
 48 47  2  0
 50 52  1  0
 50 49  1  0
 51 62  2  0
 52 57  1  0
 53 61  1  0
 53 63  1  0
 54 60  1  0
 54 56  1  0
 55 61  1  0
 56 55  1  0
 57 56  2  0
 58 59  1  0
 58 52  2  0
 59 54  2  0
 60 53  1  0
 61 51  1  0
 63 65  2  0
 64 63  1  0
 66 64  1  0
 67 76  2  0
 67 72  1  0
 68 64  1  0
 68 72  1  0
 69 68  1  0
 70 71  1  0
 70 69  1  0
 71 67  1  0
 72 73  2  0
 73 74  1  0
 75 74  2  0
 76 75  1  0
 77 51  1  0
 77 82  1  0
 77 78  1  0
 78 81  1  1
 78 79  1  0
 80 78  1  0
 82 85  1  0
 83 87  1  0
 83 82  1  0
 84 83  2  0
 87 86  1  0
 89 87  1  0
 89 90  1  0
 89 88  1  0
M  ISO  4   8 100  16 100  49 101  50 101
M  END
>  <TORSDO>  (65) 
F 20

>  <SCORE>  (65) 
-13.622

>  <name>  (65) 
64

>  <ligand_id>  (65) 
64

>  <original_smiles>  (65) 
[H]c1c([H])c([H])c2c(c1[H])C([H])([H])C([H])([H])C([H])([H])C2([H])N([H])C(=O)C1([H])N(C(=O)C([H])(N([H])C(=O)C([H])(N([H])C([H])([H])[H])C([H])([H])[H])C(C([H])([H])[H])(C([H])([H])[H])C([H])([H])[H])C([H])([H])c2c([H])c(OC([H])([H])C([H])([H])C([H])([H])Oc3c([H])c([H])c(N([H])C(=O)N4C([H])([H])C([H])([H])C([H])([H])C([H])(n5nc(-c6c([H])c([H])c(Oc7c([H])c([H])c(F)c([H])c7F)c([H])c6[H])c(C(=O)N([H])[H])c5N([H])[H])C4([H])[H])c([H])c3F)c([H])c([H])c2C1([H])[H]

>  <smiles>  (65) 
[H]c1c([H])c([H])c2c(c1[H])C([H])([H])C([H])([H])C([H])([H])C2([H])N([H])C(=O)C1([H])N(C(=O)C([H])(N([H])C(=O)C([H])(N([H])C([H])([H])[H])C([H])([H])[H])C(C([H])([H])[H])(C([H])([H])[H])C([H])([H])[H])C([H])([H])c2c([H])c(OC([H])([H])C([H])([H])C([H])([H])Oc3c([H])c([H])c(N([H])C(=O)N4C([H])([H])C([H])([H])C([H])([H])C([H])(n5nc(-c6c([H])c([H])c(Oc7c([H])c([H])c(F)c([H])c7F)c([H])c6[H])c(C(=O)N([H])[H])c5N([H])[H])C4([H])[H])c([H])c3F)c([H])c([H])c2C1([H])[H]

$$$$
65:0:0
     RDKit          3D

 93102  0  0  1  0  0  0  0  0999 V2000
  -31.0890  -17.5430   20.0900 C   0  0  0  0  0  3  0  0  0  0  0  0
  -30.9990  -18.9220   19.8030 C   0  0  0  0  0  3  0  0  0  0  0  0
  -28.5890  -18.8300   20.0300 C   0  0  0  0  0  3  0  0  0  0  0  0
  -29.9220  -16.7840   20.3500 C   0  0  0  0  0  0  0  0  0  0  0  0
  -29.7570  -19.5880   19.7620 C   0  0  0  0  0  0  0  0  0  0  0  0
  -28.6660  -17.4380   20.3300 C   0  0  0  0  0  0  0  0  0  0  0  0
  -30.6280  -14.3710   20.0600 C   0  0  0  0  0  0  0  0  0  0  0  0
  -30.3720  -12.1360   19.0460 C   0  0  0  0  0  2  0  0  0  0  0  0
  -29.4080  -12.2550   17.8460 C   0  0  0  0  0  2  0  0  0  0  0  0
  -27.9420  -12.1180   18.3040 C   0  0  0  0  0  2  0  0  0  0  0  0
  -27.6090  -13.0190   19.5230 C   0  0  0  0  0  3  0  0  0  0  0  0
  -28.6800  -12.8680   20.6260 C   0  0  0  0  0  2  0  0  0  0  0  0
  -29.9950  -13.1660   20.0270 N   0  0  0  0  0  0  0  0  0  0  0  0
  -31.7370  -14.5460   19.5470 O   0  0  0  0  0  0  0  0  0  0  0  0
  -29.9120  -15.3730   20.6120 N   0  0  0  0  0  0  0  0  0  0  0  0
  -29.0890  -15.0670   21.1090 H   0  0  0  0  0  0  0  0  0  0  0  0
  -25.2170  -13.6360   20.2460 C   0  0  0  0  0  0  0  0  0  0  0  0
  -24.1620  -12.8700   20.6650 C   0  0  0  0  0  0  0  0  0  0  0  0
  -24.6330  -11.5220   20.6750 C   0  0  0  0  0  0  0  0  0  0  0  0
  -26.2650  -12.7540   20.0340 N   0  0  0  0  0  0  0  0  0  0  0  0
  -25.9170  -11.4790   20.3460 N   0  0  0  0  0  0  0  0  0  0  0  0
  -23.9190  -10.2620   20.9250 C   0  0  0  0  0  0  0  0  0  0  0  0
  -24.3550   -9.3500   21.9120 C   0  0  0  0  0  3  0  0  0  0  0  0
  -23.6430   -8.1540   22.1450 C   0  0  0  0  0  3  0  0  0  0  0  0
  -22.4810   -7.8610   21.3900 C   0  0  0  0  0  0  0  0  0  0  0  0
  -22.0650   -8.7620   20.3940 C   0  0  0  0  0  3  0  0  0  0  0  0
  -22.7790   -9.9490   20.1600 C   0  0  0  0  0  3  0  0  0  0  0  0
  -21.7410   -6.7120   21.5300 O   0  0  0  0  0  0  0  0  0  0  0  0
  -21.6660   -6.0440   22.7260 C   0  0  0  0  0  0  0  0  0  0  0  0
  -21.1730   -6.6630   23.8950 C   0  0  0  0  0  3  0  0  0  0  0  0
  -21.0490   -5.9200   25.0860 C   0  0  0  0  0  3  0  0  0  0  0  0
  -21.4060   -4.5590   25.1090 C   0  0  0  0  0  0  0  0  0  0  0  0
  -21.8920   -3.9400   23.9440 C   0  0  0  0  0  3  0  0  0  0  0  0
  -22.0190   -4.6800   22.7550 C   0  0  0  0  0  0  0  0  0  0  0  0
  -22.4670   -4.0730   21.6300 F   0  0  0  0  0  0  0  0  0  0  0  0
  -21.2800   -3.8430   26.2500 F   0  0  0  0  0  0  0  0  0  0  0  0
  -22.7670  -13.3480   20.9490 C   0  0  0  0  0  0  0  0  0  0  0  0
  -22.0670  -12.6870   21.8640 N   0  0  0  0  0  0  0  0  0  0  0  0
  -22.3060  -14.3440   20.3920 O   0  0  0  0  0  0  0  0  0  0  0  0
  -22.4530  -11.8820   22.3360 H   0  0  0  0  0  0  0  0  0  0  0  0
  -21.1330  -12.9910   22.0980 H   0  0  0  0  0  0  0  0  0  0  0  0
  -25.3670  -14.9990   20.0100 N   0  0  0  0  0  4  0  0  0  0  0  0
  -24.6010  -15.6530   20.1150 H   0  0  0  0  0  0  0  0  0  0  0  0
  -26.2230  -15.4360   19.6950 H   0  0  0  0  0  0  0  0  0  0  0  0
  -29.7810  -20.9420   19.4610 O   0  0  0  0  0  0  0  0  0  0  0  0
  -28.6250  -21.7570   19.6880 C   0  0  0  0  0  2  0  0  0  0  0  0
  -29.0020  -23.2590   19.5740 C   0  0  0  0  0  2  0  0  0  0  0  0
  -27.9460  -24.2320   20.1630 C   0  0  0  0  0  2  0  0  0  0  0  0
  -28.4270  -25.6900   20.4120 C   0  0  0  0  0  2  0  0  0  0  0  0
  -28.1580  -26.5990   19.3360 O   0  0  0  0  0  0  0  0  0  0  0  0
  -24.7940  -31.6130   23.1650 C   0  0  0  0  0  0  0  0  0  0  0  0
  -27.0500  -27.3970   19.5130 C   0  0  0  0  0  0  0  0  0  0  0  0
  -23.4340  -30.4360   21.4640 C   0  0  0  0  0  3  0  0  0  0  0  0
  -24.7350  -28.9900   19.8120 C   0  0  0  0  0  0  0  0  0  0  0  0
  -25.9590  -30.7070   21.1560 C   0  0  0  0  0  2  0  0  0  0  0  0
  -25.9460  -29.4030   20.3850 C   0  0  0  0  0  0  0  0  0  0  0  0
  -27.1080  -28.6100   20.2390 C   0  0  0  0  0  3  0  0  0  0  0  0
  -25.8300  -27.0020   18.9320 C   0  0  0  0  0  3  0  0  0  0  0  0
  -24.6710  -27.7880   19.0840 C   0  0  0  0  0  3  0  0  0  0  0  0
  -23.5370  -29.8910   20.0150 C   0  0  0  0  0  2  0  0  0  0  0  0
  -24.7520  -30.9280   21.9870 N   0  0  0  0  0  0  0  0  0  0  0  0
  -23.7580  -31.8730   23.7930 O   0  0  0  0  0  0  0  0  0  0  0  0
  -22.7890  -29.3520   22.3570 C   0  0  0  0  0  0  0  0  0  0  0  0
  -21.4560  -29.2170   22.2640 N   0  0  0  0  0  0  0  0  0  0  0  0
  -23.4820  -28.6390   23.0860 O   0  0  0  0  0  0  0  0  0  0  0  0
  -20.9580  -29.8450   21.6490 H   0  0  0  0  0  0  0  0  0  0  0  0
  -18.0730  -28.0420   22.7450 C   0  0  0  0  0  0  0  0  0  0  0  0
  -20.6390  -28.2360   22.9800 C   0  0  0  0  0  3  0  0  0  0  0  0
  -20.7050  -26.8530   22.2940 C   0  0  0  0  0  2  0  0  0  0  0  0
  -19.5760  -26.6270   21.2820 C   0  0  0  0  0  2  0  0  0  0  0  0
  -18.2110  -26.7450   21.9660 C   0  0  0  0  0  2  0  0  0  0  0  0
  -19.2130  -28.7510   23.2070 C   0  0  0  0  0  0  0  0  0  0  0  0
  -19.0300  -29.9690   23.8970 C   0  0  0  0  0  3  0  0  0  0  0  0
  -17.7380  -30.4780   24.1280 C   0  0  0  0  0  3  0  0  0  0  0  0
  -16.6120  -29.7650   23.6800 C   0  0  0  0  0  3  0  0  0  0  0  0
  -16.7800  -28.5490   22.9960 C   0  0  0  0  0  3  0  0  0  0  0  0
  -26.1410  -32.1210   23.7660 C   0  0  0  0  0  3  0  0  0  0  0  0
  -25.9240  -33.4940   24.2410 N   0  0  0  0  0  0  0  0  0  0  0  0
  -26.2740  -34.5970   23.5640 C   0  0  0  0  0  0  0  0  0  0  0  0
  -26.8870  -34.5590   22.4920 O   0  0  0  0  0  0  0  0  0  0  0  0
  -25.3780  -33.6010   25.0830 H   0  0  0  0  0  0  0  0  0  0  0  0
  -24.6240  -36.4910   23.4700 C   0  0  0  0  0  1  0  0  0  0  0  0
  -25.8830  -35.9560   24.1710 C   0  0  0  0  0  3  0  0  0  0  0  0
  -28.0980  -36.6620   24.9600 C   0  0  0  0  0  1  0  0  0  0  0  0
  -26.9610  -36.9660   24.0970 N   0  0  0  0  0  0  0  0  0  0  0  0
  -26.6100  -37.8880   24.3470 H   0  0  0  0  0  0  0  0  0  0  0  0
  -26.6870  -31.2080   24.9320 C   0  0  1  0  0  0  0  0  0  0  0  0
  -25.6490  -30.9350   26.0460 C   0  0  0  0  0  1  0  0  0  0  0  0
  -27.1570  -29.8410   24.3800 C   0  0  0  0  0  1  0  0  0  0  0  0
  -27.9240  -31.8700   25.5830 C   0  0  0  0  0  1  0  0  0  0  0  0
  -27.5660  -16.6480   20.6030 O   0  0  0  0  0  0  0  0  0  0  0  0
  -25.2370  -16.1360   20.8070 C   0  0  0  0  0  2  0  0  0  0  0  0
  -26.2680  -17.1910   20.4020 C   0  0  0  0  0  2  0  0  0  0  0  0
  1  4  1  0
  2  1  2  0
  3  6  1  0
  4 15  1  0
  5  2  1  0
  5  3  2  0
  6  4  2  0
  6 91  1  0
  7 15  1  0
  8 13  1  0
  9 10  1  0
  9  8  1  0
 11 10  1  0
 11 20  1  0
 11 12  1  0
 13  7  1  0
 13 12  1  0
 14  7  2  0
 15 16  1  0
 17 18  2  0
 18 19  1  0
 18 37  1  0
 19 22  1  0
 20 17  1  0
 20 21  1  0
 21 19  2  0
 22 23  1  0
 23 24  2  0
 25 28  1  0
 25 24  1  0
 26 25  2  0
 27 26  1  0
 27 22  2  0
 28 29  1  0
 29 34  2  0
 29 30  1  0
 30 31  2  0
 31 32  1  0
 32 36  1  0
 33 32  2  0
 34 33  1  0
 35 34  1  0
 37 38  1  0
 38 41  1  0
 38 40  1  0
 39 37  2  0
 42 43  1  0
 42 17  1  0
 42 92  1  0
 44 42  1  0
 45 46  1  0
 45  5  1  0
 47 46  1  0
 47 48  1  0
 48 49  1  0
 50 52  1  0
 50 49  1  0
 51 62  2  0
 52 57  1  0
 53 61  1  0
 53 63  1  0
 54 60  1  0
 54 56  1  0
 55 61  1  0
 56 55  1  0
 57 56  2  0
 58 59  1  0
 58 52  2  0
 59 54  2  0
 60 53  1  0
 61 51  1  0
 63 65  2  0
 64 63  1  0
 66 64  1  0
 67 76  2  0
 67 72  1  0
 68 64  1  0
 68 72  1  0
 69 68  1  0
 70 71  1  0
 70 69  1  0
 71 67  1  0
 72 73  2  0
 73 74  1  0
 75 74  2  0
 76 75  1  0
 77 51  1  0
 77 78  1  0
 77 87  1  0
 78 81  1  0
 79 83  1  0
 79 78  1  0
 80 79  2  0
 83 82  1  0
 85 83  1  0
 85 86  1  0
 85 84  1  0
 87 90  1  1
 87 88  1  0
 89 87  1  0
 93 91  1  0
 93 92  1  0
M  ISO  4   7 100  15 100  49 101  50 101
M  END
>  <TORSDO>  (66) 
F 23

>  <SCORE>  (66) 
-11.348

>  <name>  (66) 
65

>  <ligand_id>  (66) 
65

>  <original_smiles>  (66) 
[H]c1c([H])c([H])c2c(c1[H])C([H])([H])C([H])([H])C([H])([H])C2([H])N([H])C(=O)C1([H])N(C(=O)C([H])(N([H])C(=O)C([H])(N([H])C([H])([H])[H])C([H])([H])[H])C(C([H])([H])[H])(C([H])([H])[H])C([H])([H])[H])C([H])([H])c2c([H])c(OC([H])([H])C([H])([H])C([H])([H])C([H])([H])Oc3c([H])c([H])c(N([H])C(=O)N4C([H])([H])C([H])([H])C([H])([H])C([H])(n5nc(-c6c([H])c([H])c(Oc7c([H])c([H])c(F)c([H])c7F)c([H])c6[H])c(C(=O)N([H])[H])c5N([H])[H])C4([H])[H])c(OC([H])([H])C([H])([H])[H])c3[H])c([H])c([H])c2C1([H])[H]

>  <smiles>  (66) 
[H]c1c([H])c([H])c2c(c1[H])C([H])([H])C([H])([H])C([H])([H])C2([H])N([H])C(=O)C1([H])N(C(=O)C([H])(N([H])C(=O)C([H])(N([H])C([H])([H])[H])C([H])([H])[H])C(C([H])([H])[H])(C([H])([H])[H])C([H])([H])[H])C([H])([H])c2c([H])c(OC([H])([H])C([H])([H])C([H])([H])C([H])([H])Oc3c([H])c([H])c(N([H])C(=O)N4C([H])([H])C([H])([H])C([H])([H])C([H])(n5nc(-c6c([H])c([H])c(Oc7c([H])c([H])c(F)c([H])c7F)c([H])c6[H])c(C(=O)N([H])[H])c5N([H])[H])C4([H])[H])c(OC([H])([H])C([H])([H])[H])c3[H])c([H])c([H])c2C1([H])[H]

$$$$
66:0:0
     RDKit          3D

 88 96  0  0  1  0  0  0  0  0999 V2000
  -30.0320  -18.2910   19.0830 C   0  0  0  0  0  3  0  0  0  0  0  0
  -29.9220  -18.6520   21.4040 C   0  0  0  0  0  3  0  0  0  0  0  0
  -29.7940  -19.7180   18.8920 C   0  0  0  0  0  3  0  0  0  0  0  0
  -29.6970  -20.0780   21.2100 C   0  0  0  0  0  3  0  0  0  0  0  0
  -30.1150  -17.6520   20.3670 C   0  0  0  0  0  0  0  0  0  0  0  0
  -29.6090  -20.7070   19.9280 C   0  0  0  0  0  0  0  0  0  0  0  0
  -30.8800  -15.0460   19.9680 C   0  0  0  0  0  0  0  0  0  0  0  0
  -30.6370  -12.7470   18.9130 C   0  0  0  0  0  2  0  0  0  0  0  0
  -29.6060  -12.7340   17.7590 C   0  0  0  0  0  2  0  0  0  0  0  0
  -28.1730  -12.5450   18.2900 C   0  0  0  0  0  2  0  0  0  0  0  0
  -27.8770  -13.4360   19.5210 C   0  0  0  0  0  3  0  0  0  0  0  0
  -29.0090  -13.3540   20.5630 C   0  0  0  0  0  2  0  0  0  0  0  0
  -30.2500  -13.7970   19.9020 N   0  0  0  0  0  0  0  0  0  0  0  0
  -31.9740  -15.1540   19.4020 O   0  0  0  0  0  0  0  0  0  0  0  0
  -30.3520  -15.8650   22.1310 C   0  0  0  0  0  1  0  0  0  0  0  0
  -30.3230  -16.1470   20.6840 N   0  0  0  0  0  0  0  0  0  0  0  0
  -25.5620  -14.0300   20.4420 C   0  0  0  0  0  0  0  0  0  0  0  0
  -24.5100  -13.2620   20.8570 C   0  0  0  0  0  0  0  0  0  0  0  0
  -24.9460  -11.9040   20.7480 C   0  0  0  0  0  0  0  0  0  0  0  0
  -26.5700  -13.1440   20.1010 N   0  0  0  0  0  0  0  0  0  0  0  0
  -26.2120  -11.8570   20.3470 N   0  0  0  0  0  0  0  0  0  0  0  0
  -24.2100  -10.6480   20.9430 C   0  0  0  0  0  0  0  0  0  0  0  0
  -24.6430   -9.6730   21.8680 C   0  0  0  0  0  3  0  0  0  0  0  0
  -23.9080   -8.4830   22.0520 C   0  0  0  0  0  3  0  0  0  0  0  0
  -22.7240   -8.2590   21.3100 C   0  0  0  0  0  0  0  0  0  0  0  0
  -22.3080   -9.2220   20.3730 C   0  0  0  0  0  3  0  0  0  0  0  0
  -23.0460  -10.4040   20.1890 C   0  0  0  0  0  3  0  0  0  0  0  0
  -21.9580   -7.1220   21.4050 O   0  0  0  0  0  0  0  0  0  0  0  0
  -21.8490   -6.4220   22.5800 C   0  0  0  0  0  0  0  0  0  0  0  0
  -21.3340   -7.0130   23.7540 C   0  0  0  0  0  3  0  0  0  0  0  0
  -21.1750   -6.2400   24.9200 C   0  0  0  0  0  3  0  0  0  0  0  0
  -21.5200   -4.8740   24.9140 C   0  0  0  0  0  0  0  0  0  0  0  0
  -22.0270   -4.2830   23.7450 C   0  0  0  0  0  3  0  0  0  0  0  0
  -22.1870   -5.0530   22.5800 C   0  0  0  0  0  0  0  0  0  0  0  0
  -22.6570   -4.4720   21.4500 F   0  0  0  0  0  0  0  0  0  0  0  0
  -21.3600   -4.1290   26.0320 F   0  0  0  0  0  0  0  0  0  0  0  0
  -23.1440  -13.7500   21.2420 C   0  0  0  0  0  0  0  0  0  0  0  0
  -22.4670  -13.0390   22.1360 N   0  0  0  0  0  0  0  0  0  0  0  0
  -22.6900  -14.7990   20.7860 O   0  0  0  0  0  0  0  0  0  0  0  0
  -22.8490  -12.1910   22.5280 H   0  0  0  0  0  0  0  0  0  0  0  0
  -21.5530  -13.3480   22.4350 H   0  0  0  0  0  0  0  0  0  0  0  0
  -25.7390  -15.4040   20.3030 N   0  0  0  0  0  0  0  0  0  0  0  0
  -24.9980  -16.0710   20.4860 H   0  0  0  0  0  0  0  0  0  0  0  0
  -26.5870  -15.8390   19.9620 H   0  0  0  0  0  0  0  0  0  0  0  0
  -29.3110  -22.1030   19.5910 O   0  0  0  0  0  0  0  0  0  0  0  0
  -29.2200  -23.3910   20.4310 C   0  0  0  0  0  2  0  0  0  0  0  0
  -28.4230  -24.7760   19.8650 C   0  0  0  0  0  2  0  0  0  0  0  0
  -28.5260  -26.2770   20.2890 O   0  0  0  0  0  0  0  0  0  0  0  0
  -24.6850  -31.7990   23.2550 C   0  0  0  0  0  0  0  0  0  0  0  0
  -27.4420  -27.2290   20.1790 C   0  0  0  0  0  0  0  0  0  0  0  0
  -23.5470  -30.4090   21.5680 C   0  0  0  0  0  3  0  0  0  0  0  0
  -25.0630  -28.9140   20.1250 C   0  0  0  0  0  0  0  0  0  0  0  0
  -26.0930  -30.7550   21.4420 C   0  0  0  0  0  2  0  0  0  0  0  0
  -26.2190  -29.3790   20.7660 C   0  0  0  0  0  0  0  0  0  0  0  0
  -27.4040  -28.5520   20.7790 C   0  0  0  0  0  3  0  0  0  0  0  0
  -26.2610  -26.8720   19.4860 C   0  0  0  0  0  3  0  0  0  0  0  0
  -25.0990  -27.6760   19.4660 C   0  0  0  0  0  3  0  0  0  0  0  0
  -23.8020  -29.7660   20.1790 C   0  0  0  0  0  2  0  0  0  0  0  0
  -24.7940  -31.0080   22.1440 N   0  0  0  0  0  0  0  0  0  0  0  0
  -23.5850  -32.0450   23.7720 O   0  0  0  0  0  0  0  0  0  0  0  0
  -22.8830  -29.3640   22.4990 C   0  0  0  0  0  0  0  0  0  0  0  0
  -21.5690  -29.1370   22.3280 N   0  0  0  0  0  0  0  0  0  0  0  0
  -23.5550  -28.7580   23.3380 O   0  0  0  0  0  0  0  0  0  0  0  0
  -21.0840  -29.6780   21.6250 H   0  0  0  0  0  0  0  0  0  0  0  0
  -18.2320  -27.7750   22.6960 C   0  0  0  0  0  0  0  0  0  0  0  0
  -20.7630  -28.1610   23.0640 C   0  0  0  0  0  3  0  0  0  0  0  0
  -20.9570  -26.7360   22.4920 C   0  0  0  0  0  2  0  0  0  0  0  0
  -19.9110  -26.3650   21.4360 C   0  0  0  0  0  2  0  0  0  0  0  0
  -18.4990  -26.4410   22.0220 C   0  0  0  0  0  2  0  0  0  0  0  0
  -19.2940  -28.5910   23.1690 C   0  0  0  0  0  0  0  0  0  0  0  0
  -18.9890  -29.8380   23.7550 C   0  0  0  0  0  3  0  0  0  0  0  0
  -17.6540  -30.2680   23.8770 C   0  0  0  0  0  3  0  0  0  0  0  0
  -16.6070  -29.4510   23.4170 C   0  0  0  0  0  3  0  0  0  0  0  0
  -16.8960  -28.2070   22.8310 C   0  0  0  0  0  3  0  0  0  0  0  0
  -25.9370  -32.4550   23.9160 C   0  0  0  0  0  3  0  0  0  0  0  0
  -26.4070  -31.7130   25.2280 C   0  0  1  0  0  0  0  0  0  0  0  0
  -25.2720  -31.4870   26.2560 C   0  0  0  0  0  1  0  0  0  0  0  0
  -27.0200  -30.3340   24.8920 C   0  0  0  0  0  1  0  0  0  0  0  0
  -27.5220  -32.5340   25.9190 C   0  0  0  0  0  1  0  0  0  0  0  0
  -25.5990  -33.8560   24.2130 N   0  0  0  0  0  0  0  0  0  0  0  0
  -25.9240  -34.9030   23.4450 C   0  0  0  0  0  0  0  0  0  0  0  0
  -26.6060  -34.7920   22.4220 O   0  0  0  0  0  0  0  0  0  0  0  0
  -24.9810  -34.0140   24.9980 H   0  0  0  0  0  0  0  0  0  0  0  0
  -24.1590  -36.6630   23.0730 C   0  0  0  0  0  1  0  0  0  0  0  0
  -25.4150  -36.2920   23.8790 C   0  0  0  0  0  3  0  0  0  0  0  0
  -27.5380  -37.2390   24.6720 C   0  0  0  0  0  1  0  0  0  0  0  0
  -26.4270  -37.3630   23.7340 N   0  0  0  0  0  0  0  0  0  0  0  0
  -26.0020  -38.2790   23.8650 H   0  0  0  0  0  0  0  0  0  0  0  0
  1  5  1  0
  3  1  2  0
  3  6  1  0
  4  2  1  0
  5 16  1  0
  5  2  2  0
  6  4  2  0
  7 16  1  0
  8 13  1  0
  9 10  1  0
  9  8  1  0
 11 10  1  0
 11 20  1  0
 11 12  1  0
 13  7  1  0
 13 12  1  0
 14  7  2  0
 16 15  1  0
 17 18  2  0
 18 37  1  0
 19 18  1  0
 19 22  1  0
 20 21  1  0
 20 17  1  0
 21 19  2  0
 22 23  1  0
 23 24  2  0
 25 28  1  0
 25 24  1  0
 26 25  2  0
 27 26  1  0
 27 22  2  0
 28 29  1  0
 29 34  2  0
 29 30  1  0
 30 31  2  0
 32 31  1  0
 32 36  1  0
 33 32  2  0
 34 33  1  0
 35 34  1  0
 37 38  1  0
 38 41  1  0
 38 40  1  0
 39 37  2  0
 42 17  1  0
 42 43  1  0
 44 42  1  0
 45  6  1  0
 45 46  1  0
 47 48  1  0
 47 46  1  0
 49 60  2  0
 50 48  1  0
 50 55  1  0
 51 59  1  0
 51 61  1  0
 52 58  1  0
 52 54  1  0
 53 59  1  0
 54 55  2  0
 54 53  1  0
 56 50  2  0
 57 56  1  0
 57 52  2  0
 58 51  1  0
 59 49  1  0
 61 63  2  0
 62 61  1  0
 64 62  1  0
 65 74  2  0
 65 70  1  0
 66 62  1  0
 66 70  1  0
 67 66  1  0
 68 69  1  0
 68 67  1  0
 69 65  1  0
 70 71  2  0
 71 72  1  0
 73 72  2  0
 74 73  1  0
 75 49  1  0
 75 80  1  0
 75 76  1  0
 76 79  1  1
 76 77  1  0
 78 76  1  0
 80 83  1  0
 81 85  1  0
 81 80  1  0
 82 81  2  0
 85 84  1  0
 87 88  1  0
 87 85  1  0
 87 86  1  0
M  ISO  4   7 100  16 100  47 101  48 101
M  END
>  <TORSDO>  (67) 
F 19

>  <SCORE>  (67) 
-14.029

>  <name>  (67) 
66

>  <ligand_id>  (67) 
66

>  <original_smiles>  (67) 
[H]c1c([H])c([H])c2c(c1[H])C([H])([H])C([H])([H])C([H])([H])C2([H])N([H])C(=O)C1([H])N(C(=O)C([H])(N([H])C(=O)C([H])(N([H])C([H])([H])[H])C([H])([H])[H])C(C([H])([H])[H])(C([H])([H])[H])C([H])([H])[H])C([H])([H])c2c([H])c(OC([H])([H])C([H])([H])Oc3c([H])c([H])c(N(C(=O)N4C([H])([H])C([H])([H])C([H])([H])C([H])(n5nc(-c6c([H])c([H])c(Oc7c([H])c([H])c(F)c([H])c7F)c([H])c6[H])c(C(=O)N([H])[H])c5N([H])[H])C4([H])[H])C([H])([H])[H])c([H])c3[H])c([H])c([H])c2C1([H])[H]

>  <smiles>  (67) 
[H]c1c([H])c([H])c2c(c1[H])C([H])([H])C([H])([H])C([H])([H])C2([H])N([H])C(=O)C1([H])N(C(=O)C([H])(N([H])C(=O)C([H])(N([H])C([H])([H])[H])C([H])([H])[H])C(C([H])([H])[H])(C([H])([H])[H])C([H])([H])[H])C([H])([H])c2c([H])c(OC([H])([H])C([H])([H])Oc3c([H])c([H])c(N(C(=O)N4C([H])([H])C([H])([H])C([H])([H])C([H])(n5nc(-c6c([H])c([H])c(Oc7c([H])c([H])c(F)c([H])c7F)c([H])c6[H])c(C(=O)N([H])[H])c5N([H])[H])C4([H])[H])C([H])([H])[H])c([H])c3[H])c([H])c([H])c2C1([H])[H]

$$$$
67:0:0
     RDKit          3D

 98106  0  0  1  0  0  0  0  0999 V2000
  -25.3210  -22.9750   23.1150 C   0  0  0  0  0  2  0  0  0  0  0  0
  -24.2610  -23.8430   22.4070 C   0  0  0  0  0  2  0  0  0  0  0  0
  -24.6530  -24.4570   21.0450 C   0  0  0  0  0  2  0  0  0  0  0  0
  -26.9290  -25.4630   21.3850 C   0  0  0  0  0  0  0  0  0  0  0  0
  -26.0890  -24.5960   20.8050 N   0  0  0  0  0  0  0  0  0  0  0  0
  -26.6100  -26.1650   22.3440 O   0  0  0  0  0  0  0  0  0  0  0  0
  -26.4610  -24.0500   20.0380 H   0  0  0  0  0  0  0  0  0  0  0  0
  -28.3310  -25.5610   20.7750 C   0  0  0  0  0  2  0  0  0  0  0  0
  -28.7060  -26.9750   20.2860 C   0  0  0  0  0  2  0  0  0  0  0  0
  -27.9810  -27.3200   19.0990 O   0  0  0  0  0  0  0  0  0  0  0  0
  -24.4580  -31.9690   23.1590 C   0  0  0  0  0  0  0  0  0  0  0  0
  -26.8210  -28.0200   19.3210 C   0  0  0  0  0  0  0  0  0  0  0  0
  -23.0890  -30.7020   21.5300 C   0  0  0  0  0  3  0  0  0  0  0  0
  -24.3960  -29.3820   19.7780 C   0  0  0  0  0  0  0  0  0  0  0  0
  -25.5530  -31.1920   21.0640 C   0  0  0  0  0  2  0  0  0  0  0  0
  -25.5970  -29.9020   20.2780 C   0  0  0  0  0  0  0  0  0  0  0  0
  -26.8110  -29.2260   20.0510 C   0  0  0  0  0  3  0  0  0  0  0  0
  -25.6120  -27.5140   18.8010 C   0  0  0  0  0  3  0  0  0  0  0  0
  -24.3960  -28.1850   19.0390 C   0  0  0  0  0  3  0  0  0  0  0  0
  -23.1410  -30.1740   20.0690 C   0  0  0  0  0  2  0  0  0  0  0  0
  -24.3910  -31.2950   21.9760 N   0  0  0  0  0  0  0  0  0  0  0  0
  -23.4490  -32.1450   23.8540 O   0  0  0  0  0  0  0  0  0  0  0  0
  -22.5920  -29.5620   22.4470 C   0  0  0  0  0  0  0  0  0  0  0  0
  -21.2870  -29.2630   22.3690 N   0  0  0  0  0  0  0  0  0  0  0  0
  -23.3740  -28.9530   23.1830 O   0  0  0  0  0  0  0  0  0  0  0  0
  -20.7090  -29.8150   21.7520 H   0  0  0  0  0  0  0  0  0  0  0  0
  -18.0990  -27.6280   22.8180 C   0  0  0  0  0  0  0  0  0  0  0  0
  -20.6030  -28.2000   23.1040 C   0  0  0  0  0  3  0  0  0  0  0  0
  -20.8880  -26.8150   22.4770 C   0  0  0  0  0  2  0  0  0  0  0  0
  -19.8330  -26.3900   21.4510 C   0  0  0  0  0  2  0  0  0  0  0  0
  -18.4460  -26.3330   22.1020 C   0  0  0  0  0  2  0  0  0  0  0  0
  -19.1120  -28.5120   23.2740 C   0  0  0  0  0  0  0  0  0  0  0  0
  -18.7360  -29.7190   23.9010 C   0  0  0  0  0  3  0  0  0  0  0  0
  -17.3780  -30.0460   24.0790 C   0  0  0  0  0  3  0  0  0  0  0  0
  -16.3800  -29.1580   23.6400 C   0  0  0  0  0  3  0  0  0  0  0  0
  -16.7410  -27.9510   23.0170 C   0  0  0  0  0  3  0  0  0  0  0  0
  -25.8000  -32.5760   23.6810 C   0  0  0  0  0  3  0  0  0  0  0  0
  -26.4380  -31.7480   24.8630 C   0  0  1  0  0  0  0  0  0  0  0  0
  -25.4490  -31.4490   26.0130 C   0  0  0  0  0  1  0  0  0  0  0  0
  -26.9910  -30.3990   24.3470 C   0  0  0  0  0  1  0  0  0  0  0  0
  -27.6390  -32.5230   25.4570 C   0  0  0  0  0  1  0  0  0  0  0  0
  -25.5260  -33.9560   24.1000 N   0  0  0  0  0  0  0  0  0  0  0  0
  -25.8050  -35.0420   23.3670 C   0  0  0  0  0  0  0  0  0  0  0  0
  -26.3990  -34.9860   22.2860 O   0  0  0  0  0  0  0  0  0  0  0  0
  -24.9910  -34.0700   24.9490 H   0  0  0  0  0  0  0  0  0  0  0  0
  -24.0640  -36.8510   23.2210 C   0  0  0  0  0  1  0  0  0  0  0  0
  -25.3570  -36.4070   23.9230 C   0  0  0  0  0  3  0  0  0  0  0  0
  -27.5530  -37.2470   24.6340 C   0  0  0  0  0  1  0  0  0  0  0  0
  -26.3840  -37.4630   23.7850 N   0  0  0  0  0  0  0  0  0  0  0  0
  -25.9940  -38.3740   24.0100 H   0  0  0  0  0  0  0  0  0  0  0  0
  -26.2340  -22.1370   22.1960 C   0  0  0  0  0  2  0  0  0  0  0  0
  -27.5600  -22.8540   21.8900 C   0  0  0  0  0  2  0  0  0  0  0  0
  -28.7260  -21.9210   21.5490 C   0  0  0  0  0  2  0  0  0  0  0  0
  -28.6530  -21.5660   20.1730 O   0  0  0  0  0  0  0  0  0  0  0  0
  -30.7460  -19.8630   17.6840 C   0  0  0  0  0  3  0  0  0  0  0  0
  -31.5680  -19.0520   18.4850 C   0  0  0  0  0  3  0  0  0  0  0  0
  -29.7630  -20.6740   18.2770 C   0  0  0  0  0  3  0  0  0  0  0  0
  -30.3920  -19.8300   20.4730 C   0  0  0  0  0  3  0  0  0  0  0  0
  -31.3800  -19.0070   19.8890 C   0  0  0  0  0  0  0  0  0  0  0  0
  -29.5950  -20.6910   19.6750 C   0  0  0  0  0  0  0  0  0  0  0  0
  -32.8370  -17.0960   20.3800 C   0  0  0  0  0  0  0  0  0  0  0  0
  -32.5430  -14.8330   19.4410 C   0  0  0  0  0  2  0  0  0  0  0  0
  -31.7670  -14.8820   18.1100 C   0  0  0  0  0  2  0  0  0  0  0  0
  -30.2460  -14.8450   18.3650 C   0  0  0  0  0  2  0  0  0  0  0  0
  -29.7900  -15.8690   19.4380 C   0  0  0  0  0  3  0  0  0  0  0  0
  -30.6910  -15.8030   20.6910 C   0  0  0  0  0  2  0  0  0  0  0  0
  -32.0870  -15.9680   20.2550 N   0  0  0  0  0  0  0  0  0  0  0  0
  -34.0250  -17.1620   20.0580 O   0  0  0  0  0  0  0  0  0  0  0  0
  -32.1900  -18.2110   20.7470 N   0  0  0  0  0  0  0  0  0  0  0  0
  -32.7290  -18.7710   21.3920 H   0  0  0  0  0  0  0  0  0  0  0  0
  -27.3960  -16.6850   19.9020 C   0  0  0  0  0  0  0  0  0  0  0  0
  -26.2310  -16.0060   20.1360 C   0  0  0  0  0  0  0  0  0  0  0  0
  -26.5760  -14.6210   20.1380 C   0  0  0  0  0  0  0  0  0  0  0  0
  -28.3780  -15.7150   19.7720 N   0  0  0  0  0  0  0  0  0  0  0  0
  -27.8840  -14.4700   19.9740 N   0  0  0  0  0  0  0  0  0  0  0  0
  -25.7320  -13.4240   20.2320 C   0  0  0  0  0  0  0  0  0  0  0  0
  -25.9440  -12.4480   21.2310 C   0  0  0  0  0  3  0  0  0  0  0  0
  -25.1080  -11.3130   21.3100 C   0  0  0  0  0  3  0  0  0  0  0  0
  -24.0480  -11.1460   20.3890 C   0  0  0  0  0  0  0  0  0  0  0  0
  -23.8570  -12.1090   19.3830 C   0  0  0  0  0  3  0  0  0  0  0  0
  -24.6920  -13.2360   19.3010 C   0  0  0  0  0  3  0  0  0  0  0  0
  -23.2040  -10.0620   20.3720 O   0  0  0  0  0  0  0  0  0  0  0  0
  -22.8590   -9.4030   21.5240 C   0  0  0  0  0  0  0  0  0  0  0  0
  -22.2510  -10.0700   22.6110 C   0  0  0  0  0  3  0  0  0  0  0  0
  -21.8480   -9.3400   23.7480 C   0  0  0  0  0  3  0  0  0  0  0  0
  -22.0440   -7.9470   23.7980 C   0  0  0  0  0  0  0  0  0  0  0  0
  -22.6460   -7.2810   22.7160 C   0  0  0  0  0  3  0  0  0  0  0  0
  -23.0510   -8.0070   21.5820 C   0  0  0  0  0  0  0  0  0  0  0  0
  -23.6090   -7.3590   20.5310 F   0  0  0  0  0  0  0  0  0  0  0  0
  -21.6510   -7.2450   24.8860 F   0  0  0  0  0  0  0  0  0  0  0  0
  -24.8580  -16.6010   20.2590 C   0  0  0  0  0  0  0  0  0  0  0  0
  -23.9860  -15.9700   21.0380 N   0  0  0  0  0  0  0  0  0  0  0  0
  -24.5610  -17.6550   19.6990 O   0  0  0  0  0  0  0  0  0  0  0  0
  -24.2330  -15.1150   21.5130 H   0  0  0  0  0  0  0  0  0  0  0  0
  -23.0590  -16.3510   21.1640 H   0  0  0  0  0  0  0  0  0  0  0  0
  -27.6970  -18.0350   19.7660 N   0  0  0  0  0  0  0  0  0  0  0  0
  -26.9890  -18.7590   19.8250 H   0  0  0  0  0  0  0  0  0  0  0  0
  -28.6250  -18.4030   19.5920 H   0  0  0  0  0  0  0  0  0  0  0  0
  2  1  1  0
  3  2  1  0
  4  6  2  0
  5  3  1  0
  5  4  1  0
  7  5  1  0
  8  4  1  0
  9  8  1  0
 10 12  1  0
 10  9  1  0
 11 22  2  0
 12 17  1  0
 13 21  1  0
 13 23  1  0
 14 20  1  0
 14 16  1  0
 15 21  1  0
 16 15  1  0
 17 16  2  0
 18 19  1  0
 18 12  2  0
 19 14  2  0
 20 13  1  0
 21 11  1  0
 23 25  2  0
 24 23  1  0
 26 24  1  0
 27 36  2  0
 27 32  1  0
 28 24  1  0
 28 32  1  0
 29 28  1  0
 30 31  1  0
 30 29  1  0
 31 27  1  0
 32 33  2  0
 33 34  1  0
 35 34  2  0
 36 35  1  0
 37 11  1  0
 37 42  1  0
 37 38  1  0
 38 41  1  1
 38 39  1  0
 40 38  1  0
 42 45  1  0
 43 47  1  0
 43 42  1  0
 44 43  2  0
 47 46  1  0
 49 47  1  0
 49 50  1  0
 49 48  1  0
 51  1  1  0
 52 51  1  0
 53 52  1  0
 54 53  1  0
 55 57  2  0
 55 56  1  0
 56 59  2  0
 57 60  1  0
 59 58  1  0
 59 69  1  0
 60 54  1  0
 60 58  2  0
 61 69  1  0
 62 67  1  0
 63 64  1  0
 63 62  1  0
 65 64  1  0
 65 74  1  0
 65 66  1  0
 67 61  1  0
 67 66  1  0
 68 61  2  0
 69 70  1  0
 71 72  2  0
 72 73  1  0
 72 91  1  0
 73 76  1  0
 74 71  1  0
 74 75  1  0
 75 73  2  0
 76 77  1  0
 77 78  2  0
 79 78  1  0
 80 79  2  0
 81 80  1  0
 81 76  2  0
 82 79  1  0
 82 83  1  0
 83 88  2  0
 83 84  1  0
 84 85  2  0
 85 86  1  0
 86 90  1  0
 87 86  2  0
 88 87  1  0
 89 88  1  0
 91 92  1  0
 92 95  1  0
 92 94  1  0
 93 91  2  0
 96 97  1  0
 96 71  1  0
 98 96  1  0
M  ISO  4   9 101  10 101  61 100  69 100
M  END
>  <TORSDO>  (68) 
F 26

>  <SCORE>  (68) 
-1.832

>  <name>  (68) 
67

>  <ligand_id>  (68) 
67

>  <original_smiles>  (68) 
[H]c1c([H])c(OC([H])([H])C([H])([H])C([H])([H])C([H])([H])C([H])([H])C([H])([H])N([H])C(=O)C([H])([H])C([H])([H])Oc2c([H])c([H])c3c(c2[H])C([H])([H])N(C(=O)C([H])(N([H])C(=O)C([H])(N([H])C([H])([H])[H])C([H])([H])[H])C(C([H])([H])[H])(C([H])([H])[H])C([H])([H])[H])C([H])(C(=O)N([H])C2([H])c4c([H])c([H])c([H])c([H])c4C([H])([H])C([H])([H])C2([H])[H])C3([H])[H])c([H])c(N([H])C(=O)N2C([H])([H])C([H])([H])C([H])([H])C([H])(n3nc(-c4c([H])c([H])c(Oc5c([H])c([H])c(F)c([H])c5F)c([H])c4[H])c(C(=O)N([H])[H])c3N([H])[H])C2([H])[H])c1[H]

>  <smiles>  (68) 
[H]c1c([H])c(OC([H])([H])C([H])([H])C([H])([H])C([H])([H])C([H])([H])C([H])([H])N([H])C(=O)C([H])([H])C([H])([H])Oc2c([H])c([H])c3c(c2[H])C([H])([H])N(C(=O)C([H])(N([H])C(=O)C([H])(N([H])C([H])([H])[H])C([H])([H])[H])C(C([H])([H])[H])(C([H])([H])[H])C([H])([H])[H])C([H])(C(=O)N([H])C2([H])c4c([H])c([H])c([H])c([H])c4C([H])([H])C([H])([H])C2([H])[H])C3([H])[H])c([H])c(N([H])C(=O)N2C([H])([H])C([H])([H])C([H])([H])C([H])(n3nc(-c4c([H])c([H])c(Oc5c([H])c([H])c(F)c([H])c5F)c([H])c4[H])c(C(=O)N([H])[H])c3N([H])[H])C2([H])[H])c1[H]

$$$$
68:0:0
     RDKit          3D

 99107  0  0  1  0  0  0  0  0999 V2000
  -28.6230  -21.5220   22.1990 C   0  0  0  0  0  3  0  0  0  0  0  0
  -27.5280  -21.5570   20.0150 C   0  0  0  0  0  3  0  0  0  0  0  0
  -29.6090  -20.6580   21.7080 C   0  0  0  0  0  0  0  0  0  0  0  0
  -28.5030  -20.6680   19.5150 C   0  0  0  0  0  0  0  0  0  0  0  0
  -27.6020  -21.9890   21.3570 C   0  0  0  0  0  0  0  0  0  0  0  0
  -29.5480  -20.2220   20.3630 C   0  0  0  0  0  0  0  0  0  0  0  0
  -30.7140  -20.2300   22.6560 C   0  0  0  0  0  1  0  0  0  0  0  0
  -26.7630  -24.1790   21.4310 C   0  0  0  0  0  0  0  0  0  0  0  0
  -26.7130  -22.9320   21.9000 N   0  0  0  0  0  0  0  0  0  0  0  0
  -26.1260  -24.5430   20.4400 O   0  0  0  0  0  0  0  0  0  0  0  0
  -26.7820  -22.9390   22.9100 H   0  0  0  0  0  0  0  0  0  0  0  0
  -27.7050  -25.1240   22.1910 C   0  0  0  0  0  2  0  0  0  0  0  0
  -28.1400  -26.3790   21.4160 C   0  0  0  0  0  2  0  0  0  0  0  0
  -28.7160  -26.1880   19.9760 C   0  0  0  0  0  2  0  0  0  0  0  0
  -28.7400  -27.4250   19.2420 O   0  0  0  0  0  0  0  0  0  0  0  0
  -24.5130  -31.5960   23.0560 C   0  0  0  0  0  0  0  0  0  0  0  0
  -27.5290  -28.0720   19.2530 C   0  0  0  0  0  0  0  0  0  0  0  0
  -23.4200  -30.3240   21.2400 C   0  0  0  0  0  3  0  0  0  0  0  0
  -24.9820  -29.2320   19.5500 C   0  0  0  0  0  0  0  0  0  0  0  0
  -25.8660  -31.0350   21.0390 C   0  0  0  0  0  2  0  0  0  0  0  0
  -26.0900  -29.8090   20.1810 C   0  0  0  0  0  0  0  0  0  0  0  0
  -27.3720  -29.2360   20.0320 C   0  0  0  0  0  3  0  0  0  0  0  0
  -26.4110  -27.5090   18.6030 C   0  0  0  0  0  3  0  0  0  0  0  0
  -25.1360  -28.0820   18.7570 C   0  0  0  0  0  3  0  0  0  0  0  0
  -23.6460  -29.9030   19.7640 C   0  0  0  0  0  2  0  0  0  0  0  0
  -24.6210  -30.9910   21.8400 N   0  0  0  0  0  0  0  0  0  0  0  0
  -23.4290  -31.6430   23.6540 O   0  0  0  0  0  0  0  0  0  0  0  0
  -22.9340  -29.0910   22.0390 C   0  0  0  0  0  0  0  0  0  0  0  0
  -21.6430  -28.7540   21.8940 N   0  0  0  0  0  0  0  0  0  0  0  0
  -23.7150  -28.4460   22.7440 O   0  0  0  0  0  0  0  0  0  0  0  0
  -21.0600  -29.3350   21.3070 H   0  0  0  0  0  0  0  0  0  0  0  0
  -18.4820  -27.0230   22.1800 C   0  0  0  0  0  0  0  0  0  0  0  0
  -20.9770  -27.6130   22.5240 C   0  0  0  0  0  3  0  0  0  0  0  0
  -21.2840  -26.2990   21.7680 C   0  0  0  0  0  2  0  0  0  0  0  0
  -20.2360  -25.9580   20.7030 C   0  0  0  0  0  2  0  0  0  0  0  0
  -18.8500  -25.8140   21.3370 C   0  0  0  0  0  2  0  0  0  0  0  0
  -19.4780  -27.8760   22.7240 C   0  0  0  0  0  0  0  0  0  0  0  0
  -19.0770  -29.0080   23.4690 C   0  0  0  0  0  3  0  0  0  0  0  0
  -17.7130  -29.2830   23.6800 C   0  0  0  0  0  3  0  0  0  0  0  0
  -16.7310  -28.4280   23.1510 C   0  0  0  0  0  3  0  0  0  0  0  0
  -17.1170  -27.2990   22.4040 C   0  0  0  0  0  3  0  0  0  0  0  0
  -25.7380  -32.2800   23.7390 C   0  0  0  0  0  3  0  0  0  0  0  0
  -26.2570  -31.5010   25.0090 C   0  0  1  0  0  0  0  0  0  0  0  0
  -25.1480  -31.1540   26.0280 C   0  0  0  0  0  1  0  0  0  0  0  0
  -26.9480  -30.1800   24.5920 C   0  0  0  0  0  1  0  0  0  0  0  0
  -27.3250  -32.3490   25.7400 C   0  0  0  0  0  1  0  0  0  0  0  0
  -25.3390  -33.6490   24.0920 N   0  0  0  0  0  0  0  0  0  0  0  0
  -25.6390  -34.7380   23.3730 C   0  0  0  0  0  0  0  0  0  0  0  0
  -26.3570  -34.7000   22.3680 O   0  0  0  0  0  0  0  0  0  0  0  0
  -24.7030  -33.7500   24.8700 H   0  0  0  0  0  0  0  0  0  0  0  0
  -23.8260  -36.4440   22.9940 C   0  0  0  0  0  1  0  0  0  0  0  0
  -25.0530  -36.0810   23.8450 C   0  0  0  0  0  3  0  0  0  0  0  0
  -27.1030  -37.0560   24.7830 C   0  0  0  0  0  1  0  0  0  0  0  0
  -26.0230  -37.1950   23.8100 N   0  0  0  0  0  0  0  0  0  0  0  0
  -25.5560  -38.0820   23.9820 H   0  0  0  0  0  0  0  0  0  0  0  0
  -29.3590  -20.9780   17.1400 C   0  0  0  0  0  1  0  0  0  0  0  0
  -28.4220  -20.1940   18.0690 C   0  0  0  0  0  2  0  0  0  0  0  0
  -30.4870  -19.3560   19.8800 O   0  0  0  0  0  0  0  0  0  0  0  0
  -30.3210  -18.0380   20.3780 C   0  0  0  0  0  2  0  0  0  0  0  0
  -31.6900  -17.4530   20.7500 C   0  0  0  0  0  2  0  0  0  0  0  0
  -31.6050  -16.2750   21.7390 C   0  0  0  0  0  2  0  0  0  0  0  0
  -30.8880  -14.5580   20.0920 C   0  0  0  0  0  0  0  0  0  0  0  0
  -30.4320  -12.4710   18.8870 C   0  0  0  0  0  2  0  0  0  0  0  0
  -29.4000  -12.6400   17.7620 C   0  0  0  0  0  2  0  0  0  0  0  0
  -27.9730  -12.4600   18.3080 C   0  0  0  0  0  2  0  0  0  0  0  0
  -27.7060  -13.3250   19.5670 C   0  0  0  0  0  3  0  0  0  0  0  0
  -28.8430  -13.1700   20.6040 C   0  0  0  0  0  2  0  0  0  0  0  0
  -30.1370  -13.4430   19.9460 N   0  0  0  0  0  0  0  0  0  0  0  0
  -31.7390  -14.9220   19.2740 O   0  0  0  0  0  0  0  0  0  0  0  0
  -30.7700  -15.1680   21.2740 N   0  0  0  0  0  0  0  0  0  0  0  0
  -30.1110  -14.7700   21.9290 H   0  0  0  0  0  0  0  0  0  0  0  0
  -25.3850  -13.8840   20.5380 C   0  0  0  0  0  0  0  0  0  0  0  0
  -24.3480  -13.0890   20.9450 C   0  0  0  0  0  0  0  0  0  0  0  0
  -24.7930  -11.7420   20.7750 C   0  0  0  0  0  0  0  0  0  0  0  0
  -26.3980  -13.0210   20.1470 N   0  0  0  0  0  0  0  0  0  0  0  0
  -26.0490  -11.7240   20.3450 N   0  0  0  0  0  0  0  0  0  0  0  0
  -24.0760  -10.4700   20.9410 C   0  0  0  0  0  0  0  0  0  0  0  0
  -24.5440   -9.4670   21.8200 C   0  0  0  0  0  3  0  0  0  0  0  0
  -23.8260   -8.2610   21.9770 C   0  0  0  0  0  3  0  0  0  0  0  0
  -22.6290   -8.0490   21.2530 C   0  0  0  0  0  0  0  0  0  0  0  0
  -22.1800   -9.0410   20.3640 C   0  0  0  0  0  3  0  0  0  0  0  0
  -22.8960  -10.2390   20.2050 C   0  0  0  0  0  3  0  0  0  0  0  0
  -21.8800   -6.8990   21.3230 O   0  0  0  0  0  0  0  0  0  0  0  0
  -21.7930   -6.1660   22.4790 C   0  0  0  0  0  0  0  0  0  0  0  0
  -21.3170   -6.7270   23.6840 C   0  0  0  0  0  3  0  0  0  0  0  0
  -21.1780   -5.9200   24.8290 C   0  0  0  0  0  3  0  0  0  0  0  0
  -21.5030   -4.5520   24.7730 C   0  0  0  0  0  0  0  0  0  0  0  0
  -21.9720   -3.9900   23.5720 C   0  0  0  0  0  3  0  0  0  0  0  0
  -22.1130   -4.7940   22.4280 C   0  0  0  0  0  0  0  0  0  0  0  0
  -22.5450   -4.2420   21.2680 F   0  0  0  0  0  0  0  0  0  0  0  0
  -21.3620   -3.7740   25.8720 F   0  0  0  0  0  0  0  0  0  0  0  0
  -22.9880  -13.5460   21.3860 C   0  0  0  0  0  0  0  0  0  0  0  0
  -22.3460  -12.7990   22.2770 N   0  0  0  0  0  0  0  0  0  0  0  0
  -22.5020  -14.6000   20.9740 O   0  0  0  0  0  0  0  0  0  0  0  0
  -22.7530  -11.9470   22.6320 H   0  0  0  0  0  0  0  0  0  0  0  0
  -21.4350  -13.0840   22.6100 H   0  0  0  0  0  0  0  0  0  0  0  0
  -25.5410  -15.2640   20.4450 N   0  0  0  0  0  0  0  0  0  0  0  0
  -24.7910  -15.9070   20.6770 H   0  0  0  0  0  0  0  0  0  0  0  0
  -26.3690  -15.7280   20.0930 H   0  0  0  0  0  0  0  0  0  0  0  0
  2  5  1  0
  3  1  1  0
  3  7  1  0
  4  2  2  0
  4  6  1  0
  5  9  1  0
  5  1  2  0
  6  3  2  0
  8  9  1  0
  8 12  1  0
  9 11  1  0
 10  8  2  0
 13 12  1  0
 14 13  1  0
 15 17  1  0
 15 14  1  0
 16 27  2  0
 17 22  1  0
 18 26  1  0
 18 28  1  0
 19 25  1  0
 19 21  1  0
 20 26  1  0
 21 20  1  0
 22 21  2  0
 23 24  1  0
 23 17  2  0
 24 19  2  0
 25 18  1  0
 26 16  1  0
 28 30  2  0
 29 28  1  0
 31 29  1  0
 32 41  2  0
 32 37  1  0
 33 29  1  0
 33 37  1  0
 34 33  1  0
 35 36  1  0
 35 34  1  0
 36 32  1  0
 37 38  2  0
 38 39  1  0
 40 39  2  0
 41 40  1  0
 42 16  1  0
 42 47  1  0
 42 43  1  0
 43 46  1  1
 43 44  1  0
 45 43  1  0
 47 50  1  0
 48 52  1  0
 48 47  1  0
 49 48  2  0
 52 51  1  0
 54 52  1  0
 54 55  1  0
 54 53  1  0
 56 57  1  0
 57  4  1  0
 58  6  1  0
 58 59  1  0
 59 60  1  0
 60 61  1  0
 62 70  1  0
 63 68  1  0
 64 65  1  0
 64 63  1  0
 66 65  1  0
 66 75  1  0
 66 67  1  0
 68 62  1  0
 68 67  1  0
 69 62  2  0
 70 61  1  0
 70 71  1  0
 72 73  2  0
 73 92  1  0
 74 77  1  0
 74 73  1  0
 75 76  1  0
 75 72  1  0
 76 74  2  0
 77 78  1  0
 78 79  2  0
 80 83  1  0
 80 79  1  0
 81 80  2  0
 82 81  1  0
 82 77  2  0
 83 84  1  0
 84 85  1  0
 85 86  2  0
 87 86  1  0
 87 91  1  0
 88 87  2  0
 89 84  2  0
 89 88  1  0
 90 89  1  0
 92 93  1  0
 93 96  1  0
 93 95  1  0
 94 92  2  0
 97 72  1  0
 97 98  1  0
 99 97  1  0
M  ISO  4  14 101  15 101  62 100  70 100
M  END
>  <TORSDO>  (69) 
F 25

>  <SCORE>  (69) 
-10.067

>  <name>  (69) 
68

>  <ligand_id>  (69) 
68

>  <original_smiles>  (69) 
[H]c1c([H])c([H])c2c(c1[H])C([H])([H])C([H])([H])C([H])([H])C2([H])N([H])C(=O)C1([H])N(C(=O)C([H])(N([H])C(=O)C([H])(N([H])C([H])([H])[H])C([H])([H])[H])C(C([H])([H])[H])(C([H])([H])[H])C([H])([H])[H])C([H])([H])c2c([H])c(OC([H])([H])C([H])([H])C([H])([H])C(=O)N([H])c3c([H])c(C([H])([H])[H])c(OC([H])([H])C([H])([H])C([H])([H])N([H])C(=O)N4C([H])([H])C([H])([H])C([H])([H])C([H])(n5nc(-c6c([H])c([H])c(Oc7c([H])c([H])c(F)c([H])c7F)c([H])c6[H])c(C(=O)N([H])[H])c5N([H])[H])C4([H])[H])c(C([H])([H])C([H])([H])[H])c3[H])c([H])c([H])c2C1([H])[H]

>  <smiles>  (69) 
[H]c1c([H])c([H])c2c(c1[H])C([H])([H])C([H])([H])C([H])([H])C2([H])N([H])C(=O)C1([H])N(C(=O)C([H])(N([H])C(=O)C([H])(N([H])C([H])([H])[H])C([H])([H])[H])C(C([H])([H])[H])(C([H])([H])[H])C([H])([H])[H])C([H])([H])c2c([H])c(OC([H])([H])C([H])([H])C([H])([H])C(=O)N([H])c3c([H])c(C([H])([H])[H])c(OC([H])([H])C([H])([H])C([H])([H])N([H])C(=O)N4C([H])([H])C([H])([H])C([H])([H])C([H])(n5nc(-c6c([H])c([H])c(Oc7c([H])c([H])c(F)c([H])c7F)c([H])c6[H])c(C(=O)N([H])[H])c5N([H])[H])C4([H])[H])c(C([H])([H])C([H])([H])[H])c3[H])c([H])c([H])c2C1([H])[H]

$$$$
69:0:0
     RDKit          3D

 95103  0  0  1  0  0  0  0  0999 V2000
  -31.4310  -21.2150   21.4000 C   0  0  0  0  0  3  0  0  0  0  0  0
  -31.1600  -22.6010   21.3850 C   0  0  0  0  0  3  0  0  0  0  0  0
  -29.8230  -20.8790   19.6030 C   0  0  0  0  0  3  0  0  0  0  0  0
  -30.7720  -20.3440   20.5020 C   0  0  0  0  0  0  0  0  0  0  0  0
  -30.2450  -23.1450   20.4520 C   0  0  0  0  0  0  0  0  0  0  0  0
  -29.5770  -22.2690   19.5650 C   0  0  0  0  0  0  0  0  0  0  0  0
  -28.4580  -22.8980   18.4080 Cl  0  0  0  0  0  0  0  0  0  0  0  0
  -30.5430  -18.0460   21.2560 C   0  0  0  0  0  0  0  0  0  0  0  0
  -31.1450  -18.9630   20.4450 N   0  0  0  0  0  0  0  0  0  0  0  0
  -29.4800  -18.2840   21.8370 O   0  0  0  0  0  0  0  0  0  0  0  0
  -31.1950  -16.6650   21.5050 C   0  0  0  0  0  2  0  0  0  0  0  0
  -30.2500  -15.4460   21.2720 C   0  0  0  0  0  2  0  0  0  0  0  0
  -30.7160  -14.4190   20.2150 C   0  0  0  0  0  0  0  0  0  0  0  0
  -30.2910  -12.3460   18.9220 C   0  0  0  0  0  2  0  0  0  0  0  0
  -29.2860  -12.5890   17.7810 C   0  0  0  0  0  2  0  0  0  0  0  0
  -27.8370  -12.4530   18.2880 C   0  0  0  0  0  2  0  0  0  0  0  0
  -27.5800  -13.2700   19.5800 C   0  0  0  0  0  3  0  0  0  0  0  0
  -28.6820  -12.9960   20.6270 C   0  0  0  0  0  2  0  0  0  0  0  0
  -29.9860  -13.2880   20.0110 N   0  0  0  0  0  0  0  0  0  0  0  0
  -31.7330  -14.6590   19.5600 O   0  0  0  0  0  0  0  0  0  0  0  0
  -25.2190  -13.9030   20.3950 C   0  0  0  0  0  0  0  0  0  0  0  0
  -24.1580  -13.1400   20.8050 C   0  0  0  0  0  0  0  0  0  0  0  0
  -24.6010  -11.7840   20.7460 C   0  0  0  0  0  0  0  0  0  0  0  0
  -26.2430  -13.0110   20.1150 N   0  0  0  0  0  0  0  0  0  0  0  0
  -25.8760  -11.7320   20.3820 N   0  0  0  0  0  0  0  0  0  0  0  0
  -23.8690  -10.5290   20.9630 C   0  0  0  0  0  0  0  0  0  0  0  0
  -24.3280   -9.5560   21.8770 C   0  0  0  0  0  3  0  0  0  0  0  0
  -23.5980   -8.3640   22.0800 C   0  0  0  0  0  3  0  0  0  0  0  0
  -22.3950   -8.1380   21.3680 C   0  0  0  0  0  0  0  0  0  0  0  0
  -21.9560   -9.1000   20.4420 C   0  0  0  0  0  3  0  0  0  0  0  0
  -22.6860  -10.2830   20.2380 C   0  0  0  0  0  3  0  0  0  0  0  0
  -21.6350   -7.0000   21.4820 O   0  0  0  0  0  0  0  0  0  0  0  0
  -21.6150   -6.2600   22.6370 C   0  0  0  0  0  0  0  0  0  0  0  0
  -21.2350   -6.8220   23.8760 C   0  0  0  0  0  3  0  0  0  0  0  0
  -21.1610   -6.0100   25.0250 C   0  0  0  0  0  3  0  0  0  0  0  0
  -21.4560   -4.6360   24.9370 C   0  0  0  0  0  0  0  0  0  0  0  0
  -21.8280   -4.0740   23.7030 C   0  0  0  0  0  3  0  0  0  0  0  0
  -21.9050   -4.8830   22.5560 C   0  0  0  0  0  0  0  0  0  0  0  0
  -22.2430   -4.3320   21.3650 F   0  0  0  0  0  0  0  0  0  0  0  0
  -21.3770   -3.8530   26.0380 F   0  0  0  0  0  0  0  0  0  0  0  0
  -22.7790  -13.6310   21.1430 C   0  0  0  0  0  0  0  0  0  0  0  0
  -22.0830  -12.9350   22.0360 N   0  0  0  0  0  0  0  0  0  0  0  0
  -22.3300  -14.6630   20.6500 O   0  0  0  0  0  0  0  0  0  0  0  0
  -22.4610  -12.1000   22.4580 H   0  0  0  0  0  0  0  0  0  0  0  0
  -21.1590  -13.2440   22.3020 H   0  0  0  0  0  0  0  0  0  0  0  0
  -25.3910  -15.2710   20.2180 N   0  0  0  0  0  0  0  0  0  0  0  0
  -24.6430  -15.9380   20.3680 H   0  0  0  0  0  0  0  0  0  0  0  0
  -26.2390  -15.7000   19.8680 H   0  0  0  0  0  0  0  0  0  0  0  0
  -32.2360  -18.5650   19.5340 C   0  0  0  0  0  2  0  0  0  0  0  0
  -33.5980  -19.0000   17.4210 C   0  0  0  0  0  1  0  0  0  0  0  0
  -32.5560  -19.5580   18.3970 C   0  0  0  0  0  2  0  0  0  0  0  0
  -30.0300  -24.5030   20.3320 O   0  0  0  0  0  0  0  0  0  0  0  0
  -29.7570  -25.2300   21.5320 C   0  0  0  0  0  2  0  0  0  0  0  0
  -29.3670  -26.6900   21.2030 C   0  0  0  0  0  2  0  0  0  0  0  0
  -28.3950  -26.6760   20.1590 O   0  0  0  0  0  0  0  0  0  0  0  0
  -24.5500  -31.8930   23.2510 C   0  0  0  0  0  0  0  0  0  0  0  0
  -27.2720  -27.4680   20.2330 C   0  0  0  0  0  0  0  0  0  0  0  0
  -23.3770  -30.4840   21.5880 C   0  0  0  0  0  3  0  0  0  0  0  0
  -24.8640  -28.9500   20.1970 C   0  0  0  0  0  0  0  0  0  0  0  0
  -25.9020  -30.8570   21.4340 C   0  0  0  0  0  2  0  0  0  0  0  0
  -26.0060  -29.4820   20.8090 C   0  0  0  0  0  0  0  0  0  0  0  0
  -27.2140  -28.7480   20.8340 C   0  0  0  0  0  3  0  0  0  0  0  0
  -26.1160  -26.9530   19.6140 C   0  0  0  0  0  3  0  0  0  0  0  0
  -24.9110  -27.6800   19.5970 C   0  0  0  0  0  3  0  0  0  0  0  0
  -23.6130  -29.8020   20.2150 C   0  0  0  0  0  2  0  0  0  0  0  0
  -24.6260  -31.0920   22.1510 N   0  0  0  0  0  0  0  0  0  0  0  0
  -23.4580  -32.1630   23.7720 O   0  0  0  0  0  0  0  0  0  0  0  0
  -22.7120  -29.4620   22.5390 C   0  0  0  0  0  0  0  0  0  0  0  0
  -21.3920  -29.2710   22.3830 N   0  0  0  0  0  0  0  0  0  0  0  0
  -23.3820  -28.8430   23.3700 O   0  0  0  0  0  0  0  0  0  0  0  0
  -20.9140  -29.8220   21.6830 H   0  0  0  0  0  0  0  0  0  0  0  0
  -18.0150  -28.0600   22.8020 C   0  0  0  0  0  0  0  0  0  0  0  0
  -20.5630  -28.3330   23.1380 C   0  0  0  0  0  3  0  0  0  0  0  0
  -20.6890  -26.9000   22.5700 C   0  0  0  0  0  2  0  0  0  0  0  0
  -19.6140  -26.5670   21.5300 C   0  0  0  0  0  2  0  0  0  0  0  0
  -18.2150  -26.7090   22.1360 C   0  0  0  0  0  2  0  0  0  0  0  0
  -19.1180  -28.8300   23.2570 C   0  0  0  0  0  0  0  0  0  0  0  0
  -18.8780  -30.0950   23.8360 C   0  0  0  0  0  3  0  0  0  0  0  0
  -17.5670  -30.5900   23.9660 C   0  0  0  0  0  3  0  0  0  0  0  0
  -16.4770  -29.8170   23.5280 C   0  0  0  0  0  3  0  0  0  0  0  0
  -16.7030  -28.5540   22.9520 C   0  0  0  0  0  3  0  0  0  0  0  0
  -25.8240  -32.5250   23.8930 C   0  0  0  0  0  3  0  0  0  0  0  0
  -25.5100  -33.9240   24.2120 N   0  0  0  0  0  0  0  0  0  0  0  0
  -25.8520  -34.9710   23.4510 C   0  0  0  0  0  0  0  0  0  0  0  0
  -26.5380  -34.8630   22.4310 O   0  0  0  0  0  0  0  0  0  0  0  0
  -24.9050  -34.0820   25.0050 H   0  0  0  0  0  0  0  0  0  0  0  0
  -24.1220  -36.7540   23.0630 C   0  0  0  0  0  1  0  0  0  0  0  0
  -25.3560  -36.3610   23.8920 C   0  0  0  0  0  3  0  0  0  0  0  0
  -27.4780  -37.2570   24.7380 C   0  0  0  0  0  1  0  0  0  0  0  0
  -26.3850  -37.4160   23.7830 N   0  0  0  0  0  0  0  0  0  0  0  0
  -25.9750  -38.3360   23.9200 H   0  0  0  0  0  0  0  0  0  0  0  0
  -26.3210  -31.7560   25.1780 C   0  0  1  0  0  0  0  0  0  0  0  0
  -25.2100  -31.5170   26.2270 C   0  0  0  0  0  1  0  0  0  0  0  0
  -26.9140  -30.3800   24.7950 C   0  0  0  0  0  1  0  0  0  0  0  0
  -27.4590  -32.5520   25.8580 C   0  0  0  0  0  1  0  0  0  0  0  0
  2  1  1  0
  3  4  1  0
  4  1  2  0
  5  2  2  0
  6  3  2  0
  6  5  1  0
  7  6  1  0
  8 11  1  0
  8 10  2  0
  9  4  1  0
  9  8  1  0
 12 11  1  0
 13 12  1  0
 14 19  1  0
 15 16  1  0
 15 14  1  0
 17 16  1  0
 17 24  1  0
 17 18  1  0
 19 13  1  0
 19 18  1  0
 20 13  2  0
 21 22  2  0
 22 41  1  0
 23 22  1  0
 23 26  1  0
 24 25  1  0
 24 21  1  0
 25 23  2  0
 26 27  1  0
 27 28  2  0
 29 32  1  0
 29 28  1  0
 30 29  2  0
 31 30  1  0
 31 26  2  0
 32 33  1  0
 33 34  1  0
 34 35  2  0
 36 35  1  0
 36 40  1  0
 37 36  2  0
 38 33  2  0
 38 37  1  0
 39 38  1  0
 41 42  1  0
 42 45  1  0
 42 44  1  0
 43 41  2  0
 46 47  1  0
 46 21  1  0
 48 46  1  0
 49  9  1  0
 50 51  1  0
 51 49  1  0
 52  5  1  0
 52 53  1  0
 54 53  1  0
 55 57  1  0
 55 54  1  0
 56 67  2  0
 57 62  1  0
 58 66  1  0
 58 68  1  0
 59 65  1  0
 59 61  1  0
 60 66  1  0
 61 62  2  0
 61 60  1  0
 63 57  2  0
 64 63  1  0
 64 59  2  0
 65 58  1  0
 66 56  1  0
 68 70  2  0
 69 68  1  0
 71 69  1  0
 72 81  2  0
 72 77  1  0
 73 69  1  0
 73 77  1  0
 74 73  1  0
 75 76  1  0
 75 74  1  0
 76 72  1  0
 77 78  2  0
 78 79  1  0
 80 79  2  0
 81 80  1  0
 82 56  1  0
 82 83  1  0
 82 92  1  0
 83 86  1  0
 84 88  1  0
 84 83  1  0
 85 84  2  0
 88 87  1  0
 90 88  1  0
 90 91  1  0
 90 89  1  0
 92 95  1  1
 92 93  1  0
 94 92  1  0
M  ISO  4  12 100  13 100  54 101  55 101
M  END
>  <TORSDO>  (70) 
F 24

>  <SCORE>  (70) 
-12.308

>  <name>  (70) 
69

>  <ligand_id>  (70) 
69

>  <original_smiles>  (70) 
[H]c1c([H])c([H])c2c(c1[H])C([H])([H])C([H])([H])C([H])([H])C2([H])N([H])C(=O)C1([H])N(C(=O)C([H])(N([H])C(=O)C([H])(N([H])C([H])([H])[H])C([H])([H])[H])C(C([H])([H])[H])(C([H])([H])[H])C([H])([H])[H])C([H])([H])c2c([H])c(OC([H])([H])C([H])([H])Oc3c([H])c([H])c(N(C(=O)C([H])([H])C([H])([H])C(=O)N4C([H])([H])C([H])([H])C([H])([H])C([H])(n5nc(-c6c([H])c([H])c(Oc7c([H])c([H])c(F)c([H])c7F)c([H])c6[H])c(C(=O)N([H])[H])c5N([H])[H])C4([H])[H])C([H])([H])C([H])([H])C([H])([H])[H])c([H])c3Cl)c([H])c([H])c2C1([H])[H]

>  <smiles>  (70) 
[H]c1c([H])c([H])c2c(c1[H])C([H])([H])C([H])([H])C([H])([H])C2([H])N([H])C(=O)C1([H])N(C(=O)C([H])(N([H])C(=O)C([H])(N([H])C([H])([H])[H])C([H])([H])[H])C(C([H])([H])[H])(C([H])([H])[H])C([H])([H])[H])C([H])([H])c2c([H])c(OC([H])([H])C([H])([H])Oc3c([H])c([H])c(N(C(=O)C([H])([H])C([H])([H])C(=O)N4C([H])([H])C([H])([H])C([H])([H])C([H])(n5nc(-c6c([H])c([H])c(Oc7c([H])c([H])c(F)c([H])c7F)c([H])c6[H])c(C(=O)N([H])[H])c5N([H])[H])C4([H])[H])C([H])([H])C([H])([H])C([H])([H])[H])c([H])c3Cl)c([H])c([H])c2C1([H])[H]

$$$$
70:0:0
     RDKit          3D

 90 98  0  0  1  0  0  0  0  0999 V2000
  -28.2710  -19.5860   20.4890 C   0  0  0  0  0  3  0  0  0  0  0  0
  -30.3190  -20.0590   19.4470 C   0  0  0  0  0  3  0  0  0  0  0  0
  -28.5690  -18.1730   20.4990 C   0  0  0  0  0  0  0  0  0  0  0  0
  -30.6370  -18.6230   19.4270 C   0  0  0  0  0  0  0  0  0  0  0  0
  -29.7630  -17.5890   19.9480 C   0  0  0  0  0  0  0  0  0  0  0  0
  -29.1000  -20.6220   19.9660 C   0  0  0  0  0  0  0  0  0  0  0  0
  -27.5190  -17.2910   21.1620 C   0  0  0  0  0  1  0  0  0  0  0  0
  -31.9520  -18.2130   18.7940 C   0  0  0  0  0  1  0  0  0  0  0  0
  -30.6910  -14.9830   19.5000 C   0  0  0  0  0  0  0  0  0  0  0  0
  -30.4740  -12.6730   18.4830 C   0  0  0  0  0  2  0  0  0  0  0  0
  -29.3650  -12.6890   17.4030 C   0  0  0  0  0  2  0  0  0  0  0  0
  -27.9770  -12.4560   18.0310 C   0  0  0  0  0  2  0  0  0  0  0  0
  -27.7490  -13.3230   19.2960 C   0  0  0  0  0  3  0  0  0  0  0  0
  -28.9560  -13.2600   20.2570 C   0  0  0  0  0  2  0  0  0  0  0  0
  -30.1380  -13.7050   19.5010 N   0  0  0  0  0  0  0  0  0  0  0  0
  -31.8160  -15.1230   19.0060 O   0  0  0  0  0  0  0  0  0  0  0  0
  -29.8760  -16.0550   19.9330 N   0  0  0  0  0  0  0  0  0  0  0  0
  -29.0580  -15.6460   20.3560 H   0  0  0  0  0  0  0  0  0  0  0  0
  -25.5140  -13.8650   20.4270 C   0  0  0  0  0  0  0  0  0  0  0  0
  -24.5040  -13.0740   20.8990 C   0  0  0  0  0  0  0  0  0  0  0  0
  -24.9260  -11.7260   20.6830 C   0  0  0  0  0  0  0  0  0  0  0  0
  -26.4910  -13.0010   19.9630 N   0  0  0  0  0  0  0  0  0  0  0  0
  -26.1530  -11.7020   20.1750 N   0  0  0  0  0  0  0  0  0  0  0  0
  -24.2050  -10.4610   20.8720 C   0  0  0  0  0  0  0  0  0  0  0  0
  -24.6540   -9.4830   21.7870 C   0  0  0  0  0  3  0  0  0  0  0  0
  -23.9300   -8.2840   21.9660 C   0  0  0  0  0  3  0  0  0  0  0  0
  -22.7440   -8.0540   21.2300 C   0  0  0  0  0  0  0  0  0  0  0  0
  -22.3140   -9.0200   20.3030 C   0  0  0  0  0  3  0  0  0  0  0  0
  -23.0380  -10.2110   20.1220 C   0  0  0  0  0  3  0  0  0  0  0  0
  -21.9920   -6.9070   21.3190 O   0  0  0  0  0  0  0  0  0  0  0  0
  -21.8230   -6.2490   22.5120 C   0  0  0  0  0  0  0  0  0  0  0  0
  -21.2300   -6.8730   23.6310 C   0  0  0  0  0  3  0  0  0  0  0  0
  -21.0130   -6.1390   24.8130 C   0  0  0  0  0  3  0  0  0  0  0  0
  -21.3780   -4.7800   24.8770 C   0  0  0  0  0  0  0  0  0  0  0  0
  -21.9640   -4.1560   23.7620 C   0  0  0  0  0  3  0  0  0  0  0  0
  -22.1830   -4.8880   22.5820 C   0  0  0  0  0  0  0  0  0  0  0  0
  -22.7280   -4.2760   21.5040 F   0  0  0  0  0  0  0  0  0  0  0  0
  -21.1620   -4.0730   26.0100 F   0  0  0  0  0  0  0  0  0  0  0  0
  -23.1780  -13.5430   21.4220 C   0  0  0  0  0  0  0  0  0  0  0  0
  -22.5820  -12.7930   22.3430 N   0  0  0  0  0  0  0  0  0  0  0  0
  -22.6850  -14.6070   21.0500 O   0  0  0  0  0  0  0  0  0  0  0  0
  -22.9980  -11.9310   22.6640 H   0  0  0  0  0  0  0  0  0  0  0  0
  -21.6980  -13.0880   22.7350 H   0  0  0  0  0  0  0  0  0  0  0  0
  -25.6670  -15.2430   20.3240 N   0  0  0  0  0  0  0  0  0  0  0  0
  -24.8990  -15.8660   20.5480 H   0  0  0  0  0  0  0  0  0  0  0  0
  -26.3900  -15.6930   19.7790 H   0  0  0  0  0  0  0  0  0  0  0  0
  -28.5640  -21.9840   19.9810 O   0  0  0  0  0  0  0  0  0  0  0  0
  -29.1670  -23.3750   19.7680 C   0  0  0  0  0  3  0  0  0  0  0  0
  -28.1510  -24.7030   19.5720 C   0  0  0  0  0  3  0  0  0  0  0  0
  -28.4280  -26.2260   19.7140 O   0  0  0  0  0  0  0  0  0  0  0  0
  -24.6950  -31.6620   22.9960 C   0  0  0  0  0  0  0  0  0  0  0  0
  -27.3470  -27.1800   19.7080 C   0  0  0  0  0  0  0  0  0  0  0  0
  -23.5120  -30.3350   21.2890 C   0  0  0  0  0  3  0  0  0  0  0  0
  -24.9830  -28.8700   19.7780 C   0  0  0  0  0  0  0  0  0  0  0  0
  -26.0600  -30.6600   21.1300 C   0  0  0  0  0  2  0  0  0  0  0  0
  -26.1560  -29.3080   20.4040 C   0  0  0  0  0  0  0  0  0  0  0  0
  -27.3400  -28.4810   20.3530 C   0  0  0  0  0  3  0  0  0  0  0  0
  -26.1400  -26.8420   19.0520 C   0  0  0  0  0  3  0  0  0  0  0  0
  -24.9860  -27.6510   19.0880 C   0  0  0  0  0  3  0  0  0  0  0  0
  -23.7390  -29.7400   19.8750 C   0  0  0  0  0  2  0  0  0  0  0  0
  -24.7760  -30.9040   21.8600 N   0  0  0  0  0  0  0  0  0  0  0  0
  -23.6060  -31.8980   23.5430 O   0  0  0  0  0  0  0  0  0  0  0  0
  -22.8570  -29.2640   22.1960 C   0  0  0  0  0  0  0  0  0  0  0  0
  -21.5310  -29.0830   22.0720 N   0  0  0  0  0  0  0  0  0  0  0  0
  -23.5440  -28.6010   22.9770 O   0  0  0  0  0  0  0  0  0  0  0  0
  -21.0310  -29.6730   21.4220 H   0  0  0  0  0  0  0  0  0  0  0  0
  -18.1600  -27.8610   22.5880 C   0  0  0  0  0  0  0  0  0  0  0  0
  -20.7270  -28.0940   22.7970 C   0  0  0  0  0  3  0  0  0  0  0  0
  -20.8020  -26.7070   22.1160 C   0  0  0  0  0  2  0  0  0  0  0  0
  -19.6690  -26.4640   21.1140 C   0  0  0  0  0  2  0  0  0  0  0  0
  -18.3080  -26.5650   21.8090 C   0  0  0  0  0  2  0  0  0  0  0  0
  -19.2940  -28.5860   23.0390 C   0  0  0  0  0  0  0  0  0  0  0  0
  -19.0990  -29.8010   23.7310 C   0  0  0  0  0  3  0  0  0  0  0  0
  -17.8020  -30.2910   23.9750 C   0  0  0  0  0  3  0  0  0  0  0  0
  -16.6820  -29.5610   23.5380 C   0  0  0  0  0  3  0  0  0  0  0  0
  -16.8620  -28.3480   22.8510 C   0  0  0  0  0  3  0  0  0  0  0  0
  -25.9640  -32.2860   23.6510 C   0  0  0  0  0  3  0  0  0  0  0  0
  -26.4940  -31.4590   24.8870 C   0  0  1  0  0  0  0  0  0  0  0  0
  -25.4010  -31.1250   25.9290 C   0  0  0  0  0  1  0  0  0  0  0  0
  -27.1250  -30.1240   24.4260 C   0  0  0  0  0  1  0  0  0  0  0  0
  -27.6130  -32.2480   25.6050 C   0  0  0  0  0  1  0  0  0  0  0  0
  -25.6270  -33.6590   24.0610 N   0  0  0  0  0  0  0  0  0  0  0  0
  -25.9080  -34.7590   23.3500 C   0  0  0  0  0  0  0  0  0  0  0  0
  -26.5450  -34.7250   22.2930 O   0  0  0  0  0  0  0  0  0  0  0  0
  -25.0560  -33.7550   24.8870 H   0  0  0  0  0  0  0  0  0  0  0  0
  -24.1150  -36.5150   23.1640 C   0  0  0  0  0  1  0  0  0  0  0  0
  -25.4050  -36.1090   23.8960 C   0  0  0  0  0  3  0  0  0  0  0  0
  -27.5420  -37.0300   24.6790 C   0  0  0  0  0  1  0  0  0  0  0  0
  -26.4000  -37.1990   23.7850 N   0  0  0  0  0  0  0  0  0  0  0  0
  -25.9730  -38.0990   23.9830 H   0  0  0  0  0  0  0  0  0  0  0  0
  1  3  1  0
  2  6  1  0
  3  7  1  0
  4  2  2  0
  4  5  1  0
  5  3  2  0
  6 47  1  0
  6  1  2  0
  8  4  1  0
  9 15  1  0
  9 17  1  0
 10 15  1  0
 11 12  1  0
 11 10  1  0
 13 12  1  0
 13 22  1  0
 13 14  1  0
 15 14  1  0
 16  9  2  0
 17  5  1  0
 17 18  1  0
 19 20  2  0
 20 39  1  0
 21 24  1  0
 21 20  1  0
 22 23  1  0
 22 19  1  0
 23 21  2  0
 24 25  1  0
 25 26  2  0
 27 30  1  0
 27 26  1  0
 28 27  2  0
 29 28  1  0
 29 24  2  0
 30 31  1  0
 31 36  2  0
 31 32  1  0
 32 33  2  0
 33 34  1  0
 34 38  1  0
 35 34  2  0
 36 35  1  0
 37 36  1  0
 39 40  1  0
 40 42  1  0
 40 43  1  0
 41 39  2  0
 44 19  1  0
 44 45  1  0
 46 44  1  0
 48 47  1  0
 49 50  1  0
 49 48  2  0
 51 62  2  0
 52 50  1  0
 52 57  1  0
 53 61  1  0
 53 63  1  0
 54 60  1  0
 54 56  1  0
 55 61  1  0
 56 55  1  0
 57 56  2  0
 58 59  1  0
 58 52  2  0
 59 54  2  0
 60 53  1  0
 61 51  1  0
 63 65  2  0
 64 63  1  0
 66 64  1  0
 67 76  2  0
 67 72  1  0
 68 64  1  0
 68 72  1  0
 69 68  1  0
 70 71  1  0
 70 69  1  0
 71 67  1  0
 72 73  2  0
 73 74  1  0
 75 74  2  0
 76 75  1  0
 77 51  1  0
 77 82  1  0
 77 78  1  0
 78 81  1  1
 78 79  1  0
 80 78  1  0
 82 85  1  0
 83 87  1  0
 83 82  1  0
 84 83  2  0
 87 86  1  0
 89 87  1  0
 89 90  1  0
 89 88  1  0
M  ISO  4   9 100  17 100  49 101  50 101
M  END
>  <TORSDO>  (71) 
F 19

>  <SCORE>  (71) 
-11.565

>  <name>  (71) 
70

>  <ligand_id>  (71) 
70

>  <original_smiles>  (71) 
[H]c1c([H])c([H])c2c(c1[H])C([H])([H])C([H])([H])C([H])([H])C2([H])N([H])C(=O)C1([H])N(C(=O)C([H])(N([H])C(=O)C([H])(N([H])C([H])([H])[H])C([H])([H])[H])C(C([H])([H])[H])(C([H])([H])[H])C([H])([H])[H])C([H])([H])c2c([H])c(OC([H])([H])C([H])([H])Oc3c([H])c(C([H])([H])[H])c(N([H])C(=O)N4C([H])([H])C([H])([H])C([H])([H])C([H])(n5nc(-c6c([H])c([H])c(Oc7c([H])c([H])c(F)c([H])c7F)c([H])c6[H])c(C(=O)N([H])[H])c5N([H])[H])C4([H])[H])c(C([H])([H])[H])c3[H])c([H])c([H])c2C1([H])[H]

>  <smiles>  (71) 
[H]c1c([H])c([H])c2c(c1[H])C([H])([H])C([H])([H])C([H])([H])C2([H])N([H])C(=O)C1([H])N(C(=O)C([H])(N([H])C(=O)C([H])(N([H])C([H])([H])[H])C([H])([H])[H])C(C([H])([H])[H])(C([H])([H])[H])C([H])([H])[H])C([H])([H])c2c([H])c(OC([H])([H])C([H])([H])Oc3c([H])c(C([H])([H])[H])c(N([H])C(=O)N4C([H])([H])C([H])([H])C([H])([H])C([H])(n5nc(-c6c([H])c([H])c(Oc7c([H])c([H])c(F)c([H])c7F)c([H])c6[H])c(C(=O)N([H])[H])c5N([H])[H])C4([H])[H])c(C([H])([H])[H])c3[H])c([H])c([H])c2C1([H])[H]

$$$$
71:0:0
     RDKit          3D

 98105  0  0  1  0  0  0  0  0999 V2000
  -27.7180  -20.4770   19.0320 C   0  0  0  0  0  2  0  0  0  0  0  0
  -26.9630  -19.5650   20.0130 C   0  0  0  0  0  2  0  0  0  0  0  0
  -27.2760  -18.0690   19.8440 C   0  0  0  0  0  2  0  0  0  0  0  0
  -29.1870  -16.5900   20.3060 C   0  0  0  0  0  0  0  0  0  0  0  0
  -28.7090  -17.7590   19.8620 N   0  0  0  0  0  0  0  0  0  0  0  0
  -28.4380  -15.7070   20.7310 O   0  0  0  0  0  0  0  0  0  0  0  0
  -29.3600  -18.4460   19.5070 H   0  0  0  0  0  0  0  0  0  0  0  0
  -30.7070  -16.3310   20.2810 C   0  0  0  0  0  3  0  0  0  0  0  0
  -31.2970  -13.9300   19.7830 C   0  0  0  0  0  0  0  0  0  0  0  0
  -31.0430  -11.5180   19.3120 C   0  0  0  0  0  2  0  0  0  0  0  0
  -30.0750  -11.2830   18.1330 C   0  0  0  0  0  2  0  0  0  0  0  0
  -28.6050  -11.2760   18.5980 C   0  0  0  0  0  2  0  0  0  0  0  0
  -28.2580  -12.4910   19.4980 C   0  0  0  0  0  3  0  0  0  0  0  0
  -29.3150  -12.6210   20.6150 C   0  0  0  0  0  2  0  0  0  0  0  0
  -30.6520  -12.7550   19.9940 N   0  0  0  0  0  0  0  0  0  0  0  0
  -32.2440  -14.0780   19.0040 O   0  0  0  0  0  0  0  0  0  0  0  0
  -30.8340  -14.9090   20.5610 N   0  0  0  0  0  0  0  0  0  0  0  0
  -30.1140  -14.5860   21.1880 H   0  0  0  0  0  0  0  0  0  0  0  0
  -25.9870  -13.3870   20.3310 C   0  0  0  0  0  0  0  0  0  0  0  0
  -24.8490  -12.7490   20.7490 C   0  0  0  0  0  0  0  0  0  0  0  0
  -25.1400  -11.3530   20.6940 C   0  0  0  0  0  0  0  0  0  0  0  0
  -26.9060  -12.3860   20.0470 N   0  0  0  0  0  0  0  0  0  0  0  0
  -26.3980  -11.1560   20.3160 N   0  0  0  0  0  0  0  0  0  0  0  0
  -24.2780  -10.1880   20.9290 C   0  0  0  0  0  0  0  0  0  0  0  0
  -24.6330   -9.1800   21.8530 C   0  0  0  0  0  3  0  0  0  0  0  0
  -23.7790   -8.0760   22.0720 C   0  0  0  0  0  3  0  0  0  0  0  0
  -22.5560   -7.9750   21.3680 C   0  0  0  0  0  0  0  0  0  0  0  0
  -22.2180   -8.9710   20.4350 C   0  0  0  0  0  3  0  0  0  0  0  0
  -23.0700  -10.0650   20.2150 C   0  0  0  0  0  3  0  0  0  0  0  0
  -21.6770   -6.9260   21.4950 O   0  0  0  0  0  0  0  0  0  0  0  0
  -21.5870   -6.1990   22.6540 C   0  0  0  0  0  0  0  0  0  0  0  0
  -21.2510   -6.8000   23.8870 C   0  0  0  0  0  3  0  0  0  0  0  0
  -21.1030   -6.0050   25.0410 C   0  0  0  0  0  3  0  0  0  0  0  0
  -21.2800   -4.6110   24.9620 C   0  0  0  0  0  0  0  0  0  0  0  0
  -21.6100   -4.0100   23.7350 C   0  0  0  0  0  3  0  0  0  0  0  0
  -21.7610   -4.8020   22.5850 C   0  0  0  0  0  0  0  0  0  0  0  0
  -22.0580   -4.2160   21.4000 F   0  0  0  0  0  0  0  0  0  0  0  0
  -21.1320   -3.8470   26.0690 F   0  0  0  0  0  0  0  0  0  0  0  0
  -23.5400  -13.3940   21.1030 C   0  0  0  0  0  0  0  0  0  0  0  0
  -22.7910  -12.8060   22.0320 N   0  0  0  0  0  0  0  0  0  0  0  0
  -23.1950  -14.4590   20.5930 O   0  0  0  0  0  0  0  0  0  0  0  0
  -23.0690  -11.9370   22.4620 H   0  0  0  0  0  0  0  0  0  0  0  0
  -21.9260  -13.2420   22.3180 H   0  0  0  0  0  0  0  0  0  0  0  0
  -26.3130  -14.7270   20.1650 N   0  0  0  0  0  0  0  0  0  0  0  0
  -25.6500  -15.3920   20.5450 H   0  0  0  0  0  0  0  0  0  0  0  0
  -27.2720  -14.9710   20.4050 H   0  0  0  0  0  0  0  0  0  0  0  0
  -31.4120  -17.0660   21.4600 C   0  0  0  0  0  2  0  0  0  0  0  0
  -31.7920  -19.3900   20.4730 C   0  0  0  0  0  1  0  0  0  0  0  0
  -31.6730  -19.0800   22.9950 C   0  0  0  0  0  1  0  0  0  0  0  0
  -31.1700  -18.5850   21.6240 C   0  0  0  0  0  3  0  0  0  0  0  0
  -27.0640  -21.8650   18.9060 C   0  0  0  0  0  2  0  0  0  0  0  0
  -27.8490  -22.8020   17.9790 C   0  0  0  0  0  2  0  0  0  0  0  0
  -27.0270  -24.0200   17.5360 C   0  0  0  0  0  2  0  0  0  0  0  0
  -27.8150  -24.9960   16.6430 C   0  0  0  0  0  2  0  0  0  0  0  0
  -28.4410  -26.2140   17.3580 C   0  0  0  0  0  2  0  0  0  0  0  0
  -29.4810  -25.8760   18.4410 C   0  0  0  0  0  2  0  0  0  0  0  0
  -28.9390  -25.7500   19.8770 C   0  0  0  0  0  2  0  0  0  0  0  0
  -28.7160  -27.0410   20.4390 O   0  0  0  0  0  0  0  0  0  0  0  0
  -24.6860  -32.0540   23.3970 C   0  0  0  0  0  0  0  0  0  0  0  0
  -27.4820  -27.6560   20.3960 C   0  0  0  0  0  0  0  0  0  0  0  0
  -23.5310  -30.6010   21.7570 C   0  0  0  0  0  3  0  0  0  0  0  0
  -25.0390  -29.0850   20.3660 C   0  0  0  0  0  0  0  0  0  0  0  0
  -26.0460  -31.0230   21.5830 C   0  0  0  0  0  2  0  0  0  0  0  0
  -26.1710  -29.6490   20.9640 C   0  0  0  0  0  0  0  0  0  0  0  0
  -27.3910  -28.9410   20.9750 C   0  0  0  0  0  3  0  0  0  0  0  0
  -26.3250  -27.0950   19.8100 C   0  0  0  0  0  3  0  0  0  0  0  0
  -25.1090  -27.8050   19.7900 C   0  0  0  0  0  3  0  0  0  0  0  0
  -23.7720  -29.9090   20.3870 C   0  0  0  0  0  2  0  0  0  0  0  0
  -24.7680  -31.2440   22.3020 N   0  0  0  0  0  0  0  0  0  0  0  0
  -23.5960  -32.3040   23.9280 O   0  0  0  0  0  0  0  0  0  0  0  0
  -22.8940  -29.5790   22.7260 C   0  0  0  0  0  0  0  0  0  0  0  0
  -21.5930  -29.3010   22.5360 N   0  0  0  0  0  0  0  0  0  0  0  0
  -23.5710  -29.0350   23.6020 O   0  0  0  0  0  0  0  0  0  0  0  0
  -21.1070  -29.7930   21.8010 H   0  0  0  0  0  0  0  0  0  0  0  0
  -18.3150  -27.8240   22.8360 C   0  0  0  0  0  0  0  0  0  0  0  0
  -20.8000  -28.3400   23.3010 C   0  0  0  0  0  3  0  0  0  0  0  0
  -21.0780  -26.8920   22.8350 C   0  0  0  0  0  2  0  0  0  0  0  0
  -20.1070  -26.4070   21.7530 C   0  0  0  0  0  2  0  0  0  0  0  0
  -18.6670  -26.4590   22.2700 C   0  0  0  0  0  2  0  0  0  0  0  0
  -19.3150  -28.7150   23.3060 C   0  0  0  0  0  0  0  0  0  0  0  0
  -18.9320  -29.9850   23.7840 C   0  0  0  0  0  3  0  0  0  0  0  0
  -17.5780  -30.3730   23.7960 C   0  0  0  0  0  3  0  0  0  0  0  0
  -16.5900  -29.4830   23.3420 C   0  0  0  0  0  3  0  0  0  0  0  0
  -16.9580  -28.2110   22.8680 C   0  0  0  0  0  3  0  0  0  0  0  0
  -25.9530  -32.7220   24.0180 C   0  0  0  0  0  3  0  0  0  0  0  0
  -25.6260  -34.1270   24.2900 N   0  0  0  0  0  0  0  0  0  0  0  0
  -25.9440  -35.1510   23.4860 C   0  0  0  0  0  0  0  0  0  0  0  0
  -26.6170  -35.0150   22.4610 O   0  0  0  0  0  0  0  0  0  0  0  0
  -25.0360  -34.3040   25.0910 H   0  0  0  0  0  0  0  0  0  0  0  0
  -24.1760  -36.8900   23.0640 C   0  0  0  0  0  1  0  0  0  0  0  0
  -25.4320  -36.5490   23.8820 C   0  0  0  0  0  3  0  0  0  0  0  0
  -27.5550  -37.5160   24.6510 C   0  0  0  0  0  1  0  0  0  0  0  0
  -26.4420  -37.6150   23.7090 N   0  0  0  0  0  0  0  0  0  0  0  0
  -26.0190  -38.5320   23.8190 H   0  0  0  0  0  0  0  0  0  0  0  0
  -26.4590  -32.0030   25.3280 C   0  0  1  0  0  0  0  0  0  0  0  0
  -25.3450  -31.7510   26.3710 C   0  0  0  0  0  1  0  0  0  0  0  0
  -27.1000  -30.6380   24.9880 C   0  0  0  0  0  1  0  0  0  0  0  0
  -27.5610  -32.8530   26.0060 C   0  0  0  0  0  1  0  0  0  0  0  0
  1  2  1  0
  3  5  1  0
  3  2  1  0
  4  6  2  0
  5  4  1  0
  7  5  1  0
  8  4  1  0
  8 17  1  0
  8 47  1  0
  9 15  1  0
  9 17  1  0
 10 15  1  0
 11 12  1  0
 11 10  1  0
 13 12  1  0
 13 22  1  0
 13 14  1  0
 15 14  1  0
 16  9  2  0
 17 18  1  0
 19 20  2  0
 20 39  1  0
 21 20  1  0
 21 24  1  0
 22 23  1  0
 22 19  1  0
 23 21  2  0
 24 25  1  0
 25 26  2  0
 27 30  1  0
 27 26  1  0
 28 27  2  0
 29 28  1  0
 29 24  2  0
 30 31  1  0
 31 32  1  0
 32 33  2  0
 34 33  1  0
 34 38  1  0
 35 34  2  0
 36 31  2  0
 36 35  1  0
 37 36  1  0
 39 40  1  0
 40 43  1  0
 40 42  1  0
 41 39  2  0
 44 19  1  0
 44 46  1  0
 44 45  1  0
 47 50  1  0
 48 50  1  0
 50 49  1  0
 51  1  1  0
 52 51  1  0
 53 52  1  0
 54 55  1  0
 54 53  1  0
 55 56  1  0
 56 57  1  0
 57 58  1  0
 59 70  2  0
 60 58  1  0
 60 65  1  0
 61 69  1  0
 61 71  1  0
 62 68  1  0
 62 64  1  0
 63 69  1  0
 64 65  2  0
 64 63  1  0
 66 60  2  0
 67 66  1  0
 67 62  2  0
 68 61  1  0
 69 59  1  0
 71 73  2  0
 72 71  1  0
 74 72  1  0
 75 84  2  0
 75 80  1  0
 76 72  1  0
 76 80  1  0
 77 76  1  0
 78 79  1  0
 78 77  1  0
 79 75  1  0
 80 81  2  0
 81 82  1  0
 83 82  2  0
 84 83  1  0
 85 59  1  0
 85 86  1  0
 85 95  1  0
 86 89  1  0
 87 91  1  0
 87 86  1  0
 88 87  2  0
 91 90  1  0
 93 94  1  0
 93 91  1  0
 93 92  1  0
 95 98  1  1
 95 96  1  0
 97 95  1  0
M  ISO  4   9 100  17 100  57 101  58 101
M  END
>  <TORSDO>  (72) 
F 29

>  <SCORE>  (72) 
-10.163

>  <name>  (72) 
71

>  <ligand_id>  (72) 
71

>  <original_smiles>  (72) 
[H]c1c([H])c([H])c2c(c1[H])C([H])([H])C([H])([H])C([H])([H])C2([H])N([H])C(=O)C1([H])N(C(=O)C([H])(N([H])C(=O)C([H])(N([H])C([H])([H])[H])C([H])([H])[H])C(C([H])([H])[H])(C([H])([H])[H])C([H])([H])[H])C([H])([H])c2c([H])c(OC([H])([H])C([H])([H])C([H])([H])C([H])([H])C([H])([H])C([H])([H])C([H])([H])C([H])([H])C([H])([H])C([H])([H])N([H])C(=O)C([H])(N([H])C(=O)N3C([H])([H])C([H])([H])C([H])([H])C([H])(n4nc(-c5c([H])c([H])c(Oc6c([H])c([H])c(F)c([H])c6F)c([H])c5[H])c(C(=O)N([H])[H])c4N([H])[H])C3([H])[H])C([H])([H])C([H])(C([H])([H])[H])C([H])([H])[H])c([H])c([H])c2C1([H])[H]

>  <smiles>  (72) 
[H]c1c([H])c([H])c2c(c1[H])C([H])([H])C([H])([H])C([H])([H])C2([H])N([H])C(=O)C1([H])N(C(=O)C([H])(N([H])C(=O)C([H])(N([H])C([H])([H])[H])C([H])([H])[H])C(C([H])([H])[H])(C([H])([H])[H])C([H])([H])[H])C([H])([H])c2c([H])c(OC([H])([H])C([H])([H])C([H])([H])C([H])([H])C([H])([H])C([H])([H])C([H])([H])C([H])([H])C([H])([H])C([H])([H])N([H])C(=O)C([H])(N([H])C(=O)N3C([H])([H])C([H])([H])C([H])([H])C([H])(n4nc(-c5c([H])c([H])c(Oc6c([H])c([H])c(F)c([H])c6F)c([H])c5[H])c(C(=O)N([H])[H])c4N([H])[H])C3([H])[H])C([H])([H])C([H])(C([H])([H])[H])C([H])([H])[H])c([H])c([H])c2C1([H])[H]

$$$$
72:0:0
     RDKit          3D

 97105  0  0  1  0  0  0  0  0999 V2000
  -24.6170  -22.3480   18.8800 C   0  0  0  0  0  2  0  0  0  0  0  0
  -25.2780  -23.0490   20.0690 C   0  0  0  0  0  0  0  0  0  0  0  0
  -26.4940  -23.5650   19.8600 N   0  0  0  0  0  0  0  0  0  0  0  0
  -24.7070  -23.1000   21.1600 O   0  0  0  0  0  0  0  0  0  0  0  0
  -26.8870  -23.4630   18.9340 H   0  0  0  0  0  0  0  0  0  0  0  0
  -27.3390  -24.1630   20.8880 C   0  0  0  0  0  2  0  0  0  0  0  0
  -28.7150  -24.5650   20.3290 C   0  0  0  0  0  2  0  0  0  0  0  0
  -28.7210  -25.7510   19.3470 C   0  0  0  0  0  2  0  0  0  0  0  0
  -28.5420  -26.9860   20.0400 O   0  0  0  0  0  0  0  0  0  0  0  0
  -24.6760  -31.9120   23.3710 C   0  0  0  0  0  0  0  0  0  0  0  0
  -27.3240  -27.6330   20.0700 C   0  0  0  0  0  0  0  0  0  0  0  0
  -23.4680  -30.5940   21.6620 C   0  0  0  0  0  3  0  0  0  0  0  0
  -24.9180  -29.1210   20.1680 C   0  0  0  0  0  0  0  0  0  0  0  0
  -25.9890  -30.9620   21.4770 C   0  0  0  0  0  2  0  0  0  0  0  0
  -26.0710  -29.6150   20.7880 C   0  0  0  0  0  0  0  0  0  0  0  0
  -27.2690  -28.8710   20.7470 C   0  0  0  0  0  3  0  0  0  0  0  0
  -26.1460  -27.1450   19.4540 C   0  0  0  0  0  3  0  0  0  0  0  0
  -24.9480  -27.8830   19.5030 C   0  0  0  0  0  3  0  0  0  0  0  0
  -23.6770  -29.9780   20.2520 C   0  0  0  0  0  2  0  0  0  0  0  0
  -24.7300  -31.1660   22.2330 N   0  0  0  0  0  0  0  0  0  0  0  0
  -23.5950  -32.1600   23.9230 O   0  0  0  0  0  0  0  0  0  0  0  0
  -22.8120  -29.5280   22.5680 C   0  0  0  0  0  0  0  0  0  0  0  0
  -21.4910  -29.3430   22.4150 N   0  0  0  0  0  0  0  0  0  0  0  0
  -23.4890  -28.8740   23.3640 O   0  0  0  0  0  0  0  0  0  0  0  0
  -21.0040  -29.9260   21.7490 H   0  0  0  0  0  0  0  0  0  0  0  0
  -18.1230  -28.0890   22.7820 C   0  0  0  0  0  0  0  0  0  0  0  0
  -20.6680  -28.3700   23.1330 C   0  0  0  0  0  3  0  0  0  0  0  0
  -20.8060  -26.9600   22.5140 C   0  0  0  0  0  2  0  0  0  0  0  0
  -19.7360  -26.6550   21.4600 C   0  0  0  0  0  2  0  0  0  0  0  0
  -18.3360  -26.7640   22.0710 C   0  0  0  0  0  2  0  0  0  0  0  0
  -19.2190  -28.8510   23.2650 C   0  0  0  0  0  0  0  0  0  0  0  0
  -18.9690  -30.0940   23.8880 C   0  0  0  0  0  3  0  0  0  0  0  0
  -17.6530  -30.5750   24.0340 C   0  0  0  0  0  3  0  0  0  0  0  0
  -16.5710  -29.8100   23.5670 C   0  0  0  0  0  3  0  0  0  0  0  0
  -16.8070  -28.5690   22.9470 C   0  0  0  0  0  3  0  0  0  0  0  0
  -25.9630  -32.5080   24.0240 C   0  0  0  0  0  3  0  0  0  0  0  0
  -25.6700  -33.8970   24.3970 N   0  0  0  0  0  0  0  0  0  0  0  0
  -26.0260  -34.9680   23.6740 C   0  0  0  0  0  0  0  0  0  0  0  0
  -26.7070  -34.8880   22.6490 O   0  0  0  0  0  0  0  0  0  0  0  0
  -25.0710  -34.0360   25.1970 H   0  0  0  0  0  0  0  0  0  0  0  0
  -24.3200  -36.7880   23.3570 C   0  0  0  0  0  1  0  0  0  0  0  0
  -25.5500  -36.3480   24.1690 C   0  0  0  0  0  3  0  0  0  0  0  0
  -27.6870  -37.1780   25.0430 C   0  0  0  0  0  1  0  0  0  0  0  0
  -26.5960  -37.3910   24.0960 N   0  0  0  0  0  0  0  0  0  0  0  0
  -26.1990  -38.3110   24.2740 H   0  0  0  0  0  0  0  0  0  0  0  0
  -26.4610  -31.6860   25.2760 C   0  0  1  0  0  0  0  0  0  0  0  0
  -25.3540  -31.4270   26.3250 C   0  0  0  0  0  1  0  0  0  0  0  0
  -27.0260  -30.3170   24.8330 C   0  0  0  0  0  1  0  0  0  0  0  0
  -27.6170  -32.4400   25.9740 C   0  0  0  0  0  1  0  0  0  0  0  0
  -25.5370  -21.3370   18.1590 C   0  0  0  0  0  2  0  0  0  0  0  0
  -26.1520  -20.2640   19.0740 C   0  0  0  0  0  2  0  0  0  0  0  0
  -27.1020  -19.5220   18.3220 O   0  0  0  0  0  0  0  0  0  0  0  0
  -28.6020  -17.3420   20.9710 C   0  0  0  0  0  3  0  0  0  0  0  0
  -27.7570  -18.2930   20.3670 C   0  0  0  0  0  3  0  0  0  0  0  0
  -29.6710  -16.9370   18.8290 C   0  0  0  0  0  3  0  0  0  0  0  0
  -29.5790  -16.6520   20.2170 C   0  0  0  0  0  0  0  0  0  0  0  0
  -27.8720  -18.5890   18.9860 C   0  0  0  0  0  0  0  0  0  0  0  0
  -28.8350  -17.8960   18.2290 C   0  0  0  0  0  0  0  0  0  0  0  0
  -28.9740  -18.1620   16.9080 F   0  0  0  0  0  0  0  0  0  0  0  0
  -31.0580  -14.7190   20.1660 C   0  0  0  0  0  0  0  0  0  0  0  0
  -30.6470  -12.6200   18.9360 C   0  0  0  0  0  2  0  0  0  0  0  0
  -29.6660  -12.8440   17.7690 C   0  0  0  0  0  2  0  0  0  0  0  0
  -28.2060  -12.7240   18.2490 C   0  0  0  0  0  2  0  0  0  0  0  0
  -27.9220  -13.5550   19.5270 C   0  0  0  0  0  3  0  0  0  0  0  0
  -29.0090  -13.3090   20.5960 C   0  0  0  0  0  2  0  0  0  0  0  0
  -30.3170  -13.5940   19.9850 N   0  0  0  0  0  0  0  0  0  0  0  0
  -32.1620  -14.8960   19.6430 O   0  0  0  0  0  0  0  0  0  0  0  0
  -31.1150  -16.1280   22.1090 C   0  0  0  0  0  1  0  0  0  0  0  0
  -30.4660  -15.7180   20.8580 N   0  0  0  0  0  0  0  0  0  0  0  0
  -25.5670  -14.1990   20.3420 C   0  0  0  0  0  0  0  0  0  0  0  0
  -24.4970  -13.4390   20.7260 C   0  0  0  0  0  0  0  0  0  0  0  0
  -24.9280  -12.0790   20.6460 C   0  0  0  0  0  0  0  0  0  0  0  0
  -26.5840  -13.3010   20.0510 N   0  0  0  0  0  0  0  0  0  0  0  0
  -26.2040  -12.0210   20.2920 N   0  0  0  0  0  0  0  0  0  0  0  0
  -24.1830  -10.8280   20.8300 C   0  0  0  0  0  0  0  0  0  0  0  0
  -24.5930   -9.8590   21.7710 C   0  0  0  0  0  3  0  0  0  0  0  0
  -23.8520   -8.6690   21.9430 C   0  0  0  0  0  3  0  0  0  0  0  0
  -22.6870   -8.4420   21.1730 C   0  0  0  0  0  0  0  0  0  0  0  0
  -22.2970   -9.4000   20.2210 C   0  0  0  0  0  3  0  0  0  0  0  0
  -23.0360  -10.5810   20.0490 C   0  0  0  0  0  3  0  0  0  0  0  0
  -21.9200   -7.3050   21.2540 O   0  0  0  0  0  0  0  0  0  0  0  0
  -21.7950   -6.6020   22.4260 C   0  0  0  0  0  0  0  0  0  0  0  0
  -21.3100   -7.2020   23.6070 C   0  0  0  0  0  3  0  0  0  0  0  0
  -21.1300   -6.4250   24.7690 C   0  0  0  0  0  3  0  0  0  0  0  0
  -21.4250   -5.0490   24.7490 C   0  0  0  0  0  0  0  0  0  0  0  0
  -21.9070   -4.4490   23.5720 C   0  0  0  0  0  3  0  0  0  0  0  0
  -22.0880   -5.2240   22.4130 C   0  0  0  0  0  0  0  0  0  0  0  0
  -22.5300   -4.6360   21.2750 F   0  0  0  0  0  0  0  0  0  0  0  0
  -21.2470   -4.3010   25.8620 F   0  0  0  0  0  0  0  0  0  0  0  0
  -23.1200  -13.9360   21.0580 C   0  0  0  0  0  0  0  0  0  0  0  0
  -22.4120  -13.2400   21.9400 N   0  0  0  0  0  0  0  0  0  0  0  0
  -22.6820  -14.9770   20.5700 O   0  0  0  0  0  0  0  0  0  0  0  0
  -22.7790  -12.3960   22.3560 H   0  0  0  0  0  0  0  0  0  0  0  0
  -21.4880  -13.5520   22.1980 H   0  0  0  0  0  0  0  0  0  0  0  0
  -25.7570  -15.5710   20.2000 N   0  0  0  0  0  0  0  0  0  0  0  0
  -25.0150  -16.2380   20.3780 H   0  0  0  0  0  0  0  0  0  0  0  0
  -26.6330  -16.0090   19.9490 H   0  0  0  0  0  0  0  0  0  0  0  0
  1  2  1  0
  2  4  2  0
  3  2  1  0
  3  6  1  0
  5  3  1  0
  7  6  1  0
  8  9  1  0
  8  7  1  0
  9 11  1  0
 10 21  2  0
 11 16  1  0
 12 20  1  0
 12 22  1  0
 13 19  1  0
 13 15  1  0
 14 20  1  0
 15 14  1  0
 16 15  2  0
 17 18  1  0
 17 11  2  0
 18 13  2  0
 19 12  1  0
 20 10  1  0
 22 24  2  0
 23 22  1  0
 25 23  1  0
 26 35  2  0
 26 31  1  0
 27 23  1  0
 27 31  1  0
 28 27  1  0
 29 30  1  0
 29 28  1  0
 30 26  1  0
 31 32  2  0
 32 33  1  0
 34 33  2  0
 35 34  1  0
 36 10  1  0
 36 37  1  0
 36 46  1  0
 37 40  1  0
 38 42  1  0
 38 37  1  0
 39 38  2  0
 42 41  1  0
 44 42  1  0
 44 45  1  0
 44 43  1  0
 46 49  1  1
 46 47  1  0
 48 46  1  0
 50  1  1  0
 50 51  1  0
 52 57  1  0
 52 51  1  0
 54 53  1  0
 55 56  1  0
 56 69  1  0
 56 53  2  0
 57 54  2  0
 58 55  2  0
 58 57  1  0
 59 58  1  0
 60 69  1  0
 61 66  1  0
 62 63  1  0
 62 61  1  0
 64 63  1  0
 64 73  1  0
 64 65  1  0
 66 60  1  0
 66 65  1  0
 67 60  2  0
 69 68  1  0
 70 71  2  0
 71 90  1  0
 72 71  1  0
 72 75  1  0
 73 74  1  0
 73 70  1  0
 74 72  2  0
 75 76  1  0
 76 77  2  0
 78 81  1  0
 78 77  1  0
 79 78  2  0
 80 79  1  0
 80 75  2  0
 81 82  1  0
 82 83  1  0
 83 84  2  0
 85 84  1  0
 85 89  1  0
 86 85  2  0
 87 82  2  0
 87 86  1  0
 88 87  1  0
 90 91  1  0
 91 94  1  0
 91 93  1  0
 92 90  2  0
 95 70  1  0
 95 96  1  0
 97 95  1  0
M  ISO  4   8 101   9 101  60 100  69 100
M  END
>  <TORSDO>  (73) 
F 24

>  <SCORE>  (73) 
-11.688

>  <name>  (73) 
72

>  <ligand_id>  (73) 
72

>  <original_smiles>  (73) 
[H]c1c([H])c([H])c2c(c1[H])C([H])([H])C([H])([H])C([H])([H])C2([H])N([H])C(=O)C1([H])N(C(=O)C([H])(N([H])C(=O)C([H])(N([H])C([H])([H])[H])C([H])([H])[H])C(C([H])([H])[H])(C([H])([H])[H])C([H])([H])[H])C([H])([H])c2c([H])c(OC([H])([H])C([H])([H])C([H])([H])N([H])C(=O)C([H])([H])C([H])([H])C([H])([H])Oc3c([H])c([H])c(N(C(=O)N4C([H])([H])C([H])([H])C([H])([H])C([H])(n5nc(-c6c([H])c([H])c(Oc7c([H])c([H])c(F)c([H])c7F)c([H])c6[H])c(C(=O)N([H])[H])c5N([H])[H])C4([H])[H])C([H])([H])[H])c([H])c3F)c([H])c([H])c2C1([H])[H]

>  <smiles>  (73) 
[H]c1c([H])c([H])c2c(c1[H])C([H])([H])C([H])([H])C([H])([H])C2([H])N([H])C(=O)C1([H])N(C(=O)C([H])(N([H])C(=O)C([H])(N([H])C([H])([H])[H])C([H])([H])[H])C(C([H])([H])[H])(C([H])([H])[H])C([H])([H])[H])C([H])([H])c2c([H])c(OC([H])([H])C([H])([H])C([H])([H])N([H])C(=O)C([H])([H])C([H])([H])C([H])([H])Oc3c([H])c([H])c(N(C(=O)N4C([H])([H])C([H])([H])C([H])([H])C([H])(n5nc(-c6c([H])c([H])c(Oc7c([H])c([H])c(F)c([H])c7F)c([H])c6[H])c(C(=O)N([H])[H])c5N([H])[H])C4([H])[H])C([H])([H])[H])c([H])c3F)c([H])c([H])c2C1([H])[H]

$$$$
73:0:0
     RDKit          3D

 89 97  0  0  1  0  0  0  0  0999 V2000
  -30.5080  -18.0540   21.6440 C   0  0  0  0  0  3  0  0  0  0  0  0
  -31.1530  -17.2530   20.7030 C   0  0  0  0  0  3  0  0  0  0  0  0
  -30.9380  -19.9800   20.2630 C   0  0  0  0  0  3  0  0  0  0  0  0
  -30.3560  -19.4100   21.4020 C   0  0  0  0  0  0  0  0  0  0  0  0
  -31.7220  -17.6960   19.4750 C   0  0  0  0  0  0  0  0  0  0  0  0
  -31.7050  -19.3090   19.2690 C   0  0  0  0  0  0  0  0  0  0  0  0
  -29.5590  -20.2640   22.3730 C   0  0  0  0  0  1  0  0  0  0  0  0
  -32.5720  -14.8820   19.1440 C   0  0  0  0  0  0  0  0  0  0  0  0
  -32.1620  -12.3360   18.7300 C   0  0  0  0  0  2  0  0  0  0  0  0
  -31.1170  -11.9640   17.6470 C   0  0  0  0  0  2  0  0  0  0  0  0
  -29.7050  -11.9390   18.2450 C   0  0  0  0  0  2  0  0  0  0  0  0
  -29.4570  -13.1450   19.1840 C   0  0  0  0  0  3  0  0  0  0  0  0
  -30.6190  -13.4260   20.1600 C   0  0  0  0  0  2  0  0  0  0  0  0
  -31.8050  -13.6850   19.3270 N   0  0  0  0  0  0  0  0  0  0  0  0
  -33.7600  -14.6000   18.9240 O   0  0  0  0  0  0  0  0  0  0  0  0
  -32.1090  -16.2790   18.7820 N   0  0  0  0  0  0  0  0  0  0  0  0
  -32.5460  -16.4870   17.8970 H   0  0  0  0  0  0  0  0  0  0  0  0
  -27.4130  -14.1370   20.3250 C   0  0  0  0  0  0  0  0  0  0  0  0
  -26.2390  -13.5910   20.7580 C   0  0  0  0  0  0  0  0  0  0  0  0
  -26.3470  -12.1820   20.5320 C   0  0  0  0  0  0  0  0  0  0  0  0
  -28.1660  -13.0790   19.8520 N   0  0  0  0  0  0  0  0  0  0  0  0
  -27.5460  -11.8850   20.0430 N   0  0  0  0  0  0  0  0  0  0  0  0
  -25.3530  -11.1150   20.6980 C   0  0  0  0  0  0  0  0  0  0  0  0
  -25.5740  -10.0270   21.5720 C   0  0  0  0  0  3  0  0  0  0  0  0
  -24.5940   -9.0260   21.7290 C   0  0  0  0  0  3  0  0  0  0  0  0
  -23.3740   -9.1070   21.0160 C   0  0  0  0  0  0  0  0  0  0  0  0
  -23.1670  -10.1800   20.1310 C   0  0  0  0  0  3  0  0  0  0  0  0
  -24.1470  -11.1730   19.9710 C   0  0  0  0  0  3  0  0  0  0  0  0
  -22.3730   -8.1660   21.0880 O   0  0  0  0  0  0  0  0  0  0  0  0
  -22.1030   -7.4930   22.2510 C   0  0  0  0  0  0  0  0  0  0  0  0
  -21.6780   -8.1600   23.4200 C   0  0  0  0  0  3  0  0  0  0  0  0
  -21.3430   -7.4190   24.5700 C   0  0  0  0  0  3  0  0  0  0  0  0
  -21.4250   -6.0130   24.5530 C   0  0  0  0  0  0  0  0  0  0  0  0
  -21.8440   -5.3470   23.3870 C   0  0  0  0  0  3  0  0  0  0  0  0
  -22.1780   -6.0850   22.2390 C   0  0  0  0  0  0  0  0  0  0  0  0
  -22.5610   -5.4360   21.1130 F   0  0  0  0  0  0  0  0  0  0  0  0
  -21.0960   -5.3000   25.6550 F   0  0  0  0  0  0  0  0  0  0  0  0
  -25.0430  -14.3460   21.2590 C   0  0  0  0  0  0  0  0  0  0  0  0
  -24.2790  -13.7460   22.1640 N   0  0  0  0  0  0  0  0  0  0  0  0
  -24.8120  -15.4950   20.8860 O   0  0  0  0  0  0  0  0  0  0  0  0
  -24.4820  -12.8080   22.4780 H   0  0  0  0  0  0  0  0  0  0  0  0
  -23.4780  -14.2260   22.5470 H   0  0  0  0  0  0  0  0  0  0  0  0
  -27.8950  -15.4400   20.2670 N   0  0  0  0  0  0  0  0  0  0  0  0
  -27.3480  -16.2320   20.5830 H   0  0  0  0  0  0  0  0  0  0  0  0
  -28.7990  -15.7040   19.8950 H   0  0  0  0  0  0  0  0  0  0  0  0
  -32.1480  -20.4690   18.3400 O   0  0  0  0  0  0  0  0  0  0  0  0
  -32.1220  -22.1610   18.5260 C   0  0  0  0  0  3  0  0  0  0  0  0
  -31.2220  -23.6580   17.9120 C   0  0  0  0  0  3  0  0  0  0  0  0
  -31.0940  -25.2920   18.3100 O   0  0  0  0  0  0  0  0  0  0  0  0
  -26.1340  -29.3530   22.3850 C   0  0  0  0  0  0  0  0  0  0  0  0
  -29.8920  -26.1980   18.4210 C   0  0  0  0  0  0  0  0  0  0  0  0
  -25.3970  -28.3760   20.2510 C   0  0  0  0  0  3  0  0  0  0  0  0
  -27.2590  -27.5940   18.6240 C   0  0  0  0  0  0  0  0  0  0  0  0
  -27.8660  -29.0590   20.5380 C   0  0  0  0  0  2  0  0  0  0  0  0
  -28.2840  -27.9650   19.5030 C   0  0  0  0  0  0  0  0  0  0  0  0
  -29.5890  -27.2950   19.3830 C   0  0  0  0  0  3  0  0  0  0  0  0
  -28.8120  -25.9990   17.5300 C   0  0  0  0  0  3  0  0  0  0  0  0
  -27.5480  -26.6420   17.6300 C   0  0  0  0  0  3  0  0  0  0  0  0
  -25.8740  -28.2280   18.7790 C   0  0  0  0  0  2  0  0  0  0  0  0
  -26.4770  -28.9440   21.1200 N   0  0  0  0  0  0  0  0  0  0  0  0
  -24.9700  -29.2610   22.8090 O   0  0  0  0  0  0  0  0  0  0  0  0
  -24.8510  -27.0180   20.7650 C   0  0  0  0  0  0  0  0  0  0  0  0
  -23.6660  -26.5970   20.2850 N   0  0  0  0  0  0  0  0  0  0  0  0
  -25.5090  -26.3500   21.5670 O   0  0  0  0  0  0  0  0  0  0  0  0
  -23.1740  -27.1980   19.6380 H   0  0  0  0  0  0  0  0  0  0  0  0
  -20.7660  -24.5220   19.6070 C   0  0  0  0  0  0  0  0  0  0  0  0
  -23.0210  -25.3160   20.5960 C   0  0  0  0  0  3  0  0  0  0  0  0
  -23.6620  -24.1650   19.7860 C   0  0  0  0  0  2  0  0  0  0  0  0
  -22.9330  -23.8750   18.4690 C   0  0  0  0  0  2  0  0  0  0  0  0
  -21.4730  -23.4980   18.7350 C   0  0  0  0  0  2  0  0  0  0  0  0
  -21.4940  -25.3860   20.4690 C   0  0  0  0  0  0  0  0  0  0  0  0
  -20.7890  -26.3410   21.2340 C   0  0  0  0  0  3  0  0  0  0  0  0
  -19.3870  -26.4360   21.1520 C   0  0  0  0  0  3  0  0  0  0  0  0
  -18.6710  -25.5710   20.3060 C   0  0  0  0  0  3  0  0  0  0  0  0
  -19.3600  -24.6150   19.5400 C   0  0  0  0  0  3  0  0  0  0  0  0
  -27.1820  -29.9710   23.3600 C   0  0  0  0  0  3  0  0  0  0  0  0
  -27.5790  -28.9960   24.5380 C   0  0  1  0  0  0  0  0  0  0  0  0
  -26.3650  -28.4300   25.3120 C   0  0  0  0  0  1  0  0  0  0  0  0
  -28.4000  -27.7970   24.0130 C   0  0  0  0  0  1  0  0  0  0  0  0
  -28.4850  -29.7370   25.5490 C   0  0  0  0  0  1  0  0  0  0  0  0
  -26.6180  -31.2190   23.9060 N   0  0  0  0  0  0  0  0  0  0  0  0
  -26.9460  -32.4530   23.5000 C   0  0  0  0  0  0  0  0  0  0  0  0
  -27.8130  -32.6650   22.6500 O   0  0  0  0  0  0  0  0  0  0  0  0
  -25.8690  -31.1200   24.5740 H   0  0  0  0  0  0  0  0  0  0  0  0
  -25.1000  -34.1340   23.1810 C   0  0  0  0  0  1  0  0  0  0  0  0
  -26.1980  -33.6420   24.1380 C   0  0  0  0  0  3  0  0  0  0  0  0
  -27.9660  -34.4750   25.6240 C   0  0  0  0  0  1  0  0  0  0  0  0
  -27.0810  -34.7720   24.5010 N   0  0  0  0  0  0  0  0  0  0  0  0
  -26.5360  -35.5980   24.7310 H   0  0  0  0  0  0  0  0  0  0  0  0
  2  1  2  0
  3  4  2  0
  4  1  1  0
  4  7  1  0
  5  2  1  0
  6  5  2  0
  6  3  1  0
  8 14  1  0
  9 14  1  0
 10 11  1  0
 10  9  1  0
 12 11  1  0
 12 21  1  0
 12 13  1  0
 14 13  1  0
 15  8  2  0
 16  8  1  0
 16  5  1  0
 17 16  1  0
 18 19  2  0
 19 38  1  0
 20 23  1  0
 20 19  1  0
 21 22  1  0
 21 18  1  0
 22 20  2  0
 23 24  1  0
 24 25  2  0
 26 29  1  0
 26 25  1  0
 27 26  2  0
 28 27  1  0
 28 23  2  0
 29 30  1  0
 30 31  1  0
 31 32  2  0
 33 32  1  0
 33 37  1  0
 34 33  2  0
 35 30  2  0
 35 34  1  0
 36 35  1  0
 38 39  1  0
 39 41  1  0
 39 42  1  0
 40 38  2  0
 43 18  1  0
 43 44  1  0
 45 43  1  0
 46 47  1  0
 46  6  1  0
 48 49  1  0
 48 47  2  0
 49 51  1  0
 50 61  2  0
 51 56  1  0
 52 62  1  0
 52 60  1  0
 53 59  1  0
 53 55  1  0
 54 60  1  0
 55 54  1  0
 56 55  2  0
 57 58  1  0
 57 51  2  0
 58 53  2  0
 59 52  1  0
 60 50  1  0
 62 64  2  0
 63 62  1  0
 65 63  1  0
 66 71  1  0
 67 63  1  0
 68 67  1  0
 69 70  1  0
 69 68  1  0
 70 66  1  0
 71 67  1  0
 71 72  2  0
 73 72  1  0
 74 73  2  0
 75 66  2  0
 75 74  1  0
 76 50  1  0
 76 81  1  0
 76 77  1  0
 77 78  1  1
 77 80  1  0
 79 77  1  0
 81 84  1  0
 82 81  1  0
 82 86  1  0
 83 82  2  0
 86 85  1  0
 86 88  1  0
 88 89  1  0
 88 87  1  0
M  ISO  4   8 100  16 100  48 101  49 101
M  END
>  <TORSDO>  (74) 
F 19

>  <SCORE>  (74) 
-7.466

>  <name>  (74) 
73

>  <ligand_id>  (74) 
73

>  <original_smiles>  (74) 
[H]c1c([H])c([H])c2c(c1[H])C([H])([H])C([H])([H])C([H])([H])C2([H])N([H])C(=O)C1([H])N(C(=O)C([H])(N([H])C(=O)C([H])(N([H])C([H])([H])[H])C([H])([H])[H])C(C([H])([H])[H])(C([H])([H])[H])C([H])([H])[H])C([H])([H])c2c([H])c(OC([H])([H])C([H])([H])Oc3c([H])c(C([H])([H])[H])c([H])c([H])c3N([H])C(=O)N3C([H])([H])C([H])([H])C([H])([H])C([H])(n4nc(-c5c([H])c([H])c(Oc6c([H])c([H])c(F)c([H])c6F)c([H])c5[H])c(C(=O)N([H])[H])c4N([H])[H])C3([H])[H])c([H])c([H])c2C1([H])[H]

>  <smiles>  (74) 
[H]c1c([H])c([H])c2c(c1[H])C([H])([H])C([H])([H])C([H])([H])C2([H])N([H])C(=O)C1([H])N(C(=O)C([H])(N([H])C(=O)C([H])(N([H])C([H])([H])[H])C([H])([H])[H])C(C([H])([H])[H])(C([H])([H])[H])C([H])([H])[H])C([H])([H])c2c([H])c(OC([H])([H])C([H])([H])Oc3c([H])c(C([H])([H])[H])c([H])c([H])c3N([H])C(=O)N3C([H])([H])C([H])([H])C([H])([H])C([H])(n4nc(-c5c([H])c([H])c(Oc6c([H])c([H])c(F)c([H])c6F)c([H])c5[H])c(C(=O)N([H])[H])c4N([H])[H])C3([H])[H])c([H])c([H])c2C1([H])[H]

$$$$
74:0:0
     RDKit          3D

 91 99  0  0  1  0  0  0  0  0999 V2000
  -29.6700  -21.2100   22.0430 O   0  0  0  0  0  0  0  0  0  0  0  0
  -30.8600  -17.8050   22.7520 C   0  0  0  0  0  3  0  0  0  0  0  0
  -31.3450  -18.2890   20.4150 C   0  0  0  0  0  3  0  0  0  0  0  0
  -30.2810  -19.0800   22.8920 C   0  0  0  0  0  3  0  0  0  0  0  0
  -30.7600  -19.5640   20.5560 C   0  0  0  0  0  3  0  0  0  0  0  0
  -31.4080  -17.4110   21.5160 C   0  0  0  0  0  0  0  0  0  0  0  0
  -30.2320  -19.9750   21.8040 C   0  0  0  0  0  0  0  0  0  0  0  0
  -32.0700  -16.0530   21.3750 C   0  0  0  0  0  2  0  0  0  0  0  0
  -31.2400  -14.4280   19.6830 C   0  0  0  0  0  0  0  0  0  0  0  0
  -30.6360  -12.3580   18.4860 C   0  0  0  0  0  2  0  0  0  0  0  0
  -29.5620  -12.5680   17.4060 C   0  0  0  0  0  2  0  0  0  0  0  0
  -28.1540  -12.4680   18.0170 C   0  0  0  0  0  2  0  0  0  0  0  0
  -27.9920  -13.3600   19.2750 C   0  0  0  0  0  3  0  0  0  0  0  0
  -29.1560  -13.1360   20.2650 C   0  0  0  0  0  2  0  0  0  0  0  0
  -30.4340  -13.3450   19.5550 N   0  0  0  0  0  0  0  0  0  0  0  0
  -32.0970  -14.7430   18.8500 O   0  0  0  0  0  0  0  0  0  0  0  0
  -31.1560  -15.0370   20.8690 N   0  0  0  0  0  0  0  0  0  0  0  0
  -30.4620  -14.6840   21.5110 H   0  0  0  0  0  0  0  0  0  0  0  0
  -25.7650  -14.0760   20.3550 C   0  0  0  0  0  0  0  0  0  0  0  0
  -24.6940  -13.3530   20.8060 C   0  0  0  0  0  0  0  0  0  0  0  0
  -25.0300  -11.9800   20.6010 C   0  0  0  0  0  0  0  0  0  0  0  0
  -26.6930  -13.1450   19.9120 N   0  0  0  0  0  0  0  0  0  0  0  0
  -26.2590  -11.8740   20.1130 N   0  0  0  0  0  0  0  0  0  0  0  0
  -24.2310  -10.7620   20.7890 C   0  0  0  0  0  0  0  0  0  0  0  0
  -24.6590   -9.7240   21.6460 C   0  0  0  0  0  3  0  0  0  0  0  0
  -23.8660   -8.5690   21.8240 C   0  0  0  0  0  3  0  0  0  0  0  0
  -22.6310   -8.4450   21.1440 C   0  0  0  0  0  0  0  0  0  0  0  0
  -22.2210   -9.4720   20.2750 C   0  0  0  0  0  3  0  0  0  0  0  0
  -23.0130  -10.6180   20.0950 C   0  0  0  0  0  3  0  0  0  0  0  0
  -21.8070   -7.3500   21.2350 O   0  0  0  0  0  0  0  0  0  0  0  0
  -21.7200   -6.6080   22.3850 C   0  0  0  0  0  0  0  0  0  0  0  0
  -21.3220   -7.1800   23.6140 C   0  0  0  0  0  3  0  0  0  0  0  0
  -21.1800   -6.3670   24.7560 C   0  0  0  0  0  3  0  0  0  0  0  0
  -21.4250   -4.9830   24.6710 C   0  0  0  0  0  0  0  0  0  0  0  0
  -21.8160   -4.4110   23.4480 C   0  0  0  0  0  3  0  0  0  0  0  0
  -21.9600   -5.2210   22.3070 C   0  0  0  0  0  0  0  0  0  0  0  0
  -22.3160   -4.6610   21.1260 F   0  0  0  0  0  0  0  0  0  0  0  0
  -21.2800   -4.2010   25.7650 F   0  0  0  0  0  0  0  0  0  0  0  0
  -23.3910  -13.9020   21.3120 C   0  0  0  0  0  0  0  0  0  0  0  0
  -22.7340  -13.1880   22.2190 N   0  0  0  0  0  0  0  0  0  0  0  0
  -22.9700  -14.9970   20.9380 O   0  0  0  0  0  0  0  0  0  0  0  0
  -23.0890  -12.2990   22.5400 H   0  0  0  0  0  0  0  0  0  0  0  0
  -21.8650  -13.5350   22.5990 H   0  0  0  0  0  0  0  0  0  0  0  0
  -26.0210  -15.4420   20.2690 N   0  0  0  0  0  0  0  0  0  0  0  0
  -25.3400  -16.1430   20.5410 H   0  0  0  0  0  0  0  0  0  0  0  0
  -26.8690  -15.8400   19.8840 H   0  0  0  0  0  0  0  0  0  0  0  0
  -29.7960  -22.2200   21.0500 C   0  0  0  0  0  2  0  0  0  0  0  0
  -29.0710  -23.4660   21.5680 C   0  0  0  0  0  2  0  0  0  0  0  0
  -29.1270  -24.6580   20.6010 C   0  0  0  0  0  2  0  0  0  0  0  0
  -28.4260  -25.8900   21.1840 C   0  0  0  0  0  2  0  0  0  0  0  0
  -28.4650  -26.9680   20.2550 O   0  0  0  0  0  0  0  0  0  0  0  0
  -24.5750  -32.0090   23.3920 C   0  0  0  0  0  0  0  0  0  0  0  0
  -27.3010  -27.6890   20.2510 C   0  0  0  0  0  0  0  0  0  0  0  0
  -23.3930  -30.6080   21.7280 C   0  0  0  0  0  3  0  0  0  0  0  0
  -24.8760  -29.1170   20.2850 C   0  0  0  0  0  0  0  0  0  0  0  0
  -25.9080  -31.0240   21.5360 C   0  0  0  0  0  2  0  0  0  0  0  0
  -26.0190  -29.6650   20.8800 C   0  0  0  0  0  0  0  0  0  0  0  0
  -27.2380  -28.9550   20.8660 C   0  0  0  0  0  3  0  0  0  0  0  0
  -26.1480  -27.1420   19.6550 C   0  0  0  0  0  3  0  0  0  0  0  0
  -24.9320  -27.8520   19.6710 C   0  0  0  0  0  3  0  0  0  0  0  0
  -23.6140  -29.9480   20.3410 C   0  0  0  0  0  2  0  0  0  0  0  0
  -24.6420  -31.2270   22.2780 N   0  0  0  0  0  0  0  0  0  0  0  0
  -23.4890  -32.2560   23.9360 O   0  0  0  0  0  0  0  0  0  0  0  0
  -22.7600  -29.5640   22.6740 C   0  0  0  0  0  0  0  0  0  0  0  0
  -21.4560  -29.3020   22.4880 N   0  0  0  0  0  0  0  0  0  0  0  0
  -23.4390  -28.9900   23.5310 O   0  0  0  0  0  0  0  0  0  0  0  0
  -20.9680  -29.8210   21.7700 H   0  0  0  0  0  0  0  0  0  0  0  0
  -18.1580  -27.8570   22.7770 C   0  0  0  0  0  0  0  0  0  0  0  0
  -20.6580  -28.3300   23.2330 C   0  0  0  0  0  3  0  0  0  0  0  0
  -20.9180  -26.8930   22.7280 C   0  0  0  0  0  2  0  0  0  0  0  0
  -19.9280  -26.4450   21.6470 C   0  0  0  0  0  2  0  0  0  0  0  0
  -18.4930  -26.5020   22.1760 C   0  0  0  0  0  2  0  0  0  0  0  0
  -19.1760  -28.7220   23.2580 C   0  0  0  0  0  0  0  0  0  0  0  0
  -18.8140  -29.9850   23.7740 C   0  0  0  0  0  3  0  0  0  0  0  0
  -17.4660  -30.3860   23.8150 C   0  0  0  0  0  3  0  0  0  0  0  0
  -16.4610  -29.5190   23.3520 C   0  0  0  0  0  3  0  0  0  0  0  0
  -16.8070  -28.2560   22.8390 C   0  0  0  0  0  3  0  0  0  0  0  0
  -25.8510  -32.6520   24.0210 C   0  0  0  0  0  3  0  0  0  0  0  0
  -25.5500  -34.0640   24.2880 N   0  0  0  0  0  0  0  0  0  0  0  0
  -25.9150  -35.0810   23.4970 C   0  0  0  0  0  0  0  0  0  0  0  0
  -26.6140  -34.9290   22.4900 O   0  0  0  0  0  0  0  0  0  0  0  0
  -24.9350  -34.2560   25.0640 H   0  0  0  0  0  0  0  0  0  0  0  0
  -24.2130  -36.8700   23.0230 C   0  0  0  0  0  1  0  0  0  0  0  0
  -25.4290  -36.4900   23.8830 C   0  0  0  0  0  3  0  0  0  0  0  0
  -27.5490  -37.3920   24.7320 C   0  0  0  0  0  1  0  0  0  0  0  0
  -26.4740  -37.5290   23.7540 N   0  0  0  0  0  0  0  0  0  0  0  0
  -26.0730  -38.4580   23.8530 H   0  0  0  0  0  0  0  0  0  0  0  0
  -26.3310  -31.9220   25.3360 C   0  0  1  0  0  0  0  0  0  0  0  0
  -25.2030  -31.6970   26.3690 C   0  0  0  0  0  1  0  0  0  0  0  0
  -26.9470  -30.5430   25.0010 C   0  0  0  0  0  1  0  0  0  0  0  0
  -27.4460  -32.7500   26.0170 C   0  0  0  0  0  1  0  0  0  0  0  0
  2  4  1  0
  3  5  2  0
  3  6  1  0
  5  7  1  0
  6  2  2  0
  7  1  1  0
  7  4  2  0
  8  6  1  0
  9 17  1  0
 10 15  1  0
 11 12  1  0
 11 10  1  0
 13 12  1  0
 13 22  1  0
 13 14  1  0
 15  9  1  0
 15 14  1  0
 16  9  2  0
 17  8  1  0
 17 18  1  0
 19 20  2  0
 20 39  1  0
 21 24  1  0
 21 20  1  0
 22 23  1  0
 22 19  1  0
 23 21  2  0
 24 25  1  0
 25 26  2  0
 27 30  1  0
 27 26  1  0
 28 27  2  0
 29 28  1  0
 29 24  2  0
 30 31  1  0
 31 32  1  0
 32 33  2  0
 34 33  1  0
 34 38  1  0
 35 34  2  0
 36 31  2  0
 36 35  1  0
 37 36  1  0
 39 40  1  0
 40 42  1  0
 40 43  1  0
 41 39  2  0
 44 19  1  0
 44 45  1  0
 46 44  1  0
 47 48  1  0
 47  1  1  0
 49 50  1  0
 49 48  1  0
 51 50  1  0
 52 63  2  0
 53 51  1  0
 53 58  1  0
 54 62  1  0
 54 64  1  0
 55 61  1  0
 55 57  1  0
 56 62  1  0
 57 56  1  0
 58 57  2  0
 59 60  1  0
 59 53  2  0
 60 55  2  0
 61 54  1  0
 62 52  1  0
 64 66  2  0
 65 64  1  0
 67 65  1  0
 68 77  2  0
 68 73  1  0
 69 65  1  0
 69 73  1  0
 70 69  1  0
 71 72  1  0
 71 70  1  0
 72 68  1  0
 73 74  2  0
 74 75  1  0
 76 75  2  0
 77 76  1  0
 78 52  1  0
 78 79  1  0
 78 88  1  0
 79 82  1  0
 80 84  1  0
 80 79  1  0
 81 80  2  0
 84 83  1  0
 86 87  1  0
 86 84  1  0
 86 85  1  0
 88 91  1  1
 88 89  1  0
 90 88  1  0
M  ISO  4   9 100  17 100  50 101  51 101
M  END
>  <TORSDO>  (75) 
F 22

>  <SCORE>  (75) 
-10.573

>  <name>  (75) 
74

>  <ligand_id>  (75) 
74

>  <original_smiles>  (75) 
[H]c1c([H])c([H])c2c(c1[H])C([H])([H])C([H])([H])C([H])([H])C2([H])N([H])C(=O)C1([H])N(C(=O)C([H])(N([H])C(=O)C([H])(N([H])C([H])([H])[H])C([H])([H])[H])C(C([H])([H])[H])(C([H])([H])[H])C([H])([H])[H])C([H])([H])c2c([H])c(OC([H])([H])C([H])([H])C([H])([H])C([H])([H])Oc3c([H])c([H])c(C([H])([H])N([H])C(=O)N4C([H])([H])C([H])([H])C([H])([H])C([H])(n5nc(-c6c([H])c([H])c(Oc7c([H])c([H])c(F)c([H])c7F)c([H])c6[H])c(C(=O)N([H])[H])c5N([H])[H])C4([H])[H])c([H])c3[H])c([H])c([H])c2C1([H])[H]

>  <smiles>  (75) 
[H]c1c([H])c([H])c2c(c1[H])C([H])([H])C([H])([H])C([H])([H])C2([H])N([H])C(=O)C1([H])N(C(=O)C([H])(N([H])C(=O)C([H])(N([H])C([H])([H])[H])C([H])([H])[H])C(C([H])([H])[H])(C([H])([H])[H])C([H])([H])[H])C([H])([H])c2c([H])c(OC([H])([H])C([H])([H])C([H])([H])C([H])([H])Oc3c([H])c([H])c(C([H])([H])N([H])C(=O)N4C([H])([H])C([H])([H])C([H])([H])C([H])(n5nc(-c6c([H])c([H])c(Oc7c([H])c([H])c(F)c([H])c7F)c([H])c6[H])c(C(=O)N([H])[H])c5N([H])[H])C4([H])[H])c([H])c3[H])c([H])c([H])c2C1([H])[H]

$$$$
75:0:0
     RDKit          3D

 93101  0  0  1  0  0  0  0  0999 V2000
  -31.1030  -18.0140   21.3940 C   0  0  0  0  0  3  0  0  0  0  0  0
  -31.0820  -19.4380   21.3850 C   0  0  0  0  0  3  0  0  0  0  0  0
  -28.8270  -19.4360   20.5560 C   0  0  0  0  0  3  0  0  0  0  0  0
  -29.9720  -17.2610   20.9990 C   0  0  0  0  0  0  0  0  0  0  0  0
  -29.9450  -20.1930   20.9940 C   0  0  0  0  0  0  0  0  0  0  0  0
  -28.8360  -17.9970   20.5500 C   0  0  0  0  0  0  0  0  0  0  0  0
  -30.7980  -14.8030   21.1570 C   0  0  0  0  0  0  0  0  0  0  0  0
  -30.8120  -12.5050   20.2150 C   0  0  0  0  0  2  0  0  0  0  0  0
  -29.9950  -12.5370   18.9030 C   0  0  0  0  0  2  0  0  0  0  0  0
  -28.4900  -12.3350   19.1820 C   0  0  0  0  0  2  0  0  0  0  0  0
  -27.9680  -13.2400   20.3290 C   0  0  0  0  0  3  0  0  0  0  0  0
  -28.9070  -13.1840   21.5560 C   0  0  0  0  0  2  0  0  0  0  0  0
  -30.2570  -13.5460   21.0980 N   0  0  0  0  0  0  0  0  0  0  0  0
  -32.0040  -15.0010   20.9880 O   0  0  0  0  0  0  0  0  0  0  0  0
  -29.8770  -15.8120   21.1360 N   0  0  0  0  0  0  0  0  0  0  0  0
  -28.9340  -15.4630   21.0560 H   0  0  0  0  0  0  0  0  0  0  0  0
  -25.5050  -13.7880   20.8200 C   0  0  0  0  0  0  0  0  0  0  0  0
  -24.4250  -12.9910   21.0840 C   0  0  0  0  0  0  0  0  0  0  0  0
  -24.9180  -11.6510   21.0990 C   0  0  0  0  0  0  0  0  0  0  0  0
  -26.5850  -12.9310   20.6840 N   0  0  0  0  0  0  0  0  0  0  0  0
  -26.2320  -11.6410   20.9160 N   0  0  0  0  0  0  0  0  0  0  0  0
  -24.2050  -10.3730   21.2170 C   0  0  0  0  0  0  0  0  0  0  0  0
  -24.5190   -9.4450   22.2350 C   0  0  0  0  0  3  0  0  0  0  0  0
  -23.8100   -8.2290   22.3400 C   0  0  0  0  0  3  0  0  0  0  0  0
  -22.7710   -7.9330   21.4250 C   0  0  0  0  0  0  0  0  0  0  0  0
  -22.4770   -8.8490   20.4010 C   0  0  0  0  0  3  0  0  0  0  0  0
  -23.1880  -10.0570   20.2940 C   0  0  0  0  0  3  0  0  0  0  0  0
  -22.0440   -6.7660   21.4340 O   0  0  0  0  0  0  0  0  0  0  0  0
  -21.7770   -6.0940   22.6010 C   0  0  0  0  0  0  0  0  0  0  0  0
  -21.0920   -6.7060   23.6720 C   0  0  0  0  0  3  0  0  0  0  0  0
  -20.7800   -5.9590   24.8260 C   0  0  0  0  0  3  0  0  0  0  0  0
  -21.1380   -4.5990   24.9030 C   0  0  0  0  0  0  0  0  0  0  0  0
  -21.8140   -3.9870   23.8320 C   0  0  0  0  0  3  0  0  0  0  0  0
  -22.1300   -4.7330   22.6840 C   0  0  0  0  0  0  0  0  0  0  0  0
  -22.7640   -4.1320   21.6460 F   0  0  0  0  0  0  0  0  0  0  0  0
  -20.8300   -3.8770   26.0050 F   0  0  0  0  0  0  0  0  0  0  0  0
  -22.9960  -13.4370   21.2150 C   0  0  0  0  0  0  0  0  0  0  0  0
  -22.2010  -12.7270   22.0070 N   0  0  0  0  0  0  0  0  0  0  0  0
  -22.5890  -14.4500   20.6490 O   0  0  0  0  0  0  0  0  0  0  0  0
  -22.5380  -11.9080   22.4910 H   0  0  0  0  0  0  0  0  0  0  0  0
  -21.2390  -13.0110   22.1350 H   0  0  0  0  0  0  0  0  0  0  0  0
  -25.6540  -15.1620   20.6650 N   0  0  0  0  0  0  0  0  0  0  0  0
  -24.8300  -15.7440   20.5600 H   0  0  0  0  0  0  0  0  0  0  0  0
  -26.4760  -15.5920   20.2580 H   0  0  0  0  0  0  0  0  0  0  0  0
  -30.0310  -21.6010   21.0630 O   0  0  0  0  0  0  0  0  0  0  0  0
  -28.9350  -22.5070   20.7190 C   0  0  0  0  0  2  0  0  0  0  0  0
  -29.3030  -24.0590   20.8350 C   0  0  0  0  0  3  0  0  0  0  0  0
  -28.2100  -25.1250   20.3950 C   0  0  0  0  0  3  0  0  0  0  0  0
  -28.4460  -26.5770   20.5980 O   0  0  0  0  0  0  0  0  0  0  0  0
  -24.7110  -32.0260   23.5250 C   0  0  0  0  0  0  0  0  0  0  0  0
  -27.3370  -27.4390   20.5210 C   0  0  0  0  0  0  0  0  0  0  0  0
  -23.5230  -30.6310   21.8700 C   0  0  0  0  0  3  0  0  0  0  0  0
  -24.9840  -29.0680   20.4730 C   0  0  0  0  0  0  0  0  0  0  0  0
  -26.0690  -30.9280   21.7290 C   0  0  0  0  0  2  0  0  0  0  0  0
  -26.1470  -29.5490   21.0860 C   0  0  0  0  0  0  0  0  0  0  0  0
  -27.3280  -28.7460   21.1010 C   0  0  0  0  0  3  0  0  0  0  0  0
  -26.1490  -27.0180   19.8770 C   0  0  0  0  0  3  0  0  0  0  0  0
  -24.9880  -27.8080   19.8570 C   0  0  0  0  0  3  0  0  0  0  0  0
  -23.7550  -29.9530   20.4950 C   0  0  0  0  0  2  0  0  0  0  0  0
  -24.7850  -31.2120   22.4310 N   0  0  0  0  0  0  0  0  0  0  0  0
  -23.6220  -32.3130   24.0410 O   0  0  0  0  0  0  0  0  0  0  0  0
  -22.8380  -29.6200   22.8220 C   0  0  0  0  0  0  0  0  0  0  0  0
  -21.5390  -29.3590   22.5960 N   0  0  0  0  0  0  0  0  0  0  0  0
  -23.4790  -29.0710   23.7230 O   0  0  0  0  0  0  0  0  0  0  0  0
  -21.0810  -29.8560   21.8450 H   0  0  0  0  0  0  0  0  0  0  0  0
  -18.2190  -27.9450   22.8330 C   0  0  0  0  0  0  0  0  0  0  0  0
  -20.7090  -28.4160   23.3470 C   0  0  0  0  0  3  0  0  0  0  0  0
  -20.9710  -26.9610   22.8920 C   0  0  0  0  0  2  0  0  0  0  0  0
  -20.0120  -26.4900   21.7950 C   0  0  0  0  0  2  0  0  0  0  0  0
  -18.5620  -26.5720   22.2800 C   0  0  0  0  0  2  0  0  0  0  0  0
  -19.2290  -28.8170   23.3190 C   0  0  0  0  0  0  0  0  0  0  0  0
  -18.8610  -30.0960   23.7900 C   0  0  0  0  0  3  0  0  0  0  0  0
  -17.5150  -30.5050   23.7830 C   0  0  0  0  0  3  0  0  0  0  0  0
  -16.5170  -29.6330   23.3160 C   0  0  0  0  0  3  0  0  0  0  0  0
  -16.8700  -28.3550   22.8460 C   0  0  0  0  0  3  0  0  0  0  0  0
  -25.9890  -32.6530   24.1620 C   0  0  0  0  0  3  0  0  0  0  0  0
  -25.6860  -34.0560   24.4770 N   0  0  0  0  0  0  0  0  0  0  0  0
  -26.0120  -35.0970   23.6980 C   0  0  0  0  0  0  0  0  0  0  0  0
  -26.6680  -34.9770   22.6600 O   0  0  0  0  0  0  0  0  0  0  0  0
  -25.1080  -34.2220   25.2850 H   0  0  0  0  0  0  0  0  0  0  0  0
  -24.2730  -36.8820   23.3480 C   0  0  0  0  0  1  0  0  0  0  0  0
  -25.5320  -36.4930   24.1410 C   0  0  0  0  0  3  0  0  0  0  0  0
  -27.6830  -37.3950   24.9100 C   0  0  0  0  0  1  0  0  0  0  0  0
  -26.5590  -37.5480   23.9900 N   0  0  0  0  0  0  0  0  0  0  0  0
  -26.1540  -38.4690   24.1350 H   0  0  0  0  0  0  0  0  0  0  0  0
  -26.4770  -31.8880   25.4530 C   0  0  1  0  0  0  0  0  0  0  0  0
  -25.3570  -31.6350   26.4900 C   0  0  0  0  0  1  0  0  0  0  0  0
  -27.0880  -30.5180   25.0800 C   0  0  0  0  0  1  0  0  0  0  0  0
  -27.5980  -32.6950   26.1500 C   0  0  0  0  0  1  0  0  0  0  0  0
  -27.7490  -17.2600   20.1260 O   0  0  0  0  0  0  0  0  0  0  0  0
  -26.9390  -17.8580   19.1160 C   0  0  0  0  0  2  0  0  0  0  0  0
  -25.6620  -17.0330   18.9280 C   0  0  0  0  0  2  0  0  0  0  0  0
  -24.9080  -17.0910   20.0260 F   0  0  0  0  0  0  0  0  0  0  0  0
  2  1  1  0
  3  5  1  0
  4 15  1  0
  4  1  2  0
  5 45  1  0
  5  2  2  0
  6  3  2  0
  6  4  1  0
  8 13  1  0
  9 10  1  0
  9  8  1  0
 11 10  1  0
 11 20  1  0
 11 12  1  0
 13  7  1  0
 13 12  1  0
 14  7  2  0
 15  7  1  0
 16 15  1  0
 17 18  2  0
 18 19  1  0
 18 37  1  0
 19 22  1  0
 20 17  1  0
 20 21  1  0
 21 19  2  0
 22 23  1  0
 23 24  2  0
 25 28  1  0
 25 24  1  0
 26 25  2  0
 27 26  1  0
 27 22  2  0
 28 29  1  0
 29 34  2  0
 29 30  1  0
 30 31  2  0
 31 32  1  0
 32 36  1  0
 33 32  2  0
 34 33  1  0
 35 34  1  0
 37 38  1  0
 38 41  1  0
 38 40  1  0
 39 37  2  0
 42 17  1  0
 43 42  1  0
 44 42  1  0
 46 47  1  0
 46 45  1  0
 48 49  1  0
 48 47  2  0
 50 61  2  0
 51 49  1  0
 51 56  1  0
 52 60  1  0
 52 62  1  0
 53 59  1  0
 53 55  1  0
 54 60  1  0
 55 56  2  0
 55 54  1  0
 57 51  2  0
 58 57  1  0
 58 53  2  0
 59 52  1  0
 60 50  1  0
 62 64  2  0
 63 62  1  0
 65 63  1  0
 66 75  2  0
 66 71  1  0
 67 63  1  0
 68 67  1  0
 69 70  1  0
 69 68  1  0
 70 66  1  0
 71 67  1  0
 71 72  2  0
 73 72  1  0
 74 73  2  0
 75 74  1  0
 76 50  1  0
 76 77  1  0
 76 86  1  0
 77 80  1  0
 78 82  1  0
 78 77  1  0
 79 78  2  0
 82 81  1  0
 84 85  1  0
 84 82  1  0
 84 83  1  0
 86 89  1  1
 86 87  1  0
 88 86  1  0
 90  6  1  0
 91 90  1  0
 92 91  1  0
 92 93  1  0
M  ISO  4   7 100  15 100  48 101  49 101
M  END
>  <TORSDO>  (76) 
F 23

>  <SCORE>  (76) 
-10.841

>  <name>  (76) 
75

>  <ligand_id>  (76) 
75

>  <original_smiles>  (76) 
[H]c1c([H])c([H])c2c(c1[H])C([H])([H])C([H])([H])C([H])([H])C2([H])N([H])C(=O)C1([H])N(C(=O)C([H])(N([H])C(=O)C([H])(N([H])C([H])([H])[H])C([H])([H])[H])C(C([H])([H])[H])(C([H])([H])[H])C([H])([H])[H])C([H])([H])c2c([H])c(OC([H])([H])C([H])([H])C([H])([H])Oc3c([H])c([H])c(N([H])C(=O)N4C([H])([H])C([H])([H])C([H])([H])C([H])(n5nc(-c6c([H])c([H])c(Oc7c([H])c([H])c(F)c([H])c7F)c([H])c6[H])c(C(=O)N([H])[H])c5N([H])[H])C4([H])[H])c(OC([H])([H])C([H])([H])F)c3[H])c([H])c([H])c2C1([H])[H]

>  <smiles>  (76) 
[H]c1c([H])c([H])c2c(c1[H])C([H])([H])C([H])([H])C([H])([H])C2([H])N([H])C(=O)C1([H])N(C(=O)C([H])(N([H])C(=O)C([H])(N([H])C([H])([H])[H])C([H])([H])[H])C(C([H])([H])[H])(C([H])([H])[H])C([H])([H])[H])C([H])([H])c2c([H])c(OC([H])([H])C([H])([H])C([H])([H])Oc3c([H])c([H])c(N([H])C(=O)N4C([H])([H])C([H])([H])C([H])([H])C([H])(n5nc(-c6c([H])c([H])c(Oc7c([H])c([H])c(F)c([H])c7F)c([H])c6[H])c(C(=O)N([H])[H])c5N([H])[H])C4([H])[H])c(OC([H])([H])C([H])([H])F)c3[H])c([H])c([H])c2C1([H])[H]

$$$$
76:0:0
     RDKit          3D

 91 99  0  0  1  0  0  0  0  0999 V2000
  -30.7940  -18.1080   19.8880 C   0  0  0  0  0  3  0  0  0  0  0  0
  -30.4990  -19.5140   19.8020 C   0  0  0  0  0  3  0  0  0  0  0  0
  -28.4560  -17.6690   20.1790 C   0  0  0  0  0  3  0  0  0  0  0  0
  -29.7700  -17.1420   20.1030 C   0  0  0  0  0  0  0  0  0  0  0  0
  -29.1750  -20.0330   19.9270 C   0  0  0  0  0  0  0  0  0  0  0  0
  -28.1450  -19.0550   20.0900 C   0  0  0  0  0  0  0  0  0  0  0  0
  -30.7330  -14.6890   19.7990 C   0  0  0  0  0  0  0  0  0  0  0  0
  -30.5290  -12.3990   18.8310 C   0  0  0  0  0  2  0  0  0  0  0  0
  -29.5020  -12.4670   17.6740 C   0  0  0  0  0  2  0  0  0  0  0  0
  -28.0540  -12.3320   18.1930 C   0  0  0  0  0  2  0  0  0  0  0  0
  -27.7740  -13.2490   19.4120 C   0  0  0  0  0  3  0  0  0  0  0  0
  -28.8910  -13.1000   20.4680 C   0  0  0  0  0  2  0  0  0  0  0  0
  -30.1660  -13.4390   19.8140 N   0  0  0  0  0  0  0  0  0  0  0  0
  -31.8560  -14.8830   19.3200 O   0  0  0  0  0  0  0  0  0  0  0  0
  -29.8920  -15.6850   20.2330 N   0  0  0  0  0  0  0  0  0  0  0  0
  -29.0780  -15.2670   20.6540 H   0  0  0  0  0  0  0  0  0  0  0  0
  -25.4690  -13.9310   20.3290 C   0  0  0  0  0  0  0  0  0  0  0  0
  -24.3970  -13.1930   20.7500 C   0  0  0  0  0  0  0  0  0  0  0  0
  -24.7920  -11.8250   20.6390 C   0  0  0  0  0  0  0  0  0  0  0  0
  -26.4510  -13.0150   19.9840 N   0  0  0  0  0  0  0  0  0  0  0  0
  -26.0520  -11.7410   20.2310 N   0  0  0  0  0  0  0  0  0  0  0  0
  -24.0280  -10.5880   20.8380 C   0  0  0  0  0  0  0  0  0  0  0  0
  -24.4880   -9.5630   21.6960 C   0  0  0  0  0  3  0  0  0  0  0  0
  -23.7240   -8.3920   21.8850 C   0  0  0  0  0  3  0  0  0  0  0  0
  -22.4860   -8.2360   21.2160 C   0  0  0  0  0  0  0  0  0  0  0  0
  -22.0440   -9.2480   20.3450 C   0  0  0  0  0  3  0  0  0  0  0  0
  -22.8090  -10.4110   20.1530 C   0  0  0  0  0  3  0  0  0  0  0  0
  -21.6890   -7.1210   21.3200 O   0  0  0  0  0  0  0  0  0  0  0  0
  -21.7090   -6.3240   22.4360 C   0  0  0  0  0  0  0  0  0  0  0  0
  -21.4440   -6.8370   23.7240 C   0  0  0  0  0  3  0  0  0  0  0  0
  -21.4060   -5.9690   24.8340 C   0  0  0  0  0  3  0  0  0  0  0  0
  -21.6240   -4.5890   24.6570 C   0  0  0  0  0  0  0  0  0  0  0  0
  -21.8860   -4.0750   23.3760 C   0  0  0  0  0  3  0  0  0  0  0  0
  -21.9230   -4.9410   22.2670 C   0  0  0  0  0  0  0  0  0  0  0  0
  -22.1540   -4.4380   21.0310 F   0  0  0  0  0  0  0  0  0  0  0  0
  -21.5790   -3.7540   25.7210 F   0  0  0  0  0  0  0  0  0  0  0  0
  -23.0450  -13.7200   21.1400 C   0  0  0  0  0  0  0  0  0  0  0  0
  -22.3570  -13.0340   22.0470 N   0  0  0  0  0  0  0  0  0  0  0  0
  -22.6100  -14.7720   20.6740 O   0  0  0  0  0  0  0  0  0  0  0  0
  -22.7240  -12.1840   22.4460 H   0  0  0  0  0  0  0  0  0  0  0  0
  -21.4530  -13.3660   22.3500 H   0  0  0  0  0  0  0  0  0  0  0  0
  -25.6830  -15.2990   20.1840 N   0  0  0  0  0  0  0  0  0  0  0  0
  -24.9470  -15.9720   20.3640 H   0  0  0  0  0  0  0  0  0  0  0  0
  -26.4950  -15.7070   19.7430 H   0  0  0  0  0  0  0  0  0  0  0  0
  -26.2770  -20.4870   19.5360 C   0  0  0  0  0  1  0  0  0  0  0  0
  -26.8000  -19.3480   20.2100 O   0  0  0  0  0  0  0  0  0  0  0  0
  -28.8540  -21.4040   20.0650 O   0  0  0  0  0  0  0  0  0  0  0  0
  -29.1850  -22.4470   19.0940 C   0  0  0  0  0  2  0  0  0  0  0  0
  -28.7810  -23.9240   19.5740 C   0  0  0  0  0  3  0  0  0  0  0  0
  -28.7640  -25.1170   18.5160 C   0  0  0  0  0  3  0  0  0  0  0  0
  -28.6630  -26.5210   18.9870 O   0  0  0  0  0  0  0  0  0  0  0  0
  -24.6900  -31.2120   22.7460 C   0  0  0  0  0  0  0  0  0  0  0  0
  -27.4630  -27.2510   19.0600 C   0  0  0  0  0  0  0  0  0  0  0  0
  -23.5190  -29.9810   20.9550 C   0  0  0  0  0  3  0  0  0  0  0  0
  -25.0100  -28.7130   19.3100 C   0  0  0  0  0  0  0  0  0  0  0  0
  -26.0330  -30.4570   20.7710 C   0  0  0  0  0  2  0  0  0  0  0  0
  -26.1650  -29.1840   19.9440 C   0  0  0  0  0  0  0  0  0  0  0  0
  -27.3880  -28.4640   19.8120 C   0  0  0  0  0  3  0  0  0  0  0  0
  -26.2750  -26.8210   18.4250 C   0  0  0  0  0  3  0  0  0  0  0  0
  -25.0670  -27.5350   18.5460 C   0  0  0  0  0  3  0  0  0  0  0  0
  -23.7340  -29.5050   19.4940 C   0  0  0  0  0  2  0  0  0  0  0  0
  -24.7670  -30.5620   21.5480 N   0  0  0  0  0  0  0  0  0  0  0  0
  -23.6070  -31.3560   23.3330 O   0  0  0  0  0  0  0  0  0  0  0  0
  -22.9310  -28.8120   21.7810 C   0  0  0  0  0  0  0  0  0  0  0  0
  -21.6100  -28.5980   21.6710 N   0  0  0  0  0  0  0  0  0  0  0  0
  -23.6630  -28.1070   22.4810 O   0  0  0  0  0  0  0  0  0  0  0  0
  -21.0740  -29.2230   21.0840 H   0  0  0  0  0  0  0  0  0  0  0  0
  -18.2990  -27.2080   22.1060 C   0  0  0  0  0  0  0  0  0  0  0  0
  -20.8550  -27.5290   22.3260 C   0  0  0  0  0  3  0  0  0  0  0  0
  -20.9860  -26.1980   21.5500 C   0  0  0  0  0  2  0  0  0  0  0  0
  -19.8570  -25.9790   20.5360 C   0  0  0  0  0  2  0  0  0  0  0  0
  -18.4970  -25.9760   21.2390 C   0  0  0  0  0  2  0  0  0  0  0  0
  -19.4070  -27.9440   22.6040 C   0  0  0  0  0  0  0  0  0  0  0  0
  -19.1660  -29.1000   23.3790 C   0  0  0  0  0  3  0  0  0  0  0  0
  -17.8530  -29.5220   23.6570 C   0  0  0  0  0  3  0  0  0  0  0  0
  -16.7610  -28.7800   23.1750 C   0  0  0  0  0  3  0  0  0  0  0  0
  -16.9850  -27.6250   22.4070 C   0  0  0  0  0  3  0  0  0  0  0  0
  -25.9540  -31.8220   23.4260 C   0  0  0  0  0  3  0  0  0  0  0  0
  -25.5640  -33.1120   24.0130 N   0  0  0  0  0  0  0  0  0  0  0  0
  -25.8240  -34.3080   23.4670 C   0  0  0  0  0  0  0  0  0  0  0  0
  -26.4870  -34.4420   22.4350 O   0  0  0  0  0  0  0  0  0  0  0  0
  -24.9710  -33.0750   24.8270 H   0  0  0  0  0  0  0  0  0  0  0  0
  -23.9940  -36.0330   23.4510 C   0  0  0  0  0  1  0  0  0  0  0  0
  -25.2590  -35.5510   24.1790 C   0  0  0  0  0  3  0  0  0  0  0  0
  -27.3420  -36.3810   25.1790 C   0  0  0  0  0  1  0  0  0  0  0  0
  -26.2280  -36.6640   24.2770 N   0  0  0  0  0  0  0  0  0  0  0  0
  -25.7700  -37.5120   24.5970 H   0  0  0  0  0  0  0  0  0  0  0  0
  -26.5860  -30.8810   24.5240 C   0  0  1  0  0  0  0  0  0  0  0  0
  -25.5680  -30.3810   25.5740 C   0  0  0  0  0  1  0  0  0  0  0  0
  -27.2400  -29.6400   23.8720 C   0  0  0  0  0  1  0  0  0  0  0  0
  -27.7130  -31.6310   25.2710 C   0  0  0  0  0  1  0  0  0  0  0  0
  1  4  1  0
  2  1  2  0
  2  5  1  0
  4  3  2  0
  4 15  1  0
  5 47  1  0
  5  6  2  0
  6  3  1  0
  6 46  1  0
  7 13  1  0
  7 15  1  0
  8 13  1  0
  9 10  1  0
  9  8  1  0
 11 10  1  0
 11 20  1  0
 11 12  1  0
 13 12  1  0
 14  7  2  0
 15 16  1  0
 17 18  2  0
 18 37  1  0
 19 18  1  0
 19 22  1  0
 20 21  1  0
 20 17  1  0
 21 19  2  0
 22 23  1  0
 23 24  2  0
 25 28  1  0
 25 24  1  0
 26 25  2  0
 27 26  1  0
 27 22  2  0
 28 29  1  0
 29 30  1  0
 30 31  2  0
 32 31  1  0
 32 36  1  0
 33 32  2  0
 34 29  2  0
 34 33  1  0
 35 34  1  0
 37 38  1  0
 38 41  1  0
 38 40  1  0
 39 37  2  0
 42 17  1  0
 42 43  1  0
 44 42  1  0
 45 46  1  0
 48 49  1  0
 48 47  1  0
 50 51  1  0
 50 49  2  0
 51 53  1  0
 52 63  2  0
 53 58  1  0
 54 62  1  0
 54 64  1  0
 55 61  1  0
 55 57  1  0
 56 62  1  0
 57 56  1  0
 58 57  2  0
 59 60  1  0
 59 53  2  0
 60 55  2  0
 61 54  1  0
 62 52  1  0
 64 66  2  0
 65 64  1  0
 67 65  1  0
 68 77  2  0
 68 73  1  0
 69 65  1  0
 69 73  1  0
 70 69  1  0
 71 72  1  0
 71 70  1  0
 72 68  1  0
 73 74  2  0
 74 75  1  0
 76 75  2  0
 77 76  1  0
 78 52  1  0
 78 79  1  0
 78 88  1  0
 79 82  1  0
 80 79  1  0
 80 84  1  0
 81 80  2  0
 84 83  1  0
 84 86  1  0
 86 87  1  0
 86 85  1  0
 88 91  1  1
 88 89  1  0
 90 88  1  0
M  ISO  4   7 100  15 100  50 101  51 101
M  END
>  <TORSDO>  (77) 
F 21

>  <SCORE>  (77) 
-10.078

>  <name>  (77) 
76

>  <ligand_id>  (77) 
76

>  <original_smiles>  (77) 
[H]c1c([H])c([H])c2c(c1[H])C([H])([H])C([H])([H])C([H])([H])C2([H])N([H])C(=O)C1([H])N(C(=O)C([H])(N([H])C(=O)C([H])(N([H])C([H])([H])[H])C([H])([H])[H])C(C([H])([H])[H])(C([H])([H])[H])C([H])([H])[H])C([H])([H])c2c([H])c(OC([H])([H])C([H])([H])C([H])([H])Oc3c([H])c([H])c(N([H])C(=O)N4C([H])([H])C([H])([H])C([H])([H])C([H])(n5nc(-c6c([H])c([H])c(Oc7c([H])c([H])c(F)c([H])c7F)c([H])c6[H])c(C(=O)N([H])[H])c5N([H])[H])C4([H])[H])c([H])c3OC([H])([H])[H])c([H])c([H])c2C1([H])[H]

>  <smiles>  (77) 
[H]c1c([H])c([H])c2c(c1[H])C([H])([H])C([H])([H])C([H])([H])C2([H])N([H])C(=O)C1([H])N(C(=O)C([H])(N([H])C(=O)C([H])(N([H])C([H])([H])[H])C([H])([H])[H])C(C([H])([H])[H])(C([H])([H])[H])C([H])([H])[H])C([H])([H])c2c([H])c(OC([H])([H])C([H])([H])C([H])([H])Oc3c([H])c([H])c(N([H])C(=O)N4C([H])([H])C([H])([H])C([H])([H])C([H])(n5nc(-c6c([H])c([H])c(Oc7c([H])c([H])c(F)c([H])c7F)c([H])c6[H])c(C(=O)N([H])[H])c5N([H])[H])C4([H])[H])c([H])c3OC([H])([H])[H])c([H])c([H])c2C1([H])[H]

$$$$
77:0:0
     RDKit          3D

 89 97  0  0  1  0  0  0  0  0999 V2000
  -28.7430  -21.3740   21.0060 O   0  0  0  0  0  0  0  0  0  0  0  0
  -30.6060  -18.2980   19.7180 C   0  0  0  0  0  3  0  0  0  0  0  0
  -28.6320  -17.6000   20.8990 C   0  0  0  0  0  3  0  0  0  0  0  0
  -30.2860  -19.6690   19.9710 C   0  0  0  0  0  3  0  0  0  0  0  0
  -28.3290  -18.9690   21.1680 C   0  0  0  0  0  3  0  0  0  0  0  0
  -29.7750  -17.2220   20.1520 C   0  0  0  0  0  0  0  0  0  0  0  0
  -29.1220  -20.0490   20.6900 C   0  0  0  0  0  0  0  0  0  0  0  0
  -30.6750  -14.8170   19.9440 C   0  0  0  0  0  0  0  0  0  0  0  0
  -30.4590  -12.5200   19.0130 C   0  0  0  0  0  2  0  0  0  0  0  0
  -29.4710  -12.5230   17.8260 C   0  0  0  0  0  2  0  0  0  0  0  0
  -28.0060  -12.4430   18.3130 C   0  0  0  0  0  2  0  0  0  0  0  0
  -27.6840  -13.3340   19.5470 C   0  0  0  0  0  3  0  0  0  0  0  0
  -28.7950  -13.2650   20.6140 C   0  0  0  0  0  2  0  0  0  0  0  0
  -30.0540  -13.5930   19.9400 N   0  0  0  0  0  0  0  0  0  0  0  0
  -31.8950  -14.8950   19.7630 O   0  0  0  0  0  0  0  0  0  0  0  0
  -29.6910  -15.9800   18.0910 C   0  0  0  0  0  1  0  0  0  0  0  0
  -29.8800  -15.8870   19.5530 N   0  0  0  0  0  0  0  0  0  0  0  0
  -25.3240  -13.9170   20.3730 C   0  0  0  0  0  0  0  0  0  0  0  0
  -24.2770  -13.1340   20.7760 C   0  0  0  0  0  0  0  0  0  0  0  0
  -24.7460  -11.7850   20.7190 C   0  0  0  0  0  0  0  0  0  0  0  0
  -26.3640  -13.0430   20.0950 N   0  0  0  0  0  0  0  0  0  0  0  0
  -26.0250  -11.7560   20.3680 N   0  0  0  0  0  0  0  0  0  0  0  0
  -24.0350  -10.5170   20.9220 C   0  0  0  0  0  0  0  0  0  0  0  0
  -24.4870   -9.5600   21.8570 C   0  0  0  0  0  3  0  0  0  0  0  0
  -23.7760   -8.3550   22.0460 C   0  0  0  0  0  3  0  0  0  0  0  0
  -22.6010   -8.1010   21.3020 C   0  0  0  0  0  0  0  0  0  0  0  0
  -22.1670   -9.0470   20.3560 C   0  0  0  0  0  3  0  0  0  0  0  0
  -22.8780  -10.2440   20.1650 C   0  0  0  0  0  3  0  0  0  0  0  0
  -21.8600   -6.9460   21.4010 O   0  0  0  0  0  0  0  0  0  0  0  0
  -21.7910   -6.2360   22.5720 C   0  0  0  0  0  0  0  0  0  0  0  0
  -21.3120   -6.8150   23.7690 C   0  0  0  0  0  3  0  0  0  0  0  0
  -21.1920   -6.0300   24.9330 C   0  0  0  0  0  3  0  0  0  0  0  0
  -21.5400   -4.6650   24.9010 C   0  0  0  0  0  0  0  0  0  0  0  0
  -22.0130   -4.0870   23.7100 C   0  0  0  0  0  3  0  0  0  0  0  0
  -22.1340   -4.8690   22.5480 C   0  0  0  0  0  0  0  0  0  0  0  0
  -22.5700   -4.3010   21.3980 F   0  0  0  0  0  0  0  0  0  0  0  0
  -21.4180   -3.9070   26.0160 F   0  0  0  0  0  0  0  0  0  0  0  0
  -22.8870  -13.6020   21.1000 C   0  0  0  0  0  0  0  0  0  0  0  0
  -22.1970  -12.9040   21.9950 N   0  0  0  0  0  0  0  0  0  0  0  0
  -22.4230  -14.6230   20.5940 O   0  0  0  0  0  0  0  0  0  0  0  0
  -22.5790  -12.0740   22.4240 H   0  0  0  0  0  0  0  0  0  0  0  0
  -21.2710  -13.2110   22.2610 H   0  0  0  0  0  0  0  0  0  0  0  0
  -25.4730  -15.2880   20.1930 N   0  0  0  0  0  0  0  0  0  0  0  0
  -24.6970  -15.9340   20.3020 H   0  0  0  0  0  0  0  0  0  0  0  0
  -26.2950  -15.7230   19.7930 H   0  0  0  0  0  0  0  0  0  0  0  0
  -28.9530  -22.5120   20.1040 C   0  0  0  0  0  3  0  0  0  0  0  0
  -28.5500  -23.9560   20.6780 C   0  0  0  0  0  3  0  0  0  0  0  0
  -28.5640  -25.2010   19.6740 C   0  0  0  0  0  2  0  0  0  0  0  0
  -28.4610  -26.6000   20.1730 O   0  0  0  0  0  0  0  0  0  0  0  0
  -24.5710  -31.8730   23.1470 C   0  0  0  0  0  0  0  0  0  0  0  0
  -27.3000  -27.3900   20.0880 C   0  0  0  0  0  0  0  0  0  0  0  0
  -23.4150  -30.4790   21.4700 C   0  0  0  0  0  3  0  0  0  0  0  0
  -24.9100  -28.9700   20.0460 C   0  0  0  0  0  0  0  0  0  0  0  0
  -25.9500  -30.8440   21.3230 C   0  0  0  0  0  2  0  0  0  0  0  0
  -26.0610  -29.4750   20.6620 C   0  0  0  0  0  0  0  0  0  0  0  0
  -27.2570  -28.6970   20.6670 C   0  0  0  0  0  3  0  0  0  0  0  0
  -26.1180  -26.9310   19.4650 C   0  0  0  0  0  3  0  0  0  0  0  0
  -24.9400  -27.7030   19.4430 C   0  0  0  0  0  3  0  0  0  0  0  0
  -23.6640  -29.8330   20.0810 C   0  0  0  0  0  2  0  0  0  0  0  0
  -24.6640  -31.0830   22.0370 N   0  0  0  0  0  0  0  0  0  0  0  0
  -23.4760  -32.1220   23.6710 O   0  0  0  0  0  0  0  0  0  0  0  0
  -22.7560  -29.4350   22.4030 C   0  0  0  0  0  0  0  0  0  0  0  0
  -21.4310  -29.2500   22.2650 N   0  0  0  0  0  0  0  0  0  0  0  0
  -23.4340  -28.7990   23.2140 O   0  0  0  0  0  0  0  0  0  0  0  0
  -20.9400  -29.8240   21.5920 H   0  0  0  0  0  0  0  0  0  0  0  0
  -18.0580  -28.0280   22.7360 C   0  0  0  0  0  0  0  0  0  0  0  0
  -20.6160  -28.2910   23.0120 C   0  0  0  0  0  3  0  0  0  0  0  0
  -20.7220  -26.8730   22.4050 C   0  0  0  0  0  2  0  0  0  0  0  0
  -19.6220  -26.5710   21.3820 C   0  0  0  0  0  2  0  0  0  0  0  0
  -18.2400  -26.6950   22.0290 C   0  0  0  0  0  2  0  0  0  0  0  0
  -19.1740  -28.7830   23.1850 C   0  0  0  0  0  0  0  0  0  0  0  0
  -18.9510  -30.0300   23.8100 C   0  0  0  0  0  3  0  0  0  0  0  0
  -17.6440  -30.5220   23.9870 C   0  0  0  0  0  3  0  0  0  0  0  0
  -16.5420  -29.7640   23.5530 C   0  0  0  0  0  3  0  0  0  0  0  0
  -16.7500  -28.5190   22.9350 C   0  0  0  0  0  3  0  0  0  0  0  0
  -25.8340  -32.5180   23.7970 C   0  0  0  0  0  3  0  0  0  0  0  0
  -26.3420  -31.7420   25.0750 C   0  0  1  0  0  0  0  0  0  0  0  0
  -25.2390  -31.4730   26.1260 C   0  0  0  0  0  1  0  0  0  0  0  0
  -26.9550  -30.3800   24.6780 C   0  0  0  0  0  1  0  0  0  0  0  0
  -27.4670  -32.5480   25.7630 C   0  0  0  0  0  1  0  0  0  0  0  0
  -25.4980  -33.9080   24.1390 N   0  0  0  0  0  0  0  0  0  0  0  0
  -25.8180  -34.9740   23.3930 C   0  0  0  0  0  0  0  0  0  0  0  0
  -26.4990  -34.8930   22.3680 O   0  0  0  0  0  0  0  0  0  0  0  0
  -24.9030  -34.0440   24.9420 H   0  0  0  0  0  0  0  0  0  0  0  0
  -24.0690  -36.7450   23.0290 C   0  0  0  0  0  1  0  0  0  0  0  0
  -25.3010  -36.3500   23.8580 C   0  0  0  0  0  3  0  0  0  0  0  0
  -27.4060  -37.2620   24.7370 C   0  0  0  0  0  1  0  0  0  0  0  0
  -26.3200  -37.4210   23.7740 N   0  0  0  0  0  0  0  0  0  0  0  0
  -25.8960  -38.3340   23.9230 H   0  0  0  0  0  0  0  0  0  0  0  0
  2  4  2  0
  2  6  1  0
  3  5  1  0
  4  7  1  0
  6  3  2  0
  7  1  1  0
  7  5  2  0
  9 14  1  0
 10 11  1  0
 10  9  1  0
 12 11  1  0
 12 21  1  0
 12 13  1  0
 14  8  1  0
 14 13  1  0
 15  8  2  0
 16 17  1  0
 17  8  1  0
 17  6  1  0
 18 19  2  0
 19 38  1  0
 20 19  1  0
 20 23  1  0
 21 22  1  0
 21 18  1  0
 22 20  2  0
 23 24  1  0
 24 25  2  0
 26 29  1  0
 26 25  1  0
 27 26  2  0
 28 27  1  0
 28 23  2  0
 29 30  1  0
 30 31  1  0
 31 32  2  0
 33 32  1  0
 33 37  1  0
 34 33  2  0
 35 30  2  0
 35 34  1  0
 36 35  1  0
 38 39  1  0
 39 42  1  0
 39 41  1  0
 40 38  2  0
 43 44  1  0
 43 18  1  0
 45 43  1  0
 46 47  2  0
 46  1  1  0
 48 49  1  0
 48 47  1  0
 50 61  2  0
 51 49  1  0
 51 56  1  0
 52 60  1  0
 52 62  1  0
 53 59  1  0
 53 55  1  0
 54 60  1  0
 55 56  2  0
 55 54  1  0
 57 51  2  0
 58 57  1  0
 58 53  2  0
 59 52  1  0
 60 50  1  0
 62 64  2  0
 63 62  1  0
 65 63  1  0
 66 75  2  0
 66 71  1  0
 67 63  1  0
 67 71  1  0
 68 67  1  0
 69 70  1  0
 69 68  1  0
 70 66  1  0
 71 72  2  0
 72 73  1  0
 74 73  2  0
 75 74  1  0
 76 50  1  0
 76 81  1  0
 76 77  1  0
 77 80  1  1
 77 78  1  0
 79 77  1  0
 81 84  1  0
 82 86  1  0
 82 81  1  0
 83 82  2  0
 86 85  1  0
 88 86  1  0
 88 89  1  0
 88 87  1  0
M  ISO  4   8 100  17 100  48 101  49 101
M  END
>  <TORSDO>  (78) 
F 20

>  <SCORE>  (78) 
-12.025

>  <name>  (78) 
77

>  <ligand_id>  (78) 
77

>  <original_smiles>  (78) 
[H]c1c([H])c([H])c2c(c1[H])C([H])([H])C([H])([H])C([H])([H])C2([H])N([H])C(=O)C1([H])N(C(=O)C([H])(N([H])C(=O)C([H])(N([H])C([H])([H])[H])C([H])([H])[H])C(C([H])([H])[H])(C([H])([H])[H])C([H])([H])[H])C([H])([H])c2c([H])c(OC([H])([H])C([H])([H])C([H])([H])Oc3c([H])c([H])c(N(C(=O)N4C([H])([H])C([H])([H])C([H])([H])C([H])(n5nc(-c6c([H])c([H])c(Oc7c([H])c([H])c(F)c([H])c7F)c([H])c6[H])c(C(=O)N([H])[H])c5N([H])[H])C4([H])[H])C([H])([H])[H])c([H])c3[H])c([H])c([H])c2C1([H])[H]

>  <smiles>  (78) 
[H]c1c([H])c([H])c2c(c1[H])C([H])([H])C([H])([H])C([H])([H])C2([H])N([H])C(=O)C1([H])N(C(=O)C([H])(N([H])C(=O)C([H])(N([H])C([H])([H])[H])C([H])([H])[H])C(C([H])([H])[H])(C([H])([H])[H])C([H])([H])[H])C([H])([H])c2c([H])c(OC([H])([H])C([H])([H])C([H])([H])Oc3c([H])c([H])c(N(C(=O)N4C([H])([H])C([H])([H])C([H])([H])C([H])(n5nc(-c6c([H])c([H])c(Oc7c([H])c([H])c(F)c([H])c7F)c([H])c6[H])c(C(=O)N([H])[H])c5N([H])[H])C4([H])[H])C([H])([H])[H])c([H])c3[H])c([H])c([H])c2C1([H])[H]

$$$$
78:0:0
     RDKit          3D

 94103  0  0  1  0  0  0  0  0999 V2000
  -27.1150  -18.9990   19.4430 C   0  0  0  0  0  3  0  0  0  0  0  0
  -26.3600  -20.1950   19.5750 C   0  0  0  0  0  3  0  0  0  0  0  0
  -28.0740  -21.4410   18.3930 C   0  0  0  0  0  3  0  0  0  0  0  0
  -28.3890  -19.0280   18.8060 C   0  0  0  0  0  0  0  0  0  0  0  0
  -26.8660  -21.4370   19.1160 C   0  0  0  0  0  0  0  0  0  0  0  0
  -28.8240  -20.2560   18.2480 C   0  0  0  0  0  0  0  0  0  0  0  0
  -30.0080  -20.3290   17.5810 F   0  0  0  0  0  0  0  0  0  0  0  0
  -29.3110  -17.8130   18.5510 C   0  0  0  0  0  2  0  0  0  0  0  0
  -29.2130  -16.3730   19.2650 C   0  0  0  0  0  2  0  0  0  0  0  0
  -31.0540  -14.6820   19.8830 C   0  0  0  0  0  0  0  0  0  0  0  0
  -30.8500  -12.3960   18.9710 C   0  0  0  0  0  2  0  0  0  0  0  0
  -29.8730  -12.4540   17.7760 C   0  0  0  0  0  2  0  0  0  0  0  0
  -28.4100  -12.3230   18.2460 C   0  0  0  0  0  2  0  0  0  0  0  0
  -28.0900  -13.2380   19.4560 C   0  0  0  0  0  3  0  0  0  0  0  0
  -29.1780  -13.1490   20.5440 C   0  0  0  0  0  2  0  0  0  0  0  0
  -30.4560  -13.4600   19.9070 N   0  0  0  0  0  0  0  0  0  0  0  0
  -32.1890  -14.8530   19.4430 O   0  0  0  0  0  0  0  0  0  0  0  0
  -30.2470  -15.7540   20.2080 N   0  0  0  0  0  0  0  0  0  0  0  0
  -25.7740  -13.9100   20.3280 C   0  0  0  0  0  0  0  0  0  0  0  0
  -24.7110  -13.1590   20.7450 C   0  0  0  0  0  0  0  0  0  0  0  0
  -25.1310  -11.7940   20.6570 C   0  0  0  0  0  0  0  0  0  0  0  0
  -26.7680  -12.9980   20.0090 N   0  0  0  0  0  0  0  0  0  0  0  0
  -26.3970  -11.7230   20.2730 N   0  0  0  0  0  0  0  0  0  0  0  0
  -24.3890  -10.5460   20.8620 C   0  0  0  0  0  0  0  0  0  0  0  0
  -24.7730   -9.6130   21.8500 C   0  0  0  0  0  3  0  0  0  0  0  0
  -24.0350   -8.4260   22.0330 C   0  0  0  0  0  3  0  0  0  0  0  0
  -22.9030   -8.1630   21.2240 C   0  0  0  0  0  0  0  0  0  0  0  0
  -22.5410   -9.0860   20.2260 C   0  0  0  0  0  3  0  0  0  0  0  0
  -23.2800  -10.2650   20.0420 C   0  0  0  0  0  3  0  0  0  0  0  0
  -22.1380   -7.0240   21.3140 O   0  0  0  0  0  0  0  0  0  0  0  0
  -21.9360   -6.3910   22.5130 C   0  0  0  0  0  0  0  0  0  0  0  0
  -21.3130   -7.0340   23.6050 C   0  0  0  0  0  3  0  0  0  0  0  0
  -21.0610   -6.3190   24.7910 C   0  0  0  0  0  3  0  0  0  0  0  0
  -21.4260   -4.9640   24.8890 C   0  0  0  0  0  0  0  0  0  0  0  0
  -22.0420   -4.3190   23.8010 C   0  0  0  0  0  3  0  0  0  0  0  0
  -22.2950   -5.0310   22.6160 C   0  0  0  0  0  0  0  0  0  0  0  0
  -22.8690   -4.3980   21.5640 F   0  0  0  0  0  0  0  0  0  0  0  0
  -21.1770   -4.2750   26.0290 F   0  0  0  0  0  0  0  0  0  0  0  0
  -23.3390  -13.6620   21.0960 C   0  0  0  0  0  0  0  0  0  0  0  0
  -22.6520  -12.9850   22.0080 N   0  0  0  0  0  0  0  0  0  0  0  0
  -22.8920  -14.6970   20.5990 O   0  0  0  0  0  0  0  0  0  0  0  0
  -23.0290  -12.1520   22.4340 H   0  0  0  0  0  0  0  0  0  0  0  0
  -21.7360  -13.3040   22.2820 H   0  0  0  0  0  0  0  0  0  0  0  0
  -25.9730  -15.2780   20.1710 N   0  0  0  0  0  0  0  0  0  0  0  0
  -25.2410  -15.9540   20.3400 H   0  0  0  0  0  0  0  0  0  0  0  0
  -26.8220  -15.6790   19.8050 H   0  0  0  0  0  0  0  0  0  0  0  0
  -31.5950  -17.2940   21.6620 C   0  0  0  0  0  2  0  0  0  0  0  0
  -30.1860  -17.7840   21.8510 C   0  0  0  0  0  2  0  0  0  0  0  0
  -30.4390  -16.3290   21.5160 C   0  0  0  0  0  3  0  0  0  0  0  0
  -26.3120  -22.6620   19.4470 O   0  0  0  0  0  0  0  0  0  0  0  0
  -26.7870  -23.1620   20.7210 C   0  0  0  0  0  2  0  0  0  0  0  0
  -26.8210  -24.7170   20.8730 C   0  0  0  0  0  2  0  0  0  0  0  0
  -28.2220  -25.4830   20.7620 C   0  0  0  0  0  2  0  0  0  0  0  0
  -28.4430  -26.5980   19.8390 O   0  0  0  0  0  0  0  0  0  0  0  0
  -24.5960  -31.6860   23.0400 C   0  0  0  0  0  0  0  0  0  0  0  0
  -27.4030  -27.4880   19.7600 C   0  0  0  0  0  0  0  0  0  0  0  0
  -23.4740  -30.3540   21.2800 C   0  0  0  0  0  3  0  0  0  0  0  0
  -25.0090  -28.9700   19.7840 C   0  0  0  0  0  0  0  0  0  0  0  0
  -25.9910  -30.7760   21.1900 C   0  0  0  0  0  2  0  0  0  0  0  0
  -26.1270  -29.4520   20.4620 C   0  0  0  0  0  0  0  0  0  0  0  0
  -27.3400  -28.7150   20.4660 C   0  0  0  0  0  3  0  0  0  0  0  0
  -26.3050  -27.0990   18.9730 C   0  0  0  0  0  3  0  0  0  0  0  0
  -25.1020  -27.8070   19.0060 C   0  0  0  0  0  3  0  0  0  0  0  0
  -23.7240  -29.7480   19.8680 C   0  0  0  0  0  2  0  0  0  0  0  0
  -24.6990  -30.9540   21.8920 N   0  0  0  0  0  0  0  0  0  0  0  0
  -23.4990  -31.9010   23.5680 O   0  0  0  0  0  0  0  0  0  0  0  0
  -22.8290  -29.2660   22.1600 C   0  0  0  0  0  0  0  0  0  0  0  0
  -21.5020  -29.1180   22.0450 N   0  0  0  0  0  0  0  0  0  0  0  0
  -23.5200  -28.5600   22.9060 O   0  0  0  0  0  0  0  0  0  0  0  0
  -21.0170  -29.7070   21.3840 H   0  0  0  0  0  0  0  0  0  0  0  0
  -18.1110  -28.0080   22.6160 C   0  0  0  0  0  0  0  0  0  0  0  0
  -20.6850  -28.1300   22.7480 C   0  0  0  0  0  3  0  0  0  0  0  0
  -20.6920  -26.7790   21.9960 C   0  0  0  0  0  2  0  0  0  0  0  0
  -19.5200  -26.6300   21.0220 C   0  0  0  0  0  2  0  0  0  0  0  0
  -18.1860  -26.7470   21.7690 C   0  0  0  0  0  2  0  0  0  0  0  0
  -19.2870  -28.6680   23.0590 C   0  0  0  0  0  0  0  0  0  0  0  0
  -19.1660  -29.8520   23.8150 C   0  0  0  0  0  3  0  0  0  0  0  0
  -17.9010  -30.3790   24.1310 C   0  0  0  0  0  3  0  0  0  0  0  0
  -16.7370  -29.7150   23.7020 C   0  0  0  0  0  3  0  0  0  0  0  0
  -16.8430  -28.5300   22.9470 C   0  0  0  0  0  3  0  0  0  0  0  0
  -25.8520  -32.3000   23.7230 C   0  0  0  0  0  3  0  0  0  0  0  0
  -25.5160  -33.6760   24.1110 N   0  0  0  0  0  0  0  0  0  0  0  0
  -25.8620  -34.7690   23.4150 C   0  0  0  0  0  0  0  0  0  0  0  0
  -26.5640  -34.7270   22.4060 O   0  0  0  0  0  0  0  0  0  0  0  0
  -24.8700  -33.7870   24.8760 H   0  0  0  0  0  0  0  0  0  0  0  0
  -24.1030  -36.5390   23.0920 C   0  0  0  0  0  1  0  0  0  0  0  0
  -25.3300  -36.1230   23.9220 C   0  0  0  0  0  3  0  0  0  0  0  0
  -27.4150  -37.0040   24.8720 C   0  0  0  0  0  1  0  0  0  0  0  0
  -26.3490  -37.1990   23.8900 N   0  0  0  0  0  0  0  0  0  0  0  0
  -25.9230  -38.1090   24.0570 H   0  0  0  0  0  0  0  0  0  0  0  0
  -26.3540  -31.4730   24.9720 C   0  0  1  0  0  0  0  0  0  0  0  0
  -25.2300  -31.1660   25.9890 C   0  0  0  0  0  1  0  0  0  0  0  0
  -26.9740  -30.1210   24.5440 C   0  0  0  0  0  1  0  0  0  0  0  0
  -27.4870  -32.2520   25.6950 C   0  0  0  0  0  1  0  0  0  0  0  0
  1  2  1  0
  3  5  1  0
  4  1  2  0
  5 50  1  0
  5  2  2  0
  6  3  2  0
  6  4  1  0
  7  6  1  0
  8  4  1  0
  8  9  1  0
  9 18  1  0
 10 16  1  0
 10 18  1  0
 11 16  1  0
 12 13  1  0
 12 11  1  0
 14 13  1  0
 14 22  1  0
 14 15  1  0
 16 15  1  0
 17 10  2  0
 18 49  1  0
 19 20  2  0
 20 39  1  0
 21 20  1  0
 21 24  1  0
 22 23  1  0
 22 19  1  0
 23 21  2  0
 24 25  1  0
 25 26  2  0
 27 30  1  0
 27 26  1  0
 28 27  2  0
 29 28  1  0
 29 24  2  0
 30 31  1  0
 31 36  2  0
 31 32  1  0
 32 33  2  0
 33 34  1  0
 34 38  1  0
 35 34  2  0
 36 35  1  0
 37 36  1  0
 39 40  1  0
 40 43  1  0
 40 42  1  0
 41 39  2  0
 44 19  1  0
 44 45  1  0
 46 44  1  0
 47 48  1  0
 49 47  1  0
 49 48  1  0
 50 51  1  0
 51 52  1  0
 53 52  1  0
 54 53  1  0
 55 66  2  0
 56 54  1  0
 56 61  1  0
 57 65  1  0
 57 67  1  0
 58 64  1  0
 58 60  1  0
 59 65  1  0
 60 61  2  0
 60 59  1  0
 62 63  1  0
 62 56  2  0
 63 58  2  0
 64 57  1  0
 65 55  1  0
 67 69  2  0
 68 67  1  0
 70 68  1  0
 71 80  2  0
 71 76  1  0
 72 68  1  0
 72 76  1  0
 73 72  1  0
 74 75  1  0
 74 73  1  0
 75 71  1  0
 76 77  2  0
 77 78  1  0
 79 78  2  0
 80 79  1  0
 81 55  1  0
 81 82  1  0
 81 91  1  0
 82 85  1  0
 83 87  1  0
 83 82  1  0
 84 83  2  0
 87 86  1  0
 89 87  1  0
 89 90  1  0
 89 88  1  0
 91 94  1  1
 91 92  1  0
 93 91  1  0
M  ISO  4  10 100  18 100  53 101  54 101
M  END
>  <TORSDO>  (79) 
F 23

>  <SCORE>  (79) 
-11.257

>  <name>  (79) 
78

>  <ligand_id>  (79) 
78

>  <original_smiles>  (79) 
[H]c1c([H])c([H])c2c(c1[H])C([H])([H])C([H])([H])C([H])([H])C2([H])N([H])C(=O)C1([H])N(C(=O)C([H])(N([H])C(=O)C([H])(N([H])C([H])([H])[H])C([H])([H])[H])C(C([H])([H])[H])(C([H])([H])[H])C([H])([H])[H])C([H])([H])c2c([H])c(OC([H])([H])C([H])([H])C([H])([H])Oc3c([H])c([H])c(C([H])([H])C([H])([H])N(C(=O)N4C([H])([H])C([H])([H])C([H])([H])C([H])(n5nc(-c6c([H])c([H])c(Oc7c([H])c([H])c(F)c([H])c7F)c([H])c6[H])c(C(=O)N([H])[H])c5N([H])[H])C4([H])[H])C4([H])C([H])([H])C4([H])[H])c(F)c3[H])c([H])c([H])c2C1([H])[H]

>  <smiles>  (79) 
[H]c1c([H])c([H])c2c(c1[H])C([H])([H])C([H])([H])C([H])([H])C2([H])N([H])C(=O)C1([H])N(C(=O)C([H])(N([H])C(=O)C([H])(N([H])C([H])([H])[H])C([H])([H])[H])C(C([H])([H])[H])(C([H])([H])[H])C([H])([H])[H])C([H])([H])c2c([H])c(OC([H])([H])C([H])([H])C([H])([H])Oc3c([H])c([H])c(C([H])([H])C([H])([H])N(C(=O)N4C([H])([H])C([H])([H])C([H])([H])C([H])(n5nc(-c6c([H])c([H])c(Oc7c([H])c([H])c(F)c([H])c7F)c([H])c6[H])c(C(=O)N([H])[H])c5N([H])[H])C4([H])[H])C4([H])C([H])([H])C4([H])[H])c(F)c3[H])c([H])c([H])c2C1([H])[H]

$$$$
79:0:0
     RDKit          3D

 94102  0  0  1  0  0  0  0  0999 V2000
  -30.2620  -18.4040   20.9080 C   0  0  0  0  0  3  0  0  0  0  0  0
  -28.5360  -19.9650   20.1930 C   0  0  0  0  0  3  0  0  0  0  0  0
  -29.6510  -19.6990   21.0150 C   0  0  0  0  0  0  0  0  0  0  0  0
  -29.8520  -17.4480   19.9180 C   0  0  0  0  0  0  0  0  0  0  0  0
  -28.1290  -19.0720   19.1900 C   0  0  0  0  0  0  0  0  0  0  0  0
  -28.8210  -17.8460   19.0160 C   0  0  0  0  0  0  0  0  0  0  0  0
  -28.5430  -16.9630   17.5500 Cl  0  0  0  0  0  0  0  0  0  0  0  0
  -31.1290  -15.2470   20.2870 C   0  0  0  0  0  0  0  0  0  0  0  0
  -30.7580  -13.1710   19.0400 C   0  0  0  0  0  2  0  0  0  0  0  0
  -29.7640  -13.4670   17.9020 C   0  0  0  0  0  2  0  0  0  0  0  0
  -28.3090  -13.3220   18.3890 C   0  0  0  0  0  2  0  0  0  0  0  0
  -28.0280  -13.9850   19.7690 C   0  0  0  0  0  3  0  0  0  0  0  0
  -29.1550  -13.7140   20.7840 C   0  0  0  0  0  2  0  0  0  0  0  0
  -30.4120  -14.0950   20.1270 N   0  0  0  0  0  0  0  0  0  0  0  0
  -32.3490  -15.1900   20.4470 O   0  0  0  0  0  0  0  0  0  0  0  0
  -31.5760  -16.6910   18.4110 C   0  0  0  0  0  1  0  0  0  0  0  0
  -30.6900  -16.3230   19.5360 N   0  0  0  0  0  0  0  0  0  0  0  0
  -25.6300  -14.4790   20.5450 C   0  0  0  0  0  0  0  0  0  0  0  0
  -24.5830  -13.6580   20.8580 C   0  0  0  0  0  0  0  0  0  0  0  0
  -25.0860  -12.3250   20.7660 C   0  0  0  0  0  0  0  0  0  0  0  0
  -26.6990  -13.6420   20.2670 N   0  0  0  0  0  0  0  0  0  0  0  0
  -26.3780  -12.3390   20.4650 N   0  0  0  0  0  0  0  0  0  0  0  0
  -24.3980  -11.0350   20.8980 C   0  0  0  0  0  0  0  0  0  0  0  0
  -24.7600  -10.1070   21.8960 C   0  0  0  0  0  3  0  0  0  0  0  0
  -24.0700   -8.8800   22.0140 C   0  0  0  0  0  3  0  0  0  0  0  0
  -23.0070   -8.5760   21.1320 C   0  0  0  0  0  0  0  0  0  0  0  0
  -22.6690   -9.4940   20.1210 C   0  0  0  0  0  3  0  0  0  0  0  0
  -23.3600  -10.7110   20.0020 C   0  0  0  0  0  3  0  0  0  0  0  0
  -22.2990   -7.3980   21.1560 O   0  0  0  0  0  0  0  0  0  0  0  0
  -22.0200   -6.7500   22.3310 C   0  0  0  0  0  0  0  0  0  0  0  0
  -21.3030   -7.3730   23.3750 C   0  0  0  0  0  3  0  0  0  0  0  0
  -20.9820   -6.6480   24.5400 C   0  0  0  0  0  3  0  0  0  0  0  0
  -21.3680   -5.2990   24.6600 C   0  0  0  0  0  0  0  0  0  0  0  0
  -22.0780   -4.6750   23.6180 C   0  0  0  0  0  3  0  0  0  0  0  0
  -22.4020   -5.3990   22.4570 C   0  0  0  0  0  0  0  0  0  0  0  0
  -23.0680   -4.7860   21.4500 F   0  0  0  0  0  0  0  0  0  0  0  0
  -21.0500   -4.5990   25.7740 F   0  0  0  0  0  0  0  0  0  0  0  0
  -23.1720  -14.0820   21.1460 C   0  0  0  0  0  0  0  0  0  0  0  0
  -22.4750  -13.3390   22.0000 N   0  0  0  0  0  0  0  0  0  0  0  0
  -22.6970  -15.1040   20.6540 O   0  0  0  0  0  0  0  0  0  0  0  0
  -22.8750  -12.5100   22.4170 H   0  0  0  0  0  0  0  0  0  0  0  0
  -21.5290  -13.5980   22.2360 H   0  0  0  0  0  0  0  0  0  0  0  0
  -25.7610  -15.8590   20.4620 N   0  0  0  0  0  0  0  0  0  0  0  0
  -24.9890  -16.4860   20.6600 H   0  0  0  0  0  0  0  0  0  0  0  0
  -26.6340  -16.3370   20.2890 H   0  0  0  0  0  0  0  0  0  0  0  0
  -30.2390  -20.8310   21.8180 C   0  0  0  0  0  3  0  0  0  0  0  0
  -30.0110  -22.1700   21.6600 C   0  0  0  0  0  3  0  0  0  0  0  0
  -30.7710  -23.3140   22.3620 C   0  0  0  0  0  2  0  0  0  0  0  0
  -30.1040  -24.7310   22.4840 C   0  0  0  0  0  2  0  0  0  0  0  0
  -29.6940  -25.4620   21.1620 C   0  0  0  0  0  2  0  0  0  0  0  0
  -29.4790  -26.9000   21.3110 O   0  0  0  0  0  0  0  0  0  0  0  0
  -24.6720  -31.8780   23.1030 C   0  0  0  0  0  0  0  0  0  0  0  0
  -28.2690  -27.5050   20.9750 C   0  0  0  0  0  0  0  0  0  0  0  0
  -23.9380  -30.2320   21.4130 C   0  0  0  0  0  3  0  0  0  0  0  0
  -25.7790  -28.7730   20.4120 C   0  0  0  0  0  0  0  0  0  0  0  0
  -26.4160  -30.8460   21.6480 C   0  0  0  0  0  2  0  0  0  0  0  0
  -26.7530  -29.4510   21.1530 C   0  0  0  0  0  0  0  0  0  0  0  0
  -27.9960  -28.8230   21.4330 C   0  0  0  0  0  3  0  0  0  0  0  0
  -27.2780  -26.8670   20.1920 C   0  0  0  0  0  3  0  0  0  0  0  0
  -26.0410  -27.4830   19.9280 C   0  0  0  0  0  3  0  0  0  0  0  0
  -24.4700  -29.4910   20.1590 C   0  0  0  0  0  2  0  0  0  0  0  0
  -25.0130  -31.0080   22.1120 N   0  0  0  0  0  0  0  0  0  0  0  0
  -23.4850  -32.0620   23.4160 O   0  0  0  0  0  0  0  0  0  0  0  0
  -23.2270  -29.2120   22.3320 C   0  0  0  0  0  0  0  0  0  0  0  0
  -21.9200  -29.0040   22.1000 N   0  0  0  0  0  0  0  0  0  0  0  0
  -23.8520  -28.6110   23.2100 O   0  0  0  0  0  0  0  0  0  0  0  0
  -21.4770  -29.5390   21.3670 H   0  0  0  0  0  0  0  0  0  0  0  0
  -18.4840  -28.0100   22.6180 C   0  0  0  0  0  0  0  0  0  0  0  0
  -21.0600  -28.0630   22.8180 C   0  0  0  0  0  3  0  0  0  0  0  0
  -21.0390  -26.6830   22.1210 C   0  0  0  0  0  2  0  0  0  0  0  0
  -19.8880  -26.5280   21.1230 C   0  0  0  0  0  2  0  0  0  0  0  0
  -18.5410  -26.7160   21.8250 C   0  0  0  0  0  2  0  0  0  0  0  0
  -19.6670  -28.6500   23.0720 C   0  0  0  0  0  0  0  0  0  0  0  0
  -19.5610  -29.8680   23.7770 C   0  0  0  0  0  3  0  0  0  0  0  0
  -18.3030  -30.4460   24.0280 C   0  0  0  0  0  3  0  0  0  0  0  0
  -17.1330  -29.8010   23.5920 C   0  0  0  0  0  3  0  0  0  0  0  0
  -17.2250  -28.5840   22.8940 C   0  0  0  0  0  3  0  0  0  0  0  0
  -25.7490  -32.6980   23.8770 C   0  0  0  0  0  3  0  0  0  0  0  0
  -25.1720  -34.0150   24.1760 N   0  0  0  0  0  0  0  0  0  0  0  0
  -25.3540  -35.1130   23.4290 C   0  0  0  0  0  0  0  0  0  0  0  0
  -26.0970  -35.1350   22.4440 O   0  0  0  0  0  0  0  0  0  0  0  0
  -24.5100  -34.0570   24.9370 H   0  0  0  0  0  0  0  0  0  0  0  0
  -23.3560  -36.5610   22.9470 C   0  0  0  0  0  1  0  0  0  0  0  0
  -24.5930  -36.3870   23.8420 C   0  0  0  0  0  3  0  0  0  0  0  0
  -26.4990  -37.6240   24.7750 C   0  0  0  0  0  1  0  0  0  0  0  0
  -25.4230  -37.6130   23.7880 N   0  0  0  0  0  0  0  0  0  0  0  0
  -24.8520  -38.4410   23.9300 H   0  0  0  0  0  0  0  0  0  0  0  0
  -26.2370  -31.9920   25.2010 C   0  0  1  0  0  0  0  0  0  0  0  0
  -25.0840  -31.4200   26.0600 C   0  0  0  0  0  1  0  0  0  0  0  0
  -27.2070  -30.8300   24.8810 C   0  0  0  0  0  1  0  0  0  0  0  0
  -27.0320  -32.9980   26.0710 C   0  0  0  0  0  1  0  0  0  0  0  0
  -27.1910  -19.5390   18.2960 O   0  0  0  0  0  0  0  0  0  0  0  0
  -24.9790  -19.7070   17.3800 C   0  0  0  0  0  1  0  0  0  0  0  0
  -25.8350  -19.1720   18.5300 C   0  0  0  0  0  2  0  0  0  0  0  0
  1  3  1  0
  2  3  2  0
  3 46  1  0
  4  1  2  0
  5  2  1  0
  6  5  2  0
  6  4  1  0
  7  6  1  0
  8 15  2  0
  9 14  1  0
 10 11  1  0
 10  9  1  0
 12 11  1  0
 12 21  1  0
 12 13  1  0
 14  8  1  0
 14 13  1  0
 16 17  1  0
 17  4  1  0
 17  8  1  0
 18 19  2  0
 19 38  1  0
 20 19  1  0
 20 23  1  0
 21 22  1  0
 21 18  1  0
 22 20  2  0
 23 24  1  0
 24 25  2  0
 26 29  1  0
 26 25  1  0
 27 26  2  0
 28 27  1  0
 28 23  2  0
 29 30  1  0
 30 35  2  0
 30 31  1  0
 31 32  2  0
 32 33  1  0
 33 37  1  0
 34 33  2  0
 35 34  1  0
 36 35  1  0
 38 39  1  0
 39 42  1  0
 39 41  1  0
 40 38  2  0
 43 18  1  0
 43 44  1  0
 45 43  1  0
 47 46  2  0
 47 48  1  0
 48 49  1  0
 50 51  1  0
 50 49  1  0
 52 63  2  0
 53 51  1  0
 53 58  1  0
 54 62  1  0
 54 64  1  0
 55 57  1  0
 56 62  1  0
 57 58  2  0
 57 56  1  0
 59 53  2  0
 60 59  1  0
 60 55  2  0
 61 55  1  0
 61 54  1  0
 62 52  1  0
 64 66  2  0
 65 64  1  0
 67 65  1  0
 68 77  2  0
 68 73  1  0
 69 65  1  0
 69 73  1  0
 70 69  1  0
 71 72  1  0
 71 70  1  0
 72 68  1  0
 73 74  2  0
 74 75  1  0
 76 75  2  0
 77 76  1  0
 78 52  1  0
 78 79  1  0
 78 88  1  0
 79 82  1  0
 80 84  1  0
 80 79  1  0
 81 80  2  0
 84 83  1  0
 86 84  1  0
 86 87  1  0
 86 85  1  0
 88 89  1  1
 88 91  1  0
 90 88  1  0
 92 94  1  0
 92  5  1  0
 93 94  1  0
M  ISO  4   8 100  17 100  50 101  51 101
M  END
>  <TORSDO>  (80) 
F 22

>  <SCORE>  (80) 
-8.982

>  <name>  (80) 
79

>  <ligand_id>  (80) 
79

>  <original_smiles>  (80) 
[H]C(=C([H])C([H])([H])C([H])([H])C([H])([H])Oc1c([H])c([H])c2c(c1[H])C([H])([H])N(C(=O)C([H])(N([H])C(=O)C([H])(N([H])C([H])([H])[H])C([H])([H])[H])C(C([H])([H])[H])(C([H])([H])[H])C([H])([H])[H])C([H])(C(=O)N([H])C1([H])c3c([H])c([H])c([H])c([H])c3C([H])([H])C([H])([H])C1([H])[H])C2([H])[H])c1c([H])c(OC([H])([H])C([H])([H])[H])c(Cl)c(N(C(=O)N2C([H])([H])C([H])([H])C([H])([H])C([H])(n3nc(-c4c([H])c([H])c(Oc5c([H])c([H])c(F)c([H])c5F)c([H])c4[H])c(C(=O)N([H])[H])c3N([H])[H])C2([H])[H])C([H])([H])[H])c1[H]

>  <smiles>  (80) 
[H]C(=C([H])C([H])([H])C([H])([H])C([H])([H])Oc1c([H])c([H])c2c(c1[H])C([H])([H])N(C(=O)C([H])(N([H])C(=O)C([H])(N([H])C([H])([H])[H])C([H])([H])[H])C(C([H])([H])[H])(C([H])([H])[H])C([H])([H])[H])C([H])(C(=O)N([H])C1([H])c3c([H])c([H])c([H])c([H])c3C([H])([H])C([H])([H])C1([H])[H])C2([H])[H])c1c([H])c(OC([H])([H])C([H])([H])[H])c(Cl)c(N(C(=O)N2C([H])([H])C([H])([H])C([H])([H])C([H])(n3nc(-c4c([H])c([H])c(Oc5c([H])c([H])c(F)c([H])c5F)c([H])c4[H])c(C(=O)N([H])[H])c3N([H])[H])C2([H])[H])C([H])([H])[H])c1[H]

$$$$
80:0:0
     RDKit          3D

 89 97  0  0  1  0  0  0  0  0999 V2000
  -28.7430  -21.3740   21.0060 O   0  0  0  0  0  0  0  0  0  0  0  0
  -30.6060  -18.2980   19.7180 C   0  0  0  0  0  3  0  0  0  0  0  0
  -28.6320  -17.6000   20.8990 C   0  0  0  0  0  3  0  0  0  0  0  0
  -30.2860  -19.6690   19.9710 C   0  0  0  0  0  3  0  0  0  0  0  0
  -28.3290  -18.9690   21.1680 C   0  0  0  0  0  3  0  0  0  0  0  0
  -29.7750  -17.2220   20.1520 C   0  0  0  0  0  0  0  0  0  0  0  0
  -29.1220  -20.0490   20.6900 C   0  0  0  0  0  0  0  0  0  0  0  0
  -30.6750  -14.8170   19.9440 C   0  0  0  0  0  0  0  0  0  0  0  0
  -30.4590  -12.5200   19.0130 C   0  0  0  0  0  2  0  0  0  0  0  0
  -29.4710  -12.5230   17.8260 C   0  0  0  0  0  2  0  0  0  0  0  0
  -28.0060  -12.4430   18.3130 C   0  0  0  0  0  2  0  0  0  0  0  0
  -27.6840  -13.3340   19.5470 C   0  0  0  0  0  3  0  0  0  0  0  0
  -28.7950  -13.2650   20.6140 C   0  0  0  0  0  2  0  0  0  0  0  0
  -30.0540  -13.5930   19.9400 N   0  0  0  0  0  0  0  0  0  0  0  0
  -31.8950  -14.8950   19.7630 O   0  0  0  0  0  0  0  0  0  0  0  0
  -29.6910  -15.9800   18.0910 C   0  0  0  0  0  1  0  0  0  0  0  0
  -29.8800  -15.8870   19.5530 N   0  0  0  0  0  0  0  0  0  0  0  0
  -25.3240  -13.9170   20.3730 C   0  0  0  0  0  0  0  0  0  0  0  0
  -24.2770  -13.1340   20.7760 C   0  0  0  0  0  0  0  0  0  0  0  0
  -24.7460  -11.7850   20.7190 C   0  0  0  0  0  0  0  0  0  0  0  0
  -26.3640  -13.0430   20.0950 N   0  0  0  0  0  0  0  0  0  0  0  0
  -26.0250  -11.7560   20.3680 N   0  0  0  0  0  0  0  0  0  0  0  0
  -24.0350  -10.5170   20.9220 C   0  0  0  0  0  0  0  0  0  0  0  0
  -24.4870   -9.5600   21.8570 C   0  0  0  0  0  3  0  0  0  0  0  0
  -23.7760   -8.3550   22.0460 C   0  0  0  0  0  3  0  0  0  0  0  0
  -22.6010   -8.1010   21.3020 C   0  0  0  0  0  0  0  0  0  0  0  0
  -22.1670   -9.0470   20.3560 C   0  0  0  0  0  3  0  0  0  0  0  0
  -22.8780  -10.2440   20.1650 C   0  0  0  0  0  3  0  0  0  0  0  0
  -21.8600   -6.9460   21.4010 O   0  0  0  0  0  0  0  0  0  0  0  0
  -21.7910   -6.2360   22.5720 C   0  0  0  0  0  0  0  0  0  0  0  0
  -21.3120   -6.8150   23.7690 C   0  0  0  0  0  3  0  0  0  0  0  0
  -21.1920   -6.0300   24.9330 C   0  0  0  0  0  3  0  0  0  0  0  0
  -21.5400   -4.6650   24.9010 C   0  0  0  0  0  0  0  0  0  0  0  0
  -22.0130   -4.0870   23.7100 C   0  0  0  0  0  3  0  0  0  0  0  0
  -22.1340   -4.8690   22.5480 C   0  0  0  0  0  0  0  0  0  0  0  0
  -22.5700   -4.3010   21.3980 F   0  0  0  0  0  0  0  0  0  0  0  0
  -21.4180   -3.9070   26.0160 F   0  0  0  0  0  0  0  0  0  0  0  0
  -22.8870  -13.6020   21.1000 C   0  0  0  0  0  0  0  0  0  0  0  0
  -22.1970  -12.9040   21.9950 N   0  0  0  0  0  0  0  0  0  0  0  0
  -22.4230  -14.6230   20.5940 O   0  0  0  0  0  0  0  0  0  0  0  0
  -22.5790  -12.0740   22.4240 H   0  0  0  0  0  0  0  0  0  0  0  0
  -21.2710  -13.2110   22.2610 H   0  0  0  0  0  0  0  0  0  0  0  0
  -25.4730  -15.2880   20.1930 N   0  0  0  0  0  0  0  0  0  0  0  0
  -24.6970  -15.9340   20.3020 H   0  0  0  0  0  0  0  0  0  0  0  0
  -26.2950  -15.7230   19.7930 H   0  0  0  0  0  0  0  0  0  0  0  0
  -28.9530  -22.5120   20.1040 C   0  0  0  0  0  3  0  0  0  0  0  0
  -28.5500  -23.9560   20.6780 C   0  0  0  0  0  3  0  0  0  0  0  0
  -28.5640  -25.2010   19.6740 C   0  0  0  0  0  2  0  0  0  0  0  0
  -28.4610  -26.6000   20.1730 O   0  0  0  0  0  0  0  0  0  0  0  0
  -24.5710  -31.8730   23.1470 C   0  0  0  0  0  0  0  0  0  0  0  0
  -27.3000  -27.3900   20.0880 C   0  0  0  0  0  0  0  0  0  0  0  0
  -23.4150  -30.4790   21.4700 C   0  0  0  0  0  3  0  0  0  0  0  0
  -24.9100  -28.9700   20.0460 C   0  0  0  0  0  0  0  0  0  0  0  0
  -25.9500  -30.8440   21.3230 C   0  0  0  0  0  2  0  0  0  0  0  0
  -26.0610  -29.4750   20.6620 C   0  0  0  0  0  0  0  0  0  0  0  0
  -27.2570  -28.6970   20.6670 C   0  0  0  0  0  3  0  0  0  0  0  0
  -26.1180  -26.9310   19.4650 C   0  0  0  0  0  3  0  0  0  0  0  0
  -24.9400  -27.7030   19.4430 C   0  0  0  0  0  3  0  0  0  0  0  0
  -23.6640  -29.8330   20.0810 C   0  0  0  0  0  2  0  0  0  0  0  0
  -24.6640  -31.0830   22.0370 N   0  0  0  0  0  0  0  0  0  0  0  0
  -23.4760  -32.1220   23.6710 O   0  0  0  0  0  0  0  0  0  0  0  0
  -22.7560  -29.4350   22.4030 C   0  0  0  0  0  0  0  0  0  0  0  0
  -21.4310  -29.2500   22.2650 N   0  0  0  0  0  0  0  0  0  0  0  0
  -23.4340  -28.7990   23.2140 O   0  0  0  0  0  0  0  0  0  0  0  0
  -20.9400  -29.8240   21.5920 H   0  0  0  0  0  0  0  0  0  0  0  0
  -18.0580  -28.0280   22.7360 C   0  0  0  0  0  0  0  0  0  0  0  0
  -20.6160  -28.2910   23.0120 C   0  0  0  0  0  3  0  0  0  0  0  0
  -20.7220  -26.8730   22.4050 C   0  0  0  0  0  2  0  0  0  0  0  0
  -19.6220  -26.5710   21.3820 C   0  0  0  0  0  2  0  0  0  0  0  0
  -18.2400  -26.6950   22.0290 C   0  0  0  0  0  2  0  0  0  0  0  0
  -19.1740  -28.7830   23.1850 C   0  0  0  0  0  0  0  0  0  0  0  0
  -18.9510  -30.0300   23.8100 C   0  0  0  0  0  3  0  0  0  0  0  0
  -17.6440  -30.5220   23.9870 C   0  0  0  0  0  3  0  0  0  0  0  0
  -16.5420  -29.7640   23.5530 C   0  0  0  0  0  3  0  0  0  0  0  0
  -16.7500  -28.5190   22.9350 C   0  0  0  0  0  3  0  0  0  0  0  0
  -25.8340  -32.5180   23.7970 C   0  0  0  0  0  3  0  0  0  0  0  0
  -26.3420  -31.7420   25.0750 C   0  0  1  0  0  0  0  0  0  0  0  0
  -25.2390  -31.4730   26.1260 C   0  0  0  0  0  1  0  0  0  0  0  0
  -26.9550  -30.3800   24.6780 C   0  0  0  0  0  1  0  0  0  0  0  0
  -27.4670  -32.5480   25.7630 C   0  0  0  0  0  1  0  0  0  0  0  0
  -25.4980  -33.9080   24.1390 N   0  0  0  0  0  0  0  0  0  0  0  0
  -25.8180  -34.9740   23.3930 C   0  0  0  0  0  0  0  0  0  0  0  0
  -26.4990  -34.8930   22.3680 O   0  0  0  0  0  0  0  0  0  0  0  0
  -24.9030  -34.0440   24.9420 H   0  0  0  0  0  0  0  0  0  0  0  0
  -24.0690  -36.7450   23.0290 C   0  0  0  0  0  1  0  0  0  0  0  0
  -25.3010  -36.3500   23.8580 C   0  0  0  0  0  3  0  0  0  0  0  0
  -27.4060  -37.2620   24.7370 C   0  0  0  0  0  1  0  0  0  0  0  0
  -26.3200  -37.4210   23.7740 N   0  0  0  0  0  0  0  0  0  0  0  0
  -25.8960  -38.3340   23.9230 H   0  0  0  0  0  0  0  0  0  0  0  0
  2  4  2  0
  2  6  1  0
  3  5  1  0
  4  7  1  0
  6  3  2  0
  7  1  1  0
  7  5  2  0
  9 14  1  0
 10 11  1  0
 10  9  1  0
 12 11  1  0
 12 21  1  0
 12 13  1  0
 14  8  1  0
 14 13  1  0
 15  8  2  0
 16 17  1  0
 17  8  1  0
 17  6  1  0
 18 19  2  0
 19 38  1  0
 20 19  1  0
 20 23  1  0
 21 22  1  0
 21 18  1  0
 22 20  2  0
 23 24  1  0
 24 25  2  0
 26 29  1  0
 26 25  1  0
 27 26  2  0
 28 27  1  0
 28 23  2  0
 29 30  1  0
 30 31  1  0
 31 32  2  0
 33 32  1  0
 33 37  1  0
 34 33  2  0
 35 30  2  0
 35 34  1  0
 36 35  1  0
 38 39  1  0
 39 42  1  0
 39 41  1  0
 40 38  2  0
 43 44  1  0
 43 18  1  0
 45 43  1  0
 46 47  2  0
 46  1  1  0
 48 49  1  0
 48 47  1  0
 50 61  2  0
 51 49  1  0
 51 56  1  0
 52 60  1  0
 52 62  1  0
 53 59  1  0
 53 55  1  0
 54 60  1  0
 55 56  2  0
 55 54  1  0
 57 51  2  0
 58 57  1  0
 58 53  2  0
 59 52  1  0
 60 50  1  0
 62 64  2  0
 63 62  1  0
 65 63  1  0
 66 75  2  0
 66 71  1  0
 67 63  1  0
 67 71  1  0
 68 67  1  0
 69 70  1  0
 69 68  1  0
 70 66  1  0
 71 72  2  0
 72 73  1  0
 74 73  2  0
 75 74  1  0
 76 50  1  0
 76 81  1  0
 76 77  1  0
 77 80  1  1
 77 78  1  0
 79 77  1  0
 81 84  1  0
 82 86  1  0
 82 81  1  0
 83 82  2  0
 86 85  1  0
 88 86  1  0
 88 89  1  0
 88 87  1  0
M  ISO  4   8 100  17 100  48 101  49 101
M  END
>  <TORSDO>  (81) 
F 20

>  <SCORE>  (81) 
-12.025

>  <name>  (81) 
80

>  <ligand_id>  (81) 
80

>  <original_smiles>  (81) 
[H]c1c([H])c([H])c2c(c1[H])C([H])([H])C([H])([H])C([H])([H])C2([H])N([H])C(=O)C1([H])N(C(=O)C([H])(N([H])C(=O)C([H])(N([H])C([H])([H])[H])C([H])([H])[H])C(C([H])([H])[H])(C([H])([H])[H])C([H])([H])[H])C([H])([H])c2c([H])c(OC([H])([H])C([H])([H])C([H])([H])Oc3c([H])c([H])c(N(C(=O)N4C([H])([H])C([H])([H])C([H])([H])C([H])(n5nc(-c6c([H])c([H])c(Oc7c([H])c([H])c(F)c([H])c7F)c([H])c6[H])c(C(=O)N([H])[H])c5N([H])[H])C4([H])[H])C([H])([H])[H])c([H])c3[H])c([H])c([H])c2C1([H])[H]

>  <smiles>  (81) 
[H]c1c([H])c([H])c2c(c1[H])C([H])([H])C([H])([H])C([H])([H])C2([H])N([H])C(=O)C1([H])N(C(=O)C([H])(N([H])C(=O)C([H])(N([H])C([H])([H])[H])C([H])([H])[H])C(C([H])([H])[H])(C([H])([H])[H])C([H])([H])[H])C([H])([H])c2c([H])c(OC([H])([H])C([H])([H])C([H])([H])Oc3c([H])c([H])c(N(C(=O)N4C([H])([H])C([H])([H])C([H])([H])C([H])(n5nc(-c6c([H])c([H])c(Oc7c([H])c([H])c(F)c([H])c7F)c([H])c6[H])c(C(=O)N([H])[H])c5N([H])[H])C4([H])[H])C([H])([H])[H])c([H])c3[H])c([H])c([H])c2C1([H])[H]

$$$$
81:0:0
     RDKit          3D

 93101  0  0  1  0  0  0  0  0999 V2000
  -30.6510  -17.9550   22.1720 C   0  0  0  0  0  3  0  0  0  0  0  0
  -30.5440  -19.3540   21.9790 C   0  0  0  0  0  3  0  0  0  0  0  0
  -29.7840  -18.9640   19.7130 C   0  0  0  0  0  3  0  0  0  0  0  0
  -30.3210  -17.0450   21.1400 C   0  0  0  0  0  0  0  0  0  0  0  0
  -29.8790  -17.5610   19.8910 C   0  0  0  0  0  0  0  0  0  0  0  0
  -30.0890  -19.8760   20.7430 C   0  0  0  0  0  0  0  0  0  0  0  0
  -31.0410  -14.6880   20.8500 C   0  0  0  0  0  0  0  0  0  0  0  0
  -30.8420  -12.5570   19.6200 C   0  0  0  0  0  2  0  0  0  0  0  0
  -29.9600  -12.8030   18.3780 C   0  0  0  0  0  2  0  0  0  0  0  0
  -28.4630  -12.6620   18.7200 C   0  0  0  0  0  2  0  0  0  0  0  0
  -28.0620  -13.4450   19.9990 C   0  0  0  0  0  3  0  0  0  0  0  0
  -29.0540  -13.1620   21.1470 C   0  0  0  0  0  2  0  0  0  0  0  0
  -30.4080  -13.4950   20.6690 N   0  0  0  0  0  0  0  0  0  0  0  0
  -32.1920  -14.9050   20.4560 O   0  0  0  0  0  0  0  0  0  0  0  0
  -30.2900  -15.6440   21.4270 N   0  0  0  0  0  0  0  0  0  0  0  0
  -29.4070  -15.3070   21.7730 H   0  0  0  0  0  0  0  0  0  0  0  0
  -25.6280  -14.0490   20.5850 C   0  0  0  0  0  0  0  0  0  0  0  0
  -24.5360  -13.2730   20.8640 C   0  0  0  0  0  0  0  0  0  0  0  0
  -24.9930  -11.9200   20.8190 C   0  0  0  0  0  0  0  0  0  0  0  0
  -26.6800  -13.1680   20.3880 N   0  0  0  0  0  0  0  0  0  0  0  0
  -26.2980  -11.8820   20.5860 N   0  0  0  0  0  0  0  0  0  0  0  0
  -24.2530  -10.6570   20.9300 C   0  0  0  0  0  0  0  0  0  0  0  0
  -24.6240   -9.6650   21.8650 C   0  0  0  0  0  3  0  0  0  0  0  0
  -23.8860   -8.4650   21.9640 C   0  0  0  0  0  3  0  0  0  0  0  0
  -22.7650   -8.2500   21.1280 C   0  0  0  0  0  0  0  0  0  0  0  0
  -22.4150   -9.2310   20.1850 C   0  0  0  0  0  3  0  0  0  0  0  0
  -23.1520  -10.4230   20.0820 C   0  0  0  0  0  3  0  0  0  0  0  0
  -22.0050   -7.1060   21.1370 O   0  0  0  0  0  0  0  0  0  0  0  0
  -21.8770   -6.3360   22.2660 C   0  0  0  0  0  0  0  0  0  0  0  0
  -21.3270   -6.8520   23.4600 C   0  0  0  0  0  3  0  0  0  0  0  0
  -21.1470   -6.0070   24.5730 C   0  0  0  0  0  3  0  0  0  0  0  0
  -21.5100   -4.6480   24.4940 C   0  0  0  0  0  0  0  0  0  0  0  0
  -22.0520   -4.1330   23.3040 C   0  0  0  0  0  3  0  0  0  0  0  0
  -22.2330   -4.9750   22.1920 C   0  0  0  0  0  0  0  0  0  0  0  0
  -22.7370   -4.4670   21.0410 F   0  0  0  0  0  0  0  0  0  0  0  0
  -21.3310   -3.8350   25.5610 F   0  0  0  0  0  0  0  0  0  0  0  0
  -23.1260  -13.7500   21.0720 C   0  0  0  0  0  0  0  0  0  0  0  0
  -22.3580  -13.0490   21.8980 N   0  0  0  0  0  0  0  0  0  0  0  0
  -22.7140  -14.7780   20.5370 O   0  0  0  0  0  0  0  0  0  0  0  0
  -22.7020  -12.2180   22.3540 H   0  0  0  0  0  0  0  0  0  0  0  0
  -21.4120  -13.3520   22.0800 H   0  0  0  0  0  0  0  0  0  0  0  0
  -25.8100  -15.4230   20.4670 N   0  0  0  0  0  0  0  0  0  0  0  0
  -25.0490  -16.0840   20.5720 H   0  0  0  0  0  0  0  0  0  0  0  0
  -26.6970  -15.8610   20.2530 H   0  0  0  0  0  0  0  0  0  0  0  0
  -30.5120  -16.6460   17.7980 C   0  0  0  0  0  1  0  0  0  0  0  0
  -28.1360  -16.9320   18.3670 C   0  0  0  0  0  1  0  0  0  0  0  0
  -29.4970  -16.7020   18.8440 N   0  0  0  0  0  0  0  0  0  0  0  0
  -29.8920  -21.2190   20.4570 O   0  0  0  0  0  0  0  0  0  0  0  0
  -30.1370  -22.2210   21.4470 C   0  0  0  0  0  2  0  0  0  0  0  0
  -29.5490  -23.5760   20.9690 C   0  0  0  0  0  2  0  0  0  0  0  0
  -29.9190  -24.7830   21.8700 C   0  0  0  0  0  2  0  0  0  0  0  0
  -28.9210  -25.9700   21.8730 C   0  0  0  0  0  2  0  0  0  0  0  0
  -28.9500  -26.8230   20.7190 O   0  0  0  0  0  0  0  0  0  0  0  0
  -24.8350  -31.9820   23.4090 C   0  0  0  0  0  0  0  0  0  0  0  0
  -27.7910  -27.5580   20.6090 C   0  0  0  0  0  0  0  0  0  0  0  0
  -23.7580  -30.4700   21.7750 C   0  0  0  0  0  3  0  0  0  0  0  0
  -25.3360  -28.9500   20.4630 C   0  0  0  0  0  0  0  0  0  0  0  0
  -26.2710  -30.9360   21.6620 C   0  0  0  0  0  2  0  0  0  0  0  0
  -26.4450  -29.5480   21.0770 C   0  0  0  0  0  0  0  0  0  0  0  0
  -27.6770  -28.8590   21.1480 C   0  0  0  0  0  3  0  0  0  0  0  0
  -26.6720  -26.9730   19.9820 C   0  0  0  0  0  3  0  0  0  0  0  0
  -25.4440  -27.6610   19.9120 C   0  0  0  0  0  3  0  0  0  0  0  0
  -24.0530  -29.7500   20.4300 C   0  0  0  0  0  2  0  0  0  0  0  0
  -24.9690  -31.1470   22.3400 N   0  0  0  0  0  0  0  0  0  0  0  0
  -23.7220  -32.2250   23.8970 O   0  0  0  0  0  0  0  0  0  0  0  0
  -23.1130  -29.4560   22.7470 C   0  0  0  0  0  0  0  0  0  0  0  0
  -21.8050  -29.2010   22.5680 N   0  0  0  0  0  0  0  0  0  0  0  0
  -23.7870  -28.8990   23.6170 O   0  0  0  0  0  0  0  0  0  0  0  0
  -21.3210  -29.7040   21.8370 H   0  0  0  0  0  0  0  0  0  0  0  0
  -18.4710  -27.8700   22.9700 C   0  0  0  0  0  0  0  0  0  0  0  0
  -21.0000  -28.2540   23.3390 C   0  0  0  0  0  3  0  0  0  0  0  0
  -21.1920  -26.8100   22.8230 C   0  0  0  0  0  2  0  0  0  0  0  0
  -20.1520  -26.4010   21.7750 C   0  0  0  0  0  2  0  0  0  0  0  0
  -18.7370  -26.5060   22.3540 C   0  0  0  0  0  2  0  0  0  0  0  0
  -19.5350  -28.6980   23.4170 C   0  0  0  0  0  0  0  0  0  0  0  0
  -19.2350  -29.9700   23.9480 C   0  0  0  0  0  3  0  0  0  0  0  0
  -17.9040  -30.4180   24.0370 C   0  0  0  0  0  3  0  0  0  0  0  0
  -16.8530  -29.5880   23.6080 C   0  0  0  0  0  3  0  0  0  0  0  0
  -17.1370  -28.3160   23.0800 C   0  0  0  0  0  3  0  0  0  0  0  0
  -26.0680  -32.6910   24.0530 C   0  0  0  0  0  3  0  0  0  0  0  0
  -25.6910  -34.0860   24.3130 N   0  0  0  0  0  0  0  0  0  0  0  0
  -26.0000  -35.1190   23.5180 C   0  0  0  0  0  0  0  0  0  0  0  0
  -26.7060  -35.0010   22.5100 O   0  0  0  0  0  0  0  0  0  0  0  0
  -25.0660  -34.2490   25.0890 H   0  0  0  0  0  0  0  0  0  0  0  0
  -24.2000  -36.8080   23.0400 C   0  0  0  0  0  1  0  0  0  0  0  0
  -25.4390  -36.5010   23.8980 C   0  0  0  0  0  3  0  0  0  0  0  0
  -27.5090  -37.5230   24.7340 C   0  0  0  0  0  1  0  0  0  0  0  0
  -26.4230  -37.5970   23.7600 N   0  0  0  0  0  0  0  0  0  0  0  0
  -25.9700  -38.5020   23.8600 H   0  0  0  0  0  0  0  0  0  0  0  0
  -26.5660  -31.9910   25.3780 C   0  0  1  0  0  0  0  0  0  0  0  0
  -25.4320  -31.6810   26.3820 C   0  0  0  0  0  1  0  0  0  0  0  0
  -27.2870  -30.6610   25.0540 C   0  0  0  0  0  1  0  0  0  0  0  0
  -27.6010  -32.8940   26.0900 C   0  0  0  0  0  1  0  0  0  0  0  0
  2  1  1  0
  3  5  2  0
  3  6  1  0
  4 15  1  0
  4  1  2  0
  5  4  1  0
  6  2  2  0
  7 15  1  0
  8 13  1  0
  9 10  1  0
  9  8  1  0
 11 10  1  0
 11 20  1  0
 11 12  1  0
 13  7  1  0
 13 12  1  0
 14  7  2  0
 15 16  1  0
 17 18  2  0
 18 37  1  0
 19 18  1  0
 19 22  1  0
 20 17  1  0
 20 21  1  0
 21 19  2  0
 22 23  1  0
 23 24  2  0
 25 28  1  0
 25 24  1  0
 26 25  2  0
 27 26  1  0
 27 22  2  0
 28 29  1  0
 29 30  1  0
 30 31  2  0
 32 31  1  0
 32 36  1  0
 33 32  2  0
 34 29  2  0
 34 33  1  0
 35 34  1  0
 37 38  1  0
 38 41  1  0
 38 40  1  0
 39 37  2  0
 42 43  1  0
 42 17  1  0
 44 42  1  0
 45 47  1  0
 46 47  1  0
 47  5  1  0
 48  6  1  0
 48 49  1  0
 50 49  1  0
 50 51  1  0
 51 52  1  0
 53 52  1  0
 54 65  2  0
 55 53  1  0
 55 60  1  0
 56 64  1  0
 56 66  1  0
 57 59  1  0
 58 64  1  0
 59 60  2  0
 59 58  1  0
 61 55  2  0
 62 61  1  0
 62 57  2  0
 63 57  1  0
 63 56  1  0
 64 54  1  0
 66 68  2  0
 67 66  1  0
 69 67  1  0
 70 79  2  0
 70 75  1  0
 71 67  1  0
 71 75  1  0
 72 71  1  0
 73 74  1  0
 73 72  1  0
 74 70  1  0
 75 76  2  0
 76 77  1  0
 78 77  2  0
 79 78  1  0
 80 54  1  0
 80 81  1  0
 80 90  1  0
 81 84  1  0
 82 86  1  0
 82 81  1  0
 83 82  2  0
 86 85  1  0
 88 89  1  0
 88 86  1  0
 88 87  1  0
 90 93  1  1
 90 91  1  0
 92 90  1  0
M  ISO  4   7 100  15 100  52 101  53 101
M  END
>  <TORSDO>  (82) 
F 22

>  <SCORE>  (82) 
-11.759

>  <name>  (82) 
81

>  <ligand_id>  (82) 
81

>  <original_smiles>  (82) 
[H]c1c([H])c([H])c2c(c1[H])C([H])([H])C([H])([H])C([H])([H])C2([H])N([H])C(=O)C1([H])N(C(=O)C([H])(N([H])C(=O)C([H])(N([H])C([H])([H])[H])C([H])([H])[H])C(C([H])([H])[H])(C([H])([H])[H])C([H])([H])[H])C([H])([H])c2c([H])c(OC([H])([H])C([H])([H])C([H])([H])C([H])([H])Oc3c([H])c([H])c(N([H])C(=O)N4C([H])([H])C([H])([H])C([H])([H])C([H])(n5nc(-c6c([H])c([H])c(Oc7c([H])c([H])c(F)c([H])c7F)c([H])c6[H])c(C(=O)N([H])[H])c5N([H])[H])C4([H])[H])c(N(C([H])([H])[H])C([H])([H])[H])c3[H])c([H])c([H])c2C1([H])[H]

>  <smiles>  (82) 
[H]c1c([H])c([H])c2c(c1[H])C([H])([H])C([H])([H])C([H])([H])C2([H])N([H])C(=O)C1([H])N(C(=O)C([H])(N([H])C(=O)C([H])(N([H])C([H])([H])[H])C([H])([H])[H])C(C([H])([H])[H])(C([H])([H])[H])C([H])([H])[H])C([H])([H])c2c([H])c(OC([H])([H])C([H])([H])C([H])([H])C([H])([H])Oc3c([H])c([H])c(N([H])C(=O)N4C([H])([H])C([H])([H])C([H])([H])C([H])(n5nc(-c6c([H])c([H])c(Oc7c([H])c([H])c(F)c([H])c7F)c([H])c6[H])c(C(=O)N([H])[H])c5N([H])[H])C4([H])[H])c(N(C([H])([H])[H])C([H])([H])[H])c3[H])c([H])c([H])c2C1([H])[H]

$$$$
82:0:0
     RDKit          3D

 88 95  0  0  1  0  0  0  0  0999 V2000
  -29.0170  -23.0530   20.9640 C   0  0  0  0  0  2  0  0  0  0  0  0
  -29.3980  -24.5240   20.7150 C   0  0  0  0  0  2  0  0  0  0  0  0
  -28.2030  -25.2890   20.1230 C   0  0  0  0  0  2  0  0  0  0  0  0
  -28.3680  -26.7120   20.1370 O   0  0  0  0  0  0  0  0  0  0  0  0
  -24.5830  -31.8810   23.2160 C   0  0  0  0  0  0  0  0  0  0  0  0
  -27.1960  -27.4420   20.1100 C   0  0  0  0  0  0  0  0  0  0  0  0
  -23.3590  -30.4760   21.5890 C   0  0  0  0  0  3  0  0  0  0  0  0
  -24.7970  -28.9440   20.1470 C   0  0  0  0  0  0  0  0  0  0  0  0
  -25.8820  -30.8360   21.3640 C   0  0  0  0  0  2  0  0  0  0  0  0
  -25.9610  -29.4680   20.7210 C   0  0  0  0  0  0  0  0  0  0  0  0
  -27.1640  -28.7250   20.6980 C   0  0  0  0  0  3  0  0  0  0  0  0
  -26.0100  -26.9360   19.5230 C   0  0  0  0  0  3  0  0  0  0  0  0
  -24.8160  -27.6760   19.5440 C   0  0  0  0  0  3  0  0  0  0  0  0
  -23.5530  -29.8010   20.2070 C   0  0  0  0  0  2  0  0  0  0  0  0
  -24.6270  -31.0790   22.1140 N   0  0  0  0  0  0  0  0  0  0  0  0
  -23.5090  -32.1550   23.7670 O   0  0  0  0  0  0  0  0  0  0  0  0
  -22.7220  -29.4530   22.5580 C   0  0  0  0  0  0  0  0  0  0  0  0
  -21.3950  -29.2700   22.4470 N   0  0  0  0  0  0  0  0  0  0  0  0
  -23.4150  -28.8290   23.3650 O   0  0  0  0  0  0  0  0  0  0  0  0
  -20.8970  -29.8290   21.7700 H   0  0  0  0  0  0  0  0  0  0  0  0
  -18.0290  -28.0680   22.9730 C   0  0  0  0  0  0  0  0  0  0  0  0
  -20.5870  -28.3340   23.2300 C   0  0  0  0  0  3  0  0  0  0  0  0
  -20.6900  -26.8990   22.6620 C   0  0  0  0  0  2  0  0  0  0  0  0
  -19.5820  -26.5680   21.6570 C   0  0  0  0  0  2  0  0  0  0  0  0
  -18.2040  -26.7140   22.3080 C   0  0  0  0  0  2  0  0  0  0  0  0
  -19.1470  -28.8350   23.3920 C   0  0  0  0  0  0  0  0  0  0  0  0
  -18.9300  -30.1030   23.9750 C   0  0  0  0  0  3  0  0  0  0  0  0
  -17.6260  -30.6020   24.1460 C   0  0  0  0  0  3  0  0  0  0  0  0
  -16.5200  -29.8310   23.7460 C   0  0  0  0  0  3  0  0  0  0  0  0
  -16.7230  -28.5680   23.1620 C   0  0  0  0  0  3  0  0  0  0  0  0
  -25.8760  -32.5140   23.8200 C   0  0  0  0  0  3  0  0  0  0  0  0
  -26.4190  -31.7350   25.0820 C   0  0  1  0  0  0  0  0  0  0  0  0
  -25.3490  -31.4880   26.1710 C   0  0  0  0  0  1  0  0  0  0  0  0
  -26.9970  -30.3620   24.6650 C   0  0  0  0  0  1  0  0  0  0  0  0
  -27.5790  -32.5300   25.7280 C   0  0  0  0  0  1  0  0  0  0  0  0
  -25.5690  -33.9090   24.1620 N   0  0  0  0  0  0  0  0  0  0  0  0
  -25.8820  -34.9640   23.3990 C   0  0  0  0  0  0  0  0  0  0  0  0
  -26.5350  -34.8670   22.3560 O   0  0  0  0  0  0  0  0  0  0  0  0
  -24.9920  -34.0590   24.9770 H   0  0  0  0  0  0  0  0  0  0  0  0
  -24.1360  -36.7460   23.0820 C   0  0  0  0  0  1  0  0  0  0  0  0
  -25.3950  -36.3480   23.8690 C   0  0  0  0  0  3  0  0  0  0  0  0
  -27.5420  -37.2390   24.6570 C   0  0  0  0  0  1  0  0  0  0  0  0
  -26.4180  -37.4070   23.7410 N   0  0  0  0  0  0  0  0  0  0  0  0
  -26.0120  -38.3240   23.9060 H   0  0  0  0  0  0  0  0  0  0  0  0
  -30.1490  -22.2850   21.3560 O   0  0  0  0  0  0  0  0  0  0  0  0
  -29.8130  -20.9360   21.6630 C   0  0  0  0  0  2  0  0  0  0  0  0
  -31.0360  -20.0470   21.3900 C   0  0  0  0  0  2  0  0  0  0  0  0
  -30.7750  -18.5320   21.5160 C   0  0  0  0  0  2  0  0  0  0  0  0
  -29.6850  -18.0210   20.5520 C   0  0  0  0  0  2  0  0  0  0  0  0
  -30.0280  -16.7060   19.8410 C   0  0  0  0  0  2  0  0  0  0  0  0
  -30.6880  -14.4430   20.4630 C   0  0  0  0  0  0  0  0  0  0  0  0
  -30.3610  -12.2740   19.3790 C   0  0  0  0  0  2  0  0  0  0  0  0
  -29.4600  -12.5320   18.1520 C   0  0  0  0  0  2  0  0  0  0  0  0
  -27.9720  -12.4330   18.5430 C   0  0  0  0  0  2  0  0  0  0  0  0
  -27.6270  -13.2620   19.8100 C   0  0  0  0  0  3  0  0  0  0  0  0
  -28.6590  -13.0260   20.9400 C   0  0  0  0  0  2  0  0  0  0  0  0
  -30.0040  -13.2710   20.3960 N   0  0  0  0  0  0  0  0  0  0  0  0
  -31.8430  -14.5790   20.0550 O   0  0  0  0  0  0  0  0  0  0  0  0
  -29.9190  -15.5150   20.6880 N   0  0  0  0  0  0  0  0  0  0  0  0
  -29.0070  -15.3260   21.0770 H   0  0  0  0  0  0  0  0  0  0  0  0
  -25.2210  -13.9020   20.4640 C   0  0  0  0  0  0  0  0  0  0  0  0
  -24.1380  -13.1430   20.8230 C   0  0  0  0  0  0  0  0  0  0  0  0
  -24.5860  -11.7870   20.8120 C   0  0  0  0  0  0  0  0  0  0  0  0
  -26.2610  -13.0070   20.2630 N   0  0  0  0  0  0  0  0  0  0  0  0
  -25.8810  -11.7310   20.5270 N   0  0  0  0  0  0  0  0  0  0  0  0
  -23.8440  -10.5340   21.0030 C   0  0  0  0  0  0  0  0  0  0  0  0
  -24.2650   -9.5610   21.9370 C   0  0  0  0  0  3  0  0  0  0  0  0
  -23.5240   -8.3730   22.1160 C   0  0  0  0  0  3  0  0  0  0  0  0
  -22.3490   -8.1490   21.3600 C   0  0  0  0  0  0  0  0  0  0  0  0
  -21.9470   -9.1100   20.4160 C   0  0  0  0  0  3  0  0  0  0  0  0
  -22.6860  -10.2900   20.2350 C   0  0  0  0  0  3  0  0  0  0  0  0
  -21.5820   -7.0140   21.4490 O   0  0  0  0  0  0  0  0  0  0  0  0
  -21.5390   -6.2590   22.5940 C   0  0  0  0  0  0  0  0  0  0  0  0
  -21.1610   -6.8130   23.8360 C   0  0  0  0  0  3  0  0  0  0  0  0
  -21.0620   -5.9870   24.9740 C   0  0  0  0  0  3  0  0  0  0  0  0
  -21.3330   -4.6100   24.8710 C   0  0  0  0  0  0  0  0  0  0  0  0
  -21.7050   -4.0560   23.6340 C   0  0  0  0  0  3  0  0  0  0  0  0
  -21.8040   -4.8790   22.4990 C   0  0  0  0  0  0  0  0  0  0  0  0
  -22.1430   -4.3360   21.3040 F   0  0  0  0  0  0  0  0  0  0  0  0
  -21.2310   -3.8150   25.9630 F   0  0  0  0  0  0  0  0  0  0  0  0
  -22.7420  -13.6370   21.0690 C   0  0  0  0  0  0  0  0  0  0  0  0
  -21.9930  -12.9560   21.9310 N   0  0  0  0  0  0  0  0  0  0  0  0
  -22.3210  -14.6610   20.5330 O   0  0  0  0  0  0  0  0  0  0  0  0
  -22.3470  -12.1280   22.3870 H   0  0  0  0  0  0  0  0  0  0  0  0
  -21.0550  -13.2680   22.1390 H   0  0  0  0  0  0  0  0  0  0  0  0
  -25.4050  -15.2680   20.2760 N   0  0  0  0  0  0  0  0  0  0  0  0
  -24.6410  -15.9320   20.3480 H   0  0  0  0  0  0  0  0  0  0  0  0
  -26.2660  -15.6900   19.9510 H   0  0  0  0  0  0  0  0  0  0  0  0
  1 45  1  0
  2  1  1  0
  3  4  1  0
  3  2  1  0
  5 16  2  0
  6  4  1  0
  6 11  1  0
  7 15  1  0
  7 17  1  0
  8 14  1  0
  8 10  1  0
  9 15  1  0
 10  9  1  0
 11 10  2  0
 12 13  1  0
 12  6  2  0
 13  8  2  0
 14  7  1  0
 15  5  1  0
 17 19  2  0
 18 17  1  0
 20 18  1  0
 21 30  2  0
 21 26  1  0
 22 18  1  0
 22 26  1  0
 23 22  1  0
 24 25  1  0
 24 23  1  0
 25 21  1  0
 26 27  2  0
 27 28  1  0
 29 28  2  0
 30 29  1  0
 31  5  1  0
 31 36  1  0
 31 32  1  0
 32 35  1  1
 32 33  1  0
 34 32  1  0
 36 39  1  0
 37 41  1  0
 37 36  1  0
 38 37  2  0
 41 40  1  0
 43 41  1  0
 43 44  1  0
 43 42  1  0
 45 46  1  0
 47 48  1  0
 47 46  1  0
 49 48  1  0
 50 49  1  0
 50 59  1  0
 51 59  1  0
 52 57  1  0
 53 54  1  0
 53 52  1  0
 55 54  1  0
 55 64  1  0
 55 56  1  0
 57 51  1  0
 57 56  1  0
 58 51  2  0
 59 60  1  0
 61 62  2  0
 62 81  1  0
 63 62  1  0
 63 66  1  0
 64 61  1  0
 64 65  1  0
 65 63  2  0
 66 67  1  0
 67 68  2  0
 69 72  1  0
 69 68  1  0
 70 69  2  0
 71 70  1  0
 71 66  2  0
 72 73  1  0
 73 74  1  0
 74 75  2  0
 76 75  1  0
 76 80  1  0
 77 76  2  0
 78 73  2  0
 78 77  1  0
 79 78  1  0
 81 82  1  0
 82 85  1  0
 82 84  1  0
 83 81  2  0
 86 87  1  0
 86 61  1  0
 88 86  1  0
M  ISO  4   3 101   4 101  51 100  59 100
M  END
>  <TORSDO>  (83) 
F 24

>  <SCORE>  (83) 
-12.325

>  <name>  (83) 
82

>  <ligand_id>  (83) 
82

>  <original_smiles>  (83) 
[H]c1c([H])c([H])c2c(c1[H])C([H])([H])C([H])([H])C([H])([H])C2([H])N([H])C(=O)C1([H])N(C(=O)C([H])(N([H])C(=O)C([H])(N([H])C([H])([H])[H])C([H])([H])[H])C(C([H])([H])[H])(C([H])([H])[H])C([H])([H])[H])C([H])([H])c2c([H])c(OC([H])([H])C([H])([H])C([H])([H])OC([H])([H])C([H])([H])C([H])([H])C([H])([H])C([H])([H])N([H])C(=O)N3C([H])([H])C([H])([H])C([H])([H])C([H])(n4nc(-c5c([H])c([H])c(Oc6c([H])c([H])c(F)c([H])c6F)c([H])c5[H])c(C(=O)N([H])[H])c4N([H])[H])C3([H])[H])c([H])c([H])c2C1([H])[H]

>  <smiles>  (83) 
[H]c1c([H])c([H])c2c(c1[H])C([H])([H])C([H])([H])C([H])([H])C2([H])N([H])C(=O)C1([H])N(C(=O)C([H])(N([H])C(=O)C([H])(N([H])C([H])([H])[H])C([H])([H])[H])C(C([H])([H])[H])(C([H])([H])[H])C([H])([H])[H])C([H])([H])c2c([H])c(OC([H])([H])C([H])([H])C([H])([H])OC([H])([H])C([H])([H])C([H])([H])C([H])([H])C([H])([H])N([H])C(=O)N3C([H])([H])C([H])([H])C([H])([H])C([H])(n4nc(-c5c([H])c([H])c(Oc6c([H])c([H])c(F)c([H])c6F)c([H])c5[H])c(C(=O)N([H])[H])c4N([H])[H])C3([H])[H])c([H])c([H])c2C1([H])[H]

$$$$
83:0:0
     RDKit          3D

 92100  0  0  1  0  0  0  0  0999 V2000
  -28.6600  -19.5350   19.0010 C   0  0  0  0  0  3  0  0  0  0  0  0
  -30.5070  -20.1470   20.3200 C   0  0  0  0  0  3  0  0  0  0  0  0
  -29.0480  -18.1310   19.0600 C   0  0  0  0  0  3  0  0  0  0  0  0
  -30.8900  -18.7390   20.3860 C   0  0  0  0  0  3  0  0  0  0  0  0
  -29.3420  -20.6350   19.6400 C   0  0  0  0  0  0  0  0  0  0  0  0
  -30.1820  -17.6300   19.7790 C   0  0  0  0  0  0  0  0  0  0  0  0
  -30.9520  -15.0420   19.3440 C   0  0  0  0  0  0  0  0  0  0  0  0
  -30.6440  -12.7330   18.3130 C   0  0  0  0  0  2  0  0  0  0  0  0
  -29.4800  -12.7290   17.2930 C   0  0  0  0  0  2  0  0  0  0  0  0
  -28.1380  -12.4610   17.9990 C   0  0  0  0  0  2  0  0  0  0  0  0
  -27.9730  -13.3180   19.2810 C   0  0  0  0  0  3  0  0  0  0  0  0
  -29.2340  -13.2850   20.1650 C   0  0  0  0  0  2  0  0  0  0  0  0
  -30.3600  -13.7710   19.3510 N   0  0  0  0  0  0  0  0  0  0  0  0
  -31.9630  -15.1760   18.6450 O   0  0  0  0  0  0  0  0  0  0  0  0
  -30.4470  -16.1410   20.1120 N   0  0  0  0  0  0  0  0  0  0  0  0
  -25.8940  -13.8040   20.6940 C   0  0  0  0  0  0  0  0  0  0  0  0
  -24.8860  -13.0050   21.1560 C   0  0  0  0  0  0  0  0  0  0  0  0
  -25.2120  -11.6770   20.7380 C   0  0  0  0  0  0  0  0  0  0  0  0
  -26.7710  -12.9640   20.0290 N   0  0  0  0  0  0  0  0  0  0  0  0
  -26.3840  -11.6650   20.1130 N   0  0  0  0  0  0  0  0  0  0  0  0
  -24.4440  -10.4300   20.8500 C   0  0  0  0  0  0  0  0  0  0  0  0
  -24.9330   -9.3220   21.5760 C   0  0  0  0  0  3  0  0  0  0  0  0
  -24.1660   -8.1420   21.6860 C   0  0  0  0  0  3  0  0  0  0  0  0
  -22.8940   -8.0620   21.0710 C   0  0  0  0  0  0  0  0  0  0  0  0
  -22.4220   -9.1600   20.3290 C   0  0  0  0  0  3  0  0  0  0  0  0
  -23.1900  -10.3310   20.2160 C   0  0  0  0  0  3  0  0  0  0  0  0
  -22.0900   -6.9480   21.1020 O   0  0  0  0  0  0  0  0  0  0  0  0
  -22.0260   -6.1390   22.2080 C   0  0  0  0  0  0  0  0  0  0  0  0
  -21.6470   -6.6350   23.4750 C   0  0  0  0  0  3  0  0  0  0  0  0
  -21.5260   -5.7550   24.5690 C   0  0  0  0  0  3  0  0  0  0  0  0
  -21.7720   -4.3790   24.3970 C   0  0  0  0  0  0  0  0  0  0  0  0
  -22.1450   -3.8830   23.1360 C   0  0  0  0  0  3  0  0  0  0  0  0
  -22.2670   -4.7590   22.0440 C   0  0  0  0  0  0  0  0  0  0  0  0
  -22.6060   -4.2720   20.8270 F   0  0  0  0  0  0  0  0  0  0  0  0
  -21.6490   -3.5320   25.4470 F   0  0  0  0  0  0  0  0  0  0  0  0
  -23.6430  -13.4590   21.8640 C   0  0  0  0  0  0  0  0  0  0  0  0
  -23.1090  -12.6310   22.7540 N   0  0  0  0  0  0  0  0  0  0  0  0
  -23.1680  -14.5760   21.6670 O   0  0  0  0  0  0  0  0  0  0  0  0
  -23.5120  -11.7220   22.9280 H   0  0  0  0  0  0  0  0  0  0  0  0
  -22.2850  -12.9080   23.2690 H   0  0  0  0  0  0  0  0  0  0  0  0
  -26.1320  -15.1730   20.7660 N   0  0  0  0  0  0  0  0  0  0  0  0
  -25.5190  -15.7950   21.2810 H   0  0  0  0  0  0  0  0  0  0  0  0
  -27.0330  -15.5870   20.5610 H   0  0  0  0  0  0  0  0  0  0  0  0
  -30.7370  -15.9380   21.5500 C   0  0  0  0  0  2  0  0  0  0  0  0
  -29.5980  -16.4100   22.4780 C   0  0  0  0  0  2  0  0  0  0  0  0
  -28.4210  -15.9480   22.0580 F   0  0  0  0  0  0  0  0  0  0  0  0
  -29.0890  -23.3750   20.0480 C   0  0  0  0  0  0  0  0  0  0  0  0
  -28.7840  -22.0690   19.5720 N   0  0  0  0  0  0  0  0  0  0  0  0
  -30.1240  -23.5660   20.6920 O   0  0  0  0  0  0  0  0  0  0  0  0
  -27.9300  -22.1100   19.0310 H   0  0  0  0  0  0  0  0  0  0  0  0
  -28.0890  -24.6740   19.7760 C   0  0  0  0  0  2  0  0  0  0  0  0
  -28.3830  -26.1480   20.2000 O   0  0  0  0  0  0  0  0  0  0  0  0
  -24.7260  -31.7730   23.2780 C   0  0  0  0  0  0  0  0  0  0  0  0
  -27.3520  -27.1600   20.1270 C   0  0  0  0  0  0  0  0  0  0  0  0
  -23.5630  -30.4540   21.5530 C   0  0  0  0  0  3  0  0  0  0  0  0
  -25.0380  -28.9300   20.1030 C   0  0  0  0  0  0  0  0  0  0  0  0
  -26.1220  -30.7020   21.4720 C   0  0  0  0  0  2  0  0  0  0  0  0
  -26.2040  -29.3370   20.7650 C   0  0  0  0  0  0  0  0  0  0  0  0
  -27.3600  -28.4670   20.7650 C   0  0  0  0  0  3  0  0  0  0  0  0
  -26.1640  -26.8680   19.4170 C   0  0  0  0  0  3  0  0  0  0  0  0
  -25.0320  -27.7090   19.4150 C   0  0  0  0  0  3  0  0  0  0  0  0
  -23.8170  -29.8340   20.1540 C   0  0  0  0  0  2  0  0  0  0  0  0
  -24.8230  -30.9960   22.1570 N   0  0  0  0  0  0  0  0  0  0  0  0
  -23.6280  -32.0470   23.7860 O   0  0  0  0  0  0  0  0  0  0  0  0
  -22.8500  -29.4140   22.4540 C   0  0  0  0  0  0  0  0  0  0  0  0
  -21.5310  -29.2350   22.2600 N   0  0  0  0  0  0  0  0  0  0  0  0
  -23.4880  -28.7730   23.2920 O   0  0  0  0  0  0  0  0  0  0  0  0
  -21.0720  -29.8050   21.5630 H   0  0  0  0  0  0  0  0  0  0  0  0
  -18.1390  -27.9990   22.5760 C   0  0  0  0  0  0  0  0  0  0  0  0
  -20.6820  -28.2730   22.9680 C   0  0  0  0  0  3  0  0  0  0  0  0
  -20.8220  -26.8580   22.3620 C   0  0  0  0  0  2  0  0  0  0  0  0
  -19.7710  -26.5530   21.2890 C   0  0  0  0  0  2  0  0  0  0  0  0
  -18.3590  -26.6700   21.8720 C   0  0  0  0  0  2  0  0  0  0  0  0
  -19.2310  -28.7580   23.0760 C   0  0  0  0  0  0  0  0  0  0  0  0
  -18.9720  -30.0010   23.6950 C   0  0  0  0  0  3  0  0  0  0  0  0
  -17.6570  -30.4860   23.8170 C   0  0  0  0  0  3  0  0  0  0  0  0
  -16.5800  -29.7220   23.3320 C   0  0  0  0  0  3  0  0  0  0  0  0
  -16.8220  -28.4800   22.7180 C   0  0  0  0  0  3  0  0  0  0  0  0
  -25.9910  -32.3730   23.9650 C   0  0  0  0  0  3  0  0  0  0  0  0
  -26.4530  -31.5560   25.2340 C   0  0  1  0  0  0  0  0  0  0  0  0
  -25.3160  -31.2860   26.2480 C   0  0  0  0  0  1  0  0  0  0  0  0
  -27.0490  -30.1900   24.8240 C   0  0  0  0  0  1  0  0  0  0  0  0
  -27.5780  -32.3230   25.9690 C   0  0  0  0  0  1  0  0  0  0  0  0
  -25.6830  -33.7640   24.3370 N   0  0  0  0  0  0  0  0  0  0  0  0
  -26.0180  -34.8410   23.6140 C   0  0  0  0  0  0  0  0  0  0  0  0
  -26.6890  -34.7690   22.5810 O   0  0  0  0  0  0  0  0  0  0  0  0
  -25.0890  -33.8940   25.1430 H   0  0  0  0  0  0  0  0  0  0  0  0
  -24.2950  -36.6520   23.3240 C   0  0  0  0  0  1  0  0  0  0  0  0
  -25.5380  -36.2170   24.1170 C   0  0  0  0  0  3  0  0  0  0  0  0
  -27.6760  -37.0730   24.9710 C   0  0  0  0  0  1  0  0  0  0  0  0
  -26.5750  -37.2700   24.0330 N   0  0  0  0  0  0  0  0  0  0  0  0
  -26.1700  -38.1870   24.2060 H   0  0  0  0  0  0  0  0  0  0  0  0
  1  3  2  0
  1  5  1  0
  2  4  1  0
  3  6  1  0
  5  2  2  0
  6 15  1  0
  6  4  2  0
  7 13  1  0
  7 15  1  0
  8 13  1  0
  9 10  1  0
  9  8  1  0
 11 10  1  0
 11 19  1  0
 11 12  1  0
 13 12  1  0
 14  7  2  0
 15 44  1  0
 16 41  1  0
 16 17  2  0
 17 36  1  0
 18 21  1  0
 18 17  1  0
 19 20  1  0
 19 16  1  0
 20 18  2  0
 21 22  1  0
 22 23  2  0
 24 27  1  0
 24 23  1  0
 25 24  2  0
 26 25  1  0
 26 21  2  0
 27 28  1  0
 28 29  1  0
 29 30  2  0
 31 30  1  0
 31 35  1  0
 32 31  2  0
 33 28  2  0
 33 32  1  0
 34 33  1  0
 36 37  1  0
 37 39  1  0
 37 40  1  0
 38 36  2  0
 41 42  1  0
 43 41  1  0
 44 45  1  0
 46 45  1  0
 47 49  2  0
 48  5  1  0
 48 47  1  0
 50 48  1  0
 51 47  1  0
 51 52  1  0
 53 64  2  0
 54 52  1  0
 54 59  1  0
 55 63  1  0
 55 65  1  0
 56 62  1  0
 56 58  1  0
 57 63  1  0
 58 59  2  0
 58 57  1  0
 60 54  2  0
 61 60  1  0
 61 56  2  0
 62 55  1  0
 63 53  1  0
 65 67  2  0
 66 65  1  0
 68 66  1  0
 69 78  2  0
 69 74  1  0
 70 66  1  0
 70 74  1  0
 71 70  1  0
 72 73  1  0
 72 71  1  0
 73 69  1  0
 74 75  2  0
 75 76  1  0
 77 76  2  0
 78 77  1  0
 79 53  1  0
 79 84  1  0
 79 80  1  0
 80 83  1  1
 80 81  1  0
 82 80  1  0
 84 87  1  0
 85 89  1  0
 85 84  1  0
 86 85  2  0
 89 88  1  0
 91 89  1  0
 91 92  1  0
 91 90  1  0
M  ISO  4   7 100  15 100  51 101  52 101
M  END
>  <TORSDO>  (84) 
F 20

>  <SCORE>  (84) 
-8.885

>  <name>  (84) 
83

>  <ligand_id>  (84) 
83

>  <original_smiles>  (84) 
[H]c1c([H])c([H])c2c(c1[H])C([H])([H])C([H])([H])C([H])([H])C2([H])N([H])C(=O)C1([H])N(C(=O)C([H])(N([H])C(=O)C([H])(N([H])C([H])([H])[H])C([H])([H])[H])C(C([H])([H])[H])(C([H])([H])[H])C([H])([H])[H])C([H])([H])c2c([H])c(OC([H])([H])C(=O)N([H])c3c([H])c([H])c(N(C(=O)N4C([H])([H])C([H])([H])C([H])([H])C([H])(n5nc(-c6c([H])c([H])c(Oc7c([H])c([H])c(F)c([H])c7F)c([H])c6[H])c(C(=O)N([H])[H])c5N([H])[H])C4([H])[H])C([H])([H])C([H])([H])F)c([H])c3[H])c([H])c([H])c2C1([H])[H]

>  <smiles>  (84) 
[H]c1c([H])c([H])c2c(c1[H])C([H])([H])C([H])([H])C([H])([H])C2([H])N([H])C(=O)C1([H])N(C(=O)C([H])(N([H])C(=O)C([H])(N([H])C([H])([H])[H])C([H])([H])[H])C(C([H])([H])[H])(C([H])([H])[H])C([H])([H])[H])C([H])([H])c2c([H])c(OC([H])([H])C(=O)N([H])c3c([H])c([H])c(N(C(=O)N4C([H])([H])C([H])([H])C([H])([H])C([H])(n5nc(-c6c([H])c([H])c(Oc7c([H])c([H])c(F)c([H])c7F)c([H])c6[H])c(C(=O)N([H])[H])c5N([H])[H])C4([H])[H])C([H])([H])C([H])([H])F)c([H])c3[H])c([H])c([H])c2C1([H])[H]

$$$$
84:0:0
     RDKit          3D

 91 99  0  0  1  0  0  0  0  0999 V2000
  -30.1410  -18.2980   21.5950 C   0  0  0  0  0  3  0  0  0  0  0  0
  -29.8270  -19.6740   21.3560 C   0  0  0  0  0  3  0  0  0  0  0  0
  -29.5550  -17.7240   19.3530 C   0  0  0  0  0  3  0  0  0  0  0  0
  -30.0170  -17.2590   20.6160 C   0  0  0  0  0  0  0  0  0  0  0  0
  -29.3340  -20.1200   20.1020 C   0  0  0  0  0  0  0  0  0  0  0  0
  -29.1790  -19.0890   19.1200 C   0  0  0  0  0  0  0  0  0  0  0  0
  -30.7500  -14.8190   20.1370 C   0  0  0  0  0  0  0  0  0  0  0  0
  -30.4090  -12.6360   18.9450 C   0  0  0  0  0  2  0  0  0  0  0  0
  -29.4190  -12.7910   17.7730 C   0  0  0  0  0  2  0  0  0  0  0  0
  -27.9700  -12.6190   18.2590 C   0  0  0  0  0  2  0  0  0  0  0  0
  -27.6730  -13.4540   19.5290 C   0  0  0  0  0  3  0  0  0  0  0  0
  -28.7680  -13.2750   20.5960 C   0  0  0  0  0  2  0  0  0  0  0  0
  -30.0590  -13.6330   19.9880 N   0  0  0  0  0  0  0  0  0  0  0  0
  -31.8240  -14.9800   19.5460 O   0  0  0  0  0  0  0  0  0  0  0  0
  -30.3720  -15.5330   22.3900 C   0  0  0  0  0  1  0  0  0  0  0  0
  -30.2390  -15.8220   20.9520 N   0  0  0  0  0  0  0  0  0  0  0  0
  -25.3100  -14.0450   20.3400 C   0  0  0  0  0  0  0  0  0  0  0  0
  -24.2580  -13.2720   20.7420 C   0  0  0  0  0  0  0  0  0  0  0  0
  -24.7220  -11.9200   20.6960 C   0  0  0  0  0  0  0  0  0  0  0  0
  -26.3440  -13.1680   20.0620 N   0  0  0  0  0  0  0  0  0  0  0  0
  -26.0000  -11.8830   20.3420 N   0  0  0  0  0  0  0  0  0  0  0  0
  -24.0050  -10.6590   20.9150 C   0  0  0  0  0  0  0  0  0  0  0  0
  -24.4660   -9.6940   21.8390 C   0  0  0  0  0  3  0  0  0  0  0  0
  -23.7470   -8.4960   22.0440 C   0  0  0  0  0  3  0  0  0  0  0  0
  -22.5540   -8.2530   21.3230 C   0  0  0  0  0  0  0  0  0  0  0  0
  -22.1100   -9.2060   20.3870 C   0  0  0  0  0  3  0  0  0  0  0  0
  -22.8320  -10.3930   20.1820 C   0  0  0  0  0  3  0  0  0  0  0  0
  -21.8030   -7.1060   21.4380 O   0  0  0  0  0  0  0  0  0  0  0  0
  -21.7800   -6.3720   22.5980 C   0  0  0  0  0  0  0  0  0  0  0  0
  -21.3840   -6.9390   23.8280 C   0  0  0  0  0  3  0  0  0  0  0  0
  -21.3100   -6.1340   24.9820 C   0  0  0  0  0  3  0  0  0  0  0  0
  -21.6190   -4.7620   24.9060 C   0  0  0  0  0  0  0  0  0  0  0  0
  -22.0080   -4.1960   23.6790 C   0  0  0  0  0  3  0  0  0  0  0  0
  -22.0850   -4.9990   22.5280 C   0  0  0  0  0  0  0  0  0  0  0  0
  -22.4390   -4.4430   21.3430 F   0  0  0  0  0  0  0  0  0  0  0  0
  -21.5400   -3.9870   26.0120 F   0  0  0  0  0  0  0  0  0  0  0  0
  -22.8710  -13.7460   21.0630 C   0  0  0  0  0  0  0  0  0  0  0  0
  -22.1770  -13.0540   21.9570 N   0  0  0  0  0  0  0  0  0  0  0  0
  -22.4120  -14.7700   20.5550 O   0  0  0  0  0  0  0  0  0  0  0  0
  -22.5600  -12.2240   22.3890 H   0  0  0  0  0  0  0  0  0  0  0  0
  -21.2500  -13.3560   22.2200 H   0  0  0  0  0  0  0  0  0  0  0  0
  -25.4690  -15.4180   20.1720 N   0  0  0  0  0  0  0  0  0  0  0  0
  -24.7250  -16.0760   20.3830 H   0  0  0  0  0  0  0  0  0  0  0  0
  -26.3330  -15.8690   19.9010 H   0  0  0  0  0  0  0  0  0  0  0  0
  -27.2370  -19.8170   18.0330 C   0  0  0  0  0  1  0  0  0  0  0  0
  -28.5900  -19.3750   17.9150 O   0  0  0  0  0  0  0  0  0  0  0  0
  -29.0280  -21.4640   19.7560 O   0  0  0  0  0  0  0  0  0  0  0  0
  -28.8390  -22.5810   20.6960 C   0  0  0  0  0  3  0  0  0  0  0  0
  -28.7300  -24.0290   20.0190 C   0  0  0  0  0  3  0  0  0  0  0  0
  -28.3960  -25.2870   20.9410 C   0  0  0  0  0  2  0  0  0  0  0  0
  -28.5290  -26.6580   20.4010 O   0  0  0  0  0  0  0  0  0  0  0  0
  -24.6560  -31.9970   23.3380 C   0  0  0  0  0  0  0  0  0  0  0  0
  -27.3870  -27.4620   20.3790 C   0  0  0  0  0  0  0  0  0  0  0  0
  -23.5000  -30.5600   21.6960 C   0  0  0  0  0  3  0  0  0  0  0  0
  -24.9950  -29.0160   20.3120 C   0  0  0  0  0  0  0  0  0  0  0  0
  -26.0340  -30.9240   21.5420 C   0  0  0  0  0  2  0  0  0  0  0  0
  -26.1450  -29.5400   20.9130 C   0  0  0  0  0  0  0  0  0  0  0  0
  -27.3520  -28.7800   20.9260 C   0  0  0  0  0  3  0  0  0  0  0  0
  -26.2150  -26.9730   19.7690 C   0  0  0  0  0  3  0  0  0  0  0  0
  -25.0300  -27.7370   19.7320 C   0  0  0  0  0  3  0  0  0  0  0  0
  -23.7440  -29.8710   20.3290 C   0  0  0  0  0  2  0  0  0  0  0  0
  -24.7470  -31.1790   22.2480 N   0  0  0  0  0  0  0  0  0  0  0  0
  -23.5610  -32.2630   23.8540 O   0  0  0  0  0  0  0  0  0  0  0  0
  -22.8400  -29.5430   22.6580 C   0  0  0  0  0  0  0  0  0  0  0  0
  -21.5220  -29.3370   22.5060 N   0  0  0  0  0  0  0  0  0  0  0  0
  -23.5150  -28.9410   23.4980 O   0  0  0  0  0  0  0  0  0  0  0  0
  -21.0380  -29.8720   21.7990 H   0  0  0  0  0  0  0  0  0  0  0  0
  -18.1600  -28.0780   22.9490 C   0  0  0  0  0  0  0  0  0  0  0  0
  -20.7060  -28.3960   23.2760 C   0  0  0  0  0  3  0  0  0  0  0  0
  -20.8540  -26.9580   22.7300 C   0  0  0  0  0  2  0  0  0  0  0  0
  -19.7830  -26.5940   21.6940 C   0  0  0  0  0  2  0  0  0  0  0  0
  -18.3820  -26.7220   22.3000 C   0  0  0  0  0  2  0  0  0  0  0  0
  -19.2510  -28.8700   23.3910 C   0  0  0  0  0  0  0  0  0  0  0  0
  -18.9900  -30.1400   23.9520 C   0  0  0  0  0  3  0  0  0  0  0  0
  -17.6720  -30.6150   24.0800 C   0  0  0  0  0  3  0  0  0  0  0  0
  -16.5950  -29.8180   23.6540 C   0  0  0  0  0  3  0  0  0  0  0  0
  -16.8410  -28.5540   23.0900 C   0  0  0  0  0  3  0  0  0  0  0  0
  -25.9220  -32.6530   23.9720 C   0  0  0  0  0  3  0  0  0  0  0  0
  -25.5970  -34.0560   24.2650 N   0  0  0  0  0  0  0  0  0  0  0  0
  -25.9330  -35.0930   23.4860 C   0  0  0  0  0  0  0  0  0  0  0  0
  -26.6170  -34.9700   22.4670 O   0  0  0  0  0  0  0  0  0  0  0  0
  -24.9880  -34.2270   25.0530 H   0  0  0  0  0  0  0  0  0  0  0  0
  -24.1890  -36.8550   23.0680 C   0  0  0  0  0  1  0  0  0  0  0  0
  -25.4260  -36.4880   23.9030 C   0  0  0  0  0  3  0  0  0  0  0  0
  -27.5450  -37.4130   24.7330 C   0  0  0  0  0  1  0  0  0  0  0  0
  -26.4510  -37.5490   23.7750 N   0  0  0  0  0  0  0  0  0  0  0  0
  -26.0340  -38.4690   23.8960 H   0  0  0  0  0  0  0  0  0  0  0  0
  -26.4180  -31.9180   25.2770 C   0  0  1  0  0  0  0  0  0  0  0  0
  -25.3000  -31.6940   26.3220 C   0  0  0  0  0  1  0  0  0  0  0  0
  -27.0260  -30.5370   24.9310 C   0  0  0  0  0  1  0  0  0  0  0  0
  -27.5450  -32.7420   25.9410 C   0  0  0  0  0  1  0  0  0  0  0  0
  2  1  1  0
  3  4  1  0
  4 16  1  0
  4  1  2  0
  5  2  2  0
  6  3  2  0
  6  5  1  0
  7 16  1  0
  8 13  1  0
  9 10  1  0
  9  8  1  0
 11 10  1  0
 11 20  1  0
 11 12  1  0
 13  7  1  0
 13 12  1  0
 14  7  2  0
 16 15  1  0
 17 18  2  0
 18 37  1  0
 19 18  1  0
 19 22  1  0
 20 17  1  0
 20 21  1  0
 21 19  2  0
 22 23  1  0
 23 24  2  0
 25 28  1  0
 25 24  1  0
 26 25  2  0
 27 26  1  0
 27 22  2  0
 28 29  1  0
 29 30  1  0
 30 31  2  0
 32 31  1  0
 32 36  1  0
 33 32  2  0
 34 29  2  0
 34 33  1  0
 35 34  1  0
 37 38  1  0
 38 41  1  0
 38 40  1  0
 39 37  2  0
 42 17  1  0
 42 43  1  0
 44 42  1  0
 46 45  1  0
 46  6  1  0
 47  5  1  0
 47 48  1  0
 49 48  2  0
 49 50  1  0
 51 50  1  0
 52 63  2  0
 53 51  1  0
 53 58  1  0
 54 62  1  0
 54 64  1  0
 55 61  1  0
 55 57  1  0
 56 62  1  0
 57 58  2  0
 57 56  1  0
 59 53  2  0
 60 59  1  0
 60 55  2  0
 61 54  1  0
 62 52  1  0
 64 66  2  0
 65 64  1  0
 67 65  1  0
 68 77  2  0
 68 73  1  0
 69 65  1  0
 69 73  1  0
 70 69  1  0
 71 72  1  0
 71 70  1  0
 72 68  1  0
 73 74  2  0
 74 75  1  0
 76 75  2  0
 77 76  1  0
 78 52  1  0
 78 79  1  0
 78 88  1  0
 79 82  1  0
 80 84  1  0
 80 79  1  0
 81 80  2  0
 84 83  1  0
 86 87  1  0
 86 84  1  0
 86 85  1  0
 88 91  1  1
 88 89  1  0
 90 88  1  0
M  ISO  4   7 100  16 100  50 101  51 101
M  END
>  <TORSDO>  (85) 
F 21

>  <SCORE>  (85) 
-12.439

>  <name>  (85) 
84

>  <ligand_id>  (85) 
84

>  <original_smiles>  (85) 
[H]c1c([H])c([H])c2c(c1[H])C([H])([H])C([H])([H])C([H])([H])C2([H])N([H])C(=O)C1([H])N(C(=O)C([H])(N([H])C(=O)C([H])(N([H])C([H])([H])[H])C([H])([H])[H])C(C([H])([H])[H])(C([H])([H])[H])C([H])([H])[H])C([H])([H])c2c([H])c(OC([H])([H])C([H])([H])C([H])([H])Oc3c([H])c([H])c(N(C(=O)N4C([H])([H])C([H])([H])C([H])([H])C([H])(n5nc(-c6c([H])c([H])c(Oc7c([H])c([H])c(F)c([H])c7F)c([H])c6[H])c(C(=O)N([H])[H])c5N([H])[H])C4([H])[H])C([H])([H])[H])c([H])c3OC([H])([H])[H])c([H])c([H])c2C1([H])[H]

>  <smiles>  (85) 
[H]c1c([H])c([H])c2c(c1[H])C([H])([H])C([H])([H])C([H])([H])C2([H])N([H])C(=O)C1([H])N(C(=O)C([H])(N([H])C(=O)C([H])(N([H])C([H])([H])[H])C([H])([H])[H])C(C([H])([H])[H])(C([H])([H])[H])C([H])([H])[H])C([H])([H])c2c([H])c(OC([H])([H])C([H])([H])C([H])([H])Oc3c([H])c([H])c(N(C(=O)N4C([H])([H])C([H])([H])C([H])([H])C([H])(n5nc(-c6c([H])c([H])c(Oc7c([H])c([H])c(F)c([H])c7F)c([H])c6[H])c(C(=O)N([H])[H])c5N([H])[H])C4([H])[H])C([H])([H])[H])c([H])c3OC([H])([H])[H])c([H])c([H])c2C1([H])[H]

$$$$
85:0:0
     RDKit          3D

 95103  0  0  1  0  0  0  0  0999 V2000
  -30.6830  -20.9750   19.7880 C   0  0  0  0  0  3  0  0  0  0  0  0
  -30.2890  -22.1910   20.2380 C   0  0  0  0  0  3  0  0  0  0  0  0
  -30.9830  -19.2160   21.6050 C   0  0  0  0  0  3  0  0  0  0  0  0
  -30.8520  -17.8750   22.0320 C   0  0  0  0  0  3  0  0  0  0  0  0
  -29.8910  -18.6470   19.5170 C   0  0  0  0  0  3  0  0  0  0  0  0
  -30.5040  -19.6130   20.3380 C   0  0  0  0  0  0  0  0  0  0  0  0
  -29.7320  -17.3060   19.9380 C   0  0  0  0  0  0  0  0  0  0  0  0
  -30.2450  -16.9060   21.2020 C   0  0  0  0  0  0  0  0  0  0  0  0
  -29.8660  -15.9950   17.9540 C   0  0  0  0  0  1  0  0  0  0  0  0
  -27.6990  -16.8210   18.7760 C   0  0  0  0  0  1  0  0  0  0  0  0
  -29.0580  -16.3940   19.1030 N   0  0  0  0  0  0  0  0  0  0  0  0
  -30.0870  -15.6110   21.6570 O   0  0  0  0  0  0  0  0  0  0  0  0
  -30.9540  -14.6440   21.2530 C   0  0  0  0  0  0  0  0  0  0  0  0
  -30.8150  -12.3940   20.2160 C   0  0  0  0  0  2  0  0  0  0  0  0
  -30.0140  -12.5390   18.9030 C   0  0  0  0  0  2  0  0  0  0  0  0
  -28.4970  -12.4300   19.1600 C   0  0  0  0  0  2  0  0  0  0  0  0
  -28.0130  -13.3160   20.3390 C   0  0  0  0  0  3  0  0  0  0  0  0
  -28.9270  -13.1490   21.5720 C   0  0  0  0  0  2  0  0  0  0  0  0
  -30.3120  -13.4020   21.1530 N   0  0  0  0  0  0  0  0  0  0  0  0
  -32.1110  -14.8740   20.8890 O   0  0  0  0  0  0  0  0  0  0  0  0
  -25.5500  -13.9370   20.7470 C   0  0  0  0  0  0  0  0  0  0  0  0
  -24.4460  -13.1730   21.0150 C   0  0  0  0  0  0  0  0  0  0  0  0
  -24.9100  -11.8230   21.0760 C   0  0  0  0  0  0  0  0  0  0  0  0
  -26.6140  -13.0540   20.6650 N   0  0  0  0  0  0  0  0  0  0  0  0
  -26.2250  -11.7790   20.9190 N   0  0  0  0  0  0  0  0  0  0  0  0
  -24.1690  -10.5640   21.2190 C   0  0  0  0  0  0  0  0  0  0  0  0
  -24.5230   -9.6050   22.1940 C   0  0  0  0  0  3  0  0  0  0  0  0
  -23.7840   -8.4090   22.3230 C   0  0  0  0  0  3  0  0  0  0  0  0
  -22.6770   -8.1640   21.4770 C   0  0  0  0  0  0  0  0  0  0  0  0
  -22.3440   -9.1110   20.4920 C   0  0  0  0  0  3  0  0  0  0  0  0
  -23.0840  -10.2980   20.3600 C   0  0  0  0  0  3  0  0  0  0  0  0
  -21.9180   -7.0200   21.5130 O   0  0  0  0  0  0  0  0  0  0  0  0
  -21.7970   -6.2730   22.6570 C   0  0  0  0  0  0  0  0  0  0  0  0
  -21.3230   -6.8300   23.8660 C   0  0  0  0  0  3  0  0  0  0  0  0
  -21.1490   -6.0100   24.9980 C   0  0  0  0  0  3  0  0  0  0  0  0
  -21.4390   -4.6350   24.9240 C   0  0  0  0  0  0  0  0  0  0  0  0
  -21.9050   -4.0770   23.7210 C   0  0  0  0  0  3  0  0  0  0  0  0
  -22.0810   -4.8930   22.5910 C   0  0  0  0  0  0  0  0  0  0  0  0
  -22.5120   -4.3470   21.4280 F   0  0  0  0  0  0  0  0  0  0  0  0
  -21.2630   -3.8450   26.0090 F   0  0  0  0  0  0  0  0  0  0  0  0
  -23.0260  -13.6510   21.1150 C   0  0  0  0  0  0  0  0  0  0  0  0
  -22.2090  -12.9840   21.9200 N   0  0  0  0  0  0  0  0  0  0  0  0
  -22.6470  -14.6550   20.5120 O   0  0  0  0  0  0  0  0  0  0  0  0
  -22.5230  -12.1710   22.4320 H   0  0  0  0  0  0  0  0  0  0  0  0
  -21.2510  -13.2870   22.0290 H   0  0  0  0  0  0  0  0  0  0  0  0
  -25.7350  -15.3020   20.5510 N   0  0  0  0  0  0  0  0  0  0  0  0
  -24.9660  -15.9630   20.5450 H   0  0  0  0  0  0  0  0  0  0  0  0
  -26.6310  -15.7220   20.3470 H   0  0  0  0  0  0  0  0  0  0  0  0
  -29.5040  -22.4400   21.4480 C   0  0  0  0  0  0  0  0  0  0  0  0
  -28.5570  -24.0340   23.0200 C   0  0  0  0  0  1  0  0  0  0  0  0
  -29.2520  -23.7460   21.7560 N   0  0  0  0  0  0  0  0  0  0  0  0
  -29.0880  -21.5370   22.1800 O   0  0  0  0  0  0  0  0  0  0  0  0
  -29.5690  -24.9680   20.9810 C   0  0  0  0  0  2  0  0  0  0  0  0
  -28.3820  -25.4270   20.1050 C   0  0  0  0  0  2  0  0  0  0  0  0
  -28.4580  -26.8430   19.8910 O   0  0  0  0  0  0  0  0  0  0  0  0
  -24.6700  -31.9120   23.1230 C   0  0  0  0  0  0  0  0  0  0  0  0
  -27.2710  -27.5460   19.9110 C   0  0  0  0  0  0  0  0  0  0  0  0
  -23.4330  -30.5290   21.4870 C   0  0  0  0  0  3  0  0  0  0  0  0
  -24.8600  -29.0250   20.0020 C   0  0  0  0  0  0  0  0  0  0  0  0
  -25.9480  -30.9120   21.2300 C   0  0  0  0  0  2  0  0  0  0  0  0
  -26.0270  -29.5520   20.5680 C   0  0  0  0  0  0  0  0  0  0  0  0
  -27.2350  -28.8230   20.5130 C   0  0  0  0  0  3  0  0  0  0  0  0
  -26.0870  -27.0320   19.3330 C   0  0  0  0  0  3  0  0  0  0  0  0
  -24.8840  -27.7630   19.3810 C   0  0  0  0  0  3  0  0  0  0  0  0
  -23.6110  -29.8710   20.0930 C   0  0  0  0  0  2  0  0  0  0  0  0
  -24.7040  -31.1310   22.0060 N   0  0  0  0  0  0  0  0  0  0  0  0
  -23.6000  -32.1670   23.6930 O   0  0  0  0  0  0  0  0  0  0  0  0
  -22.8130  -29.4890   22.4470 C   0  0  0  0  0  0  0  0  0  0  0  0
  -21.4850  -29.3050   22.3540 N   0  0  0  0  0  0  0  0  0  0  0  0
  -23.5200  -28.8490   23.2300 O   0  0  0  0  0  0  0  0  0  0  0  0
  -20.9750  -29.8770   21.6960 H   0  0  0  0  0  0  0  0  0  0  0  0
  -18.1300  -28.0840   22.9100 C   0  0  0  0  0  0  0  0  0  0  0  0
  -20.6910  -28.3510   23.1270 C   0  0  0  0  0  3  0  0  0  0  0  0
  -20.7870  -26.9290   22.5260 C   0  0  0  0  0  2  0  0  0  0  0  0
  -19.6630  -26.6160   21.5330 C   0  0  0  0  0  2  0  0  0  0  0  0
  -18.2960  -26.7450   22.2100 C   0  0  0  0  0  2  0  0  0  0  0  0
  -19.2540  -28.8440   23.3260 C   0  0  0  0  0  0  0  0  0  0  0  0
  -19.0430  -30.0980   23.9410 C   0  0  0  0  0  3  0  0  0  0  0  0
  -17.7410  -30.5910   24.1440 C   0  0  0  0  0  3  0  0  0  0  0  0
  -16.6310  -29.8270   23.7420 C   0  0  0  0  0  3  0  0  0  0  0  0
  -16.8260  -28.5750   23.1320 C   0  0  0  0  0  3  0  0  0  0  0  0
  -25.9670  -32.5410   23.7220 C   0  0  0  0  0  3  0  0  0  0  0  0
  -25.6490  -33.9210   24.1140 N   0  0  0  0  0  0  0  0  0  0  0  0
  -25.9440  -35.0050   23.3840 C   0  0  0  0  0  0  0  0  0  0  0  0
  -26.5830  -34.9500   22.3300 O   0  0  0  0  0  0  0  0  0  0  0  0
  -25.0790  -34.0370   24.9400 H   0  0  0  0  0  0  0  0  0  0  0  0
  -24.1760  -36.7790   23.1510 C   0  0  0  0  0  1  0  0  0  0  0  0
  -25.4500  -36.3680   23.9070 C   0  0  0  0  0  3  0  0  0  0  0  0
  -27.6010  -37.2540   24.6940 C   0  0  0  0  0  1  0  0  0  0  0  0
  -26.4620  -37.4410   23.7980 N   0  0  0  0  0  0  0  0  0  0  0  0
  -26.0470  -38.3470   23.9970 H   0  0  0  0  0  0  0  0  0  0  0  0
  -26.5430  -31.7310   24.9480 C   0  0  1  0  0  0  0  0  0  0  0  0
  -25.4950  -31.4390   26.0470 C   0  0  0  0  0  1  0  0  0  0  0  0
  -27.1260  -30.3770   24.4800 C   0  0  0  0  0  1  0  0  0  0  0  0
  -27.7070  -32.5170   25.5950 C   0  0  0  0  0  1  0  0  0  0  0  0
  1  2  2  0
  1  6  1  0
  2 49  1  0
  3  4  1  0
  5  7  2  0
  5  6  1  0
  6  3  2  0
  7  8  1  0
  8 12  1  0
  8  4  2  0
  9 11  1  0
 10 11  1  0
 11  7  1  0
 13 12  1  0
 14 19  1  0
 15 16  1  0
 15 14  1  0
 17 16  1  0
 17 24  1  0
 17 18  1  0
 19 13  1  0
 19 18  1  0
 20 13  2  0
 21 22  2  0
 22 23  1  0
 22 41  1  0
 23 26  1  0
 24 21  1  0
 24 25  1  0
 25 23  2  0
 26 27  1  0
 27 28  2  0
 29 32  1  0
 29 28  1  0
 30 29  2  0
 31 30  1  0
 31 26  2  0
 32 33  1  0
 33 34  1  0
 34 35  2  0
 36 35  1  0
 36 40  1  0
 37 36  2  0
 38 33  2  0
 38 37  1  0
 39 38  1  0
 41 42  1  0
 42 45  1  0
 42 44  1  0
 43 41  2  0
 46 21  1  0
 47 46  1  0
 48 46  1  0
 49 51  1  0
 49 52  2  0
 51 50  1  0
 53 51  1  0
 54 53  1  0
 55 57  1  0
 55 54  1  0
 56 67  2  0
 57 62  1  0
 58 66  1  0
 58 68  1  0
 59 65  1  0
 59 61  1  0
 60 66  1  0
 61 60  1  0
 62 61  2  0
 63 64  1  0
 63 57  2  0
 64 59  2  0
 65 58  1  0
 66 56  1  0
 68 70  2  0
 69 68  1  0
 71 69  1  0
 72 81  2  0
 72 77  1  0
 73 69  1  0
 73 77  1  0
 74 73  1  0
 75 76  1  0
 75 74  1  0
 76 72  1  0
 77 78  2  0
 78 79  1  0
 80 79  2  0
 81 80  1  0
 82 56  1  0
 82 83  1  0
 82 92  1  0
 83 86  1  0
 84 88  1  0
 84 83  1  0
 85 84  2  0
 88 87  1  0
 90 88  1  0
 90 91  1  0
 90 89  1  0
 92 95  1  1
 92 93  1  0
 94 92  1  0
M  ISO  4  12 100  13 100  54 101  55 101
M  END
>  <TORSDO>  (86) 
F 22

>  <SCORE>  (86) 
-11.765

>  <name>  (86) 
85

>  <ligand_id>  (86) 
85

>  <original_smiles>  (86) 
[H]C(C(=O)N(C([H])([H])[H])C([H])([H])C([H])([H])Oc1c([H])c([H])c2c(c1[H])C([H])([H])N(C(=O)C([H])(N([H])C(=O)C([H])(N([H])C([H])([H])[H])C([H])([H])[H])C(C([H])([H])[H])(C([H])([H])[H])C([H])([H])[H])C([H])(C(=O)N([H])C1([H])c3c([H])c([H])c([H])c([H])c3C([H])([H])C([H])([H])C1([H])[H])C2([H])[H])=C([H])c1c([H])c([H])c(OC(=O)N2C([H])([H])C([H])([H])C([H])([H])C([H])(n3nc(-c4c([H])c([H])c(Oc5c([H])c([H])c(F)c([H])c5F)c([H])c4[H])c(C(=O)N([H])[H])c3N([H])[H])C2([H])[H])c(N(C([H])([H])[H])C([H])([H])[H])c1[H]

>  <smiles>  (86) 
[H]C(C(=O)N(C([H])([H])[H])C([H])([H])C([H])([H])Oc1c([H])c([H])c2c(c1[H])C([H])([H])N(C(=O)C([H])(N([H])C(=O)C([H])(N([H])C([H])([H])[H])C([H])([H])[H])C(C([H])([H])[H])(C([H])([H])[H])C([H])([H])[H])C([H])(C(=O)N([H])C1([H])c3c([H])c([H])c([H])c([H])c3C([H])([H])C([H])([H])C1([H])[H])C2([H])[H])=C([H])c1c([H])c([H])c(OC(=O)N2C([H])([H])C([H])([H])C([H])([H])C([H])(n3nc(-c4c([H])c([H])c(Oc5c([H])c([H])c(F)c([H])c5F)c([H])c4[H])c(C(=O)N([H])[H])c3N([H])[H])C2([H])[H])c(N(C([H])([H])[H])C([H])([H])[H])c1[H]

$$$$
86:0:0
     RDKit          3D

102110  0  0  1  0  0  0  0  0999 V2000
  -29.5430  -23.7080   19.5590 C   0  0  0  0  0  1  0  0  0  0  0  0
  -29.8220  -23.0420   20.9240 C   0  0  0  0  0  3  0  0  0  0  0  0
  -29.9740  -20.5200   20.9970 C   0  0  0  0  0  0  0  0  0  0  0  0
  -29.3140  -21.6740   20.8300 N   0  0  0  0  0  0  0  0  0  0  0  0
  -31.1190  -20.4470   21.4480 O   0  0  0  0  0  0  0  0  0  0  0  0
  -28.3650  -21.5810   20.4980 H   0  0  0  0  0  0  0  0  0  0  0  0
  -27.9180  -19.4120   20.0090 C   0  0  0  0  0  3  0  0  0  0  0  0
  -27.2130  -18.2810   19.5730 C   0  0  0  0  0  3  0  0  0  0  0  0
  -29.7700  -17.9980   20.7470 C   0  0  0  0  0  3  0  0  0  0  0  0
  -29.2080  -19.2900   20.5840 C   0  0  0  0  0  0  0  0  0  0  0  0
  -29.0540  -16.8620   20.3120 C   0  0  0  0  0  0  0  0  0  0  0  0
  -27.7860  -16.9970   19.6940 C   0  0  0  0  0  0  0  0  0  0  0  0
  -30.3560  -14.8140   21.1910 C   0  0  0  0  0  0  0  0  0  0  0  0
  -30.4450  -12.6260   20.1570 C   0  0  0  0  0  2  0  0  0  0  0  0
  -29.5300  -12.7520   18.9170 C   0  0  0  0  0  2  0  0  0  0  0  0
  -28.0600  -12.4470   19.2650 C   0  0  0  0  0  2  0  0  0  0  0  0
  -27.5510  -13.2070   20.5150 C   0  0  0  0  0  3  0  0  0  0  0  0
  -28.5820  -13.1330   21.6780 C   0  0  0  0  0  2  0  0  0  0  0  0
  -29.9200  -13.5310   21.1800 N   0  0  0  0  0  0  0  0  0  0  0  0
  -31.5330  -15.1790   21.1840 O   0  0  0  0  0  0  0  0  0  0  0  0
  -29.4070  -15.5200   20.5730 N   0  0  0  0  0  0  0  0  0  0  0  0
  -28.7300  -14.8810   20.1890 H   0  0  0  0  0  0  0  0  0  0  0  0
  -25.0850  -13.5970   21.1330 C   0  0  0  0  0  0  0  0  0  0  0  0
  -24.0600  -12.7210   21.3750 C   0  0  0  0  0  0  0  0  0  0  0  0
  -24.6300  -11.4180   21.2650 C   0  0  0  0  0  0  0  0  0  0  0  0
  -26.2060  -12.8080   20.9030 N   0  0  0  0  0  0  0  0  0  0  0  0
  -25.9330  -11.4910   21.0430 N   0  0  0  0  0  0  0  0  0  0  0  0
  -24.0030  -10.0940   21.3050 C   0  0  0  0  0  0  0  0  0  0  0  0
  -24.4970   -9.0780   22.1520 C   0  0  0  0  0  3  0  0  0  0  0  0
  -23.8690   -7.8140   22.1870 C   0  0  0  0  0  3  0  0  0  0  0  0
  -22.7380   -7.5610   21.3750 C   0  0  0  0  0  0  0  0  0  0  0  0
  -22.2630   -8.5730   20.5210 C   0  0  0  0  0  3  0  0  0  0  0  0
  -22.8930   -9.8270   20.4810 C   0  0  0  0  0  3  0  0  0  0  0  0
  -22.0800   -6.3570   21.3230 O   0  0  0  0  0  0  0  0  0  0  0  0
  -22.0620   -5.5020   22.3950 C   0  0  0  0  0  0  0  0  0  0  0  0
  -21.5540   -5.8940   23.6530 C   0  0  0  0  0  3  0  0  0  0  0  0
  -21.4880   -4.9640   24.7080 C   0  0  0  0  0  3  0  0  0  0  0  0
  -21.9190   -3.6370   24.5090 C   0  0  0  0  0  0  0  0  0  0  0  0
  -22.4240   -3.2450   23.2560 C   0  0  0  0  0  3  0  0  0  0  0  0
  -22.4920   -4.1730   22.2030 C   0  0  0  0  0  0  0  0  0  0  0  0
  -22.9560   -3.7840   20.9920 F   0  0  0  0  0  0  0  0  0  0  0  0
  -21.8560   -2.7410   25.5220 F   0  0  0  0  0  0  0  0  0  0  0  0
  -22.6180  -13.0680   21.5990 C   0  0  0  0  0  0  0  0  0  0  0  0
  -21.9110  -12.2630   22.3860 N   0  0  0  0  0  0  0  0  0  0  0  0
  -22.1170  -14.0860   21.1230 O   0  0  0  0  0  0  0  0  0  0  0  0
  -22.3270  -11.4360   22.7920 H   0  0  0  0  0  0  0  0  0  0  0  0
  -20.9470  -12.4840   22.5900 H   0  0  0  0  0  0  0  0  0  0  0  0
  -25.1480  -14.9860   21.0710 N   0  0  0  0  0  0  0  0  0  0  0  0
  -24.3370  -15.5770   21.2150 H   0  0  0  0  0  0  0  0  0  0  0  0
  -25.9770  -15.5100   20.8220 H   0  0  0  0  0  0  0  0  0  0  0  0
  -25.7840  -15.8830   18.9500 C   0  0  0  0  0  1  0  0  0  0  0  0
  -27.1670  -15.8390   19.2640 O   0  0  0  0  0  0  0  0  0  0  0  0
  -27.6790  -23.8420   22.1220 C   0  0  0  0  0  1  0  0  0  0  0  0
  -29.2260  -23.7710   22.1710 C   0  0  0  0  0  3  0  0  0  0  0  0
  -29.8230  -25.1660   22.5010 C   0  0  0  0  0  0  0  0  0  0  0  0
  -30.8200  -25.6470   21.7480 N   0  0  0  0  0  0  0  0  0  0  0  0
  -29.3570  -25.8180   23.4390 O   0  0  0  0  0  0  0  0  0  0  0  0
  -31.2410  -25.0240   21.0690 H   0  0  0  0  0  0  0  0  0  0  0  0
  -31.2660  -27.0380   21.7170 C   0  0  0  0  0  2  0  0  0  0  0  0
  -30.1960  -27.9920   21.1410 C   0  0  0  0  0  2  0  0  0  0  0  0
  -29.7070  -27.6590   19.7080 C   0  0  0  0  0  2  0  0  0  0  0  0
  -28.4710  -26.9380   19.7040 O   0  0  0  0  0  0  0  0  0  0  0  0
  -24.7270  -31.9560   23.1130 C   0  0  0  0  0  0  0  0  0  0  0  0
  -27.3040  -27.6600   19.8380 C   0  0  0  0  0  0  0  0  0  0  0  0
  -23.4560  -30.5760   21.4930 C   0  0  0  0  0  3  0  0  0  0  0  0
  -24.8620  -29.0780   19.9800 C   0  0  0  0  0  0  0  0  0  0  0  0
  -25.9550  -30.9800   21.1900 C   0  0  0  0  0  2  0  0  0  0  0  0
  -26.0260  -29.6260   20.5300 C   0  0  0  0  0  0  0  0  0  0  0  0
  -27.2400  -28.9250   20.4680 C   0  0  0  0  0  3  0  0  0  0  0  0
  -26.1220  -27.1130   19.2910 C   0  0  0  0  0  3  0  0  0  0  0  0
  -24.9010  -27.8190   19.3570 C   0  0  0  0  0  3  0  0  0  0  0  0
  -23.6090  -29.9150   20.0920 C   0  0  0  0  0  2  0  0  0  0  0  0
  -24.7310  -31.1830   21.9920 N   0  0  0  0  0  0  0  0  0  0  0  0
  -23.6710  -32.2050   23.7150 O   0  0  0  0  0  0  0  0  0  0  0  0
  -22.8750  -29.5280   22.4640 C   0  0  0  0  0  0  0  0  0  0  0  0
  -21.5530  -29.3130   22.3810 N   0  0  0  0  0  0  0  0  0  0  0  0
  -23.6030  -28.9170   23.2510 O   0  0  0  0  0  0  0  0  0  0  0  0
  -21.0230  -29.8520   21.7100 H   0  0  0  0  0  0  0  0  0  0  0  0
  -18.2380  -27.9880   22.9280 C   0  0  0  0  0  0  0  0  0  0  0  0
  -20.7870  -28.3460   23.1660 C   0  0  0  0  0  3  0  0  0  0  0  0
  -20.9390  -26.9170   22.5970 C   0  0  0  0  0  2  0  0  0  0  0  0
  -19.8370  -26.5480   21.5980 C   0  0  0  0  0  2  0  0  0  0  0  0
  -18.4580  -26.6420   22.2580 C   0  0  0  0  0  2  0  0  0  0  0  0
  -19.3310  -28.7930   23.3410 C   0  0  0  0  0  0  0  0  0  0  0  0
  -19.0770  -30.0520   23.9290 C   0  0  0  0  0  3  0  0  0  0  0  0
  -17.7560  -30.5080   24.1020 C   0  0  0  0  0  3  0  0  0  0  0  0
  -16.6770  -29.7010   23.7040 C   0  0  0  0  0  3  0  0  0  0  0  0
  -16.9170  -28.4420   23.1230 C   0  0  0  0  0  3  0  0  0  0  0  0
  -26.0360  -32.5900   23.6830 C   0  0  0  0  0  3  0  0  0  0  0  0
  -26.6320  -31.7890   24.9050 C   0  0  1  0  0  0  0  0  0  0  0  0
  -25.5930  -31.4840   26.0100 C   0  0  0  0  0  1  0  0  0  0  0  0
  -27.2250  -30.4410   24.4380 C   0  0  0  0  0  1  0  0  0  0  0  0
  -27.8010  -32.5810   25.5290 C   0  0  0  0  0  1  0  0  0  0  0  0
  -25.7250  -33.9750   24.0630 N   0  0  0  0  0  0  0  0  0  0  0  0
  -26.0330  -35.0540   23.3300 C   0  0  0  0  0  0  0  0  0  0  0  0
  -26.6760  -34.9870   22.2800 O   0  0  0  0  0  0  0  0  0  0  0  0
  -25.1280  -34.0940   24.8670 H   0  0  0  0  0  0  0  0  0  0  0  0
  -24.2820  -36.8410   23.0700 C   0  0  0  0  0  1  0  0  0  0  0  0
  -25.5430  -36.4220   23.8420 C   0  0  0  0  0  3  0  0  0  0  0  0
  -27.6880  -37.2950   24.6560 C   0  0  0  0  0  1  0  0  0  0  0  0
  -26.5640  -37.4880   23.7430 N   0  0  0  0  0  0  0  0  0  0  0  0
  -26.1570  -38.4030   23.9260 H   0  0  0  0  0  0  0  0  0  0  0  0
  2  1  1  0
  2 54  1  0
  3  5  2  0
  4  2  1  0
  4  3  1  0
  6  4  1  0
  7 10  1  0
  8 12  1  0
  8  7  2  0
 10  9  2  0
 10  3  1  0
 11 21  1  0
 11  9  1  0
 12 11  2  0
 14 19  1  0
 15 16  1  0
 15 14  1  0
 17 16  1  0
 17 26  1  0
 17 18  1  0
 19 13  1  0
 19 18  1  0
 20 13  2  0
 21 13  1  0
 22 21  1  0
 23 24  2  0
 24 43  1  0
 25 28  1  0
 25 24  1  0
 26 27  1  0
 26 23  1  0
 27 25  2  0
 28 29  1  0
 29 30  2  0
 31 30  1  0
 32 31  2  0
 33 32  1  0
 33 28  2  0
 34 31  1  0
 34 35  1  0
 35 36  1  0
 36 37  2  0
 38 37  1  0
 38 42  1  0
 39 38  2  0
 40 35  2  0
 40 39  1  0
 41 40  1  0
 43 44  1  0
 44 47  1  0
 44 46  1  0
 45 43  2  0
 48 23  1  0
 48 49  1  0
 50 48  1  0
 51 52  1  0
 52 12  1  0
 54 53  1  0
 54 55  1  0
 55 57  2  0
 56 55  1  0
 58 56  1  0
 59 56  1  0
 60 59  1  0
 61 60  1  0
 62 61  1  0
 62 64  1  0
 63 74  2  0
 64 69  1  0
 65 73  1  0
 65 75  1  0
 66 72  1  0
 66 68  1  0
 67 73  1  0
 68 67  1  0
 69 68  2  0
 70 71  1  0
 70 64  2  0
 71 66  2  0
 72 65  1  0
 73 63  1  0
 75 77  2  0
 76 75  1  0
 78 76  1  0
 79 88  2  0
 79 84  1  0
 80 76  1  0
 80 84  1  0
 81 80  1  0
 82 83  1  0
 82 81  1  0
 83 79  1  0
 84 85  2  0
 85 86  1  0
 87 86  2  0
 88 87  1  0
 89 63  1  0
 89 94  1  0
 89 90  1  0
 90 93  1  1
 90 91  1  0
 92 90  1  0
 94 97  1  0
 95 99  1  0
 95 94  1  0
 96 95  2  0
 99 98  1  0
101 99  1  0
101102  1  0
101100  1  0
M  ISO  4  13 100  21 100  61 101  62 101
M  END
>  <TORSDO>  (87) 
F 24

>  <SCORE>  (87) 
-10.194

>  <name>  (87) 
86

>  <ligand_id>  (87) 
86

>  <original_smiles>  (87) 
[H]c1c([H])c([H])c2c(c1[H])C([H])([H])C([H])([H])C([H])([H])C2([H])N([H])C(=O)C1([H])N(C(=O)C([H])(N([H])C(=O)C([H])(N([H])C([H])([H])[H])C([H])([H])[H])C(C([H])([H])[H])(C([H])([H])[H])C([H])([H])[H])C([H])([H])c2c([H])c(OC([H])([H])C([H])([H])C([H])([H])N([H])C(=O)C([H])(C([H])([H])[H])C([H])(N([H])C(=O)c3c([H])c([H])c(OC([H])([H])[H])c(N([H])C(=O)N4C([H])([H])C([H])([H])C([H])([H])C([H])(n5nc(-c6c([H])c([H])c(Oc7c([H])c([H])c(F)c([H])c7F)c([H])c6[H])c(C(=O)N([H])[H])c5N([H])[H])C4([H])[H])c3[H])C([H])([H])[H])c([H])c([H])c2C1([H])[H]

>  <smiles>  (87) 
[H]c1c([H])c([H])c2c(c1[H])C([H])([H])C([H])([H])C([H])([H])C2([H])N([H])C(=O)C1([H])N(C(=O)C([H])(N([H])C(=O)C([H])(N([H])C([H])([H])[H])C([H])([H])[H])C(C([H])([H])[H])(C([H])([H])[H])C([H])([H])[H])C([H])([H])c2c([H])c(OC([H])([H])C([H])([H])C([H])([H])N([H])C(=O)C([H])(C([H])([H])[H])C([H])(N([H])C(=O)c3c([H])c([H])c(OC([H])([H])[H])c(N([H])C(=O)N4C([H])([H])C([H])([H])C([H])([H])C([H])(n5nc(-c6c([H])c([H])c(Oc7c([H])c([H])c(F)c([H])c7F)c([H])c6[H])c(C(=O)N([H])[H])c5N([H])[H])C4([H])[H])c3[H])C([H])([H])[H])c([H])c([H])c2C1([H])[H]

$$$$
87:0:0
     RDKit          3D

 90 98  0  0  1  0  0  0  0  0999 V2000
  -31.0370  -17.9100   19.9770 C   0  0  0  0  0  3  0  0  0  0  0  0
  -31.0130  -19.3290   19.8310 C   0  0  0  0  0  3  0  0  0  0  0  0
  -28.7300  -17.9770   20.6360 C   0  0  0  0  0  3  0  0  0  0  0  0
  -29.8880  -17.1860   20.3860 C   0  0  0  0  0  0  0  0  0  0  0  0
  -29.8590  -20.1220   20.0780 C   0  0  0  0  0  0  0  0  0  0  0  0
  -28.7050  -19.3980   20.4900 C   0  0  0  0  0  0  0  0  0  0  0  0
  -27.5490  -20.0520   20.7580 F   0  0  0  0  0  0  0  0  0  0  0  0
  -30.5980  -14.6850   20.1250 C   0  0  0  0  0  0  0  0  0  0  0  0
  -30.3560  -12.4480   19.0640 C   0  0  0  0  0  2  0  0  0  0  0  0
  -29.3690  -12.5900   17.8830 C   0  0  0  0  0  2  0  0  0  0  0  0
  -27.9110  -12.4310   18.3610 C   0  0  0  0  0  2  0  0  0  0  0  0
  -27.6000  -13.2790   19.6230 C   0  0  0  0  0  3  0  0  0  0  0  0
  -28.6980  -13.1110   20.6970 C   0  0  0  0  0  2  0  0  0  0  0  0
  -29.9860  -13.4590   20.0760 N   0  0  0  0  0  0  0  0  0  0  0  0
  -31.7390  -14.8470   19.6810 O   0  0  0  0  0  0  0  0  0  0  0  0
  -29.8100  -15.7270   20.5450 N   0  0  0  0  0  0  0  0  0  0  0  0
  -28.9370  -15.4010   20.9340 H   0  0  0  0  0  0  0  0  0  0  0  0
  -25.2380  -13.8750   20.4420 C   0  0  0  0  0  0  0  0  0  0  0  0
  -24.1830  -13.1000   20.8410 C   0  0  0  0  0  0  0  0  0  0  0  0
  -24.6380  -11.7470   20.7700 C   0  0  0  0  0  0  0  0  0  0  0  0
  -26.2690  -12.9940   20.1530 N   0  0  0  0  0  0  0  0  0  0  0  0
  -25.9140  -11.7080   20.4090 N   0  0  0  0  0  0  0  0  0  0  0  0
  -23.9120  -10.4850   20.9680 C   0  0  0  0  0  0  0  0  0  0  0  0
  -24.3650   -9.5090   21.8830 C   0  0  0  0  0  3  0  0  0  0  0  0
  -23.6420   -8.3110   22.0690 C   0  0  0  0  0  3  0  0  0  0  0  0
  -22.4500   -8.0820   21.3400 C   0  0  0  0  0  0  0  0  0  0  0  0
  -22.0150   -9.0480   20.4150 C   0  0  0  0  0  3  0  0  0  0  0  0
  -22.7400  -10.2360   20.2260 C   0  0  0  0  0  3  0  0  0  0  0  0
  -21.6950   -6.9380   21.4370 O   0  0  0  0  0  0  0  0  0  0  0  0
  -21.6530   -6.1990   22.5920 C   0  0  0  0  0  0  0  0  0  0  0  0
  -21.2070   -6.7480   23.8130 C   0  0  0  0  0  3  0  0  0  0  0  0
  -21.1150   -5.9340   24.9610 C   0  0  0  0  0  3  0  0  0  0  0  0
  -21.4580   -4.5710   24.8850 C   0  0  0  0  0  0  0  0  0  0  0  0
  -21.8970   -4.0200   23.6680 C   0  0  0  0  0  3  0  0  0  0  0  0
  -21.9910   -4.8310   22.5240 C   0  0  0  0  0  0  0  0  0  0  0  0
  -22.3940   -4.2910   21.3490 F   0  0  0  0  0  0  0  0  0  0  0  0
  -21.3620   -3.7860   25.9840 F   0  0  0  0  0  0  0  0  0  0  0  0
  -22.7990  -13.5780   21.1750 C   0  0  0  0  0  0  0  0  0  0  0  0
  -22.1060  -12.8780   22.0650 N   0  0  0  0  0  0  0  0  0  0  0  0
  -22.3450  -14.6100   20.6840 O   0  0  0  0  0  0  0  0  0  0  0  0
  -22.4870  -12.0440   22.4880 H   0  0  0  0  0  0  0  0  0  0  0  0
  -21.1790  -13.1820   22.3300 H   0  0  0  0  0  0  0  0  0  0  0  0
  -25.4000  -15.2470   20.2780 N   0  0  0  0  0  0  0  0  0  0  0  0
  -24.6340  -15.8960   20.4170 H   0  0  0  0  0  0  0  0  0  0  0  0
  -26.2220  -15.6840   19.8800 H   0  0  0  0  0  0  0  0  0  0  0  0
  -29.9680  -21.5220   19.9050 O   0  0  0  0  0  0  0  0  0  0  0  0
  -28.8750  -22.4670   20.1420 C   0  0  0  0  0  3  0  0  0  0  0  0
  -29.2270  -24.0020   19.8750 C   0  0  0  0  0  3  0  0  0  0  0  0
  -28.0550  -25.0580   20.0540 C   0  0  0  0  0  2  0  0  0  0  0  0
  -28.3030  -26.5080   19.8500 O   0  0  0  0  0  0  0  0  0  0  0  0
  -24.6700  -31.8010   23.1690 C   0  0  0  0  0  0  0  0  0  0  0  0
  -27.1900  -27.3650   19.8710 C   0  0  0  0  0  0  0  0  0  0  0  0
  -23.4280  -30.4940   21.4830 C   0  0  0  0  0  3  0  0  0  0  0  0
  -24.8410  -28.9990   19.9700 C   0  0  0  0  0  0  0  0  0  0  0  0
  -25.9690  -30.7950   21.2790 C   0  0  0  0  0  2  0  0  0  0  0  0
  -26.0250  -29.4470   20.5710 C   0  0  0  0  0  0  0  0  0  0  0  0
  -27.2020  -28.6430   20.5130 C   0  0  0  0  0  3  0  0  0  0  0  0
  -25.9840  -26.9800   19.2380 C   0  0  0  0  0  3  0  0  0  0  0  0
  -24.8230  -27.7710   19.2960 C   0  0  0  0  0  3  0  0  0  0  0  0
  -23.6170  -29.8840   20.0710 C   0  0  0  0  0  2  0  0  0  0  0  0
  -24.7090  -31.0450   22.0350 N   0  0  0  0  0  0  0  0  0  0  0  0
  -23.5980  -32.0660   23.7310 O   0  0  0  0  0  0  0  0  0  0  0  0
  -22.7670  -29.4390   22.4030 C   0  0  0  0  0  0  0  0  0  0  0  0
  -21.4370  -29.2880   22.2910 N   0  0  0  0  0  0  0  0  0  0  0  0
  -23.4500  -28.7630   23.1770 O   0  0  0  0  0  0  0  0  0  0  0  0
  -20.9460  -29.8860   21.6410 H   0  0  0  0  0  0  0  0  0  0  0  0
  -18.0450  -28.1480   22.8170 C   0  0  0  0  0  0  0  0  0  0  0  0
  -20.6160  -28.3280   23.0300 C   0  0  0  0  0  3  0  0  0  0  0  0
  -20.6640  -26.9300   22.3690 C   0  0  0  0  0  2  0  0  0  0  0  0
  -19.5260  -26.6940   21.3700 C   0  0  0  0  0  2  0  0  0  0  0  0
  -18.1670  -26.8370   22.0610 C   0  0  0  0  0  2  0  0  0  0  0  0
  -19.1950  -28.8560   23.2580 C   0  0  0  0  0  0  0  0  0  0  0  0
  -19.0250  -30.0880   23.9270 C   0  0  0  0  0  3  0  0  0  0  0  0
  -17.7390  -30.6110   24.1590 C   0  0  0  0  0  3  0  0  0  0  0  0
  -16.6040  -29.8990   23.7320 C   0  0  0  0  0  3  0  0  0  0  0  0
  -16.7580  -28.6700   23.0680 C   0  0  0  0  0  3  0  0  0  0  0  0
  -25.9690  -32.3900   23.8020 C   0  0  0  0  0  3  0  0  0  0  0  0
  -26.4820  -31.5600   25.0420 C   0  0  1  0  0  0  0  0  0  0  0  0
  -25.3960  -31.3020   26.1120 C   0  0  0  0  0  1  0  0  0  0  0  0
  -27.0380  -30.1900   24.5940 C   0  0  0  0  0  1  0  0  0  0  0  0
  -27.6520  -32.3110   25.7230 C   0  0  0  0  0  1  0  0  0  0  0  0
  -25.6830  -33.7790   24.1890 N   0  0  0  0  0  0  0  0  0  0  0  0
  -25.9950  -34.8530   23.4520 C   0  0  0  0  0  0  0  0  0  0  0  0
  -26.6230  -34.7770   22.3920 O   0  0  0  0  0  0  0  0  0  0  0  0
  -25.1190  -33.9120   25.0150 H   0  0  0  0  0  0  0  0  0  0  0  0
  -24.2570  -36.6600   23.2380 C   0  0  0  0  0  1  0  0  0  0  0  0
  -25.5380  -36.2290   23.9710 C   0  0  0  0  0  3  0  0  0  0  0  0
  -27.7130  -37.0900   24.7190 C   0  0  0  0  0  1  0  0  0  0  0  0
  -26.5670  -37.2830   23.8340 N   0  0  0  0  0  0  0  0  0  0  0  0
  -26.1720  -38.2000   24.0220 H   0  0  0  0  0  0  0  0  0  0  0  0
  1  4  1  0
  2  1  2  0
  2  5  1  0
  4 16  1  0
  4  3  2  0
  5  6  2  0
  6  3  1  0
  6  7  1  0
  8 16  1  0
  9 14  1  0
 10 11  1  0
 10  9  1  0
 12 11  1  0
 12 21  1  0
 12 13  1  0
 14  8  1  0
 14 13  1  0
 15  8  2  0
 16 17  1  0
 18 19  2  0
 19 38  1  0
 20 19  1  0
 20 23  1  0
 21 22  1  0
 21 18  1  0
 22 20  2  0
 23 24  1  0
 24 25  2  0
 26 29  1  0
 26 25  1  0
 27 26  2  0
 28 27  1  0
 28 23  2  0
 29 30  1  0
 30 31  1  0
 31 32  2  0
 33 32  1  0
 33 37  1  0
 34 33  2  0
 35 30  2  0
 35 34  1  0
 36 35  1  0
 38 39  1  0
 39 42  1  0
 39 41  1  0
 40 38  2  0
 43 44  1  0
 43 18  1  0
 45 43  1  0
 46  5  1  0
 46 47  1  0
 48 49  1  0
 48 47  2  0
 50 52  1  0
 50 49  1  0
 51 62  2  0
 52 57  1  0
 53 61  1  0
 53 63  1  0
 54 60  1  0
 54 56  1  0
 55 61  1  0
 56 55  1  0
 57 56  2  0
 58 59  1  0
 58 52  2  0
 59 54  2  0
 60 53  1  0
 61 51  1  0
 63 65  2  0
 64 63  1  0
 66 64  1  0
 67 76  2  0
 67 72  1  0
 68 64  1  0
 68 72  1  0
 69 68  1  0
 70 71  1  0
 70 69  1  0
 71 67  1  0
 72 73  2  0
 73 74  1  0
 75 74  2  0
 76 75  1  0
 77 51  1  0
 77 82  1  0
 77 78  1  0
 78 81  1  1
 78 79  1  0
 80 78  1  0
 82 85  1  0
 83 87  1  0
 83 82  1  0
 84 83  2  0
 87 86  1  0
 89 87  1  0
 89 90  1  0
 89 88  1  0
M  ISO  4   8 100  16 100  49 101  50 101
M  END
>  <TORSDO>  (88) 
F 20

>  <SCORE>  (88) 
-13.622

>  <name>  (88) 
87

>  <ligand_id>  (88) 
87

>  <original_smiles>  (88) 
[H]c1c([H])c([H])c2c(c1[H])C([H])([H])C([H])([H])C([H])([H])C2([H])N([H])C(=O)C1([H])N(C(=O)C([H])(N([H])C(=O)C([H])(N([H])C([H])([H])[H])C([H])([H])[H])C(C([H])([H])[H])(C([H])([H])[H])C([H])([H])[H])C([H])([H])c2c([H])c(OC([H])([H])C([H])([H])C([H])([H])Oc3c([H])c([H])c(N([H])C(=O)N4C([H])([H])C([H])([H])C([H])([H])C([H])(n5nc(-c6c([H])c([H])c(Oc7c([H])c([H])c(F)c([H])c7F)c([H])c6[H])c(C(=O)N([H])[H])c5N([H])[H])C4([H])[H])c([H])c3F)c([H])c([H])c2C1([H])[H]

>  <smiles>  (88) 
[H]c1c([H])c([H])c2c(c1[H])C([H])([H])C([H])([H])C([H])([H])C2([H])N([H])C(=O)C1([H])N(C(=O)C([H])(N([H])C(=O)C([H])(N([H])C([H])([H])[H])C([H])([H])[H])C(C([H])([H])[H])(C([H])([H])[H])C([H])([H])[H])C([H])([H])c2c([H])c(OC([H])([H])C([H])([H])C([H])([H])Oc3c([H])c([H])c(N([H])C(=O)N4C([H])([H])C([H])([H])C([H])([H])C([H])(n5nc(-c6c([H])c([H])c(Oc7c([H])c([H])c(F)c([H])c7F)c([H])c6[H])c(C(=O)N([H])[H])c5N([H])[H])C4([H])[H])c([H])c3F)c([H])c([H])c2C1([H])[H]

$$$$
88:0:0
     RDKit          3D

 94102  0  0  1  0  0  0  0  0999 V2000
  -29.4140  -21.1740   20.1570 C   0  0  0  0  0  0  0  0  0  0  0  0
  -29.6840  -21.9360   21.2240 N   0  0  0  0  0  0  0  0  0  0  0  0
  -28.9290  -21.6130   19.1130 O   0  0  0  0  0  0  0  0  0  0  0  0
  -30.1540  -21.4580   21.9820 H   0  0  0  0  0  0  0  0  0  0  0  0
  -29.4740  -19.0480   21.5390 C   0  0  0  0  0  3  0  0  0  0  0  0
  -29.6300  -17.6510   21.6460 C   0  0  0  0  0  3  0  0  0  0  0  0
  -30.1060  -18.9270   19.1960 C   0  0  0  0  0  3  0  0  0  0  0  0
  -29.7060  -19.7010   20.3080 C   0  0  0  0  0  0  0  0  0  0  0  0
  -30.0290  -16.8740   20.5380 C   0  0  0  0  0  0  0  0  0  0  0  0
  -30.2690  -17.5160   19.2900 C   0  0  0  0  0  0  0  0  0  0  0  0
  -30.7740  -14.5050   20.1080 C   0  0  0  0  0  0  0  0  0  0  0  0
  -30.4400  -12.3770   18.9090 C   0  0  0  0  0  2  0  0  0  0  0  0
  -29.4220  -12.6360   17.7770 C   0  0  0  0  0  2  0  0  0  0  0  0
  -27.9740  -12.4880   18.2910 C   0  0  0  0  0  2  0  0  0  0  0  0
  -27.7210  -13.2770   19.6020 C   0  0  0  0  0  3  0  0  0  0  0  0
  -28.8360  -12.9830   20.6300 C   0  0  0  0  0  2  0  0  0  0  0  0
  -30.1310  -13.3110   20.0030 N   0  0  0  0  0  0  0  0  0  0  0  0
  -31.8860  -14.7170   19.6140 O   0  0  0  0  0  0  0  0  0  0  0  0
  -30.0490  -15.4570   20.7250 N   0  0  0  0  0  0  0  0  0  0  0  0
  -29.2690  -15.0900   21.2500 H   0  0  0  0  0  0  0  0  0  0  0  0
  -25.3720  -13.8880   20.4640 C   0  0  0  0  0  0  0  0  0  0  0  0
  -24.3190  -13.1140   20.8720 C   0  0  0  0  0  0  0  0  0  0  0  0
  -24.7650  -11.7590   20.7800 C   0  0  0  0  0  0  0  0  0  0  0  0
  -26.3930  -13.0050   20.1480 N   0  0  0  0  0  0  0  0  0  0  0  0
  -26.0330  -11.7190   20.3930 N   0  0  0  0  0  0  0  0  0  0  0  0
  -24.0420  -10.4980   20.9750 C   0  0  0  0  0  0  0  0  0  0  0  0
  -24.4950   -9.5210   21.8880 C   0  0  0  0  0  3  0  0  0  0  0  0
  -23.7730   -8.3230   22.0730 C   0  0  0  0  0  3  0  0  0  0  0  0
  -22.5830   -8.0920   21.3420 C   0  0  0  0  0  0  0  0  0  0  0  0
  -22.1460   -9.0590   20.4190 C   0  0  0  0  0  3  0  0  0  0  0  0
  -22.8700  -10.2490   20.2330 C   0  0  0  0  0  3  0  0  0  0  0  0
  -21.8310   -6.9460   21.4360 O   0  0  0  0  0  0  0  0  0  0  0  0
  -21.7690   -6.2200   22.5970 C   0  0  0  0  0  0  0  0  0  0  0  0
  -21.3040   -6.7840   23.8050 C   0  0  0  0  0  3  0  0  0  0  0  0
  -21.1900   -5.9830   24.9580 C   0  0  0  0  0  3  0  0  0  0  0  0
  -21.5310   -4.6180   24.9060 C   0  0  0  0  0  0  0  0  0  0  0  0
  -21.9880   -4.0530   23.7030 C   0  0  0  0  0  3  0  0  0  0  0  0
  -22.1040   -4.8510   22.5510 C   0  0  0  0  0  0  0  0  0  0  0  0
  -22.5260   -4.2960   21.3900 F   0  0  0  0  0  0  0  0  0  0  0  0
  -21.4130   -3.8470   26.0120 F   0  0  0  0  0  0  0  0  0  0  0  0
  -22.9430  -13.5930   21.2400 C   0  0  0  0  0  0  0  0  0  0  0  0
  -22.2640  -12.8790   22.1300 N   0  0  0  0  0  0  0  0  0  0  0  0
  -22.4850  -14.6360   20.7760 O   0  0  0  0  0  0  0  0  0  0  0  0
  -22.6520  -12.0370   22.5280 H   0  0  0  0  0  0  0  0  0  0  0  0
  -21.3450  -13.1830   22.4190 H   0  0  0  0  0  0  0  0  0  0  0  0
  -25.5380  -15.2620   20.3190 N   0  0  0  0  0  0  0  0  0  0  0  0
  -24.7850  -15.9190   20.4920 H   0  0  0  0  0  0  0  0  0  0  0  0
  -26.3700  -15.7050   19.9520 H   0  0  0  0  0  0  0  0  0  0  0  0
  -31.3300  -17.3530   17.1530 C   0  0  0  0  0  1  0  0  0  0  0  0
  -30.5790  -16.7460   18.1930 O   0  0  0  0  0  0  0  0  0  0  0  0
  -29.0810  -23.2300   21.5770 C   0  0  0  0  0  2  0  0  0  0  0  0
  -29.2790  -24.4180   20.6020 C   0  0  0  0  0  2  0  0  0  0  0  0
  -28.5320  -25.6590   21.1320 C   0  0  0  0  0  2  0  0  0  0  0  0
  -28.6210  -26.7930   20.2630 O   0  0  0  0  0  0  0  0  0  0  0  0
  -24.6720  -31.9160   23.2260 C   0  0  0  0  0  0  0  0  0  0  0  0
  -27.4610  -27.5260   20.2260 C   0  0  0  0  0  0  0  0  0  0  0  0
  -23.5240  -30.4940   21.5590 C   0  0  0  0  0  3  0  0  0  0  0  0
  -25.0390  -28.9730   20.1750 C   0  0  0  0  0  0  0  0  0  0  0  0
  -26.0460  -30.8940   21.4210 C   0  0  0  0  0  2  0  0  0  0  0  0
  -26.1720  -29.5230   20.7880 C   0  0  0  0  0  0  0  0  0  0  0  0
  -27.3900  -28.8080   20.8130 C   0  0  0  0  0  3  0  0  0  0  0  0
  -26.3170  -26.9820   19.6080 C   0  0  0  0  0  3  0  0  0  0  0  0
  -25.1040  -27.6970   19.5830 C   0  0  0  0  0  3  0  0  0  0  0  0
  -23.7780  -29.8070   20.1870 C   0  0  0  0  0  2  0  0  0  0  0  0
  -24.7630  -31.1150   22.1280 N   0  0  0  0  0  0  0  0  0  0  0  0
  -23.5750  -32.1730   23.7420 O   0  0  0  0  0  0  0  0  0  0  0  0
  -22.8630  -29.4660   22.5070 C   0  0  0  0  0  0  0  0  0  0  0  0
  -21.5410  -29.2840   22.3620 N   0  0  0  0  0  0  0  0  0  0  0  0
  -23.5380  -28.8360   23.3250 O   0  0  0  0  0  0  0  0  0  0  0  0
  -21.0590  -29.8530   21.6810 H   0  0  0  0  0  0  0  0  0  0  0  0
  -18.1650  -28.0860   22.8070 C   0  0  0  0  0  0  0  0  0  0  0  0
  -20.7180  -28.3370   23.1140 C   0  0  0  0  0  3  0  0  0  0  0  0
  -20.8260  -26.9120   22.5210 C   0  0  0  0  0  2  0  0  0  0  0  0
  -19.7390  -26.6110   21.4850 C   0  0  0  0  0  2  0  0  0  0  0  0
  -18.3490  -26.7460   22.1160 C   0  0  0  0  0  2  0  0  0  0  0  0
  -19.2790  -28.8400   23.2590 C   0  0  0  0  0  0  0  0  0  0  0  0
  -19.0550  -30.0980   23.8590 C   0  0  0  0  0  3  0  0  0  0  0  0
  -17.7480  -30.6000   24.0110 C   0  0  0  0  0  3  0  0  0  0  0  0
  -16.6460  -29.8420   23.5740 C   0  0  0  0  0  3  0  0  0  0  0  0
  -16.8580  -28.5860   22.9790 C   0  0  0  0  0  3  0  0  0  0  0  0
  -25.9350  -32.5640   23.8750 C   0  0  0  0  0  3  0  0  0  0  0  0
  -25.6030  -33.9590   24.1870 N   0  0  0  0  0  0  0  0  0  0  0  0
  -25.9360  -35.0080   23.4220 C   0  0  0  0  0  0  0  0  0  0  0  0
  -26.6270  -34.9020   22.4050 O   0  0  0  0  0  0  0  0  0  0  0  0
  -24.9970  -34.1120   24.9800 H   0  0  0  0  0  0  0  0  0  0  0  0
  -24.1940  -36.7730   23.0180 C   0  0  0  0  0  1  0  0  0  0  0  0
  -25.4230  -36.3940   23.8580 C   0  0  0  0  0  3  0  0  0  0  0  0
  -27.5280  -37.3170   24.7200 C   0  0  0  0  0  1  0  0  0  0  0  0
  -26.4430  -37.4590   23.7520 N   0  0  0  0  0  0  0  0  0  0  0  0
  -26.0230  -38.3760   23.8780 H   0  0  0  0  0  0  0  0  0  0  0  0
  -26.4300  -31.8050   25.1680 C   0  0  1  0  0  0  0  0  0  0  0  0
  -25.3130  -31.5590   26.2090 C   0  0  0  0  0  1  0  0  0  0  0  0
  -27.0410  -30.4350   24.7970 C   0  0  0  0  0  1  0  0  0  0  0  0
  -27.5540  -32.6150   25.8550 C   0  0  0  0  0  1  0  0  0  0  0  0
  1  8  1  0
  1  2  1  0
  2 51  1  0
  2  4  1  0
  3  1  2  0
  5  6  1  0
  7 10  2  0
  7  8  1  0
  8  5  2  0
  9 19  1  0
  9  6  2  0
 10  9  1  0
 11 19  1  0
 12 17  1  0
 13 14  1  0
 13 12  1  0
 15 14  1  0
 15 24  1  0
 15 16  1  0
 17 11  1  0
 17 16  1  0
 18 11  2  0
 19 20  1  0
 21 22  2  0
 22 41  1  0
 23 22  1  0
 23 26  1  0
 24 25  1  0
 24 21  1  0
 25 23  2  0
 26 27  1  0
 27 28  2  0
 29 32  1  0
 29 28  1  0
 30 29  2  0
 31 30  1  0
 31 26  2  0
 32 33  1  0
 33 34  1  0
 34 35  2  0
 36 35  1  0
 36 40  1  0
 37 36  2  0
 38 33  2  0
 38 37  1  0
 39 38  1  0
 41 42  1  0
 42 45  1  0
 42 44  1  0
 43 41  2  0
 46 21  1  0
 46 47  1  0
 48 46  1  0
 49 50  1  0
 50 10  1  0
 52 53  1  0
 52 51  1  0
 54 53  1  0
 55 66  2  0
 56 54  1  0
 56 61  1  0
 57 65  1  0
 57 67  1  0
 58 64  1  0
 58 60  1  0
 59 65  1  0
 60 61  2  0
 60 59  1  0
 62 56  2  0
 63 62  1  0
 63 58  2  0
 64 57  1  0
 65 55  1  0
 67 69  2  0
 68 67  1  0
 70 68  1  0
 71 80  2  0
 71 76  1  0
 72 68  1  0
 72 76  1  0
 73 72  1  0
 74 75  1  0
 74 73  1  0
 75 71  1  0
 76 77  2  0
 77 78  1  0
 79 78  2  0
 80 79  1  0
 81 55  1  0
 81 82  1  0
 81 91  1  0
 82 85  1  0
 83 87  1  0
 83 82  1  0
 84 83  2  0
 87 86  1  0
 89 87  1  0
 89 90  1  0
 89 88  1  0
 91 94  1  1
 91 92  1  0
 93 91  1  0
M  ISO  4  11 100  19 100  53 101  54 101
M  END
>  <TORSDO>  (89) 
F 21

>  <SCORE>  (89) 
-12.615

>  <name>  (89) 
88

>  <ligand_id>  (89) 
88

>  <original_smiles>  (89) 
[H]c1c([H])c([H])c2c(c1[H])C([H])([H])C([H])([H])C([H])([H])C2([H])N([H])C(=O)C1([H])N(C(=O)C([H])(N([H])C(=O)C([H])(N([H])C([H])([H])[H])C([H])([H])[H])C(C([H])([H])[H])(C([H])([H])[H])C([H])([H])[H])C([H])([H])c2c([H])c(OC([H])([H])C([H])([H])C([H])([H])N([H])C(=O)c3c([H])c([H])c(N([H])C(=O)N4C([H])([H])C([H])([H])C([H])([H])C([H])(n5nc(-c6c([H])c([H])c(Oc7c([H])c([H])c(F)c([H])c7F)c([H])c6[H])c(C(=O)N([H])[H])c5N([H])[H])C4([H])[H])c(OC([H])([H])[H])c3[H])c([H])c([H])c2C1([H])[H]

>  <smiles>  (89) 
[H]c1c([H])c([H])c2c(c1[H])C([H])([H])C([H])([H])C([H])([H])C2([H])N([H])C(=O)C1([H])N(C(=O)C([H])(N([H])C(=O)C([H])(N([H])C([H])([H])[H])C([H])([H])[H])C(C([H])([H])[H])(C([H])([H])[H])C([H])([H])[H])C([H])([H])c2c([H])c(OC([H])([H])C([H])([H])C([H])([H])N([H])C(=O)c3c([H])c([H])c(N([H])C(=O)N4C([H])([H])C([H])([H])C([H])([H])C([H])(n5nc(-c6c([H])c([H])c(Oc7c([H])c([H])c(F)c([H])c7F)c([H])c6[H])c(C(=O)N([H])[H])c5N([H])[H])C4([H])[H])c(OC([H])([H])[H])c3[H])c([H])c([H])c2C1([H])[H]

$$$$
89:0:0
     RDKit          3D

 91 99  0  0  1  0  0  0  0  0999 V2000
  -29.5240  -21.1610   20.0330 O   0  0  0  0  0  0  0  0  0  0  0  0
  -30.5360  -17.8970   21.6170 C   0  0  0  0  0  3  0  0  0  0  0  0
  -30.4280  -19.2970   21.4270 C   0  0  0  0  0  3  0  0  0  0  0  0
  -29.2530  -18.9070   19.3490 C   0  0  0  0  0  3  0  0  0  0  0  0
  -29.3670  -17.5100   19.5170 C   0  0  0  0  0  0  0  0  0  0  0  0
  -30.0070  -16.9840   20.6740 C   0  0  0  0  0  0  0  0  0  0  0  0
  -29.7570  -19.8200   20.2940 C   0  0  0  0  0  0  0  0  0  0  0  0
  -28.7460  -16.6270   18.4480 C   0  0  0  0  0  1  0  0  0  0  0  0
  -30.7360  -14.6000   20.4620 C   0  0  0  0  0  0  0  0  0  0  0  0
  -30.4930  -12.4190   19.3340 C   0  0  0  0  0  2  0  0  0  0  0  0
  -29.5400  -12.5990   18.1320 C   0  0  0  0  0  2  0  0  0  0  0  0
  -28.0660  -12.4640   18.5640 C   0  0  0  0  0  2  0  0  0  0  0  0
  -27.7280  -13.2870   19.8360 C   0  0  0  0  0  3  0  0  0  0  0  0
  -28.7900  -13.0640   20.9370 C   0  0  0  0  0  2  0  0  0  0  0  0
  -30.1090  -13.3950   20.3670 N   0  0  0  0  0  0  0  0  0  0  0  0
  -31.8570  -14.8140   19.9900 O   0  0  0  0  0  0  0  0  0  0  0  0
  -29.9870  -15.5870   20.9940 N   0  0  0  0  0  0  0  0  0  0  0  0
  -29.1530  -15.2650   21.4640 H   0  0  0  0  0  0  0  0  0  0  0  0
  -25.3300  -13.8870   20.5560 C   0  0  0  0  0  0  0  0  0  0  0  0
  -24.2630  -13.1080   20.9170 C   0  0  0  0  0  0  0  0  0  0  0  0
  -24.7260  -11.7570   20.8670 C   0  0  0  0  0  0  0  0  0  0  0  0
  -26.3760  -13.0090   20.3130 N   0  0  0  0  0  0  0  0  0  0  0  0
  -26.0160  -11.7230   20.5550 N   0  0  0  0  0  0  0  0  0  0  0  0
  -24.0040  -10.4920   21.0430 C   0  0  0  0  0  0  0  0  0  0  0  0
  -24.4170   -9.5330   21.9930 C   0  0  0  0  0  3  0  0  0  0  0  0
  -23.6960   -8.3300   22.1560 C   0  0  0  0  0  3  0  0  0  0  0  0
  -22.5490   -8.0790   21.3680 C   0  0  0  0  0  0  0  0  0  0  0  0
  -22.1560   -9.0280   20.4060 C   0  0  0  0  0  3  0  0  0  0  0  0
  -22.8770  -10.2210   20.2420 C   0  0  0  0  0  3  0  0  0  0  0  0
  -21.8010   -6.9290   21.4400 O   0  0  0  0  0  0  0  0  0  0  0  0
  -21.6930   -6.2130   22.6050 C   0  0  0  0  0  0  0  0  0  0  0  0
  -21.1140   -6.7650   23.7690 C   0  0  0  0  0  3  0  0  0  0  0  0
  -20.9590   -5.9720   24.9230 C   0  0  0  0  0  3  0  0  0  0  0  0
  -21.3730   -4.6260   24.9140 C   0  0  0  0  0  0  0  0  0  0  0  0
  -21.9450   -4.0740   23.7550 C   0  0  0  0  0  3  0  0  0  0  0  0
  -22.1020   -4.8640   22.6030 C   0  0  0  0  0  0  0  0  0  0  0  0
  -22.6340   -4.3200   21.4820 F   0  0  0  0  0  0  0  0  0  0  0  0
  -21.2170   -3.8620   26.0190 F   0  0  0  0  0  0  0  0  0  0  0  0
  -22.8670  -13.5800   21.2030 C   0  0  0  0  0  0  0  0  0  0  0  0
  -22.1380  -12.8630   22.0510 N   0  0  0  0  0  0  0  0  0  0  0  0
  -22.4280  -14.6190   20.7090 O   0  0  0  0  0  0  0  0  0  0  0  0
  -22.5030  -12.0220   22.4740 H   0  0  0  0  0  0  0  0  0  0  0  0
  -21.2010  -13.1620   22.2830 H   0  0  0  0  0  0  0  0  0  0  0  0
  -25.4930  -15.2600   20.3960 N   0  0  0  0  0  0  0  0  0  0  0  0
  -24.7270  -15.9130   20.5190 H   0  0  0  0  0  0  0  0  0  0  0  0
  -26.3510  -15.7090   20.1020 H   0  0  0  0  0  0  0  0  0  0  0  0
  -29.8610  -22.1660   20.9920 C   0  0  0  0  0  2  0  0  0  0  0  0
  -29.1890  -23.5080   20.5920 C   0  0  0  0  0  2  0  0  0  0  0  0
  -29.5710  -24.7050   21.5000 C   0  0  0  0  0  2  0  0  0  0  0  0
  -28.5650  -25.8840   21.5410 C   0  0  0  0  0  2  0  0  0  0  0  0
  -28.5980  -26.7750   20.4150 O   0  0  0  0  0  0  0  0  0  0  0  0
  -24.6740  -31.9530   23.3400 C   0  0  0  0  0  0  0  0  0  0  0  0
  -27.4570  -27.5420   20.3480 C   0  0  0  0  0  0  0  0  0  0  0  0
  -23.5260  -30.5250   21.6770 C   0  0  0  0  0  3  0  0  0  0  0  0
  -25.0400  -29.0060   20.2890 C   0  0  0  0  0  0  0  0  0  0  0  0
  -26.0490  -30.9250   21.5340 C   0  0  0  0  0  2  0  0  0  0  0  0
  -26.1740  -29.5530   20.9040 C   0  0  0  0  0  0  0  0  0  0  0  0
  -27.3880  -28.8280   20.9340 C   0  0  0  0  0  3  0  0  0  0  0  0
  -26.3130  -27.0080   19.7230 C   0  0  0  0  0  3  0  0  0  0  0  0
  -25.1030  -27.7320   19.6960 C   0  0  0  0  0  3  0  0  0  0  0  0
  -23.7780  -29.8410   20.3060 C   0  0  0  0  0  2  0  0  0  0  0  0
  -24.7660  -31.1490   22.2420 N   0  0  0  0  0  0  0  0  0  0  0  0
  -23.5770  -32.2110   23.8550 O   0  0  0  0  0  0  0  0  0  0  0  0
  -22.8690  -29.4970   22.6280 C   0  0  0  0  0  0  0  0  0  0  0  0
  -21.5570  -29.2690   22.4490 N   0  0  0  0  0  0  0  0  0  0  0  0
  -23.5380  -28.9100   23.4820 O   0  0  0  0  0  0  0  0  0  0  0  0
  -21.0780  -29.7960   21.7320 H   0  0  0  0  0  0  0  0  0  0  0  0
  -18.2100  -27.9610   22.8130 C   0  0  0  0  0  0  0  0  0  0  0  0
  -20.7400  -28.3170   23.2000 C   0  0  0  0  0  3  0  0  0  0  0  0
  -20.9200  -26.8800   22.6600 C   0  0  0  0  0  2  0  0  0  0  0  0
  -19.8810  -26.4970   21.6010 C   0  0  0  0  0  2  0  0  0  0  0  0
  -18.4660  -26.6050   22.1760 C   0  0  0  0  0  2  0  0  0  0  0  0
  -19.2790  -28.7710   23.2790 C   0  0  0  0  0  0  0  0  0  0  0  0
  -18.9880  -30.0370   23.8310 C   0  0  0  0  0  3  0  0  0  0  0  0
  -17.6610  -30.4960   23.9220 C   0  0  0  0  0  3  0  0  0  0  0  0
  -16.6050  -29.6840   23.4760 C   0  0  0  0  0  3  0  0  0  0  0  0
  -16.8800  -28.4170   22.9270 C   0  0  0  0  0  3  0  0  0  0  0  0
  -25.9370  -32.6050   23.9850 C   0  0  0  0  0  3  0  0  0  0  0  0
  -25.6220  -34.0160   24.2450 N   0  0  0  0  0  0  0  0  0  0  0  0
  -25.9960  -35.0360   23.4620 C   0  0  0  0  0  0  0  0  0  0  0  0
  -26.7120  -34.8910   22.4670 O   0  0  0  0  0  0  0  0  0  0  0  0
  -24.9940  -34.2050   25.0130 H   0  0  0  0  0  0  0  0  0  0  0  0
  -24.3160  -36.8300   22.9310 C   0  0  0  0  0  1  0  0  0  0  0  0
  -25.4930  -36.4430   23.8400 C   0  0  0  0  0  3  0  0  0  0  0  0
  -27.5680  -37.3410   24.7970 C   0  0  0  0  0  1  0  0  0  0  0  0
  -26.5420  -37.4830   23.7680 N   0  0  0  0  0  0  0  0  0  0  0  0
  -26.1350  -38.4110   23.8530 H   0  0  0  0  0  0  0  0  0  0  0  0
  -26.4030  -31.8820   25.3080 C   0  0  1  0  0  0  0  0  0  0  0  0
  -25.2690  -31.6790   26.3380 C   0  0  0  0  0  1  0  0  0  0  0  0
  -27.0060  -30.4950   24.9880 C   0  0  0  0  0  1  0  0  0  0  0  0
  -27.5230  -32.7060   25.9890 C   0  0  0  0  0  1  0  0  0  0  0  0
  1  7  1  0
  1 47  1  0
  3  2  1  0
  4  5  2  0
  4  7  1  0
  5  6  1  0
  6 17  1  0
  6  2  2  0
  7  3  2  0
  8  5  1  0
  9 17  1  0
 10 15  1  0
 11 12  1  0
 11 10  1  0
 13 12  1  0
 13 22  1  0
 13 14  1  0
 15  9  1  0
 15 14  1  0
 16  9  2  0
 17 18  1  0
 19 20  2  0
 20 39  1  0
 21 20  1  0
 21 24  1  0
 22 23  1  0
 22 19  1  0
 23 21  2  0
 24 25  1  0
 25 26  2  0
 27 30  1  0
 27 26  1  0
 28 27  2  0
 29 28  1  0
 29 24  2  0
 30 31  1  0
 31 32  1  0
 32 33  2  0
 34 33  1  0
 34 38  1  0
 35 34  2  0
 36 31  2  0
 36 35  1  0
 37 36  1  0
 39 40  1  0
 40 43  1  0
 40 42  1  0
 41 39  2  0
 44 45  1  0
 44 19  1  0
 46 44  1  0
 48 47  1  0
 48 49  1  0
 49 50  1  0
 51 50  1  0
 52 63  2  0
 53 51  1  0
 53 58  1  0
 54 62  1  0
 54 64  1  0
 55 61  1  0
 55 57  1  0
 56 62  1  0
 57 58  2  0
 57 56  1  0
 59 53  2  0
 60 59  1  0
 60 55  2  0
 61 54  1  0
 62 52  1  0
 64 66  2  0
 65 64  1  0
 67 65  1  0
 68 77  2  0
 68 73  1  0
 69 65  1  0
 69 73  1  0
 70 69  1  0
 71 72  1  0
 71 70  1  0
 72 68  1  0
 73 74  2  0
 74 75  1  0
 76 75  2  0
 77 76  1  0
 78 52  1  0
 78 79  1  0
 78 88  1  0
 79 82  1  0
 80 84  1  0
 80 79  1  0
 81 80  2  0
 84 83  1  0
 86 84  1  0
 86 87  1  0
 86 85  1  0
 88 91  1  1
 88 89  1  0
 90 88  1  0
M  ISO  4   9 100  17 100  50 101  51 101
M  END
>  <TORSDO>  (90) 
F 21

>  <SCORE>  (90) 
-13.194

>  <name>  (90) 
89

>  <ligand_id>  (90) 
89

>  <original_smiles>  (90) 
[H]c1c([H])c([H])c2c(c1[H])C([H])([H])C([H])([H])C([H])([H])C2([H])N([H])C(=O)C1([H])N(C(=O)C([H])(N([H])C(=O)C([H])(N([H])C([H])([H])[H])C([H])([H])[H])C(C([H])([H])[H])(C([H])([H])[H])C([H])([H])[H])C([H])([H])c2c([H])c(OC([H])([H])C([H])([H])C([H])([H])C([H])([H])Oc3c([H])c([H])c(N([H])C(=O)N4C([H])([H])C([H])([H])C([H])([H])C([H])(n5nc(-c6c([H])c([H])c(Oc7c([H])c([H])c(F)c([H])c7F)c([H])c6[H])c(C(=O)N([H])[H])c5N([H])[H])C4([H])[H])c(C([H])([H])[H])c3[H])c([H])c([H])c2C1([H])[H]

>  <smiles>  (90) 
[H]c1c([H])c([H])c2c(c1[H])C([H])([H])C([H])([H])C([H])([H])C2([H])N([H])C(=O)C1([H])N(C(=O)C([H])(N([H])C(=O)C([H])(N([H])C([H])([H])[H])C([H])([H])[H])C(C([H])([H])[H])(C([H])([H])[H])C([H])([H])[H])C([H])([H])c2c([H])c(OC([H])([H])C([H])([H])C([H])([H])C([H])([H])Oc3c([H])c([H])c(N([H])C(=O)N4C([H])([H])C([H])([H])C([H])([H])C([H])(n5nc(-c6c([H])c([H])c(Oc7c([H])c([H])c(F)c([H])c7F)c([H])c6[H])c(C(=O)N([H])[H])c5N([H])[H])C4([H])[H])c(C([H])([H])[H])c3[H])c([H])c([H])c2C1([H])[H]

$$$$
90:0:0
     RDKit          3D

 91 99  0  0  1  0  0  0  0  0999 V2000
  -28.1370  -18.5150   18.8340 C   0  0  0  0  0  3  0  0  0  0  0  0
  -29.6660  -19.7190   20.1900 C   0  0  0  0  0  3  0  0  0  0  0  0
  -27.8090  -20.9420   19.1180 C   0  0  0  0  0  3  0  0  0  0  0  0
  -29.3310  -18.3540   19.6640 C   0  0  0  0  0  0  0  0  0  0  0  0
  -27.3340  -19.7090   18.6660 C   0  0  0  0  0  0  0  0  0  0  0  0
  -28.9960  -21.0380   19.8620 C   0  0  0  0  0  0  0  0  0  0  0  0
  -30.6490  -15.6490   20.0610 C   0  0  0  0  0  0  0  0  0  0  0  0
  -30.8660  -13.1120   19.4380 C   0  0  0  0  0  2  0  0  0  0  0  0
  -29.9550  -12.5450   18.3220 C   0  0  0  0  0  2  0  0  0  0  0  0
  -28.5510  -12.2330   18.8610 C   0  0  0  0  0  2  0  0  0  0  0  0
  -28.0020  -13.3960   19.6830 C   0  0  0  0  0  3  0  0  0  0  0  0
  -28.9780  -13.7550   20.7930 C   0  0  0  0  0  2  0  0  0  0  0  0
  -30.2060  -14.3030   20.1550 N   0  0  0  0  0  0  0  0  0  0  0  0
  -31.8620  -15.6840   19.8310 O   0  0  0  0  0  0  0  0  0  0  0  0
  -29.2240  -16.9440   21.6430 C   0  0  0  0  0  1  0  0  0  0  0  0
  -29.7750  -16.8870   20.2790 N   0  0  0  0  0  0  0  0  0  0  0  0
  -25.6720  -14.1070   20.4460 C   0  0  0  0  0  0  0  0  0  0  0  0
  -24.5780  -13.3860   20.8300 C   0  0  0  0  0  0  0  0  0  0  0  0
  -24.9820  -12.0180   20.8130 C   0  0  0  0  0  0  0  0  0  0  0  0
  -26.6650  -13.1750   20.2020 N   0  0  0  0  0  0  0  0  0  0  0  0
  -26.2710  -11.9200   20.5100 N   0  0  0  0  0  0  0  0  0  0  0  0
  -24.2100  -10.7900   21.0040 C   0  0  0  0  0  0  0  0  0  0  0  0
  -24.5920   -9.8150   21.9500 C   0  0  0  0  0  3  0  0  0  0  0  0
  -23.8150   -8.6480   22.1320 C   0  0  0  0  0  3  0  0  0  0  0  0
  -22.6450   -8.4480   21.3600 C   0  0  0  0  0  0  0  0  0  0  0  0
  -22.2860   -9.4110   20.3980 C   0  0  0  0  0  3  0  0  0  0  0  0
  -23.0660  -10.5670   20.2180 C   0  0  0  0  0  3  0  0  0  0  0  0
  -21.8480   -7.3350   21.4450 O   0  0  0  0  0  0  0  0  0  0  0  0
  -21.7540   -6.6040   22.6000 C   0  0  0  0  0  0  0  0  0  0  0  0
  -21.3150   -7.1800   23.8130 C   0  0  0  0  0  3  0  0  0  0  0  0
  -21.1670   -6.3780   24.9610 C   0  0  0  0  0  3  0  0  0  0  0  0
  -21.4460   -5.0000   24.9000 C   0  0  0  0  0  0  0  0  0  0  0  0
  -21.8790   -4.4220   23.6950 C   0  0  0  0  0  3  0  0  0  0  0  0
  -22.0280   -5.2210   22.5460 C   0  0  0  0  0  0  0  0  0  0  0  0
  -22.4240   -4.6560   21.3800 F   0  0  0  0  0  0  0  0  0  0  0  0
  -21.2970   -4.2280   26.0000 F   0  0  0  0  0  0  0  0  0  0  0  0
  -23.2000  -13.9240   21.0790 C   0  0  0  0  0  0  0  0  0  0  0  0
  -22.4380  -13.2720   21.9510 N   0  0  0  0  0  0  0  0  0  0  0  0
  -22.8050  -14.9520   20.5310 O   0  0  0  0  0  0  0  0  0  0  0  0
  -22.7670  -12.4380   22.4130 H   0  0  0  0  0  0  0  0  0  0  0  0
  -21.5100  -13.6160   22.1550 H   0  0  0  0  0  0  0  0  0  0  0  0
  -25.8890  -15.4680   20.2450 N   0  0  0  0  0  0  0  0  0  0  0  0
  -25.1130  -16.1230   20.2860 H   0  0  0  0  0  0  0  0  0  0  0  0
  -26.6940  -15.8470   19.7580 H   0  0  0  0  0  0  0  0  0  0  0  0
  -25.8760  -20.3000   16.6850 C   0  0  0  0  0  1  0  0  0  0  0  0
  -25.1440  -20.7800   18.8270 C   0  0  0  0  0  1  0  0  0  0  0  0
  -26.0420  -19.8220   18.0800 N   0  0  0  0  0  0  0  0  0  0  0  0
  -29.3690  -22.4580   20.1850 O   0  0  0  0  0  0  0  0  0  0  0  0
  -28.4100  -23.6730   20.3040 C   0  0  0  0  0  2  0  0  0  0  0  0
  -28.4130  -25.0410   19.3280 C   0  0  0  0  0  2  0  0  0  0  0  0
  -28.2990  -26.5470   19.6880 O   0  0  0  0  0  0  0  0  0  0  0  0
  -24.5900  -31.7070   23.1370 C   0  0  0  0  0  0  0  0  0  0  0  0
  -27.1520  -27.4020   19.6480 C   0  0  0  0  0  0  0  0  0  0  0  0
  -23.3540  -30.4670   21.3860 C   0  0  0  0  0  3  0  0  0  0  0  0
  -24.7680  -29.0610   19.7890 C   0  0  0  0  0  0  0  0  0  0  0  0
  -25.8830  -30.8250   21.1650 C   0  0  0  0  0  2  0  0  0  0  0  0
  -25.9570  -29.4930   20.3880 C   0  0  0  0  0  0  0  0  0  0  0  0
  -27.1470  -28.6930   20.2950 C   0  0  0  0  0  3  0  0  0  0  0  0
  -25.9210  -27.0140   19.0400 C   0  0  0  0  0  3  0  0  0  0  0  0
  -24.7720  -27.8530   19.0730 C   0  0  0  0  0  3  0  0  0  0  0  0
  -23.5260  -29.9080   19.9380 C   0  0  0  0  0  2  0  0  0  0  0  0
  -24.6350  -31.0150   21.9440 N   0  0  0  0  0  0  0  0  0  0  0  0
  -23.5200  -31.8980   23.7480 O   0  0  0  0  0  0  0  0  0  0  0  0
  -22.7350  -29.3860   22.3110 C   0  0  0  0  0  0  0  0  0  0  0  0
  -21.4030  -29.1460   22.2010 N   0  0  0  0  0  0  0  0  0  0  0  0
  -23.4440  -28.6640   22.9910 O   0  0  0  0  0  0  0  0  0  0  0  0
  -20.8170  -29.7950   21.7020 H   0  0  0  0  0  0  0  0  0  0  0  0
  -18.0100  -27.8070   22.6550 C   0  0  0  0  0  0  0  0  0  0  0  0
  -20.6160  -28.1150   22.9110 C   0  0  0  0  0  3  0  0  0  0  0  0
  -20.7410  -26.7090   22.3110 C   0  0  0  0  0  2  0  0  0  0  0  0
  -19.6020  -26.4250   21.3020 C   0  0  0  0  0  2  0  0  0  0  0  0
  -18.1260  -26.6340   21.7400 C   0  0  0  0  0  2  0  0  0  0  0  0
  -19.1410  -28.5690   23.1050 C   0  0  0  0  0  0  0  0  0  0  0  0
  -18.9260  -29.7730   23.8260 C   0  0  0  0  0  3  0  0  0  0  0  0
  -17.6230  -30.2310   24.0830 C   0  0  0  0  0  3  0  0  0  0  0  0
  -16.5190  -29.4450   23.6880 C   0  0  0  0  0  3  0  0  0  0  0  0
  -16.7240  -28.2650   22.9320 C   0  0  0  0  0  3  0  0  0  0  0  0
  -25.8750  -32.2970   23.7690 C   0  0  0  0  0  3  0  0  0  0  0  0
  -26.4170  -31.4470   24.9940 C   0  0  1  0  0  0  0  0  0  0  0  0
  -25.3460  -31.1500   26.0760 C   0  0  0  0  0  1  0  0  0  0  0  0
  -26.9750  -30.0870   24.5030 C   0  0  0  0  0  1  0  0  0  0  0  0
  -27.5930  -32.1970   25.6760 C   0  0  0  0  0  1  0  0  0  0  0  0
  -25.5890  -33.6770   24.2120 N   0  0  0  0  0  0  0  0  0  0  0  0
  -25.9340  -34.7740   23.5260 C   0  0  0  0  0  0  0  0  0  0  0  0
  -26.6150  -34.7340   22.5010 O   0  0  0  0  0  0  0  0  0  0  0  0
  -24.9690  -33.7730   25.0010 H   0  0  0  0  0  0  0  0  0  0  0  0
  -24.2320  -36.6110   23.2880 C   0  0  0  0  0  1  0  0  0  0  0  0
  -25.4590  -36.1350   24.0800 C   0  0  0  0  0  3  0  0  0  0  0  0
  -27.5970  -36.9250   24.9980 C   0  0  0  0  0  1  0  0  0  0  0  0
  -26.5090  -37.1800   24.0540 N   0  0  0  0  0  0  0  0  0  0  0  0
  -26.1120  -38.0920   24.2650 H   0  0  0  0  0  0  0  0  0  0  0  0
  1  4  1  0
  3  6  2  0
  4  2  2  0
  4 16  1  0
  5  1  2  0
  5  3  1  0
  6 48  1  0
  6  2  1  0
  7 13  1  0
  7 16  1  0
  8 13  1  0
  9 10  1  0
  9  8  1  0
 11 10  1  0
 11 20  1  0
 11 12  1  0
 13 12  1  0
 14  7  2  0
 16 15  1  0
 17 18  2  0
 18 37  1  0
 19 18  1  0
 19 22  1  0
 20 17  1  0
 20 21  1  0
 21 19  2  0
 22 23  1  0
 23 24  2  0
 25 28  1  0
 25 24  1  0
 26 25  2  0
 27 26  1  0
 27 22  2  0
 28 29  1  0
 29 30  1  0
 30 31  2  0
 32 31  1  0
 32 36  1  0
 33 32  2  0
 34 29  2  0
 34 33  1  0
 35 34  1  0
 37 38  1  0
 38 41  1  0
 38 40  1  0
 39 37  2  0
 42 43  1  0
 42 17  1  0
 44 42  1  0
 45 47  1  0
 47  5  1  0
 47 46  1  0
 48 49  1  0
 50 51  1  0
 50 49  1  0
 52 63  2  0
 53 51  1  0
 53 58  1  0
 54 62  1  0
 54 64  1  0
 55 61  1  0
 55 57  1  0
 56 62  1  0
 57 56  1  0
 58 57  2  0
 59 60  1  0
 59 53  2  0
 60 55  2  0
 61 54  1  0
 62 52  1  0
 64 66  2  0
 65 64  1  0
 67 65  1  0
 68 77  2  0
 68 73  1  0
 69 65  1  0
 69 73  1  0
 70 69  1  0
 71 72  1  0
 71 70  1  0
 72 68  1  0
 73 74  2  0
 74 75  1  0
 76 75  2  0
 77 76  1  0
 78 52  1  0
 78 83  1  0
 78 79  1  0
 79 82  1  1
 79 80  1  0
 81 79  1  0
 83 86  1  0
 84 88  1  0
 84 83  1  0
 85 84  2  0
 88 87  1  0
 90 88  1  0
 90 91  1  0
 90 89  1  0
M  ISO  4   7 100  16 100  50 101  51 101
M  END
>  <TORSDO>  (91) 
F 20

>  <SCORE>  (91) 
-11.732

>  <name>  (91) 
90

>  <ligand_id>  (91) 
90

>  <original_smiles>  (91) 
[H]c1c([H])c([H])c2c(c1[H])C([H])([H])C([H])([H])C([H])([H])C2([H])N([H])C(=O)C1([H])N(C(=O)C([H])(N([H])C(=O)C([H])(N([H])C([H])([H])[H])C([H])([H])[H])C(C([H])([H])[H])(C([H])([H])[H])C([H])([H])[H])C([H])([H])c2c([H])c(OC([H])([H])C([H])([H])Oc3c([H])c(N(C(=O)N4C([H])([H])C([H])([H])C([H])([H])C([H])(n5nc(-c6c([H])c([H])c(Oc7c([H])c([H])c(F)c([H])c7F)c([H])c6[H])c(C(=O)N([H])[H])c5N([H])[H])C4([H])[H])C([H])([H])[H])c([H])c(N(C([H])([H])[H])C([H])([H])[H])c3[H])c([H])c([H])c2C1([H])[H]

>  <smiles>  (91) 
[H]c1c([H])c([H])c2c(c1[H])C([H])([H])C([H])([H])C([H])([H])C2([H])N([H])C(=O)C1([H])N(C(=O)C([H])(N([H])C(=O)C([H])(N([H])C([H])([H])[H])C([H])([H])[H])C(C([H])([H])[H])(C([H])([H])[H])C([H])([H])[H])C([H])([H])c2c([H])c(OC([H])([H])C([H])([H])Oc3c([H])c(N(C(=O)N4C([H])([H])C([H])([H])C([H])([H])C([H])(n5nc(-c6c([H])c([H])c(Oc7c([H])c([H])c(F)c([H])c7F)c([H])c6[H])c(C(=O)N([H])[H])c5N([H])[H])C4([H])[H])C([H])([H])[H])c([H])c(N(C([H])([H])[H])C([H])([H])[H])c3[H])c([H])c([H])c2C1([H])[H]

$$$$
91:0:0
     RDKit          3D

 92100  0  0  1  0  0  0  0  0999 V2000
  -28.3220  -20.6780   18.8010 C   0  0  0  0  0  3  0  0  0  0  0  0
  -28.2760  -19.3610   18.2570 C   0  0  0  0  0  3  0  0  0  0  0  0
  -29.3620  -19.6410   20.7190 C   0  0  0  0  0  3  0  0  0  0  0  0
  -28.8700  -20.9720   20.0630 C   0  0  0  0  0  0  0  0  0  0  0  0
  -28.7600  -18.1830   18.8950 C   0  0  0  0  0  0  0  0  0  0  0  0
  -29.3570  -18.1810   20.1800 C   0  0  0  0  0  0  0  0  0  0  0  0
  -30.3960  -15.4370   20.5780 C   0  0  0  0  0  0  0  0  0  0  0  0
  -30.5060  -12.9470   19.8320 C   0  0  0  0  0  2  0  0  0  0  0  0
  -29.6840  -12.6860   18.5410 C   0  0  0  0  0  2  0  0  0  0  0  0
  -28.2190  -12.3810   18.8890 C   0  0  0  0  0  2  0  0  0  0  0  0
  -27.6680  -13.3650   19.9530 C   0  0  0  0  0  3  0  0  0  0  0  0
  -28.6260  -13.5830   21.1430 C   0  0  0  0  0  2  0  0  0  0  0  0
  -29.8900  -14.1000   20.5950 N   0  0  0  0  0  0  0  0  0  0  0  0
  -31.6080  -15.4720   20.3170 O   0  0  0  0  0  0  0  0  0  0  0  0
  -29.6030  -16.6810   20.7970 N   0  0  0  0  0  0  0  0  0  0  0  0
  -28.7450  -16.3770   21.2330 H   0  0  0  0  0  0  0  0  0  0  0  0
  -25.2510  -13.8980   20.5480 C   0  0  0  0  0  0  0  0  0  0  0  0
  -24.1840  -13.1140   20.8880 C   0  0  0  0  0  0  0  0  0  0  0  0
  -24.6700  -11.7710   20.9090 C   0  0  0  0  0  0  0  0  0  0  0  0
  -26.3180  -13.0340   20.3840 N   0  0  0  0  0  0  0  0  0  0  0  0
  -25.9770  -11.7490   20.6640 N   0  0  0  0  0  0  0  0  0  0  0  0
  -23.9500  -10.5030   21.0810 C   0  0  0  0  0  0  0  0  0  0  0  0
  -24.3410   -9.5550   22.0520 C   0  0  0  0  0  3  0  0  0  0  0  0
  -23.6200   -8.3510   22.2120 C   0  0  0  0  0  3  0  0  0  0  0  0
  -22.4920   -8.0850   21.3990 C   0  0  0  0  0  0  0  0  0  0  0  0
  -22.1200   -9.0220   20.4180 C   0  0  0  0  0  3  0  0  0  0  0  0
  -22.8420  -10.2170   20.2570 C   0  0  0  0  0  3  0  0  0  0  0  0
  -21.7450   -6.9340   21.4640 O   0  0  0  0  0  0  0  0  0  0  0  0
  -21.6420   -6.2090   22.6250 C   0  0  0  0  0  0  0  0  0  0  0  0
  -21.1290   -6.7750   23.8120 C   0  0  0  0  0  3  0  0  0  0  0  0
  -20.9750   -5.9760   24.9640 C   0  0  0  0  0  3  0  0  0  0  0  0
  -21.3210   -4.6120   24.9270 C   0  0  0  0  0  0  0  0  0  0  0  0
  -21.8270   -4.0450   23.7450 C   0  0  0  0  0  3  0  0  0  0  0  0
  -21.9850   -4.8430   22.5960 C   0  0  0  0  0  0  0  0  0  0  0  0
  -22.4500   -4.2850   21.4530 F   0  0  0  0  0  0  0  0  0  0  0  0
  -21.1670   -3.8450   26.0320 F   0  0  0  0  0  0  0  0  0  0  0  0
  -22.7680  -13.5760   21.0650 C   0  0  0  0  0  0  0  0  0  0  0  0
  -21.9970  -12.8880   21.8990 N   0  0  0  0  0  0  0  0  0  0  0  0
  -22.3510  -14.5860   20.5000 O   0  0  0  0  0  0  0  0  0  0  0  0
  -22.3490  -12.0770   22.3820 H   0  0  0  0  0  0  0  0  0  0  0  0
  -21.0430  -13.1810   22.0540 H   0  0  0  0  0  0  0  0  0  0  0  0
  -25.4030  -15.2630   20.3300 N   0  0  0  0  0  0  0  0  0  0  0  0
  -24.5960  -15.8720   20.2700 H   0  0  0  0  0  0  0  0  0  0  0  0
  -26.1970  -15.6220   19.8110 H   0  0  0  0  0  0  0  0  0  0  0  0
  -30.4250  -23.0110   20.4360 C   0  0  0  0  0  1  0  0  0  0  0  0
  -28.5390  -22.6740   22.0250 C   0  0  0  0  0  1  0  0  0  0  0  0
  -28.9280  -22.6800   20.5380 C   0  0  2  0  0  0  0  0  0  0  0  0
  -28.1100  -24.2090   19.9060 C   0  0  0  0  0  2  0  0  0  0  0  0
  -28.2320  -25.8620   20.1960 O   0  0  0  0  0  0  0  0  0  0  0  0
  -24.6640  -31.8810   23.1610 C   0  0  0  0  0  0  0  0  0  0  0  0
  -27.2180  -26.9750   20.1150 C   0  0  0  0  0  0  0  0  0  0  0  0
  -23.4650  -30.4700   21.5410 C   0  0  0  0  0  3  0  0  0  0  0  0
  -24.9080  -28.8710   20.0990 C   0  0  0  0  0  0  0  0  0  0  0  0
  -26.0290  -30.6880   21.3690 C   0  0  0  0  0  2  0  0  0  0  0  0
  -26.1000  -29.2740   20.7100 C   0  0  0  0  0  0  0  0  0  0  0  0
  -27.2440  -28.3470   20.6960 C   0  0  0  0  0  3  0  0  0  0  0  0
  -25.9940  -26.7390   19.4480 C   0  0  0  0  0  3  0  0  0  0  0  0
  -24.8810  -27.6240   19.4470 C   0  0  0  0  0  3  0  0  0  0  0  0
  -23.6850  -29.7860   20.1620 C   0  0  0  0  0  2  0  0  0  0  0  0
  -24.7420  -31.0420   22.0760 N   0  0  0  0  0  0  0  0  0  0  0  0
  -23.5770  -32.1660   23.6910 O   0  0  0  0  0  0  0  0  0  0  0  0
  -22.7850  -29.4750   22.5190 C   0  0  0  0  0  0  0  0  0  0  0  0
  -21.4560  -29.2980   22.4090 N   0  0  0  0  0  0  0  0  0  0  0  0
  -23.4620  -28.8610   23.3460 O   0  0  0  0  0  0  0  0  0  0  0  0
  -20.9570  -29.8440   21.7200 H   0  0  0  0  0  0  0  0  0  0  0  0
  -18.0940  -28.0450   22.9600 C   0  0  0  0  0  0  0  0  0  0  0  0
  -20.6520  -28.3520   23.1930 C   0  0  0  0  0  3  0  0  0  0  0  0
  -20.7680  -26.9170   22.6240 C   0  0  0  0  0  2  0  0  0  0  0  0
  -19.6600  -26.5760   21.6230 C   0  0  0  0  0  2  0  0  0  0  0  0
  -18.2840  -26.6990   22.2820 C   0  0  0  0  0  2  0  0  0  0  0  0
  -19.2050  -28.8280   23.3740 C   0  0  0  0  0  0  0  0  0  0  0  0
  -18.9680  -30.0870   23.9670 C   0  0  0  0  0  3  0  0  0  0  0  0
  -17.6550  -30.5620   24.1540 C   0  0  0  0  0  3  0  0  0  0  0  0
  -16.5610  -29.7760   23.7550 C   0  0  0  0  0  3  0  0  0  0  0  0
  -16.7810  -28.5200   23.1610 C   0  0  0  0  0  3  0  0  0  0  0  0
  -25.9350  -32.5390   23.7780 C   0  0  0  0  0  3  0  0  0  0  0  0
  -26.4680  -31.7770   25.0570 C   0  0  1  0  0  0  0  0  0  0  0  0
  -25.3870  -31.5370   26.1360 C   0  0  0  0  0  1  0  0  0  0  0  0
  -27.0610  -30.4010   24.6780 C   0  0  0  0  0  1  0  0  0  0  0  0
  -27.6170  -32.5870   25.7060 C   0  0  0  0  0  1  0  0  0  0  0  0
  -25.6060  -33.9340   24.1250 N   0  0  0  0  0  0  0  0  0  0  0  0
  -25.9220  -35.0060   23.3840 C   0  0  0  0  0  0  0  0  0  0  0  0
  -26.5820  -34.9230   22.3470 O   0  0  0  0  0  0  0  0  0  0  0  0
  -25.0170  -34.0700   24.9340 H   0  0  0  0  0  0  0  0  0  0  0  0
  -24.1840  -36.8040   23.0720 C   0  0  0  0  0  1  0  0  0  0  0  0
  -25.4310  -36.3860   23.8700 C   0  0  0  0  0  3  0  0  0  0  0  0
  -27.5630  -37.2740   24.7090 C   0  0  0  0  0  1  0  0  0  0  0  0
  -26.4580  -37.4470   23.7710 N   0  0  0  0  0  0  0  0  0  0  0  0
  -26.0460  -38.3630   23.9330 H   0  0  0  0  0  0  0  0  0  0  0  0
  -28.5720  -16.9710   18.2280 N   0  0  0  0  0  0  0  0  0  0  0  0
  -29.2170  -16.2230   18.4430 H   0  0  0  0  0  0  0  0  0  0  0  0
  -28.3280  -17.0010   17.2450 H   0  0  0  0  0  0  0  0  0  0  0  0
  1  4  1  0
  2  1  2  0
  2  5  1  0
  4 47  1  0
  4  3  2  0
  5  6  2  0
  6  3  1  0
  6 15  1  0
  7 13  1  0
  7 15  1  0
  8 13  1  0
  9 10  1  0
  9  8  1  0
 11 10  1  0
 11 20  1  0
 11 12  1  0
 13 12  1  0
 14  7  2  0
 15 16  1  0
 17 18  2  0
 18 19  1  0
 18 37  1  0
 19 22  1  0
 20 17  1  0
 20 21  1  0
 21 19  2  0
 22 23  1  0
 23 24  2  0
 25 28  1  0
 25 24  1  0
 26 25  2  0
 27 26  1  0
 27 22  2  0
 28 29  1  0
 29 30  1  0
 30 31  2  0
 32 31  1  0
 32 36  1  0
 33 32  2  0
 34 29  2  0
 34 33  1  0
 35 34  1  0
 37 38  1  0
 38 41  1  0
 38 40  1  0
 39 37  2  0
 42 17  1  0
 43 42  1  0
 44 42  1  0
 47 45  1  1
 47 46  1  0
 48 49  1  0
 48 47  1  0
 50 61  2  0
 51 49  1  0
 51 56  1  0
 52 60  1  0
 52 62  1  0
 53 59  1  0
 53 55  1  0
 54 60  1  0
 55 54  1  0
 56 55  2  0
 57 51  2  0
 58 57  1  0
 58 53  2  0
 59 52  1  0
 60 50  1  0
 62 64  2  0
 63 62  1  0
 65 63  1  0
 66 75  2  0
 66 71  1  0
 67 63  1  0
 67 71  1  0
 68 67  1  0
 69 70  1  0
 69 68  1  0
 70 66  1  0
 71 72  2  0
 72 73  1  0
 74 73  2  0
 75 74  1  0
 76 50  1  0
 76 81  1  0
 76 77  1  0
 77 80  1  1
 77 78  1  0
 79 77  1  0
 81 84  1  0
 82 86  1  0
 82 81  1  0
 83 82  2  0
 86 85  1  0
 88 86  1  0
 88 89  1  0
 88 87  1  0
 90 91  1  0
 90  5  1  0
 92 90  1  0
M  ISO  4   7 100  15 100  48 101  49 101
M  END
>  <TORSDO>  (92) 
F 19

>  <SCORE>  (92) 
-15.982

>  <name>  (92) 
91

>  <ligand_id>  (92) 
91

>  <original_smiles>  (92) 
[H]c1c([H])c([H])c2c(c1[H])C([H])([H])C([H])([H])C([H])([H])C2([H])N([H])C(=O)C1([H])N(C(=O)C([H])(N([H])C(=O)C([H])(N([H])C([H])([H])[H])C([H])([H])[H])C(C([H])([H])[H])(C([H])([H])[H])C([H])([H])[H])C([H])([H])c2c([H])c(OC([H])([H])C(c3c([H])c([H])c(N([H])[H])c(N([H])C(=O)N4C([H])([H])C([H])([H])C([H])([H])C([H])(n5nc(-c6c([H])c([H])c(Oc7c([H])c([H])c(F)c([H])c7F)c([H])c6[H])c(C(=O)N([H])[H])c5N([H])[H])C4([H])[H])c3[H])(C([H])([H])[H])C([H])([H])[H])c([H])c([H])c2C1([H])[H]

>  <smiles>  (92) 
[H]c1c([H])c([H])c2c(c1[H])C([H])([H])C([H])([H])C([H])([H])C2([H])N([H])C(=O)C1([H])N(C(=O)C([H])(N([H])C(=O)C([H])(N([H])C([H])([H])[H])C([H])([H])[H])C(C([H])([H])[H])(C([H])([H])[H])C([H])([H])[H])C([H])([H])c2c([H])c(OC([H])([H])C(c3c([H])c([H])c(N([H])[H])c(N([H])C(=O)N4C([H])([H])C([H])([H])C([H])([H])C([H])(n5nc(-c6c([H])c([H])c(Oc7c([H])c([H])c(F)c([H])c7F)c([H])c6[H])c(C(=O)N([H])[H])c5N([H])[H])C4([H])[H])c3[H])(C([H])([H])[H])C([H])([H])[H])c([H])c([H])c2C1([H])[H]

$$$$
92:0:0
     RDKit          3D

 91 99  0  0  1  0  0  0  0  0999 V2000
  -30.8270  -19.2980   19.0130 C   0  0  0  0  0  3  0  0  0  0  0  0
  -29.7430  -19.3580   21.1460 C   0  0  0  0  0  3  0  0  0  0  0  0
  -30.8140  -17.8720   19.0060 C   0  0  0  0  0  0  0  0  0  0  0  0
  -29.7580  -17.9260   21.1830 C   0  0  0  0  0  0  0  0  0  0  0  0
  -30.3120  -17.1340   20.1260 C   0  0  0  0  0  0  0  0  0  0  0  0
  -30.2920  -20.0840   20.0600 C   0  0  0  0  0  0  0  0  0  0  0  0
  -31.2890  -17.1940   17.7310 C   0  0  0  0  0  1  0  0  0  0  0  0
  -29.1440  -17.2380   22.3930 C   0  0  0  0  0  1  0  0  0  0  0  0
  -30.9640  -14.6160   19.7830 C   0  0  0  0  0  0  0  0  0  0  0  0
  -30.6140  -12.4460   18.6280 C   0  0  0  0  0  2  0  0  0  0  0  0
  -29.5690  -12.6720   17.5120 C   0  0  0  0  0  2  0  0  0  0  0  0
  -28.1360  -12.5110   18.0610 C   0  0  0  0  0  2  0  0  0  0  0  0
  -27.9080  -13.2980   19.3780 C   0  0  0  0  0  3  0  0  0  0  0  0
  -29.0590  -13.0610   20.3820 C   0  0  0  0  0  2  0  0  0  0  0  0
  -30.3200  -13.4100   19.7070 N   0  0  0  0  0  0  0  0  0  0  0  0
  -32.1090  -14.7520   19.3430 O   0  0  0  0  0  0  0  0  0  0  0  0
  -30.2000  -15.6700   20.2140 N   0  0  0  0  0  0  0  0  0  0  0  0
  -29.3550  -15.3570   20.6640 H   0  0  0  0  0  0  0  0  0  0  0  0
  -25.5850  -13.8860   20.3040 C   0  0  0  0  0  0  0  0  0  0  0  0
  -24.5490  -13.1070   20.7440 C   0  0  0  0  0  0  0  0  0  0  0  0
  -25.0020  -11.7560   20.6460 C   0  0  0  0  0  0  0  0  0  0  0  0
  -26.6030  -13.0090   19.9660 N   0  0  0  0  0  0  0  0  0  0  0  0
  -26.2620  -11.7220   20.2320 N   0  0  0  0  0  0  0  0  0  0  0  0
  -24.2880  -10.4920   20.8690 C   0  0  0  0  0  0  0  0  0  0  0  0
  -24.7020   -9.5730   21.8600 C   0  0  0  0  0  3  0  0  0  0  0  0
  -23.9900   -8.3740   22.0680 C   0  0  0  0  0  3  0  0  0  0  0  0
  -22.8470   -8.0820   21.2840 C   0  0  0  0  0  0  0  0  0  0  0  0
  -22.4510   -8.9890   20.2850 C   0  0  0  0  0  3  0  0  0  0  0  0
  -23.1660  -10.1810   20.0760 C   0  0  0  0  0  3  0  0  0  0  0  0
  -22.1080   -6.9300   21.3980 O   0  0  0  0  0  0  0  0  0  0  0  0
  -21.8930   -6.3290   22.6130 C   0  0  0  0  0  0  0  0  0  0  0  0
  -21.2520   -7.0040   23.6740 C   0  0  0  0  0  3  0  0  0  0  0  0
  -20.9880   -6.3270   24.8810 C   0  0  0  0  0  3  0  0  0  0  0  0
  -21.3550   -4.9750   25.0260 C   0  0  0  0  0  0  0  0  0  0  0  0
  -21.9890   -4.3010   23.9680 C   0  0  0  0  0  3  0  0  0  0  0  0
  -22.2540   -4.9750   22.7640 C   0  0  0  0  0  0  0  0  0  0  0  0
  -22.8450   -4.3140   21.7400 F   0  0  0  0  0  0  0  0  0  0  0  0
  -21.0950   -4.3230   26.1820 F   0  0  0  0  0  0  0  0  0  0  0  0
  -23.1800  -13.5820   21.1380 C   0  0  0  0  0  0  0  0  0  0  0  0
  -22.5270  -12.8810   22.0600 N   0  0  0  0  0  0  0  0  0  0  0  0
  -22.6990  -14.6110   20.6650 O   0  0  0  0  0  0  0  0  0  0  0  0
  -22.9300  -12.0490   22.4650 H   0  0  0  0  0  0  0  0  0  0  0  0
  -21.6140  -13.1830   22.3650 H   0  0  0  0  0  0  0  0  0  0  0  0
  -25.7400  -15.2600   20.1400 N   0  0  0  0  0  0  0  0  0  0  0  0
  -24.9800  -15.9090   20.3130 H   0  0  0  0  0  0  0  0  0  0  0  0
  -26.5440  -15.7010   19.7130 H   0  0  0  0  0  0  0  0  0  0  0  0
  -30.3860  -21.4860   19.9450 O   0  0  0  0  0  0  0  0  0  0  0  0
  -29.4450  -22.4200   20.5560 C   0  0  0  0  0  2  0  0  0  0  0  0
  -29.7460  -23.9560   20.2400 C   0  0  0  0  0  3  0  0  0  0  0  0
  -28.5410  -24.9760   20.3750 C   0  0  0  0  0  3  0  0  0  0  0  0
  -28.7590  -26.4330   20.1900 O   0  0  0  0  0  0  0  0  0  0  0  0
  -24.8070  -31.7150   23.1320 C   0  0  0  0  0  0  0  0  0  0  0  0
  -27.6160  -27.2480   20.1270 C   0  0  0  0  0  0  0  0  0  0  0  0
  -23.6820  -30.2890   21.4600 C   0  0  0  0  0  3  0  0  0  0  0  0
  -25.2080  -28.7910   20.0660 C   0  0  0  0  0  0  0  0  0  0  0  0
  -26.2150  -30.6810   21.3390 C   0  0  0  0  0  2  0  0  0  0  0  0
  -26.3490  -29.3090   20.6910 C   0  0  0  0  0  0  0  0  0  0  0  0
  -27.5570  -28.5500   20.7110 C   0  0  0  0  0  3  0  0  0  0  0  0
  -26.4490  -26.7870   19.4710 C   0  0  0  0  0  3  0  0  0  0  0  0
  -25.2600  -27.5350   19.4470 C   0  0  0  0  0  3  0  0  0  0  0  0
  -23.9470  -29.6280   20.0830 C   0  0  0  0  0  2  0  0  0  0  0  0
  -24.9180  -30.9120   22.0340 N   0  0  0  0  0  0  0  0  0  0  0  0
  -23.7030  -31.9610   23.6390 O   0  0  0  0  0  0  0  0  0  0  0  0
  -23.0270  -29.2480   22.3990 C   0  0  0  0  0  0  0  0  0  0  0  0
  -21.7070  -29.0480   22.2510 N   0  0  0  0  0  0  0  0  0  0  0  0
  -23.7060  -28.6260   23.2210 O   0  0  0  0  0  0  0  0  0  0  0  0
  -21.2200  -29.6030   21.5620 H   0  0  0  0  0  0  0  0  0  0  0  0
  -18.3350  -27.8200   22.7220 C   0  0  0  0  0  0  0  0  0  0  0  0
  -20.8920  -28.0900   23.0010 C   0  0  0  0  0  3  0  0  0  0  0  0
  -21.0040  -26.6720   22.3970 C   0  0  0  0  0  2  0  0  0  0  0  0
  -19.9050  -26.3610   21.3750 C   0  0  0  0  0  2  0  0  0  0  0  0
  -18.5220  -26.4860   22.0200 C   0  0  0  0  0  2  0  0  0  0  0  0
  -19.4500  -28.5800   23.1690 C   0  0  0  0  0  0  0  0  0  0  0  0
  -19.2220  -29.8300   23.7860 C   0  0  0  0  0  3  0  0  0  0  0  0
  -17.9140  -30.3190   23.9600 C   0  0  0  0  0  3  0  0  0  0  0  0
  -16.8150  -29.5560   23.5300 C   0  0  0  0  0  3  0  0  0  0  0  0
  -17.0260  -28.3080   22.9170 C   0  0  0  0  0  3  0  0  0  0  0  0
  -26.0570  -32.3790   23.7850 C   0  0  0  0  0  3  0  0  0  0  0  0
  -26.5820  -31.6000   25.0540 C   0  0  1  0  0  0  0  0  0  0  0  0
  -25.4810  -31.2970   26.0980 C   0  0  0  0  0  1  0  0  0  0  0  0
  -27.2260  -30.2560   24.6440 C   0  0  0  0  0  1  0  0  0  0  0  0
  -27.6910  -32.4240   25.7510 C   0  0  0  0  0  1  0  0  0  0  0  0
  -25.6910  -33.7580   24.1400 N   0  0  0  0  0  0  0  0  0  0  0  0
  -25.9720  -34.8360   23.3960 C   0  0  0  0  0  0  0  0  0  0  0  0
  -26.6390  -34.7770   22.3590 O   0  0  0  0  0  0  0  0  0  0  0  0
  -25.0990  -33.8740   24.9490 H   0  0  0  0  0  0  0  0  0  0  0  0
  -24.1580  -36.5510   23.0920 C   0  0  0  0  0  1  0  0  0  0  0  0
  -25.4300  -36.1950   23.8780 C   0  0  0  0  0  3  0  0  0  0  0  0
  -27.5310  -37.1710   24.6910 C   0  0  0  0  0  1  0  0  0  0  0  0
  -26.4110  -37.2950   23.7610 N   0  0  0  0  0  0  0  0  0  0  0  0
  -25.9650  -38.1950   23.9190 H   0  0  0  0  0  0  0  0  0  0  0  0
  1  6  1  0
  2  4  1  0
  3  1  2  0
  3  5  1  0
  4  8  1  0
  5 17  1  0
  5  4  2  0
  6  2  2  0
  7  3  1  0
  9 17  1  0
 10 15  1  0
 11 12  1  0
 11 10  1  0
 13 12  1  0
 13 22  1  0
 13 14  1  0
 15  9  1  0
 15 14  1  0
 16  9  2  0
 17 18  1  0
 19 20  2  0
 20 39  1  0
 21 20  1  0
 21 24  1  0
 22 23  1  0
 22 19  1  0
 23 21  2  0
 24 25  1  0
 25 26  2  0
 27 30  1  0
 27 26  1  0
 28 27  2  0
 29 28  1  0
 29 24  2  0
 30 31  1  0
 31 36  2  0
 31 32  1  0
 32 33  2  0
 33 34  1  0
 34 38  1  0
 35 34  2  0
 36 35  1  0
 37 36  1  0
 39 40  1  0
 40 43  1  0
 40 42  1  0
 41 39  2  0
 44 19  1  0
 44 45  1  0
 46 44  1  0
 47  6  1  0
 47 48  1  0
 49 50  2  0
 49 48  1  0
 51 50  1  0
 52 63  2  0
 53 51  1  0
 53 58  1  0
 54 62  1  0
 54 64  1  0
 55 61  1  0
 55 57  1  0
 56 62  1  0
 57 58  2  0
 57 56  1  0
 59 53  2  0
 60 59  1  0
 60 55  2  0
 61 54  1  0
 62 52  1  0
 64 66  2  0
 65 64  1  0
 67 65  1  0
 68 77  2  0
 68 73  1  0
 69 65  1  0
 69 73  1  0
 70 69  1  0
 71 72  1  0
 71 70  1  0
 72 68  1  0
 73 74  2  0
 74 75  1  0
 76 75  2  0
 77 76  1  0
 78 52  1  0
 78 83  1  0
 78 79  1  0
 79 82  1  1
 79 80  1  0
 81 79  1  0
 83 86  1  0
 84 88  1  0
 84 83  1  0
 85 84  2  0
 88 87  1  0
 90 88  1  0
 90 91  1  0
 90 89  1  0
M  ISO  4   9 100  17 100  50 101  51 101
M  END
>  <TORSDO>  (93) 
F 20

>  <SCORE>  (93) 
-10.600

>  <name>  (93) 
92

>  <ligand_id>  (93) 
92

>  <original_smiles>  (93) 
[H]c1c([H])c([H])c2c(c1[H])C([H])([H])C([H])([H])C([H])([H])C2([H])N([H])C(=O)C1([H])N(C(=O)C([H])(N([H])C(=O)C([H])(N([H])C([H])([H])[H])C([H])([H])[H])C(C([H])([H])[H])(C([H])([H])[H])C([H])([H])[H])C([H])([H])c2c([H])c(OC([H])([H])C([H])([H])C([H])([H])Oc3c([H])c(C([H])([H])[H])c(N([H])C(=O)N4C([H])([H])C([H])([H])C([H])([H])C([H])(n5nc(-c6c([H])c([H])c(Oc7c([H])c([H])c(F)c([H])c7F)c([H])c6[H])c(C(=O)N([H])[H])c5N([H])[H])C4([H])[H])c(C([H])([H])[H])c3[H])c([H])c([H])c2C1([H])[H]

>  <smiles>  (93) 
[H]c1c([H])c([H])c2c(c1[H])C([H])([H])C([H])([H])C([H])([H])C2([H])N([H])C(=O)C1([H])N(C(=O)C([H])(N([H])C(=O)C([H])(N([H])C([H])([H])[H])C([H])([H])[H])C(C([H])([H])[H])(C([H])([H])[H])C([H])([H])[H])C([H])([H])c2c([H])c(OC([H])([H])C([H])([H])C([H])([H])Oc3c([H])c(C([H])([H])[H])c(N([H])C(=O)N4C([H])([H])C([H])([H])C([H])([H])C([H])(n5nc(-c6c([H])c([H])c(Oc7c([H])c([H])c(F)c([H])c7F)c([H])c6[H])c(C(=O)N([H])[H])c5N([H])[H])C4([H])[H])c(C([H])([H])[H])c3[H])c([H])c([H])c2C1([H])[H]

$$$$
93:0:0
     RDKit          3D

 91 99  0  0  1  0  0  0  0  0999 V2000
  -28.9200  -23.4070   20.2880 C   0  0  0  0  0  0  0  0  0  0  0  0
  -28.4800  -22.0730   20.1000 N   0  0  0  0  0  0  0  0  0  0  0  0
  -30.0660  -23.6340   20.6870 O   0  0  0  0  0  0  0  0  0  0  0  0
  -27.5130  -22.1050   19.8010 H   0  0  0  0  0  0  0  0  0  0  0  0
  -30.2820  -20.0580   20.4200 C   0  0  0  0  0  3  0  0  0  0  0  0
  -30.5710  -18.6180   20.4870 C   0  0  0  0  0  3  0  0  0  0  0  0
  -27.9980  -19.5700   20.1140 C   0  0  0  0  0  3  0  0  0  0  0  0
  -28.9640  -20.6200   20.2310 C   0  0  0  0  0  0  0  0  0  0  0  0
  -29.5680  -17.5840   20.3820 C   0  0  0  0  0  0  0  0  0  0  0  0
  -28.2750  -18.1570   20.1900 C   0  0  0  0  0  0  0  0  0  0  0  0
  -27.2350  -17.2980   20.0710 F   0  0  0  0  0  0  0  0  0  0  0  0
  -30.5100  -14.9630   20.3310 C   0  0  0  0  0  0  0  0  0  0  0  0
  -30.4250  -12.6170   19.3750 C   0  0  0  0  0  2  0  0  0  0  0  0
  -29.4820  -12.5960   18.1490 C   0  0  0  0  0  2  0  0  0  0  0  0
  -28.0160  -12.3860   18.5800 C   0  0  0  0  0  2  0  0  0  0  0  0
  -27.6140  -13.2920   19.7720 C   0  0  0  0  0  3  0  0  0  0  0  0
  -28.6750  -13.2690   20.8940 C   0  0  0  0  0  2  0  0  0  0  0  0
  -29.9520  -13.6870   20.2940 N   0  0  0  0  0  0  0  0  0  0  0  0
  -31.7030  -15.0880   20.0360 O   0  0  0  0  0  0  0  0  0  0  0  0
  -29.6350  -16.0570   20.5100 N   0  0  0  0  0  0  0  0  0  0  0  0
  -28.7070  -15.6950   20.6650 H   0  0  0  0  0  0  0  0  0  0  0  0
  -25.2220  -13.8590   20.5000 C   0  0  0  0  0  0  0  0  0  0  0  0
  -24.1620  -13.0780   20.8700 C   0  0  0  0  0  0  0  0  0  0  0  0
  -24.6370  -11.7310   20.8440 C   0  0  0  0  0  0  0  0  0  0  0  0
  -26.2750  -12.9890   20.2680 N   0  0  0  0  0  0  0  0  0  0  0  0
  -25.9300  -11.7020   20.5400 N   0  0  0  0  0  0  0  0  0  0  0  0
  -23.9190  -10.4650   21.0370 C   0  0  0  0  0  0  0  0  0  0  0  0
  -24.3550   -9.5000   21.9720 C   0  0  0  0  0  3  0  0  0  0  0  0
  -23.6330   -8.3010   22.1520 C   0  0  0  0  0  3  0  0  0  0  0  0
  -22.4600   -8.0580   21.3990 C   0  0  0  0  0  0  0  0  0  0  0  0
  -22.0410   -9.0120   20.4550 C   0  0  0  0  0  3  0  0  0  0  0  0
  -22.7640  -10.2020   20.2720 C   0  0  0  0  0  3  0  0  0  0  0  0
  -21.7110   -6.9100   21.4890 O   0  0  0  0  0  0  0  0  0  0  0  0
  -21.6710   -6.1640   22.6410 C   0  0  0  0  0  0  0  0  0  0  0  0
  -21.2450   -6.7130   23.8690 C   0  0  0  0  0  3  0  0  0  0  0  0
  -21.1540   -5.8950   25.0120 C   0  0  0  0  0  3  0  0  0  0  0  0
  -21.4780   -4.5270   24.9270 C   0  0  0  0  0  0  0  0  0  0  0  0
  -21.8960   -3.9770   23.7040 C   0  0  0  0  0  3  0  0  0  0  0  0
  -21.9900   -4.7940   22.5620 C   0  0  0  0  0  0  0  0  0  0  0  0
  -22.3740   -4.2540   21.3800 F   0  0  0  0  0  0  0  0  0  0  0  0
  -21.3820   -3.7390   26.0230 F   0  0  0  0  0  0  0  0  0  0  0  0
  -22.7610  -13.5480   21.1340 C   0  0  0  0  0  0  0  0  0  0  0  0
  -22.0370  -12.8550   22.0060 N   0  0  0  0  0  0  0  0  0  0  0  0
  -22.3180  -14.5670   20.6060 O   0  0  0  0  0  0  0  0  0  0  0  0
  -22.4090  -12.0330   22.4580 H   0  0  0  0  0  0  0  0  0  0  0  0
  -21.0980  -13.1540   22.2280 H   0  0  0  0  0  0  0  0  0  0  0  0
  -25.3610  -15.2300   20.3230 N   0  0  0  0  0  0  0  0  0  0  0  0
  -24.5760  -15.8570   20.4490 H   0  0  0  0  0  0  0  0  0  0  0  0
  -26.2010  -15.7250   20.0400 H   0  0  0  0  0  0  0  0  0  0  0  0
  -27.9180  -24.6900   19.9720 C   0  0  0  0  0  2  0  0  0  0  0  0
  -28.2470  -26.1880   20.2400 O   0  0  0  0  0  0  0  0  0  0  0  0
  -24.6450  -31.8880   23.2390 C   0  0  0  0  0  0  0  0  0  0  0  0
  -27.1970  -27.1790   20.1790 C   0  0  0  0  0  0  0  0  0  0  0  0
  -23.4310  -30.4950   21.6090 C   0  0  0  0  0  3  0  0  0  0  0  0
  -24.8660  -28.9240   20.1720 C   0  0  0  0  0  0  0  0  0  0  0  0
  -25.9850  -30.7580   21.4260 C   0  0  0  0  0  2  0  0  0  0  0  0
  -26.0520  -29.3670   20.7720 C   0  0  0  0  0  0  0  0  0  0  0  0
  -27.2170  -28.5100   20.7610 C   0  0  0  0  0  3  0  0  0  0  0  0
  -25.9820  -26.8410   19.5390 C   0  0  0  0  0  3  0  0  0  0  0  0
  -24.8440  -27.6730   19.5410 C   0  0  0  0  0  3  0  0  0  0  0  0
  -23.6400  -29.8210   20.2290 C   0  0  0  0  0  2  0  0  0  0  0  0
  -24.7070  -31.0690   22.1470 N   0  0  0  0  0  0  0  0  0  0  0  0
  -23.5630  -32.1750   23.7740 O   0  0  0  0  0  0  0  0  0  0  0  0
  -22.7580  -29.4880   22.5750 C   0  0  0  0  0  0  0  0  0  0  0  0
  -21.4290  -29.3160   22.4540 N   0  0  0  0  0  0  0  0  0  0  0  0
  -23.4330  -28.8630   23.3970 O   0  0  0  0  0  0  0  0  0  0  0  0
  -20.9400  -29.8710   21.7670 H   0  0  0  0  0  0  0  0  0  0  0  0
  -18.0510  -28.1080   22.9660 C   0  0  0  0  0  0  0  0  0  0  0  0
  -20.6090  -28.3810   23.2310 C   0  0  0  0  0  3  0  0  0  0  0  0
  -20.7160  -26.9450   22.6660 C   0  0  0  0  0  2  0  0  0  0  0  0
  -19.6140  -26.6120   21.6540 C   0  0  0  0  0  2  0  0  0  0  0  0
  -18.2330  -26.7560   22.2980 C   0  0  0  0  0  2  0  0  0  0  0  0
  -19.1680  -28.8790   23.3910 C   0  0  0  0  0  0  0  0  0  0  0  0
  -18.9420  -30.1420   23.9770 C   0  0  0  0  0  3  0  0  0  0  0  0
  -17.6350  -30.6370   24.1430 C   0  0  0  0  0  3  0  0  0  0  0  0
  -16.5340  -29.8650   23.7330 C   0  0  0  0  0  3  0  0  0  0  0  0
  -16.7440  -28.6030   23.1500 C   0  0  0  0  0  3  0  0  0  0  0  0
  -25.9280  -32.5210   23.8570 C   0  0  0  0  0  3  0  0  0  0  0  0
  -25.6200  -33.9190   24.1960 N   0  0  0  0  0  0  0  0  0  0  0  0
  -25.9220  -34.9760   23.4320 C   0  0  0  0  0  0  0  0  0  0  0  0
  -26.5590  -34.8760   22.3780 O   0  0  0  0  0  0  0  0  0  0  0  0
  -25.0490  -34.0690   25.0160 H   0  0  0  0  0  0  0  0  0  0  0  0
  -24.1640  -36.7560   23.1570 C   0  0  0  0  0  1  0  0  0  0  0  0
  -25.4470  -36.3620   23.9080 C   0  0  0  0  0  3  0  0  0  0  0  0
  -27.6110  -37.2720   24.6310 C   0  0  0  0  0  1  0  0  0  0  0  0
  -26.4650  -37.4240   23.7400 N   0  0  0  0  0  0  0  0  0  0  0  0
  -26.0570  -38.3420   23.8980 H   0  0  0  0  0  0  0  0  0  0  0  0
  -26.4490  -31.7490   25.1330 C   0  0  1  0  0  0  0  0  0  0  0  0
  -25.3590  -31.5150   26.2060 C   0  0  0  0  0  1  0  0  0  0  0  0
  -27.0240  -30.3670   24.7420 C   0  0  0  0  0  1  0  0  0  0  0  0
  -27.6050  -32.5390   25.7870 C   0  0  0  0  0  1  0  0  0  0  0  0
  1  3  2  0
  2  8  1  0
  2  1  1  0
  4  2  1  0
  5  6  1  0
  7 10  2  0
  7  8  1  0
  8  5  2  0
  9  6  2  0
  9 20  1  0
 10  9  1  0
 11 10  1  0
 12 20  1  0
 13 18  1  0
 14 15  1  0
 14 13  1  0
 16 15  1  0
 16 25  1  0
 16 17  1  0
 18 12  1  0
 18 17  1  0
 19 12  2  0
 20 21  1  0
 22 23  2  0
 23 42  1  0
 24 23  1  0
 24 27  1  0
 25 22  1  0
 25 26  1  0
 26 24  2  0
 27 28  1  0
 28 29  2  0
 30 33  1  0
 30 29  1  0
 31 30  2  0
 32 31  1  0
 32 27  2  0
 33 34  1  0
 34 35  1  0
 35 36  2  0
 37 36  1  0
 37 41  1  0
 38 37  2  0
 39 34  2  0
 39 38  1  0
 40 39  1  0
 42 43  1  0
 43 46  1  0
 43 45  1  0
 44 42  2  0
 47 48  1  0
 47 22  1  0
 49 47  1  0
 50 51  1  0
 50  1  1  0
 52 63  2  0
 53 51  1  0
 53 58  1  0
 54 62  1  0
 54 64  1  0
 55 61  1  0
 55 57  1  0
 56 62  1  0
 57 56  1  0
 58 57  2  0
 59 60  1  0
 59 53  2  0
 60 55  2  0
 61 54  1  0
 62 52  1  0
 64 66  2  0
 65 64  1  0
 67 65  1  0
 68 77  2  0
 68 73  1  0
 69 65  1  0
 69 73  1  0
 70 69  1  0
 71 72  1  0
 71 70  1  0
 72 68  1  0
 73 74  2  0
 74 75  1  0
 76 75  2  0
 77 76  1  0
 78 52  1  0
 78 79  1  0
 78 88  1  0
 79 82  1  0
 80 84  1  0
 80 79  1  0
 81 80  2  0
 84 83  1  0
 86 87  1  0
 86 84  1  0
 86 85  1  0
 88 91  1  1
 88 89  1  0
 90 88  1  0
M  ISO  4  12 100  20 100  50 101  51 101
M  END
>  <TORSDO>  (94) 
F 18

>  <SCORE>  (94) 
-14.879

>  <name>  (94) 
93

>  <ligand_id>  (94) 
93

>  <original_smiles>  (94) 
[H]c1c([H])c([H])c2c(c1[H])C([H])([H])C([H])([H])C([H])([H])C2([H])N([H])C(=O)C1([H])N(C(=O)C([H])(N([H])C(=O)C([H])(N([H])C([H])([H])[H])C([H])([H])[H])C(C([H])([H])[H])(C([H])([H])[H])C([H])([H])[H])C([H])([H])c2c([H])c(OC([H])([H])C(=O)N([H])c3c([H])c([H])c(N([H])C(=O)N4C([H])([H])C([H])([H])C([H])([H])C([H])(n5nc(-c6c([H])c([H])c(Oc7c([H])c([H])c(F)c([H])c7F)c([H])c6[H])c(C(=O)N([H])[H])c5N([H])[H])C4([H])[H])c(F)c3[H])c([H])c([H])c2C1([H])[H]

>  <smiles>  (94) 
[H]c1c([H])c([H])c2c(c1[H])C([H])([H])C([H])([H])C([H])([H])C2([H])N([H])C(=O)C1([H])N(C(=O)C([H])(N([H])C(=O)C([H])(N([H])C([H])([H])[H])C([H])([H])[H])C(C([H])([H])[H])(C([H])([H])[H])C([H])([H])[H])C([H])([H])c2c([H])c(OC([H])([H])C(=O)N([H])c3c([H])c([H])c(N([H])C(=O)N4C([H])([H])C([H])([H])C([H])([H])C([H])(n5nc(-c6c([H])c([H])c(Oc7c([H])c([H])c(F)c([H])c7F)c([H])c6[H])c(C(=O)N([H])[H])c5N([H])[H])C4([H])[H])c(F)c3[H])c([H])c([H])c2C1([H])[H]

$$$$
94:0:0
     RDKit          3D

 91 99  0  0  1  0  0  0  0  0999 V2000
  -28.9840  -23.4060   20.2160 C   0  0  0  0  0  0  0  0  0  0  0  0
  -28.5330  -22.0740   20.0580 N   0  0  0  0  0  0  0  0  0  0  0  0
  -30.1440  -23.6320   20.5700 O   0  0  0  0  0  0  0  0  0  0  0  0
  -27.5480  -22.0810   19.8230 H   0  0  0  0  0  0  0  0  0  0  0  0
  -30.6150  -18.6040   20.2960 C   0  0  0  0  0  3  0  0  0  0  0  0
  -30.3410  -20.0470   20.2500 C   0  0  0  0  0  3  0  0  0  0  0  0
  -28.2990  -18.1820   20.2110 C   0  0  0  0  0  3  0  0  0  0  0  0
  -29.5970  -17.5800   20.2820 C   0  0  0  0  0  0  0  0  0  0  0  0
  -29.0190  -20.6250   20.1720 C   0  0  0  0  0  0  0  0  0  0  0  0
  -28.0240  -19.5980   20.1470 C   0  0  0  0  0  0  0  0  0  0  0  0
  -26.7300  -19.9890   20.0570 F   0  0  0  0  0  0  0  0  0  0  0  0
  -30.5510  -14.9620   20.1150 C   0  0  0  0  0  0  0  0  0  0  0  0
  -30.4380  -12.6340   19.1180 C   0  0  0  0  0  2  0  0  0  0  0  0
  -29.4590  -12.6410   17.9190 C   0  0  0  0  0  2  0  0  0  0  0  0
  -28.0060  -12.4260   18.3900 C   0  0  0  0  0  2  0  0  0  0  0  0
  -27.6440  -13.3100   19.6110 C   0  0  0  0  0  3  0  0  0  0  0  0
  -28.7370  -13.2580   20.7010 C   0  0  0  0  0  2  0  0  0  0  0  0
  -29.9960  -13.6850   20.0730 N   0  0  0  0  0  0  0  0  0  0  0  0
  -31.7310  -15.0980   19.7720 O   0  0  0  0  0  0  0  0  0  0  0  0
  -29.6790  -16.0480   20.3690 N   0  0  0  0  0  0  0  0  0  0  0  0
  -28.7830  -15.6540   20.6080 H   0  0  0  0  0  0  0  0  0  0  0  0
  -25.2800  -13.8790   20.4200 C   0  0  0  0  0  0  0  0  0  0  0  0
  -24.2290  -13.0980   20.8130 C   0  0  0  0  0  0  0  0  0  0  0  0
  -24.6940  -11.7480   20.7490 C   0  0  0  0  0  0  0  0  0  0  0  0
  -26.3180  -13.0050   20.1380 N   0  0  0  0  0  0  0  0  0  0  0  0
  -25.9750  -11.7180   20.4010 N   0  0  0  0  0  0  0  0  0  0  0  0
  -23.9740  -10.4820   20.9410 C   0  0  0  0  0  0  0  0  0  0  0  0
  -24.4040   -9.5240   21.8840 C   0  0  0  0  0  3  0  0  0  0  0  0
  -23.6830   -8.3230   22.0640 C   0  0  0  0  0  3  0  0  0  0  0  0
  -22.5180   -8.0720   21.3000 C   0  0  0  0  0  0  0  0  0  0  0  0
  -22.1080   -9.0210   20.3460 C   0  0  0  0  0  3  0  0  0  0  0  0
  -22.8300  -10.2120   20.1650 C   0  0  0  0  0  3  0  0  0  0  0  0
  -21.7710   -6.9240   21.3890 O   0  0  0  0  0  0  0  0  0  0  0  0
  -21.6710   -6.2170   22.5600 C   0  0  0  0  0  0  0  0  0  0  0  0
  -21.1670   -6.8020   23.7430 C   0  0  0  0  0  3  0  0  0  0  0  0
  -21.0170   -6.0230   24.9060 C   0  0  0  0  0  3  0  0  0  0  0  0
  -21.3610   -4.6570   24.8890 C   0  0  0  0  0  0  0  0  0  0  0  0
  -21.8590   -4.0710   23.7110 C   0  0  0  0  0  3  0  0  0  0  0  0
  -22.0100   -4.8490   22.5500 C   0  0  0  0  0  0  0  0  0  0  0  0
  -22.4700   -4.2740   21.4130 F   0  0  0  0  0  0  0  0  0  0  0  0
  -21.2100   -3.9060   26.0050 F   0  0  0  0  0  0  0  0  0  0  0  0
  -22.8380  -13.5690   21.1280 C   0  0  0  0  0  0  0  0  0  0  0  0
  -22.1370  -12.8660   22.0090 N   0  0  0  0  0  0  0  0  0  0  0  0
  -22.3840  -14.5970   20.6260 O   0  0  0  0  0  0  0  0  0  0  0  0
  -22.5180  -12.0350   22.4370 H   0  0  0  0  0  0  0  0  0  0  0  0
  -21.2060  -13.1640   22.2620 H   0  0  0  0  0  0  0  0  0  0  0  0
  -25.4330  -15.2520   20.2490 N   0  0  0  0  0  0  0  0  0  0  0  0
  -24.6480  -15.8850   20.3550 H   0  0  0  0  0  0  0  0  0  0  0  0
  -26.2200  -15.6750   19.7760 H   0  0  0  0  0  0  0  0  0  0  0  0
  -27.9800  -24.6920   19.9200 C   0  0  0  0  0  2  0  0  0  0  0  0
  -28.3120  -26.1880   20.1970 O   0  0  0  0  0  0  0  0  0  0  0  0
  -24.6660  -31.8440   23.2340 C   0  0  0  0  0  0  0  0  0  0  0  0
  -27.2610  -27.1790   20.1420 C   0  0  0  0  0  0  0  0  0  0  0  0
  -23.4720  -30.4670   21.5760 C   0  0  0  0  0  3  0  0  0  0  0  0
  -24.9260  -28.9180   20.1340 C   0  0  0  0  0  0  0  0  0  0  0  0
  -26.0270  -30.7400   21.4210 C   0  0  0  0  0  2  0  0  0  0  0  0
  -26.1060  -29.3580   20.7490 C   0  0  0  0  0  0  0  0  0  0  0  0
  -27.2740  -28.5040   20.7380 C   0  0  0  0  0  3  0  0  0  0  0  0
  -26.0520  -26.8450   19.4880 C   0  0  0  0  0  3  0  0  0  0  0  0
  -24.9120  -27.6740   19.4900 C   0  0  0  0  0  3  0  0  0  0  0  0
  -23.6970  -29.8110   20.1890 C   0  0  0  0  0  2  0  0  0  0  0  0
  -24.7420  -31.0380   22.1320 N   0  0  0  0  0  0  0  0  0  0  0  0
  -23.5780  -32.1210   23.7620 O   0  0  0  0  0  0  0  0  0  0  0  0
  -22.7940  -29.4450   22.5230 C   0  0  0  0  0  0  0  0  0  0  0  0
  -21.4650  -29.2810   22.3990 N   0  0  0  0  0  0  0  0  0  0  0  0
  -23.4660  -28.8030   23.3340 O   0  0  0  0  0  0  0  0  0  0  0  0
  -20.9790  -29.8510   21.7200 H   0  0  0  0  0  0  0  0  0  0  0  0
  -18.0770  -28.1010   22.9080 C   0  0  0  0  0  0  0  0  0  0  0  0
  -20.6410  -28.3360   23.1580 C   0  0  0  0  0  3  0  0  0  0  0  0
  -20.7240  -26.9140   22.5550 C   0  0  0  0  0  2  0  0  0  0  0  0
  -19.6100  -26.6210   21.5450 C   0  0  0  0  0  2  0  0  0  0  0  0
  -18.2360  -26.7640   22.2040 C   0  0  0  0  0  2  0  0  0  0  0  0
  -19.2060  -28.8470   23.3430 C   0  0  0  0  0  0  0  0  0  0  0  0
  -19.0010  -30.0970   23.9630 C   0  0  0  0  0  3  0  0  0  0  0  0
  -17.7010  -30.6040   24.1540 C   0  0  0  0  0  3  0  0  0  0  0  0
  -16.5880  -29.8560   23.7330 C   0  0  0  0  0  3  0  0  0  0  0  0
  -16.7770  -28.6060   23.1170 C   0  0  0  0  0  3  0  0  0  0  0  0
  -25.9420  -32.4740   23.8720 C   0  0  0  0  0  3  0  0  0  0  0  0
  -25.6290  -33.8700   24.2110 N   0  0  0  0  0  0  0  0  0  0  0  0
  -25.9410  -34.9310   23.4540 C   0  0  0  0  0  0  0  0  0  0  0  0
  -26.5900  -34.8350   22.4080 O   0  0  0  0  0  0  0  0  0  0  0  0
  -25.0490  -34.0180   25.0240 H   0  0  0  0  0  0  0  0  0  0  0  0
  -24.1860  -36.7120   23.1640 C   0  0  0  0  0  1  0  0  0  0  0  0
  -25.4600  -36.3150   23.9290 C   0  0  0  0  0  3  0  0  0  0  0  0
  -27.6110  -37.2250   24.6860 C   0  0  0  0  0  1  0  0  0  0  0  0
  -26.4790  -37.3770   23.7770 N   0  0  0  0  0  0  0  0  0  0  0  0
  -26.0690  -38.2950   23.9310 H   0  0  0  0  0  0  0  0  0  0  0  0
  -26.4440  -31.6960   25.1500 C   0  0  1  0  0  0  0  0  0  0  0  0
  -25.3410  -31.4590   26.2070 C   0  0  0  0  0  1  0  0  0  0  0  0
  -27.0260  -30.3170   24.7630 C   0  0  0  0  0  1  0  0  0  0  0  0
  -27.5910  -32.4850   25.8250 C   0  0  0  0  0  1  0  0  0  0  0  0
  1  3  2  0
  2  9  1  0
  2  1  1  0
  4  2  1  0
  6  5  2  0
  7  8  2  0
  8  5  1  0
  8 20  1  0
  9  6  1  0
 10  9  2  0
 10  7  1  0
 11 10  1  0
 12 20  1  0
 13 18  1  0
 14 15  1  0
 14 13  1  0
 16 15  1  0
 16 25  1  0
 16 17  1  0
 18 12  1  0
 18 17  1  0
 19 12  2  0
 20 21  1  0
 22 23  2  0
 23 42  1  0
 24 23  1  0
 24 27  1  0
 25 26  1  0
 25 22  1  0
 26 24  2  0
 27 28  1  0
 28 29  2  0
 30 33  1  0
 30 29  1  0
 31 30  2  0
 32 31  1  0
 32 27  2  0
 33 34  1  0
 34 35  1  0
 35 36  2  0
 37 36  1  0
 37 41  1  0
 38 37  2  0
 39 34  2  0
 39 38  1  0
 40 39  1  0
 42 43  1  0
 43 46  1  0
 43 45  1  0
 44 42  2  0
 47 48  1  0
 47 22  1  0
 49 47  1  0
 50 51  1  0
 50  1  1  0
 52 63  2  0
 53 51  1  0
 53 58  1  0
 54 62  1  0
 54 64  1  0
 55 61  1  0
 55 57  1  0
 56 62  1  0
 57 56  1  0
 58 57  2  0
 59 60  1  0
 59 53  2  0
 60 55  2  0
 61 54  1  0
 62 52  1  0
 64 66  2  0
 65 64  1  0
 67 65  1  0
 68 77  2  0
 68 73  1  0
 69 65  1  0
 69 73  1  0
 70 69  1  0
 71 72  1  0
 71 70  1  0
 72 68  1  0
 73 74  2  0
 74 75  1  0
 76 75  2  0
 77 76  1  0
 78 52  1  0
 78 79  1  0
 78 88  1  0
 79 82  1  0
 80 84  1  0
 80 79  1  0
 81 80  2  0
 84 83  1  0
 86 84  1  0
 86 87  1  0
 86 85  1  0
 88 91  1  1
 88 89  1  0
 90 88  1  0
M  ISO  4  12 100  20 100  50 101  51 101
M  END
>  <TORSDO>  (95) 
F 18

>  <SCORE>  (95) 
-14.264

>  <name>  (95) 
94

>  <ligand_id>  (95) 
94

>  <original_smiles>  (95) 
[H]c1c([H])c([H])c2c(c1[H])C([H])([H])C([H])([H])C([H])([H])C2([H])N([H])C(=O)C1([H])N(C(=O)C([H])(N([H])C(=O)C([H])(N([H])C([H])([H])[H])C([H])([H])[H])C(C([H])([H])[H])(C([H])([H])[H])C([H])([H])[H])C([H])([H])c2c([H])c(OC([H])([H])C(=O)N([H])c3c([H])c([H])c(N([H])C(=O)N4C([H])([H])C([H])([H])C([H])([H])C([H])(n5nc(-c6c([H])c([H])c(Oc7c([H])c([H])c(F)c([H])c7F)c([H])c6[H])c(C(=O)N([H])[H])c5N([H])[H])C4([H])[H])c([H])c3F)c([H])c([H])c2C1([H])[H]

>  <smiles>  (95) 
[H]c1c([H])c([H])c2c(c1[H])C([H])([H])C([H])([H])C([H])([H])C2([H])N([H])C(=O)C1([H])N(C(=O)C([H])(N([H])C(=O)C([H])(N([H])C([H])([H])[H])C([H])([H])[H])C(C([H])([H])[H])(C([H])([H])[H])C([H])([H])[H])C([H])([H])c2c([H])c(OC([H])([H])C(=O)N([H])c3c([H])c([H])c(N([H])C(=O)N4C([H])([H])C([H])([H])C([H])([H])C([H])(n5nc(-c6c([H])c([H])c(Oc7c([H])c([H])c(F)c([H])c7F)c([H])c6[H])c(C(=O)N([H])[H])c5N([H])[H])C4([H])[H])c([H])c3F)c([H])c([H])c2C1([H])[H]

$$$$
95:0:0
     RDKit          3D

 89 97  0  0  1  0  0  0  0  0999 V2000
  -30.6180  -18.5840   20.2340 C   0  0  0  0  0  3  0  0  0  0  0  0
  -30.3220  -20.0210   20.1180 C   0  0  0  0  0  3  0  0  0  0  0  0
  -28.3230  -18.1100   19.9970 C   0  0  0  0  0  3  0  0  0  0  0  0
  -29.6220  -17.5390   20.1790 C   0  0  0  0  0  0  0  0  0  0  0  0
  -28.9990  -20.5680   19.9200 C   0  0  0  0  0  0  0  0  0  0  0  0
  -28.0300  -19.5160   19.8660 C   0  0  0  0  0  0  0  0  0  0  0  0
  -26.7350  -19.8670   19.6790 F   0  0  0  0  0  0  0  0  0  0  0  0
  -30.5800  -14.9230   20.0660 C   0  0  0  0  0  0  0  0  0  0  0  0
  -30.4510  -12.5660   19.1460 C   0  0  0  0  0  2  0  0  0  0  0  0
  -29.4680  -12.5400   17.9490 C   0  0  0  0  0  2  0  0  0  0  0  0
  -28.0140  -12.3550   18.4280 C   0  0  0  0  0  2  0  0  0  0  0  0
  -27.6620  -13.2860   19.6170 C   0  0  0  0  0  3  0  0  0  0  0  0
  -28.7540  -13.2570   20.7090 C   0  0  0  0  0  2  0  0  0  0  0  0
  -30.0190  -13.6500   20.0680 N   0  0  0  0  0  0  0  0  0  0  0  0
  -31.7560  -15.0460   19.7010 O   0  0  0  0  0  0  0  0  0  0  0  0
  -29.7160  -16.0150   20.3160 N   0  0  0  0  0  0  0  0  0  0  0  0
  -28.8300  -15.6250   20.5980 H   0  0  0  0  0  0  0  0  0  0  0  0
  -25.3230  -13.9140   20.4530 C   0  0  0  0  0  0  0  0  0  0  0  0
  -24.2550  -13.1600   20.8530 C   0  0  0  0  0  0  0  0  0  0  0  0
  -24.6820  -11.7990   20.7750 C   0  0  0  0  0  0  0  0  0  0  0  0
  -26.3340  -13.0150   20.1560 N   0  0  0  0  0  0  0  0  0  0  0  0
  -25.9580  -11.7360   20.4130 N   0  0  0  0  0  0  0  0  0  0  0  0
  -23.9310  -10.5510   20.9660 C   0  0  0  0  0  0  0  0  0  0  0  0
  -24.3600   -9.5610   21.8760 C   0  0  0  0  0  3  0  0  0  0  0  0
  -23.6090   -8.3800   22.0560 C   0  0  0  0  0  3  0  0  0  0  0  0
  -22.4150   -8.1800   21.3260 C   0  0  0  0  0  0  0  0  0  0  0  0
  -22.0020   -9.1580   20.4040 C   0  0  0  0  0  3  0  0  0  0  0  0
  -22.7540  -10.3310   20.2210 C   0  0  0  0  0  3  0  0  0  0  0  0
  -21.6350   -7.0520   21.4170 O   0  0  0  0  0  0  0  0  0  0  0  0
  -21.5790   -6.3060   22.5670 C   0  0  0  0  0  0  0  0  0  0  0  0
  -21.1440   -6.8560   23.7920 C   0  0  0  0  0  3  0  0  0  0  0  0
  -21.0370   -6.0370   24.9340 C   0  0  0  0  0  3  0  0  0  0  0  0
  -21.3540   -4.6680   24.8510 C   0  0  0  0  0  0  0  0  0  0  0  0
  -21.7830   -4.1170   23.6300 C   0  0  0  0  0  3  0  0  0  0  0  0
  -21.8920   -4.9330   22.4910 C   0  0  0  0  0  0  0  0  0  0  0  0
  -22.2850   -4.3930   21.3120 F   0  0  0  0  0  0  0  0  0  0  0  0
  -21.2440   -3.8790   25.9450 F   0  0  0  0  0  0  0  0  0  0  0  0
  -22.8820  -13.6670   21.1860 C   0  0  0  0  0  0  0  0  0  0  0  0
  -22.1720  -12.9770   22.0720 N   0  0  0  0  0  0  0  0  0  0  0  0
  -22.4480  -14.7080   20.6950 O   0  0  0  0  0  0  0  0  0  0  0  0
  -22.5360  -12.1340   22.4910 H   0  0  0  0  0  0  0  0  0  0  0  0
  -21.2520  -13.2980   22.3390 H   0  0  0  0  0  0  0  0  0  0  0  0
  -25.5110  -15.2840   20.2900 N   0  0  0  0  0  0  0  0  0  0  0  0
  -24.7430  -15.9360   20.4050 H   0  0  0  0  0  0  0  0  0  0  0  0
  -26.3000  -15.6870   19.8030 H   0  0  0  0  0  0  0  0  0  0  0  0
  -28.5040  -21.9350   19.7320 O   0  0  0  0  0  0  0  0  0  0  0  0
  -29.0950  -23.3350   19.9090 C   0  0  0  0  0  3  0  0  0  0  0  0
  -28.1160  -24.6810   19.6400 C   0  0  0  0  0  3  0  0  0  0  0  0
  -28.3620  -26.1910   19.9150 O   0  0  0  0  0  0  0  0  0  0  0  0
  -24.5360  -31.6270   23.0850 C   0  0  0  0  0  0  0  0  0  0  0  0
  -27.2770  -27.1420   19.8750 C   0  0  0  0  0  0  0  0  0  0  0  0
  -23.3960  -30.2890   21.3560 C   0  0  0  0  0  3  0  0  0  0  0  0
  -24.9060  -28.8230   19.8830 C   0  0  0  0  0  0  0  0  0  0  0  0
  -25.9460  -30.6220   21.2520 C   0  0  0  0  0  2  0  0  0  0  0  0
  -26.0640  -29.2680   20.5340 C   0  0  0  0  0  0  0  0  0  0  0  0
  -27.2500  -28.4450   20.5130 C   0  0  0  0  0  3  0  0  0  0  0  0
  -26.0890  -26.7970   19.1910 C   0  0  0  0  0  3  0  0  0  0  0  0
  -24.9310  -27.6010   19.1980 C   0  0  0  0  0  3  0  0  0  0  0  0
  -23.6570  -29.6880   19.9500 C   0  0  0  0  0  2  0  0  0  0  0  0
  -24.6450  -30.8640   21.9540 N   0  0  0  0  0  0  0  0  0  0  0  0
  -23.4340  -31.8620   23.6050 O   0  0  0  0  0  0  0  0  0  0  0  0
  -22.7240  -29.2200   22.2530 C   0  0  0  0  0  0  0  0  0  0  0  0
  -21.3950  -29.0550   22.1190 N   0  0  0  0  0  0  0  0  0  0  0  0
  -23.3990  -28.5440   23.0340 O   0  0  0  0  0  0  0  0  0  0  0  0
  -20.9070  -29.6540   21.4680 H   0  0  0  0  0  0  0  0  0  0  0  0
  -18.0080  -27.8640   22.6020 C   0  0  0  0  0  0  0  0  0  0  0  0
  -20.5770  -28.0710   22.8320 C   0  0  0  0  0  3  0  0  0  0  0  0
  -20.6440  -26.6870   22.1430 C   0  0  0  0  0  2  0  0  0  0  0  0
  -19.5160  -26.4610   21.1320 C   0  0  0  0  0  2  0  0  0  0  0  0
  -18.1500  -26.5720   21.8170 C   0  0  0  0  0  2  0  0  0  0  0  0
  -19.1480  -28.5760   23.0650 C   0  0  0  0  0  0  0  0  0  0  0  0
  -18.9590  -29.7890   23.7640 C   0  0  0  0  0  3  0  0  0  0  0  0
  -17.6650  -30.2900   24.0000 C   0  0  0  0  0  3  0  0  0  0  0  0
  -16.5420  -29.5740   23.5510 C   0  0  0  0  0  3  0  0  0  0  0  0
  -16.7140  -28.3630   22.8590 C   0  0  0  0  0  3  0  0  0  0  0  0
  -25.7880  -32.2560   23.7670 C   0  0  0  0  0  3  0  0  0  0  0  0
  -26.2640  -31.4600   25.0450 C   0  0  1  0  0  0  0  0  0  0  0  0
  -25.1360  -31.1940   26.0690 C   0  0  0  0  0  1  0  0  0  0  0  0
  -26.8680  -30.0930   24.6470 C   0  0  0  0  0  1  0  0  0  0  0  0
  -27.3860  -32.2460   25.7630 C   0  0  0  0  0  1  0  0  0  0  0  0
  -25.4530  -33.6440   24.1230 N   0  0  0  0  0  0  0  0  0  0  0  0
  -25.7720  -34.7190   23.3900 C   0  0  0  0  0  0  0  0  0  0  0  0
  -26.4450  -34.6480   22.3590 O   0  0  0  0  0  0  0  0  0  0  0  0
  -24.8550  -33.7720   24.9260 H   0  0  0  0  0  0  0  0  0  0  0  0
  -24.0050  -36.4870   23.0910 C   0  0  0  0  0  1  0  0  0  0  0  0
  -25.2650  -36.0920   23.8780 C   0  0  0  0  0  3  0  0  0  0  0  0
  -27.3890  -37.0120   24.7010 C   0  0  0  0  0  1  0  0  0  0  0  0
  -26.2770  -37.1660   23.7680 N   0  0  0  0  0  0  0  0  0  0  0  0
  -25.8530  -38.0770   23.9260 H   0  0  0  0  0  0  0  0  0  0  0  0
  2  1  2  0
  3  4  2  0
  4  1  1  0
  4 16  1  0
  5  2  1  0
  6  5  2  0
  6  3  1  0
  7  6  1  0
  8 14  1  0
  8 16  1  0
  9 14  1  0
 10 11  1  0
 10  9  1  0
 12 11  1  0
 12 21  1  0
 12 13  1  0
 14 13  1  0
 15  8  2  0
 16 17  1  0
 18 19  2  0
 19 38  1  0
 20 19  1  0
 20 23  1  0
 21 22  1  0
 21 18  1  0
 22 20  2  0
 23 24  1  0
 24 25  2  0
 26 29  1  0
 26 25  1  0
 27 26  2  0
 28 27  1  0
 28 23  2  0
 29 30  1  0
 30 31  1  0
 31 32  2  0
 33 32  1  0
 33 37  1  0
 34 33  2  0
 35 30  2  0
 35 34  1  0
 36 35  1  0
 38 39  1  0
 39 42  1  0
 39 41  1  0
 40 38  2  0
 43 44  1  0
 43 18  1  0
 45 43  1  0
 46 47  1  0
 46  5  1  0
 48 47  2  0
 48 49  1  0
 50 61  2  0
 51 49  1  0
 51 56  1  0
 52 60  1  0
 52 62  1  0
 53 59  1  0
 53 55  1  0
 54 60  1  0
 55 54  1  0
 56 55  2  0
 57 58  1  0
 57 51  2  0
 58 53  2  0
 59 52  1  0
 60 50  1  0
 62 64  2  0
 63 62  1  0
 65 63  1  0
 66 75  2  0
 66 71  1  0
 67 63  1  0
 67 71  1  0
 68 67  1  0
 69 70  1  0
 69 68  1  0
 70 66  1  0
 71 72  2  0
 72 73  1  0
 74 73  2  0
 75 74  1  0
 76 50  1  0
 76 81  1  0
 76 77  1  0
 77 80  1  1
 77 78  1  0
 79 77  1  0
 81 84  1  0
 82 86  1  0
 82 81  1  0
 83 82  2  0
 86 85  1  0
 88 86  1  0
 88 89  1  0
 88 87  1  0
M  ISO  4   8 100  16 100  48 101  49 101
M  END
>  <TORSDO>  (96) 
F 19

>  <SCORE>  (96) 
-13.742

>  <name>  (96) 
95

>  <ligand_id>  (96) 
95

>  <original_smiles>  (96) 
[H]c1c([H])c([H])c2c(c1[H])C([H])([H])C([H])([H])C([H])([H])C2([H])N([H])C(=O)C1([H])N(C(=O)C([H])(N([H])C(=O)C([H])(N([H])C([H])([H])[H])C([H])([H])[H])C(C([H])([H])[H])(C([H])([H])[H])C([H])([H])[H])C([H])([H])c2c([H])c(OC([H])([H])C([H])([H])Oc3c([H])c([H])c(N([H])C(=O)N4C([H])([H])C([H])([H])C([H])([H])C([H])(n5nc(-c6c([H])c([H])c(Oc7c([H])c([H])c(F)c([H])c7F)c([H])c6[H])c(C(=O)N([H])[H])c5N([H])[H])C4([H])[H])c([H])c3F)c([H])c([H])c2C1([H])[H]

>  <smiles>  (96) 
[H]c1c([H])c([H])c2c(c1[H])C([H])([H])C([H])([H])C([H])([H])C2([H])N([H])C(=O)C1([H])N(C(=O)C([H])(N([H])C(=O)C([H])(N([H])C([H])([H])[H])C([H])([H])[H])C(C([H])([H])[H])(C([H])([H])[H])C([H])([H])[H])C([H])([H])c2c([H])c(OC([H])([H])C([H])([H])Oc3c([H])c([H])c(N([H])C(=O)N4C([H])([H])C([H])([H])C([H])([H])C([H])(n5nc(-c6c([H])c([H])c(Oc7c([H])c([H])c(F)c([H])c7F)c([H])c6[H])c(C(=O)N([H])[H])c5N([H])[H])C4([H])[H])c([H])c3F)c([H])c([H])c2C1([H])[H]

$$$$
96:0:0
     RDKit          3D

 99107  0  0  1  0  0  0  0  0999 V2000
  -28.3940  -21.5590   21.0610 C   0  0  0  0  0  3  0  0  0  0  0  0
  -28.4550  -20.3150   20.4210 C   0  0  0  0  0  3  0  0  0  0  0  0
  -27.1040  -21.1930   18.5890 C   0  0  0  0  0  3  0  0  0  0  0  0
  -27.7340  -22.6400   20.4420 C   0  0  0  0  0  0  0  0  0  0  0  0
  -27.0350  -22.4600   19.2220 C   0  0  0  0  0  0  0  0  0  0  0  0
  -27.8510  -20.1380   19.1590 C   0  0  0  0  0  0  0  0  0  0  0  0
  -29.0010  -24.6150   21.0040 C   0  0  0  0  0  0  0  0  0  0  0  0
  -27.8560  -23.9190   21.0250 N   0  0  0  0  0  0  0  0  0  0  0  0
  -30.0020  -24.2460   20.3790 O   0  0  0  0  0  0  0  0  0  0  0  0
  -27.0210  -24.3550   21.3930 H   0  0  0  0  0  0  0  0  0  0  0  0
  -29.0460  -25.9270   21.7840 C   0  0  0  0  0  2  0  0  0  0  0  0
  -29.0660  -27.0110   20.8660 O   0  0  0  0  0  0  0  0  0  0  0  0
  -24.7940  -32.0070   23.5240 C   0  0  0  0  0  0  0  0  0  0  0  0
  -27.8630  -27.6510   20.7780 C   0  0  0  0  0  0  0  0  0  0  0  0
  -23.7750  -30.4960   21.8470 C   0  0  0  0  0  3  0  0  0  0  0  0
  -25.3990  -28.9860   20.5890 C   0  0  0  0  0  0  0  0  0  0  0  0
  -26.2850  -30.9800   21.8180 C   0  0  0  0  0  2  0  0  0  0  0  0
  -26.4800  -29.6000   21.2320 C   0  0  0  0  0  0  0  0  0  0  0  0
  -27.7200  -28.9390   21.3210 C   0  0  0  0  0  3  0  0  0  0  0  0
  -26.7720  -27.0270   20.1450 C   0  0  0  0  0  3  0  0  0  0  0  0
  -25.5360  -27.6940   20.0460 C   0  0  0  0  0  3  0  0  0  0  0  0
  -24.1150  -29.7810   20.5120 C   0  0  0  0  0  2  0  0  0  0  0  0
  -24.9650  -31.1780   22.4560 N   0  0  0  0  0  0  0  0  0  0  0  0
  -23.6660  -32.2470   23.9760 O   0  0  0  0  0  0  0  0  0  0  0  0
  -23.1050  -29.4770   22.7930 C   0  0  0  0  0  0  0  0  0  0  0  0
  -21.8070  -29.2210   22.5650 N   0  0  0  0  0  0  0  0  0  0  0  0
  -23.7490  -28.9130   23.6800 O   0  0  0  0  0  0  0  0  0  0  0  0
  -21.3540  -29.7260   21.8160 H   0  0  0  0  0  0  0  0  0  0  0  0
  -18.4550  -27.9070   22.8620 C   0  0  0  0  0  0  0  0  0  0  0  0
  -20.9760  -28.2730   23.3040 C   0  0  0  0  0  3  0  0  0  0  0  0
  -21.1730  -26.8350   22.7760 C   0  0  0  0  0  2  0  0  0  0  0  0
  -20.1600  -26.4440   21.6960 C   0  0  0  0  0  2  0  0  0  0  0  0
  -18.7310  -26.5480   22.2380 C   0  0  0  0  0  2  0  0  0  0  0  0
  -19.5110  -28.7240   23.3460 C   0  0  0  0  0  0  0  0  0  0  0  0
  -19.2060  -29.9940   23.8840 C   0  0  0  0  0  3  0  0  0  0  0  0
  -17.8760  -30.4480   23.9440 C   0  0  0  0  0  3  0  0  0  0  0  0
  -16.8330  -29.6320   23.4750 C   0  0  0  0  0  3  0  0  0  0  0  0
  -17.1230  -28.3620   22.9420 C   0  0  0  0  0  3  0  0  0  0  0  0
  -26.0050  -32.7130   24.2140 C   0  0  0  0  0  3  0  0  0  0  0  0
  -26.4150  -32.0460   25.5830 C   0  0  1  0  0  0  0  0  0  0  0  0
  -25.2240  -31.8300   26.5480 C   0  0  0  0  0  1  0  0  0  0  0  0
  -27.0900  -30.6750   25.3440 C   0  0  0  0  0  1  0  0  0  0  0  0
  -27.4610  -32.9310   26.3030 C   0  0  0  0  0  1  0  0  0  0  0  0
  -25.6410  -34.1220   24.4080 N   0  0  0  0  0  0  0  0  0  0  0  0
  -26.0040  -35.1180   23.5910 C   0  0  0  0  0  0  0  0  0  0  0  0
  -26.7500  -34.9540   22.6210 O   0  0  0  0  0  0  0  0  0  0  0  0
  -24.9840  -34.3190   25.1480 H   0  0  0  0  0  0  0  0  0  0  0  0
  -24.2490  -36.8130   22.9740 C   0  0  0  0  0  1  0  0  0  0  0  0
  -25.4450  -36.5230   23.8950 C   0  0  0  0  0  3  0  0  0  0  0  0
  -27.4900  -37.5470   24.7860 C   0  0  0  0  0  1  0  0  0  0  0  0
  -26.4530  -37.5970   23.7590 N   0  0  0  0  0  0  0  0  0  0  0  0
  -26.0130  -38.5130   23.7970 H   0  0  0  0  0  0  0  0  0  0  0  0
  -26.3210  -23.5400   18.6610 N   0  0  0  0  0  0  0  0  0  0  0  0
  -28.0940  -24.4320   17.1210 C   0  0  0  0  0  1  0  0  0  0  0  0
  -26.6420  -23.9550   17.2900 C   0  0  0  0  0  2  0  0  0  0  0  0
  -24.0230  -22.6230   18.2920 C   0  0  0  0  0  1  0  0  0  0  0  0
  -24.9180  -23.5900   19.0770 C   0  0  0  0  0  2  0  0  0  0  0  0
  -27.9760  -18.9520   18.4830 O   0  0  0  0  0  0  0  0  0  0  0  0
  -29.3210  -18.5710   18.1770 C   0  0  0  0  0  2  0  0  0  0  0  0
  -29.6590  -17.1960   18.7670 C   0  0  0  0  0  2  0  0  0  0  0  0
  -29.8800  -17.1930   20.3030 C   0  0  0  0  0  2  0  0  0  0  0  0
  -30.7460  -14.8720   20.3800 C   0  0  0  0  0  0  0  0  0  0  0  0
  -30.5110  -12.7180   19.2390 C   0  0  0  0  0  2  0  0  0  0  0  0
  -29.5470  -12.9050   18.0480 C   0  0  0  0  0  2  0  0  0  0  0  0
  -28.0790  -12.7350   18.4890 C   0  0  0  0  0  2  0  0  0  0  0  0
  -27.7290  -13.5740   19.7460 C   0  0  0  0  0  3  0  0  0  0  0  0
  -28.7930  -13.3590   20.8490 C   0  0  0  0  0  2  0  0  0  0  0  0
  -30.1210  -13.6750   20.2820 N   0  0  0  0  0  0  0  0  0  0  0  0
  -31.8410  -15.1310   19.8660 O   0  0  0  0  0  0  0  0  0  0  0  0
  -29.9520  -15.8400   20.8450 N   0  0  0  0  0  0  0  0  0  0  0  0
  -29.1310  -15.5140   21.3340 H   0  0  0  0  0  0  0  0  0  0  0  0
  -25.3230  -14.1450   20.4710 C   0  0  0  0  0  0  0  0  0  0  0  0
  -24.2650  -13.3530   20.8280 C   0  0  0  0  0  0  0  0  0  0  0  0
  -24.7460  -12.0080   20.7800 C   0  0  0  0  0  0  0  0  0  0  0  0
  -26.3800  -13.2810   20.2260 N   0  0  0  0  0  0  0  0  0  0  0  0
  -26.0340  -11.9920   20.4690 N   0  0  0  0  0  0  0  0  0  0  0  0
  -24.0400  -10.7340   20.9610 C   0  0  0  0  0  0  0  0  0  0  0  0
  -24.4740   -9.7800   21.9100 C   0  0  0  0  0  3  0  0  0  0  0  0
  -23.7740   -8.5660   22.0750 C   0  0  0  0  0  3  0  0  0  0  0  0
  -22.6300   -8.2920   21.2860 C   0  0  0  0  0  0  0  0  0  0  0  0
  -22.2110   -9.2340   20.3330 C   0  0  0  0  0  3  0  0  0  0  0  0
  -22.9130  -10.4400   20.1680 C   0  0  0  0  0  3  0  0  0  0  0  0
  -21.9020   -7.1290   21.3580 O   0  0  0  0  0  0  0  0  0  0  0  0
  -21.8080   -6.4110   22.5230 C   0  0  0  0  0  0  0  0  0  0  0  0
  -21.2800   -6.9750   23.7050 C   0  0  0  0  0  3  0  0  0  0  0  0
  -21.1470   -6.1840   24.8630 C   0  0  0  0  0  3  0  0  0  0  0  0
  -21.5210   -4.8250   24.8360 C   0  0  0  0  0  0  0  0  0  0  0  0
  -22.0380   -4.2590   23.6580 C   0  0  0  0  0  3  0  0  0  0  0  0
  -22.1800   -5.0510   22.5050 C   0  0  0  0  0  0  0  0  0  0  0  0
  -22.6610   -4.4990   21.3650 F   0  0  0  0  0  0  0  0  0  0  0  0
  -21.3820   -4.0590   25.9450 F   0  0  0  0  0  0  0  0  0  0  0  0
  -22.8640  -13.8020   21.1180 C   0  0  0  0  0  0  0  0  0  0  0  0
  -22.1590  -13.0870   21.9880 N   0  0  0  0  0  0  0  0  0  0  0  0
  -22.4020  -14.8240   20.6110 O   0  0  0  0  0  0  0  0  0  0  0  0
  -22.5400  -12.2580   22.4200 H   0  0  0  0  0  0  0  0  0  0  0  0
  -21.2220  -13.3800   22.2240 H   0  0  0  0  0  0  0  0  0  0  0  0
  -25.4730  -15.5200   20.3180 N   0  0  0  0  0  0  0  0  0  0  0  0
  -24.7080  -16.1650   20.4580 H   0  0  0  0  0  0  0  0  0  0  0  0
  -26.3280  -15.9770   20.0240 H   0  0  0  0  0  0  0  0  0  0  0  0
  2  1  2  0
  3  6  2  0
  3  5  1  0
  4  8  1  0
  4  1  1  0
  5  4  2  0
  6  2  1  0
  7  8  1  0
  7 11  1  0
  8 10  1  0
  9  7  2  0
 12 11  1  0
 13 24  2  0
 14 12  1  0
 14 19  1  0
 15 23  1  0
 15 25  1  0
 16 18  1  0
 17 23  1  0
 18 19  2  0
 18 17  1  0
 20 14  2  0
 21 20  1  0
 21 16  2  0
 22 16  1  0
 22 15  1  0
 23 13  1  0
 25 27  2  0
 26 25  1  0
 28 26  1  0
 29 38  2  0
 29 34  1  0
 30 26  1  0
 30 34  1  0
 31 30  1  0
 32 33  1  0
 32 31  1  0
 33 29  1  0
 34 35  2  0
 35 36  1  0
 37 36  2  0
 38 37  1  0
 39 13  1  0
 39 44  1  0
 39 40  1  0
 40 43  1  1
 40 41  1  0
 42 40  1  0
 44 47  1  0
 45 49  1  0
 45 44  1  0
 46 45  2  0
 49 48  1  0
 51 52  1  0
 51 49  1  0
 51 50  1  0
 53 57  1  0
 53  5  1  0
 54 55  1  0
 55 53  1  0
 56 57  1  0
 58  6  1  0
 59 58  1  0
 59 60  1  0
 60 61  1  0
 61 70  1  0
 62 70  1  0
 63 68  1  0
 64 65  1  0
 64 63  1  0
 66 65  1  0
 66 75  1  0
 66 67  1  0
 68 62  1  0
 68 67  1  0
 69 62  2  0
 70 71  1  0
 72 73  2  0
 73 92  1  0
 74 73  1  0
 74 77  1  0
 75 76  1  0
 75 72  1  0
 76 74  2  0
 77 78  1  0
 78 79  2  0
 80 83  1  0
 80 79  1  0
 81 80  2  0
 82 81  1  0
 82 77  2  0
 83 84  1  0
 84 85  1  0
 85 86  2  0
 87 86  1  0
 87 91  1  0
 88 87  2  0
 89 84  2  0
 89 88  1  0
 90 89  1  0
 92 93  1  0
 93 96  1  0
 93 95  1  0
 94 92  2  0
 97 98  1  0
 97 72  1  0
 99 97  1  0
M  ISO  4  11 101  12 101  62 100  70 100
M  END
>  <TORSDO>  (97) 
F 25

>  <SCORE>  (97) 
-12.093

>  <name>  (97) 
96

>  <ligand_id>  (97) 
96

>  <original_smiles>  (97) 
[H]c1c([H])c([H])c2c(c1[H])C([H])([H])C([H])([H])C([H])([H])C2([H])N([H])C(=O)C1([H])N(C(=O)C([H])(N([H])C(=O)C([H])(N([H])C([H])([H])[H])C([H])([H])[H])C(C([H])([H])[H])(C([H])([H])[H])C([H])([H])[H])C([H])([H])c2c([H])c(OC([H])([H])C(=O)N([H])c3c([H])c([H])c(OC([H])([H])C([H])([H])C([H])([H])N([H])C(=O)N4C([H])([H])C([H])([H])C([H])([H])C([H])(n5nc(-c6c([H])c([H])c(Oc7c([H])c([H])c(F)c([H])c7F)c([H])c6[H])c(C(=O)N([H])[H])c5N([H])[H])C4([H])[H])c([H])c3N(C([H])([H])C([H])([H])[H])C([H])([H])C([H])([H])[H])c([H])c([H])c2C1([H])[H]

>  <smiles>  (97) 
[H]c1c([H])c([H])c2c(c1[H])C([H])([H])C([H])([H])C([H])([H])C2([H])N([H])C(=O)C1([H])N(C(=O)C([H])(N([H])C(=O)C([H])(N([H])C([H])([H])[H])C([H])([H])[H])C(C([H])([H])[H])(C([H])([H])[H])C([H])([H])[H])C([H])([H])c2c([H])c(OC([H])([H])C(=O)N([H])c3c([H])c([H])c(OC([H])([H])C([H])([H])C([H])([H])N([H])C(=O)N4C([H])([H])C([H])([H])C([H])([H])C([H])(n5nc(-c6c([H])c([H])c(Oc7c([H])c([H])c(F)c([H])c7F)c([H])c6[H])c(C(=O)N([H])[H])c5N([H])[H])C4([H])[H])c([H])c3N(C([H])([H])C([H])([H])[H])C([H])([H])C([H])([H])[H])c([H])c([H])c2C1([H])[H]

$$$$
97:0:0
     RDKit          3D

 96 94  0  0  1  0  0  0  0  0999 V2000
  -18.9160  -28.5370   21.3510 C   0  0  0  0  0  3  0  0  0  0  0  0
  -19.0520  -27.6370   22.6060 C   0  0  0  0  0  1  0  0  0  0  0  0
  -19.7090  -28.2590   20.0720 C   0  0  0  0  0  3  0  0  0  0  0  0
  -21.2890  -25.5190   21.0410 C   0  0  0  0  0  1  0  0  0  0  0  0
  -20.8990  -25.4310   22.4270 C   0  0  0  0  0  1  0  0  0  0  0  0
  -20.7380  -27.1190   19.7810 C   0  0  0  0  0  2  0  0  0  0  0  0
  -23.8930  -23.3060   20.2970 C   0  0  0  0  0  2  0  0  0  0  0  0
  -23.0210  -23.5850   22.7820 C   0  0  0  0  0  1  0  0  0  0  0  0
  -22.7600  -24.3330   21.5640 N   0  0  0  0  0  1  0  0  0  0  0  0
  -23.3210  -22.2120   20.2800 O   0  0  0  0  0  0  0  0  0  0  0  0
  -25.7870  -22.7130   18.7480 C   0  0  0  0  0 15  0  0  0  0  0  0
  -28.1000  -21.7220   17.7320 C   0  0  0  0  0 15  0  0  0  0  0  0
  -31.2190  -20.1010   15.1540 C   0  0  0  0  0  2  0  0  0  0  0  0
  -33.2190  -18.3450   13.5440 C   0  0  0  0  0  2  0  0  0  0  0  0
  -33.3420  -16.7420   13.2360 C   0  0  0  0  0  2  0  0  0  0  0  0
  -33.5320  -15.9170   14.5050 C   0  0  0  0  0  2  0  0  0  0  0  0
  -32.8450  -16.7630   15.5640 C   0  0  0  0  0  3  0  0  0  0  0  0
  -33.2870  -18.2310   15.7310 C   0  0  0  0  0  2  0  0  0  0  0  0
  -32.3550  -18.9540   14.8540 N   0  0  0  0  0  0  0  0  0  0  0  0
  -31.6730  -20.5860   14.0170 O   0  0  0  0  0  1  0  0  0  0  0  0
  -29.7570  -20.6430   16.3820 N   0  0  0  0  0  1  0  0  0  0  0  0
  -29.4820  -21.2430   15.6100 H   0  0  0  0  0  0  0  0  0  0  0  0
  -31.9460  -16.8070   17.8190 C   0  0  0  0  0  0  0  0  0  0  0  0
  -32.1690  -16.0370   18.9050 C   0  0  0  0  0  0  0  0  0  0  0  0
  -33.1240  -15.0490   18.5070 C   0  0  0  0  0  0  0  0  0  0  0  0
  -32.7410  -16.2480   16.8520 N   0  0  0  0  0  0  0  0  0  0  0  0
  -33.5270  -15.2400   17.2640 N   0  0  0  0  0  0  0  0  0  0  0  0
  -33.6190  -13.8810   19.2140 C   0  0  0  0  0  0  0  0  0  0  0  0
  -34.9590  -13.4580   19.0970 C   0  0  0  0  0  3  0  0  0  0  0  0
  -35.4060  -12.3310   19.8160 C   0  0  0  0  0  3  0  0  0  0  0  0
  -34.5100  -11.6270   20.6560 C   0  0  0  0  0  0  0  0  0  0  0  0
  -33.1690  -12.0410   20.7390 C   0  0  0  0  0  3  0  0  0  0  0  0
  -32.7240  -13.1570   20.0200 C   0  0  0  0  0  3  0  0  0  0  0  0
  -34.8480  -10.5140   21.3820 O   0  0  0  0  0  0  0  0  0  0  0  0
  -36.1420  -10.0710   21.4460 C   0  0  0  0  0  0  0  0  0  0  0  0
  -37.1890  -10.8870   21.9250 C   0  0  0  0  0  3  0  0  0  0  0  0
  -38.4920  -10.3630   22.0400 C   0  0  0  0  0  3  0  0  0  0  0  0
  -38.7460   -9.0250   21.6850 C   0  0  0  0  0  0  0  0  0  0  0  0
  -37.7020   -8.2100   21.2100 C   0  0  0  0  0  3  0  0  0  0  0  0
  -36.4030   -8.7330   21.0930 C   0  0  0  0  0  0  0  0  0  0  0  0
  -35.3940   -7.9400   20.6550 F   0  0  0  0  0  0  0  0  0  0  0  0
  -39.9940   -8.5160   21.8040 F   0  0  0  0  0  0  0  0  0  0  0  0
  -31.4400  -16.1590   20.1980 C   0  0  0  0  0  0  0  0  0  0  0  0
  -32.1070  -15.8430   21.2990 N   0  0  0  0  0  0  0  0  0  0  0  0
  -30.2880  -16.5920   20.2350 O   0  0  0  0  0  0  0  0  0  0  0  0
  -33.0580  -15.5090   21.2530 H   0  0  0  0  0  0  0  0  0  0  0  0
  -31.6620  -15.9370   22.2000 H   0  0  0  0  0  0  0  0  0  0  0  0
  -31.1330  -17.9110   17.5530 N   0  0  0  0  0  0  0  0  0  0  0  0
  -30.4790  -18.2920   18.2290 H   0  0  0  0  0  0  0  0  0  0  0  0
  -30.9660  -18.2410   16.6120 H   0  0  0  0  0  0  0  0  0  0  0  0
  -21.2550  -27.5470   18.4000 O   0  0  0  0  0  0  0  0  0  0  0  0
  -22.0710  -27.0170   17.1040 C   0  0  0  0  0  3  0  0  0  0  0  0
  -23.6110  -26.2920   16.9230 C   0  0  0  0  0  3  0  0  0  0  0  0
  -24.5150  -25.9130   15.6440 C   0  0  0  0  0  3  0  0  0  0  0  0
  -26.0860  -26.4860   15.4340 C   0  0  0  0  0  3  0  0  0  0  0  0
  -26.7480  -27.8490   15.6930 O   0  0  0  0  0  0  0  0  0  0  0  0
  -25.6780  -29.2560   22.6510 C   0  0  0  0  0  0  0  0  0  0  0  0
  -26.1020  -28.5370   16.6680 C   0  0  0  0  0  0  0  0  0  0  0  0
  -23.9310  -28.4880   21.1750 C   0  0  0  0  0  3  0  0  0  0  0  0
  -24.2460  -28.7720   18.6910 C   0  0  0  0  0  0  0  0  0  0  0  0
  -25.8150  -29.8840   20.2400 C   0  0  0  0  0  2  0  0  0  0  0  0
  -25.5610  -29.1880   18.9260 C   0  0  0  0  0  0  0  0  0  0  0  0
  -26.5580  -28.9870   17.9320 C   0  0  0  0  0  3  0  0  0  0  0  0
  -24.7650  -28.6630   16.3790 C   0  0  0  0  0  3  0  0  0  0  0  0
  -23.8320  -28.5790   17.3910 C   0  0  0  0  0  3  0  0  0  0  0  0
  -23.2570  -28.7710   19.8150 C   0  0  0  0  0  2  0  0  0  0  0  0
  -25.1550  -29.2620   21.4010 N   0  0  0  0  0  0  0  0  0  0  0  0
  -25.1200  -28.6760   23.5960 O   0  0  0  0  0  0  0  0  0  0  0  0
  -24.3580  -27.0500   21.2000 C   0  0  0  0  0  0  0  0  0  0  0  0
  -24.3490  -26.5220   20.0480 N   0  0  0  0  0  0  0  0  0  0  0  0
  -24.7560  -26.4340   22.1910 O   0  0  0  0  0  0  0  0  0  0  0  0
  -23.8930  -26.9270   19.2390 H   0  0  0  0  0  0  0  0  0  0  0  0
  -25.9370  -25.0240   16.3040 C   0  0  1  0  0  0  0  0  0  0  0  0
  -25.0920  -25.3620   19.9290 C   0  0  0  0  0  2  0  0  0  0  0  0
  -27.0420  -25.4720   20.2020 C   0  0  0  0  0 15  0  0  0  0  0  0
  -28.4970  -25.4410   18.4650 C   0  0  0  0  0 15  0  0  0  0  0  0
  -27.7370  -25.2980   16.5030 C   0  0  0  0  0  1  0  0  0  0  0  0
  -24.4270  -25.2500   18.4350 C   0  0  0  0  0  2  0  0  0  0  0  0
  -23.1220  -24.2310   18.3270 C   0  0  0  0  0  3  0  0  0  0  0  0
  -22.8890  -23.2610   17.0410 C   0  0  0  0  0  3  0  0  0  0  0  0
  -23.8470  -23.0650   15.7230 C   0  0  0  0  0  3  0  0  0  0  0  0
  -25.2600  -23.8190   15.3450 C   0  0  0  0  0  3  0  0  0  0  0  0
  -27.0020  -29.9960   22.9290 C   0  0  0  0  0  3  0  0  0  0  0  0
  -26.6560  -31.1050   23.8190 N   0  0  0  0  0  0  0  0  0  0  0  0
  -26.6530  -32.3880   23.4440 C   0  0  0  0  0  0  0  0  0  0  0  0
  -27.0410  -32.7650   22.3350 O   0  0  0  0  0  0  0  0  0  0  0  0
  -26.2800  -30.8630   24.7230 H   0  0  0  0  0  0  0  0  0  0  0  0
  -24.8150  -34.0080   24.0060 C   0  0  0  0  0  1  0  0  0  0  0  0
  -26.1530  -33.4150   24.4720 C   0  0  0  0  0  3  0  0  0  0  0  0
  -28.3280  -34.0480   25.4140 C   0  0  0  0  0  1  0  0  0  0  0  0
  -27.1200  -34.5010   24.7270 N   0  0  0  0  0  0  0  0  0  0  0  0
  -26.6950  -35.2360   25.2850 H   0  0  0  0  0  0  0  0  0  0  0  0
  -28.1160  -29.0770   23.5590 C   0  0  1  0  0  0  0  0  0  0  0  0
  -27.6460  -28.2760   24.7940 C   0  0  0  0  0  1  0  0  0  0  0  0
  -28.6680  -28.0610   22.5290 C   0  0  0  0  0  1  0  0  0  0  0  0
  -29.3070  -29.9650   23.9800 C   0  0  0  0  0  1  0  0  0  0  0  0
  1  2  1  0
  3  1  2  0
  4  5  1  0
  6  3  1  0
  9  8  1  0
 10  7  2  0
 14 19  1  0
 15 14  1  0
 15 16  1  0
 17 16  1  0
 17 18  1  0
 17 26  1  0
 19 13  1  0
 19 18  1  0
 20 13  1  0
 22 21  1  0
 23 24  2  0
 24 43  1  0
 25 24  1  0
 25 28  1  0
 26 27  1  0
 26 23  1  0
 27 25  2  0
 28 33  1  0
 29 28  2  0
 29 30  1  0
 30 31  2  0
 31 32  1  0
 31 34  1  0
 33 32  2  0
 34 35  1  0
 35 36  1  0
 36 37  2  0
 38 42  1  0
 38 37  1  0
 39 38  2  0
 40 39  1  0
 40 35  2  0
 41 40  1  0
 43 45  2  0
 43 44  1  0
 44 47  1  0
 46 44  1  0
 48 23  1  0
 48 49  1  0
 50 48  1  0
 51  6  1  0
 52 51  1  0
 53 52  2  0
 54 73  1  0
 54 53  1  0
 55 54  1  0
 55 56  1  0
 55 73  1  0
 56 58  1  0
 57 68  2  0
 58 63  1  0
 59 66  1  0
 59 69  1  0
 59 67  1  0
 60 62  1  0
 60 66  1  0
 61 67  1  0
 62 61  1  0
 63 62  2  0
 64 58  2  0
 64 65  1  0
 65 60  2  0
 67 57  1  0
 69 71  2  0
 70 69  1  0
 72 70  1  0
 73 77  1  1
 74 70  1  0
 78 74  1  0
 79 78  1  0
 80 79  2  0
 81 80  1  0
 82 81  2  0
 82 73  1  0
 83 57  1  0
 83 93  1  0
 83 84  1  0
 84 87  1  0
 85 84  1  0
 85 89  1  0
 86 85  2  0
 89 88  1  0
 89 91  1  0
 91 92  1  0
 91 90  1  0
 93 96  1  1
 93 94  1  0
 95 93  1  0
M  ISO  4  13 100  21 100  55 101  56 101
M  END
>  <TORSDO>  (98) 
F 24

>  <SCORE>  (98) 
-0.838

>  <name>  (98) 
97

>  <ligand_id>  (98) 
97

>  <original_smiles>  (98) 
[H]c1c([H])c(OC([H])([H])C([H])([H])C([H])([H])C([H])([H])Oc2c([H])c([H])c3c(c2[H])C([H])([H])N(C(=O)C([H])(N([H])C(=O)C([H])(N([H])C([H])([H])[H])C([H])([H])[H])C(C([H])([H])[H])(C([H])([H])[H])C([H])([H])[H])C([H])(C(=O)N([H])C2([H])c4c([H])c([H])c([H])c([H])c4C([H])([H])C([H])([H])C2([H])[H])C3([H])[H])c([H])c(N(C(=O)C([H])([H])C([H])([H])N([H])C(=O)N2C([H])([H])C([H])([H])C([H])([H])C([H])(n3nc(-c4c([H])c([H])c(Oc5c([H])c([H])c(F)c([H])c5F)c([H])c4[H])c(C(=O)N([H])[H])c3N([H])[H])C2([H])[H])C([H])([H])[H])c1[H]

>  <smiles>  (98) 
[H]c1c([H])c(OC([H])([H])C([H])([H])C([H])([H])C([H])([H])Oc2c([H])c([H])c3c(c2[H])C([H])([H])N(C(=O)C([H])(N([H])C(=O)C([H])(N([H])C([H])([H])[H])C([H])([H])[H])C(C([H])([H])[H])(C([H])([H])[H])C([H])([H])[H])C([H])(C(=O)N([H])C2([H])c4c([H])c([H])c([H])c([H])c4C([H])([H])C([H])([H])C2([H])[H])C3([H])[H])c([H])c(N(C(=O)C([H])([H])C([H])([H])N([H])C(=O)N2C([H])([H])C([H])([H])C([H])([H])C([H])(n3nc(-c4c([H])c([H])c(Oc5c([H])c([H])c(F)c([H])c5F)c([H])c4[H])c(C(=O)N([H])[H])c3N([H])[H])C2([H])[H])C([H])([H])[H])c1[H]

$$$$
