0:0:0
     RDKit          3D

 92100  0  0  1  0  0  0  0  0999 V2000
  -28.9680  -19.7160   22.1760 C   0  0  0  0  0  3  0  0  0  0  0  0
  -28.7870  -18.5000   22.8670 C   0  0  0  0  0  3  0  0  0  0  0  0
  -29.7580  -18.4480   20.2570 C   0  0  0  0  0  3  0  0  0  0  0  0
  -29.4300  -19.7420   20.8470 C   0  0  0  0  0  0  0  0  0  0  0  0
  -29.6050  -17.1800   20.9590 C   0  0  0  0  0  0  0  0  0  0  0  0
  -29.0680  -17.2430   22.2680 C   0  0  0  0  0  0  0  0  0  0  0  0
  -30.5520  -14.7620   20.4590 C   0  0  0  0  0  0  0  0  0  0  0  0
  -30.4500  -12.4670   19.4540 C   0  0  0  0  0  2  0  0  0  0  0  0
  -29.5130  -12.4930   18.2260 C   0  0  0  0  0  2  0  0  0  0  0  0
  -28.0390  -12.3040   18.6460 C   0  0  0  0  0  2  0  0  0  0  0  0
  -27.6370  -13.2120   19.8380 C   0  0  0  0  0  3  0  0  0  0  0  0
  -28.6860  -13.1320   20.9670 C   0  0  0  0  0  2  0  0  0  0  0  0
  -29.9790  -13.5140   20.3850 N   0  0  0  0  0  0  0  0  0  0  0  0
  -31.7620  -14.9090   20.2490 O   0  0  0  0  0  0  0  0  0  0  0  0
  -29.6690  -15.8270   20.3600 N   0  0  0  0  0  0  0  0  0  0  0  0
  -28.7420  -15.4530   20.2380 H   0  0  0  0  0  0  0  0  0  0  0  0
  -25.2500  -13.8130   20.5670 C   0  0  0  0  0  0  0  0  0  0  0  0
  -24.1790  -13.0420   20.9190 C   0  0  0  0  0  0  0  0  0  0  0  0
  -24.6350  -11.6880   20.8740 C   0  0  0  0  0  0  0  0  0  0  0  0
  -26.2900  -12.9300   20.3230 N   0  0  0  0  0  0  0  0  0  0  0  0
  -25.9270  -11.6470   20.5740 N   0  0  0  0  0  0  0  0  0  0  0  0
  -23.9020  -10.4270   21.0410 C   0  0  0  0  0  0  0  0  0  0  0  0
  -24.3580   -9.4190   21.9180 C   0  0  0  0  0  3  0  0  0  0  0  0
  -23.6270   -8.2220   22.0770 C   0  0  0  0  0  3  0  0  0  0  0  0
  -22.4250   -8.0250   21.3550 C   0  0  0  0  0  0  0  0  0  0  0  0
  -21.9880   -9.0210   20.4660 C   0  0  0  0  0  3  0  0  0  0  0  0
  -22.7190  -10.2100   20.3060 C   0  0  0  0  0  3  0  0  0  0  0  0
  -21.6620   -6.8840   21.4240 O   0  0  0  0  0  0  0  0  0  0  0  0
  -21.6830   -6.0700   22.5280 C   0  0  0  0  0  0  0  0  0  0  0  0
  -21.3990   -6.5620   23.8200 C   0  0  0  0  0  3  0  0  0  0  0  0
  -21.3680   -5.6790   24.9180 C   0  0  0  0  0  3  0  0  0  0  0  0
  -21.6050   -4.3050   24.7240 C   0  0  0  0  0  0  0  0  0  0  0  0
  -21.8810   -3.8130   23.4370 C   0  0  0  0  0  3  0  0  0  0  0  0
  -21.9180   -4.6930   22.3410 C   0  0  0  0  0  0  0  0  0  0  0  0
  -22.1640   -4.2110   21.0980 F   0  0  0  0  0  0  0  0  0  0  0  0
  -21.5670   -3.4540   25.7760 F   0  0  0  0  0  0  0  0  0  0  0  0
  -22.7810  -13.5210   21.1850 C   0  0  0  0  0  0  0  0  0  0  0  0
  -22.0460  -12.8220   22.0420 N   0  0  0  0  0  0  0  0  0  0  0  0
  -22.3490  -14.5520   20.6680 O   0  0  0  0  0  0  0  0  0  0  0  0
  -22.4090  -11.9880   22.4800 H   0  0  0  0  0  0  0  0  0  0  0  0
  -21.1070  -13.1230   22.2650 H   0  0  0  0  0  0  0  0  0  0  0  0
  -25.4210  -15.1870   20.4120 N   0  0  0  0  0  0  0  0  0  0  0  0
  -24.6540  -15.8380   20.5330 H   0  0  0  0  0  0  0  0  0  0  0  0
  -26.2670  -15.6340   20.0870 H   0  0  0  0  0  0  0  0  0  0  0  0
  -27.7740  -16.0420   23.8850 C   0  0  0  0  0  1  0  0  0  0  0  0
  -28.7990  -16.0480   22.8980 O   0  0  0  0  0  0  0  0  0  0  0  0
  -29.6460  -21.1680   20.1690 C   0  0  0  0  0  2  0  0  0  0  0  0
  -28.7380  -22.3040   20.5150 O   0  0  0  0  0  0  0  0  0  0  0  0
  -30.0000  -24.0650   21.5880 C   0  0  0  0  0  1  0  0  0  0  0  0
  -29.1750  -23.7270   20.3410 C   0  0  0  0  0  3  0  0  0  0  0  0
  -28.0350  -24.8630   20.1280 C   0  0  0  0  0  2  0  0  0  0  0  0
  -28.3110  -26.3470   20.1710 O   0  0  0  0  0  0  0  0  0  0  0  0
  -24.6360  -31.8520   23.1990 C   0  0  0  0  0  0  0  0  0  0  0  0
  -27.2200  -27.2500   20.1230 C   0  0  0  0  0  0  0  0  0  0  0  0
  -23.4320  -30.4770   21.5430 C   0  0  0  0  0  3  0  0  0  0  0  0
  -24.8800  -28.9250   20.1110 C   0  0  0  0  0  0  0  0  0  0  0  0
  -25.9820  -30.7660   21.3790 C   0  0  0  0  0  2  0  0  0  0  0  0
  -26.0550  -29.3890   20.7160 C   0  0  0  0  0  0  0  0  0  0  0  0
  -27.2300  -28.5640   20.7080 C   0  0  0  0  0  3  0  0  0  0  0  0
  -26.0160  -26.8610   19.4900 C   0  0  0  0  0  3  0  0  0  0  0  0
  -24.8660  -27.6710   19.4870 C   0  0  0  0  0  3  0  0  0  0  0  0
  -23.6520  -29.8150   20.1580 C   0  0  0  0  0  2  0  0  0  0  0  0
  -24.7030  -31.0490   22.0970 N   0  0  0  0  0  0  0  0  0  0  0  0
  -23.5490  -32.1350   23.7260 O   0  0  0  0  0  0  0  0  0  0  0  0
  -22.7520  -29.4580   22.4900 C   0  0  0  0  0  0  0  0  0  0  0  0
  -21.4210  -29.3050   22.3640 N   0  0  0  0  0  0  0  0  0  0  0  0
  -23.4210  -28.8080   23.2980 O   0  0  0  0  0  0  0  0  0  0  0  0
  -20.9410  -29.8820   21.6890 H   0  0  0  0  0  0  0  0  0  0  0  0
  -18.0270  -28.1380   22.8410 C   0  0  0  0  0  0  0  0  0  0  0  0
  -20.5870  -28.3690   23.1210 C   0  0  0  0  0  3  0  0  0  0  0  0
  -20.6770  -26.9410   22.5350 C   0  0  0  0  0  2  0  0  0  0  0  0
  -19.5760  -26.6370   21.5140 C   0  0  0  0  0  2  0  0  0  0  0  0
  -18.1940  -26.7910   22.1560 C   0  0  0  0  0  2  0  0  0  0  0  0
  -19.1530  -28.8860   23.2810 C   0  0  0  0  0  0  0  0  0  0  0  0
  -18.9460  -30.1450   23.8840 C   0  0  0  0  0  3  0  0  0  0  0  0
  -17.6470  -30.6580   24.0530 C   0  0  0  0  0  3  0  0  0  0  0  0
  -16.5350  -29.9080   23.6330 C   0  0  0  0  0  3  0  0  0  0  0  0
  -16.7260  -28.6500   23.0310 C   0  0  0  0  0  3  0  0  0  0  0  0
  -25.9160  -32.4740   23.8350 C   0  0  0  0  0  3  0  0  0  0  0  0
  -25.5930  -33.8550   24.2260 N   0  0  0  0  0  0  0  0  0  0  0  0
  -25.9050  -34.9440   23.5110 C   0  0  0  0  0  0  0  0  0  0  0  0
  -26.5620  -34.8910   22.4680 O   0  0  0  0  0  0  0  0  0  0  0  0
  -25.0040  -33.9680   25.0380 H   0  0  0  0  0  0  0  0  0  0  0  0
  -24.1490  -36.7300   23.2630 C   0  0  0  0  0  1  0  0  0  0  0  0
  -25.4110  -36.3060   24.0330 C   0  0  0  0  0  3  0  0  0  0  0  0
  -27.5580  -37.1800   24.8460 C   0  0  0  0  0  1  0  0  0  0  0  0
  -26.4280  -37.3770   23.9420 N   0  0  0  0  0  0  0  0  0  0  0  0
  -26.0150  -38.2840   24.1420 H   0  0  0  0  0  0  0  0  0  0  0  0
  -26.4510  -31.6590   25.0770 C   0  0  1  0  0  0  0  0  0  0  0  0
  -25.3720  -31.3750   26.1480 C   0  0  0  0  0  1  0  0  0  0  0  0
  -27.0360  -30.2990   24.6310 C   0  0  0  0  0  1  0  0  0  0  0  0
  -27.6060  -32.4360   25.7520 C   0  0  0  0  0  1  0  0  0  0  0  0
  1  2  1  0
  3  4  1  0
  3  5  2  0
  4  1  2  0
  5  6  1  0
  6  2  2  0
  6 46  1  0
  8 13  1  0
  9 10  1  0
  9  8  1  0
 11 10  1  0
 11 20  1  0
 11 12  1  0
 13  7  1  0
 13 12  1  0
 14  7  2  0
 15  7  1  0
 15  5  1  0
 16 15  1  0
 17 18  2  0
 18 37  1  0
 19 18  1  0
 19 22  1  0
 20 17  1  0
 20 21  1  0
 21 19  2  0
 22 23  1  0
 23 24  2  0
 25 28  1  0
 25 24  1  0
 26 25  2  0
 27 26  1  0
 27 22  2  0
 28 29  1  0
 29 30  1  0
 30 31  2  0
 32 31  1  0
 32 36  1  0
 33 32  2  0
 34 29  2  0
 34 33  1  0
 35 34  1  0
 37 38  1  0
 38 41  1  0
 38 40  1  0
 39 37  2  0
 42 43  1  0
 42 17  1  0
 44 42  1  0
 46 45  1  0
 47 48  1  0
 47  4  1  0
 50 48  1  0
 50 49  1  0
 51 52  1  0
 51 50  1  0
 53 64  2  0
 54 52  1  0
 54 59  1  0
 55 63  1  0
 55 65  1  0
 56 62  1  0
 56 58  1  0
 57 63  1  0
 58 57  1  0
 59 58  2  0
 60 54  2  0
 61 60  1  0
 61 56  2  0
 62 55  1  0
 63 53  1  0
 65 67  2  0
 66 65  1  0
 68 66  1  0
 69 78  2  0
 69 74  1  0
 70 66  1  0
 70 74  1  0
 71 70  1  0
 72 73  1  0
 72 71  1  0
 73 69  1  0
 74 75  2  0
 75 76  1  0
 77 76  2  0
 78 77  1  0
 79 53  1  0
 79 80  1  0
 79 89  1  0
 80 83  1  0
 81 85  1  0
 81 80  1  0
 82 81  2  0
 85 84  1  0
 87 85  1  0
 87 88  1  0
 87 86  1  0
 89 92  1  1
 89 90  1  0
 91 89  1  0
M  ISO  4   7 100  15 100  51 101  52 101
M  END
>  <TORSDO>  (1) 
F 21

>  <SCORE>  (1) 
7.765

>  <name>  (1) 
0

>  <ligand_id>  (1) 
0

>  <original_smiles>  (1) 
[H]c1c([H])c([H])c2c(c1[H])C([H])([H])C([H])([H])C([H])([H])C2([H])N([H])C(=O)C1([H])N(C(=O)C([H])(N([H])C(=O)C([H])(N([H])C([H])([H])[H])C([H])([H])[H])C(C([H])([H])[H])(C([H])([H])[H])C([H])([H])[H])C([H])([H])c2c([H])c(OC([H])([H])C([H])(OC([H])([H])c3c([H])c([H])c(OC([H])([H])[H])c(N([H])C(=O)N4C([H])([H])C([H])([H])C([H])([H])C([H])(n5nc(-c6c([H])c([H])c(Oc7c([H])c([H])c(F)c([H])c7F)c([H])c6[H])c(C(=O)N([H])[H])c5N([H])[H])C4([H])[H])c3[H])C([H])([H])[H])c([H])c([H])c2C1([H])[H]

>  <smiles>  (1) 
[H]c1c([H])c([H])c2c(c1[H])C([H])([H])C([H])([H])C([H])([H])C2([H])N([H])C(=O)C1([H])N(C(=O)C([H])(N([H])C(=O)C([H])(N([H])C([H])([H])[H])C([H])([H])[H])C(C([H])([H])[H])(C([H])([H])[H])C([H])([H])[H])C([H])([H])c2c([H])c(OC([H])([H])C([H])(OC([H])([H])c3c([H])c([H])c(OC([H])([H])[H])c(N([H])C(=O)N4C([H])([H])C([H])([H])C([H])([H])C([H])(n5nc(-c6c([H])c([H])c(Oc7c([H])c([H])c(F)c([H])c7F)c([H])c6[H])c(C(=O)N([H])[H])c5N([H])[H])C4([H])[H])c3[H])C([H])([H])[H])c([H])c([H])c2C1([H])[H]

$$$$
1:0:0
     RDKit          3D

101110  0  0  1  0  0  0  0  0999 V2000
  -33.9780  -21.1560   23.0440 C   0  0  0  0  0  3  0  0  0  0  0  0
  -34.5660  -19.9520   22.6270 C   0  0  0  0  0  3  0  0  0  0  0  0
  -33.0530  -21.8040   22.2100 C   0  0  0  0  0  3  0  0  0  0  0  0
  -34.2280  -19.4120   21.3740 C   0  0  0  0  0  3  0  0  0  0  0  0
  -32.6830  -21.2710   20.9480 C   0  0  0  0  0  0  0  0  0  0  0  0
  -33.3000  -20.0500   20.5190 C   0  0  0  0  0  0  0  0  0  0  0  0
  -31.6890  -22.0720   20.1320 C   0  0  0  0  0  0  0  0  0  0  0  0
  -30.9140  -22.8960   20.8590 N   0  0  0  0  0  0  0  0  0  0  0  0
  -31.6620  -22.0360   18.9010 O   0  0  0  0  0  0  0  0  0  0  0  0
  -31.0050  -22.7950   21.8610 H   0  0  0  0  0  0  0  0  0  0  0  0
  -30.1910  -24.0850   20.3960 C   0  0  0  0  0  2  0  0  0  0  0  0
  -28.6640  -24.0090   20.5900 C   0  0  0  0  0  2  0  0  0  0  0  0
  -27.9650  -25.3850   20.4830 C   0  0  0  0  0  2  0  0  0  0  0  0
  -26.6170  -25.1460   20.0900 O   0  0  0  0  0  0  0  0  0  0  0  0
  -24.0570  -31.0790   23.2190 C   0  0  0  0  0  0  0  0  0  0  0  0
  -25.6720  -26.1410   20.1980 C   0  0  0  0  0  0  0  0  0  0  0  0
  -22.5290  -29.8860   21.6820 C   0  0  0  0  0  3  0  0  0  0  0  0
  -23.5970  -28.0610   20.2580 C   0  0  0  0  0  0  0  0  0  0  0  0
  -25.0610  -29.7580   21.3630 C   0  0  0  0  0  2  0  0  0  0  0  0
  -24.8600  -28.3740   20.7810 C   0  0  0  0  0  0  0  0  0  0  0  0
  -25.9030  -27.4210   20.7560 C   0  0  0  0  0  3  0  0  0  0  0  0
  -24.3990  -25.8450   19.6700 C   0  0  0  0  0  3  0  0  0  0  0  0
  -23.3600  -26.7930   19.7030 C   0  0  0  0  0  3  0  0  0  0  0  0
  -22.5390  -29.1390   20.3220 C   0  0  0  0  0  2  0  0  0  0  0  0
  -23.9060  -30.2520   22.1460 N   0  0  0  0  0  0  0  0  0  0  0  0
  -23.0760  -31.5670   23.7960 O   0  0  0  0  0  0  0  0  0  0  0  0
  -21.7440  -29.0360   22.7070 C   0  0  0  0  0  0  0  0  0  0  0  0
  -20.4070  -29.0240   22.5780 N   0  0  0  0  0  0  0  0  0  0  0  0
  -22.3360  -28.3850   23.5730 O   0  0  0  0  0  0  0  0  0  0  0  0
  -19.9980  -29.5890   21.8470 H   0  0  0  0  0  0  0  0  0  0  0  0
  -16.9170  -28.1900   23.0020 C   0  0  0  0  0  0  0  0  0  0  0  0
  -19.4700  -28.2660   23.4050 C   0  0  0  0  0  3  0  0  0  0  0  0
  -19.4720  -26.7690   23.0180 C   0  0  0  0  0  2  0  0  0  0  0  0
  -18.4020  -26.4110   21.9840 C   0  0  0  0  0  2  0  0  0  0  0  0
  -17.0070  -26.7540   22.5130 C   0  0  0  0  0  2  0  0  0  0  0  0
  -18.0770  -28.9050   23.4050 C   0  0  0  0  0  0  0  0  0  0  0  0
  -17.9430  -30.2480   23.8180 C   0  0  0  0  0  3  0  0  0  0  0  0
  -16.6830  -30.8750   23.8340 C   0  0  0  0  0  3  0  0  0  0  0  0
  -15.5370  -30.1580   23.4470 C   0  0  0  0  0  3  0  0  0  0  0  0
  -15.6560  -28.8180   23.0370 C   0  0  0  0  0  3  0  0  0  0  0  0
  -25.4700  -31.4690   23.7580 C   0  0  0  0  0  3  0  0  0  0  0  0
  -25.3940  -32.8550   24.2350 N   0  0  0  0  0  0  0  0  0  0  0  0
  -25.9580  -33.9030   23.6200 C   0  0  0  0  0  0  0  0  0  0  0  0
  -26.6660  -33.7890   22.6150 O   0  0  0  0  0  0  0  0  0  0  0  0
  -24.7860  -33.0300   25.0230 H   0  0  0  0  0  0  0  0  0  0  0  0
  -24.6600  -36.0380   23.3500 C   0  0  0  0  0  1  0  0  0  0  0  0
  -25.6950  -35.3000   24.2140 C   0  0  0  0  0  3  0  0  0  0  0  0
  -27.8370  -35.6350   25.3660 C   0  0  0  0  0  1  0  0  0  0  0  0
  -26.9160  -36.1240   24.3430 N   0  0  0  0  0  0  0  0  0  0  0  0
  -26.6780  -37.0870   24.5660 H   0  0  0  0  0  0  0  0  0  0  0  0
  -25.9870  -30.5090   24.8990 C   0  0  1  0  0  0  0  0  0  0  0  0
  -24.9790  -30.3230   26.0570 C   0  0  0  0  0  1  0  0  0  0  0  0
  -26.3170  -29.1110   24.3280 C   0  0  0  0  0  1  0  0  0  0  0  0
  -27.3010  -31.0650   25.4960 C   0  0  0  0  0  1  0  0  0  0  0  0
  -33.0440  -19.4020   19.2980 N   0  0  0  0  0  0  0  0  0  0  0  0
  -33.9040  -19.0900   18.8570 H   0  0  0  0  0  0  0  0  0  0  0  0
  -29.6980  -17.9660   18.6150 C   0  0  0  0  0  3  0  0  0  0  0  0
  -30.7670  -18.8710   18.6970 C   0  0  0  0  0  3  0  0  0  0  0  0
  -32.2100  -17.0910   19.5490 C   0  0  0  0  0  3  0  0  0  0  0  0
  -29.8650  -16.6280   19.0220 C   0  0  0  0  0  0  0  0  0  0  0  0
  -32.0230  -18.4470   19.1700 C   0  0  0  0  0  0  0  0  0  0  0  0
  -31.1250  -16.1740   19.4920 C   0  0  0  0  0  0  0  0  0  0  0  0
  -28.6680  -15.6930   18.9450 C   0  0  0  0  0  1  0  0  0  0  0  0
  -31.6540  -13.7000   19.3500 C   0  0  0  0  0  0  0  0  0  0  0  0
  -31.3130  -11.2470   19.1980 C   0  0  0  0  0  2  0  0  0  0  0  0
  -30.2730  -10.9020   18.1120 C   0  0  0  0  0  2  0  0  0  0  0  0
  -28.8330  -10.9960   18.6570 C   0  0  0  0  0  2  0  0  0  0  0  0
  -28.5770  -12.3160   19.4290 C   0  0  0  0  0  3  0  0  0  0  0  0
  -29.7000  -12.5500   20.4610 C   0  0  0  0  0  2  0  0  0  0  0  0
  -30.9950  -12.5750   19.7450 N   0  0  0  0  0  0  0  0  0  0  0  0
  -32.6280  -13.6830   18.5870 O   0  0  0  0  0  0  0  0  0  0  0  0
  -31.1820  -14.8150   19.9310 N   0  0  0  0  0  0  0  0  0  0  0  0
  -30.5040  -14.5930   20.6430 H   0  0  0  0  0  0  0  0  0  0  0  0
  -26.4910  -13.3960   20.4960 C   0  0  0  0  0  0  0  0  0  0  0  0
  -25.3100  -12.8620   20.9380 C   0  0  0  0  0  0  0  0  0  0  0  0
  -25.4100  -11.4540   20.7210 C   0  0  0  0  0  0  0  0  0  0  0  0
  -27.2530  -12.3240   20.0530 N   0  0  0  0  0  0  0  0  0  0  0  0
  -26.6070  -11.1450   20.2390 N   0  0  0  0  0  0  0  0  0  0  0  0
  -24.4140  -10.3880   20.8920 C   0  0  0  0  0  0  0  0  0  0  0  0
  -24.6750   -9.2560   21.6940 C   0  0  0  0  0  3  0  0  0  0  0  0
  -23.6940   -8.2520   21.8570 C   0  0  0  0  0  3  0  0  0  0  0  0
  -22.4380   -8.3770   21.2170 C   0  0  0  0  0  0  0  0  0  0  0  0
  -22.1930   -9.4960   20.4010 C   0  0  0  0  0  3  0  0  0  0  0  0
  -23.1710  -10.4910   20.2350 C   0  0  0  0  0  3  0  0  0  0  0  0
  -21.4370   -7.4400   21.2960 O   0  0  0  0  0  0  0  0  0  0  0  0
  -21.2650   -6.6620   22.4130 C   0  0  0  0  0  0  0  0  0  0  0  0
  -20.9890   -7.2240   23.6780 C   0  0  0  0  0  3  0  0  0  0  0  0
  -20.7520   -6.3850   24.7840 C   0  0  0  0  0  3  0  0  0  0  0  0
  -20.7810   -4.9870   24.6280 C   0  0  0  0  0  0  0  0  0  0  0  0
  -21.0510   -4.4250   23.3680 C   0  0  0  0  0  3  0  0  0  0  0  0
  -21.2890   -5.2600   22.2630 C   0  0  0  0  0  0  0  0  0  0  0  0
  -21.5280   -4.7140   21.0460 F   0  0  0  0  0  0  0  0  0  0  0  0
  -20.5450   -4.1800   25.6890 F   0  0  0  0  0  0  0  0  0  0  0  0
  -24.1170  -13.6220   21.4430 C   0  0  0  0  0  0  0  0  0  0  0  0
  -23.3750  -13.0460   22.3820 N   0  0  0  0  0  0  0  0  0  0  0  0
  -23.8630  -14.7550   21.0380 O   0  0  0  0  0  0  0  0  0  0  0  0
  -23.5960  -12.1240   22.7300 H   0  0  0  0  0  0  0  0  0  0  0  0
  -22.5760  -13.5350   22.7600 H   0  0  0  0  0  0  0  0  0  0  0  0
  -26.9700  -14.7000   20.4160 N   0  0  0  0  0  0  0  0  0  0  0  0
  -26.4050  -15.4990   20.6800 H   0  0  0  0  0  0  0  0  0  0  0  0
  -27.8570  -14.9620   20.0040 H   0  0  0  0  0  0  0  0  0  0  0  0
  2  1  1  0
  3  1  2  0
  4  2  2  0
  5  3  1  0
  6  5  2  0
  6  4  1  0
  7  8  1  0
  7  5  1  0
  8 10  1  0
  9  7  2  0
 11 12  1  0
 11  8  1  0
 13 12  1  0
 14 16  1  0
 14 13  1  0
 15 26  2  0
 16 21  1  0
 17 25  1  0
 17 27  1  0
 18 24  1  0
 18 20  1  0
 19 25  1  0
 20 19  1  0
 21 20  2  0
 22 23  1  0
 22 16  2  0
 23 18  2  0
 24 17  1  0
 25 15  1  0
 27 29  2  0
 28 27  1  0
 30 28  1  0
 31 40  2  0
 31 36  1  0
 32 28  1  0
 32 36  1  0
 33 32  1  0
 34 35  1  0
 34 33  1  0
 35 31  1  0
 36 37  2  0
 37 38  1  0
 39 38  2  0
 40 39  1  0
 41 15  1  0
 41 42  1  0
 41 51  1  0
 42 45  1  0
 43 47  1  0
 43 42  1  0
 44 43  2  0
 47 46  1  0
 47 49  1  0
 49 50  1  0
 49 48  1  0
 51 54  1  1
 51 52  1  0
 53 51  1  0
 55  6  1  0
 56 55  1  0
 57 58  2  0
 57 60  1  0
 58 61  1  0
 60 62  2  0
 61 55  1  0
 61 59  2  0
 62 59  1  0
 62 72  1  0
 63 60  1  0
 64 70  1  0
 64 72  1  0
 65 70  1  0
 66 67  1  0
 66 65  1  0
 68 67  1  0
 68 77  1  0
 68 69  1  0
 70 69  1  0
 71 64  2  0
 72 73  1  0
 74 75  2  0
 75 94  1  0
 76 79  1  0
 76 75  1  0
 77 78  1  0
 77 74  1  0
 78 76  2  0
 79 80  1  0
 80 81  2  0
 82 85  1  0
 82 81  1  0
 83 82  2  0
 84 83  1  0
 84 79  2  0
 85 86  1  0
 86 87  1  0
 87 88  2  0
 89 88  1  0
 89 93  1  0
 90 89  2  0
 91 86  2  0
 91 90  1  0
 92 91  1  0
 94 95  1  0
 95 97  1  0
 95 98  1  0
 96 94  2  0
 99 74  1  0
 99100  1  0
101 99  1  0
M  ISO  4  13 101  14 101  64 100  72 100
M  END
>  <TORSDO>  (2) 
F 22

>  <SCORE>  (2) 
-9.120

>  <name>  (2) 
1

>  <ligand_id>  (2) 
1

>  <original_smiles>  (2) 
[H]c1c([H])c([H])c(N([H])c2c([H])c([H])c(C([H])([H])[H])c(N([H])C(=O)N3C([H])([H])C([H])([H])C([H])([H])C([H])(n4nc(-c5c([H])c([H])c(Oc6c([H])c([H])c(F)c([H])c6F)c([H])c5[H])c(C(=O)N([H])[H])c4N([H])[H])C3([H])[H])c2[H])c(C(=O)N([H])C([H])([H])C([H])([H])C([H])([H])Oc2c([H])c([H])c3c(c2[H])C([H])([H])N(C(=O)C([H])(N([H])C(=O)C([H])(N([H])C([H])([H])[H])C([H])([H])[H])C(C([H])([H])[H])(C([H])([H])[H])C([H])([H])[H])C([H])(C(=O)N([H])C2([H])c4c([H])c([H])c([H])c([H])c4C([H])([H])C([H])([H])C2([H])[H])C3([H])[H])c1[H]

>  <smiles>  (2) 
[H]c1c([H])c([H])c(N([H])c2c([H])c([H])c(C([H])([H])[H])c(N([H])C(=O)N3C([H])([H])C([H])([H])C([H])([H])C([H])(n4nc(-c5c([H])c([H])c(Oc6c([H])c([H])c(F)c([H])c6F)c([H])c5[H])c(C(=O)N([H])[H])c4N([H])[H])C3([H])[H])c2[H])c(C(=O)N([H])C([H])([H])C([H])([H])C([H])([H])Oc2c([H])c([H])c3c(c2[H])C([H])([H])N(C(=O)C([H])(N([H])C(=O)C([H])(N([H])C([H])([H])[H])C([H])([H])[H])C(C([H])([H])[H])(C([H])([H])[H])C([H])([H])[H])C([H])(C(=O)N([H])C2([H])c4c([H])c([H])c([H])c([H])c4C([H])([H])C([H])([H])C2([H])[H])C3([H])[H])c1[H]

$$$$
2:0:0
     RDKit          3D

107115  0  0  1  0  0  0  0  0999 V2000
  -23.3740  -22.7540   21.1100 C   0  0  0  0  0  2  0  0  0  0  0  0
  -22.9710  -23.0230   19.6640 C   0  0  0  0  0  2  0  0  0  0  0  0
  -21.4560  -23.1950   19.5120 C   0  0  0  0  0  2  0  0  0  0  0  0
  -21.0400  -24.1960   18.4170 C   0  0  0  0  0  2  0  0  0  0  0  0
  -22.1920  -26.3460   18.8930 C   0  0  0  0  0  0  0  0  0  0  0  0
  -21.0600  -25.5880   18.9050 N   0  0  0  0  0  0  0  0  0  0  0  0
  -22.4220  -27.1720   19.7770 O   0  0  0  0  0  0  0  0  0  0  0  0
  -19.8200  -26.2380   19.3910 C   0  0  0  0  0  2  0  0  0  0  0  0
  -18.3000  -24.5810   20.6610 C   0  0  0  0  0  1  0  0  0  0  0  0
  -18.4670  -25.4890   19.4440 C   0  0  0  0  0  2  0  0  0  0  0  0
  -23.1430  -26.2690   17.6740 C   0  0  0  0  0  2  0  0  0  0  0  0
  -24.4970  -27.0270   17.8040 C   0  0  0  0  0  2  0  0  0  0  0  0
  -24.5700  -28.4580   17.1880 C   0  0  0  0  0  2  0  0  0  0  0  0
  -25.4080  -29.3820   17.9110 O   0  0  0  0  0  0  0  0  0  0  0  0
  -25.2590  -29.4040   25.0540 C   0  0  0  0  0  0  0  0  0  0  0  0
  -24.8610  -29.9250   19.0590 C   0  0  0  0  0  0  0  0  0  0  0  0
  -23.3660  -30.4720   23.9030 C   0  0  0  0  0  3  0  0  0  0  0  0
  -23.6780  -30.8950   21.4270 C   0  0  0  0  0  0  0  0  0  0  0  0
  -25.6860  -30.3740   22.8030 C   0  0  0  0  0  2  0  0  0  0  0  0
  -24.9820  -30.3890   21.4640 C   0  0  0  0  0  0  0  0  0  0  0  0
  -25.5880  -29.9130   20.2760 C   0  0  0  0  0  3  0  0  0  0  0  0
  -23.5680  -30.4930   19.0580 C   0  0  0  0  0  3  0  0  0  0  0  0
  -22.9700  -30.9520   20.2330 C   0  0  0  0  0  3  0  0  0  0  0  0
  -23.0770  -31.4070   22.7070 C   0  0  0  0  0  2  0  0  0  0  0  0
  -24.7940  -30.0310   23.9380 N   0  0  0  0  0  0  0  0  0  0  0  0
  -24.5330  -29.2250   26.0430 O   0  0  0  0  0  0  0  0  0  0  0  0
  -22.3590  -29.2990   23.8810 C   0  0  0  0  0  0  0  0  0  0  0  0
  -21.0680  -29.6200   23.7010 N   0  0  0  0  0  0  0  0  0  0  0  0
  -22.7410  -28.1320   23.9960 O   0  0  0  0  0  0  0  0  0  0  0  0
  -20.8400  -30.6020   23.5970 H   0  0  0  0  0  0  0  0  0  0  0  0
  -17.6850  -29.1940   22.4500 C   0  0  0  0  0  0  0  0  0  0  0  0
  -19.9480  -28.6770   23.6050 C   0  0  0  0  0  3  0  0  0  0  0  0
  -20.1880  -27.6620   22.4670 C   0  0  0  0  0  2  0  0  0  0  0  0
  -19.5110  -28.0490   21.1480 C   0  0  0  0  0  2  0  0  0  0  0  0
  -18.0070  -28.2200   21.3340 C   0  0  0  0  0  2  0  0  0  0  0  0
  -18.6010  -29.4100   23.5140 C   0  0  0  0  0  0  0  0  0  0  0  0
  -18.2680  -30.3390   24.5220 C   0  0  0  0  0  3  0  0  0  0  0  0
  -17.0460  -31.0410   24.4780 C   0  0  0  0  0  3  0  0  0  0  0  0
  -16.1320  -30.8020   23.4330 C   0  0  0  0  0  3  0  0  0  0  0  0
  -16.4530  -29.8820   22.4210 C   0  0  0  0  0  3  0  0  0  0  0  0
  -26.7350  -28.9170   25.1500 C   0  0  0  0  0  3  0  0  0  0  0  0
  -27.2440  -29.3070   26.4670 N   0  0  0  0  0  0  0  0  0  0  0  0
  -28.0330  -30.3650   26.6920 C   0  0  0  0  0  0  0  0  0  0  0  0
  -28.4770  -31.0750   25.7860 O   0  0  0  0  0  0  0  0  0  0  0  0
  -26.8750  -28.8080   27.2600 H   0  0  0  0  0  0  0  0  0  0  0  0
  -27.5480  -31.8700   28.6420 C   0  0  0  0  0  1  0  0  0  0  0  0
  -28.3870  -30.6780   28.1570 C   0  0  0  0  0  3  0  0  0  0  0  0
  -30.6780  -29.7960   28.1770 C   0  0  0  0  0  1  0  0  0  0  0  0
  -29.8230  -30.9660   28.3610 N   0  0  0  0  0  0  0  0  0  0  0  0
  -29.9860  -31.3400   29.2910 H   0  0  0  0  0  0  0  0  0  0  0  0
  -26.8820  -27.3630   24.9320 C   0  0  1  0  0  0  0  0  0  0  0  0
  -25.9530  -26.5180   25.8320 C   0  0  0  0  0  1  0  0  0  0  0  0
  -26.5740  -26.9840   23.4670 C   0  0  0  0  0  1  0  0  0  0  0  0
  -28.3420  -26.9330   25.2020 C   0  0  0  0  0  1  0  0  0  0  0  0
  -24.8020  -23.2260   21.4170 C   0  0  0  0  0  2  0  0  0  0  0  0
  -25.4080  -24.1530   20.3420 C   0  0  0  0  0  2  0  0  0  0  0  0
  -26.4490  -23.4320   19.4640 C   0  0  0  0  0  2  0  0  0  0  0  0
  -27.0530  -24.3230   18.3530 C   0  0  0  0  0  2  0  0  0  0  0  0
  -29.2880  -23.2410   18.2680 C   0  0  0  0  0  0  0  0  0  0  0  0
  -28.1100  -23.7390   16.1660 C   0  0  0  0  0  1  0  0  0  0  0  0
  -28.1750  -23.6850   17.6300 N   0  0  0  0  0  0  0  0  0  0  0  0
  -29.5460  -23.5510   19.4360 O   0  0  0  0  0  0  0  0  0  0  0  0
  -30.2430  -22.2710   17.5340 C   0  0  0  0  0  2  0  0  0  0  0  0
  -31.3400  -20.9740   19.4390 C   0  0  0  0  0  3  0  0  0  0  0  0
  -29.7870  -19.8080   17.9650 C   0  0  0  0  0  3  0  0  0  0  0  0
  -31.5030  -19.7970   20.1980 C   0  0  0  0  0  3  0  0  0  0  0  0
  -29.9540  -18.6290   18.7140 C   0  0  0  0  0  3  0  0  0  0  0  0
  -30.4640  -20.9900   18.3300 C   0  0  0  0  0  0  0  0  0  0  0  0
  -30.7990  -18.6260   19.8420 C   0  0  0  0  0  0  0  0  0  0  0  0
  -31.5260  -16.3690   20.4810 C   0  0  0  0  0  0  0  0  0  0  0  0
  -31.6690  -14.0360   21.2810 C   0  0  0  0  0  2  0  0  0  0  0  0
  -31.1980  -13.0090   20.2360 C   0  0  0  0  0  2  0  0  0  0  0  0
  -29.6710  -12.8240   20.2880 C   0  0  0  0  0  2  0  0  0  0  0  0
  -28.9140  -14.1760   20.2620 C   0  0  0  0  0  3  0  0  0  0  0  0
  -29.4950  -15.1460   21.3100 C   0  0  0  0  0  2  0  0  0  0  0  0
  -30.9470  -15.2970   21.0770 N   0  0  0  0  0  0  0  0  0  0  0  0
  -32.6450  -16.3520   19.9590 O   0  0  0  0  0  0  0  0  0  0  0  0
  -30.8550  -17.5060   20.6980 N   0  0  0  0  0  0  0  0  0  0  0  0
  -30.1030  -17.4240   21.3660 H   0  0  0  0  0  0  0  0  0  0  0  0
  -26.4480  -14.9150   20.3910 C   0  0  0  0  0  0  0  0  0  0  0  0
  -25.2890  -14.2060   20.5730 C   0  0  0  0  0  0  0  0  0  0  0  0
  -25.6860  -12.8420   20.7340 C   0  0  0  0  0  0  0  0  0  0  0  0
  -27.4770  -13.9840   20.4520 N   0  0  0  0  0  0  0  0  0  0  0  0
  -27.0070  -12.7390   20.7130 N   0  0  0  0  0  0  0  0  0  0  0  0
  -24.8810  -11.6210   20.8490 C   0  0  0  0  0  0  0  0  0  0  0  0
  -25.1730  -10.6360   21.8190 C   0  0  0  0  0  3  0  0  0  0  0  0
  -24.3750   -9.4760   21.9220 C   0  0  0  0  0  3  0  0  0  0  0  0
  -23.2720   -9.2940   21.0540 C   0  0  0  0  0  0  0  0  0  0  0  0
  -23.0020  -10.2670   20.0750 C   0  0  0  0  0  3  0  0  0  0  0  0
  -23.7990  -11.4190   19.9700 C   0  0  0  0  0  3  0  0  0  0  0  0
  -22.4560   -8.1910   21.0630 O   0  0  0  0  0  0  0  0  0  0  0  0
  -22.1450   -7.5360   22.2300 C   0  0  0  0  0  0  0  0  0  0  0  0
  -21.5620   -8.2050   23.3270 C   0  0  0  0  0  3  0  0  0  0  0  0
  -21.1950   -7.4790   24.4790 C   0  0  0  0  0  3  0  0  0  0  0  0
  -21.4020   -6.0870   24.5300 C   0  0  0  0  0  0  0  0  0  0  0  0
  -21.9770   -5.4190   23.4360 C   0  0  0  0  0  3  0  0  0  0  0  0
  -22.3460   -6.1430   22.2870 C   0  0  0  0  0  0  0  0  0  0  0  0
  -22.8800   -5.4910   21.2260 F   0  0  0  0  0  0  0  0  0  0  0  0
  -21.0430   -5.3880   25.6330 F   0  0  0  0  0  0  0  0  0  0  0  0
  -23.8910  -14.7430   20.5090 C   0  0  0  0  0  0  0  0  0  0  0  0
  -22.9720  -14.1550   21.2730 N   0  0  0  0  0  0  0  0  0  0  0  0
  -23.6110  -15.7190   19.8170 O   0  0  0  0  0  0  0  0  0  0  0  0
  -23.2090  -13.3660   21.8560 H   0  0  0  0  0  0  0  0  0  0  0  0
  -22.0240  -14.4970   21.2730 H   0  0  0  0  0  0  0  0  0  0  0  0
  -26.7120  -16.2600   20.1610 N   0  0  0  0  0  0  0  0  0  0  0  0
  -25.9750  -16.9500   20.0510 H   0  0  0  0  0  0  0  0  0  0  0  0
  -27.6400  -16.6460   20.0350 H   0  0  0  0  0  0  0  0  0  0  0  0
  1 55  1  0
  2  1  1  0
  3  2  1  0
  4  6  1  0
  4  3  1  0
  5  6  1  0
  5  7  2  0
  6  8  1  0
  8 10  1  0
 10  9  1  0
 11 12  1  0
 11  5  1  0
 13 12  1  0
 13 14  1  0
 14 16  1  0
 15 26  2  0
 16 21  1  0
 17 27  1  0
 17 25  1  0
 18 20  1  0
 18 24  1  0
 19 25  1  0
 20 19  1  0
 21 20  2  0
 22 16  2  0
 22 23  1  0
 23 18  2  0
 24 17  1  0
 25 15  1  0
 27 29  2  0
 28 27  1  0
 30 28  1  0
 31 36  1  0
 32 28  1  0
 33 32  1  0
 34 35  1  0
 34 33  1  0
 35 31  1  0
 36 32  1  0
 36 37  2  0
 38 37  1  0
 39 38  2  0
 40 31  2  0
 40 39  1  0
 41 15  1  0
 41 42  1  0
 42 43  1  0
 42 45  1  0
 43 47  1  0
 44 43  2  0
 47 49  1  0
 47 46  1  0
 48 49  1  0
 49 50  1  0
 51 41  1  0
 51 54  1  1
 51 52  1  0
 53 51  1  0
 56 55  1  0
 57 56  1  0
 58 57  1  0
 59 62  2  0
 60 61  1  0
 61 59  1  0
 61 58  1  0
 63 59  1  0
 63 68  1  0
 64 66  1  0
 65 68  1  0
 65 67  2  0
 67 69  1  0
 68 64  2  0
 69 66  2  0
 69 78  1  0
 70 78  1  0
 70 76  1  0
 72 73  1  0
 72 71  1  0
 74 73  1  0
 74 83  1  0
 74 75  1  0
 76 71  1  0
 76 75  1  0
 77 70  2  0
 78 79  1  0
 80 83  1  0
 80 81  2  0
 81 82  1  0
 82 85  1  0
 83 84  1  0
 84 82  2  0
 85 86  1  0
 86 87  2  0
 88 91  1  0
 88 87  1  0
 89 88  2  0
 90 89  1  0
 90 85  2  0
 91 92  1  0
 92 97  2  0
 92 93  1  0
 93 94  2  0
 94 95  1  0
 95 99  1  0
 96 95  2  0
 97 96  1  0
 98 97  1  0
100 81  1  0
100101  1  0
101104  1  0
101103  1  0
102100  2  0
105 80  1  0
106105  1  0
107105  1  0
M  ISO  4  13 101  14 101  70 100  78 100
M  END
>  <TORSDO>  (3) 
F 32

>  <SCORE>  (3) 
-4.123

>  <name>  (3) 
2

>  <ligand_id>  (3) 
2

>  <original_smiles>  (3) 
[H]c1c([H])c([H])c2c(c1[H])C([H])([H])C([H])([H])C([H])([H])C2([H])N([H])C(=O)C1([H])N(C(=O)C([H])(N([H])C(=O)C([H])(N([H])C([H])([H])[H])C([H])([H])[H])C(C([H])([H])[H])(C([H])([H])[H])C([H])([H])[H])C([H])([H])c2c([H])c(OC([H])([H])C([H])([H])C([H])([H])C(=O)N(C([H])([H])C([H])([H])C([H])([H])[H])C([H])([H])C([H])([H])C([H])([H])C([H])([H])C([H])([H])C([H])([H])C([H])([H])C([H])([H])N(C(=O)C([H])([H])c3c([H])c([H])c(N([H])C(=O)N4C([H])([H])C([H])([H])C([H])([H])C([H])(n5nc(-c6c([H])c([H])c(Oc7c([H])c([H])c(F)c([H])c7F)c([H])c6[H])c(C(=O)N([H])[H])c5N([H])[H])C4([H])[H])c([H])c3[H])C([H])([H])[H])c([H])c([H])c2C1([H])[H]

>  <smiles>  (3) 
[H]c1c([H])c([H])c2c(c1[H])C([H])([H])C([H])([H])C([H])([H])C2([H])N([H])C(=O)C1([H])N(C(=O)C([H])(N([H])C(=O)C([H])(N([H])C([H])([H])[H])C([H])([H])[H])C(C([H])([H])[H])(C([H])([H])[H])C([H])([H])[H])C([H])([H])c2c([H])c(OC([H])([H])C([H])([H])C([H])([H])C(=O)N(C([H])([H])C([H])([H])C([H])([H])[H])C([H])([H])C([H])([H])C([H])([H])C([H])([H])C([H])([H])C([H])([H])C([H])([H])C([H])([H])N(C(=O)C([H])([H])c3c([H])c([H])c(N([H])C(=O)N4C([H])([H])C([H])([H])C([H])([H])C([H])(n5nc(-c6c([H])c([H])c(Oc7c([H])c([H])c(F)c([H])c7F)c([H])c6[H])c(C(=O)N([H])[H])c5N([H])[H])C4([H])[H])c([H])c3[H])C([H])([H])[H])c([H])c([H])c2C1([H])[H]

$$$$
3:0:0
     RDKit          3D

107115  0  0  1  0  0  0  0  0999 V2000
  -30.2840  -16.8610   22.8100 C   0  0  0  0  0  3  0  0  0  0  0  0
  -31.1080  -19.1600   22.8870 C   0  0  0  0  0  3  0  0  0  0  0  0
  -31.9020  -17.6130   21.1620 C   0  0  0  0  0  3  0  0  0  0  0  0
  -30.2950  -18.1300   23.4190 C   0  0  0  0  0  0  0  0  0  0  0  0
  -31.0830  -16.5610   21.6920 C   0  0  0  0  0  0  0  0  0  0  0  0
  -31.9260  -18.9380   21.7490 C   0  0  0  0  0  0  0  0  0  0  0  0
  -31.5580  -14.2840   20.4990 C   0  0  0  0  0  0  0  0  0  0  0  0
  -31.1240  -12.3090   19.0460 C   0  0  0  0  0  2  0  0  0  0  0  0
  -30.1800  -12.7350   17.8970 C   0  0  0  0  0  2  0  0  0  0  0  0
  -28.6990  -12.6670   18.3300 C   0  0  0  0  0  2  0  0  0  0  0  0
  -28.4470  -13.3410   19.7030 C   0  0  0  0  0  3  0  0  0  0  0  0
  -29.4850  -12.8580   20.7440 C   0  0  0  0  0  2  0  0  0  0  0  0
  -30.8280  -13.1610   20.2100 N   0  0  0  0  0  0  0  0  0  0  0  0
  -32.7070  -14.4540   20.0760 O   0  0  0  0  0  0  0  0  0  0  0  0
  -30.8430  -15.2350   21.1550 N   0  0  0  0  0  0  0  0  0  0  0  0
  -29.9520  -14.8540   21.4360 H   0  0  0  0  0  0  0  0  0  0  0  0
  -26.0830  -14.0830   20.4050 C   0  0  0  0  0  0  0  0  0  0  0  0
  -24.9660  -13.3710   20.7490 C   0  0  0  0  0  0  0  0  0  0  0  0
  -25.3420  -11.9940   20.6920 C   0  0  0  0  0  0  0  0  0  0  0  0
  -27.0740  -13.1420   20.1630 N   0  0  0  0  0  0  0  0  0  0  0  0
  -26.6310  -11.8790   20.3930 N   0  0  0  0  0  0  0  0  0  0  0  0
  -24.5360  -10.7770   20.8460 C   0  0  0  0  0  0  0  0  0  0  0  0
  -24.8950   -9.7650   21.7640 C   0  0  0  0  0  3  0  0  0  0  0  0
  -24.0940   -8.6110   21.9080 C   0  0  0  0  0  3  0  0  0  0  0  0
  -22.9200   -8.4610   21.1310 C   0  0  0  0  0  0  0  0  0  0  0  0
  -22.5810   -9.4590   20.2020 C   0  0  0  0  0  3  0  0  0  0  0  0
  -23.3820  -10.6040   20.0560 C   0  0  0  0  0  3  0  0  0  0  0  0
  -22.0950   -7.3640   21.1850 O   0  0  0  0  0  0  0  0  0  0  0  0
  -21.9140   -6.6560   22.3470 C   0  0  0  0  0  0  0  0  0  0  0  0
  -21.4700   -7.2750   23.5350 C   0  0  0  0  0  3  0  0  0  0  0  0
  -21.2300   -6.4990   24.6870 C   0  0  0  0  0  3  0  0  0  0  0  0
  -21.4230   -5.1050   24.6500 C   0  0  0  0  0  0  0  0  0  0  0  0
  -21.8600   -4.4860   23.4650 C   0  0  0  0  0  3  0  0  0  0  0  0
  -22.1010   -5.2600   22.3160 C   0  0  0  0  0  0  0  0  0  0  0  0
  -22.5020   -4.6560   21.1710 F   0  0  0  0  0  0  0  0  0  0  0  0
  -21.1850   -4.3570   25.7530 F   0  0  0  0  0  0  0  0  0  0  0  0
  -23.5980  -13.9290   21.0200 C   0  0  0  0  0  0  0  0  0  0  0  0
  -22.8390  -13.2890   21.9040 N   0  0  0  0  0  0  0  0  0  0  0  0
  -23.2130  -14.9670   20.4840 O   0  0  0  0  0  0  0  0  0  0  0  0
  -23.1620  -12.4500   22.3610 H   0  0  0  0  0  0  0  0  0  0  0  0
  -21.9200  -13.6450   22.1270 H   0  0  0  0  0  0  0  0  0  0  0  0
  -26.3380  -15.4430   20.2580 N   0  0  0  0  0  0  0  0  0  0  0  0
  -25.6140  -16.1440   20.3620 H   0  0  0  0  0  0  0  0  0  0  0  0
  -27.2170  -15.8300   19.9390 H   0  0  0  0  0  0  0  0  0  0  0  0
  -29.3900  -18.3640   24.5970 C   0  0  0  0  0  0  0  0  0  0  0  0
  -29.9810  -18.7160   25.7460 N   0  0  0  0  0  0  0  0  0  0  0  0
  -28.1750  -18.1780   24.4960 O   0  0  0  0  0  0  0  0  0  0  0  0
  -30.9870  -18.8060   25.7480 H   0  0  0  0  0  0  0  0  0  0  0  0
  -29.2710  -18.9990   26.9940 C   0  0  0  0  0  2  0  0  0  0  0  0
  -28.9450  -17.7260   27.7990 C   0  0  0  0  0  2  0  0  0  0  0  0
  -29.4550  -17.7550   29.2520 C   0  0  0  0  0  2  0  0  0  0  0  0
  -28.3130  -17.7320   30.2860 C   0  0  0  0  0  2  0  0  0  0  0  0
  -28.6080  -18.5970   31.5240 C   0  0  0  0  0  2  0  0  0  0  0  0
  -27.3540  -19.3080   32.0610 C   0  0  0  0  0  2  0  0  0  0  0  0
  -27.6810  -20.5250   32.9410 C   0  0  0  0  0  2  0  0  0  0  0  0
  -26.7930  -22.6630   34.0200 C   0  0  0  0  0  1  0  0  0  0  0  0
  -26.4560  -21.4240   33.1790 C   0  0  0  0  0  2  0  0  0  0  0  0
  -32.6990  -21.3130   20.9890 C   0  0  0  0  0  0  0  0  0  0  0  0
  -32.8830  -19.9660   21.3290 N   0  0  0  0  0  0  0  0  0  0  0  0
  -33.6930  -22.0410   20.8730 O   0  0  0  0  0  0  0  0  0  0  0  0
  -34.3050  -19.5410   21.4700 C   0  0  0  0  0  2  0  0  0  0  0  0
  -36.5310  -19.0620   20.3040 C   0  0  0  0  0  1  0  0  0  0  0  0
  -35.0140  -19.2330   20.1310 C   0  0  0  0  0  2  0  0  0  0  0  0
  -31.3470  -22.0710   20.6930 C   0  0  0  0  0  2  0  0  0  0  0  0
  -31.4220  -23.6810   20.7280 C   0  0  0  0  0  3  0  0  0  0  0  0
  -30.2590  -24.5400   20.0920 C   0  0  0  0  0  3  0  0  0  0  0  0
  -30.3120  -25.9960   20.3290 O   0  0  0  0  0  0  0  0  0  0  0  0
  -25.9220  -30.4510   23.8770 C   0  0  0  0  0  0  0  0  0  0  0  0
  -29.1160  -26.7230   20.3190 C   0  0  0  0  0  0  0  0  0  0  0  0
  -24.9530  -29.2840   21.9280 C   0  0  0  0  0  3  0  0  0  0  0  0
  -26.6240  -28.1150   20.3830 C   0  0  0  0  0  0  0  0  0  0  0  0
  -27.4600  -29.8180   22.0050 C   0  0  0  0  0  2  0  0  0  0  0  0
  -27.6990  -28.5840   21.1450 C   0  0  0  0  0  0  0  0  0  0  0  0
  -28.9480  -27.9040   21.1020 C   0  0  0  0  0  3  0  0  0  0  0  0
  -28.0120  -26.2980   19.5430 C   0  0  0  0  0  3  0  0  0  0  0  0
  -26.7790  -26.9770   19.5750 C   0  0  0  0  0  3  0  0  0  0  0  0
  -25.3170  -28.8780   20.4740 C   0  0  0  0  0  2  0  0  0  0  0  0
  -26.1260  -29.8570   22.6650 N   0  0  0  0  0  0  0  0  0  0  0  0
  -24.7860  -30.5510   24.3590 O   0  0  0  0  0  0  0  0  0  0  0  0
  -24.3170  -28.0670   22.6400 C   0  0  0  0  0  0  0  0  0  0  0  0
  -23.1120  -27.6700   22.2000 N   0  0  0  0  0  0  0  0  0  0  0  0
  -24.9140  -27.4870   23.5520 O   0  0  0  0  0  0  0  0  0  0  0  0
  -22.6770  -28.2050   21.4610 H   0  0  0  0  0  0  0  0  0  0  0  0
  -20.0720  -25.7750   21.7260 C   0  0  0  0  0  0  0  0  0  0  0  0
  -22.3470  -26.5250   22.6970 C   0  0  0  0  0  3  0  0  0  0  0  0
  -22.9080  -25.1940   22.1430 C   0  0  0  0  0  2  0  0  0  0  0  0
  -22.2130  -24.7360   20.8590 C   0  0  0  0  0  2  0  0  0  0  0  0
  -20.7120  -24.5490   21.1010 C   0  0  0  0  0  2  0  0  0  0  0  0
  -20.8430  -26.7110   22.4640 C   0  0  0  0  0  0  0  0  0  0  0  0
  -20.2080  -27.8560   22.9940 C   0  0  0  0  0  3  0  0  0  0  0  0
  -18.8280  -28.0630   22.8090 C   0  0  0  0  0  3  0  0  0  0  0  0
  -18.0660  -27.1220   22.0950 C   0  0  0  0  0  3  0  0  0  0  0  0
  -18.6880  -25.9820   21.5550 C   0  0  0  0  0  3  0  0  0  0  0  0
  -27.1040  -31.0520   24.6980 C   0  0  0  0  0  3  0  0  0  0  0  0
  -26.7880  -32.4610   24.9710 N   0  0  0  0  0  0  0  0  0  0  0  0
  -27.3600  -33.5030   24.3530 C   0  0  0  0  0  0  0  0  0  0  0  0
  -28.2730  -33.3750   23.5310 O   0  0  0  0  0  0  0  0  0  0  0  0
  -26.0160  -32.6400   25.5960 H   0  0  0  0  0  0  0  0  0  0  0  0
  -25.9430  -35.4210   23.5640 C   0  0  0  0  0  1  0  0  0  0  0  0
  -26.8420  -34.9100   24.7010 C   0  0  0  0  0  3  0  0  0  0  0  0
  -28.6630  -35.6150   26.1890 C   0  0  0  0  0  1  0  0  0  0  0  0
  -27.9210  -35.8890   24.9610 N   0  0  0  0  0  0  0  0  0  0  0  0
  -27.5470  -36.8300   25.0270 H   0  0  0  0  0  0  0  0  0  0  0  0
  -27.3800  -30.2780   26.0440 C   0  0  1  0  0  0  0  0  0  0  0  0
  -26.1240  -30.1100   26.9320 C   0  0  0  0  0  1  0  0  0  0  0  0
  -27.9490  -28.8710   25.7540 C   0  0  0  0  0  1  0  0  0  0  0  0
  -28.4580  -31.0190   26.8680 C   0  0  0  0  0  1  0  0  0  0  0  0
  1  4  1  0
  2  4  2  0
  3  5  1  0
  3  6  2  0
  4 45  1  0
  5  1  2  0
  6  2  1  0
  7 15  1  0
  8 13  1  0
  9 10  1  0
  9  8  1  0
 11 10  1  0
 11 20  1  0
 11 12  1  0
 13  7  1  0
 13 12  1  0
 14  7  2  0
 15 16  1  0
 15  5  1  0
 17 18  2  0
 18 37  1  0
 19 18  1  0
 19 22  1  0
 20 21  1  0
 20 17  1  0
 21 19  2  0
 22 23  1  0
 23 24  2  0
 25 28  1  0
 25 24  1  0
 26 25  2  0
 27 26  1  0
 27 22  2  0
 28 29  1  0
 29 30  1  0
 30 31  2  0
 32 31  1  0
 32 36  1  0
 33 32  2  0
 34 29  2  0
 34 33  1  0
 35 34  1  0
 37 38  1  0
 38 41  1  0
 38 40  1  0
 39 37  2  0
 42 43  1  0
 42 17  1  0
 44 42  1  0
 45 46  1  0
 46 48  1  0
 46 49  1  0
 47 45  2  0
 49 50  1  0
 50 51  1  0
 51 52  1  0
 52 53  1  0
 53 54  1  0
 54 55  1  0
 55 57  1  0
 57 56  1  0
 58 59  1  0
 59 61  1  0
 59  6  1  0
 60 58  2  0
 63 62  1  0
 63 61  1  0
 64 65  1  0
 64 58  1  0
 66 67  1  0
 66 65  2  0
 68 79  2  0
 69 67  1  0
 69 74  1  0
 70 80  1  0
 70 78  1  0
 71 77  1  0
 71 73  1  0
 72 78  1  0
 73 72  1  0
 74 73  2  0
 75 76  1  0
 75 69  2  0
 76 71  2  0
 77 70  1  0
 78 68  1  0
 80 82  2  0
 81 80  1  0
 83 81  1  0
 84 89  1  0
 85 81  1  0
 86 85  1  0
 87 88  1  0
 87 86  1  0
 88 84  1  0
 89 85  1  0
 89 90  2  0
 91 90  1  0
 92 91  2  0
 93 84  2  0
 93 92  1  0
 94 68  1  0
 94 95  1  0
 94104  1  0
 95 98  1  0
 96100  1  0
 96 95  1  0
 97 96  2  0
100 99  1  0
100102  1  0
102103  1  0
102101  1  0
104107  1  1
104105  1  0
106104  1  0
M  ISO  4   7 100  15 100  66 101  67 101
M  END
>  <TORSDO>  (4) 
F 31

>  <SCORE>  (4) 
12.519

>  <name>  (4) 
3

>  <ligand_id>  (4) 
3

>  <original_smiles>  (4) 
[H]c1c([H])c([H])c2c(c1[H])C([H])([H])C([H])([H])C([H])([H])C2([H])N([H])C(=O)C1([H])N(C(=O)C([H])(N([H])C(=O)C([H])(N([H])C([H])([H])[H])C([H])([H])[H])C(C([H])([H])[H])(C([H])([H])[H])C([H])([H])[H])C([H])([H])c2c([H])c(OC([H])([H])C([H])([H])C([H])([H])C(=O)N(c3c([H])c(C(=O)N([H])C([H])([H])C([H])([H])C([H])([H])C([H])([H])C([H])([H])C([H])([H])C([H])([H])C([H])([H])C([H])([H])[H])c([H])c(N([H])C(=O)N4C([H])([H])C([H])([H])C([H])([H])C([H])(n5nc(-c6c([H])c([H])c(Oc7c([H])c([H])c(F)c([H])c7F)c([H])c6[H])c(C(=O)N([H])[H])c5N([H])[H])C4([H])[H])c3[H])C([H])([H])C([H])([H])C([H])([H])[H])c([H])c([H])c2C1([H])[H]

>  <smiles>  (4) 
[H]c1c([H])c([H])c2c(c1[H])C([H])([H])C([H])([H])C([H])([H])C2([H])N([H])C(=O)C1([H])N(C(=O)C([H])(N([H])C(=O)C([H])(N([H])C([H])([H])[H])C([H])([H])[H])C(C([H])([H])[H])(C([H])([H])[H])C([H])([H])[H])C([H])([H])c2c([H])c(OC([H])([H])C([H])([H])C([H])([H])C(=O)N(c3c([H])c(C(=O)N([H])C([H])([H])C([H])([H])C([H])([H])C([H])([H])C([H])([H])C([H])([H])C([H])([H])C([H])([H])C([H])([H])[H])c([H])c(N([H])C(=O)N4C([H])([H])C([H])([H])C([H])([H])C([H])(n5nc(-c6c([H])c([H])c(Oc7c([H])c([H])c(F)c([H])c7F)c([H])c6[H])c(C(=O)N([H])[H])c5N([H])[H])C4([H])[H])c3[H])C([H])([H])C([H])([H])C([H])([H])[H])c([H])c([H])c2C1([H])[H]

$$$$
4:0:0
     RDKit          3D

 95102  0  0  1  0  0  0  0  0999 V2000
  -29.2960  -24.2500   18.8010 C   0  0  0  0  0  1  0  0  0  0  0  0
  -29.0740  -24.3840   20.3320 C   0  0  2  0  0  0  0  0  0  0  0  0
  -30.5140  -25.1630   22.3080 C   0  0  0  0  0  3  0  0  0  0  0  0
  -30.3000  -24.8950   21.0010 N   0  0  0  0  0  0  0  0  0  0  0  0
  -29.8120  -24.7510   23.2320 O   0  0  0  0  0  0  0  0  0  0  0  0
  -31.0860  -25.7280   20.1610 O   0  0  0  0  0  0  0  0  0  0  0  0
  -31.3960  -26.4100   20.7480 H   0  0  0  0  0  0  0  0  0  0  0  0
  -28.6830  -22.9580   20.8730 C   0  0  0  0  0  2  0  0  0  0  0  0
  -29.7850  -21.8620   20.8140 C   0  0  0  0  0  2  0  0  0  0  0  0
  -29.5860  -19.4080   20.3720 C   0  0  0  0  0  0  0  0  0  0  0  0
  -29.2990  -20.4970   21.1140 N   0  0  0  0  0  0  0  0  0  0  0  0
  -30.1670  -19.5010   19.2890 O   0  0  0  0  0  0  0  0  0  0  0  0
  -28.8060  -20.3550   21.9880 H   0  0  0  0  0  0  0  0  0  0  0  0
  -29.1860  -18.0040   20.8910 C   0  0  0  0  0  2  0  0  0  0  0  0
  -30.3050  -16.9410   20.6790 C   0  0  0  0  0  2  0  0  0  0  0  0
  -30.6190  -14.4870   20.4190 C   0  0  0  0  0  0  0  0  0  0  0  0
  -30.3520  -12.3090   19.3060 C   0  0  0  0  0  2  0  0  0  0  0  0
  -29.4000  -12.4910   18.1050 C   0  0  0  0  0  2  0  0  0  0  0  0
  -27.9320  -12.3230   18.5500 C   0  0  0  0  0  2  0  0  0  0  0  0
  -27.5880  -13.1590   19.8130 C   0  0  0  0  0  3  0  0  0  0  0  0
  -28.6610  -12.9760   20.9130 C   0  0  0  0  0  2  0  0  0  0  0  0
  -29.9710  -13.2960   20.3260 N   0  0  0  0  0  0  0  0  0  0  0  0
  -31.7440  -14.6710   19.9480 O   0  0  0  0  0  0  0  0  0  0  0  0
  -29.8930  -15.5310   20.8710 N   0  0  0  0  0  0  0  0  0  0  0  0
  -28.9720  -15.3380   21.2410 H   0  0  0  0  0  0  0  0  0  0  0  0
  -25.1870  -13.7160   20.5550 C   0  0  0  0  0  0  0  0  0  0  0  0
  -24.1420  -12.9220   20.9430 C   0  0  0  0  0  0  0  0  0  0  0  0
  -24.6320  -11.5800   20.9070 C   0  0  0  0  0  0  0  0  0  0  0  0
  -26.2480  -12.8560   20.3100 N   0  0  0  0  0  0  0  0  0  0  0  0
  -25.9170  -11.5670   20.5780 N   0  0  0  0  0  0  0  0  0  0  0  0
  -23.9350  -10.3030   21.1090 C   0  0  0  0  0  0  0  0  0  0  0  0
  -24.3860   -9.3560   22.0530 C   0  0  0  0  0  3  0  0  0  0  0  0
  -23.6900   -8.1410   22.2400 C   0  0  0  0  0  3  0  0  0  0  0  0
  -22.5240   -7.8690   21.4820 C   0  0  0  0  0  0  0  0  0  0  0  0
  -22.0940   -8.8070   20.5250 C   0  0  0  0  0  3  0  0  0  0  0  0
  -22.7940  -10.0110   20.3370 C   0  0  0  0  0  3  0  0  0  0  0  0
  -21.7960   -6.7080   21.5770 O   0  0  0  0  0  0  0  0  0  0  0  0
  -21.7430   -5.9850   22.7420 C   0  0  0  0  0  0  0  0  0  0  0  0
  -21.2710   -6.5480   23.9480 C   0  0  0  0  0  3  0  0  0  0  0  0
  -21.1680   -5.7480   25.1050 C   0  0  0  0  0  3  0  0  0  0  0  0
  -21.5270   -4.3870   25.0560 C   0  0  0  0  0  0  0  0  0  0  0  0
  -21.9920   -3.8260   23.8540 C   0  0  0  0  0  3  0  0  0  0  0  0
  -22.0970   -4.6210   22.7000 C   0  0  0  0  0  0  0  0  0  0  0  0
  -22.5250   -4.0680   21.5390 F   0  0  0  0  0  0  0  0  0  0  0  0
  -21.4240   -3.6180   26.1650 F   0  0  0  0  0  0  0  0  0  0  0  0
  -22.7370  -13.3700   21.2340 C   0  0  0  0  0  0  0  0  0  0  0  0
  -22.0320  -12.6640   22.1110 N   0  0  0  0  0  0  0  0  0  0  0  0
  -22.2690  -14.3840   20.7170 O   0  0  0  0  0  0  0  0  0  0  0  0
  -22.4200  -11.8470   22.5610 H   0  0  0  0  0  0  0  0  0  0  0  0
  -21.0920  -12.9510   22.3400 H   0  0  0  0  0  0  0  0  0  0  0  0
  -25.3210  -15.0890   20.3690 N   0  0  0  0  0  0  0  0  0  0  0  0
  -24.5450  -15.7320   20.4840 H   0  0  0  0  0  0  0  0  0  0  0  0
  -26.1590  -15.5410   20.0220 H   0  0  0  0  0  0  0  0  0  0  0  0
  -27.8840  -25.3630   20.5750 C   0  0  0  0  0  2  0  0  0  0  0  0
  -28.0050  -26.6330   19.9050 O   0  0  0  0  0  0  0  0  0  0  0  0
  -24.4480  -31.8800   23.1340 C   0  0  0  0  0  0  0  0  0  0  0  0
  -26.8640  -27.4060   19.9310 C   0  0  0  0  0  0  0  0  0  0  0  0
  -23.1510  -30.5400   21.5070 C   0  0  0  0  0  3  0  0  0  0  0  0
  -24.5150  -28.9800   20.0200 C   0  0  0  0  0  0  0  0  0  0  0  0
  -25.6790  -30.8260   21.2400 C   0  0  0  0  0  2  0  0  0  0  0  0
  -25.7040  -29.4640   20.5800 C   0  0  0  0  0  0  0  0  0  0  0  0
  -26.8830  -28.6840   20.5310 C   0  0  0  0  0  3  0  0  0  0  0  0
  -25.6620  -26.9400   19.3540 C   0  0  0  0  0  3  0  0  0  0  0  0
  -24.4890  -27.7170   19.4030 C   0  0  0  0  0  3  0  0  0  0  0  0
  -23.3000  -29.8750   20.1130 C   0  0  0  0  0  2  0  0  0  0  0  0
  -24.4470  -31.0940   22.0190 N   0  0  0  0  0  0  0  0  0  0  0  0
  -23.3930  -32.1780   23.7080 O   0  0  0  0  0  0  0  0  0  0  0  0
  -22.4930  -29.5270   22.4710 C   0  0  0  0  0  0  0  0  0  0  0  0
  -21.1620  -29.3860   22.3750 N   0  0  0  0  0  0  0  0  0  0  0  0
  -23.1790  -28.8720   23.2610 O   0  0  0  0  0  0  0  0  0  0  0  0
  -20.6710  -29.9640   21.7080 H   0  0  0  0  0  0  0  0  0  0  0  0
  -17.7670  -28.2920   22.9410 C   0  0  0  0  0  0  0  0  0  0  0  0
  -20.3370  -28.4640   23.1550 C   0  0  0  0  0  3  0  0  0  0  0  0
  -20.3800  -27.0370   22.5580 C   0  0  0  0  0  2  0  0  0  0  0  0
  -19.2450  -26.7640   21.5670 C   0  0  0  0  0  2  0  0  0  0  0  0
  -17.8840  -26.9460   22.2460 C   0  0  0  0  0  2  0  0  0  0  0  0
  -18.9190  -29.0120   23.3550 C   0  0  0  0  0  0  0  0  0  0  0  0
  -18.7570  -30.2750   23.9630 C   0  0  0  0  0  3  0  0  0  0  0  0
  -17.4730  -30.8150   24.1690 C   0  0  0  0  0  3  0  0  0  0  0  0
  -16.3360  -30.0890   23.7750 C   0  0  0  0  0  3  0  0  0  0  0  0
  -16.4840  -28.8320   23.1660 C   0  0  0  0  0  3  0  0  0  0  0  0
  -25.7740  -32.4570   23.7220 C   0  0  0  0  0  3  0  0  0  0  0  0
  -25.5200  -33.8560   24.0890 N   0  0  0  0  0  0  0  0  0  0  0  0
  -25.8720  -34.9130   23.3430 C   0  0  0  0  0  0  0  0  0  0  0  0
  -26.5140  -34.8090   22.2940 O   0  0  0  0  0  0  0  0  0  0  0  0
  -24.9550  -34.0150   24.9100 H   0  0  0  0  0  0  0  0  0  0  0  0
  -24.1990  -36.7680   23.0610 C   0  0  0  0  0  1  0  0  0  0  0  0
  -25.4400  -36.3060   23.8400 C   0  0  0  0  0  3  0  0  0  0  0  0
  -27.6180  -37.1000   24.6460 C   0  0  0  0  0  1  0  0  0  0  0  0
  -26.5040  -37.3270   23.7290 N   0  0  0  0  0  0  0  0  0  0  0  0
  -26.1310  -38.2560   23.9060 H   0  0  0  0  0  0  0  0  0  0  0  0
  -26.3110  -31.6430   24.9620 C   0  0  1  0  0  0  0  0  0  0  0  0
  -25.2490  -31.4150   26.0630 C   0  0  0  0  0  1  0  0  0  0  0  0
  -26.8380  -30.2580   24.5180 C   0  0  0  0  0  1  0  0  0  0  0  0
  -27.5060  -32.3870   25.6010 C   0  0  0  0  0  1  0  0  0  0  0  0
  2  1  1  6
  2 54  1  0
  2  8  1  0
  2  4  1  0
  3  5  2  0
  4  3  1  0
  6  7  1  0
  6  4  1  0
  9  8  1  0
  9 11  1  0
 10 14  1  0
 10 11  1  0
 11 13  1  0
 12 10  2  0
 15 24  1  0
 15 14  1  0
 16 24  1  0
 17 22  1  0
 18 19  1  0
 18 17  1  0
 20 19  1  0
 20 29  1  0
 20 21  1  0
 22 16  1  0
 22 21  1  0
 23 16  2  0
 24 25  1  0
 26 27  2  0
 27 46  1  0
 28 27  1  0
 28 31  1  0
 29 26  1  0
 29 30  1  0
 30 28  2  0
 31 32  1  0
 32 33  2  0
 34 37  1  0
 34 33  1  0
 35 34  2  0
 36 35  1  0
 36 31  2  0
 37 38  1  0
 38 39  1  0
 39 40  2  0
 41 40  1  0
 41 45  1  0
 42 41  2  0
 43 38  2  0
 43 42  1  0
 44 43  1  0
 46 47  1  0
 47 50  1  0
 47 49  1  0
 48 46  2  0
 51 52  1  0
 51 26  1  0
 53 51  1  0
 55 57  1  0
 55 54  1  0
 56 67  2  0
 57 62  1  0
 58 66  1  0
 58 68  1  0
 59 65  1  0
 59 61  1  0
 60 66  1  0
 61 60  1  0
 62 61  2  0
 63 64  1  0
 63 57  2  0
 64 59  2  0
 65 58  1  0
 66 56  1  0
 68 70  2  0
 69 68  1  0
 71 69  1  0
 72 81  2  0
 72 77  1  0
 73 69  1  0
 73 77  1  0
 74 73  1  0
 75 76  1  0
 75 74  1  0
 76 72  1  0
 77 78  2  0
 78 79  1  0
 80 79  2  0
 81 80  1  0
 82 56  1  0
 82 83  1  0
 82 92  1  0
 83 86  1  0
 84 88  1  0
 84 83  1  0
 85 84  2  0
 88 87  1  0
 90 88  1  0
 90 91  1  0
 90 89  1  0
 92 95  1  1
 92 93  1  0
 94 92  1  0
M  ISO  4  16 100  24 100  54 101  55 101
M  END
>  <TORSDO>  (5) 
F 24

>  <SCORE>  (5) 
-12.165

>  <name>  (5) 
4

>  <ligand_id>  (5) 
4

>  <original_smiles>  (5) 
[H]ON(C([H])=O)C(C([H])([H])[H])(C([H])([H])Oc1c([H])c([H])c2c(c1[H])C([H])([H])N(C(=O)C([H])(N([H])C(=O)C([H])(N([H])C([H])([H])[H])C([H])([H])[H])C(C([H])([H])[H])(C([H])([H])[H])C([H])([H])[H])C([H])(C(=O)N([H])C1([H])c3c([H])c([H])c([H])c([H])c3C([H])([H])C([H])([H])C1([H])[H])C2([H])[H])C([H])([H])C([H])([H])N([H])C(=O)C([H])([H])C([H])([H])N([H])C(=O)N1C([H])([H])C([H])([H])C([H])([H])C([H])(n2nc(-c3c([H])c([H])c(Oc4c([H])c([H])c(F)c([H])c4F)c([H])c3[H])c(C(=O)N([H])[H])c2N([H])[H])C1([H])[H]

>  <smiles>  (5) 
[H]ON(C([H])=O)C(C([H])([H])[H])(C([H])([H])Oc1c([H])c([H])c2c(c1[H])C([H])([H])N(C(=O)C([H])(N([H])C(=O)C([H])(N([H])C([H])([H])[H])C([H])([H])[H])C(C([H])([H])[H])(C([H])([H])[H])C([H])([H])[H])C([H])(C(=O)N([H])C1([H])c3c([H])c([H])c([H])c([H])c3C([H])([H])C([H])([H])C1([H])[H])C2([H])[H])C([H])([H])C([H])([H])N([H])C(=O)C([H])([H])C([H])([H])N([H])C(=O)N1C([H])([H])C([H])([H])C([H])([H])C([H])(n2nc(-c3c([H])c([H])c(Oc4c([H])c([H])c(F)c([H])c4F)c([H])c3[H])c(C(=O)N([H])[H])c2N([H])[H])C1([H])[H]

$$$$
5:0:0
     RDKit          3D

 93101  0  0  1  0  0  0  0  0999 V2000
  -31.4550  -21.0270   21.5190 C   0  0  0  0  0  2  0  0  0  0  0  0
  -30.2890  -19.1330   20.2810 C   0  0  0  0  0  3  0  0  0  0  0  0
  -31.3100  -18.6550   22.4360 C   0  0  0  0  0  3  0  0  0  0  0  0
  -30.9850  -19.5810   21.4220 C   0  0  0  0  0  0  0  0  0  0  0  0
  -29.9400  -17.7720   20.1350 C   0  0  0  0  0  0  0  0  0  0  0  0
  -30.9660  -17.2920   22.3070 C   0  0  0  0  0  0  0  0  0  0  0  0
  -30.3050  -16.8370   21.1410 C   0  0  0  0  0  0  0  0  0  0  0  0
  -29.1820  -17.3390   18.8910 C   0  0  0  0  0  1  0  0  0  0  0  0
  -31.3310  -16.3230   23.4190 C   0  0  0  0  0  1  0  0  0  0  0  0
  -30.5660  -14.5710   20.2150 C   0  0  0  0  0  0  0  0  0  0  0  0
  -30.1920  -12.5090   18.9150 C   0  0  0  0  0  2  0  0  0  0  0  0
  -29.1870  -12.8000   17.7820 C   0  0  0  0  0  2  0  0  0  0  0  0
  -27.7370  -12.6390   18.2780 C   0  0  0  0  0  2  0  0  0  0  0  0
  -27.4740  -13.3920   19.6090 C   0  0  0  0  0  3  0  0  0  0  0  0
  -28.5800  -13.0760   20.6410 C   0  0  0  0  0  2  0  0  0  0  0  0
  -29.8810  -13.4100   20.0340 N   0  0  0  0  0  0  0  0  0  0  0  0
  -31.6260  -14.8260   19.6330 O   0  0  0  0  0  0  0  0  0  0  0  0
  -29.9650  -15.4640   21.0180 N   0  0  0  0  0  0  0  0  0  0  0  0
  -29.1360  -15.1500   21.5010 H   0  0  0  0  0  0  0  0  0  0  0  0
  -25.0950  -13.9640   20.4120 C   0  0  0  0  0  0  0  0  0  0  0  0
  -24.0520  -13.1750   20.8160 C   0  0  0  0  0  0  0  0  0  0  0  0
  -24.5300  -11.8290   20.7560 C   0  0  0  0  0  0  0  0  0  0  0  0
  -26.1410  -13.0990   20.1350 N   0  0  0  0  0  0  0  0  0  0  0  0
  -25.8060  -11.8090   20.3950 N   0  0  0  0  0  0  0  0  0  0  0  0
  -23.8290  -10.5560   20.9640 C   0  0  0  0  0  0  0  0  0  0  0  0
  -24.2950   -9.6010   21.8940 C   0  0  0  0  0  3  0  0  0  0  0  0
  -23.5950   -8.3910   22.0900 C   0  0  0  0  0  3  0  0  0  0  0  0
  -22.4140   -8.1280   21.3550 C   0  0  0  0  0  0  0  0  0  0  0  0
  -21.9670   -9.0720   20.4150 C   0  0  0  0  0  3  0  0  0  0  0  0
  -22.6680  -10.2730   20.2170 C   0  0  0  0  0  3  0  0  0  0  0  0
  -21.6820   -6.9690   21.4610 O   0  0  0  0  0  0  0  0  0  0  0  0
  -21.6520   -6.2410   22.6230 C   0  0  0  0  0  0  0  0  0  0  0  0
  -21.2270   -6.8060   23.8450 C   0  0  0  0  0  3  0  0  0  0  0  0
  -21.1440   -6.0030   25.0000 C   0  0  0  0  0  3  0  0  0  0  0  0
  -21.4760   -4.6360   24.9350 C   0  0  0  0  0  0  0  0  0  0  0  0
  -21.8930   -4.0700   23.7170 C   0  0  0  0  0  3  0  0  0  0  0  0
  -21.9780   -4.8710   22.5630 C   0  0  0  0  0  0  0  0  0  0  0  0
  -22.3600   -4.3160   21.3880 F   0  0  0  0  0  0  0  0  0  0  0  0
  -21.3880   -3.8630   26.0410 F   0  0  0  0  0  0  0  0  0  0  0  0
  -22.6600  -13.6300   21.1510 C   0  0  0  0  0  0  0  0  0  0  0  0
  -21.9790  -12.9140   22.0380 N   0  0  0  0  0  0  0  0  0  0  0  0
  -22.1880  -14.6540   20.6600 O   0  0  0  0  0  0  0  0  0  0  0  0
  -22.3740  -12.0860   22.4570 H   0  0  0  0  0  0  0  0  0  0  0  0
  -21.0470  -13.2000   22.3040 H   0  0  0  0  0  0  0  0  0  0  0  0
  -25.2340  -15.3380   20.2390 N   0  0  0  0  0  0  0  0  0  0  0  0
  -24.4670  -15.9840   20.3870 H   0  0  0  0  0  0  0  0  0  0  0  0
  -26.0720  -15.7910   19.8970 H   0  0  0  0  0  0  0  0  0  0  0  0
  -30.4070  -21.9860   21.3720 O   0  0  0  0  0  0  0  0  0  0  0  0
  -30.9240  -23.3130   21.2830 C   0  0  0  0  0  2  0  0  0  0  0  0
  -29.8010  -24.3670   21.2890 C   0  0  0  0  0  2  0  0  0  0  0  0
  -30.3450  -25.7960   21.0810 C   0  0  0  0  0  2  0  0  0  0  0  0
  -29.2900  -26.9120   21.1700 C   0  0  0  0  0  2  0  0  0  0  0  0
  -28.3430  -26.7720   20.1150 O   0  0  0  0  0  0  0  0  0  0  0  0
  -24.5260  -31.9610   23.2340 C   0  0  0  0  0  0  0  0  0  0  0  0
  -27.2060  -27.5480   20.1700 C   0  0  0  0  0  0  0  0  0  0  0  0
  -23.3250  -30.5550   21.5880 C   0  0  0  0  0  3  0  0  0  0  0  0
  -24.7910  -29.0200   20.1700 C   0  0  0  0  0  0  0  0  0  0  0  0
  -25.8450  -30.9300   21.3930 C   0  0  0  0  0  2  0  0  0  0  0  0
  -25.9400  -29.5570   20.7670 C   0  0  0  0  0  0  0  0  0  0  0  0
  -27.1470  -28.8270   20.7740 C   0  0  0  0  0  3  0  0  0  0  0  0
  -26.0450  -27.0280   19.5620 C   0  0  0  0  0  3  0  0  0  0  0  0
  -24.8370  -27.7510   19.5670 C   0  0  0  0  0  3  0  0  0  0  0  0
  -23.5410  -29.8700   20.2100 C   0  0  0  0  0  2  0  0  0  0  0  0
  -24.5830  -31.1630   22.1310 N   0  0  0  0  0  0  0  0  0  0  0  0
  -23.4440  -32.2310   23.7730 O   0  0  0  0  0  0  0  0  0  0  0  0
  -22.6750  -29.5340   22.5480 C   0  0  0  0  0  0  0  0  0  0  0  0
  -21.3500  -29.3560   22.4240 N   0  0  0  0  0  0  0  0  0  0  0  0
  -23.3590  -28.9040   23.3600 O   0  0  0  0  0  0  0  0  0  0  0  0
  -20.8600  -29.9150   21.7380 H   0  0  0  0  0  0  0  0  0  0  0  0
  -17.9720  -28.1850   22.9350 C   0  0  0  0  0  0  0  0  0  0  0  0
  -20.5320  -28.4200   23.1930 C   0  0  0  0  0  3  0  0  0  0  0  0
  -20.6210  -26.9920   22.6070 C   0  0  0  0  0  2  0  0  0  0  0  0
  -19.5100  -26.6850   21.5960 C   0  0  0  0  0  2  0  0  0  0  0  0
  -18.1340  -26.8390   22.2480 C   0  0  0  0  0  2  0  0  0  0  0  0
  -19.0980  -28.9340   23.3630 C   0  0  0  0  0  0  0  0  0  0  0  0
  -18.8950  -30.1950   23.9630 C   0  0  0  0  0  3  0  0  0  0  0  0
  -17.5950  -30.7090   24.1380 C   0  0  0  0  0  3  0  0  0  0  0  0
  -16.4820  -29.9550   23.7250 C   0  0  0  0  0  3  0  0  0  0  0  0
  -16.6720  -28.6950   23.1300 C   0  0  0  0  0  3  0  0  0  0  0  0
  -25.8110  -32.5930   23.8560 C   0  0  0  0  0  3  0  0  0  0  0  0
  -25.5020  -33.9910   24.1800 N   0  0  0  0  0  0  0  0  0  0  0  0
  -25.8430  -35.0420   23.4220 C   0  0  0  0  0  0  0  0  0  0  0  0
  -26.5230  -34.9350   22.3970 O   0  0  0  0  0  0  0  0  0  0  0  0
  -24.9010  -34.1480   24.9770 H   0  0  0  0  0  0  0  0  0  0  0  0
  -24.1250  -36.8360   23.0410 C   0  0  0  0  0  1  0  0  0  0  0  0
  -25.3530  -36.4300   23.8710 C   0  0  0  0  0  3  0  0  0  0  0  0
  -27.4790  -37.3080   24.7320 C   0  0  0  0  0  1  0  0  0  0  0  0
  -26.3900  -37.4800   23.7720 N   0  0  0  0  0  0  0  0  0  0  0  0
  -25.9850  -38.4020   23.9150 H   0  0  0  0  0  0  0  0  0  0  0  0
  -26.3300  -31.8220   25.1320 C   0  0  1  0  0  0  0  0  0  0  0  0
  -25.2370  -31.5820   26.1990 C   0  0  0  0  0  1  0  0  0  0  0  0
  -26.9130  -30.4450   24.7360 C   0  0  0  0  0  1  0  0  0  0  0  0
  -27.4790  -32.6170   25.7940 C   0  0  0  0  0  1  0  0  0  0  0  0
  2  4  1  0
  4  1  1  0
  4  3  2  0
  5  2  2  0
  5  7  1  0
  6  3  1  0
  6  9  1  0
  7  6  2  0
  8  5  1  0
 10 18  1  0
 11 16  1  0
 12 13  1  0
 12 11  1  0
 14 13  1  0
 14 23  1  0
 14 15  1  0
 16 10  1  0
 16 15  1  0
 17 10  2  0
 18  7  1  0
 18 19  1  0
 20 21  2  0
 21 40  1  0
 22 21  1  0
 22 25  1  0
 23 24  1  0
 23 20  1  0
 24 22  2  0
 25 26  1  0
 26 27  2  0
 28 31  1  0
 28 27  1  0
 29 28  2  0
 30 29  1  0
 30 25  2  0
 31 32  1  0
 32 33  1  0
 33 34  2  0
 35 34  1  0
 35 39  1  0
 36 35  2  0
 37 32  2  0
 37 36  1  0
 38 37  1  0
 40 41  1  0
 41 44  1  0
 41 43  1  0
 42 40  2  0
 45 46  1  0
 45 20  1  0
 47 45  1  0
 48  1  1  0
 49 50  1  0
 49 48  1  0
 51 52  1  0
 51 50  1  0
 53 55  1  0
 53 52  1  0
 54 65  2  0
 55 60  1  0
 56 64  1  0
 56 66  1  0
 57 63  1  0
 57 59  1  0
 58 64  1  0
 59 60  2  0
 59 58  1  0
 61 62  1  0
 61 55  2  0
 62 57  2  0
 63 56  1  0
 64 54  1  0
 66 68  2  0
 67 66  1  0
 69 67  1  0
 70 79  2  0
 70 75  1  0
 71 67  1  0
 71 75  1  0
 72 71  1  0
 73 74  1  0
 73 72  1  0
 74 70  1  0
 75 76  2  0
 76 77  1  0
 78 77  2  0
 79 78  1  0
 80 54  1  0
 80 81  1  0
 80 90  1  0
 81 84  1  0
 82 86  1  0
 82 81  1  0
 83 82  2  0
 86 85  1  0
 88 86  1  0
 88 89  1  0
 88 87  1  0
 90 93  1  1
 90 91  1  0
 92 90  1  0
M  ISO  4  10 100  18 100  52 101  53 101
M  END
>  <TORSDO>  (6) 
F 22

>  <SCORE>  (6) 
-11.592

>  <name>  (6) 
5

>  <ligand_id>  (6) 
5

>  <original_smiles>  (6) 
[H]c1c([H])c([H])c2c(c1[H])C([H])([H])C([H])([H])C([H])([H])C2([H])N([H])C(=O)C1([H])N(C(=O)C([H])(N([H])C(=O)C([H])(N([H])C([H])([H])[H])C([H])([H])[H])C(C([H])([H])[H])(C([H])([H])[H])C([H])([H])[H])C([H])([H])c2c([H])c(OC([H])([H])C([H])([H])C([H])([H])C([H])([H])OC([H])([H])c3c([H])c(C([H])([H])[H])c(N([H])C(=O)N4C([H])([H])C([H])([H])C([H])([H])C([H])(n5nc(-c6c([H])c([H])c(Oc7c([H])c([H])c(F)c([H])c7F)c([H])c6[H])c(C(=O)N([H])[H])c5N([H])[H])C4([H])[H])c(C([H])([H])[H])c3[H])c([H])c([H])c2C1([H])[H]

>  <smiles>  (6) 
[H]c1c([H])c([H])c2c(c1[H])C([H])([H])C([H])([H])C([H])([H])C2([H])N([H])C(=O)C1([H])N(C(=O)C([H])(N([H])C(=O)C([H])(N([H])C([H])([H])[H])C([H])([H])[H])C(C([H])([H])[H])(C([H])([H])[H])C([H])([H])[H])C([H])([H])c2c([H])c(OC([H])([H])C([H])([H])C([H])([H])C([H])([H])OC([H])([H])c3c([H])c(C([H])([H])[H])c(N([H])C(=O)N4C([H])([H])C([H])([H])C([H])([H])C([H])(n5nc(-c6c([H])c([H])c(Oc7c([H])c([H])c(F)c([H])c7F)c([H])c6[H])c(C(=O)N([H])[H])c5N([H])[H])C4([H])[H])c(C([H])([H])[H])c3[H])c([H])c([H])c2C1([H])[H]

$$$$
6:0:0
     RDKit          3D

101109  0  0  1  0  0  0  0  0999 V2000
  -32.7030  -24.1920   24.5030 C   0  0  0  0  0  2  0  0  0  0  0  0
  -32.2330  -22.7550   24.2010 C   0  0  0  0  0  2  0  0  0  0  0  0
  -32.8280  -21.7440   25.1970 C   0  0  0  0  0  2  0  0  0  0  0  0
  -32.3000  -20.3090   25.0380 C   0  0  0  0  0  2  0  0  0  0  0  0
  -32.8190  -19.7120   23.8520 O   0  0  0  0  0  0  0  0  0  0  0  0
  -32.4480  -16.3350   22.3930 C   0  0  0  0  0  3  0  0  0  0  0  0
  -30.8180  -18.3800   23.3960 C   0  0  0  0  0  3  0  0  0  0  0  0
  -33.0340  -17.5060   22.9200 C   0  0  0  0  0  0  0  0  0  0  0  0
  -30.2280  -17.1950   22.9070 C   0  0  0  0  0  0  0  0  0  0  0  0
  -31.0420  -16.1810   22.3530 C   0  0  0  0  0  0  0  0  0  0  0  0
  -32.2200  -18.5510   23.4080 C   0  0  0  0  0  0  0  0  0  0  0  0
  -34.5460  -17.6080   22.9930 C   0  0  0  0  0  1  0  0  0  0  0  0
  -28.7190  -17.0380   22.9910 C   0  0  0  0  0  1  0  0  0  0  0  0
  -30.7990  -14.3270   20.7200 C   0  0  0  0  0  0  0  0  0  0  0  0
  -30.4090  -12.2840   19.3860 C   0  0  0  0  0  2  0  0  0  0  0  0
  -29.4790  -12.5340   18.1860 C   0  0  0  0  0  2  0  0  0  0  0  0
  -28.0070  -12.3820   18.6070 C   0  0  0  0  0  2  0  0  0  0  0  0
  -27.6680  -13.2000   19.8790 C   0  0  0  0  0  3  0  0  0  0  0  0
  -28.7040  -12.9410   20.9950 C   0  0  0  0  0  2  0  0  0  0  0  0
  -30.0520  -13.2210   20.4620 N   0  0  0  0  0  0  0  0  0  0  0  0
  -31.7780  -14.6420   20.0360 O   0  0  0  0  0  0  0  0  0  0  0  0
  -30.4350  -15.0110   21.8180 N   0  0  0  0  0  0  0  0  0  0  0  0
  -29.5780  -14.7030   22.2490 H   0  0  0  0  0  0  0  0  0  0  0  0
  -25.2630  -13.8150   20.5690 C   0  0  0  0  0  0  0  0  0  0  0  0
  -24.1860  -13.0440   20.9160 C   0  0  0  0  0  0  0  0  0  0  0  0
  -24.6400  -11.6900   20.8710 C   0  0  0  0  0  0  0  0  0  0  0  0
  -26.3060  -12.9310   20.3380 N   0  0  0  0  0  0  0  0  0  0  0  0
  -25.9320  -11.6460   20.5730 N   0  0  0  0  0  0  0  0  0  0  0  0
  -23.9050  -10.4290   21.0390 C   0  0  0  0  0  0  0  0  0  0  0  0
  -24.3600   -9.4210   21.9170 C   0  0  0  0  0  3  0  0  0  0  0  0
  -23.6290   -8.2250   22.0750 C   0  0  0  0  0  3  0  0  0  0  0  0
  -22.4270   -8.0270   21.3540 C   0  0  0  0  0  0  0  0  0  0  0  0
  -21.9900   -9.0250   20.4650 C   0  0  0  0  0  3  0  0  0  0  0  0
  -22.7220  -10.2130   20.3050 C   0  0  0  0  0  3  0  0  0  0  0  0
  -21.6640   -6.8870   21.4240 O   0  0  0  0  0  0  0  0  0  0  0  0
  -21.6860   -6.0730   22.5280 C   0  0  0  0  0  0  0  0  0  0  0  0
  -21.4010   -6.5640   23.8210 C   0  0  0  0  0  3  0  0  0  0  0  0
  -21.3660   -5.6790   24.9170 C   0  0  0  0  0  3  0  0  0  0  0  0
  -21.6050   -4.3050   24.7230 C   0  0  0  0  0  0  0  0  0  0  0  0
  -21.8820   -3.8140   23.4350 C   0  0  0  0  0  3  0  0  0  0  0  0
  -21.9190   -4.6960   22.3400 C   0  0  0  0  0  0  0  0  0  0  0  0
  -22.1660   -4.2140   21.0980 F   0  0  0  0  0  0  0  0  0  0  0  0
  -21.5630   -3.4540   25.7740 F   0  0  0  0  0  0  0  0  0  0  0  0
  -22.7880  -13.5250   21.1830 C   0  0  0  0  0  0  0  0  0  0  0  0
  -22.0520  -12.8240   22.0400 N   0  0  0  0  0  0  0  0  0  0  0  0
  -22.3580  -14.5560   20.6720 O   0  0  0  0  0  0  0  0  0  0  0  0
  -22.4130  -11.9900   22.4780 H   0  0  0  0  0  0  0  0  0  0  0  0
  -21.1140  -13.1270   22.2590 H   0  0  0  0  0  0  0  0  0  0  0  0
  -25.4370  -15.1860   20.4100 N   0  0  0  0  0  0  0  0  0  0  0  0
  -24.6720  -15.8430   20.5190 H   0  0  0  0  0  0  0  0  0  0  0  0
  -26.2950  -15.6260   20.1010 H   0  0  0  0  0  0  0  0  0  0  0  0
  -31.9110  -25.2900   23.7810 C   0  0  0  0  0  2  0  0  0  0  0  0
  -30.6570  -25.7990   24.5470 C   0  0  0  0  0  2  0  0  0  0  0  0
  -28.8280  -24.8410   23.1600 C   0  0  0  0  0  0  0  0  0  0  0  0
  -29.4490  -24.9750   24.3580 N   0  0  0  0  0  0  0  0  0  0  0  0
  -27.9820  -23.9630   22.9560 O   0  0  0  0  0  0  0  0  0  0  0  0
  -29.4190  -23.2830   26.2150 C   0  0  0  0  0  1  0  0  0  0  0  0
  -28.7890  -24.5430   25.6060 C   0  0  0  0  0  2  0  0  0  0  0  0
  -29.0810  -25.9150   22.0840 C   0  0  0  0  0  2  0  0  0  0  0  0
  -28.5750  -25.5860   20.6700 C   0  0  0  0  0  2  0  0  0  0  0  0
  -28.4570  -26.8160   19.9670 O   0  0  0  0  0  0  0  0  0  0  0  0
  -24.6060  -31.8690   23.2070 C   0  0  0  0  0  0  0  0  0  0  0  0
  -27.2610  -27.4790   20.0850 C   0  0  0  0  0  0  0  0  0  0  0  0
  -23.3980  -30.4880   21.5410 C   0  0  0  0  0  3  0  0  0  0  0  0
  -24.8560  -28.9530   20.1230 C   0  0  0  0  0  0  0  0  0  0  0  0
  -25.9210  -30.8500   21.3560 C   0  0  0  0  0  2  0  0  0  0  0  0
  -26.0110  -29.4830   20.7110 C   0  0  0  0  0  0  0  0  0  0  0  0
  -27.2160  -28.7530   20.6920 C   0  0  0  0  0  3  0  0  0  0  0  0
  -26.0860  -26.9390   19.5250 C   0  0  0  0  0  3  0  0  0  0  0  0
  -24.8840  -27.6740   19.5370 C   0  0  0  0  0  3  0  0  0  0  0  0
  -23.6130  -29.8090   20.1600 C   0  0  0  0  0  2  0  0  0  0  0  0
  -24.6580  -31.0840   22.0920 N   0  0  0  0  0  0  0  0  0  0  0  0
  -23.5260  -32.1420   23.7480 O   0  0  0  0  0  0  0  0  0  0  0  0
  -22.7420  -29.4630   22.4950 C   0  0  0  0  0  0  0  0  0  0  0  0
  -21.4150  -29.3000   22.3750 N   0  0  0  0  0  0  0  0  0  0  0  0
  -23.4240  -28.8190   23.2970 O   0  0  0  0  0  0  0  0  0  0  0  0
  -20.9250  -29.8810   21.7080 H   0  0  0  0  0  0  0  0  0  0  0  0
  -18.0310  -28.1380   22.8540 C   0  0  0  0  0  0  0  0  0  0  0  0
  -20.5890  -28.3620   23.1350 C   0  0  0  0  0  3  0  0  0  0  0  0
  -20.6770  -26.9360   22.5430 C   0  0  0  0  0  2  0  0  0  0  0  0
  -19.5710  -26.6390   21.5230 C   0  0  0  0  0  2  0  0  0  0  0  0
  -18.1910  -26.7940   22.1660 C   0  0  0  0  0  2  0  0  0  0  0  0
  -19.1560  -28.8830   23.2940 C   0  0  0  0  0  0  0  0  0  0  0  0
  -18.9470  -30.1470   23.8920 C   0  0  0  0  0  3  0  0  0  0  0  0
  -17.6460  -30.6570   24.0580 C   0  0  0  0  0  3  0  0  0  0  0  0
  -16.5350  -29.9070   23.6310 C   0  0  0  0  0  3  0  0  0  0  0  0
  -16.7300  -28.6500   23.0350 C   0  0  0  0  0  3  0  0  0  0  0  0
  -25.8960  -32.4820   23.8390 C   0  0  0  0  0  3  0  0  0  0  0  0
  -25.5810  -33.8620   24.2310 N   0  0  0  0  0  0  0  0  0  0  0  0
  -25.9010  -34.9480   23.5150 C   0  0  0  0  0  0  0  0  0  0  0  0
  -26.5560  -34.8940   22.4700 O   0  0  0  0  0  0  0  0  0  0  0  0
  -24.9960  -33.9780   25.0460 H   0  0  0  0  0  0  0  0  0  0  0  0
  -24.1460  -36.7340   23.2650 C   0  0  0  0  0  1  0  0  0  0  0  0
  -25.4070  -36.3100   24.0350 C   0  0  0  0  0  3  0  0  0  0  0  0
  -27.5550  -37.1820   24.8470 C   0  0  0  0  0  1  0  0  0  0  0  0
  -26.4260  -37.3770   23.9420 N   0  0  0  0  0  0  0  0  0  0  0  0
  -26.0150  -38.2840   24.1430 H   0  0  0  0  0  0  0  0  0  0  0  0
  -26.4410  -31.6590   25.0700 C   0  0  1  0  0  0  0  0  0  0  0  0
  -25.3710  -31.3710   26.1460 C   0  0  0  0  0  1  0  0  0  0  0  0
  -27.0240  -30.3030   24.6060 C   0  0  0  0  0  1  0  0  0  0  0  0
  -27.5980  -32.4310   25.7450 C   0  0  0  0  0  1  0  0  0  0  0  0
  2  1  1  0
  2  3  1  0
  4  3  1  0
  5  4  1  0
  6  8  1  0
  7 11  1  0
  8 12  1  0
  8 11  2  0
  9 13  1  0
  9  7  2  0
 10  6  2  0
 10  9  1  0
 11  5  1  0
 14 22  1  0
 15 20  1  0
 16 17  1  0
 16 15  1  0
 18 17  1  0
 18 27  1  0
 18 19  1  0
 20 14  1  0
 20 19  1  0
 21 14  2  0
 22 23  1  0
 22 10  1  0
 24 25  2  0
 25 44  1  0
 26 25  1  0
 26 29  1  0
 27 24  1  0
 27 28  1  0
 28 26  2  0
 29 30  1  0
 30 31  2  0
 32 35  1  0
 32 31  1  0
 33 32  2  0
 34 33  1  0
 34 29  2  0
 35 36  1  0
 36 37  1  0
 37 38  2  0
 39 38  1  0
 39 43  1  0
 40 39  2  0
 41 36  2  0
 41 40  1  0
 42 41  1  0
 44 45  1  0
 45 48  1  0
 45 47  1  0
 46 44  2  0
 49 50  1  0
 49 24  1  0
 51 49  1  0
 52  1  1  0
 52 53  1  0
 54 55  1  0
 55 53  1  0
 55 58  1  0
 56 54  2  0
 58 57  1  0
 59 54  1  0
 60 59  1  0
 61 63  1  0
 61 60  1  0
 62 73  2  0
 63 68  1  0
 64 72  1  0
 64 74  1  0
 65 71  1  0
 65 67  1  0
 66 72  1  0
 67 66  1  0
 68 67  2  0
 69 70  1  0
 69 63  2  0
 70 65  2  0
 71 64  1  0
 72 62  1  0
 74 76  2  0
 75 74  1  0
 77 75  1  0
 78 87  2  0
 78 83  1  0
 79 75  1  0
 79 83  1  0
 80 79  1  0
 81 82  1  0
 81 80  1  0
 82 78  1  0
 83 84  2  0
 84 85  1  0
 86 85  2  0
 87 86  1  0
 88 62  1  0
 88 89  1  0
 88 98  1  0
 89 92  1  0
 90 94  1  0
 90 89  1  0
 91 90  2  0
 94 93  1  0
 96 94  1  0
 96 97  1  0
 96 95  1  0
 98101  1  1
 98 99  1  0
100 98  1  0
M  ISO  4  14 100  22 100  60 101  61 101
M  END
>  <TORSDO>  (7) 
F 27

>  <SCORE>  (7) 
32.115

>  <name>  (7) 
6

>  <ligand_id>  (7) 
6

>  <original_smiles>  (7) 
[H]c1c([H])c([H])c2c(c1[H])C([H])([H])C([H])([H])C([H])([H])C2([H])N([H])C(=O)C1([H])N(C(=O)C([H])(N([H])C(=O)C([H])(N([H])C([H])([H])[H])C([H])([H])[H])C(C([H])([H])[H])(C([H])([H])[H])C([H])([H])[H])C([H])([H])c2c([H])c(OC([H])([H])C([H])([H])C(=O)N(C([H])([H])C([H])([H])[H])C([H])([H])C([H])([H])C([H])([H])C([H])([H])C([H])([H])C([H])([H])Oc3c([H])c(C([H])([H])[H])c(N([H])C(=O)N4C([H])([H])C([H])([H])C([H])([H])C([H])(n5nc(-c6c([H])c([H])c(Oc7c([H])c([H])c(F)c([H])c7F)c([H])c6[H])c(C(=O)N([H])[H])c5N([H])[H])C4([H])[H])c([H])c3C([H])([H])[H])c([H])c([H])c2C1([H])[H]

>  <smiles>  (7) 
[H]c1c([H])c([H])c2c(c1[H])C([H])([H])C([H])([H])C([H])([H])C2([H])N([H])C(=O)C1([H])N(C(=O)C([H])(N([H])C(=O)C([H])(N([H])C([H])([H])[H])C([H])([H])[H])C(C([H])([H])[H])(C([H])([H])[H])C([H])([H])[H])C([H])([H])c2c([H])c(OC([H])([H])C([H])([H])C(=O)N(C([H])([H])C([H])([H])[H])C([H])([H])C([H])([H])C([H])([H])C([H])([H])C([H])([H])C([H])([H])Oc3c([H])c(C([H])([H])[H])c(N([H])C(=O)N4C([H])([H])C([H])([H])C([H])([H])C([H])(n5nc(-c6c([H])c([H])c(Oc7c([H])c([H])c(F)c([H])c7F)c([H])c6[H])c(C(=O)N([H])[H])c5N([H])[H])C4([H])[H])c([H])c3C([H])([H])[H])c([H])c([H])c2C1([H])[H]

$$$$
7:0:0
     RDKit          3D

107115  0  0  1  0  0  0  0  0999 V2000
  -29.8180  -22.4900   25.0110 N   0  0  1  0  0  4  0  0  0  0  0  0
  -28.9950  -21.9490   24.7880 H   0  0  0  0  0  0  0  0  0  0  0  0
  -30.8850  -21.4790   25.2680 C   0  0  0  0  0  2  0  0  0  0  0  0
  -32.1180  -19.0400   21.8700 C   0  0  0  0  0  3  0  0  0  0  0  0
  -31.1580  -18.5630   22.7770 C   0  0  0  0  0  3  0  0  0  0  0  0
  -31.2960  -20.6550   24.0440 C   0  0  0  0  0  0  0  0  0  0  0  0
  -32.6830  -20.3180   22.0340 C   0  0  0  0  0  0  0  0  0  0  0  0
  -30.7620  -19.3550   23.8690 C   0  0  0  0  0  0  0  0  0  0  0  0
  -32.2490  -21.1460   23.1090 C   0  0  0  0  0  0  0  0  0  0  0  0
  -29.5970  -18.7180   24.9760 Cl  0  0  0  0  0  0  0  0  0  0  0  0
  -32.8870  -22.7520   23.2780 Cl  0  0  0  0  0  0  0  0  0  0  0  0
  -34.9210  -21.1710   21.7440 C   0  0  0  0  0  1  0  0  0  0  0  0
  -33.6850  -20.7010   21.1240 N   0  0  0  0  0  0  0  0  0  0  0  0
  -33.2030  -21.3880   19.9270 C   0  0  0  0  0  2  0  0  0  0  0  0
  -33.1510  -20.4380   18.7230 C   0  0  0  0  0  2  0  0  0  0  0  0
  -35.4220  -20.1190   17.7540 C   0  0  0  0  0  0  0  0  0  0  0  0
  -37.5330  -19.4320   16.6830 C   0  0  0  0  0  2  0  0  0  0  0  0
  -37.2450  -18.4360   15.5420 C   0  0  0  0  0  2  0  0  0  0  0  0
  -37.1790  -16.9950   16.0810 C   0  0  0  0  0  2  0  0  0  0  0  0
  -36.2570  -16.8640   17.3230 C   0  0  0  0  0  3  0  0  0  0  0  0
  -36.5800  -17.9590   18.3660 C   0  0  0  0  0  2  0  0  0  0  0  0
  -36.4830  -19.2730   17.7000 N   0  0  0  0  0  0  0  0  0  0  0  0
  -35.3400  -21.1450   17.0740 O   0  0  0  0  0  0  0  0  0  0  0  0
  -34.4270  -19.7430   18.5640 N   0  0  0  0  0  0  0  0  0  0  0  0
  -34.5700  -18.9170   19.1260 H   0  0  0  0  0  0  0  0  0  0  0  0
  -35.3190  -14.6170   18.1650 C   0  0  0  0  0  0  0  0  0  0  0  0
  -35.9340  -13.4910   18.6440 C   0  0  0  0  0  0  0  0  0  0  0  0
  -37.3350  -13.7750   18.6420 C   0  0  0  0  0  0  0  0  0  0  0  0
  -36.3360  -15.5230   17.9050 N   0  0  0  0  0  0  0  0  0  0  0  0
  -37.5510  -15.0230   18.2460 N   0  0  0  0  0  0  0  0  0  0  0  0
  -38.4860  -12.9130   18.9430 C   0  0  0  0  0  0  0  0  0  0  0  0
  -39.5160  -13.3340   19.8130 C   0  0  0  0  0  3  0  0  0  0  0  0
  -40.6030  -12.4800   20.1000 C   0  0  0  0  0  3  0  0  0  0  0  0
  -40.6660  -11.1920   19.5180 C   0  0  0  0  0  0  0  0  0  0  0  0
  -39.6500  -10.7880   18.6340 C   0  0  0  0  0  3  0  0  0  0  0  0
  -38.5710  -11.6390   18.3460 C   0  0  0  0  0  3  0  0  0  0  0  0
  -41.6960  -10.3060   19.7190 O   0  0  0  0  0  0  0  0  0  0  0  0
  -42.4800  -10.3550   20.8440 C   0  0  0  0  0  0  0  0  0  0  0  0
  -41.9250  -10.3060   22.1410 C   0  0  0  0  0  3  0  0  0  0  0  0
  -42.7700  -10.2900   23.2680 C   0  0  0  0  0  3  0  0  0  0  0  0
  -44.1680  -10.3110   23.1010 C   0  0  0  0  0  0  0  0  0  0  0  0
  -44.7230  -10.3540   21.8100 C   0  0  0  0  0  3  0  0  0  0  0  0
  -43.8800  -10.3720   20.6850 C   0  0  0  0  0  0  0  0  0  0  0  0
  -44.4200  -10.3920   19.4420 F   0  0  0  0  0  0  0  0  0  0  0  0
  -44.9810  -10.2870   24.1830 F   0  0  0  0  0  0  0  0  0  0  0  0
  -35.2730  -12.1890   18.9940 C   0  0  0  0  0  0  0  0  0  0  0  0
  -35.8210  -11.4650   19.9640 N   0  0  0  0  0  0  0  0  0  0  0  0
  -34.2340  -11.8290   18.4410 O   0  0  0  0  0  0  0  0  0  0  0  0
  -36.6620  -11.7680   20.4320 H   0  0  0  0  0  0  0  0  0  0  0  0
  -35.3930  -10.5930   20.2420 H   0  0  0  0  0  0  0  0  0  0  0  0
  -33.9890  -14.9380   17.9130 N   0  0  0  0  0  0  0  0  0  0  0  0
  -33.2360  -14.2700   18.0430 H   0  0  0  0  0  0  0  0  0  0  0  0
  -33.6750  -15.8150   17.5150 H   0  0  0  0  0  0  0  0  0  0  0  0
  -29.4780  -23.2430   26.2500 C   0  0  0  0  0  2  0  0  0  0  0  0
  -28.1440  -24.0130   26.1480 C   0  0  0  0  0  2  0  0  0  0  0  0
  -26.5950  -25.7040   27.2940 C   0  0  0  0  0  1  0  0  0  0  0  0
  -27.9000  -24.9040   27.3780 C   0  0  0  0  0  2  0  0  0  0  0  0
  -30.0990  -23.3810   23.8470 C   0  0  0  0  0  2  0  0  0  0  0  0
  -29.2180  -23.0490   22.6280 C   0  0  0  0  0  2  0  0  0  0  0  0
  -29.6340  -23.8430   21.3750 C   0  0  0  0  0  2  0  0  0  0  0  0
  -29.0950  -23.2590   20.0570 C   0  0  0  0  0  2  0  0  0  0  0  0
  -27.5720  -25.0000   19.1120 C   0  0  0  0  0  0  0  0  0  0  0  0
  -27.7940  -23.8210   19.7070 N   0  0  0  0  0  0  0  0  0  0  0  0
  -28.4790  -25.7850   18.8140 O   0  0  0  0  0  0  0  0  0  0  0  0
  -26.9810  -23.2520   19.8980 H   0  0  0  0  0  0  0  0  0  0  0  0
  -26.1090  -25.3230   18.8010 C   0  0  0  0  0  2  0  0  0  0  0  0
  -25.9550  -26.7050   18.4850 O   0  0  0  0  0  0  0  0  0  0  0  0
  -20.1180  -25.1840   14.7560 C   0  0  0  0  0  0  0  0  0  0  0  0
  -25.2630  -26.8820   17.3190 C   0  0  0  0  0  0  0  0  0  0  0  0
  -21.9560  -26.2550   13.4930 C   0  0  0  0  0  3  0  0  0  0  0  0
  -23.8570  -27.2050   14.9020 C   0  0  0  0  0  0  0  0  0  0  0  0
  -21.6680  -26.6850   15.9960 C   0  0  0  0  0  2  0  0  0  0  0  0
  -23.1680  -26.8710   16.0750 C   0  0  0  0  0  0  0  0  0  0  0  0
  -23.8660  -26.7090   17.2890 C   0  0  0  0  0  3  0  0  0  0  0  0
  -25.9510  -27.2210   16.1370 C   0  0  0  0  0  3  0  0  0  0  0  0
  -25.2530  -27.3810   14.9260 C   0  0  0  0  0  3  0  0  0  0  0  0
  -23.0310  -27.3650   13.6470 C   0  0  0  0  0  2  0  0  0  0  0  0
  -21.2170  -25.9880   14.7700 N   0  0  0  0  0  0  0  0  0  0  0  0
  -19.6930  -24.7010   13.6980 O   0  0  0  0  0  0  0  0  0  0  0  0
  -22.6310  -24.9980   12.9040 C   0  0  0  0  0  0  0  0  0  0  0  0
  -22.7650  -24.9630   11.5680 N   0  0  0  0  0  0  0  0  0  0  0  0
  -23.0450  -24.0980   13.6410 O   0  0  0  0  0  0  0  0  0  0  0  0
  -22.3960  -25.7380   11.0360 H   0  0  0  0  0  0  0  0  0  0  0  0
  -23.4660  -23.8330    8.2110 C   0  0  0  0  0  0  0  0  0  0  0  0
  -23.4020  -23.8990   10.7950 C   0  0  0  0  0  3  0  0  0  0  0  0
  -24.9340  -24.1010   10.7270 C   0  0  0  0  0  2  0  0  0  0  0  0
  -25.3860  -24.8780    9.4880 C   0  0  0  0  0  2  0  0  0  0  0  0
  -24.9510  -24.1550    8.2100 C   0  0  0  0  0  2  0  0  0  0  0  0
  -22.7360  -23.7270    9.4250 C   0  0  0  0  0  0  0  0  0  0  0  0
  -21.3510  -23.4610    9.3680 C   0  0  0  0  0  3  0  0  0  0  0  0
  -20.6990  -23.2950    8.1320 C   0  0  0  0  0  3  0  0  0  0  0  0
  -21.4300  -23.3830    6.9350 C   0  0  0  0  0  3  0  0  0  0  0  0
  -22.8100  -23.6490    6.9760 C   0  0  0  0  0  3  0  0  0  0  0  0
  -19.3300  -24.8510   16.0620 C   0  0  0  0  0  3  0  0  0  0  0  0
  -17.9590  -24.4970   15.6720 N   0  0  0  0  0  0  0  0  0  0  0  0
  -16.9180  -25.3390   15.7110 C   0  0  0  0  0  0  0  0  0  0  0  0
  -17.0010  -26.4880   16.1550 O   0  0  0  0  0  0  0  0  0  0  0  0
  -17.8260  -23.5890   15.2530 H   0  0  0  0  0  0  0  0  0  0  0  0
  -15.3550  -25.3440   13.7460 C   0  0  0  0  0  1  0  0  0  0  0  0
  -15.5700  -24.8230   15.1750 C   0  0  0  0  0  3  0  0  0  0  0  0
  -14.3820  -24.4920   17.2990 C   0  0  0  0  0  1  0  0  0  0  0  0
  -14.4160  -25.2010   16.0220 N   0  0  0  0  0  0  0  0  0  0  0  0
  -13.5400  -25.0220   15.5380 H   0  0  0  0  0  0  0  0  0  0  0  0
  -19.9870  -23.6910   16.9050 C   0  0  1  0  0  0  0  0  0  0  0  0
  -20.2950  -22.4190   16.0790 C   0  0  0  0  0  1  0  0  0  0  0  0
  -21.3090  -24.1740   17.5470 C   0  0  0  0  0  1  0  0  0  0  0  0
  -19.0480  -23.2910   18.0670 C   0  0  0  0  0  1  0  0  0  0  0  0
  1  3  1  0
  1 54  1  0
  1  2  1  6
  4  7  2  0
  4  5  1  0
  5  8  2  0
  6  3  1  0
  7  9  1  0
  8  6  1  0
  8 10  1  0
  9 11  1  0
  9  6  2  0
 13 12  1  0
 13  7  1  0
 14 13  1  0
 15 14  1  0
 16 24  1  0
 17 22  1  0
 18 19  1  0
 18 17  1  0
 20 19  1  0
 20 29  1  0
 20 21  1  0
 22 16  1  0
 22 21  1  0
 23 16  2  0
 24 15  1  0
 24 25  1  0
 26 27  2  0
 27 46  1  0
 28 27  1  0
 28 31  1  0
 29 26  1  0
 29 30  1  0
 30 28  2  0
 31 32  1  0
 32 33  2  0
 34 37  1  0
 34 33  1  0
 35 34  2  0
 36 35  1  0
 36 31  2  0
 37 38  1  0
 38 39  1  0
 39 40  2  0
 41 40  1  0
 41 45  1  0
 42 41  2  0
 43 38  2  0
 43 42  1  0
 44 43  1  0
 46 47  1  0
 47 50  1  0
 47 49  1  0
 48 46  2  0
 51 52  1  0
 51 26  1  0
 53 51  1  0
 55 54  1  0
 55 57  1  0
 56 57  1  0
 58  1  1  0
 59 58  1  0
 60 59  1  0
 61 60  1  0
 62 63  1  0
 63 65  1  0
 63 61  1  0
 64 62  2  0
 66 62  1  0
 67 66  1  0
 68 78  1  0
 69 67  1  0
 70 80  1  0
 70 77  1  0
 70 78  1  0
 71 76  2  0
 71 73  1  0
 72 73  1  0
 73 74  2  0
 74 69  1  0
 75 69  2  0
 76 75  1  0
 77 71  1  0
 78 72  1  0
 79 68  2  0
 80 82  2  0
 81 80  1  0
 83 81  1  0
 84 89  1  0
 85 81  1  0
 86 85  1  0
 87 86  1  0
 88 84  1  0
 88 87  1  0
 89 85  1  0
 90 89  2  0
 91 90  1  0
 92 93  1  0
 92 91  2  0
 93 84  2  0
 94 68  1  0
 94104  1  0
 95 96  1  0
 95 94  1  0
 96 97  2  0
 98 95  1  0
100 99  1  0
100 96  1  0
100102  1  0
102101  1  0
103102  1  0
104106  1  1
104107  1  0
105104  1  0
M  ISO  4  16 100  24 100  66 101  67 101
M  END
>  <TORSDO>  (8) 
F 30

>  <SCORE>  (8) 
7.738

>  <name>  (8) 
7

>  <ligand_id>  (8) 
7

>  <original_smiles>  (8) 
[H]c1c([H])c([H])c2c(c1[H])C([H])([H])C([H])([H])C([H])([H])C2([H])N([H])C(=O)C1([H])N(C(=O)C([H])(N([H])C(=O)C([H])(N([H])C([H])([H])[H])C([H])([H])[H])C(C([H])([H])[H])(C([H])([H])[H])C([H])([H])[H])C([H])([H])c2c([H])c(OC([H])([H])C(=O)N([H])C([H])([H])C([H])([H])C([H])([H])C([H])([H])[N+]([H])(C([H])([H])c3c(Cl)c([H])c([H])c(N(C([H])([H])[H])C([H])([H])C([H])([H])N([H])C(=O)N4C([H])([H])C([H])([H])C([H])([H])C([H])(n5nc(-c6c([H])c([H])c(Oc7c([H])c([H])c(F)c([H])c7F)c([H])c6[H])c(C(=O)N([H])[H])c5N([H])[H])C4([H])[H])c3Cl)C([H])([H])C([H])([H])C([H])([H])C([H])([H])[H])c([H])c([H])c2C1([H])[H]

>  <smiles>  (8) 
[H]c1c([H])c([H])c2c(c1[H])C([H])([H])C([H])([H])C([H])([H])C2([H])N([H])C(=O)C1([H])N(C(=O)C([H])(N([H])C(=O)C([H])(N([H])C([H])([H])[H])C([H])([H])[H])C(C([H])([H])[H])(C([H])([H])[H])C([H])([H])[H])C([H])([H])c2c([H])c(OC([H])([H])C(=O)N([H])C([H])([H])C([H])([H])C([H])([H])C([H])([H])[N+]([H])(C([H])([H])c3c(Cl)c([H])c([H])c(N(C([H])([H])[H])C([H])([H])C([H])([H])N([H])C(=O)N4C([H])([H])C([H])([H])C([H])([H])C([H])(n5nc(-c6c([H])c([H])c(Oc7c([H])c([H])c(F)c([H])c7F)c([H])c6[H])c(C(=O)N([H])[H])c5N([H])[H])C4([H])[H])c3Cl)C([H])([H])C([H])([H])C([H])([H])C([H])([H])[H])c([H])c([H])c2C1([H])[H]

$$$$
8:0:0
     RDKit          3D

108116  0  0  1  0  0  0  0  0999 V2000
  -26.4710  -19.2620   19.9500 C   0  0  0  0  0  2  0  0  0  0  0  0
  -27.9350  -18.8980   20.2000 C   0  0  0  0  0  0  0  0  0  0  0  0
  -28.6820  -19.8930   20.6970 N   0  0  0  0  0  0  0  0  0  0  0  0
  -28.3470  -17.7590   19.9720 O   0  0  0  0  0  0  0  0  0  0  0  0
  -28.1530  -20.7240   20.9160 H   0  0  0  0  0  0  0  0  0  0  0  0
  -31.0980  -19.6190   21.2510 C   0  0  0  0  0  3  0  0  0  0  0  0
  -32.4410  -19.9240   20.9370 C   0  0  0  0  0  3  0  0  0  0  0  0
  -30.3600  -20.8930   19.3110 C   0  0  0  0  0  3  0  0  0  0  0  0
  -30.0530  -20.1180   20.4410 C   0  0  0  0  0  0  0  0  0  0  0  0
  -31.7000  -21.1670   18.9780 C   0  0  0  0  0  0  0  0  0  0  0  0
  -32.7520  -20.7190   19.8050 C   0  0  0  0  0  0  0  0  0  0  0  0
  -31.6800  -21.6050   16.5710 C   0  0  0  0  0  0  0  0  0  0  0  0
  -32.3770  -20.3940   14.5420 C   0  0  0  0  0  2  0  0  0  0  0  0
  -31.3870  -19.3010   14.1040 C   0  0  0  0  0  2  0  0  0  0  0  0
  -31.6750  -17.9750   14.8280 C   0  0  0  0  0  2  0  0  0  0  0  0
  -31.8280  -18.1570   16.3590 C   0  0  0  0  0  3  0  0  0  0  0  0
  -32.8040  -19.3160   16.6690 C   0  0  0  0  0  2  0  0  0  0  0  0
  -32.3140  -20.5390   16.0050 N   0  0  0  0  0  0  0  0  0  0  0  0
  -30.9890  -22.3970   15.9280 O   0  0  0  0  0  0  0  0  0  0  0  0
  -32.0110  -21.9240   17.8280 N   0  0  0  0  0  0  0  0  0  0  0  0
  -31.9030  -22.9150   17.9880 H   0  0  0  0  0  0  0  0  0  0  0  0
  -31.6470  -16.2070   18.0360 C   0  0  0  0  0  0  0  0  0  0  0  0
  -32.3940  -15.0730   18.2070 C   0  0  0  0  0  0  0  0  0  0  0  0
  -33.4340  -15.1380   17.2320 C   0  0  0  0  0  0  0  0  0  0  0  0
  -32.2460  -16.9100   17.0020 N   0  0  0  0  0  0  0  0  0  0  0  0
  -33.3570  -16.2740   16.5490 N   0  0  0  0  0  0  0  0  0  0  0  0
  -34.4670  -14.1580   16.8720 C   0  0  0  0  0  0  0  0  0  0  0  0
  -35.8330  -14.5120   16.8090 C   0  0  0  0  0  3  0  0  0  0  0  0
  -36.8080  -13.5470   16.4770 C   0  0  0  0  0  3  0  0  0  0  0  0
  -36.4250  -12.2120   16.2100 C   0  0  0  0  0  0  0  0  0  0  0  0
  -35.0620  -11.8680   16.2550 C   0  0  0  0  0  3  0  0  0  0  0  0
  -34.0910  -12.8310   16.5790 C   0  0  0  0  0  3  0  0  0  0  0  0
  -37.3000  -11.2150   15.8520 O   0  0  0  0  0  0  0  0  0  0  0  0
  -38.6110  -11.2330   16.2520 C   0  0  0  0  0  0  0  0  0  0  0  0
  -38.9720  -11.3380   17.6140 C   0  0  0  0  0  3  0  0  0  0  0  0
  -40.3290  -11.2820   17.9880 C   0  0  0  0  0  3  0  0  0  0  0  0
  -41.3250  -11.1120   17.0070 C   0  0  0  0  0  0  0  0  0  0  0  0
  -40.9670  -11.0020   15.6510 C   0  0  0  0  0  3  0  0  0  0  0  0
  -39.6140  -11.0590   15.2760 C   0  0  0  0  0  0  0  0  0  0  0  0
  -39.2700  -10.9310   13.9700 F   0  0  0  0  0  0  0  0  0  0  0  0
  -42.6280  -11.0500   17.3650 F   0  0  0  0  0  0  0  0  0  0  0  0
  -32.1060  -13.9460   19.1600 C   0  0  0  0  0  0  0  0  0  0  0  0
  -33.1450  -13.3230   19.7040 N   0  0  0  0  0  0  0  0  0  0  0  0
  -30.9550  -13.6390   19.4630 O   0  0  0  0  0  0  0  0  0  0  0  0
  -34.0930  -13.5830   19.4750 H   0  0  0  0  0  0  0  0  0  0  0  0
  -32.9900  -12.5740   20.3670 H   0  0  0  0  0  0  0  0  0  0  0  0
  -30.5090  -16.6950   18.6650 N   0  0  0  0  0  0  0  0  0  0  0  0
  -30.0960  -16.2370   19.4700 H   0  0  0  0  0  0  0  0  0  0  0  0
  -30.1240  -17.6140   18.4970 H   0  0  0  0  0  0  0  0  0  0  0  0
  -34.0240  -21.0970   19.4280 O   0  0  0  0  0  0  0  0  0  0  0  0
  -35.0120  -21.3890   20.4070 C   0  0  0  0  0  2  0  0  0  0  0  0
  -35.8080  -20.1220   20.7670 C   0  0  0  0  0  2  0  0  0  0  0  0
  -38.0710  -21.3050   21.1480 C   0  0  0  0  0  1  0  0  0  0  0  0
  -36.9890  -20.3730   21.7210 C   0  0  0  0  0  2  0  0  0  0  0  0
  -26.1770  -19.2910   18.4300 C   0  0  0  0  0  2  0  0  0  0  0  0
  -24.8720  -19.9940   18.0130 C   0  0  0  0  0  2  0  0  0  0  0  0
  -25.0250  -21.4040   17.4010 C   0  0  0  0  0  2  0  0  0  0  0  0
  -24.6590  -22.5690   18.3350 C   0  0  0  0  0  2  0  0  0  0  0  0
  -25.6510  -22.7870   19.4910 C   0  0  0  0  0  2  0  0  0  0  0  0
  -25.6360  -24.2460   19.9690 C   0  0  0  0  0  2  0  0  0  0  0  0
  -26.1810  -24.4360   21.3930 C   0  0  0  0  0  2  0  0  0  0  0  0
  -26.6490  -25.8740   21.6670 C   0  0  0  0  0  2  0  0  0  0  0  0
  -28.2660  -27.2990   20.4400 C   0  0  0  0  0  0  0  0  0  0  0  0
  -27.9330  -26.1490   21.0330 N   0  0  0  0  0  0  0  0  0  0  0  0
  -27.5110  -28.2740   20.4110 O   0  0  0  0  0  0  0  0  0  0  0  0
  -28.6200  -25.4080   21.0170 H   0  0  0  0  0  0  0  0  0  0  0  0
  -29.6450  -27.3550   19.7780 C   0  0  0  0  0  2  0  0  0  0  0  0
  -29.7890  -26.2230   18.9110 O   0  0  0  0  0  0  0  0  0  0  0  0
  -32.5640  -30.5340   13.9390 C   0  0  0  0  0  0  0  0  0  0  0  0
  -30.1670  -26.4420   17.6060 C   0  0  0  0  0  0  0  0  0  0  0  0
  -31.5080  -28.4520   13.1100 C   0  0  0  0  0  3  0  0  0  0  0  0
  -30.9130  -26.7320   14.8940 C   0  0  0  0  0  0  0  0  0  0  0  0
  -32.5390  -28.5520   15.4440 C   0  0  0  0  0  2  0  0  0  0  0  0
  -31.5040  -27.5370   15.8750 C   0  0  0  0  0  0  0  0  0  0  0  0
  -31.1430  -27.3930   17.2280 C   0  0  0  0  0  3  0  0  0  0  0  0
  -29.5860  -25.6310   16.6100 C   0  0  0  0  0  3  0  0  0  0  0  0
  -29.9480  -25.7750   15.2560 C   0  0  0  0  0  3  0  0  0  0  0  0
  -31.3710  -26.9470   13.4700 C   0  0  0  0  0  2  0  0  0  0  0  0
  -32.2010  -29.2420   14.1780 N   0  0  0  0  0  0  0  0  0  0  0  0
  -32.3730  -31.0560   12.8320 O   0  0  0  0  0  0  0  0  0  0  0  0
  -30.1070  -29.0010   12.7540 C   0  0  0  0  0  0  0  0  0  0  0  0
  -29.6470  -28.7080   11.5280 N   0  0  0  0  0  0  0  0  0  0  0  0
  -29.4510  -29.6430   13.5780 O   0  0  0  0  0  0  0  0  0  0  0  0
  -30.2480  -28.1820   10.9100 H   0  0  0  0  0  0  0  0  0  0  0  0
  -27.5140  -28.4370    8.6270 C   0  0  0  0  0  0  0  0  0  0  0  0
  -28.3410  -29.0840   10.9880 C   0  0  0  0  0  3  0  0  0  0  0  0
  -27.2290  -28.1500   11.5220 C   0  0  0  0  0  2  0  0  0  0  0  0
  -26.9490  -26.9580   10.6010 C   0  0  0  0  0  2  0  0  0  0  0  0
  -26.5250  -27.4440    9.2110 C   0  0  0  0  0  2  0  0  0  0  0  0
  -28.3770  -29.1970    9.4600 C   0  0  0  0  0  0  0  0  0  0  0  0
  -29.3020  -30.0800    8.8630 C   0  0  0  0  0  3  0  0  0  0  0  0
  -29.3700  -30.2150    7.4650 C   0  0  0  0  0  3  0  0  0  0  0  0
  -28.5020  -29.4730    6.6450 C   0  0  0  0  0  3  0  0  0  0  0  0
  -27.5750  -28.5910    7.2260 C   0  0  0  0  0  3  0  0  0  0  0  0
  -33.2580  -31.4080   15.0310 C   0  0  0  0  0  3  0  0  0  0  0  0
  -34.3430  -32.1520   14.3790 N   0  0  0  0  0  0  0  0  0  0  0  0
  -35.6300  -31.7800   14.3900 C   0  0  0  0  0  0  0  0  0  0  0  0
  -36.0410  -30.8020   15.0190 O   0  0  0  0  0  0  0  0  0  0  0  0
  -34.0720  -32.9320   13.8000 H   0  0  0  0  0  0  0  0  0  0  0  0
  -36.9240  -31.9280   12.2380 C   0  0  0  0  0  1  0  0  0  0  0  0
  -36.6200  -32.6310   13.5710 C   0  0  0  0  0  3  0  0  0  0  0  0
  -37.7170  -33.8170   15.4200 C   0  0  0  0  0  1  0  0  0  0  0  0
  -37.8840  -32.9130   14.2840 N   0  0  0  0  0  0  0  0  0  0  0  0
  -38.5700  -33.3190   13.6550 H   0  0  0  0  0  0  0  0  0  0  0  0
  -32.2660  -32.3910   15.7660 C   0  0  1  0  0  0  0  0  0  0  0  0
  -31.4380  -33.2720   14.8010 C   0  0  0  0  0  1  0  0  0  0  0  0
  -31.2760  -31.6030   16.6540 C   0  0  0  0  0  1  0  0  0  0  0  0
  -33.0580  -33.3290   16.7080 C   0  0  0  0  0  1  0  0  0  0  0  0
  1  2  1  0
  2  3  1  0
  3  5  1  0
  4  2  2  0
  7  6  1  0
  8  9  1  0
  9  3  1  0
  9  6  2  0
 10  8  2  0
 10 11  1  0
 11  7  2  0
 12 20  1  0
 13 18  1  0
 14 13  1  0
 14 15  1  0
 16 15  1  0
 16 17  1  0
 16 25  1  0
 18 12  1  0
 18 17  1  0
 19 12  2  0
 20 21  1  0
 20 10  1  0
 22 23  2  0
 22 47  1  0
 23 42  1  0
 24 23  1  0
 25 22  1  0
 26 25  1  0
 26 24  2  0
 27 24  1  0
 28 27  1  0
 29 28  2  0
 30 31  2  0
 30 29  1  0
 31 32  1  0
 32 27  2  0
 33 30  1  0
 33 34  1  0
 34 35  1  0
 35 36  2  0
 37 41  1  0
 37 36  1  0
 38 37  2  0
 39 38  1  0
 39 34  2  0
 40 39  1  0
 42 44  2  0
 42 43  1  0
 43 46  1  0
 45 43  1  0
 47 48  1  0
 49 47  1  0
 50 11  1  0
 50 51  1  0
 51 52  1  0
 52 54  1  0
 53 54  1  0
 55  1  1  0
 56 55  1  0
 57 56  1  0
 57 58  1  0
 58 59  1  0
 59 60  1  0
 60 61  1  0
 61 62  1  0
 63 64  1  0
 64 62  1  0
 65 63  2  0
 66 64  1  0
 67 63  1  0
 68 67  1  0
 69 79  1  0
 70 68  1  0
 71 81  1  0
 71 78  1  0
 71 79  1  0
 72 77  2  0
 72 74  1  0
 73 74  1  0
 74 75  2  0
 75 70  1  0
 76 70  2  0
 77 76  1  0
 78 72  1  0
 79 73  1  0
 80 69  2  0
 81 83  2  0
 82 81  1  0
 84 82  1  0
 85 89  1  0
 85 90  1  0
 86 87  1  0
 86 82  1  0
 88 87  1  0
 89 88  1  0
 90 86  1  0
 91 90  2  0
 92 91  1  0
 93 94  1  0
 93 92  2  0
 94 85  2  0
 95 69  1  0
 95105  1  0
 96 97  1  0
 96 95  1  0
 97 98  2  0
 99 96  1  0
101100  1  0
101103  1  0
101 97  1  0
103102  1  0
104103  1  0
105107  1  1
105108  1  0
106105  1  0
M  ISO  4  12 100  20 100  67 101  68 101
M  END
>  <TORSDO>  (9) 
F 32

>  <SCORE>  (9) 
-2.750

>  <name>  (9) 
8

>  <ligand_id>  (9) 
8

>  <original_smiles>  (9) 
[H]c1c([H])c([H])c2c(c1[H])C([H])([H])C([H])([H])C([H])([H])C2([H])N([H])C(=O)C1([H])N(C(=O)C([H])(N([H])C(=O)C([H])(N([H])C([H])([H])[H])C([H])([H])[H])C(C([H])([H])[H])(C([H])([H])[H])C([H])([H])[H])C([H])([H])c2c([H])c(OC([H])([H])C(=O)N([H])C([H])([H])C([H])([H])C([H])([H])C([H])([H])C([H])([H])C([H])([H])C([H])([H])C([H])([H])C([H])([H])C(=O)N([H])c3c([H])c([H])c(OC([H])([H])C([H])([H])C([H])([H])C([H])([H])[H])c(N([H])C(=O)N4C([H])([H])C([H])([H])C([H])([H])C([H])(n5nc(-c6c([H])c([H])c(Oc7c([H])c([H])c(F)c([H])c7F)c([H])c6[H])c(C(=O)N([H])[H])c5N([H])[H])C4([H])[H])c3[H])c([H])c([H])c2C1([H])[H]

>  <smiles>  (9) 
[H]c1c([H])c([H])c2c(c1[H])C([H])([H])C([H])([H])C([H])([H])C2([H])N([H])C(=O)C1([H])N(C(=O)C([H])(N([H])C(=O)C([H])(N([H])C([H])([H])[H])C([H])([H])[H])C(C([H])([H])[H])(C([H])([H])[H])C([H])([H])[H])C([H])([H])c2c([H])c(OC([H])([H])C(=O)N([H])C([H])([H])C([H])([H])C([H])([H])C([H])([H])C([H])([H])C([H])([H])C([H])([H])C([H])([H])C([H])([H])C(=O)N([H])c3c([H])c([H])c(OC([H])([H])C([H])([H])C([H])([H])C([H])([H])[H])c(N([H])C(=O)N4C([H])([H])C([H])([H])C([H])([H])C([H])(n5nc(-c6c([H])c([H])c(Oc7c([H])c([H])c(F)c([H])c7F)c([H])c6[H])c(C(=O)N([H])[H])c5N([H])[H])C4([H])[H])c3[H])c([H])c([H])c2C1([H])[H]

$$$$
9:0:0
     RDKit          3D

114120  0  0  1  0  0  0  0  0999 V2000
  -28.1650  -10.0460   22.8540 N   0  0  2  0  0  4  0  0  0  0  0  0
  -27.3440   -9.4720   22.9260 H   0  0  0  0  0  0  0  0  0  0  0  0
  -26.3030  -11.6810   23.1710 C   0  0  0  0  0  2  0  0  0  0  0  0
  -27.6140  -11.5200   22.8970 C   0  0  0  0  0  0  0  0  0  0  0  0
  -28.6510  -12.6730   22.7240 C   0  0  0  0  0  2  0  0  0  0  0  0
  -28.4130  -14.1920   22.3540 C   0  0  0  0  0  0  0  0  0  0  0  0
  -29.5480  -14.8600   22.0030 N   0  0  0  0  0  0  0  0  0  0  0  0
  -27.2890  -14.7100   22.3830 O   0  0  0  0  0  0  0  0  0  0  0  0
  -30.3370  -14.2340   22.0010 H   0  0  0  0  0  0  0  0  0  0  0  0
  -30.0030  -16.2740   21.7750 C   0  0  0  0  0  3  0  0  0  0  0  0
  -30.3240  -16.6630   20.2640 C   0  0  0  0  0  3  0  0  0  0  0  0
  -31.2340  -17.9390   19.9280 C   0  0  0  0  0  2  0  0  0  0  0  0
  -30.7580  -19.1100   18.9560 C   0  0  0  0  0  3  0  0  0  0  0  0
  -31.7770  -19.6400   17.8360 C   0  0  0  0  0  3  0  0  0  0  0  0
  -31.3340  -20.8580   16.8960 C   0  0  0  0  0  2  0  0  0  0  0  0
  -31.9320  -21.0170   15.4090 C   0  0  0  0  0  3  0  0  0  0  0  0
  -31.4200  -22.2490   14.5270 C   0  0  0  0  0  3  0  0  0  0  0  0
  -31.9380  -22.4820   13.1500 O   0  0  0  0  0  0  0  0  0  0  0  0
  -28.5430  -28.0910   10.2980 C   0  0  0  0  0  0  0  0  0  0  0  0
  -30.9700  -22.9190   12.2470 C   0  0  0  0  0  0  0  0  0  0  0  0
  -27.3160  -25.9440   10.3270 C   0  0  0  0  0  3  0  0  0  0  0  0
  -28.7290  -23.8590   10.7610 C   0  0  0  0  0  0  0  0  0  0  0  0
  -29.8720  -25.9840   10.1180 C   0  0  0  0  0  2  0  0  0  0  0  0
  -29.8970  -24.6330   10.8150 C   0  0  0  0  0  0  0  0  0  0  0  0
  -31.0290  -24.1630   11.5480 C   0  0  0  0  0  3  0  0  0  0  0  0
  -29.8100  -22.1370   12.0970 C   0  0  0  0  0  3  0  0  0  0  0  0
  -28.6910  -22.6100   11.3910 C   0  0  0  0  0  3  0  0  0  0  0  0
  -27.5370  -24.4380   10.0250 C   0  0  0  0  0  2  0  0  0  0  0  0
  -28.5950  -26.7270   10.2690 N   0  0  0  0  0  0  0  0  0  0  0  0
  -27.4640  -28.6910   10.3260 O   0  0  0  0  0  0  0  0  0  0  0  0
  -26.5740  -26.0920   11.6740 C   0  0  0  0  0  0  0  0  0  0  0  0
  -25.2320  -26.0670   11.6310 N   0  0  0  0  0  0  0  0  0  0  0  0
  -27.2060  -26.2010   12.7320 O   0  0  0  0  0  0  0  0  0  0  0  0
  -24.7850  -25.9850   10.7270 H   0  0  0  0  0  0  0  0  0  0  0  0
  -21.7530  -26.2270   12.6070 C   0  0  0  0  0  0  0  0  0  0  0  0
  -24.3320  -26.1530   12.7820 C   0  0  0  0  0  3  0  0  0  0  0  0
  -24.1450  -24.7720   13.4500 C   0  0  0  0  0  2  0  0  0  0  0  0
  -22.9300  -24.0040   12.9180 C   0  0  0  0  0  2  0  0  0  0  0  0
  -21.6470  -24.8090   13.1460 C   0  0  0  0  0  2  0  0  0  0  0  0
  -23.0150  -26.8510   12.4250 C   0  0  0  0  0  0  0  0  0  0  0  0
  -23.0630  -28.1550   11.8870 C   0  0  0  0  0  3  0  0  0  0  0  0
  -21.8810  -28.8340   11.5380 C   0  0  0  0  0  3  0  0  0  0  0  0
  -20.6330  -28.2180   11.7370 C   0  0  0  0  0  3  0  0  0  0  0  0
  -20.5700  -26.9190   12.2730 C   0  0  0  0  0  3  0  0  0  0  0  0
  -29.8450  -28.9550   10.2580 C   0  0  0  0  0  3  0  0  0  0  0  0
  -30.2700  -29.5030   11.6750 C   0  0  1  0  0  0  0  0  0  0  0  0
  -29.1370  -30.2430   12.4200 C   0  0  0  0  0  1  0  0  0  0  0  0
  -30.7610  -28.3550   12.5900 C   0  0  0  0  0  1  0  0  0  0  0  0
  -31.4530  -30.4880   11.5200 C   0  0  0  0  0  1  0  0  0  0  0  0
  -29.6060  -30.0620    9.3230 N   0  0  0  0  0  0  0  0  0  0  0  0
  -29.9610  -30.0570    8.0300 C   0  0  0  0  0  0  0  0  0  0  0  0
  -30.5940  -29.1320    7.5140 O   0  0  0  0  0  0  0  0  0  0  0  0
  -29.0410  -30.8280    9.6550 H   0  0  0  0  0  0  0  0  0  0  0  0
  -28.2940  -30.9320    6.3630 C   0  0  0  0  0  1  0  0  0  0  0  0
  -29.5520  -31.2730    7.1780 C   0  0  0  0  0  3  0  0  0  0  0  0
  -31.7550  -32.3340    6.9650 C   0  0  0  0  0  1  0  0  0  0  0  0
  -30.6180  -31.7390    6.2670 N   0  0  0  0  0  0  0  0  0  0  0  0
  -30.2550  -32.4230    5.6090 H   0  0  0  0  0  0  0  0  0  0  0  0
  -28.9250   -9.7420   24.1030 C   0  0  0  0  0  2  0  0  0  0  0  0
  -28.0500   -9.1640   25.2580 C   0  0  0  0  0  2  0  0  0  0  0  0
  -26.8040  -10.0670   25.4870 C   0  0  0  0  0  2  0  0  0  0  0  0
  -25.7530   -9.6200   26.5460 C   0  0  0  0  0  2  0  0  0  0  0  0
  -23.4740   -9.8430   25.5860 C   0  0  0  0  0  1  0  0  0  0  0  0
  -23.8970  -10.7010   27.8290 C   0  0  0  0  0  1  0  0  0  0  0  0
  -24.4910  -10.4160   26.4980 N   0  0  1  0  0  4  0  0  0  0  0  0
  -24.7440  -11.3170   26.1240 H   0  0  0  0  0  0  0  0  0  0  0  0
  -28.8890   -9.4400   21.6510 C   0  0  0  0  0  2  0  0  0  0  0  0
  -28.1180   -8.7020   20.3870 C   0  0  0  0  0  2  0  0  0  0  0  0
  -27.8220   -9.3320   18.8540 C   0  0  0  0  0  2  0  0  0  0  0  0
  -29.9460  -10.1490   19.1250 C   0  0  0  0  0  2  0  0  0  0  0  0
  -31.0090  -11.1380   19.3970 C   0  0  0  0  0  1  0  0  0  0  0  0
  -29.4610  -13.3190   17.8460 C   0  0  0  0  0  3  0  0  0  0  0  0
  -28.6720  -10.5650   18.4260 C   0  0  0  0  0  0  0  0  0  0  0  0
  -30.9110  -13.0740   18.6810 C   0  0  0  0  0  3  0  0  0  0  0  0
  -28.3980  -12.0340   17.7530 C   0  0  0  0  0  0  0  0  0  0  0  0
  -27.1870  -12.2600   17.1830 F   0  0  0  0  0  0  0  0  0  0  0  0
  -32.4790  -14.0470   20.2670 C   0  0  0  0  0  0  0  0  0  0  0  0
  -33.1240  -12.0150   19.4440 C   0  0  0  0  0  2  0  0  0  0  0  0
  -32.5000  -11.5230   17.7330 C   0  0  0  0  0  2  0  0  0  0  0  0
  -30.6940  -11.3500   17.2970 C   0  0  0  0  0  1  0  0  0  0  0  0
  -29.1810  -12.5170   19.9180 C   0  0  0  0  0  3  0  0  0  0  0  0
  -30.5320  -12.8620   21.1660 C   0  0  0  0  0  3  0  0  0  0  0  0
  -32.1970  -12.8570   20.6710 N   0  0  0  0  0  0  0  0  0  0  0  0
  -33.5720  -14.5720   20.4440 O   0  0  0  0  0  0  0  0  0  0  0  0
  -31.7020  -14.2060   19.1720 N   0  0  0  0  0  0  0  0  0  0  0  0
  -31.7530  -15.0710   18.6560 H   0  0  0  0  0  0  0  0  0  0  0  0
  -26.8950  -13.7350   19.7590 C   0  0  0  0  0  3  0  0  0  0  0  0
  -25.6890  -13.1670   19.9850 C   0  0  0  0  0  0  0  0  0  0  0  0
  -25.9190  -11.8310   20.3730 C   0  0  0  0  0  0  0  0  0  0  0  0
  -27.7740  -12.7240   20.1200 N   0  0  0  0  0  0  0  0  0  0  0  0
  -27.1610  -11.6660   20.6110 N   0  0  0  0  0  2  0  0  0  0  0  0
  -25.0590  -10.6930   20.6030 C   0  0  0  0  0  0  0  0  0  0  0  0
  -25.2800   -9.8510   21.7040 C   0  0  0  0  0  3  0  0  0  0  0  0
  -24.6280   -8.6220   21.8020 C   0  0  0  0  0  3  0  0  0  0  0  0
  -23.5630   -8.3450   20.9140 C   0  0  0  0  0  0  0  0  0  0  0  0
  -23.2700   -9.2470   19.8650 C   0  0  0  0  0  3  0  0  0  0  0  0
  -24.0290  -10.4160   19.6870 C   0  0  0  0  0  3  0  0  0  0  0  0
  -22.7710   -7.2330   21.0340 O   0  0  0  0  0  0  0  0  0  0  0  0
  -22.3620   -6.7760   22.2650 C   0  0  0  0  0  0  0  0  0  0  0  0
  -21.6110   -7.5750   23.1640 C   0  0  0  0  0  3  0  0  0  0  0  0
  -21.2200   -7.0430   24.4060 C   0  0  0  0  0  3  0  0  0  0  0  0
  -21.5220   -5.7080   24.7280 C   0  0  0  0  0  0  0  0  0  0  0  0
  -22.2370   -4.9090   23.8240 C   0  0  0  0  0  3  0  0  0  0  0  0
  -22.6640   -5.4440   22.5980 C   0  0  0  0  0  0  0  0  0  0  0  0
  -23.3510   -4.6660   21.7320 F   0  0  0  0  0  0  0  0  0  0  0  0
  -21.1120   -5.1940   25.9100 F   0  0  0  0  0  0  0  0  0  0  0  0
  -24.3590  -13.7790   19.8410 C   0  0  0  0  0  0  0  0  0  0  0  0
  -23.4880  -13.4430   20.7740 N   0  0  0  0  0  0  0  0  0  0  0  0
  -24.1230  -14.6120   18.9670 O   0  0  0  0  0  0  0  0  0  0  0  0
  -23.7400  -12.8590   21.5610 H   0  0  0  0  0  0  0  0  0  0  0  0
  -22.5890  -13.8990   20.7610 H   0  0  0  0  0  0  0  0  0  0  0  0
  -27.2990  -14.9960   19.2960 N   0  0  0  0  0  0  0  0  0  0  0  0
  -26.6410  -15.7370   19.0990 H   0  0  0  0  0  0  0  0  0  0  0  0
  -28.2450  -15.3330   19.2480 H   0  0  0  0  0  0  0  0  0  0  0  0
  1  4  1  0
  1  2  1  1
  1 59  1  0
  4  3  2  0
  5  4  1  0
  6  8  2  0
  6  5  1  0
  7  6  1  0
  9  7  1  0
 10  7  1  0
 11 10  2  0
 12 11  1  0
 13 12  1  0
 14 13  2  0
 15 14  1  0
 16 15  1  0
 17 16  2  0
 18 17  1  0
 19 30  2  0
 20 18  1  0
 21 31  1  0
 22 24  2  0
 22 27  1  0
 23 29  1  0
 23 24  1  0
 24 25  1  0
 25 20  2  0
 26 20  1  0
 27 26  2  0
 28 21  1  0
 28 22  1  0
 29 19  1  0
 29 21  1  0
 31 33  2  0
 32 31  1  0
 34 32  1  0
 35 39  1  0
 36 32  1  0
 36 37  1  0
 38 39  1  0
 38 37  1  0
 40 35  1  0
 40 36  1  0
 41 40  2  0
 42 43  2  0
 42 41  1  0
 43 44  1  0
 44 35  2  0
 45 19  1  0
 45 46  1  0
 46 47  1  1
 46 48  1  0
 49 46  1  0
 50 53  1  0
 50 45  1  0
 51 50  1  0
 52 51  2  0
 55 54  1  0
 55 51  1  0
 57 56  1  0
 57 55  1  0
 58 57  1  0
 59 60  1  0
 60 61  1  0
 61 62  1  0
 63 65  1  0
 65 62  1  0
 65 64  1  0
 65 66  1  6
 67  1  1  0
 68 67  1  0
 69 68  1  0
 70 71  1  0
 72 74  2  0
 73 69  1  0
 73 70  1  0
 74 85  1  0
 75 72  1  0
 75 73  2  0
 76 75  1  0
 77 84  2  0
 77 83  1  0
 78 83  1  0
 79 78  1  0
 80 79  1  0
 81 90  1  0
 81 82  2  0
 83 82  1  0
 85 77  1  0
 86 85  1  0
 87112  1  0
 87 88  1  0
 87 90  1  0
 88 89  2  0
 89 92  1  0
 89 91  1  0
 90 91  1  0
 92 93  1  0
 93 94  2  0
 95 98  1  0
 95 94  1  0
 96 95  2  0
 97 96  1  0
 97 92  2  0
 98 99  1  0
 99104  2  0
 99100  1  0
100101  2  0
101102  1  0
102106  1  0
103102  2  0
104103  1  0
105104  1  0
107 88  1  0
107108  1  0
108110  1  0
109107  2  0
111108  1  0
113112  1  0
114112  1  0
M  ISO  4  17 101  18 101  77 100  85 100
M  END
>  <TORSDO>  (10) 
F 36

>  <SCORE>  (10) 
15.346

>  <name>  (10) 
9

>  <ligand_id>  (10) 
9

>  <original_smiles>  (10) 
[H]C([H])=C(C([H])([H])C(=O)N([H])C([H])([H])C([H])([H])C([H])([H])C([H])([H])C([H])([H])C([H])([H])C([H])([H])C([H])([H])Oc1c([H])c([H])c2c(c1[H])C([H])([H])N(C(=O)C([H])(N([H])C(=O)C([H])(N([H])C([H])([H])[H])C([H])([H])[H])C(C([H])([H])[H])(C([H])([H])[H])C([H])([H])[H])C([H])(C(=O)N([H])C1([H])c3c([H])c([H])c([H])c([H])c3C([H])([H])C([H])([H])C1([H])[H])C2([H])[H])[N+]([H])(C([H])([H])C([H])([H])C([H])([H])c1c([H])c([H])c(N([H])C(=O)N2C([H])([H])C([H])([H])C([H])([H])C([H])(n3nc(-c4c([H])c([H])c(Oc5c([H])c([H])c(F)c([H])c5F)c([H])c4[H])c(C(=O)N([H])[H])c3N([H])[H])C2([H])[H])c([H])c1F)C([H])([H])C([H])([H])C([H])([H])C([H])([H])[N+]([H])(C([H])([H])[H])C([H])([H])[H]

>  <smiles>  (10) 
[H]C([H])=C(C([H])([H])C(=O)N([H])C([H])([H])C([H])([H])C([H])([H])C([H])([H])C([H])([H])C([H])([H])C([H])([H])C([H])([H])Oc1c([H])c([H])c2c(c1[H])C([H])([H])N(C(=O)C([H])(N([H])C(=O)C([H])(N([H])C([H])([H])[H])C([H])([H])[H])C(C([H])([H])[H])(C([H])([H])[H])C([H])([H])[H])C([H])(C(=O)N([H])C1([H])c3c([H])c([H])c([H])c([H])c3C([H])([H])C([H])([H])C1([H])[H])C2([H])[H])[N+]([H])(C([H])([H])C([H])([H])C([H])([H])c1c([H])c([H])c(N([H])C(=O)N2C([H])([H])C([H])([H])C([H])([H])C([H])(n3nc(-c4c([H])c([H])c(Oc5c([H])c([H])c(F)c([H])c5F)c([H])c4[H])c(C(=O)N([H])[H])c3N([H])[H])C2([H])[H])c([H])c1F)C([H])([H])C([H])([H])C([H])([H])C([H])([H])[N+]([H])(C([H])([H])[H])C([H])([H])[H]

$$$$
10:0:0
     RDKit          3D

116122  0  0  1  0  0  0  0  0999 V2000
  -24.7370  -12.7920   18.7400 N   0  0  2  0  0  4  0  0  0  0  0  0
  -24.5060  -13.1830   19.6350 H   0  0  0  0  0  0  0  0  0  0  0  0
  -26.2040  -12.4170   18.8590 C   0  0  0  0  0  2  0  0  0  0  0  0
  -26.7110  -11.0780   18.2060 C   0  0  0  0  0  2  0  0  0  0  0  0
  -27.9740  -10.4520   18.6850 N   0  0  0  0  0  0  0  0  0  0  0  0
  -31.5400  -12.6690   19.1100 C   0  0  0  0  0  3  0  0  0  0  0  0
  -29.9570  -11.4470   17.7150 C   0  0  0  0  0  3  0  0  0  0  0  0
  -31.1930  -12.0960   17.8580 C   0  0  0  0  0  0  0  0  0  0  0  0
  -29.5680  -11.7520   20.1040 C   0  0  0  0  0  0  0  0  0  0  0  0
  -30.5600  -12.7660   20.1450 C   0  0  0  0  0  0  0  0  0  0  0  0
  -29.1500  -11.2200   18.8420 C   0  0  0  0  0  0  0  0  0  0  0  0
  -32.0480  -12.2900   16.6190 C   0  0  0  0  0  1  0  0  0  0  0  0
  -29.0670  -11.1640   21.4050 C   0  0  0  0  0  1  0  0  0  0  0  0
  -30.4220  -15.5290   21.2300 C   0  0  2  0  0  0  0  0  0  0  0  0
  -31.7610  -15.5150   20.4060 C   0  0  0  0  0  1  0  0  0  0  0  0
  -30.5290  -15.2950   18.9050 C   0  0  0  0  0  1  0  0  0  0  0  0
  -28.8480  -14.8110   19.2720 C   0  0  0  0  0  2  0  0  0  0  0  0
  -28.1100  -15.0630   20.8420 C   0  0  0  0  0  2  0  0  0  0  0  0
  -29.2020  -15.3620   22.3150 C   0  0  0  0  0  1  0  0  0  0  0  0
  -30.9500  -15.5550   22.0380 N   0  0  0  0  0  1  0  0  0  0  0  0
  -30.1020  -16.8460   20.8470 O   0  0  0  0  0  1  0  0  0  0  0  0
  -30.4450  -13.8770   21.1440 N   0  0  0  0  0  2  0  0  0  0  0  0
  -30.6950  -13.5390   22.0650 H   0  0  0  0  0  0  0  0  0  0  0  0
  -25.6040  -14.6200   21.1410 C   0  0  0  0  0  0  0  0  0  0  0  0
  -24.8700  -13.5270   21.5100 C   0  0  0  0  0  0  0  0  0  0  0  0
  -25.7920  -12.4600   21.6780 C   0  0  0  0  0  0  0  0  0  0  0  0
  -26.9280  -14.2280   21.1490 N   0  0  0  0  0  0  0  0  0  0  0  0
  -27.0320  -12.9260   21.5090 N   0  0  0  0  0  0  0  0  0  0  0  0
  -25.5400  -11.0200   21.9370 C   0  0  0  0  0  0  0  0  0  0  0  0
  -25.5940  -10.4680   23.2360 C   0  0  0  0  0  3  0  0  0  0  0  0
  -25.3590   -9.0920   23.4540 C   0  0  0  0  0  3  0  0  0  0  0  0
  -25.0160   -8.2510   22.3690 C   0  0  0  0  0  0  0  0  0  0  0  0
  -24.9630   -8.7950   21.0730 C   0  0  0  0  0  0  0  0  0  0  0  0
  -25.2260  -10.1640   20.8640 C   0  0  0  0  0  3  0  0  0  0  0  0
  -24.7720   -6.9040   22.4940 O   0  0  0  0  0  0  0  0  0  0  0  0
  -23.4910   -6.4070   22.5210 C   0  0  0  0  0  0  0  0  0  0  0  0
  -22.4750   -6.8710   21.6520 C   0  0  0  0  0  3  0  0  0  0  0  0
  -21.2020   -6.2680   21.6700 C   0  0  0  0  0  3  0  0  0  0  0  0
  -20.9300   -5.2080   22.5590 C   0  0  0  0  0  0  0  0  0  0  0  0
  -21.9430   -4.7420   23.4170 C   0  0  0  0  0  3  0  0  0  0  0  0
  -23.2140   -5.3410   23.4010 C   0  0  0  0  0  0  0  0  0  0  0  0
  -24.1830   -4.8690   24.2210 F   0  0  0  0  0  0  0  0  0  0  0  0
  -19.7110   -4.6280   22.5790 F   0  0  0  0  0  0  0  0  0  0  0  0
  -23.3730  -13.4570   21.6090 C   0  0  0  0  0  0  0  0  0  0  0  0
  -22.8520  -12.4830   22.3470 N   0  0  0  0  0  0  0  0  0  0  0  0
  -22.6700  -14.2950   21.0580 O   0  0  0  0  0  0  0  0  0  0  0  0
  -23.4360  -11.8310   22.8460 H   0  0  0  0  0  0  0  0  0  0  0  0
  -21.8450  -12.4060   22.4390 H   0  0  0  0  0  0  0  0  0  0  0  0
  -25.2650  -15.9300   20.8160 N   0  0  0  0  0  0  0  0  0  0  0  0
  -24.3070  -16.2560   20.7820 H   0  0  0  0  0  0  0  0  0  0  0  0
  -25.9320  -16.6430   20.5480 H   0  0  0  0  0  0  0  0  0  0  0  0
  -28.3270   -8.8920   16.7310 C   0  0  0  0  0  1  0  0  0  0  0  0
  -27.3070   -8.0590   18.8860 C   0  0  0  0  0  1  0  0  0  0  0  0
  -28.2690   -9.0680   18.2620 C   0  0  0  0  0  3  0  0  0  0  0  0
  -23.7740  -11.6520   18.5400 C   0  0  0  0  0  2  0  0  0  0  0  0
  -23.0150  -11.3010   19.8490 C   0  0  0  0  0  2  0  0  0  0  0  0
  -21.8190   -9.8050   21.4600 C   0  0  0  0  0  1  0  0  0  0  0  0
  -21.5860   -9.3350   19.0150 C   0  0  0  0  0  1  0  0  0  0  0  0
  -23.7550   -8.8590   20.1810 C   0  0  0  0  0  2  0  0  0  0  0  0
  -22.5630   -9.8300   20.1050 C   0  0  1  0  0  0  0  0  0  0  0  0
  -24.5410  -13.9450   17.7910 C   0  0  0  0  0  2  0  0  0  0  0  0
  -23.2090  -14.7690   17.8820 C   0  0  0  0  0  2  0  0  0  0  0  0
  -23.2290  -16.1530   18.5790 C   0  0  0  0  0  2  0  0  0  0  0  0
  -23.3790  -17.3200   17.5720 C   0  0  0  0  0  2  0  0  0  0  0  0
  -23.6530  -18.6970   18.2160 C   0  0  0  0  0  2  0  0  0  0  0  0
  -24.7410  -19.5100   17.4780 C   0  0  0  0  0  2  0  0  0  0  0  0
  -25.7370  -20.1810   18.4380 C   0  0  0  0  0  2  0  0  0  0  0  0
  -26.8120  -20.9880   17.7010 C   0  0  0  0  0  2  0  0  0  0  0  0
  -28.1510  -21.0330   18.4580 C   0  0  0  0  0  2  0  0  0  0  0  0
  -29.0990  -22.0490   17.8200 C   0  0  0  0  0  2  0  0  0  0  0  0
  -31.3740  -21.3630   17.2040 C   0  0  0  0  0  0  0  0  0  0  0  0
  -30.9220  -22.2660   19.4790 C   0  0  0  0  0  1  0  0  0  0  0  0
  -30.5060  -21.7950   18.1530 N   0  0  0  0  0  0  0  0  0  0  0  0
  -31.0090  -20.6940   16.2280 O   0  0  0  0  0  0  0  0  0  0  0  0
  -32.8150  -21.8980   17.2210 C   0  0  0  0  0  2  0  0  0  0  0  0
  -32.9650  -22.9630   16.2650 O   0  0  0  0  0  0  0  0  0  0  0  0
  -34.8640  -28.4830   20.3430 C   0  0  0  0  0  0  0  0  0  0  0  0
  -32.6730  -24.2300   16.7170 C   0  0  0  0  0  0  0  0  0  0  0  0
  -32.5820  -28.5830   19.3910 C   0  0  0  0  0  3  0  0  0  0  0  0
  -32.0670  -26.8500   17.5930 C   0  0  0  0  0  0  0  0  0  0  0  0
  -34.4440  -27.2850   18.2110 C   0  0  0  0  0  2  0  0  0  0  0  0
  -33.3780  -26.3640   17.6680 C   0  0  0  0  0  0  0  0  0  0  0  0
  -33.6860  -25.0550   17.2430 C   0  0  0  0  0  3  0  0  0  0  0  0
  -31.3700  -24.7550   16.5860 C   0  0  0  0  0  3  0  0  0  0  0  0
  -31.0500  -26.0440   17.0520 C   0  0  0  0  0  3  0  0  0  0  0  0
  -31.8200  -28.2630   18.0770 C   0  0  0  0  0  2  0  0  0  0  0  0
  -34.0020  -28.1050   19.3590 N   0  0  0  0  0  0  0  0  0  0  0  0
  -34.5050  -29.2490   21.2490 O   0  0  0  0  0  0  0  0  0  0  0  0
  -31.7750  -28.0170   20.5810 C   0  0  0  0  0  0  0  0  0  0  0  0
  -30.8450  -28.8280   21.1070 N   0  0  0  0  0  0  0  0  0  0  0  0
  -31.9750  -26.8700   20.9910 O   0  0  0  0  0  0  0  0  0  0  0  0
  -30.7620  -29.7640   20.7340 H   0  0  0  0  0  0  0  0  0  0  0  0
  -28.3580  -30.2130   23.3310 C   0  0  0  0  0  0  0  0  0  0  0  0
  -29.9370  -28.5000   22.2080 C   0  0  0  0  0  3  0  0  0  0  0  0
  -28.6520  -27.8130   21.6900 C   0  0  0  0  0  2  0  0  0  0  0  0
  -27.5170  -28.8020   21.4100 C   0  0  0  0  0  2  0  0  0  0  0  0
  -27.1460  -29.5620   22.6870 C   0  0  0  0  0  2  0  0  0  0  0  0
  -29.6700  -29.7240   23.0900 C   0  0  0  0  0  0  0  0  0  0  0  0
  -30.7690  -30.3900   23.6740 C   0  0  0  0  0  3  0  0  0  0  0  0
  -30.5760  -31.5170   24.4920 C   0  0  0  0  0  3  0  0  0  0  0  0
  -29.2750  -31.9850   24.7470 C   0  0  0  0  0  3  0  0  0  0  0  0
  -28.1700  -31.3320   24.1700 C   0  0  0  0  0  3  0  0  0  0  0  0
  -36.3450  -27.9910   20.3640 C   0  0  0  0  0  3  0  0  0  0  0  0
  -37.1930  -29.1600   20.6300 N   0  0  0  0  0  0  0  0  0  0  0  0
  -37.8580  -29.8480   19.6920 C   0  0  0  0  0  0  0  0  0  0  0  0
  -37.8800  -29.5130   18.5050 O   0  0  0  0  0  0  0  0  0  0  0  0
  -37.1820  -29.5230   21.5720 H   0  0  0  0  0  0  0  0  0  0  0  0
  -37.8180  -32.3610   19.7840 C   0  0  0  0  0  1  0  0  0  0  0  0
  -38.6250  -31.1040   20.1440 C   0  0  0  0  0  3  0  0  0  0  0  0
  -40.9090  -30.2020   20.0940 C   0  0  0  0  0  1  0  0  0  0  0  0
  -39.9850  -31.2040   19.5700 N   0  0  0  0  0  0  0  0  0  0  0  0
  -40.3830  -32.1230   19.7450 H   0  0  0  0  0  0  0  0  0  0  0  0
  -36.6080  -26.8550   21.4300 C   0  0  1  0  0  0  0  0  0  0  0  0
  -36.1970  -27.2470   22.8670 C   0  0  0  0  0  1  0  0  0  0  0  0
  -35.8350  -25.5660   21.0620 C   0  0  0  0  0  1  0  0  0  0  0  0
  -38.1100  -26.4880   21.4490 C   0  0  0  0  0  1  0  0  0  0  0  0
  1  3  1  0
  1  2  1  1
  4  5  1  0
  4  3  1  0
  5 11  1  0
  6 10  1  0
  7  8  1  0
  7 11  2  0
  8  6  2  0
  9 10  2  0
  9 13  1  0
 10 22  1  0
 11  9  1  0
 12  8  1  0
 14 20  1  0
 14 19  1  1
 15 14  1  0
 16 17  1  0
 17 18  1  0
 18 27  1  0
 21 14  1  0
 22 23  1  0
 24 27  1  0
 24 25  2  0
 25 44  1  0
 25 26  1  0
 26 29  1  0
 27 28  1  0
 28 26  2  0
 29 30  1  0
 30 31  2  0
 32 35  1  0
 32 31  1  0
 33 32  2  0
 34 33  1  0
 34 29  2  0
 35 36  1  0
 36 41  1  0
 37 38  1  0
 37 36  2  0
 38 39  2  0
 39 43  1  0
 39 40  1  0
 41 40  2  0
 41 42  1  0
 44 45  1  0
 45 48  1  0
 45 47  1  0
 46 44  2  0
 49 24  1  0
 50 49  1  0
 51 49  1  0
 52 54  1  0
 54  5  1  0
 54 53  1  0
 55  1  1  0
 55 56  1  0
 56 60  1  0
 60 58  1  6
 59 33  1  0
 60 59  1  0
 60 57  1  0
 61 62  1  0
 61  1  1  0
 62 63  1  0
 64 65  1  0
 64 63  1  0
 66 65  1  0
 66 67  1  0
 68 67  1  0
 68 69  1  0
 70 73  1  0
 70 69  1  0
 71 75  1  0
 71 73  1  0
 73 72  1  0
 74 71  2  0
 76 78  1  0
 76 75  1  0
 77 88  2  0
 78 83  1  0
 79 89  1  0
 80 82  1  0
 80 86  1  0
 81 87  1  0
 82 81  1  0
 83 82  2  0
 84 78  2  0
 84 85  1  0
 85 80  2  0
 86 79  1  0
 87 79  1  0
 87 77  1  0
 89 91  2  0
 89 90  1  0
 92 90  1  0
 93102  1  0
 94 90  1  0
 94 98  1  0
 95 94  1  0
 96 95  1  0
 96 97  1  0
 97 93  1  0
 98 93  2  0
 98 99  1  0
 99100  2  0
100101  1  0
102101  2  0
103 77  1  0
103104  1  0
103113  1  0
104107  1  0
105109  1  0
105104  1  0
106105  2  0
109108  1  0
111112  1  0
111110  1  0
111109  1  0
113116  1  1
113114  1  0
115113  1  0
M  ISO  4  14 100  22 100  75 101  76 101
M  END
>  <TORSDO>  (11) 
F 36

>  <SCORE>  (11) 
21.647

>  <name>  (11) 
10

>  <ligand_id>  (11) 
10

>  <original_smiles>  (11) 
[H]c1c([H])c([H])c2c(c1[H])C([H])([H])C([H])([H])C([H])([H])C2([H])N([H])C(=O)C1([H])N(C(=O)C([H])(N([H])C(=O)C([H])(N([H])C([H])([H])[H])C([H])([H])[H])C(C([H])([H])[H])(C([H])([H])[H])C([H])([H])[H])C([H])([H])c2c([H])c(OC([H])([H])C(=O)N(C([H])([H])[H])C([H])([H])C([H])([H])C([H])([H])C([H])([H])C([H])([H])C([H])([H])C([H])([H])C([H])([H])C([H])([H])C([H])([H])[N+]([H])(C([H])([H])C([H])([H])N(c3c([H])c(C([H])([H])[H])c([H])c(N([H])C(=O)N4C([H])([H])C([H])([H])C([H])([H])C([H])(n5nc(-c6c([H])c([H])c(Oc7c([H])c([H])c(F)c([H])c7F)c([H])c6[H])c(C(=O)N([H])[H])c5N([H])[H])C4([H])[H])c3C([H])([H])[H])C([H])(C([H])([H])[H])C([H])([H])[H])C([H])([H])C([H])([H])C(C([H])([H])[H])(C([H])([H])[H])C([H])([H])[H])c([H])c([H])c2C1([H])[H]

>  <smiles>  (11) 
[H]c1c([H])c([H])c2c(c1[H])C([H])([H])C([H])([H])C([H])([H])C2([H])N([H])C(=O)C1([H])N(C(=O)C([H])(N([H])C(=O)C([H])(N([H])C([H])([H])[H])C([H])([H])[H])C(C([H])([H])[H])(C([H])([H])[H])C([H])([H])[H])C([H])([H])c2c([H])c(OC([H])([H])C(=O)N(C([H])([H])[H])C([H])([H])C([H])([H])C([H])([H])C([H])([H])C([H])([H])C([H])([H])C([H])([H])C([H])([H])C([H])([H])C([H])([H])[N+]([H])(C([H])([H])C([H])([H])N(c3c([H])c(C([H])([H])[H])c([H])c(N([H])C(=O)N4C([H])([H])C([H])([H])C([H])([H])C([H])(n5nc(-c6c([H])c([H])c(Oc7c([H])c([H])c(F)c([H])c7F)c([H])c6[H])c(C(=O)N([H])[H])c5N([H])[H])C4([H])[H])c3C([H])([H])[H])C([H])(C([H])([H])[H])C([H])([H])[H])C([H])([H])C([H])([H])C(C([H])([H])[H])(C([H])([H])[H])C([H])([H])[H])c([H])c([H])c2C1([H])[H]

$$$$
11:0:0
     RDKit          3D

108116  0  0  1  0  0  0  0  0999 V2000
  -25.5770  -21.1070   15.4230 C   0  0  0  0  0  2  0  0  0  0  0  0
  -24.2040  -20.7560   16.0440 C   0  0  0  0  0  2  0  0  0  0  0  0
  -23.7270  -21.7630   17.1150 C   0  0  0  0  0  2  0  0  0  0  0  0
  -24.6560  -21.8270   18.3270 C   0  0  0  0  0  0  0  0  0  0  0  0
  -25.2120  -23.0120   18.6000 N   0  0  0  0  0  0  0  0  0  0  0  0
  -24.8600  -20.8160   19.0020 O   0  0  0  0  0  0  0  0  0  0  0  0
  -24.9780  -23.7810   17.9840 H   0  0  0  0  0  0  0  0  0  0  0  0
  -26.1230  -23.2820   19.7100 C   0  0  0  0  0  2  0  0  0  0  0  0
  -27.5500  -22.7590   19.4380 C   0  0  0  0  0  2  0  0  0  0  0  0
  -28.4110  -23.7010   18.5660 C   0  0  0  0  0  2  0  0  0  0  0  0
  -29.9000  -23.2770   18.4820 C   0  0  0  0  0  2  0  0  0  0  0  0
  -30.9090  -24.4470   18.5090 C   0  0  0  0  0  2  0  0  0  0  0  0
  -31.1820  -24.9690   19.9280 C   0  0  0  0  0  2  0  0  0  0  0  0
  -31.3940  -26.3850   19.9590 O   0  0  0  0  0  0  0  0  0  0  0  0
  -27.0670  -29.7200   24.4640 C   0  0  0  0  0  0  0  0  0  0  0  0
  -30.2370  -27.1100   20.1030 C   0  0  0  0  0  0  0  0  0  0  0  0
  -26.1230  -29.2050   22.2420 C   0  0  0  0  0  3  0  0  0  0  0  0
  -27.7950  -28.4670   20.4770 C   0  0  0  0  0  0  0  0  0  0  0  0
  -28.6250  -29.6240   22.5230 C   0  0  0  0  0  2  0  0  0  0  0  0
  -28.8520  -28.6670   21.3740 C   0  0  0  0  0  0  0  0  0  0  0  0
  -30.0790  -27.9900   21.1950 C   0  0  0  0  0  3  0  0  0  0  0  0
  -29.1770  -26.9620   19.1800 C   0  0  0  0  0  3  0  0  0  0  0  0
  -27.9510  -27.6110   19.3760 C   0  0  0  0  0  3  0  0  0  0  0  0
  -26.5140  -29.2220   20.7440 C   0  0  0  0  0  2  0  0  0  0  0  0
  -27.2870  -29.4880   23.1400 N   0  0  0  0  0  0  0  0  0  0  0  0
  -25.9200  -29.7300   24.9300 O   0  0  0  0  0  0  0  0  0  0  0  0
  -25.4160  -27.8640   22.5550 C   0  0  0  0  0  0  0  0  0  0  0  0
  -24.1940  -27.6910   22.0250 N   0  0  0  0  0  0  0  0  0  0  0  0
  -25.9740  -27.0010   23.2390 O   0  0  0  0  0  0  0  0  0  0  0  0
  -23.7960  -28.4480   21.4880 H   0  0  0  0  0  0  0  0  0  0  0  0
  -21.0620  -26.2150   21.0100 C   0  0  0  0  0  0  0  0  0  0  0  0
  -23.3540  -26.5010   22.1690 C   0  0  0  0  0  3  0  0  0  0  0  0
  -23.8480  -25.3550   21.2560 C   0  0  0  0  0  2  0  0  0  0  0  0
  -23.1530  -25.3300   19.8900 C   0  0  0  0  0  2  0  0  0  0  0  0
  -21.6380  -25.1800   20.0590 C   0  0  0  0  0  2  0  0  0  0  0  0
  -21.8710  -26.8450   21.9920 C   0  0  0  0  0  0  0  0  0  0  0  0
  -21.2920  -27.8250   22.8280 C   0  0  0  0  0  3  0  0  0  0  0  0
  -19.9340  -28.1680   22.7000 C   0  0  0  0  0  3  0  0  0  0  0  0
  -19.1340  -27.5290   21.7370 C   0  0  0  0  0  3  0  0  0  0  0  0
  -19.6990  -26.5530   20.8970 C   0  0  0  0  0  3  0  0  0  0  0  0
  -28.2440  -30.0050   25.4490 C   0  0  0  0  0  3  0  0  0  0  0  0
  -27.9160  -31.2340   26.1820 N   0  0  0  0  0  0  0  0  0  0  0  0
  -28.4000  -32.4470   25.8820 C   0  0  0  0  0  0  0  0  0  0  0  0
  -29.2380  -32.6310   24.9950 O   0  0  0  0  0  0  0  0  0  0  0  0
  -27.1910  -31.1630   26.8800 H   0  0  0  0  0  0  0  0  0  0  0  0
  -26.8050  -34.3890   25.8810 C   0  0  0  0  0  1  0  0  0  0  0  0
  -27.8740  -33.6440   26.6950 C   0  0  0  0  0  3  0  0  0  0  0  0
  -29.8460  -34.0280   28.1040 C   0  0  0  0  0  1  0  0  0  0  0  0
  -28.9360  -34.5880   27.1100 N   0  0  0  0  0  0  0  0  0  0  0  0
  -28.5290  -35.4350   27.4960 H   0  0  0  0  0  0  0  0  0  0  0  0
  -28.5090  -28.8110   26.4440 C   0  0  1  0  0  0  0  0  0  0  0  0
  -27.2390  -28.3120   27.1720 C   0  0  0  0  0  1  0  0  0  0  0  0
  -29.1180  -27.6090   25.6850 C   0  0  0  0  0  1  0  0  0  0  0  0
  -29.5370  -29.2350   27.5190 C   0  0  0  0  0  1  0  0  0  0  0  0
  -26.4250  -19.8800   15.0390 C   0  0  0  0  0  2  0  0  0  0  0  0
  -28.0150  -19.4220   16.9090 C   0  0  0  0  0  0  0  0  0  0  0  0
  -26.9010  -19.1590   16.2180 N   0  0  0  0  0  0  0  0  0  0  0  0
  -28.7880  -20.3420   16.6320 O   0  0  0  0  0  0  0  0  0  0  0  0
  -26.3590  -18.3600   16.5190 H   0  0  0  0  0  0  0  0  0  0  0  0
  -28.3260  -18.4870   18.0800 C   0  0  0  0  0  2  0  0  0  0  0  0
  -29.7720  -18.3670   18.2560 N   0  0  0  0  0  0  0  0  0  0  0  0
  -30.2040  -19.2560   18.0180 H   0  0  0  0  0  0  0  0  0  0  0  0
  -31.5360  -18.1010   21.5210 C   0  0  0  0  0  3  0  0  0  0  0  0
  -31.1980  -16.8020   21.9370 C   0  0  0  0  0  3  0  0  0  0  0  0
  -31.0830  -18.6080   20.2850 C   0  0  0  0  0  0  0  0  0  0  0  0
  -30.4260  -15.9690   21.1010 C   0  0  0  0  0  0  0  0  0  0  0  0
  -30.2420  -17.8110   19.4620 C   0  0  0  0  0  0  0  0  0  0  0  0
  -29.9310  -16.4770   19.8700 C   0  0  0  0  0  0  0  0  0  0  0  0
  -31.5380  -20.0040   19.8670 C   0  0  0  0  0  1  0  0  0  0  0  0
  -28.9770  -15.4390   18.8580 Cl  0  0  0  0  0  0  0  0  0  0  0  0
  -30.8870  -13.5710   21.2470 C   0  0  0  0  0  0  0  0  0  0  0  0
  -30.5970  -11.3800   20.1820 C   0  0  0  0  0  2  0  0  0  0  0  0
  -29.7560  -11.5730   18.9020 C   0  0  0  0  0  2  0  0  0  0  0  0
  -28.2390  -11.5890   19.1950 C   0  0  0  0  0  2  0  0  0  0  0  0
  -27.8570  -12.4590   20.4250 C   0  0  0  0  0  3  0  0  0  0  0  0
  -28.8130  -12.1890   21.6100 C   0  0  0  0  0  2  0  0  0  0  0  0
  -30.1880  -12.4120   21.1400 N   0  0  0  0  0  0  0  0  0  0  0  0
  -32.0750  -13.6820   20.9350 O   0  0  0  0  0  0  0  0  0  0  0  0
  -30.1310  -14.6430   21.5350 N   0  0  0  0  0  0  0  0  0  0  0  0
  -29.1620  -14.4370   21.7270 H   0  0  0  0  0  0  0  0  0  0  0  0
  -25.4700  -13.2360   21.0080 C   0  0  0  0  0  0  0  0  0  0  0  0
  -24.3210  -12.5420   21.2680 C   0  0  0  0  0  0  0  0  0  0  0  0
  -24.6700  -11.1570   21.1960 C   0  0  0  0  0  0  0  0  0  0  0  0
  -26.4560  -12.2810   20.8010 N   0  0  0  0  0  0  0  0  0  0  0  0
  -25.9720  -11.0240   20.9720 N   0  0  0  0  0  0  0  0  0  0  0  0
  -23.8330   -9.9550   21.2700 C   0  0  0  0  0  0  0  0  0  0  0  0
  -24.1040   -8.9280   22.1990 C   0  0  0  0  0  3  0  0  0  0  0  0
  -23.2760   -7.7870   22.2660 C   0  0  0  0  0  3  0  0  0  0  0  0
  -22.1640   -7.6650   21.4000 C   0  0  0  0  0  0  0  0  0  0  0  0
  -21.9120   -8.6790   20.4610 C   0  0  0  0  0  3  0  0  0  0  0  0
  -22.7390   -9.8120   20.3920 C   0  0  0  0  0  3  0  0  0  0  0  0
  -21.3200   -6.5800   21.3750 O   0  0  0  0  0  0  0  0  0  0  0  0
  -21.0770   -5.8320   22.4990 C   0  0  0  0  0  0  0  0  0  0  0  0
  -20.5150   -6.3970   23.6640 C   0  0  0  0  0  3  0  0  0  0  0  0
  -20.2180   -5.5780   24.7720 C   0  0  0  0  0  3  0  0  0  0  0  0
  -20.4690   -4.1940   24.7130 C   0  0  0  0  0  0  0  0  0  0  0  0
  -21.0220   -3.6280   23.5510 C   0  0  0  0  0  3  0  0  0  0  0  0
  -21.3220   -4.4440   22.4470 C   0  0  0  0  0  0  0  0  0  0  0  0
  -21.8360   -3.8900   21.3220 F   0  0  0  0  0  0  0  0  0  0  0  0
  -20.1760   -3.4070   25.7740 F   0  0  0  0  0  0  0  0  0  0  0  0
  -22.9510  -13.1220   21.4770 C   0  0  0  0  0  0  0  0  0  0  0  0
  -22.1110  -12.4530   22.2560 N   0  0  0  0  0  0  0  0  0  0  0  0
  -22.6330  -14.2030   20.9780 O   0  0  0  0  0  0  0  0  0  0  0  0
  -22.3770  -11.5800   22.6890 H   0  0  0  0  0  0  0  0  0  0  0  0
  -21.1850  -12.8190   22.4280 H   0  0  0  0  0  0  0  0  0  0  0  0
  -25.7570  -14.5950   20.9080 N   0  0  0  0  0  0  0  0  0  0  0  0
  -25.0250  -15.2970   20.9530 H   0  0  0  0  0  0  0  0  0  0  0  0
  -26.6470  -14.9710   20.6110 H   0  0  0  0  0  0  0  0  0  0  0  0
  1  2  1  0
  2  3  1  0
  3  4  1  0
  4  5  1  0
  4  6  2  0
  5  8  1  0
  7  5  1  0
  9  8  1  0
 10  9  1  0
 11 12  1  0
 11 10  1  0
 12 13  1  0
 13 14  1  0
 14 16  1  0
 15 26  2  0
 16 21  1  0
 17 27  1  0
 17 25  1  0
 18 24  1  0
 18 20  1  0
 19 25  1  0
 20 19  1  0
 21 20  2  0
 22 23  1  0
 22 16  2  0
 23 18  2  0
 24 17  1  0
 25 15  1  0
 27 29  2  0
 28 27  1  0
 30 28  1  0
 31 36  1  0
 32 28  1  0
 33 32  1  0
 34 35  1  0
 34 33  1  0
 35 31  1  0
 36 32  1  0
 36 37  2  0
 38 37  1  0
 39 38  2  0
 40 31  2  0
 40 39  1  0
 41 15  1  0
 41 42  1  0
 41 51  1  0
 42 45  1  0
 43 42  1  0
 43 47  1  0
 44 43  2  0
 47 46  1  0
 47 49  1  0
 49 50  1  0
 49 48  1  0
 51 52  1  1
 51 54  1  0
 53 51  1  0
 55  1  1  0
 55 57  1  0
 56 60  1  0
 57 59  1  0
 57 56  1  0
 58 56  2  0
 60 61  1  0
 61 67  1  0
 62 61  1  0
 63 64  1  0
 65 63  2  0
 66 79  1  0
 66 64  2  0
 67 68  2  0
 67 65  1  0
 68 66  1  0
 69 65  1  0
 70 68  1  0
 71 79  1  0
 72 77  1  0
 73 74  1  0
 73 72  1  0
 75 74  1  0
 75 84  1  0
 75 76  1  0
 77 71  1  0
 77 76  1  0
 78 71  2  0
 79 80  1  0
 81 82  2  0
 82101  1  0
 83 82  1  0
 83 86  1  0
 84 85  1  0
 84 81  1  0
 85 83  2  0
 86 87  1  0
 87 88  2  0
 89 88  1  0
 90 89  2  0
 91 90  1  0
 91 86  2  0
 92 89  1  0
 92 93  1  0
 93 94  1  0
 94 95  2  0
 96 95  1  0
 96100  1  0
 97 96  2  0
 98 93  2  0
 98 97  1  0
 99 98  1  0
101102  1  0
102105  1  0
102104  1  0
103101  2  0
106107  1  0
106 81  1  0
108106  1  0
M  ISO  4  13 101  14 101  71 100  79 100
M  END
>  <TORSDO>  (12) 
F 30

>  <SCORE>  (12) 
-1.114

>  <name>  (12) 
11

>  <ligand_id>  (12) 
11

>  <original_smiles>  (12) 
[H]c1c([H])c([H])c2c(c1[H])C([H])([H])C([H])([H])C([H])([H])C2([H])N([H])C(=O)C1([H])N(C(=O)C([H])(N([H])C(=O)C([H])(N([H])C([H])([H])[H])C([H])([H])[H])C(C([H])([H])[H])(C([H])([H])[H])C([H])([H])[H])C([H])([H])c2c([H])c(OC([H])([H])C([H])([H])C([H])([H])C([H])([H])C([H])([H])C([H])([H])N([H])C(=O)C([H])([H])C([H])([H])C([H])([H])C([H])([H])N([H])C(=O)C([H])([H])N([H])c3c(Cl)c(N([H])C(=O)N4C([H])([H])C([H])([H])C([H])([H])C([H])(n5nc(-c6c([H])c([H])c(Oc7c([H])c([H])c(F)c([H])c7F)c([H])c6[H])c(C(=O)N([H])[H])c5N([H])[H])C4([H])[H])c([H])c([H])c3C([H])([H])[H])c([H])c([H])c2C1([H])[H]

>  <smiles>  (12) 
[H]c1c([H])c([H])c2c(c1[H])C([H])([H])C([H])([H])C([H])([H])C2([H])N([H])C(=O)C1([H])N(C(=O)C([H])(N([H])C(=O)C([H])(N([H])C([H])([H])[H])C([H])([H])[H])C(C([H])([H])[H])(C([H])([H])[H])C([H])([H])[H])C([H])([H])c2c([H])c(OC([H])([H])C([H])([H])C([H])([H])C([H])([H])C([H])([H])C([H])([H])N([H])C(=O)C([H])([H])C([H])([H])C([H])([H])C([H])([H])N([H])C(=O)C([H])([H])N([H])c3c(Cl)c(N([H])C(=O)N4C([H])([H])C([H])([H])C([H])([H])C([H])(n5nc(-c6c([H])c([H])c(Oc7c([H])c([H])c(F)c([H])c7F)c([H])c6[H])c(C(=O)N([H])[H])c5N([H])[H])C4([H])[H])c([H])c([H])c3C([H])([H])[H])c([H])c([H])c2C1([H])[H]

$$$$
12:0:0
     RDKit          3D

 91 99  0  0  1  0  0  0  0  0999 V2000
  -28.8430  -22.4830   20.2780 C   0  0  0  0  0  0  0  0  0  0  0  0
  -29.8330  -21.5370   20.2590 N   0  0  0  0  0  0  0  0  0  0  0  0
  -27.6500  -22.1720   20.2290 O   0  0  0  0  0  0  0  0  0  0  0  0
  -30.7630  -21.9300   20.1990 H   0  0  0  0  0  0  0  0  0  0  0  0
  -30.9300  -19.3270   19.8830 C   0  0  0  0  0  3  0  0  0  0  0  0
  -28.7040  -19.3100   20.7930 C   0  0  0  0  0  3  0  0  0  0  0  0
  -30.9840  -17.9020   19.9490 C   0  0  0  0  0  3  0  0  0  0  0  0
  -28.7610  -17.8870   20.8690 C   0  0  0  0  0  3  0  0  0  0  0  0
  -29.7920  -20.0740   20.2980 C   0  0  0  0  0  0  0  0  0  0  0  0
  -29.8960  -17.1400   20.4510 C   0  0  0  0  0  0  0  0  0  0  0  0
  -30.6220  -14.6700   20.0660 C   0  0  0  0  0  0  0  0  0  0  0  0
  -30.3530  -12.4730   18.9360 C   0  0  0  0  0  2  0  0  0  0  0  0
  -29.3360  -12.6480   17.7860 C   0  0  0  0  0  2  0  0  0  0  0  0
  -27.8900  -12.4760   18.2960 C   0  0  0  0  0  2  0  0  0  0  0  0
  -27.6100  -13.2950   19.5840 C   0  0  0  0  0  3  0  0  0  0  0  0
  -28.7310  -13.0850   20.6270 C   0  0  0  0  0  2  0  0  0  0  0  0
  -30.0090  -13.4480   19.9910 N   0  0  0  0  0  0  0  0  0  0  0  0
  -31.7480  -14.8550   19.5910 O   0  0  0  0  0  0  0  0  0  0  0  0
  -29.8490  -15.6830   20.5630 N   0  0  0  0  0  0  0  0  0  0  0  0
  -28.9980  -15.3310   20.9750 H   0  0  0  0  0  0  0  0  0  0  0  0
  -25.2620  -13.8780   20.4570 C   0  0  0  0  0  0  0  0  0  0  0  0
  -24.2160  -13.0940   20.8650 C   0  0  0  0  0  0  0  0  0  0  0  0
  -24.6720  -11.7440   20.7660 C   0  0  0  0  0  0  0  0  0  0  0  0
  -26.2880  -13.0040   20.1350 N   0  0  0  0  0  0  0  0  0  0  0  0
  -25.9410  -11.7130   20.3800 N   0  0  0  0  0  0  0  0  0  0  0  0
  -23.9540  -10.4780   20.9600 C   0  0  0  0  0  0  0  0  0  0  0  0
  -24.4110   -9.5030   21.8740 C   0  0  0  0  0  3  0  0  0  0  0  0
  -23.6940   -8.3000   22.0550 C   0  0  0  0  0  3  0  0  0  0  0  0
  -22.5070   -8.0640   21.3220 C   0  0  0  0  0  0  0  0  0  0  0  0
  -22.0700   -9.0280   20.3970 C   0  0  0  0  0  3  0  0  0  0  0  0
  -22.7860  -10.2220   20.2140 C   0  0  0  0  0  3  0  0  0  0  0  0
  -21.7590   -6.9150   21.4150 O   0  0  0  0  0  0  0  0  0  0  0  0
  -21.6970   -6.1890   22.5770 C   0  0  0  0  0  0  0  0  0  0  0  0
  -21.2380   -6.7560   23.7870 C   0  0  0  0  0  3  0  0  0  0  0  0
  -21.1240   -5.9550   24.9410 C   0  0  0  0  0  3  0  0  0  0  0  0
  -21.4570   -4.5880   24.8860 C   0  0  0  0  0  0  0  0  0  0  0  0
  -21.9090   -4.0220   23.6820 C   0  0  0  0  0  3  0  0  0  0  0  0
  -22.0250   -4.8200   22.5300 C   0  0  0  0  0  0  0  0  0  0  0  0
  -22.4400   -4.2630   21.3660 F   0  0  0  0  0  0  0  0  0  0  0  0
  -21.3410   -3.8170   25.9930 F   0  0  0  0  0  0  0  0  0  0  0  0
  -22.8380  -13.5650   21.2330 C   0  0  0  0  0  0  0  0  0  0  0  0
  -22.1620  -12.8460   22.1230 N   0  0  0  0  0  0  0  0  0  0  0  0
  -22.3710  -14.6030   20.7680 O   0  0  0  0  0  0  0  0  0  0  0  0
  -22.5530  -12.0050   22.5220 H   0  0  0  0  0  0  0  0  0  0  0  0
  -21.2400  -13.1430   22.4110 H   0  0  0  0  0  0  0  0  0  0  0  0
  -25.4190  -15.2530   20.3120 N   0  0  0  0  0  0  0  0  0  0  0  0
  -24.6540  -15.8980   20.4770 H   0  0  0  0  0  0  0  0  0  0  0  0
  -26.2320  -15.6990   19.9070 H   0  0  0  0  0  0  0  0  0  0  0  0
  -29.2280  -24.0150   20.3500 C   0  0  0  0  0  3  0  0  0  0  0  0
  -28.1040  -25.0750   19.9880 C   0  0  0  0  0  3  0  0  0  0  0  0
  -28.3380  -26.5210   20.2070 O   0  0  0  0  0  0  0  0  0  0  0  0
  -24.6180  -31.8920   23.2640 C   0  0  0  0  0  0  0  0  0  0  0  0
  -27.2210  -27.3700   20.1600 C   0  0  0  0  0  0  0  0  0  0  0  0
  -23.4120  -30.5170   21.6090 C   0  0  0  0  0  3  0  0  0  0  0  0
  -24.8590  -28.9840   20.1680 C   0  0  0  0  0  0  0  0  0  0  0  0
  -25.9540  -30.8330   21.4320 C   0  0  0  0  0  2  0  0  0  0  0  0
  -26.0300  -29.4630   20.7700 C   0  0  0  0  0  0  0  0  0  0  0  0
  -27.2140  -28.6680   20.7570 C   0  0  0  0  0  3  0  0  0  0  0  0
  -26.0260  -26.9470   19.5320 C   0  0  0  0  0  3  0  0  0  0  0  0
  -24.8590  -27.7300   19.5390 C   0  0  0  0  0  3  0  0  0  0  0  0
  -23.6250  -29.8590   20.2210 C   0  0  0  0  0  2  0  0  0  0  0  0
  -24.6810  -31.0970   22.1590 N   0  0  0  0  0  0  0  0  0  0  0  0
  -23.5340  -32.1680   23.8010 O   0  0  0  0  0  0  0  0  0  0  0  0
  -22.7470  -29.4890   22.5550 C   0  0  0  0  0  0  0  0  0  0  0  0
  -21.4220  -29.3100   22.4180 N   0  0  0  0  0  0  0  0  0  0  0  0
  -23.4210  -28.8570   23.3730 O   0  0  0  0  0  0  0  0  0  0  0  0
  -20.9380  -29.8710   21.7310 H   0  0  0  0  0  0  0  0  0  0  0  0
  -18.0420  -28.1100   22.8840 C   0  0  0  0  0  0  0  0  0  0  0  0
  -20.5980  -28.3680   23.1760 C   0  0  0  0  0  3  0  0  0  0  0  0
  -20.7050  -26.9390   22.5930 C   0  0  0  0  0  2  0  0  0  0  0  0
  -19.6110  -26.6230   21.5680 C   0  0  0  0  0  2  0  0  0  0  0  0
  -18.2240  -26.7640   22.2030 C   0  0  0  0  0  2  0  0  0  0  0  0
  -19.1570  -28.8690   23.3280 C   0  0  0  0  0  0  0  0  0  0  0  0
  -18.9330  -30.1280   23.9250 C   0  0  0  0  0  3  0  0  0  0  0  0
  -17.6270  -30.6290   24.0830 C   0  0  0  0  0  3  0  0  0  0  0  0
  -16.5260  -29.8660   23.6560 C   0  0  0  0  0  3  0  0  0  0  0  0
  -16.7350  -28.6090   23.0620 C   0  0  0  0  0  3  0  0  0  0  0  0
  -25.9020  -32.5140   23.8960 C   0  0  0  0  0  3  0  0  0  0  0  0
  -26.4050  -31.7350   25.1730 C   0  0  1  0  0  0  0  0  0  0  0  0
  -25.3030  -31.5020   26.2320 C   0  0  0  0  0  1  0  0  0  0  0  0
  -26.9820  -30.3550   24.7800 C   0  0  0  0  0  1  0  0  0  0  0  0
  -27.5580  -32.5180   25.8440 C   0  0  0  0  0  1  0  0  0  0  0  0
  -25.6010  -33.9140   24.2280 N   0  0  0  0  0  0  0  0  0  0  0  0
  -25.9220  -34.9630   23.4620 C   0  0  0  0  0  0  0  0  0  0  0  0
  -26.5730  -34.8570   22.4190 O   0  0  0  0  0  0  0  0  0  0  0  0
  -25.0200  -34.0700   25.0380 H   0  0  0  0  0  0  0  0  0  0  0  0
  -24.1770  -36.7490   23.1480 C   0  0  0  0  0  1  0  0  0  0  0  0
  -25.4440  -36.3550   23.9240 C   0  0  0  0  0  3  0  0  0  0  0  0
  -27.5990  -37.2530   24.6840 C   0  0  0  0  0  1  0  0  0  0  0  0
  -26.4700  -37.4090   23.7710 N   0  0  0  0  0  0  0  0  0  0  0  0
  -26.0650  -38.3300   23.9220 H   0  0  0  0  0  0  0  0  0  0  0  0
  1 49  1  0
  2  1  1  0
  2  9  1  0
  3  1  2  0
  4  2  1  0
  5  7  2  0
  5  9  1  0
  6  8  1  0
  7 10  1  0
  9  6  2  0
 10 19  1  0
 10  8  2  0
 11 19  1  0
 12 17  1  0
 13 14  1  0
 13 12  1  0
 15 14  1  0
 15 24  1  0
 15 16  1  0
 17 11  1  0
 17 16  1  0
 18 11  2  0
 19 20  1  0
 21 22  2  0
 22 41  1  0
 23 22  1  0
 23 26  1  0
 24 25  1  0
 24 21  1  0
 25 23  2  0
 26 27  1  0
 27 28  2  0
 29 32  1  0
 29 28  1  0
 30 29  2  0
 31 30  1  0
 31 26  2  0
 32 33  1  0
 33 34  1  0
 34 35  2  0
 36 35  1  0
 36 40  1  0
 37 36  2  0
 38 33  2  0
 38 37  1  0
 39 38  1  0
 41 42  1  0
 42 45  1  0
 42 44  1  0
 43 41  2  0
 46 21  1  0
 46 47  1  0
 48 46  1  0
 50 51  1  0
 50 49  2  0
 52 63  2  0
 53 51  1  0
 53 58  1  0
 54 62  1  0
 54 64  1  0
 55 61  1  0
 55 57  1  0
 56 62  1  0
 57 56  1  0
 58 57  2  0
 59 60  1  0
 59 53  2  0
 60 55  2  0
 61 54  1  0
 62 52  1  0
 64 66  2  0
 65 64  1  0
 67 65  1  0
 68 77  2  0
 68 73  1  0
 69 65  1  0
 69 73  1  0
 70 69  1  0
 71 72  1  0
 71 70  1  0
 72 68  1  0
 73 74  2  0
 74 75  1  0
 76 75  2  0
 77 76  1  0
 78 52  1  0
 78 83  1  0
 78 79  1  0
 79 82  1  1
 79 80  1  0
 81 79  1  0
 83 86  1  0
 84 88  1  0
 84 83  1  0
 85 84  2  0
 88 87  1  0
 90 91  1  0
 90 88  1  0
 90 89  1  0
M  ISO  4  11 100  19 100  50 101  51 101
M  END
>  <TORSDO>  (13) 
F 19

>  <SCORE>  (13) 
-13.934

>  <name>  (13) 
12

>  <ligand_id>  (13) 
12

>  <original_smiles>  (13) 
[H]c1c([H])c([H])c2c(c1[H])C([H])([H])C([H])([H])C([H])([H])C2([H])N([H])C(=O)C1([H])N(C(=O)C([H])(N([H])C(=O)C([H])(N([H])C([H])([H])[H])C([H])([H])[H])C(C([H])([H])[H])(C([H])([H])[H])C([H])([H])[H])C([H])([H])c2c([H])c(OC([H])([H])C([H])([H])C(=O)N([H])c3c([H])c([H])c(N([H])C(=O)N4C([H])([H])C([H])([H])C([H])([H])C([H])(n5nc(-c6c([H])c([H])c(Oc7c([H])c([H])c(F)c([H])c7F)c([H])c6[H])c(C(=O)N([H])[H])c5N([H])[H])C4([H])[H])c([H])c3[H])c([H])c([H])c2C1([H])[H]

>  <smiles>  (13) 
[H]c1c([H])c([H])c2c(c1[H])C([H])([H])C([H])([H])C([H])([H])C2([H])N([H])C(=O)C1([H])N(C(=O)C([H])(N([H])C(=O)C([H])(N([H])C([H])([H])[H])C([H])([H])[H])C(C([H])([H])[H])(C([H])([H])[H])C([H])([H])[H])C([H])([H])c2c([H])c(OC([H])([H])C([H])([H])C(=O)N([H])c3c([H])c([H])c(N([H])C(=O)N4C([H])([H])C([H])([H])C([H])([H])C([H])(n5nc(-c6c([H])c([H])c(Oc7c([H])c([H])c(F)c([H])c7F)c([H])c6[H])c(C(=O)N([H])[H])c5N([H])[H])C4([H])[H])c([H])c3[H])c([H])c([H])c2C1([H])[H]

$$$$
13:0:0
     RDKit          3D

 93100  0  0  1  0  0  0  0  0999 V2000
  -31.8500  -24.0390   18.1300 C   0  0  0  0  0  2  0  0  0  0  0  0
  -29.9930  -25.0910   19.4180 C   0  0  0  0  0  0  0  0  0  0  0  0
  -30.6000  -24.7860   18.2670 N   0  0  0  0  0  0  0  0  0  0  0  0
  -30.5320  -24.9380   20.5170 O   0  0  0  0  0  0  0  0  0  0  0  0
  -30.0910  -24.9800   17.4140 H   0  0  0  0  0  0  0  0  0  0  0  0
  -28.5590  -25.6170   19.3250 C   0  0  0  0  0  2  0  0  0  0  0  0
  -28.4460  -26.8030   20.1020 O   0  0  0  0  0  0  0  0  0  0  0  0
  -24.6310  -31.8790   23.2530 C   0  0  0  0  0  0  0  0  0  0  0  0
  -27.2380  -27.4620   20.1190 C   0  0  0  0  0  0  0  0  0  0  0  0
  -23.4000  -30.4830   21.6240 C   0  0  0  0  0  3  0  0  0  0  0  0
  -24.8320  -28.9440   20.1810 C   0  0  0  0  0  0  0  0  0  0  0  0
  -25.9210  -30.8410   21.3950 C   0  0  0  0  0  2  0  0  0  0  0  0
  -25.9940  -29.4720   20.7550 C   0  0  0  0  0  0  0  0  0  0  0  0
  -27.1940  -28.7330   20.7290 C   0  0  0  0  0  3  0  0  0  0  0  0
  -26.0500  -26.9350   19.5530 C   0  0  0  0  0  3  0  0  0  0  0  0
  -24.8510  -27.6710   19.5850 C   0  0  0  0  0  3  0  0  0  0  0  0
  -23.5910  -29.8060   20.2400 C   0  0  0  0  0  2  0  0  0  0  0  0
  -24.6700  -31.0810   22.1500 N   0  0  0  0  0  0  0  0  0  0  0  0
  -23.5590  -32.1520   23.8080 O   0  0  0  0  0  0  0  0  0  0  0  0
  -22.7620  -29.4590   22.5880 C   0  0  0  0  0  0  0  0  0  0  0  0
  -21.4370  -29.2740   22.4700 N   0  0  0  0  0  0  0  0  0  0  0  0
  -23.4520  -28.8370   23.3990 O   0  0  0  0  0  0  0  0  0  0  0  0
  -20.9410  -29.8290   21.7860 H   0  0  0  0  0  0  0  0  0  0  0  0
  -18.0700  -28.0640   22.9730 C   0  0  0  0  0  0  0  0  0  0  0  0
  -20.6260  -28.3360   23.2460 C   0  0  0  0  0  3  0  0  0  0  0  0
  -20.7380  -26.9020   22.6790 C   0  0  0  0  0  2  0  0  0  0  0  0
  -19.6390  -26.5670   21.6660 C   0  0  0  0  0  2  0  0  0  0  0  0
  -18.2550  -26.7100   22.3080 C   0  0  0  0  0  2  0  0  0  0  0  0
  -19.1850  -28.8340   23.3990 C   0  0  0  0  0  0  0  0  0  0  0  0
  -18.9600  -30.1020   23.9790 C   0  0  0  0  0  3  0  0  0  0  0  0
  -17.6530  -30.5980   24.1380 C   0  0  0  0  0  3  0  0  0  0  0  0
  -16.5530  -29.8250   23.7290 C   0  0  0  0  0  3  0  0  0  0  0  0
  -16.7630  -28.5590   23.1510 C   0  0  0  0  0  3  0  0  0  0  0  0
  -25.9280  -32.5030   23.8580 C   0  0  0  0  0  3  0  0  0  0  0  0
  -26.4660  -31.7240   25.1190 C   0  0  1  0  0  0  0  0  0  0  0  0
  -25.3910  -31.4810   26.2040 C   0  0  0  0  0  1  0  0  0  0  0  0
  -27.0390  -30.3470   24.7070 C   0  0  0  0  0  1  0  0  0  0  0  0
  -27.6300  -32.5110   25.7670 C   0  0  0  0  0  1  0  0  0  0  0  0
  -25.6300  -33.8990   24.1970 N   0  0  0  0  0  0  0  0  0  0  0  0
  -25.9520  -34.9520   23.4350 C   0  0  0  0  0  0  0  0  0  0  0  0
  -26.6050  -34.8510   22.3930 O   0  0  0  0  0  0  0  0  0  0  0  0
  -25.0480  -34.0540   25.0080 H   0  0  0  0  0  0  0  0  0  0  0  0
  -24.2190  -36.7450   23.1110 C   0  0  0  0  0  1  0  0  0  0  0  0
  -25.4730  -36.3390   23.9020 C   0  0  0  0  0  3  0  0  0  0  0  0
  -27.6230  -37.2190   24.6970 C   0  0  0  0  0  1  0  0  0  0  0  0
  -26.5040  -37.3920   23.7720 N   0  0  0  0  0  0  0  0  0  0  0  0
  -26.1020  -38.3130   23.9300 H   0  0  0  0  0  0  0  0  0  0  0  0
  -31.6450  -22.5350   18.4160 C   0  0  0  0  0  2  0  0  0  0  0  0
  -30.5090  -21.8880   17.5960 C   0  0  0  0  0  2  0  0  0  0  0  0
  -29.7180  -20.8140   18.3620 C   0  0  0  0  0  2  0  0  0  0  0  0
  -28.3820  -20.4890   17.6660 C   0  0  0  0  0  2  0  0  0  0  0  0
  -27.5530  -19.3860   18.3460 C   0  0  0  0  0  2  0  0  0  0  0  0
  -28.2820  -18.0310   18.3680 C   0  0  0  0  0  2  0  0  0  0  0  0
  -28.6940  -17.5760   19.7790 C   0  0  0  0  0  2  0  0  0  0  0  0
  -29.9430  -16.6810   19.7730 C   0  0  0  0  0  2  0  0  0  0  0  0
  -30.6240  -14.4800   20.5240 C   0  0  0  0  0  0  0  0  0  0  0  0
  -30.3530  -12.3100   19.4390 C   0  0  0  0  0  2  0  0  0  0  0  0
  -29.4370  -12.5580   18.2220 C   0  0  0  0  0  2  0  0  0  0  0  0
  -27.9550  -12.4270   18.6250 C   0  0  0  0  0  2  0  0  0  0  0  0
  -27.5970  -13.2570   19.8860 C   0  0  0  0  0  3  0  0  0  0  0  0
  -28.6370  -13.0220   21.0090 C   0  0  0  0  0  2  0  0  0  0  0  0
  -29.9790  -13.2910   20.4640 N   0  0  0  0  0  0  0  0  0  0  0  0
  -31.7850  -14.6610   20.1500 O   0  0  0  0  0  0  0  0  0  0  0  0
  -29.7880  -15.5150   20.6350 N   0  0  0  0  0  0  0  0  0  0  0  0
  -28.8480  -15.2740   20.9130 H   0  0  0  0  0  0  0  0  0  0  0  0
  -25.1870  -13.8700   20.5580 C   0  0  0  0  0  0  0  0  0  0  0  0
  -24.1190  -13.0910   20.9210 C   0  0  0  0  0  0  0  0  0  0  0  0
  -24.5890  -11.7430   20.9040 C   0  0  0  0  0  0  0  0  0  0  0  0
  -26.2380  -12.9880   20.3480 N   0  0  0  0  0  0  0  0  0  0  0  0
  -25.8820  -11.7060   20.6140 N   0  0  0  0  0  0  0  0  0  0  0  0
  -23.8680  -10.4790   21.0930 C   0  0  0  0  0  0  0  0  0  0  0  0
  -24.3140   -9.5090   22.0180 C   0  0  0  0  0  3  0  0  0  0  0  0
  -23.5980   -8.3050   22.1940 C   0  0  0  0  0  3  0  0  0  0  0  0
  -22.4200   -8.0670   21.4430 C   0  0  0  0  0  0  0  0  0  0  0  0
  -21.9970   -9.0230   20.5050 C   0  0  0  0  0  3  0  0  0  0  0  0
  -22.7140  -10.2200   20.3280 C   0  0  0  0  0  3  0  0  0  0  0  0
  -21.6710   -6.9180   21.5320 O   0  0  0  0  0  0  0  0  0  0  0  0
  -21.6510   -6.1570   22.6740 C   0  0  0  0  0  0  0  0  0  0  0  0
  -21.2650   -6.6950   23.9210 C   0  0  0  0  0  3  0  0  0  0  0  0
  -21.1900   -5.8620   25.0540 C   0  0  0  0  0  3  0  0  0  0  0  0
  -21.4910   -4.4900   24.9400 C   0  0  0  0  0  0  0  0  0  0  0  0
  -21.8720   -3.9530   23.6990 C   0  0  0  0  0  3  0  0  0  0  0  0
  -21.9480   -4.7830   22.5670 C   0  0  0  0  0  0  0  0  0  0  0  0
  -22.2940   -4.2570   21.3670 F   0  0  0  0  0  0  0  0  0  0  0  0
  -21.4130   -3.6860   26.0250 F   0  0  0  0  0  0  0  0  0  0  0  0
  -22.7140  -13.5630   21.1680 C   0  0  0  0  0  0  0  0  0  0  0  0
  -21.9770  -12.8670   22.0300 N   0  0  0  0  0  0  0  0  0  0  0  0
  -22.2750  -14.5790   20.6360 O   0  0  0  0  0  0  0  0  0  0  0  0
  -22.3430  -12.0450   22.4860 H   0  0  0  0  0  0  0  0  0  0  0  0
  -21.0350  -13.1600   22.2370 H   0  0  0  0  0  0  0  0  0  0  0  0
  -25.3390  -15.2400   20.3710 N   0  0  0  0  0  0  0  0  0  0  0  0
  -24.5500  -15.8740   20.4610 H   0  0  0  0  0  0  0  0  0  0  0  0
  -26.1710  -15.6890   20.0140 H   0  0  0  0  0  0  0  0  0  0  0  0
  1  3  1  0
  1 48  1  0
  2  4  2  0
  3  2  1  0
  5  3  1  0
  6  2  1  0
  6  7  1  0
  7  9  1  0
  8 19  2  0
  9 14  1  0
 10 18  1  0
 10 20  1  0
 11 17  1  0
 11 13  1  0
 12 18  1  0
 13 12  1  0
 14 13  2  0
 15 16  1  0
 15  9  2  0
 16 11  2  0
 17 10  1  0
 18  8  1  0
 20 22  2  0
 21 20  1  0
 23 21  1  0
 24 33  2  0
 24 29  1  0
 25 21  1  0
 25 29  1  0
 26 25  1  0
 27 28  1  0
 27 26  1  0
 28 24  1  0
 29 30  2  0
 30 31  1  0
 32 31  2  0
 33 32  1  0
 34  8  1  0
 34 39  1  0
 34 35  1  0
 35 38  1  1
 35 36  1  0
 37 35  1  0
 39 42  1  0
 40 44  1  0
 40 39  1  0
 41 40  2  0
 44 43  1  0
 46 44  1  0
 46 47  1  0
 46 45  1  0
 49 50  1  0
 49 48  1  0
 51 52  1  0
 51 50  1  0
 52 53  1  0
 53 54  1  0
 55 54  1  0
 55 64  1  0
 56 64  1  0
 57 62  1  0
 58 59  1  0
 58 57  1  0
 60 59  1  0
 60 69  1  0
 60 61  1  0
 62 56  1  0
 62 61  1  0
 63 56  2  0
 64 65  1  0
 66 67  2  0
 67 86  1  0
 68 67  1  0
 68 71  1  0
 69 66  1  0
 69 70  1  0
 70 68  2  0
 71 72  1  0
 72 73  2  0
 74 77  1  0
 74 73  1  0
 75 74  2  0
 76 75  1  0
 76 71  2  0
 77 78  1  0
 78 79  1  0
 79 80  2  0
 81 80  1  0
 81 85  1  0
 82 81  2  0
 83 78  2  0
 83 82  1  0
 84 83  1  0
 86 87  1  0
 87 90  1  0
 87 89  1  0
 88 86  2  0
 91 92  1  0
 91 66  1  0
 93 91  1  0
M  ISO  4   6 101   7 101  56 100  64 100
M  END
>  <TORSDO>  (14) 
F 26

>  <SCORE>  (14) 
-11.892

>  <name>  (14) 
13

>  <ligand_id>  (14) 
13

>  <original_smiles>  (14) 
[H]c1c([H])c([H])c2c(c1[H])C([H])([H])C([H])([H])C([H])([H])C2([H])N([H])C(=O)C1([H])N(C(=O)C([H])(N([H])C(=O)C([H])(N([H])C([H])([H])[H])C([H])([H])[H])C(C([H])([H])[H])(C([H])([H])[H])C([H])([H])[H])C([H])([H])c2c([H])c(OC([H])([H])C(=O)N([H])C([H])([H])C([H])([H])C([H])([H])C([H])([H])C([H])([H])C([H])([H])C([H])([H])C([H])([H])C([H])([H])N([H])C(=O)N3C([H])([H])C([H])([H])C([H])([H])C([H])(n4nc(-c5c([H])c([H])c(Oc6c([H])c([H])c(F)c([H])c6F)c([H])c5[H])c(C(=O)N([H])[H])c4N([H])[H])C3([H])[H])c([H])c([H])c2C1([H])[H]

>  <smiles>  (14) 
[H]c1c([H])c([H])c2c(c1[H])C([H])([H])C([H])([H])C([H])([H])C2([H])N([H])C(=O)C1([H])N(C(=O)C([H])(N([H])C(=O)C([H])(N([H])C([H])([H])[H])C([H])([H])[H])C(C([H])([H])[H])(C([H])([H])[H])C([H])([H])[H])C([H])([H])c2c([H])c(OC([H])([H])C(=O)N([H])C([H])([H])C([H])([H])C([H])([H])C([H])([H])C([H])([H])C([H])([H])C([H])([H])C([H])([H])C([H])([H])N([H])C(=O)N3C([H])([H])C([H])([H])C([H])([H])C([H])(n4nc(-c5c([H])c([H])c(Oc6c([H])c([H])c(F)c([H])c6F)c([H])c5[H])c(C(=O)N([H])[H])c4N([H])[H])C3([H])[H])c([H])c([H])c2C1([H])[H]

$$$$
14:0:0
     RDKit          3D

 91 99  0  0  1  0  0  0  0  0999 V2000
  -28.2700  -23.7880   20.4640 C   0  0  0  0  0  0  0  0  0  0  0  0
  -28.9090  -22.5930   20.1520 N   0  0  0  0  0  0  0  0  0  0  0  0
  -27.4370  -23.8210   21.3720 O   0  0  0  0  0  0  0  0  0  0  0  0
  -29.6090  -22.6570   19.4270 H   0  0  0  0  0  0  0  0  0  0  0  0
  -28.4850  -21.1660   20.4990 C   0  0  0  0  0  2  0  0  0  0  0  0
  -31.5400  -19.0920   21.7940 C   0  0  0  0  0  3  0  0  0  0  0  0
  -30.6940  -20.1740   21.4550 C   0  0  0  0  0  3  0  0  0  0  0  0
  -31.2480  -17.7570   21.4220 C   0  0  0  0  0  3  0  0  0  0  0  0
  -29.2300  -18.5810   20.3670 C   0  0  0  0  0  3  0  0  0  0  0  0
  -29.5000  -19.9590   20.7410 C   0  0  0  0  0  0  0  0  0  0  0  0
  -30.0950  -17.4410   20.6640 C   0  0  0  0  0  0  0  0  0  0  0  0
  -30.5970  -14.8710   20.3470 C   0  0  0  0  0  0  0  0  0  0  0  0
  -30.4320  -12.5390   19.4320 C   0  0  0  0  0  2  0  0  0  0  0  0
  -29.5060  -12.4700   18.1970 C   0  0  0  0  0  2  0  0  0  0  0  0
  -28.0270  -12.3280   18.6170 C   0  0  0  0  0  2  0  0  0  0  0  0
  -27.6150  -13.2500   19.7970 C   0  0  0  0  0  3  0  0  0  0  0  0
  -28.6760  -13.2830   20.9180 C   0  0  0  0  0  2  0  0  0  0  0  0
  -29.9570  -13.6430   20.3000 N   0  0  0  0  0  0  0  0  0  0  0  0
  -31.8220  -14.8980   20.2010 O   0  0  0  0  0  0  0  0  0  0  0  0
  -29.1010  -16.1190   18.8830 C   0  0  0  0  0  1  0  0  0  0  0  0
  -29.8480  -16.0550   20.1480 N   0  0  0  0  0  0  0  0  0  0  0  0
  -25.2260  -13.8380   20.5080 C   0  0  0  0  0  0  0  0  0  0  0  0
  -24.1610  -13.0590   20.8670 C   0  0  0  0  0  0  0  0  0  0  0  0
  -24.6390  -11.7130   20.8570 C   0  0  0  0  0  0  0  0  0  0  0  0
  -26.2780  -12.9610   20.2930 N   0  0  0  0  0  0  0  0  0  0  0  0
  -25.9330  -11.6800   20.5700 N   0  0  0  0  0  0  0  0  0  0  0  0
  -23.9240  -10.4460   21.0450 C   0  0  0  0  0  0  0  0  0  0  0  0
  -24.3610   -9.4860   21.9850 C   0  0  0  0  0  3  0  0  0  0  0  0
  -23.6460   -8.2810   22.1610 C   0  0  0  0  0  3  0  0  0  0  0  0
  -22.4830   -8.0290   21.3970 C   0  0  0  0  0  0  0  0  0  0  0  0
  -22.0670   -8.9780   20.4450 C   0  0  0  0  0  3  0  0  0  0  0  0
  -22.7820  -10.1730   20.2670 C   0  0  0  0  0  3  0  0  0  0  0  0
  -21.7390   -6.8780   21.4830 O   0  0  0  0  0  0  0  0  0  0  0  0
  -21.6920   -6.1380   22.6370 C   0  0  0  0  0  0  0  0  0  0  0  0
  -21.2520   -6.6910   23.8590 C   0  0  0  0  0  3  0  0  0  0  0  0
  -21.1540   -5.8770   25.0050 C   0  0  0  0  0  3  0  0  0  0  0  0
  -21.4850   -4.5100   24.9290 C   0  0  0  0  0  0  0  0  0  0  0  0
  -21.9200   -3.9570   23.7120 C   0  0  0  0  0  3  0  0  0  0  0  0
  -22.0200   -4.7690   22.5690 C   0  0  0  0  0  0  0  0  0  0  0  0
  -22.4180   -4.2260   21.3920 F   0  0  0  0  0  0  0  0  0  0  0  0
  -21.3830   -3.7260   26.0270 F   0  0  0  0  0  0  0  0  0  0  0  0
  -22.7560  -13.5250   21.1100 C   0  0  0  0  0  0  0  0  0  0  0  0
  -22.0180  -12.8300   21.9680 N   0  0  0  0  0  0  0  0  0  0  0  0
  -22.3180  -14.5430   20.5740 O   0  0  0  0  0  0  0  0  0  0  0  0
  -22.3840  -12.0090   22.4260 H   0  0  0  0  0  0  0  0  0  0  0  0
  -21.0740  -13.1260   22.1720 H   0  0  0  0  0  0  0  0  0  0  0  0
  -25.3800  -15.2090   20.3250 N   0  0  0  0  0  0  0  0  0  0  0  0
  -24.6070  -15.8580   20.4320 H   0  0  0  0  0  0  0  0  0  0  0  0
  -26.2440  -15.6610   20.0550 H   0  0  0  0  0  0  0  0  0  0  0  0
  -28.5070  -25.1260   19.6110 C   0  0  0  0  0  2  0  0  0  0  0  0
  -28.3560  -26.4700   20.2640 O   0  0  0  0  0  0  0  0  0  0  0  0
  -24.6140  -31.8910   23.2410 C   0  0  0  0  0  0  0  0  0  0  0  0
  -27.2210  -27.3070   20.1710 C   0  0  0  0  0  0  0  0  0  0  0  0
  -23.4060  -30.4920   21.6040 C   0  0  0  0  0  3  0  0  0  0  0  0
  -24.8530  -28.9380   20.1660 C   0  0  0  0  0  0  0  0  0  0  0  0
  -25.9450  -30.8050   21.4130 C   0  0  0  0  0  2  0  0  0  0  0  0
  -26.0210  -29.4240   20.7610 C   0  0  0  0  0  0  0  0  0  0  0  0
  -27.2020  -28.6190   20.7540 C   0  0  0  0  0  3  0  0  0  0  0  0
  -26.0260  -26.8780   19.5550 C   0  0  0  0  0  3  0  0  0  0  0  0
  -24.8590  -27.6730   19.5520 C   0  0  0  0  0  3  0  0  0  0  0  0
  -23.6150  -29.8150   20.2220 C   0  0  0  0  0  2  0  0  0  0  0  0
  -24.6740  -31.0830   22.1410 N   0  0  0  0  0  0  0  0  0  0  0  0
  -23.5330  -32.1660   23.7820 O   0  0  0  0  0  0  0  0  0  0  0  0
  -22.7470  -29.4760   22.5690 C   0  0  0  0  0  0  0  0  0  0  0  0
  -21.4220  -29.2920   22.4430 N   0  0  0  0  0  0  0  0  0  0  0  0
  -23.4290  -28.8580   23.3890 O   0  0  0  0  0  0  0  0  0  0  0  0
  -20.9300  -29.8460   21.7550 H   0  0  0  0  0  0  0  0  0  0  0  0
  -18.0530  -28.0650   22.9420 C   0  0  0  0  0  0  0  0  0  0  0  0
  -20.6090  -28.3510   23.2160 C   0  0  0  0  0  3  0  0  0  0  0  0
  -20.7260  -26.9170   22.6500 C   0  0  0  0  0  2  0  0  0  0  0  0
  -19.6290  -26.5790   21.6340 C   0  0  0  0  0  2  0  0  0  0  0  0
  -18.2450  -26.7140   22.2740 C   0  0  0  0  0  2  0  0  0  0  0  0
  -19.1640  -28.8400   23.3700 C   0  0  0  0  0  0  0  0  0  0  0  0
  -18.9310  -30.1030   23.9570 C   0  0  0  0  0  3  0  0  0  0  0  0
  -17.6210  -30.5930   24.1170 C   0  0  0  0  0  3  0  0  0  0  0  0
  -16.5250  -29.8140   23.7030 C   0  0  0  0  0  3  0  0  0  0  0  0
  -16.7420  -28.5520   23.1220 C   0  0  0  0  0  3  0  0  0  0  0  0
  -25.8980  -32.5270   23.8580 C   0  0  0  0  0  3  0  0  0  0  0  0
  -26.4160  -31.7620   25.1390 C   0  0  1  0  0  0  0  0  0  0  0  0
  -25.3250  -31.5340   26.2110 C   0  0  0  0  0  1  0  0  0  0  0  0
  -26.9950  -30.3790   24.7580 C   0  0  0  0  0  1  0  0  0  0  0  0
  -27.5710  -32.5590   25.7920 C   0  0  0  0  0  1  0  0  0  0  0  0
  -25.5910  -33.9270   24.1830 N   0  0  0  0  0  0  0  0  0  0  0  0
  -25.9260  -34.9780   23.4210 C   0  0  0  0  0  0  0  0  0  0  0  0
  -26.5940  -34.8690   22.3900 O   0  0  0  0  0  0  0  0  0  0  0  0
  -24.9990  -34.0850   24.9850 H   0  0  0  0  0  0  0  0  0  0  0  0
  -24.2060  -36.7780   23.0580 C   0  0  0  0  0  1  0  0  0  0  0  0
  -25.4420  -36.3700   23.8750 C   0  0  0  0  0  3  0  0  0  0  0  0
  -27.5770  -37.2480   24.7130 C   0  0  0  0  0  1  0  0  0  0  0  0
  -26.4800  -37.4180   23.7630 N   0  0  0  0  0  0  0  0  0  0  0  0
  -26.0770  -38.3410   23.9060 H   0  0  0  0  0  0  0  0  0  0  0  0
  1  3  2  0
  2  1  1  0
  2  5  1  0
  4  2  1  0
  5 10  1  0
  7  6  1  0
  8  6  2  0
  9 11  2  0
  9 10  1  0
 10  7  2  0
 11  8  1  0
 13 18  1  0
 14 15  1  0
 14 13  1  0
 16 15  1  0
 16 25  1  0
 16 17  1  0
 18 12  1  0
 18 17  1  0
 19 12  2  0
 20 21  1  0
 21 12  1  0
 21 11  1  0
 22 23  2  0
 23 42  1  0
 24 23  1  0
 24 27  1  0
 25 22  1  0
 25 26  1  0
 26 24  2  0
 27 28  1  0
 28 29  2  0
 30 33  1  0
 30 29  1  0
 31 30  2  0
 32 31  1  0
 32 27  2  0
 33 34  1  0
 34 35  1  0
 35 36  2  0
 37 36  1  0
 37 41  1  0
 38 37  2  0
 39 34  2  0
 39 38  1  0
 40 39  1  0
 42 43  1  0
 43 46  1  0
 43 45  1  0
 44 42  2  0
 47 48  1  0
 47 22  1  0
 49 47  1  0
 50 51  1  0
 50  1  1  0
 52 63  2  0
 53 51  1  0
 53 58  1  0
 54 62  1  0
 54 64  1  0
 55 61  1  0
 55 57  1  0
 56 62  1  0
 57 56  1  0
 58 57  2  0
 59 53  2  0
 60 59  1  0
 60 55  2  0
 61 54  1  0
 62 52  1  0
 64 66  2  0
 65 64  1  0
 67 65  1  0
 68 77  2  0
 68 73  1  0
 69 65  1  0
 69 73  1  0
 70 69  1  0
 71 72  1  0
 71 70  1  0
 72 68  1  0
 73 74  2  0
 74 75  1  0
 76 75  2  0
 77 76  1  0
 78 52  1  0
 78 83  1  0
 78 79  1  0
 79 82  1  1
 79 80  1  0
 81 79  1  0
 83 86  1  0
 84 88  1  0
 84 83  1  0
 85 84  2  0
 88 87  1  0
 90 88  1  0
 90 91  1  0
 90 89  1  0
M  ISO  4  12 100  21 100  50 101  51 101
M  END
>  <TORSDO>  (15) 
F 19

>  <SCORE>  (15) 
-14.332

>  <name>  (15) 
14

>  <ligand_id>  (15) 
14

>  <original_smiles>  (15) 
[H]c1c([H])c(N(C(=O)N2C([H])([H])C([H])([H])C([H])([H])C([H])(n3nc(-c4c([H])c([H])c(Oc5c([H])c([H])c(F)c([H])c5F)c([H])c4[H])c(C(=O)N([H])[H])c3N([H])[H])C2([H])[H])C([H])([H])[H])c([H])c(C([H])([H])N([H])C(=O)C([H])([H])Oc2c([H])c([H])c3c(c2[H])C([H])([H])N(C(=O)C([H])(N([H])C(=O)C([H])(N([H])C([H])([H])[H])C([H])([H])[H])C(C([H])([H])[H])(C([H])([H])[H])C([H])([H])[H])C([H])(C(=O)N([H])C2([H])c4c([H])c([H])c([H])c([H])c4C([H])([H])C([H])([H])C2([H])[H])C3([H])[H])c1[H]

>  <smiles>  (15) 
[H]c1c([H])c(N(C(=O)N2C([H])([H])C([H])([H])C([H])([H])C([H])(n3nc(-c4c([H])c([H])c(Oc5c([H])c([H])c(F)c([H])c5F)c([H])c4[H])c(C(=O)N([H])[H])c3N([H])[H])C2([H])[H])C([H])([H])[H])c([H])c(C([H])([H])N([H])C(=O)C([H])([H])Oc2c([H])c([H])c3c(c2[H])C([H])([H])N(C(=O)C([H])(N([H])C(=O)C([H])(N([H])C([H])([H])[H])C([H])([H])[H])C(C([H])([H])[H])(C([H])([H])[H])C([H])([H])[H])C([H])(C(=O)N([H])C2([H])c4c([H])c([H])c([H])c([H])c4C([H])([H])C([H])([H])C2([H])[H])C3([H])[H])c1[H]

$$$$
15:0:0
     RDKit          3D

 89 97  0  0  1  0  0  0  0  0999 V2000
  -28.0720  -21.9970   21.2450 C   0  0  0  0  0  2  0  0  0  0  0  0
  -28.7130  -23.3730   20.8620 C   0  0  0  0  0  3  0  0  0  0  0  0
  -27.9020  -24.6370   21.2650 C   0  0  0  0  0  3  0  0  0  0  0  0
  -28.6340  -26.0070   21.0840 C   0  0  0  0  0  2  0  0  0  0  0  0
  -28.3690  -26.6890   19.8460 O   0  0  0  0  0  0  0  0  0  0  0  0
  -24.5390  -31.7490   23.0910 C   0  0  0  0  0  0  0  0  0  0  0  0
  -27.2230  -27.4510   19.8630 C   0  0  0  0  0  0  0  0  0  0  0  0
  -23.3350  -30.3530   21.4400 C   0  0  0  0  0  3  0  0  0  0  0  0
  -24.7980  -28.8960   19.9450 C   0  0  0  0  0  0  0  0  0  0  0  0
  -25.8420  -30.7880   21.1990 C   0  0  0  0  0  2  0  0  0  0  0  0
  -25.9520  -29.4330   20.5290 C   0  0  0  0  0  0  0  0  0  0  0  0
  -27.1700  -28.7180   20.4910 C   0  0  0  0  0  3  0  0  0  0  0  0
  -26.0630  -26.9370   19.2500 C   0  0  0  0  0  3  0  0  0  0  0  0
  -24.8480  -27.6480   19.2970 C   0  0  0  0  0  3  0  0  0  0  0  0
  -23.5300  -29.7140   20.0390 C   0  0  0  0  0  2  0  0  0  0  0  0
  -24.5910  -30.9770   21.9690 N   0  0  0  0  0  0  0  0  0  0  0  0
  -23.4630  -31.9790   23.6590 O   0  0  0  0  0  0  0  0  0  0  0  0
  -22.7320  -29.2920   22.3900 C   0  0  0  0  0  0  0  0  0  0  0  0
  -21.4170  -29.0540   22.2630 N   0  0  0  0  0  0  0  0  0  0  0  0
  -23.4450  -28.6900   23.1970 O   0  0  0  0  0  0  0  0  0  0  0  0
  -20.9000  -29.5940   21.5820 H   0  0  0  0  0  0  0  0  0  0  0  0
  -18.1060  -27.6990   22.7320 C   0  0  0  0  0  0  0  0  0  0  0  0
  -20.6460  -28.0720   23.0220 C   0  0  0  0  0  3  0  0  0  0  0  0
  -20.8170  -26.6530   22.4320 C   0  0  0  0  0  2  0  0  0  0  0  0
  -19.7380  -26.2870   21.4080 C   0  0  0  0  0  2  0  0  0  0  0  0
  -18.3480  -26.3650   22.0450 C   0  0  0  0  0  2  0  0  0  0  0  0
  -19.1850  -28.5070   23.1750 C   0  0  0  0  0  0  0  0  0  0  0  0
  -18.9030  -29.7550   23.7750 C   0  0  0  0  0  3  0  0  0  0  0  0
  -17.5760  -30.1940   23.9370 C   0  0  0  0  0  3  0  0  0  0  0  0
  -16.5120  -29.3800   23.5140 C   0  0  0  0  0  3  0  0  0  0  0  0
  -16.7760  -28.1340   22.9180 C   0  0  0  0  0  3  0  0  0  0  0  0
  -25.8230  -32.3970   23.7000 C   0  0  0  0  0  3  0  0  0  0  0  0
  -25.4870  -33.7750   24.0840 N   0  0  0  0  0  0  0  0  0  0  0  0
  -25.7800  -34.8580   23.3510 C   0  0  0  0  0  0  0  0  0  0  0  0
  -26.4390  -34.8040   22.3110 O   0  0  0  0  0  0  0  0  0  0  0  0
  -24.9020  -33.8890   24.8970 H   0  0  0  0  0  0  0  0  0  0  0  0
  -24.0060  -36.6160   23.0710 C   0  0  0  0  0  1  0  0  0  0  0  0
  -25.2650  -36.2170   23.8560 C   0  0  0  0  0  3  0  0  0  0  0  0
  -27.3830  -37.1290   24.7030 C   0  0  0  0  0  1  0  0  0  0  0  0
  -26.2730  -37.2980   23.7700 N   0  0  0  0  0  0  0  0  0  0  0  0
  -25.8440  -38.2020   23.9510 H   0  0  0  0  0  0  0  0  0  0  0  0
  -26.3980  -31.5990   24.9350 C   0  0  1  0  0  0  0  0  0  0  0  0
  -25.3430  -31.2860   26.0200 C   0  0  0  0  0  1  0  0  0  0  0  0
  -27.0180  -30.2570   24.4770 C   0  0  0  0  0  1  0  0  0  0  0  0
  -27.5410  -32.4060   25.5950 C   0  0  0  0  0  1  0  0  0  0  0  0
  -28.7650  -20.7640   20.5920 C   0  0  0  0  0  2  0  0  0  0  0  0
  -29.0940  -19.7280   21.5380 O   0  0  0  0  0  0  0  0  0  0  0  0
  -30.2910  -16.2020   21.6240 C   0  0  0  0  0  3  0  0  0  0  0  0
  -30.2190  -16.9170   19.3140 C   0  0  0  0  0  3  0  0  0  0  0  0
  -29.8230  -17.4820   22.0180 C   0  0  0  0  0  3  0  0  0  0  0  0
  -29.7590  -18.1920   19.7070 C   0  0  0  0  0  3  0  0  0  0  0  0
  -30.4970  -15.8980   20.2590 C   0  0  0  0  0  0  0  0  0  0  0  0
  -29.5510  -18.4990   21.0720 C   0  0  0  0  0  0  0  0  0  0  0  0
  -31.1330  -14.6090   19.7680 C   0  0  0  0  0  0  0  0  0  0  0  0
  -30.6800  -12.4510   18.6840 C   0  0  0  0  0  2  0  0  0  0  0  0
  -29.6290  -12.6900   17.5790 C   0  0  0  0  0  2  0  0  0  0  0  0
  -28.2010  -12.5750   18.1510 C   0  0  0  0  0  2  0  0  0  0  0  0
  -28.0110  -13.3970   19.4560 C   0  0  0  0  0  3  0  0  0  0  0  0
  -29.1740  -13.1530   20.4400 C   0  0  0  0  0  2  0  0  0  0  0  0
  -30.4360  -13.4400   19.7490 N   0  0  0  0  0  0  0  0  0  0  0  0
  -32.2150  -14.7290   19.1870 O   0  0  0  0  0  0  0  0  0  0  0  0
  -25.7760  -14.0200   20.5620 C   0  0  0  0  0  0  0  0  0  0  0  0
  -24.7200  -13.2560   20.9880 C   0  0  0  0  0  0  0  0  0  0  0  0
  -25.0840  -11.9010   20.7330 C   0  0  0  0  0  0  0  0  0  0  0  0
  -26.7180  -13.1250   20.0810 N   0  0  0  0  0  0  0  0  0  0  0  0
  -26.3160  -11.8380   20.2430 N   0  0  0  0  0  0  0  0  0  0  0  0
  -24.3090  -10.6600   20.8720 C   0  0  0  0  0  0  0  0  0  0  0  0
  -24.6990   -9.6440   21.7730 C   0  0  0  0  0  3  0  0  0  0  0  0
  -23.9290   -8.4670   21.9010 C   0  0  0  0  0  3  0  0  0  0  0  0
  -22.7540   -8.3000   21.1300 C   0  0  0  0  0  0  0  0  0  0  0  0
  -22.3830   -9.3040   20.2190 C   0  0  0  0  0  3  0  0  0  0  0  0
  -23.1540  -10.4730   20.0880 C   0  0  0  0  0  3  0  0  0  0  0  0
  -21.9570   -7.1820   21.1700 O   0  0  0  0  0  0  0  0  0  0  0  0
  -21.7480   -6.4900   22.3350 C   0  0  0  0  0  0  0  0  0  0  0  0
  -21.2000   -7.1060   23.4820 C   0  0  0  0  0  3  0  0  0  0  0  0
  -20.9360   -6.3390   24.6350 C   0  0  0  0  0  3  0  0  0  0  0  0
  -21.2070   -4.9590   24.6410 C   0  0  0  0  0  0  0  0  0  0  0  0
  -21.7490   -4.3430   23.4990 C   0  0  0  0  0  3  0  0  0  0  0  0
  -22.0140   -5.1060   22.3490 C   0  0  0  0  0  0  0  0  0  0  0  0
  -22.5140   -4.5040   21.2430 F   0  0  0  0  0  0  0  0  0  0  0  0
  -20.9490   -4.2190   25.7450 F   0  0  0  0  0  0  0  0  0  0  0  0
  -23.4050  -13.7620   21.5080 C   0  0  0  0  0  0  0  0  0  0  0  0
  -22.7720  -13.0230   22.4140 N   0  0  0  0  0  0  0  0  0  0  0  0
  -22.9520  -14.8470   21.1490 O   0  0  0  0  0  0  0  0  0  0  0  0
  -23.1470  -12.1420   22.7320 H   0  0  0  0  0  0  0  0  0  0  0  0
  -21.8970  -13.3510   22.7980 H   0  0  0  0  0  0  0  0  0  0  0  0
  -26.0020  -15.3920   20.5310 N   0  0  0  0  0  0  0  0  0  0  0  0
  -25.3070  -16.0640   20.8360 H   0  0  0  0  0  0  0  0  0  0  0  0
  -26.8470  -15.8300   20.1820 H   0  0  0  0  0  0  0  0  0  0  0  0
  2  1  1  0
  2  3  2  0
  4  3  1  0
  5  7  1  0
  5  4  1  0
  6 17  2  0
  7 12  1  0
  8 16  1  0
  8 18  1  0
  9 15  1  0
  9 11  1  0
 10 16  1  0
 11 10  1  0
 12 11  2  0
 13 14  1  0
 13  7  2  0
 14  9  2  0
 15  8  1  0
 16  6  1  0
 18 20  2  0
 19 18  1  0
 21 19  1  0
 22 31  2  0
 22 27  1  0
 23 19  1  0
 23 27  1  0
 24 23  1  0
 25 26  1  0
 25 24  1  0
 26 22  1  0
 27 28  2  0
 28 29  1  0
 30 29  2  0
 31 30  1  0
 32  6  1  0
 32 33  1  0
 32 42  1  0
 33 36  1  0
 34 38  1  0
 34 33  1  0
 35 34  2  0
 38 37  1  0
 40 38  1  0
 40 41  1  0
 40 39  1  0
 42 45  1  1
 42 43  1  0
 44 42  1  0
 46  1  1  0
 46 47  1  0
 48 50  1  0
 49 51  2  0
 49 52  1  0
 51 53  1  0
 52 48  2  0
 53 47  1  0
 53 50  2  0
 54 52  1  0
 55 60  1  0
 56 57  1  0
 56 55  1  0
 58 57  1  0
 58 65  1  0
 58 59  1  0
 60 54  1  0
 60 59  1  0
 61 54  2  0
 62 63  2  0
 63 82  1  0
 64 67  1  0
 64 63  1  0
 65 66  1  0
 65 62  1  0
 66 64  2  0
 67 68  1  0
 68 69  2  0
 70 73  1  0
 70 69  1  0
 71 70  2  0
 72 71  1  0
 72 67  2  0
 73 74  1  0
 74 79  2  0
 74 75  1  0
 75 76  2  0
 76 77  1  0
 77 81  1  0
 78 77  2  0
 79 78  1  0
 80 79  1  0
 82 83  1  0
 83 85  1  0
 83 86  1  0
 84 82  2  0
 87 62  1  0
 87 88  1  0
 89 87  1  0
M  ISO  4   4 101   5 101  52 100  54 100
M  END
>  <TORSDO>  (16) 
F 22

>  <SCORE>  (16) 
-11.312

>  <name>  (16) 
15

>  <ligand_id>  (16) 
15

>  <original_smiles>  (16) 
[H]c1c([H])c([H])c2c(c1[H])C([H])([H])C([H])([H])C([H])([H])C2([H])N([H])C(=O)C1([H])N(C(=O)C([H])(N([H])C(=O)C([H])(N([H])C([H])([H])[H])C([H])([H])[H])C(C([H])([H])[H])(C([H])([H])[H])C([H])([H])[H])C([H])([H])c2c([H])c(OC([H])([H])C([H])([H])C([H])([H])C([H])([H])C([H])([H])Oc3c([H])c([H])c(C(=O)N4C([H])([H])C([H])([H])C([H])([H])C([H])(n5nc(-c6c([H])c([H])c(Oc7c([H])c([H])c(F)c([H])c7F)c([H])c6[H])c(C(=O)N([H])[H])c5N([H])[H])C4([H])[H])c([H])c3[H])c([H])c([H])c2C1([H])[H]

>  <smiles>  (16) 
[H]c1c([H])c([H])c2c(c1[H])C([H])([H])C([H])([H])C([H])([H])C2([H])N([H])C(=O)C1([H])N(C(=O)C([H])(N([H])C(=O)C([H])(N([H])C([H])([H])[H])C([H])([H])[H])C(C([H])([H])[H])(C([H])([H])[H])C([H])([H])[H])C([H])([H])c2c([H])c(OC([H])([H])C([H])([H])C([H])([H])C([H])([H])C([H])([H])Oc3c([H])c([H])c(C(=O)N4C([H])([H])C([H])([H])C([H])([H])C([H])(n5nc(-c6c([H])c([H])c(Oc7c([H])c([H])c(F)c([H])c7F)c([H])c6[H])c(C(=O)N([H])[H])c5N([H])[H])C4([H])[H])c([H])c3[H])c([H])c([H])c2C1([H])[H]

$$$$
16:0:0
     RDKit          3D

 99107  0  0  1  0  0  0  0  0999 V2000
  -30.1140  -19.5310   17.0460 C   0  0  0  0  0  3  0  0  0  0  0  0
  -29.9320  -19.0950   18.3720 C   0  0  0  0  0  3  0  0  0  0  0  0
  -30.2930  -20.9000   16.7630 C   0  0  0  0  0  3  0  0  0  0  0  0
  -30.1290  -21.3980   19.1360 C   0  0  0  0  0  3  0  0  0  0  0  0
  -29.9320  -20.0230   19.4430 C   0  0  0  0  0  0  0  0  0  0  0  0
  -30.2820  -21.8480   17.8040 C   0  0  0  0  0  0  0  0  0  0  0  0
  -29.5710  -20.5280   21.8320 C   0  0  0  0  0  0  0  0  0  0  0  0
  -29.7690  -19.5760   20.8080 N   0  0  0  0  0  0  0  0  0  0  0  0
  -29.0920  -21.6570   21.6780 O   0  0  0  0  0  0  0  0  0  0  0  0
  -30.1150  -20.0500   23.5020 S   0  0  0  0  0  0  0  0  0  0  0  0
  -31.6710  -21.6280   25.1730 C   0  0  0  0  0  1  0  0  0  0  0  0
  -32.7830  -20.6300   23.1250 C   0  0  0  0  0  1  0  0  0  0  0  0
  -31.4930  -21.2310   23.7010 C   0  0  0  0  0  3  0  0  0  0  0  0
  -29.8760  -18.1290   21.1140 C   0  0  0  0  0  2  0  0  0  0  0  0
  -31.3010  -17.5780   20.8740 C   0  0  0  0  0  2  0  0  0  0  0  0
  -31.6340  -16.2750   21.6340 C   0  0  0  0  0  2  0  0  0  0  0  0
  -31.3450  -14.2750   20.1420 C   0  0  0  0  0  0  0  0  0  0  0  0
  -30.8650  -12.1580   18.9610 C   0  0  0  0  0  2  0  0  0  0  0  0
  -29.9030  -12.3800   17.7790 C   0  0  0  0  0  2  0  0  0  0  0  0
  -28.4360  -12.3210   18.2450 C   0  0  0  0  0  2  0  0  0  0  0  0
  -28.1740  -13.2210   19.4800 C   0  0  0  0  0  3  0  0  0  0  0  0
  -29.2330  -12.9640   20.5750 C   0  0  0  0  0  2  0  0  0  0  0  0
  -30.5720  -13.1700   19.9850 N   0  0  0  0  0  0  0  0  0  0  0  0
  -32.3600  -14.4990   19.4760 O   0  0  0  0  0  0  0  0  0  0  0  0
  -30.9430  -15.0950   21.1220 N   0  0  0  0  0  0  0  0  0  0  0  0
  -30.1130  -14.8010   21.6180 H   0  0  0  0  0  0  0  0  0  0  0  0
  -25.8770  -14.0040   20.3430 C   0  0  0  0  0  0  0  0  0  0  0  0
  -24.7490  -13.3120   20.6930 C   0  0  0  0  0  0  0  0  0  0  0  0
  -25.0660  -11.9290   20.5240 C   0  0  0  0  0  0  0  0  0  0  0  0
  -26.8160  -13.0450   19.9930 N   0  0  0  0  0  0  0  0  0  0  0  0
  -26.3310  -11.7870   20.1550 N   0  0  0  0  0  0  0  0  0  0  0  0
  -24.2220  -10.7330   20.6390 C   0  0  0  0  0  0  0  0  0  0  0  0
  -24.6290   -9.6100   21.3950 C   0  0  0  0  0  3  0  0  0  0  0  0
  -23.7910   -8.4800   21.5040 C   0  0  0  0  0  3  0  0  0  0  0  0
  -22.5330   -8.4630   20.8580 C   0  0  0  0  0  0  0  0  0  0  0  0
  -22.1430   -9.5730   20.0880 C   0  0  0  0  0  3  0  0  0  0  0  0
  -22.9790  -10.6960   19.9750 C   0  0  0  0  0  3  0  0  0  0  0  0
  -21.6650   -7.3990   20.8880 O   0  0  0  0  0  0  0  0  0  0  0  0
  -21.6350   -6.5250   21.9440 C   0  0  0  0  0  0  0  0  0  0  0  0
  -21.4180   -6.9640   23.2690 C   0  0  0  0  0  3  0  0  0  0  0  0
  -21.3220   -6.0250   24.3150 C   0  0  0  0  0  3  0  0  0  0  0  0
  -21.4360   -4.6480   24.0390 C   0  0  0  0  0  0  0  0  0  0  0  0
  -21.6450   -4.2090   22.7210 C   0  0  0  0  0  3  0  0  0  0  0  0
  -21.7410   -5.1460   21.6760 C   0  0  0  0  0  0  0  0  0  0  0  0
  -21.9220   -4.7150   20.4040 F   0  0  0  0  0  0  0  0  0  0  0  0
  -21.3380   -3.7460   25.0440 F   0  0  0  0  0  0  0  0  0  0  0  0
  -23.4190  -13.8980   21.0720 C   0  0  0  0  0  0  0  0  0  0  0  0
  -22.6870  -13.2360   21.9590 N   0  0  0  0  0  0  0  0  0  0  0  0
  -23.0430  -14.9780   20.6170 O   0  0  0  0  0  0  0  0  0  0  0  0
  -23.0020  -12.3580   22.3460 H   0  0  0  0  0  0  0  0  0  0  0  0
  -21.7960  -13.6110   22.2570 H   0  0  0  0  0  0  0  0  0  0  0  0
  -26.1800  -15.3620   20.2740 N   0  0  0  0  0  0  0  0  0  0  0  0
  -25.4970  -16.0840   20.4770 H   0  0  0  0  0  0  0  0  0  0  0  0
  -27.0560  -15.7310   19.9280 H   0  0  0  0  0  0  0  0  0  0  0  0
  -30.4560  -23.1780   17.4760 O   0  0  0  0  0  0  0  0  0  0  0  0
  -29.9220  -24.1540   18.3770 C   0  0  0  0  0  2  0  0  0  0  0  0
  -29.9110  -25.5280   17.6760 C   0  0  0  0  0  2  0  0  0  0  0  0
  -29.0410  -26.6040   18.3510 C   0  0  0  0  0  2  0  0  0  0  0  0
  -29.5750  -27.0560   19.5950 O   0  0  0  0  0  0  0  0  0  0  0  0
  -27.3180  -31.6310   24.5760 C   0  0  0  0  0  0  0  0  0  0  0  0
  -28.6230  -27.3670   20.5410 C   0  0  0  0  0  0  0  0  0  0  0  0
  -26.1360  -29.4590   24.4880 C   0  0  0  0  0  3  0  0  0  0  0  0
  -26.6470  -28.0070   22.4540 C   0  0  0  0  0  0  0  0  0  0  0  0
  -27.2230  -30.4370   22.3910 C   0  0  0  0  0  2  0  0  0  0  0  0
  -27.4560  -29.0170   21.9190 C   0  0  0  0  0  0  0  0  0  0  0  0
  -28.4470  -28.7020   20.9630 C   0  0  0  0  0  3  0  0  0  0  0  0
  -27.8190  -26.3550   21.1060 C   0  0  0  0  0  3  0  0  0  0  0  0
  -26.8280  -26.6710   22.0540 C   0  0  0  0  0  3  0  0  0  0  0  0
  -25.5980  -28.4250   23.4620 C   0  0  0  0  0  2  0  0  0  0  0  0
  -26.9370  -30.5460   23.8410 N   0  0  0  0  0  0  0  0  0  0  0  0
  -26.9740  -31.7520   25.7590 O   0  0  0  0  0  0  0  0  0  0  0  0
  -26.9120  -28.6980   25.5860 C   0  0  0  0  0  0  0  0  0  0  0  0
  -26.1820  -28.2070   26.6010 N   0  0  0  0  0  0  0  0  0  0  0  0
  -28.1320  -28.5350   25.5040 O   0  0  0  0  0  0  0  0  0  0  0  0
  -25.1880  -28.3920   26.5980 H   0  0  0  0  0  0  0  0  0  0  0  0
  -25.2390  -26.6510   29.7250 C   0  0  0  0  0  0  0  0  0  0  0  0
  -26.6860  -27.4220   27.7270 C   0  0  0  0  0  3  0  0  0  0  0  0
  -26.7950  -25.9240   27.3590 C   0  0  0  0  0  2  0  0  0  0  0  0
  -25.5490  -25.1180   27.7350 C   0  0  0  0  0  2  0  0  0  0  0  0
  -25.2800  -25.2100   29.2400 C   0  0  0  0  0  2  0  0  0  0  0  0
  -25.8840  -27.6920   29.0050 C   0  0  0  0  0  0  0  0  0  0  0  0
  -25.7790  -29.0190   29.4780 C   0  0  0  0  0  3  0  0  0  0  0  0
  -25.0520  -29.3110   30.6460 C   0  0  0  0  0  3  0  0  0  0  0  0
  -24.4300  -28.2750   31.3640 C   0  0  0  0  0  3  0  0  0  0  0  0
  -24.5270  -26.9500   30.9060 C   0  0  0  0  0  3  0  0  0  0  0  0
  -28.1790  -32.7770   23.9560 C   0  0  0  0  0  3  0  0  0  0  0  0
  -29.6880  -32.7380   24.4140 C   0  0  1  0  0  0  0  0  0  0  0  0
  -29.8700  -32.5900   25.9430 C   0  0  0  0  0  1  0  0  0  0  0  0
  -30.4290  -31.5630   23.7310 C   0  0  0  0  0  1  0  0  0  0  0  0
  -30.4040  -34.0340   23.9640 C   0  0  0  0  0  1  0  0  0  0  0  0
  -27.5550  -34.0530   24.3310 N   0  0  0  0  0  0  0  0  0  0  0  0
  -26.9520  -34.8850   23.4730 C   0  0  0  0  0  0  0  0  0  0  0  0
  -26.9270  -34.6930   22.2530 O   0  0  0  0  0  0  0  0  0  0  0  0
  -27.5020  -34.2590   25.3170 H   0  0  0  0  0  0  0  0  0  0  0  0
  -24.7440  -35.9960   23.9220 C   0  0  0  0  0  1  0  0  0  0  0  0
  -26.2680  -36.1340   24.0590 C   0  0  0  0  0  3  0  0  0  0  0  0
  -28.0830  -37.7620   23.7830 C   0  0  0  0  0  1  0  0  0  0  0  0
  -26.7110  -37.4000   23.4380 N   0  0  0  0  0  0  0  0  0  0  0  0
  -26.1040  -38.1660   23.7150 H   0  0  0  0  0  0  0  0  0  0  0  0
  1  2  1  0
  2  5  2  0
  3  1  2  0
  3  6  1  0
  4  5  1  0
  5  8  1  0
  6  4  2  0
  7 10  1  0
  8 14  1  0
  8  7  1  0
  9  7  2  0
 10 13  1  0
 12 13  1  0
 13 11  1  0
 15 14  1  0
 15 16  1  0
 17 25  1  0
 18 23  1  0
 19 20  1  0
 19 18  1  0
 21 20  1  0
 21 30  1  0
 21 22  1  0
 23 17  1  0
 23 22  1  0
 24 17  2  0
 25 26  1  0
 25 16  1  0
 27 28  2  0
 28 47  1  0
 29 32  1  0
 29 28  1  0
 30 31  1  0
 30 27  1  0
 31 29  2  0
 32 33  1  0
 33 34  2  0
 35 38  1  0
 35 34  1  0
 36 35  2  0
 37 36  1  0
 37 32  2  0
 38 39  1  0
 39 40  1  0
 40 41  2  0
 42 41  1  0
 42 46  1  0
 43 42  2  0
 44 39  2  0
 44 43  1  0
 45 44  1  0
 47 48  1  0
 48 51  1  0
 48 50  1  0
 49 47  2  0
 52 27  1  0
 52 53  1  0
 54 52  1  0
 55  6  1  0
 55 56  1  0
 57 58  1  0
 57 56  1  0
 58 59  1  0
 59 61  1  0
 60 71  2  0
 61 66  2  0
 61 67  1  0
 62 72  1  0
 63 69  1  0
 64 70  1  0
 65 64  1  0
 65 63  2  0
 66 65  1  0
 67 68  2  0
 68 63  1  0
 69 62  1  0
 70 62  1  0
 70 60  1  0
 72 73  1  0
 74 72  2  0
 75 73  1  0
 76 85  1  0
 77 73  1  0
 77 81  1  0
 78 77  1  0
 78 79  1  0
 79 80  1  0
 80 76  1  0
 81 82  1  0
 81 76  2  0
 82 83  2  0
 83 84  1  0
 85 84  2  0
 86 91  1  0
 86 87  1  0
 86 60  1  0
 87 88  1  1
 89 87  1  0
 90 87  1  0
 91 94  1  0
 92 96  1  0
 92 91  1  0
 93 92  2  0
 96 95  1  0
 98 99  1  0
 98 97  1  0
 98 96  1  0
M  ISO  4  17 100  25 100  58 101  59 101
M  END
>  <TORSDO>  (17) 
F 26

>  <SCORE>  (17) 
-8.067

>  <name>  (17) 
16

>  <ligand_id>  (17) 
16

>  <original_smiles>  (17) 
[H]c1c([H])c(OC([H])([H])C([H])([H])C([H])([H])Oc2c([H])c([H])c3c(c2[H])C([H])([H])N(C(=O)C([H])(N([H])C(=O)C([H])(N([H])C([H])([H])[H])C([H])([H])[H])C(C([H])([H])[H])(C([H])([H])[H])C([H])([H])[H])C([H])(C(=O)N([H])C2([H])c4c([H])c([H])c([H])c([H])c4C([H])([H])C([H])([H])C2([H])[H])C3([H])[H])c([H])c(N(C(=O)SC([H])(C([H])([H])[H])C([H])([H])[H])C([H])([H])C([H])([H])C([H])([H])N([H])C(=O)N2C([H])([H])C([H])([H])C([H])([H])C([H])(n3nc(-c4c([H])c([H])c(Oc5c([H])c([H])c(F)c([H])c5F)c([H])c4[H])c(C(=O)N([H])[H])c3N([H])[H])C2([H])[H])c1[H]

>  <smiles>  (17) 
[H]c1c([H])c(OC([H])([H])C([H])([H])C([H])([H])Oc2c([H])c([H])c3c(c2[H])C([H])([H])N(C(=O)C([H])(N([H])C(=O)C([H])(N([H])C([H])([H])[H])C([H])([H])[H])C(C([H])([H])[H])(C([H])([H])[H])C([H])([H])[H])C([H])(C(=O)N([H])C2([H])c4c([H])c([H])c([H])c([H])c4C([H])([H])C([H])([H])C2([H])[H])C3([H])[H])c([H])c(N(C(=O)SC([H])(C([H])([H])[H])C([H])([H])[H])C([H])([H])C([H])([H])C([H])([H])N([H])C(=O)N2C([H])([H])C([H])([H])C([H])([H])C([H])(n3nc(-c4c([H])c([H])c(Oc5c([H])c([H])c(F)c([H])c5F)c([H])c4[H])c(C(=O)N([H])[H])c3N([H])[H])C2([H])[H])c1[H]

$$$$
17:0:0
     RDKit          3D

 90 98  0  0  1  0  0  0  0  0999 V2000
  -31.0670  -17.9050   19.9700 C   0  0  0  0  0  3  0  0  0  0  0  0
  -30.9720  -19.3180   19.8000 C   0  0  0  0  0  3  0  0  0  0  0  0
  -28.7080  -17.8460   20.3920 C   0  0  0  0  0  3  0  0  0  0  0  0
  -28.6010  -19.2640   20.2210 C   0  0  0  0  0  0  0  0  0  0  0  0
  -29.9240  -17.1240   20.2710 C   0  0  0  0  0  0  0  0  0  0  0  0
  -29.7580  -20.0520   19.9120 C   0  0  0  0  0  0  0  0  0  0  0  0
  -27.2120  -19.8600   20.3800 C   0  0  0  0  0  1  0  0  0  0  0  0
  -30.6770  -14.6450   19.9960 C   0  0  0  0  0  0  0  0  0  0  0  0
  -30.4270  -12.3990   18.9600 C   0  0  0  0  0  2  0  0  0  0  0  0
  -29.4120  -12.5140   17.8010 C   0  0  0  0  0  2  0  0  0  0  0  0
  -27.9660  -12.3540   18.3140 C   0  0  0  0  0  2  0  0  0  0  0  0
  -27.6780  -13.2260   19.5650 C   0  0  0  0  0  3  0  0  0  0  0  0
  -28.7970  -13.0710   20.6190 C   0  0  0  0  0  2  0  0  0  0  0  0
  -30.0730  -13.4150   19.9700 N   0  0  0  0  0  0  0  0  0  0  0  0
  -31.8020  -14.8180   19.5140 O   0  0  0  0  0  0  0  0  0  0  0  0
  -29.8950  -15.6720   20.4510 N   0  0  0  0  0  0  0  0  0  0  0  0
  -29.0480  -15.3300   20.8770 H   0  0  0  0  0  0  0  0  0  0  0  0
  -25.3410  -13.8330   20.4500 C   0  0  0  0  0  0  0  0  0  0  0  0
  -24.2900  -13.0620   20.8660 C   0  0  0  0  0  0  0  0  0  0  0  0
  -24.7310  -11.7070   20.7680 C   0  0  0  0  0  0  0  0  0  0  0  0
  -26.3570  -12.9480   20.1260 N   0  0  0  0  0  0  0  0  0  0  0  0
  -25.9980  -11.6620   20.3750 N   0  0  0  0  0  0  0  0  0  0  0  0
  -24.0020  -10.4480   20.9680 C   0  0  0  0  0  0  0  0  0  0  0  0
  -24.4580   -9.4680   21.8780 C   0  0  0  0  0  3  0  0  0  0  0  0
  -23.7290   -8.2730   22.0660 C   0  0  0  0  0  3  0  0  0  0  0  0
  -22.5320   -8.0500   21.3470 C   0  0  0  0  0  0  0  0  0  0  0  0
  -22.0960   -9.0190   20.4250 C   0  0  0  0  0  3  0  0  0  0  0  0
  -22.8240  -10.2050   20.2340 C   0  0  0  0  0  3  0  0  0  0  0  0
  -21.7730   -6.9100   21.4460 O   0  0  0  0  0  0  0  0  0  0  0  0
  -21.7170   -6.1820   22.6080 C   0  0  0  0  0  0  0  0  0  0  0  0
  -21.2660   -6.7480   23.8200 C   0  0  0  0  0  3  0  0  0  0  0  0
  -21.1580   -5.9460   24.9750 C   0  0  0  0  0  3  0  0  0  0  0  0
  -21.4900   -4.5800   24.9170 C   0  0  0  0  0  0  0  0  0  0  0  0
  -21.9340   -4.0130   23.7080 C   0  0  0  0  0  3  0  0  0  0  0  0
  -22.0440   -4.8130   22.5570 C   0  0  0  0  0  0  0  0  0  0  0  0
  -22.4520   -4.2560   21.3910 F   0  0  0  0  0  0  0  0  0  0  0  0
  -21.3800   -3.8070   26.0230 F   0  0  0  0  0  0  0  0  0  0  0  0
  -22.9180  -13.5470   21.2420 C   0  0  0  0  0  0  0  0  0  0  0  0
  -22.2420  -12.8370   22.1370 N   0  0  0  0  0  0  0  0  0  0  0  0
  -22.4590  -14.5890   20.7750 O   0  0  0  0  0  0  0  0  0  0  0  0
  -22.6270  -11.9940   22.5350 H   0  0  0  0  0  0  0  0  0  0  0  0
  -21.3250  -13.1430   22.4310 H   0  0  0  0  0  0  0  0  0  0  0  0
  -25.5110  -15.2060   20.2980 N   0  0  0  0  0  0  0  0  0  0  0  0
  -24.7540  -15.8620   20.4610 H   0  0  0  0  0  0  0  0  0  0  0  0
  -26.3270  -15.6400   19.8850 H   0  0  0  0  0  0  0  0  0  0  0  0
  -29.8640  -21.4510   19.7040 O   0  0  0  0  0  0  0  0  0  0  0  0
  -28.8170  -22.4480   19.9280 C   0  0  0  0  0  3  0  0  0  0  0  0
  -29.2080  -23.9610   19.6160 C   0  0  0  0  0  3  0  0  0  0  0  0
  -28.1220  -25.0620   19.9710 C   0  0  0  0  0  2  0  0  0  0  0  0
  -28.3630  -26.4860   19.6390 O   0  0  0  0  0  0  0  0  0  0  0  0
  -24.7590  -31.6290   23.2030 C   0  0  0  0  0  0  0  0  0  0  0  0
  -27.2590  -27.3490   19.7000 C   0  0  0  0  0  0  0  0  0  0  0  0
  -23.5150  -30.4180   21.4480 C   0  0  0  0  0  3  0  0  0  0  0  0
  -24.9240  -28.9880   19.8670 C   0  0  0  0  0  0  0  0  0  0  0  0
  -26.0580  -30.7080   21.2730 C   0  0  0  0  0  2  0  0  0  0  0  0
  -26.1050  -29.3970   20.4980 C   0  0  0  0  0  0  0  0  0  0  0  0
  -27.2770  -28.5890   20.4070 C   0  0  0  0  0  3  0  0  0  0  0  0
  -26.0600  -27.0050   19.0360 C   0  0  0  0  0  3  0  0  0  0  0  0
  -24.9020  -27.7980   19.1270 C   0  0  0  0  0  3  0  0  0  0  0  0
  -23.7050  -29.8750   20.0080 C   0  0  0  0  0  2  0  0  0  0  0  0
  -24.7970  -30.9300   22.0320 N   0  0  0  0  0  0  0  0  0  0  0  0
  -23.6860  -31.8750   23.7730 O   0  0  0  0  0  0  0  0  0  0  0  0
  -22.8410  -29.3250   22.3120 C   0  0  0  0  0  0  0  0  0  0  0  0
  -21.5100  -29.1910   22.1860 N   0  0  0  0  0  0  0  0  0  0  0  0
  -23.5140  -28.6060   23.0540 O   0  0  0  0  0  0  0  0  0  0  0  0
  -21.0280  -29.8260   21.5650 H   0  0  0  0  0  0  0  0  0  0  0  0
  -18.1050  -28.0620   22.6470 C   0  0  0  0  0  0  0  0  0  0  0  0
  -20.6770  -28.2020   22.8720 C   0  0  0  0  0  3  0  0  0  0  0  0
  -20.7120  -26.8410   22.1410 C   0  0  0  0  0  2  0  0  0  0  0  0
  -19.5750  -26.6690   21.1290 C   0  0  0  0  0  2  0  0  0  0  0  0
  -18.2160  -26.7900   21.8230 C   0  0  0  0  0  2  0  0  0  0  0  0
  -19.2610  -28.7330   23.1270 C   0  0  0  0  0  0  0  0  0  0  0  0
  -19.1040  -29.9310   23.8580 C   0  0  0  0  0  3  0  0  0  0  0  0
  -17.8230  -30.4550   24.1150 C   0  0  0  0  0  3  0  0  0  0  0  0
  -16.6810  -29.7780   23.6510 C   0  0  0  0  0  3  0  0  0  0  0  0
  -16.8240  -28.5830   22.9240 C   0  0  0  0  0  3  0  0  0  0  0  0
  -26.0600  -32.1740   23.8700 C   0  0  0  0  0  3  0  0  0  0  0  0
  -26.5730  -31.2700   25.0590 C   0  0  1  0  0  0  0  0  0  0  0  0
  -25.4860  -30.9520   26.1120 C   0  0  0  0  0  1  0  0  0  0  0  0
  -27.1220  -29.9270   24.5270 C   0  0  0  0  0  1  0  0  0  0  0  0
  -27.7480  -31.9720   25.7800 C   0  0  0  0  0  1  0  0  0  0  0  0
  -25.7810  -33.5380   24.3400 N   0  0  0  0  0  0  0  0  0  0  0  0
  -26.1110  -34.6540   23.6770 C   0  0  0  0  0  0  0  0  0  0  0  0
  -26.7530  -34.6400   22.6230 O   0  0  0  0  0  0  0  0  0  0  0  0
  -25.2110  -33.6220   25.1700 H   0  0  0  0  0  0  0  0  0  0  0  0
  -24.3960  -36.4880   23.5480 C   0  0  0  0  0  1  0  0  0  0  0  0
  -25.6570  -35.9980   24.2780 C   0  0  0  0  0  3  0  0  0  0  0  0
  -27.8250  -36.7830   25.1210 C   0  0  0  0  0  1  0  0  0  0  0  0
  -26.6990  -37.0460   24.2280 N   0  0  0  0  0  0  0  0  0  0  0  0
  -26.3080  -37.9530   24.4680 H   0  0  0  0  0  0  0  0  0  0  0  0
  1  5  1  0
  2  6  1  0
  2  1  2  0
  4  7  1  0
  4  3  1  0
  5  3  2  0
  5 16  1  0
  6  4  2  0
  8 16  1  0
  9 14  1  0
 10 11  1  0
 10  9  1  0
 12 11  1  0
 12 21  1  0
 12 13  1  0
 14  8  1  0
 14 13  1  0
 15  8  2  0
 16 17  1  0
 18 19  2  0
 19 38  1  0
 20 19  1  0
 20 23  1  0
 21 22  1  0
 21 18  1  0
 22 20  2  0
 23 24  1  0
 24 25  2  0
 26 29  1  0
 26 25  1  0
 27 26  2  0
 28 27  1  0
 28 23  2  0
 29 30  1  0
 30 31  1  0
 31 32  2  0
 33 32  1  0
 33 37  1  0
 34 33  2  0
 35 30  2  0
 35 34  1  0
 36 35  1  0
 38 39  1  0
 39 42  1  0
 39 41  1  0
 40 38  2  0
 43 18  1  0
 43 44  1  0
 45 43  1  0
 46  6  1  0
 46 47  1  0
 48 47  2  0
 48 49  1  0
 50 52  1  0
 50 49  1  0
 51 62  2  0
 52 57  1  0
 53 61  1  0
 53 63  1  0
 54 60  1  0
 54 56  1  0
 55 61  1  0
 56 55  1  0
 57 56  2  0
 58 59  1  0
 58 52  2  0
 59 54  2  0
 60 53  1  0
 61 51  1  0
 63 65  2  0
 64 63  1  0
 66 64  1  0
 67 76  2  0
 67 72  1  0
 68 64  1  0
 68 72  1  0
 69 68  1  0
 70 71  1  0
 70 69  1  0
 71 67  1  0
 72 73  2  0
 73 74  1  0
 75 74  2  0
 76 75  1  0
 77 51  1  0
 77 82  1  0
 77 78  1  0
 78 81  1  1
 78 79  1  0
 80 78  1  0
 82 85  1  0
 83 87  1  0
 83 82  1  0
 84 83  2  0
 87 86  1  0
 89 87  1  0
 89 90  1  0
 89 88  1  0
M  ISO  4   8 100  16 100  49 101  50 101
M  END
>  <TORSDO>  (18) 
F 20

>  <SCORE>  (18) 
-12.647

>  <name>  (18) 
17

>  <ligand_id>  (18) 
17

>  <original_smiles>  (18) 
[H]c1c([H])c([H])c2c(c1[H])C([H])([H])C([H])([H])C([H])([H])C2([H])N([H])C(=O)C1([H])N(C(=O)C([H])(N([H])C(=O)C([H])(N([H])C([H])([H])[H])C([H])([H])[H])C(C([H])([H])[H])(C([H])([H])[H])C([H])([H])[H])C([H])([H])c2c([H])c(OC([H])([H])C([H])([H])C([H])([H])Oc3c([H])c([H])c(N([H])C(=O)N4C([H])([H])C([H])([H])C([H])([H])C([H])(n5nc(-c6c([H])c([H])c(Oc7c([H])c([H])c(F)c([H])c7F)c([H])c6[H])c(C(=O)N([H])[H])c5N([H])[H])C4([H])[H])c([H])c3C([H])([H])[H])c([H])c([H])c2C1([H])[H]

>  <smiles>  (18) 
[H]c1c([H])c([H])c2c(c1[H])C([H])([H])C([H])([H])C([H])([H])C2([H])N([H])C(=O)C1([H])N(C(=O)C([H])(N([H])C(=O)C([H])(N([H])C([H])([H])[H])C([H])([H])[H])C(C([H])([H])[H])(C([H])([H])[H])C([H])([H])[H])C([H])([H])c2c([H])c(OC([H])([H])C([H])([H])C([H])([H])Oc3c([H])c([H])c(N([H])C(=O)N4C([H])([H])C([H])([H])C([H])([H])C([H])(n5nc(-c6c([H])c([H])c(Oc7c([H])c([H])c(F)c([H])c7F)c([H])c6[H])c(C(=O)N([H])[H])c5N([H])[H])C4([H])[H])c([H])c3C([H])([H])[H])c([H])c([H])c2C1([H])[H]

$$$$
18:0:0
     RDKit          3D

108117  0  0  1  0  0  0  0  0999 V2000
  -32.2550  -19.7820   19.1870 C   0  0  0  0  0  2  0  0  0  0  0  0
  -32.2620  -21.3100   19.0880 C   0  0  0  0  0  2  0  0  0  0  0  0
  -33.5560  -21.8120   18.6360 N   0  0  0  0  0  0  0  0  0  0  0  0
  -33.8980  -21.3640   17.7910 H   0  0  0  0  0  0  0  0  0  0  0  0
  -34.7360  -25.1870   17.6420 C   0  0  0  0  0  3  0  0  0  0  0  0
  -34.5090  -23.7970   17.6390 C   0  0  0  0  0  3  0  0  0  0  0  0
  -34.2150  -25.9870   18.6760 C   0  0  0  0  0  3  0  0  0  0  0  0
  -33.2830  -23.9990   19.7350 C   0  0  0  0  0  3  0  0  0  0  0  0
  -33.7740  -23.1950   18.6790 C   0  0  0  0  0  0  0  0  0  0  0  0
  -33.4760  -25.3940   19.7190 C   0  0  0  0  0  0  0  0  0  0  0  0
  -32.9380  -26.1480   20.7280 O   0  0  0  0  0  0  0  0  0  0  0  0
  -32.0160  -27.1470   20.3040 C   0  0  0  0  0  2  0  0  0  0  0  0
  -30.6470  -26.5020   20.0230 C   0  0  0  0  0  2  0  0  0  0  0  0
  -29.5060  -27.5180   20.0360 C   0  0  0  0  0  2  0  0  0  0  0  0
  -28.2740  -26.8740   19.7080 O   0  0  0  0  0  0  0  0  0  0  0  0
  -24.5810  -31.9170   23.1230 C   0  0  0  0  0  0  0  0  0  0  0  0
  -27.1200  -27.6180   19.8240 C   0  0  0  0  0  0  0  0  0  0  0  0
  -23.2970  -30.5470   21.5060 C   0  0  0  0  0  3  0  0  0  0  0  0
  -24.6870  -29.0520   19.9810 C   0  0  0  0  0  0  0  0  0  0  0  0
  -25.7990  -30.9440   21.1900 C   0  0  0  0  0  2  0  0  0  0  0  0
  -25.8600  -29.5920   20.5170 C   0  0  0  0  0  0  0  0  0  0  0  0
  -27.0710  -28.8890   20.4410 C   0  0  0  0  0  3  0  0  0  0  0  0
  -25.9290  -27.0740   19.2970 C   0  0  0  0  0  3  0  0  0  0  0  0
  -24.7120  -27.7830   19.3740 C   0  0  0  0  0  3  0  0  0  0  0  0
  -23.4410  -29.8910   20.1030 C   0  0  0  0  0  2  0  0  0  0  0  0
  -24.5770  -31.1520   21.9970 N   0  0  0  0  0  0  0  0  0  0  0  0
  -23.5290  -32.1730   23.7240 O   0  0  0  0  0  0  0  0  0  0  0  0
  -22.7010  -29.5020   22.4740 C   0  0  0  0  0  0  0  0  0  0  0  0
  -21.3750  -29.3050   22.3870 N   0  0  0  0  0  0  0  0  0  0  0  0
  -23.4250  -28.8710   23.2500 O   0  0  0  0  0  0  0  0  0  0  0  0
  -20.8600  -29.8690   21.7240 H   0  0  0  0  0  0  0  0  0  0  0  0
  -18.0350  -28.0480   22.9390 C   0  0  0  0  0  0  0  0  0  0  0  0
  -20.5920  -28.3470   23.1650 C   0  0  0  0  0  3  0  0  0  0  0  0
  -20.7120  -26.9240   22.5700 C   0  0  0  0  0  2  0  0  0  0  0  0
  -19.5930  -26.5920   21.5790 C   0  0  0  0  0  2  0  0  0  0  0  0
  -18.2220  -26.7080   22.2510 C   0  0  0  0  0  2  0  0  0  0  0  0
  -19.1480  -28.8260   23.3530 C   0  0  0  0  0  0  0  0  0  0  0  0
  -18.9200  -30.0820   23.9560 C   0  0  0  0  0  3  0  0  0  0  0  0
  -17.6110  -30.5560   24.1520 C   0  0  0  0  0  3  0  0  0  0  0  0
  -16.5120  -29.7740   23.7560 C   0  0  0  0  0  3  0  0  0  0  0  0
  -16.7250  -28.5220   23.1540 C   0  0  0  0  0  3  0  0  0  0  0  0
  -25.8990  -32.5300   23.6970 C   0  0  0  0  0  3  0  0  0  0  0  0
  -25.6040  -33.9140   24.0900 N   0  0  0  0  0  0  0  0  0  0  0  0
  -25.9040  -34.9930   23.3550 C   0  0  0  0  0  0  0  0  0  0  0  0
  -26.5340  -34.9290   22.2950 O   0  0  0  0  0  0  0  0  0  0  0  0
  -25.0420  -34.0380   24.9200 H   0  0  0  0  0  0  0  0  0  0  0  0
  -24.1610  -36.7890   23.1220 C   0  0  0  0  0  1  0  0  0  0  0  0
  -25.4300  -36.3620   23.8770 C   0  0  0  0  0  3  0  0  0  0  0  0
  -27.5930  -37.2130   24.6640 C   0  0  0  0  0  1  0  0  0  0  0  0
  -26.4550  -37.4220   23.7710 N   0  0  0  0  0  0  0  0  0  0  0  0
  -26.0540  -38.3310   23.9880 H   0  0  0  0  0  0  0  0  0  0  0  0
  -26.4890  -31.7140   24.9140 C   0  0  1  0  0  0  0  0  0  0  0  0
  -25.4580  -31.4220   26.0270 C   0  0  0  0  0  1  0  0  0  0  0  0
  -27.0550  -30.3570   24.4390 C   0  0  0  0  0  1  0  0  0  0  0  0
  -27.6750  -32.4870   25.5410 C   0  0  0  0  0  1  0  0  0  0  0  0
  -32.5320  -19.0620   17.8560 C   0  0  0  0  0  2  0  0  0  0  0  0
  -32.8510  -17.5740   18.0630 C   0  0  0  0  0  2  0  0  0  0  0  0
  -32.9320  -16.7890   16.7480 C   0  0  0  0  0  2  0  0  0  0  0  0
  -33.5640  -15.3920   16.9210 C   0  0  0  0  0  2  0  0  0  0  0  0
  -32.7520  -14.4180   17.7920 C   0  0  0  0  0  2  0  0  0  0  0  0
  -33.2770  -14.3180   19.2530 C   0  0  0  0  0  2  0  0  0  0  0  0
  -31.1490  -13.9150   20.3480 C   0  0  0  0  0  0  0  0  0  0  0  0
  -30.2480  -12.0290   19.1830 C   0  0  0  0  0  2  0  0  0  0  0  0
  -29.3490  -12.5080   18.0470 C   0  0  0  0  0  2  0  0  0  0  0  0
  -27.9010  -12.4100   18.5180 C   0  0  0  0  0  2  0  0  0  0  0  0
  -27.6560  -13.2270   19.8090 C   0  0  0  0  0  3  0  0  0  0  0  0
  -28.7770  -13.0040   20.8840 C   0  0  0  0  0  2  0  0  0  0  0  0
  -30.1530  -12.9790   20.2980 N   0  0  0  0  0  0  0  0  0  0  0  0
  -30.9980  -15.1140   20.3950 O   0  0  0  0  0  0  0  0  0  0  0  0
  -33.0280  -12.7010   21.0400 C   0  0  0  0  0  0  0  0  0  0  0  0
  -32.4150  -13.4730   20.1190 N   0  0  0  0  0  0  0  0  0  0  0  0
  -33.5920  -13.1810   22.0320 O   0  0  0  0  0  0  0  0  0  0  0  0
  -32.6180   -8.9880   21.8010 C   0  0  0  0  0  3  0  0  0  0  0  0
  -33.1650   -8.3830   20.6580 C   0  0  0  0  0  3  0  0  0  0  0  0
  -32.5660  -10.3910   21.8890 C   0  0  0  0  0  3  0  0  0  0  0  0
  -33.6690   -9.1790   19.6060 C   0  0  0  0  0  3  0  0  0  0  0  0
  -33.0490  -11.2040   20.8410 C   0  0  0  0  0  0  0  0  0  0  0  0
  -33.6300  -10.5930   19.6920 C   0  0  0  0  0  0  0  0  0  0  0  0
  -35.1820  -10.9420   17.8570 C   0  0  0  0  0  1  0  0  0  0  0  0
  -34.1360  -11.4070   18.7000 O   0  0  0  0  0  0  0  0  0  0  0  0
  -25.2280  -13.8540   20.4650 C   0  0  0  0  0  0  0  0  0  0  0  0
  -24.1400  -13.0910   20.8130 C   0  0  0  0  0  0  0  0  0  0  0  0
  -24.5970  -11.7360   20.8140 C   0  0  0  0  0  0  0  0  0  0  0  0
  -26.2870  -12.9720   20.2970 N   0  0  0  0  0  0  0  0  0  0  0  0
  -25.9000  -11.6910   20.5540 N   0  0  0  0  0  0  0  0  0  0  0  0
  -23.8520  -10.4800   20.9980 C   0  0  0  0  0  0  0  0  0  0  0  0
  -24.2620   -9.5160   21.9460 C   0  0  0  0  0  3  0  0  0  0  0  0
  -23.5250   -8.3240   22.1230 C   0  0  0  0  0  3  0  0  0  0  0  0
  -22.3600   -8.0890   21.3540 C   0  0  0  0  0  0  0  0  0  0  0  0
  -21.9690   -9.0410   20.3970 C   0  0  0  0  0  3  0  0  0  0  0  0
  -22.7080  -10.2240   20.2170 C   0  0  0  0  0  3  0  0  0  0  0  0
  -21.5920   -6.9520   21.4430 O   0  0  0  0  0  0  0  0  0  0  0  0
  -21.5330   -6.2100   22.5960 C   0  0  0  0  0  0  0  0  0  0  0  0
  -21.1160   -6.7710   23.8230 C   0  0  0  0  0  3  0  0  0  0  0  0
  -21.0010   -5.9560   24.9680 C   0  0  0  0  0  3  0  0  0  0  0  0
  -21.2970   -4.5820   24.8880 C   0  0  0  0  0  0  0  0  0  0  0  0
  -21.7100   -4.0220   23.6660 C   0  0  0  0  0  3  0  0  0  0  0  0
  -21.8250   -4.8320   22.5240 C   0  0  0  0  0  0  0  0  0  0  0  0
  -22.2020   -4.2810   21.3440 F   0  0  0  0  0  0  0  0  0  0  0  0
  -21.1810   -3.7970   25.9850 F   0  0  0  0  0  0  0  0  0  0  0  0
  -22.7380  -13.5760   21.0420 C   0  0  0  0  0  0  0  0  0  0  0  0
  -21.9840  -12.8940   21.9000 N   0  0  0  0  0  0  0  0  0  0  0  0
  -22.3110  -14.5950   20.5010 O   0  0  0  0  0  0  0  0  0  0  0  0
  -22.3350  -12.0710   22.3670 H   0  0  0  0  0  0  0  0  0  0  0  0
  -21.0400  -13.1990   22.0860 H   0  0  0  0  0  0  0  0  0  0  0  0
  -25.3920  -15.2200   20.2560 N   0  0  0  0  0  0  0  0  0  0  0  0
  -24.6190  -15.8720   20.3290 H   0  0  0  0  0  0  0  0  0  0  0  0
  -26.2630  -15.6630   19.9910 H   0  0  0  0  0  0  0  0  0  0  0  0
  2  1  1  0
  3  9  1  0
  3  2  1  0
  4  3  1  0
  5  7  1  0
  6  5  2  0
  6  9  1  0
  7 10  2  0
  9  8  2  0
 10  8  1  0
 10 11  1  0
 12 11  1  0
 13 14  1  0
 13 12  1  0
 15 17  1  0
 15 14  1  0
 16 27  2  0
 17 22  1  0
 18 26  1  0
 18 28  1  0
 19 25  1  0
 19 21  1  0
 20 26  1  0
 21 20  1  0
 22 21  2  0
 23 24  1  0
 23 17  2  0
 24 19  2  0
 25 18  1  0
 26 16  1  0
 28 30  2  0
 29 28  1  0
 31 29  1  0
 32 41  2  0
 32 37  1  0
 33 29  1  0
 33 37  1  0
 34 33  1  0
 35 36  1  0
 35 34  1  0
 36 32  1  0
 37 38  2  0
 38 39  1  0
 40 39  2  0
 41 40  1  0
 42 16  1  0
 42 43  1  0
 42 52  1  0
 43 46  1  0
 44 48  1  0
 44 43  1  0
 45 44  2  0
 48 47  1  0
 50 48  1  0
 50 51  1  0
 50 49  1  0
 52 55  1  1
 52 53  1  0
 54 52  1  0
 56 57  1  0
 56  1  1  0
 58 59  1  0
 58 57  1  0
 59 60  1  0
 60 61  1  0
 61 71  1  0
 62 69  2  0
 63 68  1  0
 64 65  1  0
 64 63  1  0
 66 65  1  0
 66 84  1  0
 66 67  1  0
 68 62  1  0
 68 67  1  0
 70 72  2  0
 71 62  1  0
 71 70  1  0
 73 75  1  0
 74 73  2  0
 76 78  2  0
 76 74  1  0
 77 70  1  0
 77 75  2  0
 78 77  1  0
 79 80  1  0
 80 78  1  0
 81 82  2  0
 82 83  1  0
 82101  1  0
 83 86  1  0
 84 81  1  0
 84 85  1  0
 85 83  2  0
 86 87  1  0
 87 88  2  0
 89 92  1  0
 89 88  1  0
 90 89  2  0
 91 90  1  0
 91 86  2  0
 92 93  1  0
 93 94  1  0
 94 95  2  0
 96 95  1  0
 96100  1  0
 97 96  2  0
 98 93  2  0
 98 97  1  0
 99 98  1  0
101102  1  0
102105  1  0
102104  1  0
103101  2  0
106107  1  0
106 81  1  0
108106  1  0
M  ISO  4  14 101  15 101  62 100  71 100
M  END
>  <TORSDO>  (19) 
F 31

>  <SCORE>  (19) 
-10.569

>  <name>  (19) 
18

>  <ligand_id>  (19) 
18

>  <original_smiles>  (19) 
[H]c1c([H])c([H])c(C(=O)N(C(=O)N2C([H])([H])C([H])([H])C([H])([H])C([H])(n3nc(-c4c([H])c([H])c(Oc5c([H])c([H])c(F)c([H])c5F)c([H])c4[H])c(C(=O)N([H])[H])c3N([H])[H])C2([H])[H])C([H])([H])C([H])([H])C([H])([H])C([H])([H])C([H])([H])C([H])([H])C([H])([H])C([H])([H])N([H])c2c([H])c([H])c([H])c(OC([H])([H])C([H])([H])C([H])([H])Oc3c([H])c([H])c4c(c3[H])C([H])([H])N(C(=O)C([H])(N([H])C(=O)C([H])(N([H])C([H])([H])[H])C([H])([H])[H])C(C([H])([H])[H])(C([H])([H])[H])C([H])([H])[H])C([H])(C(=O)N([H])C3([H])c5c([H])c([H])c([H])c([H])c5C([H])([H])C([H])([H])C3([H])[H])C4([H])[H])c2[H])c(OC([H])([H])[H])c1[H]

>  <smiles>  (19) 
[H]c1c([H])c([H])c(C(=O)N(C(=O)N2C([H])([H])C([H])([H])C([H])([H])C([H])(n3nc(-c4c([H])c([H])c(Oc5c([H])c([H])c(F)c([H])c5F)c([H])c4[H])c(C(=O)N([H])[H])c3N([H])[H])C2([H])[H])C([H])([H])C([H])([H])C([H])([H])C([H])([H])C([H])([H])C([H])([H])C([H])([H])C([H])([H])N([H])c2c([H])c([H])c([H])c(OC([H])([H])C([H])([H])C([H])([H])Oc3c([H])c([H])c4c(c3[H])C([H])([H])N(C(=O)C([H])(N([H])C(=O)C([H])(N([H])C([H])([H])[H])C([H])([H])[H])C(C([H])([H])[H])(C([H])([H])[H])C([H])([H])[H])C([H])(C(=O)N([H])C3([H])c5c([H])c([H])c([H])c([H])c5C([H])([H])C([H])([H])C3([H])[H])C4([H])[H])c2[H])c(OC([H])([H])[H])c1[H]

$$$$
19:0:0
     RDKit          3D

100108  0  0  1  0  0  0  0  0999 V2000
  -30.8470  -22.9200   17.7700 C   0  0  0  0  0  2  0  0  0  0  0  0
  -31.9620  -23.9850   17.7160 C   0  0  0  0  0  2  0  0  0  0  0  0
  -31.3120  -25.3930   17.7190 C   0  0  0  0  0  2  0  0  0  0  0  0
  -31.3420  -26.1410   19.0710 C   0  0  0  0  0  2  0  0  0  0  0  0
  -29.8200  -24.9760   20.7070 C   0  0  0  0  0  0  0  0  0  0  0  0
  -31.0300  -25.2940   20.2260 N   0  0  0  0  0  0  0  0  0  0  0  0
  -29.7150  -24.2430   21.6880 O   0  0  0  0  0  0  0  0  0  0  0  0
  -31.8150  -24.9220   20.7410 H   0  0  0  0  0  0  0  0  0  0  0  0
  -28.5610  -25.5410   20.0360 C   0  0  0  0  0  2  0  0  0  0  0  0
  -28.5420  -26.9500   20.2530 O   0  0  0  0  0  0  0  0  0  0  0  0
  -24.6320  -31.9940   23.3230 C   0  0  0  0  0  0  0  0  0  0  0  0
  -27.3380  -27.6090   20.2280 C   0  0  0  0  0  0  0  0  0  0  0  0
  -23.4450  -30.5870   21.6670 C   0  0  0  0  0  3  0  0  0  0  0  0
  -24.9210  -29.0640   20.2470 C   0  0  0  0  0  0  0  0  0  0  0  0
  -25.9680  -30.9770   21.4790 C   0  0  0  0  0  2  0  0  0  0  0  0
  -26.0680  -29.6100   20.8360 C   0  0  0  0  0  0  0  0  0  0  0  0
  -27.2800  -28.8860   20.8250 C   0  0  0  0  0  3  0  0  0  0  0  0
  -26.1790  -27.0850   19.6120 C   0  0  0  0  0  3  0  0  0  0  0  0
  -24.9710  -27.8000   19.6300 C   0  0  0  0  0  3  0  0  0  0  0  0
  -23.6670  -29.9030   20.2880 C   0  0  0  0  0  2  0  0  0  0  0  0
  -24.7000  -31.2030   22.2100 N   0  0  0  0  0  0  0  0  0  0  0  0
  -23.5490  -32.2500   23.8630 O   0  0  0  0  0  0  0  0  0  0  0  0
  -22.8070  -29.5540   22.6180 C   0  0  0  0  0  0  0  0  0  0  0  0
  -21.4880  -29.3390   22.4680 N   0  0  0  0  0  0  0  0  0  0  0  0
  -23.4920  -28.9480   23.4480 O   0  0  0  0  0  0  0  0  0  0  0  0
  -20.9940  -29.8950   21.7840 H   0  0  0  0  0  0  0  0  0  0  0  0
  -18.1440  -28.0570   22.9000 C   0  0  0  0  0  0  0  0  0  0  0  0
  -20.6850  -28.3860   23.2300 C   0  0  0  0  0  3  0  0  0  0  0  0
  -20.8380  -26.9500   22.6770 C   0  0  0  0  0  2  0  0  0  0  0  0
  -19.7710  -26.5890   21.6390 C   0  0  0  0  0  2  0  0  0  0  0  0
  -18.3710  -26.7040   22.2460 C   0  0  0  0  0  2  0  0  0  0  0  0
  -19.2310  -28.8510   23.3510 C   0  0  0  0  0  0  0  0  0  0  0  0
  -18.9630  -30.1130   23.9190 C   0  0  0  0  0  3  0  0  0  0  0  0
  -17.6420  -30.5830   24.0480 C   0  0  0  0  0  3  0  0  0  0  0  0
  -16.5700  -29.7850   23.6130 C   0  0  0  0  0  3  0  0  0  0  0  0
  -16.8200  -28.5260   23.0420 C   0  0  0  0  0  3  0  0  0  0  0  0
  -25.9140  -32.6310   23.9480 C   0  0  0  0  0  3  0  0  0  0  0  0
  -26.4130  -31.8820   25.2430 C   0  0  1  0  0  0  0  0  0  0  0  0
  -25.3070  -31.6610   26.2980 C   0  0  0  0  0  1  0  0  0  0  0  0
  -27.0030  -30.4950   24.8840 C   0  0  0  0  0  1  0  0  0  0  0  0
  -27.5490  -32.6870   25.9140 C   0  0  0  0  0  1  0  0  0  0  0  0
  -25.6080  -34.0360   24.2440 N   0  0  0  0  0  0  0  0  0  0  0  0
  -25.9590  -35.0680   23.4700 C   0  0  0  0  0  0  0  0  0  0  0  0
  -26.6550  -34.9460   22.4580 O   0  0  0  0  0  0  0  0  0  0  0  0
  -25.0030  -34.2050   25.0340 H   0  0  0  0  0  0  0  0  0  0  0  0
  -24.2620  -36.8660   23.0200 C   0  0  0  0  0  1  0  0  0  0  0  0
  -25.4650  -36.4650   23.8870 C   0  0  0  0  0  3  0  0  0  0  0  0
  -27.5640  -37.3590   24.7950 C   0  0  0  0  0  1  0  0  0  0  0  0
  -26.5090  -37.5090   23.7960 N   0  0  0  0  0  0  0  0  0  0  0  0
  -26.1010  -38.4330   23.9050 H   0  0  0  0  0  0  0  0  0  0  0  0
  -31.1740  -21.4720   18.1880 C   0  0  0  0  0  2  0  0  0  0  0  0
  -28.7420  -20.8830   17.9540 C   0  0  0  0  0  1  0  0  0  0  0  0
  -29.9770  -20.8230   18.7400 N   0  0  0  0  0  0  0  0  0  0  0  0
  -30.3780  -18.4200   18.5430 C   0  0  0  0  0  3  0  0  0  0  0  0
  -30.4010  -18.1440   21.3150 C   0  0  0  0  0  3  0  0  0  0  0  0
  -30.2040  -19.5660   19.3360 C   0  0  0  0  0  0  0  0  0  0  0  0
  -30.5880  -16.9700   20.5240 C   0  0  0  0  0  0  0  0  0  0  0  0
  -30.5940  -17.1370   19.1010 C   0  0  0  0  0  0  0  0  0  0  0  0
  -30.2210  -19.4170   20.7360 C   0  0  0  0  0  0  0  0  0  0  0  0
  -30.0260  -20.4900   21.5390 F   0  0  0  0  0  0  0  0  0  0  0  0
  -31.2790  -14.6260   20.4700 C   0  0  0  0  0  0  0  0  0  0  0  0
  -30.8800  -12.4290   19.3730 C   0  0  0  0  0  2  0  0  0  0  0  0
  -29.9400  -12.5540   18.1600 C   0  0  0  0  0  2  0  0  0  0  0  0
  -28.4730  -12.4340   18.6160 C   0  0  0  0  0  2  0  0  0  0  0  0
  -28.1310  -13.3570   19.8210 C   0  0  0  0  0  3  0  0  0  0  0  0
  -29.2070  -13.2230   20.9260 C   0  0  0  0  0  2  0  0  0  0  0  0
  -30.5330  -13.4860   20.3420 N   0  0  0  0  0  0  0  0  0  0  0  0
  -32.3680  -14.7750   19.9100 O   0  0  0  0  0  0  0  0  0  0  0  0
  -30.8320  -15.5480   22.6360 C   0  0  0  0  0  1  0  0  0  0  0  0
  -30.7540  -15.6680   21.1640 N   0  0  0  0  0  0  0  0  0  0  0  0
  -25.7680  -13.9420   20.6690 C   0  0  0  0  0  0  0  0  0  0  0  0
  -24.7040  -13.1580   21.0190 C   0  0  0  0  0  0  0  0  0  0  0  0
  -25.1450  -11.8060   20.8870 C   0  0  0  0  0  0  0  0  0  0  0  0
  -26.7940  -13.0690   20.3430 N   0  0  0  0  0  0  0  0  0  0  0  0
  -26.4260  -11.7750   20.5410 N   0  0  0  0  0  0  0  0  0  0  0  0
  -24.4110  -10.5400   21.0130 C   0  0  0  0  0  0  0  0  0  0  0  0
  -24.7790   -9.5690   21.9720 C   0  0  0  0  0  3  0  0  0  0  0  0
  -24.0490   -8.3690   22.0920 C   0  0  0  0  0  3  0  0  0  0  0  0
  -22.9370   -8.1250   21.2510 C   0  0  0  0  0  0  0  0  0  0  0  0
  -22.5870   -9.0840   20.2860 C   0  0  0  0  0  3  0  0  0  0  0  0
  -23.3170  -10.2760   20.1630 C   0  0  0  0  0  3  0  0  0  0  0  0
  -22.1830   -6.9750   21.2780 O   0  0  0  0  0  0  0  0  0  0  0  0
  -21.9110   -6.3180   22.4510 C   0  0  0  0  0  0  0  0  0  0  0  0
  -21.2350   -6.9480   23.5190 C   0  0  0  0  0  3  0  0  0  0  0  0
  -20.9210   -6.2180   24.6820 C   0  0  0  0  0  3  0  0  0  0  0  0
  -21.2680   -4.8560   24.7740 C   0  0  0  0  0  0  0  0  0  0  0  0
  -21.9340   -4.2260   23.7110 C   0  0  0  0  0  3  0  0  0  0  0  0
  -22.2510   -4.9550   22.5500 C   0  0  0  0  0  0  0  0  0  0  0  0
  -22.8780   -4.3400   21.5180 F   0  0  0  0  0  0  0  0  0  0  0  0
  -20.9540   -4.1500   25.8870 F   0  0  0  0  0  0  0  0  0  0  0  0
  -23.3180  -13.6260   21.3660 C   0  0  0  0  0  0  0  0  0  0  0  0
  -22.6210  -12.8800   22.2130 N   0  0  0  0  0  0  0  0  0  0  0  0
  -22.8690  -14.6840   20.9230 O   0  0  0  0  0  0  0  0  0  0  0  0
  -23.0110  -12.0290   22.5940 H   0  0  0  0  0  0  0  0  0  0  0  0
  -21.6870  -13.1540   22.4820 H   0  0  0  0  0  0  0  0  0  0  0  0
  -25.9460  -15.3210   20.5720 N   0  0  0  0  0  0  0  0  0  0  0  0
  -25.1860  -15.9670   20.7390 H   0  0  0  0  0  0  0  0  0  0  0  0
  -26.8030  -15.7670   20.2750 H   0  0  0  0  0  0  0  0  0  0  0  0
  -31.6260  -16.2370   17.1200 C   0  0  0  0  0  1  0  0  0  0  0  0
  -30.7630  -16.0590   18.2540 O   0  0  0  0  0  0  0  0  0  0  0  0
  1 51  1  0
  2  3  1  0
  2  1  1  0
  3  4  1  0
  4  6  1  0
  5  7  2  0
  6  5  1  0
  6  8  1  0
  9 10  1  0
  9  5  1  0
 11 22  2  0
 12 10  1  0
 12 17  1  0
 13 21  1  0
 13 23  1  0
 14 20  1  0
 14 16  1  0
 15 21  1  0
 16 15  1  0
 17 16  2  0
 18 19  1  0
 18 12  2  0
 19 14  2  0
 20 13  1  0
 21 11  1  0
 23 25  2  0
 24 23  1  0
 26 24  1  0
 27 36  2  0
 27 32  1  0
 28 24  1  0
 28 32  1  0
 29 28  1  0
 30 31  1  0
 30 29  1  0
 31 27  1  0
 32 33  2  0
 33 34  1  0
 35 34  2  0
 36 35  1  0
 37 11  1  0
 37 42  1  0
 37 38  1  0
 38 41  1  1
 38 39  1  0
 40 38  1  0
 42 45  1  0
 43 47  1  0
 43 42  1  0
 44 43  2  0
 47 46  1  0
 49 47  1  0
 49 50  1  0
 49 48  1  0
 51 53  1  0
 52 53  1  0
 53 56  1  0
 54 58  2  0
 54 56  1  0
 56 59  2  0
 57 70  1  0
 57 55  2  0
 58 57  1  0
 59 55  1  0
 59 60  1  0
 61 70  1  0
 62 67  1  0
 63 64  1  0
 63 62  1  0
 65 64  1  0
 65 74  1  0
 65 66  1  0
 67 61  1  0
 67 66  1  0
 68 61  2  0
 70 69  1  0
 71 72  2  0
 72 91  1  0
 73 76  1  0
 73 72  1  0
 74 75  1  0
 74 71  1  0
 75 73  2  0
 76 77  1  0
 77 78  2  0
 79 82  1  0
 79 78  1  0
 80 79  2  0
 81 80  1  0
 81 76  2  0
 82 83  1  0
 83 88  2  0
 83 84  1  0
 84 85  2  0
 85 86  1  0
 86 90  1  0
 87 86  2  0
 88 87  1  0
 89 88  1  0
 91 92  1  0
 92 95  1  0
 92 94  1  0
 93 91  2  0
 96 71  1  0
 96 97  1  0
 98 96  1  0
 99100  1  0
100 58  1  0
M  ISO  4   9 101  10 101  61 100  70 100
M  END
>  <TORSDO>  (20) 
F 25

>  <SCORE>  (20) 
-10.840

>  <name>  (20) 
19

>  <ligand_id>  (20) 
19

>  <original_smiles>  (20) 
[H]c1c([H])c([H])c2c(c1[H])C([H])([H])C([H])([H])C([H])([H])C2([H])N([H])C(=O)C1([H])N(C(=O)C([H])(N([H])C(=O)C([H])(N([H])C([H])([H])[H])C([H])([H])[H])C(C([H])([H])[H])(C([H])([H])[H])C([H])([H])[H])C([H])([H])c2c([H])c(OC([H])([H])C(=O)N([H])C([H])([H])C([H])([H])C([H])([H])C([H])([H])C([H])([H])N(c3c([H])c(OC([H])([H])[H])c(N(C(=O)N4C([H])([H])C([H])([H])C([H])([H])C([H])(n5nc(-c6c([H])c([H])c(Oc7c([H])c([H])c(F)c([H])c7F)c([H])c6[H])c(C(=O)N([H])[H])c5N([H])[H])C4([H])[H])C([H])([H])[H])c([H])c3F)C([H])([H])[H])c([H])c([H])c2C1([H])[H]

>  <smiles>  (20) 
[H]c1c([H])c([H])c2c(c1[H])C([H])([H])C([H])([H])C([H])([H])C2([H])N([H])C(=O)C1([H])N(C(=O)C([H])(N([H])C(=O)C([H])(N([H])C([H])([H])[H])C([H])([H])[H])C(C([H])([H])[H])(C([H])([H])[H])C([H])([H])[H])C([H])([H])c2c([H])c(OC([H])([H])C(=O)N([H])C([H])([H])C([H])([H])C([H])([H])C([H])([H])C([H])([H])N(c3c([H])c(OC([H])([H])[H])c(N(C(=O)N4C([H])([H])C([H])([H])C([H])([H])C([H])(n5nc(-c6c([H])c([H])c(Oc7c([H])c([H])c(F)c([H])c7F)c([H])c6[H])c(C(=O)N([H])[H])c5N([H])[H])C4([H])[H])C([H])([H])[H])c([H])c3F)C([H])([H])[H])c([H])c([H])c2C1([H])[H]

$$$$
20:0:0
     RDKit          3D

 94102  0  0  1  0  0  0  0  0999 V2000
  -28.8280  -19.2280   20.4580 C   0  0  0  0  0  3  0  0  0  0  0  0
  -31.2500  -17.8420   20.7390 C   0  0  0  0  0  3  0  0  0  0  0  0
  -30.0150  -20.0030   20.5390 C   0  0  0  0  0  0  0  0  0  0  0  0
  -30.0610  -17.0720   20.6500 C   0  0  0  0  0  0  0  0  0  0  0  0
  -28.8420  -17.7940   20.5150 C   0  0  0  0  0  0  0  0  0  0  0  0
  -31.2260  -19.2680   20.6910 C   0  0  0  0  0  0  0  0  0  0  0  0
  -32.7240  -20.1210   20.8260 Cl  0  0  0  0  0  0  0  0  0  0  0  0
  -30.7230  -14.6050   20.1320 C   0  0  0  0  0  0  0  0  0  0  0  0
  -30.4040  -12.4650   18.9080 C   0  0  0  0  0  2  0  0  0  0  0  0
  -29.3810  -12.7040   17.7740 C   0  0  0  0  0  2  0  0  0  0  0  0
  -27.9370  -12.5330   18.2890 C   0  0  0  0  0  2  0  0  0  0  0  0
  -27.6800  -13.2970   19.6150 C   0  0  0  0  0  3  0  0  0  0  0  0
  -28.8080  -13.0300   20.6380 C   0  0  0  0  0  2  0  0  0  0  0  0
  -30.0840  -13.4000   20.0050 N   0  0  0  0  0  0  0  0  0  0  0  0
  -31.8450  -14.7910   19.6550 O   0  0  0  0  0  0  0  0  0  0  0  0
  -29.9770  -15.6120   20.6820 N   0  0  0  0  0  0  0  0  0  0  0  0
  -29.1100  -15.2820   21.0790 H   0  0  0  0  0  0  0  0  0  0  0  0
  -25.3290  -13.8680   20.4800 C   0  0  0  0  0  0  0  0  0  0  0  0
  -24.2830  -13.0820   20.8850 C   0  0  0  0  0  0  0  0  0  0  0  0
  -24.7440  -11.7330   20.7840 C   0  0  0  0  0  0  0  0  0  0  0  0
  -26.3600  -12.9980   20.1640 N   0  0  0  0  0  0  0  0  0  0  0  0
  -26.0160  -11.7070   20.4040 N   0  0  0  0  0  0  0  0  0  0  0  0
  -24.0290  -10.4640   20.9710 C   0  0  0  0  0  0  0  0  0  0  0  0
  -24.4680   -9.4990   21.9040 C   0  0  0  0  0  3  0  0  0  0  0  0
  -23.7530   -8.2950   22.0790 C   0  0  0  0  0  3  0  0  0  0  0  0
  -22.5830   -8.0480   21.3210 C   0  0  0  0  0  0  0  0  0  0  0  0
  -22.1630   -9.0020   20.3790 C   0  0  0  0  0  3  0  0  0  0  0  0
  -22.8790  -10.1980   20.2020 C   0  0  0  0  0  3  0  0  0  0  0  0
  -21.8400   -6.8960   21.4060 O   0  0  0  0  0  0  0  0  0  0  0  0
  -21.7240   -6.1980   22.5820 C   0  0  0  0  0  0  0  0  0  0  0  0
  -21.1950   -6.7890   23.7500 C   0  0  0  0  0  3  0  0  0  0  0  0
  -21.0300   -6.0150   24.9160 C   0  0  0  0  0  3  0  0  0  0  0  0
  -21.3850   -4.6520   24.9160 C   0  0  0  0  0  0  0  0  0  0  0  0
  -21.9070   -4.0630   23.7510 C   0  0  0  0  0  3  0  0  0  0  0  0
  -22.0740   -4.8330   22.5870 C   0  0  0  0  0  0  0  0  0  0  0  0
  -22.5580   -4.2540   21.4620 F   0  0  0  0  0  0  0  0  0  0  0  0
  -21.2190   -3.9080   26.0330 F   0  0  0  0  0  0  0  0  0  0  0  0
  -22.9060  -13.5480   21.2550 C   0  0  0  0  0  0  0  0  0  0  0  0
  -22.2410  -12.8410   22.1620 N   0  0  0  0  0  0  0  0  0  0  0  0
  -22.4280  -14.5760   20.7740 O   0  0  0  0  0  0  0  0  0  0  0  0
  -22.6410  -12.0100   22.5710 H   0  0  0  0  0  0  0  0  0  0  0  0
  -21.3200  -13.1350   22.4520 H   0  0  0  0  0  0  0  0  0  0  0  0
  -25.4790  -15.2420   20.3340 N   0  0  0  0  0  0  0  0  0  0  0  0
  -24.7160  -15.8860   20.5080 H   0  0  0  0  0  0  0  0  0  0  0  0
  -26.3270  -15.7030   20.0300 H   0  0  0  0  0  0  0  0  0  0  0  0
  -29.1140  -22.4210   20.2590 C   0  0  0  0  0  0  0  0  0  0  0  0
  -30.0600  -21.4700   20.5340 N   0  0  0  0  0  0  0  0  0  0  0  0
  -27.9860  -22.1150   19.8700 O   0  0  0  0  0  0  0  0  0  0  0  0
  -30.9750  -21.8440   20.7520 H   0  0  0  0  0  0  0  0  0  0  0  0
  -29.4650  -23.9530   20.4380 C   0  0  0  0  0  3  0  0  0  0  0  0
  -28.4110  -25.0130   19.8970 C   0  0  0  0  0  3  0  0  0  0  0  0
  -28.5770  -26.4550   20.1880 O   0  0  0  0  0  0  0  0  0  0  0  0
  -24.5900  -31.6480   23.2150 C   0  0  0  0  0  0  0  0  0  0  0  0
  -27.4310  -27.2650   20.1190 C   0  0  0  0  0  0  0  0  0  0  0  0
  -23.4810  -30.2680   21.4950 C   0  0  0  0  0  3  0  0  0  0  0  0
  -25.0200  -28.8040   20.0750 C   0  0  0  0  0  0  0  0  0  0  0  0
  -26.0140  -30.6630   21.4080 C   0  0  0  0  0  2  0  0  0  0  0  0
  -26.1540  -29.3080   20.7250 C   0  0  0  0  0  0  0  0  0  0  0  0
  -27.3620  -28.5510   20.7370 C   0  0  0  0  0  3  0  0  0  0  0  0
  -26.2690  -26.8130   19.4480 C   0  0  0  0  0  3  0  0  0  0  0  0
  -25.0800  -27.5610   19.4290 C   0  0  0  0  0  3  0  0  0  0  0  0
  -23.7590  -29.6410   20.1030 C   0  0  0  0  0  2  0  0  0  0  0  0
  -24.7110  -30.8750   22.0970 N   0  0  0  0  0  0  0  0  0  0  0  0
  -23.4820  -31.8810   23.7190 O   0  0  0  0  0  0  0  0  0  0  0  0
  -22.8140  -29.2040   22.4010 C   0  0  0  0  0  0  0  0  0  0  0  0
  -21.4970  -29.0010   22.2250 N   0  0  0  0  0  0  0  0  0  0  0  0
  -23.4820  -28.5680   23.2200 O   0  0  0  0  0  0  0  0  0  0  0  0
  -21.0180  -29.5670   21.5400 H   0  0  0  0  0  0  0  0  0  0  0  0
  -18.1210  -27.7680   22.6340 C   0  0  0  0  0  0  0  0  0  0  0  0
  -20.6760  -28.0220   22.9400 C   0  0  0  0  0  3  0  0  0  0  0  0
  -20.7900  -26.6220   22.2950 C   0  0  0  0  0  2  0  0  0  0  0  0
  -19.6970  -26.3470   21.2560 C   0  0  0  0  0  2  0  0  0  0  0  0
  -18.3090  -26.4550   21.8940 C   0  0  0  0  0  2  0  0  0  0  0  0
  -19.2340  -28.5110   23.1120 C   0  0  0  0  0  0  0  0  0  0  0  0
  -19.0040  -29.7420   23.7650 C   0  0  0  0  0  3  0  0  0  0  0  0
  -17.6960  -30.2300   23.9440 C   0  0  0  0  0  3  0  0  0  0  0  0
  -16.5990  -29.4830   23.4830 C   0  0  0  0  0  3  0  0  0  0  0  0
  -16.8120  -28.2540   22.8340 C   0  0  0  0  0  3  0  0  0  0  0  0
  -25.8340  -32.2930   23.8990 C   0  0  0  0  0  3  0  0  0  0  0  0
  -26.2920  -31.5310   25.2030 C   0  0  1  0  0  0  0  0  0  0  0  0
  -25.1450  -31.2760   26.2080 C   0  0  0  0  0  1  0  0  0  0  0  0
  -26.9200  -30.1640   24.8460 C   0  0  0  0  0  1  0  0  0  0  0  0
  -27.3890  -32.3460   25.9270 C   0  0  0  0  0  1  0  0  0  0  0  0
  -25.4960  -33.6900   24.2070 N   0  0  0  0  0  0  0  0  0  0  0  0
  -25.8390  -34.7410   23.4500 C   0  0  0  0  0  0  0  0  0  0  0  0
  -26.5440  -34.6390   22.4430 O   0  0  0  0  0  0  0  0  0  0  0  0
  -24.8740  -33.8430   24.9870 H   0  0  0  0  0  0  0  0  0  0  0  0
  -24.0930  -36.5030   23.0330 C   0  0  0  0  0  1  0  0  0  0  0  0
  -25.3190  -36.1270   23.8790 C   0  0  0  0  0  3  0  0  0  0  0  0
  -27.4120  -37.0620   24.7600 C   0  0  0  0  0  1  0  0  0  0  0  0
  -26.3380  -37.1950   23.7800 N   0  0  0  0  0  0  0  0  0  0  0  0
  -25.9120  -38.1100   23.8970 H   0  0  0  0  0  0  0  0  0  0  0  0
  -26.5240  -17.6040   19.8860 C   0  0  0  0  0  1  0  0  0  0  0  0
  -27.6970  -17.0240   20.4470 O   0  0  0  0  0  0  0  0  0  0  0  0
  1  5  2  0
  1  3  1  0
  3  6  2  0
  4 16  1  0
  4  2  2  0
  5  4  1  0
  6  2  1  0
  6  7  1  0
  8 16  1  0
  9 14  1  0
 10 11  1  0
 10  9  1  0
 12 11  1  0
 12 21  1  0
 12 13  1  0
 14  8  1  0
 14 13  1  0
 15  8  2  0
 16 17  1  0
 18 19  2  0
 19 38  1  0
 20 19  1  0
 20 23  1  0
 21 22  1  0
 21 18  1  0
 22 20  2  0
 23 24  1  0
 24 25  2  0
 26 29  1  0
 26 25  1  0
 27 26  2  0
 28 27  1  0
 28 23  2  0
 29 30  1  0
 30 35  2  0
 30 31  1  0
 31 32  2  0
 33 32  1  0
 33 37  1  0
 34 33  2  0
 35 34  1  0
 36 35  1  0
 38 39  1  0
 39 42  1  0
 39 41  1  0
 40 38  2  0
 43 18  1  0
 43 44  1  0
 45 43  1  0
 46 50  1  0
 46 47  1  0
 47  3  1  0
 47 49  1  0
 48 46  2  0
 51 52  1  0
 51 50  2  0
 53 64  2  0
 54 52  1  0
 54 59  1  0
 55 63  1  0
 55 65  1  0
 56 62  1  0
 56 58  1  0
 57 63  1  0
 58 59  2  0
 58 57  1  0
 60 54  2  0
 61 60  1  0
 61 56  2  0
 62 55  1  0
 63 53  1  0
 65 67  2  0
 66 65  1  0
 68 66  1  0
 69 78  2  0
 69 74  1  0
 70 66  1  0
 70 74  1  0
 71 70  1  0
 72 73  1  0
 72 71  1  0
 73 69  1  0
 74 75  2  0
 75 76  1  0
 77 76  2  0
 78 77  1  0
 79 53  1  0
 79 84  1  0
 79 80  1  0
 80 83  1  1
 80 81  1  0
 82 80  1  0
 84 87  1  0
 85 89  1  0
 85 84  1  0
 86 85  2  0
 89 88  1  0
 91 89  1  0
 91 92  1  0
 91 90  1  0
 93 94  1  0
 94  5  1  0
M  ISO  4   8 100  16 100  51 101  52 101
M  END
>  <TORSDO>  (21) 
F 20

>  <SCORE>  (21) 
-13.871

>  <name>  (21) 
20

>  <ligand_id>  (21) 
20

>  <original_smiles>  (21) 
[H]c1c([H])c([H])c2c(c1[H])C([H])([H])C([H])([H])C([H])([H])C2([H])N([H])C(=O)C1([H])N(C(=O)C([H])(N([H])C(=O)C([H])(N([H])C([H])([H])[H])C([H])([H])[H])C(C([H])([H])[H])(C([H])([H])[H])C([H])([H])[H])C([H])([H])c2c([H])c(OC([H])([H])C([H])([H])C(=O)N([H])c3c([H])c(OC([H])([H])[H])c(N([H])C(=O)N4C([H])([H])C([H])([H])C([H])([H])C([H])(n5nc(-c6c([H])c([H])c(Oc7c([H])c([H])c(F)c([H])c7F)c([H])c6[H])c(C(=O)N([H])[H])c5N([H])[H])C4([H])[H])c([H])c3Cl)c([H])c([H])c2C1([H])[H]

>  <smiles>  (21) 
[H]c1c([H])c([H])c2c(c1[H])C([H])([H])C([H])([H])C([H])([H])C2([H])N([H])C(=O)C1([H])N(C(=O)C([H])(N([H])C(=O)C([H])(N([H])C([H])([H])[H])C([H])([H])[H])C(C([H])([H])[H])(C([H])([H])[H])C([H])([H])[H])C([H])([H])c2c([H])c(OC([H])([H])C([H])([H])C(=O)N([H])c3c([H])c(OC([H])([H])[H])c(N([H])C(=O)N4C([H])([H])C([H])([H])C([H])([H])C([H])(n5nc(-c6c([H])c([H])c(Oc7c([H])c([H])c(F)c([H])c7F)c([H])c6[H])c(C(=O)N([H])[H])c5N([H])[H])C4([H])[H])c([H])c3Cl)c([H])c([H])c2C1([H])[H]

$$$$
21:0:0
     RDKit          3D

 95103  0  0  1  0  0  0  0  0999 V2000
  -27.8770  -22.5310   20.9440 C   0  0  0  0  0  0  0  0  0  0  0  0
  -28.6680  -21.4730   21.1660 N   0  0  0  0  0  0  0  0  0  0  0  0
  -28.5150  -23.7060   21.0080 N   0  0  0  0  0  0  0  0  0  0  0  0
  -26.6800  -22.4340   20.6840 O   0  0  0  0  0  0  0  0  0  0  0  0
  -29.6500  -21.6310   21.3400 H   0  0  0  0  0  0  0  0  0  0  0  0
  -29.5020  -23.7200   21.2240 H   0  0  0  0  0  0  0  0  0  0  0  0
  -28.2050  -20.0820   21.1710 C   0  0  0  0  0  2  0  0  0  0  0  0
  -29.3600  -19.0510   21.2860 C   0  0  0  0  0  2  0  0  0  0  0  0
  -30.6410  -18.9440   17.6640 C   0  0  0  0  0  3  0  0  0  0  0  0
  -30.0350  -19.3920   18.8420 C   0  0  0  0  0  3  0  0  0  0  0  0
  -31.2230  -17.6720   17.6220 C   0  0  0  0  0  3  0  0  0  0  0  0
  -30.5690  -17.2650   19.9320 C   0  0  0  0  0  3  0  0  0  0  0  0
  -29.9950  -18.5640   19.9860 C   0  0  0  0  0  0  0  0  0  0  0  0
  -31.2210  -16.8090   18.7530 C   0  0  0  0  0  0  0  0  0  0  0  0
  -32.3080  -14.7800   19.7210 C   0  0  0  0  0  0  0  0  0  0  0  0
  -31.8000  -12.4860   19.0970 C   0  0  0  0  0  2  0  0  0  0  0  0
  -30.8700  -12.5170   17.8670 C   0  0  0  0  0  2  0  0  0  0  0  0
  -29.3910  -12.6540   18.2770 C   0  0  0  0  0  2  0  0  0  0  0  0
  -29.1280  -13.7070   19.3890 C   0  0  0  0  0  3  0  0  0  0  0  0
  -30.1890  -13.6460   20.5120 C   0  0  0  0  0  2  0  0  0  0  0  0
  -31.5160  -13.6900   19.8830 N   0  0  0  0  0  0  0  0  0  0  0  0
  -33.5200  -14.7540   19.9220 O   0  0  0  0  0  0  0  0  0  0  0  0
  -32.7270  -15.3480   17.4350 C   0  0  0  0  0  1  0  0  0  0  0  0
  -31.9190  -15.5470   18.6640 N   0  0  0  0  0  0  0  0  0  0  0  0
  -26.8330  -14.5990   20.1380 C   0  0  0  0  0  0  0  0  0  0  0  0
  -25.6830  -13.9600   20.5200 C   0  0  0  0  0  0  0  0  0  0  0  0
  -25.9800  -12.5610   20.4970 C   0  0  0  0  0  0  0  0  0  0  0  0
  -27.7630  -13.5970   19.9050 N   0  0  0  0  0  0  0  0  0  0  0  0
  -27.2570  -12.3660   20.1880 N   0  0  0  0  0  0  0  0  0  0  0  0
  -25.1100  -11.3950   20.6950 C   0  0  0  0  0  0  0  0  0  0  0  0
  -25.3810  -10.4300   21.6910 C   0  0  0  0  0  3  0  0  0  0  0  0
  -24.5180   -9.3270   21.8760 C   0  0  0  0  0  3  0  0  0  0  0  0
  -23.3690   -9.1820   21.0630 C   0  0  0  0  0  0  0  0  0  0  0  0
  -23.1160  -10.1330   20.0570 C   0  0  0  0  0  3  0  0  0  0  0  0
  -23.9790  -11.2260   19.8720 C   0  0  0  0  0  3  0  0  0  0  0  0
  -22.4890   -8.1300   21.1530 O   0  0  0  0  0  0  0  0  0  0  0  0
  -22.2190   -7.5190   22.3500 C   0  0  0  0  0  0  0  0  0  0  0  0
  -21.7130   -8.2370   23.4570 C   0  0  0  0  0  3  0  0  0  0  0  0
  -21.3800   -7.5560   24.6450 C   0  0  0  0  0  3  0  0  0  0  0  0
  -21.5480   -6.1610   24.7280 C   0  0  0  0  0  0  0  0  0  0  0  0
  -22.0490   -5.4450   23.6270 C   0  0  0  0  0  3  0  0  0  0  0  0
  -22.3830   -6.1220   22.4400 C   0  0  0  0  0  0  0  0  0  0  0  0
  -22.8430   -5.4240   21.3760 F   0  0  0  0  0  0  0  0  0  0  0  0
  -21.2240   -5.5060   25.8680 F   0  0  0  0  0  0  0  0  0  0  0  0
  -24.3520  -14.6000   20.7940 C   0  0  0  0  0  0  0  0  0  0  0  0
  -23.5600  -14.0100   21.6820 N   0  0  0  0  0  0  0  0  0  0  0  0
  -24.0230  -15.6550   20.2520 O   0  0  0  0  0  0  0  0  0  0  0  0
  -23.8380  -13.1550   22.1410 H   0  0  0  0  0  0  0  0  0  0  0  0
  -22.6690  -14.4230   21.9100 H   0  0  0  0  0  0  0  0  0  0  0  0
  -27.1620  -15.9390   19.9560 N   0  0  0  0  0  0  0  0  0  0  0  0
  -26.4890  -16.6890   20.0810 H   0  0  0  0  0  0  0  0  0  0  0  0
  -28.0690  -16.2700   19.6490 H   0  0  0  0  0  0  0  0  0  0  0  0
  -27.8720  -24.9820   20.6790 C   0  0  0  0  0  2  0  0  0  0  0  0
  -28.7440  -26.2210   20.9810 C   0  0  0  0  0  2  0  0  0  0  0  0
  -28.5430  -27.2950   20.0530 O   0  0  0  0  0  0  0  0  0  0  0  0
  -24.7650  -32.1170   23.7030 C   0  0  0  0  0  0  0  0  0  0  0  0
  -27.3740  -28.0100   20.1850 C   0  0  0  0  0  0  0  0  0  0  0  0
  -23.5400  -30.8950   21.9330 C   0  0  0  0  0  3  0  0  0  0  0  0
  -24.9840  -29.5030   20.3540 C   0  0  0  0  0  0  0  0  0  0  0  0
  -26.0650  -31.2670   21.7570 C   0  0  0  0  0  2  0  0  0  0  0  0
  -26.1430  -29.9640   20.9900 C   0  0  0  0  0  0  0  0  0  0  0  0
  -27.3440  -29.2240   20.9050 C   0  0  0  0  0  3  0  0  0  0  0  0
  -26.2040  -27.5680   19.5330 C   0  0  0  0  0  3  0  0  0  0  0  0
  -25.0070  -28.3030   19.6240 C   0  0  0  0  0  3  0  0  0  0  0  0
  -23.7400  -30.3530   20.4910 C   0  0  0  0  0  2  0  0  0  0  0  0
  -24.8080  -31.4330   22.5240 N   0  0  0  0  0  0  0  0  0  0  0  0
  -23.6880  -32.3370   24.2770 O   0  0  0  0  0  0  0  0  0  0  0  0
  -22.8890  -29.7860   22.7910 C   0  0  0  0  0  0  0  0  0  0  0  0
  -21.5750  -29.5840   22.6130 N   0  0  0  0  0  0  0  0  0  0  0  0
  -23.5650  -29.1130   23.5740 O   0  0  0  0  0  0  0  0  0  0  0  0
  -21.0870  -30.1910   21.9690 H   0  0  0  0  0  0  0  0  0  0  0  0
  -18.2450  -28.1980   22.8130 C   0  0  0  0  0  0  0  0  0  0  0  0
  -20.7620  -28.5660   23.2770 C   0  0  0  0  0  3  0  0  0  0  0  0
  -20.9760  -27.1750   22.6380 C   0  0  0  0  0  2  0  0  0  0  0  0
  -19.9640  -26.8570   21.5300 C   0  0  0  0  0  2  0  0  0  0  0  0
  -18.5350  -26.9010   22.0770 C   0  0  0  0  0  2  0  0  0  0  0  0
  -19.2910  -28.9900   23.3600 C   0  0  0  0  0  0  0  0  0  0  0  0
  -18.9680  -30.2040   23.9990 C   0  0  0  0  0  3  0  0  0  0  0  0
  -17.6320  -30.6340   24.0980 C   0  0  0  0  0  3  0  0  0  0  0  0
  -16.5990  -29.8430   23.5690 C   0  0  0  0  0  3  0  0  0  0  0  0
  -16.9060  -28.6270   22.9330 C   0  0  0  0  0  3  0  0  0  0  0  0
  -26.0580  -32.6750   24.3750 C   0  0  0  0  0  3  0  0  0  0  0  0
  -25.8000  -34.0730   24.7460 N   0  0  0  0  0  0  0  0  0  0  0  0
  -26.2120  -35.1330   24.0370 C   0  0  0  0  0  0  0  0  0  0  0  0
  -26.9190  -35.0340   23.0320 O   0  0  0  0  0  0  0  0  0  0  0  0
  -25.1790  -34.2260   25.5260 H   0  0  0  0  0  0  0  0  0  0  0  0
  -24.5860  -37.0150   23.6670 C   0  0  0  0  0  1  0  0  0  0  0  0
  -25.7660  -36.5250   24.5220 C   0  0  0  0  0  3  0  0  0  0  0  0
  -27.8950  -37.2740   25.4870 C   0  0  0  0  0  1  0  0  0  0  0  0
  -26.8500  -37.5310   24.5000 N   0  0  0  0  0  0  0  0  0  0  0  0
  -26.4810  -38.4640   24.6630 H   0  0  0  0  0  0  0  0  0  0  0  0
  -26.5160  -31.8390   25.6340 C   0  0  1  0  0  0  0  0  0  0  0  0
  -25.3840  -31.5790   26.6550 C   0  0  0  0  0  1  0  0  0  0  0  0
  -27.0820  -30.4670   25.2000 C   0  0  0  0  0  1  0  0  0  0  0  0
  -27.6620  -32.5780   26.3650 C   0  0  0  0  0  1  0  0  0  0  0  0
  1  3  1  0
  1  2  1  0
  2  7  1  0
  2  5  1  0
  3  6  1  0
  4  1  2  0
  7  8  1  0
  9 10  1  0
 10 13  2  0
 11  9  2  0
 11 14  1  0
 12 13  1  0
 13  8  1  0
 14 12  2  0
 15 21  1  0
 15 22  2  0
 16 21  1  0
 17 18  1  0
 17 16  1  0
 19 18  1  0
 19 28  1  0
 19 20  1  0
 21 20  1  0
 23 24  1  0
 24 14  1  0
 24 15  1  0
 25 26  2  0
 26 45  1  0
 27 26  1  0
 27 30  1  0
 28 25  1  0
 28 29  1  0
 29 27  2  0
 30 31  1  0
 31 32  2  0
 33 36  1  0
 33 32  1  0
 34 33  2  0
 35 34  1  0
 35 30  2  0
 36 37  1  0
 37 42  2  0
 37 38  1  0
 38 39  2  0
 39 40  1  0
 40 44  1  0
 41 40  2  0
 42 41  1  0
 43 42  1  0
 45 46  1  0
 46 49  1  0
 46 48  1  0
 47 45  2  0
 50 51  1  0
 50 25  1  0
 52 50  1  0
 53 54  1  0
 53  3  1  0
 55 57  1  0
 55 54  1  0
 56 67  2  0
 57 62  1  0
 58 66  1  0
 58 68  1  0
 59 65  1  0
 59 61  1  0
 60 66  1  0
 61 60  1  0
 62 61  2  0
 63 64  1  0
 63 57  2  0
 64 59  2  0
 65 58  1  0
 66 56  1  0
 68 70  2  0
 69 68  1  0
 71 69  1  0
 72 81  2  0
 72 77  1  0
 73 69  1  0
 73 77  1  0
 74 73  1  0
 75 76  1  0
 75 74  1  0
 76 72  1  0
 77 78  2  0
 78 79  1  0
 80 79  2  0
 81 80  1  0
 82 56  1  0
 82 83  1  0
 82 92  1  0
 83 86  1  0
 84 88  1  0
 84 83  1  0
 85 84  2  0
 88 87  1  0
 90 88  1  0
 90 91  1  0
 90 89  1  0
 92 95  1  1
 92 93  1  0
 94 92  1  0
M  ISO  4  15 100  24 100  54 101  55 101
M  END
>  <TORSDO>  (22) 
F 21

>  <SCORE>  (22) 
-10.187

>  <name>  (22) 
21

>  <ligand_id>  (22) 
21

>  <original_smiles>  (22) 
[H]c1c([H])c(N(C(=O)N2C([H])([H])C([H])([H])C([H])([H])C([H])(n3nc(-c4c([H])c([H])c(Oc5c([H])c([H])c(F)c([H])c5F)c([H])c4[H])c(C(=O)N([H])[H])c3N([H])[H])C2([H])[H])C([H])([H])[H])c([H])c(C([H])([H])C([H])([H])N([H])C(=O)N([H])C([H])([H])C([H])([H])Oc2c([H])c([H])c3c(c2[H])C([H])([H])N(C(=O)C([H])(N([H])C(=O)C([H])(N([H])C([H])([H])[H])C([H])([H])[H])C(C([H])([H])[H])(C([H])([H])[H])C([H])([H])[H])C([H])(C(=O)N([H])C2([H])c4c([H])c([H])c([H])c([H])c4C([H])([H])C([H])([H])C2([H])[H])C3([H])[H])c1[H]

>  <smiles>  (22) 
[H]c1c([H])c(N(C(=O)N2C([H])([H])C([H])([H])C([H])([H])C([H])(n3nc(-c4c([H])c([H])c(Oc5c([H])c([H])c(F)c([H])c5F)c([H])c4[H])c(C(=O)N([H])[H])c3N([H])[H])C2([H])[H])C([H])([H])[H])c([H])c(C([H])([H])C([H])([H])N([H])C(=O)N([H])C([H])([H])C([H])([H])Oc2c([H])c([H])c3c(c2[H])C([H])([H])N(C(=O)C([H])(N([H])C(=O)C([H])(N([H])C([H])([H])[H])C([H])([H])[H])C(C([H])([H])[H])(C([H])([H])[H])C([H])([H])[H])C([H])(C(=O)N([H])C2([H])c4c([H])c([H])c([H])c([H])c4C([H])([H])C([H])([H])C2([H])[H])C3([H])[H])c1[H]

$$$$
22:0:0
     RDKit          3D

 93101  0  0  1  0  0  0  0  0999 V2000
  -32.9100  -20.9570   19.0550 C   0  0  0  0  0  2  0  0  0  0  0  0
  -31.5410  -21.6040   18.7770 C   0  0  0  0  0  2  0  0  0  0  0  0
  -31.5310  -23.1320   18.9410 C   0  0  0  0  0  2  0  0  0  0  0  0
  -30.1150  -23.7060   18.7730 C   0  0  0  0  0  2  0  0  0  0  0  0
  -29.9700  -25.1320   19.3190 C   0  0  0  0  0  2  0  0  0  0  0  0
  -28.5320  -25.6500   19.1860 C   0  0  0  0  0  2  0  0  0  0  0  0
  -28.4590  -26.9230   19.8150 O   0  0  0  0  0  0  0  0  0  0  0  0
  -24.6210  -31.8560   23.1680 C   0  0  0  0  0  0  0  0  0  0  0  0
  -27.2400  -27.5620   19.8750 C   0  0  0  0  0  0  0  0  0  0  0  0
  -23.3830  -30.4800   21.5260 C   0  0  0  0  0  3  0  0  0  0  0  0
  -24.8120  -29.0000   20.0240 C   0  0  0  0  0  0  0  0  0  0  0  0
  -25.8920  -30.8860   21.2590 C   0  0  0  0  0  2  0  0  0  0  0  0
  -25.9770  -29.5330   20.5870 C   0  0  0  0  0  0  0  0  0  0  0  0
  -27.1900  -28.8170   20.5170 C   0  0  0  0  0  3  0  0  0  0  0  0
  -26.0510  -27.0300   19.3200 C   0  0  0  0  0  3  0  0  0  0  0  0
  -24.8400  -27.7430   19.3960 C   0  0  0  0  0  3  0  0  0  0  0  0
  -23.5570  -29.8340   20.1260 C   0  0  0  0  0  2  0  0  0  0  0  0
  -24.6520  -31.0870   22.0430 N   0  0  0  0  0  0  0  0  0  0  0  0
  -23.5550  -32.0980   23.7490 O   0  0  0  0  0  0  0  0  0  0  0  0
  -22.7780  -29.4240   22.4790 C   0  0  0  0  0  0  0  0  0  0  0  0
  -21.4530  -29.2240   22.3850 N   0  0  0  0  0  0  0  0  0  0  0  0
  -23.4950  -28.7880   23.2550 O   0  0  0  0  0  0  0  0  0  0  0  0
  -20.9350  -29.7890   21.7260 H   0  0  0  0  0  0  0  0  0  0  0  0
  -18.1160  -27.9600   22.9310 C   0  0  0  0  0  0  0  0  0  0  0  0
  -20.6740  -28.2560   23.1530 C   0  0  0  0  0  3  0  0  0  0  0  0
  -20.7880  -26.8400   22.5420 C   0  0  0  0  0  2  0  0  0  0  0  0
  -19.6710  -26.5210   21.5450 C   0  0  0  0  0  2  0  0  0  0  0  0
  -18.3010  -26.6300   22.2200 C   0  0  0  0  0  2  0  0  0  0  0  0
  -19.2310  -28.7320   23.3540 C   0  0  0  0  0  0  0  0  0  0  0  0
  -19.0060  -29.9780   23.9770 C   0  0  0  0  0  3  0  0  0  0  0  0
  -17.6980  -30.4530   24.1820 C   0  0  0  0  0  3  0  0  0  0  0  0
  -16.5970  -29.6790   23.7780 C   0  0  0  0  0  3  0  0  0  0  0  0
  -16.8080  -28.4340   23.1560 C   0  0  0  0  0  3  0  0  0  0  0  0
  -25.9190  -32.4870   23.7650 C   0  0  0  0  0  3  0  0  0  0  0  0
  -25.6050  -33.8710   24.1410 N   0  0  0  0  0  0  0  0  0  0  0  0
  -25.9030  -34.9470   23.4020 C   0  0  0  0  0  0  0  0  0  0  0  0
  -26.5440  -34.8800   22.3490 O   0  0  0  0  0  0  0  0  0  0  0  0
  -25.0340  -33.9970   24.9640 H   0  0  0  0  0  0  0  0  0  0  0  0
  -24.1360  -36.7170   23.1520 C   0  0  0  0  0  1  0  0  0  0  0  0
  -25.4100  -36.3140   23.9110 C   0  0  0  0  0  3  0  0  0  0  0  0
  -27.5590  -37.2080   24.6900 C   0  0  0  0  0  1  0  0  0  0  0  0
  -26.4210  -37.3870   23.7920 N   0  0  0  0  0  0  0  0  0  0  0  0
  -26.0060  -38.2950   23.9830 H   0  0  0  0  0  0  0  0  0  0  0  0
  -26.4900  -31.6880   24.9990 C   0  0  1  0  0  0  0  0  0  0  0  0
  -25.4380  -31.4100   26.0970 C   0  0  0  0  0  1  0  0  0  0  0  0
  -27.0710  -30.3270   24.5470 C   0  0  0  0  0  1  0  0  0  0  0  0
  -27.6560  -32.4760   25.6430 C   0  0  0  0  0  1  0  0  0  0  0  0
  -32.7800  -19.5970   19.7620 C   0  0  0  0  0  2  0  0  0  0  0  0
  -32.2670  -19.8620   21.0680 O   0  0  0  0  0  0  0  0  0  0  0  0
  -30.8890  -18.1950   24.0320 C   0  0  0  0  0  3  0  0  0  0  0  0
  -30.4010  -16.9840   23.5080 C   0  0  0  0  0  3  0  0  0  0  0  0
  -31.5080  -19.1300   23.1830 C   0  0  0  0  0  3  0  0  0  0  0  0
  -31.1710  -17.6390   21.2870 C   0  0  0  0  0  3  0  0  0  0  0  0
  -30.5410  -16.6890   22.1360 C   0  0  0  0  0  0  0  0  0  0  0  0
  -31.6650  -18.8640   21.8080 C   0  0  0  0  0  0  0  0  0  0  0  0
  -30.4110  -14.7290   20.6070 C   0  0  0  0  0  0  0  0  0  0  0  0
  -30.1340  -12.6430   19.3080 C   0  0  0  0  0  2  0  0  0  0  0  0
  -29.1840  -12.8340   18.1120 C   0  0  0  0  0  2  0  0  0  0  0  0
  -27.7180  -12.6160   18.5310 C   0  0  0  0  0  2  0  0  0  0  0  0
  -27.3470  -13.4100   19.8110 C   0  0  0  0  0  3  0  0  0  0  0  0
  -28.4070  -13.2130   20.9200 C   0  0  0  0  0  2  0  0  0  0  0  0
  -29.7320  -13.5690   20.3800 N   0  0  0  0  0  0  0  0  0  0  0  0
  -31.3950  -15.0610   19.9380 O   0  0  0  0  0  0  0  0  0  0  0  0
  -29.9900  -15.4620   21.6530 N   0  0  0  0  0  0  0  0  0  0  0  0
  -29.2570  -15.0470   22.2090 H   0  0  0  0  0  0  0  0  0  0  0  0
  -24.9230  -13.9020   20.5280 C   0  0  0  0  0  0  0  0  0  0  0  0
  -23.8830  -13.0780   20.8690 C   0  0  0  0  0  0  0  0  0  0  0  0
  -24.3950  -11.7460   20.7930 C   0  0  0  0  0  0  0  0  0  0  0  0
  -26.0030  -13.0690   20.2750 N   0  0  0  0  0  0  0  0  0  0  0  0
  -25.6870  -11.7650   20.4850 N   0  0  0  0  0  0  0  0  0  0  0  0
  -23.7170  -10.4520   20.9380 C   0  0  0  0  0  0  0  0  0  0  0  0
  -24.2020   -9.4540   21.8110 C   0  0  0  0  0  3  0  0  0  0  0  0
  -23.5170   -8.2270   21.9500 C   0  0  0  0  0  3  0  0  0  0  0  0
  -22.3340   -7.9900   21.2120 C   0  0  0  0  0  0  0  0  0  0  0  0
  -21.8690   -8.9770   20.3250 C   0  0  0  0  0  3  0  0  0  0  0  0
  -22.5550  -10.1940   20.1840 C   0  0  0  0  0  3  0  0  0  0  0  0
  -21.6170   -6.8170   21.2630 O   0  0  0  0  0  0  0  0  0  0  0  0
  -21.6450   -6.0030   22.3670 C   0  0  0  0  0  0  0  0  0  0  0  0
  -21.2840   -6.4730   23.6500 C   0  0  0  0  0  3  0  0  0  0  0  0
  -21.2560   -5.5850   24.7440 C   0  0  0  0  0  3  0  0  0  0  0  0
  -21.5820   -4.2280   24.5580 C   0  0  0  0  0  0  0  0  0  0  0  0
  -21.9380   -3.7570   23.2820 C   0  0  0  0  0  3  0  0  0  0  0  0
  -21.9660   -4.6420   22.1890 C   0  0  0  0  0  0  0  0  0  0  0  0
  -22.2860   -4.1770   20.9580 F   0  0  0  0  0  0  0  0  0  0  0  0
  -21.5500   -3.3730   25.6070 F   0  0  0  0  0  0  0  0  0  0  0  0
  -22.4700  -13.4940   21.1600 C   0  0  0  0  0  0  0  0  0  0  0  0
  -21.7730  -12.7520   22.0130 N   0  0  0  0  0  0  0  0  0  0  0  0
  -21.9900  -14.5170   20.6720 O   0  0  0  0  0  0  0  0  0  0  0  0
  -22.1710  -11.9240   22.4320 H   0  0  0  0  0  0  0  0  0  0  0  0
  -20.8280  -13.0170   22.2510 H   0  0  0  0  0  0  0  0  0  0  0  0
  -25.0430  -15.2830   20.3950 N   0  0  0  0  0  0  0  0  0  0  0  0
  -24.2640  -15.9220   20.5120 H   0  0  0  0  0  0  0  0  0  0  0  0
  -25.9000  -15.7560   20.1330 H   0  0  0  0  0  0  0  0  0  0  0  0
  1 48  1  0
  2  3  1  0
  2  1  1  0
  4  3  1  0
  4  5  1  0
  6  5  1  0
  6  7  1  0
  7  9  1  0
  8 19  2  0
  9 14  1  0
 10 18  1  0
 10 20  1  0
 11 17  1  0
 11 13  1  0
 12 18  1  0
 13 12  1  0
 14 13  2  0
 15 16  1  0
 15  9  2  0
 16 11  2  0
 17 10  1  0
 18  8  1  0
 20 22  2  0
 21 20  1  0
 23 21  1  0
 24 33  2  0
 24 29  1  0
 25 21  1  0
 25 29  1  0
 26 25  1  0
 27 28  1  0
 27 26  1  0
 28 24  1  0
 29 30  2  0
 30 31  1  0
 32 31  2  0
 33 32  1  0
 34  8  1  0
 34 35  1  0
 34 44  1  0
 35 38  1  0
 36 40  1  0
 36 35  1  0
 37 36  2  0
 40 39  1  0
 42 40  1  0
 42 43  1  0
 42 41  1  0
 44 47  1  1
 44 45  1  0
 46 44  1  0
 48 49  1  0
 49 55  1  0
 51 50  1  0
 52 50  2  0
 53 55  2  0
 53 54  1  0
 54 51  2  0
 55 52  1  0
 56 64  1  0
 57 62  1  0
 58 59  1  0
 58 57  1  0
 60 59  1  0
 60 69  1  0
 60 61  1  0
 62 56  1  0
 62 61  1  0
 63 56  2  0
 64 54  1  0
 64 65  1  0
 66 67  2  0
 67 86  1  0
 68 67  1  0
 68 71  1  0
 69 70  1  0
 69 66  1  0
 70 68  2  0
 71 72  1  0
 72 73  2  0
 74 77  1  0
 74 73  1  0
 75 74  2  0
 76 75  1  0
 76 71  2  0
 77 78  1  0
 78 79  1  0
 79 80  2  0
 81 80  1  0
 81 85  1  0
 82 81  2  0
 83 78  2  0
 83 82  1  0
 84 83  1  0
 86 87  1  0
 87 90  1  0
 87 89  1  0
 88 86  2  0
 91 92  1  0
 91 66  1  0
 93 91  1  0
M  ISO  4   6 101   7 101  56 100  64 100
M  END
>  <TORSDO>  (23) 
F 24

>  <SCORE>  (23) 
-10.337

>  <name>  (23) 
22

>  <ligand_id>  (23) 
22

>  <original_smiles>  (23) 
[H]c1c([H])c(OC([H])([H])C([H])([H])C([H])([H])C([H])([H])C([H])([H])C([H])([H])C([H])([H])Oc2c([H])c([H])c3c(c2[H])C([H])([H])N(C(=O)C([H])(N([H])C(=O)C([H])(N([H])C([H])([H])[H])C([H])([H])[H])C(C([H])([H])[H])(C([H])([H])[H])C([H])([H])[H])C([H])(C(=O)N([H])C2([H])c4c([H])c([H])c([H])c([H])c4C([H])([H])C([H])([H])C2([H])[H])C3([H])[H])c([H])c(N([H])C(=O)N2C([H])([H])C([H])([H])C([H])([H])C([H])(n3nc(-c4c([H])c([H])c(Oc5c([H])c([H])c(F)c([H])c5F)c([H])c4[H])c(C(=O)N([H])[H])c3N([H])[H])C2([H])[H])c1[H]

>  <smiles>  (23) 
[H]c1c([H])c(OC([H])([H])C([H])([H])C([H])([H])C([H])([H])C([H])([H])C([H])([H])C([H])([H])Oc2c([H])c([H])c3c(c2[H])C([H])([H])N(C(=O)C([H])(N([H])C(=O)C([H])(N([H])C([H])([H])[H])C([H])([H])[H])C(C([H])([H])[H])(C([H])([H])[H])C([H])([H])[H])C([H])(C(=O)N([H])C2([H])c4c([H])c([H])c([H])c([H])c4C([H])([H])C([H])([H])C2([H])[H])C3([H])[H])c([H])c(N([H])C(=O)N2C([H])([H])C([H])([H])C([H])([H])C([H])(n3nc(-c4c([H])c([H])c(Oc5c([H])c([H])c(F)c([H])c5F)c([H])c4[H])c(C(=O)N([H])[H])c3N([H])[H])C2([H])[H])c1[H]

$$$$
23:0:0
     RDKit          3D

 88 96  0  0  1  0  0  0  0  0999 V2000
  -28.2700  -18.1960   20.5690 C   0  0  0  0  0  3  0  0  0  0  0  0
  -30.5440  -18.6580   20.1620 C   0  0  0  0  0  3  0  0  0  0  0  0
  -27.9690  -19.6050   20.5110 C   0  0  0  0  0  3  0  0  0  0  0  0
  -30.2360  -20.0970   20.1140 C   0  0  0  0  0  3  0  0  0  0  0  0
  -29.5660  -17.6210   20.3920 C   0  0  0  0  0  0  0  0  0  0  0  0
  -28.9130  -20.6520   20.2830 C   0  0  0  0  0  0  0  0  0  0  0  0
  -30.5640  -15.0240   20.2100 C   0  0  0  0  0  0  0  0  0  0  0  0
  -30.4770  -12.6790   19.2500 C   0  0  0  0  0  2  0  0  0  0  0  0
  -29.4990  -12.6500   18.0480 C   0  0  0  0  0  2  0  0  0  0  0  0
  -28.0470  -12.4370   18.5210 C   0  0  0  0  0  2  0  0  0  0  0  0
  -27.6750  -13.3480   19.7200 C   0  0  0  0  0  3  0  0  0  0  0  0
  -28.7640  -13.3150   20.8150 C   0  0  0  0  0  2  0  0  0  0  0  0
  -30.0230  -13.7410   20.1870 N   0  0  0  0  0  0  0  0  0  0  0  0
  -31.7370  -15.1720   19.8490 O   0  0  0  0  0  0  0  0  0  0  0  0
  -29.6830  -16.0950   20.4860 N   0  0  0  0  0  0  0  0  0  0  0  0
  -28.8050  -15.6890   20.7700 H   0  0  0  0  0  0  0  0  0  0  0  0
  -25.3170  -13.9250   20.5440 C   0  0  0  0  0  0  0  0  0  0  0  0
  -24.2620  -13.1460   20.9340 C   0  0  0  0  0  0  0  0  0  0  0  0
  -24.7190  -11.7940   20.8530 C   0  0  0  0  0  0  0  0  0  0  0  0
  -26.3480  -13.0470   20.2490 N   0  0  0  0  0  0  0  0  0  0  0  0
  -25.9980  -11.7600   20.4990 N   0  0  0  0  0  0  0  0  0  0  0  0
  -23.9930  -10.5300   21.0340 C   0  0  0  0  0  0  0  0  0  0  0  0
  -24.4280   -9.5560   21.9590 C   0  0  0  0  0  3  0  0  0  0  0  0
  -23.7020   -8.3560   22.1280 C   0  0  0  0  0  3  0  0  0  0  0  0
  -22.5270   -8.1240   21.3750 C   0  0  0  0  0  0  0  0  0  0  0  0
  -22.1100   -9.0890   20.4410 C   0  0  0  0  0  3  0  0  0  0  0  0
  -22.8370  -10.2790   20.2680 C   0  0  0  0  0  3  0  0  0  0  0  0
  -21.7730   -6.9790   21.4560 O   0  0  0  0  0  0  0  0  0  0  0  0
  -21.6880   -6.2530   22.6170 C   0  0  0  0  0  0  0  0  0  0  0  0
  -21.1540   -6.8030   23.8030 C   0  0  0  0  0  3  0  0  0  0  0  0
  -21.0220   -6.0010   24.9530 C   0  0  0  0  0  3  0  0  0  0  0  0
  -21.4140   -4.6490   24.9190 C   0  0  0  0  0  0  0  0  0  0  0  0
  -21.9400   -4.0980   23.7370 C   0  0  0  0  0  3  0  0  0  0  0  0
  -22.0740   -4.8980   22.5890 C   0  0  0  0  0  0  0  0  0  0  0  0
  -22.5620   -4.3560   21.4470 F   0  0  0  0  0  0  0  0  0  0  0  0
  -21.2790   -3.8750   26.0220 F   0  0  0  0  0  0  0  0  0  0  0  0
  -22.8760  -13.6220   21.2610 C   0  0  0  0  0  0  0  0  0  0  0  0
  -22.1760  -12.9110   22.1370 N   0  0  0  0  0  0  0  0  0  0  0  0
  -22.4260  -14.6590   20.7750 O   0  0  0  0  0  0  0  0  0  0  0  0
  -22.5530  -12.0730   22.5520 H   0  0  0  0  0  0  0  0  0  0  0  0
  -21.2460  -13.2120   22.3990 H   0  0  0  0  0  0  0  0  0  0  0  0
  -25.4790  -15.2980   20.3870 N   0  0  0  0  0  0  0  0  0  0  0  0
  -24.6990  -15.9360   20.5080 H   0  0  0  0  0  0  0  0  0  0  0  0
  -26.2670  -15.7220   19.9170 H   0  0  0  0  0  0  0  0  0  0  0  0
  -28.3850  -22.0170   20.2260 O   0  0  0  0  0  0  0  0  0  0  0  0
  -29.0060  -23.4170   20.2140 C   0  0  0  0  0  3  0  0  0  0  0  0
  -28.0130  -24.7620   20.0050 C   0  0  0  0  0  3  0  0  0  0  0  0
  -28.2930  -26.2800   20.1940 O   0  0  0  0  0  0  0  0  0  0  0  0
  -24.6160  -31.8830   23.2510 C   0  0  0  0  0  0  0  0  0  0  0  0
  -27.2250  -27.2480   20.1450 C   0  0  0  0  0  0  0  0  0  0  0  0
  -23.4230  -30.5100   21.5880 C   0  0  0  0  0  3  0  0  0  0  0  0
  -24.8820  -28.9690   20.1390 C   0  0  0  0  0  0  0  0  0  0  0  0
  -25.9760  -30.7940   21.4300 C   0  0  0  0  0  2  0  0  0  0  0  0
  -26.0590  -29.4160   20.7540 C   0  0  0  0  0  0  0  0  0  0  0  0
  -27.2310  -28.5720   20.7390 C   0  0  0  0  0  3  0  0  0  0  0  0
  -26.0180  -26.9000   19.4960 C   0  0  0  0  0  3  0  0  0  0  0  0
  -24.8750  -27.7250   19.4950 C   0  0  0  0  0  3  0  0  0  0  0  0
  -23.6490  -29.8570   20.1990 C   0  0  0  0  0  2  0  0  0  0  0  0
  -24.6910  -31.0830   22.1440 N   0  0  0  0  0  0  0  0  0  0  0  0
  -23.5270  -32.1530   23.7830 O   0  0  0  0  0  0  0  0  0  0  0  0
  -22.7510  -29.4810   22.5320 C   0  0  0  0  0  0  0  0  0  0  0  0
  -21.4240  -29.3020   22.3970 N   0  0  0  0  0  0  0  0  0  0  0  0
  -23.4240  -28.8480   23.3490 O   0  0  0  0  0  0  0  0  0  0  0  0
  -20.9370  -29.8650   21.7140 H   0  0  0  0  0  0  0  0  0  0  0  0
  -18.0440  -28.1000   22.8940 C   0  0  0  0  0  0  0  0  0  0  0  0
  -20.6060  -28.3490   23.1520 C   0  0  0  0  0  3  0  0  0  0  0  0
  -20.6990  -26.9300   22.5440 C   0  0  0  0  0  2  0  0  0  0  0  0
  -19.5900  -26.6350   21.5290 C   0  0  0  0  0  2  0  0  0  0  0  0
  -18.2130  -26.7680   22.1850 C   0  0  0  0  0  2  0  0  0  0  0  0
  -19.1680  -28.8500   23.3340 C   0  0  0  0  0  0  0  0  0  0  0  0
  -18.9540  -30.0990   23.9590 C   0  0  0  0  0  3  0  0  0  0  0  0
  -17.6520  -30.5970   24.1490 C   0  0  0  0  0  3  0  0  0  0  0  0
  -16.5430  -29.8440   23.7240 C   0  0  0  0  0  3  0  0  0  0  0  0
  -16.7410  -28.5970   23.1030 C   0  0  0  0  0  3  0  0  0  0  0  0
  -25.8900  -32.5140   23.8890 C   0  0  0  0  0  3  0  0  0  0  0  0
  -26.3890  -31.7410   25.1720 C   0  0  1  0  0  0  0  0  0  0  0  0
  -25.2800  -31.5020   26.2240 C   0  0  0  0  0  1  0  0  0  0  0  0
  -26.9790  -30.3650   24.7900 C   0  0  0  0  0  1  0  0  0  0  0  0
  -27.5300  -32.5350   25.8510 C   0  0  0  0  0  1  0  0  0  0  0  0
  -25.5790  -33.9130   24.2220 N   0  0  0  0  0  0  0  0  0  0  0  0
  -25.8850  -34.9680   23.4560 C   0  0  0  0  0  0  0  0  0  0  0  0
  -26.5270  -34.8660   22.4060 O   0  0  0  0  0  0  0  0  0  0  0  0
  -25.0080  -34.0650   25.0400 H   0  0  0  0  0  0  0  0  0  0  0  0
  -24.1320  -36.7490   23.1580 C   0  0  0  0  0  1  0  0  0  0  0  0
  -25.4060  -36.3550   23.9250 C   0  0  0  0  0  3  0  0  0  0  0  0
  -27.5520  -37.2720   24.6870 C   0  0  0  0  0  1  0  0  0  0  0  0
  -26.4250  -37.4160   23.7700 N   0  0  0  0  0  0  0  0  0  0  0  0
  -26.0150  -38.3350   23.9150 H   0  0  0  0  0  0  0  0  0  0  0  0
  2  5  1  0
  3  1  1  0
  4  2  2  0
  4  6  1  0
  5 15  1  0
  5  1  2  0
  6  3  2  0
  7 15  1  0
  8 13  1  0
  9 10  1  0
  9  8  1  0
 11 10  1  0
 11 20  1  0
 11 12  1  0
 13  7  1  0
 13 12  1  0
 14  7  2  0
 15 16  1  0
 17 18  2  0
 18 37  1  0
 19 18  1  0
 19 22  1  0
 20 21  1  0
 20 17  1  0
 21 19  2  0
 22 23  1  0
 23 24  2  0
 25 28  1  0
 25 24  1  0
 26 25  2  0
 27 26  1  0
 27 22  2  0
 28 29  1  0
 29 30  1  0
 30 31  2  0
 32 31  1  0
 32 36  1  0
 33 32  2  0
 34 29  2  0
 34 33  1  0
 35 34  1  0
 37 38  1  0
 38 41  1  0
 38 40  1  0
 39 37  2  0
 42 43  1  0
 42 17  1  0
 44 42  1  0
 45  6  1  0
 46 45  1  0
 47 48  1  0
 47 46  2  0
 49 60  2  0
 50 48  1  0
 50 55  1  0
 51 59  1  0
 51 61  1  0
 52 58  1  0
 52 54  1  0
 53 59  1  0
 54 53  1  0
 55 54  2  0
 56 50  2  0
 57 56  1  0
 57 52  2  0
 58 51  1  0
 59 49  1  0
 61 63  2  0
 62 61  1  0
 64 62  1  0
 65 74  2  0
 65 70  1  0
 66 62  1  0
 66 70  1  0
 67 66  1  0
 68 69  1  0
 68 67  1  0
 69 65  1  0
 70 71  2  0
 71 72  1  0
 73 72  2  0
 74 73  1  0
 75 49  1  0
 75 80  1  0
 75 76  1  0
 76 79  1  1
 76 77  1  0
 78 76  1  0
 80 83  1  0
 81 85  1  0
 81 80  1  0
 82 81  2  0
 85 84  1  0
 87 88  1  0
 87 85  1  0
 87 86  1  0
M  ISO  4   7 100  15 100  47 101  48 101
M  END
>  <TORSDO>  (24) 
F 19

>  <SCORE>  (24) 
-14.020

>  <name>  (24) 
23

>  <ligand_id>  (24) 
23

>  <original_smiles>  (24) 
[H]c1c([H])c([H])c2c(c1[H])C([H])([H])C([H])([H])C([H])([H])C2([H])N([H])C(=O)C1([H])N(C(=O)C([H])(N([H])C(=O)C([H])(N([H])C([H])([H])[H])C([H])([H])[H])C(C([H])([H])[H])(C([H])([H])[H])C([H])([H])[H])C([H])([H])c2c([H])c(OC([H])([H])C([H])([H])Oc3c([H])c([H])c(N([H])C(=O)N4C([H])([H])C([H])([H])C([H])([H])C([H])(n5nc(-c6c([H])c([H])c(Oc7c([H])c([H])c(F)c([H])c7F)c([H])c6[H])c(C(=O)N([H])[H])c5N([H])[H])C4([H])[H])c([H])c3[H])c([H])c([H])c2C1([H])[H]

>  <smiles>  (24) 
[H]c1c([H])c([H])c2c(c1[H])C([H])([H])C([H])([H])C([H])([H])C2([H])N([H])C(=O)C1([H])N(C(=O)C([H])(N([H])C(=O)C([H])(N([H])C([H])([H])[H])C([H])([H])[H])C(C([H])([H])[H])(C([H])([H])[H])C([H])([H])[H])C([H])([H])c2c([H])c(OC([H])([H])C([H])([H])Oc3c([H])c([H])c(N([H])C(=O)N4C([H])([H])C([H])([H])C([H])([H])C([H])(n5nc(-c6c([H])c([H])c(Oc7c([H])c([H])c(F)c([H])c7F)c([H])c6[H])c(C(=O)N([H])[H])c5N([H])[H])C4([H])[H])c([H])c3[H])c([H])c([H])c2C1([H])[H]

$$$$
24:0:0
     RDKit          3D

 92100  0  0  1  0  0  0  0  0999 V2000
  -29.1810  -16.8620   19.1580 C   0  0  0  0  0  3  0  0  0  0  0  0
  -28.7680  -18.0940   18.6210 C   0  0  0  0  0  3  0  0  0  0  0  0
  -29.9200  -18.0080   21.1680 C   0  0  0  0  0  3  0  0  0  0  0  0
  -29.7380  -16.7930   20.4520 C   0  0  0  0  0  0  0  0  0  0  0  0
  -28.8980  -19.3020   19.3520 C   0  0  0  0  0  0  0  0  0  0  0  0
  -29.5410  -19.2720   20.6210 C   0  0  0  0  0  0  0  0  0  0  0  0
  -30.6650  -14.4960   20.4710 C   0  0  0  0  0  0  0  0  0  0  0  0
  -30.3860  -12.3280   19.3330 C   0  0  0  0  0  2  0  0  0  0  0  0
  -29.4410  -12.5480   18.1340 C   0  0  0  0  0  2  0  0  0  0  0  0
  -27.9650  -12.4130   18.5610 C   0  0  0  0  0  2  0  0  0  0  0  0
  -27.6320  -13.2340   19.8360 C   0  0  0  0  0  3  0  0  0  0  0  0
  -28.6890  -12.9910   20.9390 C   0  0  0  0  0  2  0  0  0  0  0  0
  -30.0150  -13.3010   20.3760 N   0  0  0  0  0  0  0  0  0  0  0  0
  -31.7790  -14.6890   19.9750 O   0  0  0  0  0  0  0  0  0  0  0  0
  -29.9720  -15.5050   21.0470 N   0  0  0  0  0  0  0  0  0  0  0  0
  -29.2120  -15.1800   21.6260 H   0  0  0  0  0  0  0  0  0  0  0  0
  -25.2340  -13.8490   20.5360 C   0  0  0  0  0  0  0  0  0  0  0  0
  -24.1620  -13.0800   20.8980 C   0  0  0  0  0  0  0  0  0  0  0  0
  -24.6190  -11.7260   20.8690 C   0  0  0  0  0  0  0  0  0  0  0  0
  -26.2770  -12.9640   20.3100 N   0  0  0  0  0  0  0  0  0  0  0  0
  -25.9100  -11.6830   20.5670 N   0  0  0  0  0  0  0  0  0  0  0  0
  -23.8890  -10.4680   21.0640 C   0  0  0  0  0  0  0  0  0  0  0  0
  -24.3280   -9.4940   21.9870 C   0  0  0  0  0  3  0  0  0  0  0  0
  -23.5980   -8.2990   22.1710 C   0  0  0  0  0  3  0  0  0  0  0  0
  -22.4150   -8.0700   21.4280 C   0  0  0  0  0  0  0  0  0  0  0  0
  -21.9950   -9.0320   20.4930 C   0  0  0  0  0  3  0  0  0  0  0  0
  -22.7260  -10.2180   20.3100 C   0  0  0  0  0  3  0  0  0  0  0  0
  -21.6590   -6.9260   21.5170 O   0  0  0  0  0  0  0  0  0  0  0  0
  -21.6290   -6.1690   22.6620 C   0  0  0  0  0  0  0  0  0  0  0  0
  -21.2450   -6.7140   23.9060 C   0  0  0  0  0  3  0  0  0  0  0  0
  -21.1620   -5.8850   25.0420 C   0  0  0  0  0  3  0  0  0  0  0  0
  -21.4530   -4.5130   24.9370 C   0  0  0  0  0  0  0  0  0  0  0  0
  -21.8290   -3.9660   23.6970 C   0  0  0  0  0  3  0  0  0  0  0  0
  -21.9150   -4.7930   22.5620 C   0  0  0  0  0  0  0  0  0  0  0  0
  -22.2570   -4.2560   21.3650 F   0  0  0  0  0  0  0  0  0  0  0  0
  -21.3660   -3.7140   26.0260 F   0  0  0  0  0  0  0  0  0  0  0  0
  -22.7650  -13.5600   21.1690 C   0  0  0  0  0  0  0  0  0  0  0  0
  -22.0380  -12.8700   22.0400 N   0  0  0  0  0  0  0  0  0  0  0  0
  -22.3290  -14.5850   20.6460 O   0  0  0  0  0  0  0  0  0  0  0  0
  -22.4050  -12.0420   22.4870 H   0  0  0  0  0  0  0  0  0  0  0  0
  -21.1000  -13.1750   22.2650 H   0  0  0  0  0  0  0  0  0  0  0  0
  -25.4030  -15.2200   20.3670 N   0  0  0  0  0  0  0  0  0  0  0  0
  -24.6460  -15.8810   20.5060 H   0  0  0  0  0  0  0  0  0  0  0  0
  -26.2690  -15.6690   20.0960 H   0  0  0  0  0  0  0  0  0  0  0  0
  -27.6200  -20.5220   17.6960 C   0  0  0  0  0  1  0  0  0  0  0  0
  -28.3760  -20.4980   18.9020 O   0  0  0  0  0  0  0  0  0  0  0  0
  -29.7420  -20.4090   21.3990 O   0  0  0  0  0  0  0  0  0  0  0  0
  -30.0940  -21.6750   20.7940 C   0  0  0  0  0  2  0  0  0  0  0  0
  -29.0310  -22.7820   21.0560 C   0  0  0  0  0  2  0  0  0  0  0  0
  -29.3640  -24.2110   20.5160 C   0  0  0  0  0  2  0  0  0  0  0  0
  -28.2280  -25.2350   20.7990 C   0  0  0  0  0  2  0  0  0  0  0  0
  -28.4350  -26.5810   20.2930 O   0  0  0  0  0  0  0  0  0  0  0  0
  -24.6220  -31.8660   23.2490 C   0  0  0  0  0  0  0  0  0  0  0  0
  -27.2930  -27.3700   20.2430 C   0  0  0  0  0  0  0  0  0  0  0  0
  -23.4360  -30.4480   21.6070 C   0  0  0  0  0  3  0  0  0  0  0  0
  -24.9080  -28.9060   20.2010 C   0  0  0  0  0  0  0  0  0  0  0  0
  -25.9670  -30.8010   21.4340 C   0  0  0  0  0  2  0  0  0  0  0  0
  -26.0610  -29.4220   20.8080 C   0  0  0  0  0  0  0  0  0  0  0  0
  -27.2580  -28.6610   20.8280 C   0  0  0  0  0  3  0  0  0  0  0  0
  -26.1280  -26.8920   19.6020 C   0  0  0  0  0  3  0  0  0  0  0  0
  -24.9380  -27.6420   19.5930 C   0  0  0  0  0  3  0  0  0  0  0  0
  -23.6620  -29.7620   20.2330 C   0  0  0  0  0  2  0  0  0  0  0  0
  -24.6940  -31.0550   22.1560 N   0  0  0  0  0  0  0  0  0  0  0  0
  -23.5330  -32.1410   23.7740 O   0  0  0  0  0  0  0  0  0  0  0  0
  -22.7770  -29.4320   22.5680 C   0  0  0  0  0  0  0  0  0  0  0  0
  -21.4520  -29.2570   22.4410 N   0  0  0  0  0  0  0  0  0  0  0  0
  -23.4560  -28.8050   23.3870 O   0  0  0  0  0  0  0  0  0  0  0  0
  -20.9650  -29.8180   21.7550 H   0  0  0  0  0  0  0  0  0  0  0  0
  -18.0700  -28.0780   22.9380 C   0  0  0  0  0  0  0  0  0  0  0  0
  -20.6290  -28.3240   23.2120 C   0  0  0  0  0  3  0  0  0  0  0  0
  -20.7230  -26.8900   22.6380 C   0  0  0  0  0  2  0  0  0  0  0  0
  -19.6190  -26.5730   21.6240 C   0  0  0  0  0  2  0  0  0  0  0  0
  -18.2380  -26.7270   22.2660 C   0  0  0  0  0  2  0  0  0  0  0  0
  -19.1920  -28.8360   23.3670 C   0  0  0  0  0  0  0  0  0  0  0  0
  -18.9760  -30.1040   23.9520 C   0  0  0  0  0  3  0  0  0  0  0  0
  -17.6720  -30.6080   24.1180 C   0  0  0  0  0  3  0  0  0  0  0  0
  -16.5670  -29.8470   23.7010 C   0  0  0  0  0  3  0  0  0  0  0  0
  -16.7670  -28.5850   23.1160 C   0  0  0  0  0  3  0  0  0  0  0  0
  -25.8980  -32.5060   23.8770 C   0  0  0  0  0  3  0  0  0  0  0  0
  -25.5820  -33.9040   24.1980 N   0  0  0  0  0  0  0  0  0  0  0  0
  -25.9160  -34.9540   23.4360 C   0  0  0  0  0  0  0  0  0  0  0  0
  -26.5940  -34.8480   22.4090 O   0  0  0  0  0  0  0  0  0  0  0  0
  -24.9790  -34.0590   24.9920 H   0  0  0  0  0  0  0  0  0  0  0  0
  -24.1810  -36.7390   23.0590 C   0  0  0  0  0  1  0  0  0  0  0  0
  -25.4200  -36.3430   23.8810 C   0  0  0  0  0  3  0  0  0  0  0  0
  -27.5500  -37.2370   24.7140 C   0  0  0  0  0  1  0  0  0  0  0  0
  -26.4490  -37.4010   23.7680 N   0  0  0  0  0  0  0  0  0  0  0  0
  -26.0400  -38.3190   23.9170 H   0  0  0  0  0  0  0  0  0  0  0  0
  -26.4100  -31.7390   25.1580 C   0  0  1  0  0  0  0  0  0  0  0  0
  -25.3110  -31.4990   26.2210 C   0  0  0  0  0  1  0  0  0  0  0  0
  -27.0010  -30.3630   24.7720 C   0  0  0  0  0  1  0  0  0  0  0  0
  -27.5610  -32.5350   25.8190 C   0  0  0  0  0  1  0  0  0  0  0  0
  1  4  1  0
  2  1  2  0
  2  5  1  0
  4 15  1  0
  4  3  2  0
  5  6  2  0
  6  3  1  0
  6 47  1  0
  7 15  1  0
  8 13  1  0
  9 10  1  0
  9  8  1  0
 11 10  1  0
 11 20  1  0
 11 12  1  0
 13  7  1  0
 13 12  1  0
 14  7  2  0
 15 16  1  0
 17 18  2  0
 18 37  1  0
 19 18  1  0
 19 22  1  0
 20 17  1  0
 20 21  1  0
 21 19  2  0
 22 23  1  0
 23 24  2  0
 25 28  1  0
 25 24  1  0
 26 25  2  0
 27 26  1  0
 27 22  2  0
 28 29  1  0
 29 30  1  0
 30 31  2  0
 32 31  1  0
 32 36  1  0
 33 32  2  0
 34 29  2  0
 34 33  1  0
 35 34  1  0
 37 38  1  0
 38 41  1  0
 38 40  1  0
 39 37  2  0
 42 43  1  0
 42 17  1  0
 44 42  1  0
 45 46  1  0
 46  5  1  0
 48 49  1  0
 48 47  1  0
 50 51  1  0
 50 49  1  0
 52 51  1  0
 53 64  2  0
 54 52  1  0
 54 59  1  0
 55 63  1  0
 55 65  1  0
 56 62  1  0
 56 58  1  0
 57 63  1  0
 58 59  2  0
 58 57  1  0
 60 54  2  0
 61 60  1  0
 61 56  2  0
 62 55  1  0
 63 53  1  0
 65 67  2  0
 66 65  1  0
 68 66  1  0
 69 78  2  0
 69 74  1  0
 70 66  1  0
 70 74  1  0
 71 70  1  0
 72 73  1  0
 72 71  1  0
 73 69  1  0
 74 75  2  0
 75 76  1  0
 77 76  2  0
 78 77  1  0
 79 53  1  0
 79 80  1  0
 79 89  1  0
 80 83  1  0
 81 85  1  0
 81 80  1  0
 82 81  2  0
 85 84  1  0
 87 85  1  0
 87 88  1  0
 87 86  1  0
 89 92  1  1
 89 90  1  0
 91 89  1  0
M  ISO  4   7 100  15 100  51 101  52 101
M  END
>  <TORSDO>  (25) 
F 22

>  <SCORE>  (25) 
-13.440

>  <name>  (25) 
24

>  <ligand_id>  (25) 
24

>  <original_smiles>  (25) 
[H]c1c([H])c([H])c2c(c1[H])C([H])([H])C([H])([H])C([H])([H])C2([H])N([H])C(=O)C1([H])N(C(=O)C([H])(N([H])C(=O)C([H])(N([H])C([H])([H])[H])C([H])([H])[H])C(C([H])([H])[H])(C([H])([H])[H])C([H])([H])[H])C([H])([H])c2c([H])c(OC([H])([H])C([H])([H])C([H])([H])C([H])([H])Oc3c([H])c(N([H])C(=O)N4C([H])([H])C([H])([H])C([H])([H])C([H])(n5nc(-c6c([H])c([H])c(Oc7c([H])c([H])c(F)c([H])c7F)c([H])c6[H])c(C(=O)N([H])[H])c5N([H])[H])C4([H])[H])c([H])c([H])c3OC([H])([H])[H])c([H])c([H])c2C1([H])[H]

>  <smiles>  (25) 
[H]c1c([H])c([H])c2c(c1[H])C([H])([H])C([H])([H])C([H])([H])C2([H])N([H])C(=O)C1([H])N(C(=O)C([H])(N([H])C(=O)C([H])(N([H])C([H])([H])[H])C([H])([H])[H])C(C([H])([H])[H])(C([H])([H])[H])C([H])([H])[H])C([H])([H])c2c([H])c(OC([H])([H])C([H])([H])C([H])([H])C([H])([H])Oc3c([H])c(N([H])C(=O)N4C([H])([H])C([H])([H])C([H])([H])C([H])(n5nc(-c6c([H])c([H])c(Oc7c([H])c([H])c(F)c([H])c7F)c([H])c6[H])c(C(=O)N([H])[H])c5N([H])[H])C4([H])[H])c([H])c([H])c3OC([H])([H])[H])c([H])c([H])c2C1([H])[H]

$$$$
25:0:0
     RDKit          3D

 90 98  0  0  1  0  0  0  0  0999 V2000
  -29.6470  -22.0000   20.6810 C   0  0  0  0  0  2  0  0  0  0  0  0
  -28.8430  -23.3070   20.4230 C   0  0  0  0  0  2  0  0  0  0  0  0
  -29.4090  -24.5650   21.1330 C   0  0  0  0  0  2  0  0  0  0  0  0
  -28.4280  -25.7610   21.2880 C   0  0  0  0  0  2  0  0  0  0  0  0
  -28.3950  -26.6750   20.1820 O   0  0  0  0  0  0  0  0  0  0  0  0
  -24.6030  -31.8870   23.2550 C   0  0  0  0  0  0  0  0  0  0  0  0
  -27.2580  -27.4510   20.1750 C   0  0  0  0  0  0  0  0  0  0  0  0
  -23.4000  -30.4840   21.6100 C   0  0  0  0  0  3  0  0  0  0  0  0
  -24.8610  -28.9510   20.1840 C   0  0  0  0  0  0  0  0  0  0  0  0
  -25.9260  -30.8480   21.4150 C   0  0  0  0  0  2  0  0  0  0  0  0
  -26.0170  -29.4770   20.7750 C   0  0  0  0  0  0  0  0  0  0  0  0
  -27.2210  -28.7340   20.7710 C   0  0  0  0  0  3  0  0  0  0  0  0
  -26.0900  -26.9400   19.5750 C   0  0  0  0  0  3  0  0  0  0  0  0
  -24.8920  -27.6800   19.5810 C   0  0  0  0  0  3  0  0  0  0  0  0
  -23.6130  -29.8050   20.2300 C   0  0  0  0  0  2  0  0  0  0  0  0
  -24.6610  -31.0880   22.1520 N   0  0  0  0  0  0  0  0  0  0  0  0
  -23.5210  -32.1570   23.7950 O   0  0  0  0  0  0  0  0  0  0  0  0
  -22.7500  -29.4620   22.5700 C   0  0  0  0  0  0  0  0  0  0  0  0
  -21.4250  -29.2810   22.4440 N   0  0  0  0  0  0  0  0  0  0  0  0
  -23.4330  -28.8350   23.3830 O   0  0  0  0  0  0  0  0  0  0  0  0
  -20.9340  -29.8390   21.7590 H   0  0  0  0  0  0  0  0  0  0  0  0
  -18.0480  -28.0940   22.9460 C   0  0  0  0  0  0  0  0  0  0  0  0
  -20.6080  -28.3420   23.2120 C   0  0  0  0  0  3  0  0  0  0  0  0
  -20.7040  -26.9130   22.6290 C   0  0  0  0  0  2  0  0  0  0  0  0
  -19.5980  -26.5980   21.6170 C   0  0  0  0  0  2  0  0  0  0  0  0
  -18.2190  -26.7450   22.2650 C   0  0  0  0  0  2  0  0  0  0  0  0
  -19.1710  -28.8500   23.3770 C   0  0  0  0  0  0  0  0  0  0  0  0
  -18.9580  -30.1110   23.9730 C   0  0  0  0  0  3  0  0  0  0  0  0
  -17.6550  -30.6170   24.1430 C   0  0  0  0  0  3  0  0  0  0  0  0
  -16.5470  -29.8580   23.7300 C   0  0  0  0  0  3  0  0  0  0  0  0
  -16.7450  -28.5970   23.1380 C   0  0  0  0  0  3  0  0  0  0  0  0
  -25.8880  -32.5190   23.8760 C   0  0  0  0  0  3  0  0  0  0  0  0
  -25.5820  -33.9190   24.1980 N   0  0  0  0  0  0  0  0  0  0  0  0
  -25.9200  -34.9670   23.4350 C   0  0  0  0  0  0  0  0  0  0  0  0
  -26.5950  -34.8560   22.4080 O   0  0  0  0  0  0  0  0  0  0  0  0
  -24.9840  -34.0790   24.9950 H   0  0  0  0  0  0  0  0  0  0  0  0
  -24.1980  -36.7610   23.0600 C   0  0  0  0  0  1  0  0  0  0  0  0
  -25.4320  -36.3580   23.8820 C   0  0  0  0  0  3  0  0  0  0  0  0
  -27.5650  -37.2390   24.7230 C   0  0  0  0  0  1  0  0  0  0  0  0
  -26.4680  -37.4080   23.7730 N   0  0  0  0  0  0  0  0  0  0  0  0
  -26.0630  -38.3290   23.9180 H   0  0  0  0  0  0  0  0  0  0  0  0
  -26.4030  -31.7510   25.1540 C   0  0  1  0  0  0  0  0  0  0  0  0
  -25.3110  -31.5170   26.2230 C   0  0  0  0  0  1  0  0  0  0  0  0
  -26.9860  -30.3720   24.7650 C   0  0  0  0  0  1  0  0  0  0  0  0
  -27.5550  -32.5450   25.8150 C   0  0  0  0  0  1  0  0  0  0  0  0
  -29.0300  -20.9170   19.9790 O   0  0  0  0  0  0  0  0  0  0  0  0
  -28.8060  -17.2360   19.9120 C   0  0  0  0  0  3  0  0  0  0  0  0
  -30.6640  -17.8150   21.3650 C   0  0  0  0  0  3  0  0  0  0  0  0
  -28.5840  -18.6040   19.6560 C   0  0  0  0  0  3  0  0  0  0  0  0
  -30.4340  -19.1910   21.1090 C   0  0  0  0  0  3  0  0  0  0  0  0
  -29.8440  -16.8240   20.7750 C   0  0  0  0  0  0  0  0  0  0  0  0
  -29.3730  -19.6040   20.2610 C   0  0  0  0  0  0  0  0  0  0  0  0
  -30.6440  -14.5020   20.4870 C   0  0  0  0  0  0  0  0  0  0  0  0
  -30.3760  -12.3470   19.3070 C   0  0  0  0  0  2  0  0  0  0  0  0
  -29.4250  -12.5620   18.1100 C   0  0  0  0  0  2  0  0  0  0  0  0
  -27.9510  -12.4190   18.5390 C   0  0  0  0  0  2  0  0  0  0  0  0
  -27.6180  -13.2380   19.8150 C   0  0  0  0  0  3  0  0  0  0  0  0
  -28.6750  -12.9850   20.9140 C   0  0  0  0  0  2  0  0  0  0  0  0
  -30.0010  -13.3070   20.3570 N   0  0  0  0  0  0  0  0  0  0  0  0
  -31.7510  -14.7300   19.9870 O   0  0  0  0  0  0  0  0  0  0  0  0
  -29.9400  -15.4470   21.1360 N   0  0  0  0  0  0  0  0  0  0  0  0
  -29.0990  -15.0650   21.5410 H   0  0  0  0  0  0  0  0  0  0  0  0
  -25.2150  -13.8540   20.5080 C   0  0  0  0  0  0  0  0  0  0  0  0
  -24.1460  -13.0850   20.8810 C   0  0  0  0  0  0  0  0  0  0  0  0
  -24.6070  -11.7330   20.8590 C   0  0  0  0  0  0  0  0  0  0  0  0
  -26.2620  -12.9700   20.2890 N   0  0  0  0  0  0  0  0  0  0  0  0
  -25.8970  -11.6900   20.5550 N   0  0  0  0  0  0  0  0  0  0  0  0
  -23.8800  -10.4720   21.0550 C   0  0  0  0  0  0  0  0  0  0  0  0
  -24.3150   -9.5080   21.9910 C   0  0  0  0  0  3  0  0  0  0  0  0
  -23.5900   -8.3120   22.1750 C   0  0  0  0  0  3  0  0  0  0  0  0
  -22.4170   -8.0700   21.4220 C   0  0  0  0  0  0  0  0  0  0  0  0
  -22.0000   -9.0230   20.4760 C   0  0  0  0  0  3  0  0  0  0  0  0
  -22.7250  -10.2120   20.2900 C   0  0  0  0  0  3  0  0  0  0  0  0
  -21.6630   -6.9250   21.5150 O   0  0  0  0  0  0  0  0  0  0  0  0
  -21.6230   -6.1820   22.6680 C   0  0  0  0  0  0  0  0  0  0  0  0
  -21.2060   -6.7360   23.8980 C   0  0  0  0  0  3  0  0  0  0  0  0
  -21.1130   -5.9190   25.0420 C   0  0  0  0  0  3  0  0  0  0  0  0
  -21.4270   -4.5480   24.9580 C   0  0  0  0  0  0  0  0  0  0  0  0
  -21.8360   -3.9950   23.7320 C   0  0  0  0  0  3  0  0  0  0  0  0
  -21.9310   -4.8090   22.5890 C   0  0  0  0  0  0  0  0  0  0  0  0
  -22.3070   -4.2660   21.4070 F   0  0  0  0  0  0  0  0  0  0  0  0
  -21.3300   -3.7620   26.0540 F   0  0  0  0  0  0  0  0  0  0  0  0
  -22.7480  -13.5650   21.1490 C   0  0  0  0  0  0  0  0  0  0  0  0
  -22.0180  -12.8730   22.0170 N   0  0  0  0  0  0  0  0  0  0  0  0
  -22.3110  -14.5880   20.6230 O   0  0  0  0  0  0  0  0  0  0  0  0
  -22.3840  -12.0450   22.4640 H   0  0  0  0  0  0  0  0  0  0  0  0
  -21.0810  -13.1780   22.2390 H   0  0  0  0  0  0  0  0  0  0  0  0
  -25.3780  -15.2240   20.3220 N   0  0  0  0  0  0  0  0  0  0  0  0
  -24.6070  -15.8740   20.4240 H   0  0  0  0  0  0  0  0  0  0  0  0
  -26.2270  -15.6660   19.9960 H   0  0  0  0  0  0  0  0  0  0  0  0
  2  1  1  0
  2  3  1  0
  3  4  1  0
  5  4  1  0
  6 17  2  0
  7  5  1  0
  7 12  1  0
  8 16  1  0
  8 18  1  0
  9 15  1  0
  9 11  1  0
 10 16  1  0
 11 10  1  0
 12 11  2  0
 13 14  1  0
 13  7  2  0
 14  9  2  0
 15  8  1  0
 16  6  1  0
 18 20  2  0
 19 18  1  0
 21 19  1  0
 22 31  2  0
 22 27  1  0
 23 19  1  0
 23 27  1  0
 24 23  1  0
 25 26  1  0
 25 24  1  0
 26 22  1  0
 27 28  2  0
 28 29  1  0
 30 29  2  0
 31 30  1  0
 32  6  1  0
 32 33  1  0
 32 42  1  0
 33 36  1  0
 34 38  1  0
 34 33  1  0
 35 34  2  0
 38 37  1  0
 40 38  1  0
 40 41  1  0
 40 39  1  0
 42 45  1  1
 42 43  1  0
 44 42  1  0
 46 52  1  0
 46  1  1  0
 47 51  1  0
 49 47  2  0
 49 52  1  0
 50 48  1  0
 51 61  1  0
 51 48  2  0
 52 50  2  0
 53 61  1  0
 54 59  1  0
 55 56  1  0
 55 54  1  0
 57 56  1  0
 57 66  1  0
 57 58  1  0
 59 53  1  0
 59 58  1  0
 60 53  2  0
 61 62  1  0
 63 64  2  0
 64 83  1  0
 65 64  1  0
 65 68  1  0
 66 63  1  0
 66 67  1  0
 67 65  2  0
 68 69  1  0
 69 70  2  0
 71 74  1  0
 71 70  1  0
 72 71  2  0
 73 72  1  0
 73 68  2  0
 74 75  1  0
 75 76  1  0
 76 77  2  0
 78 77  1  0
 78 82  1  0
 79 78  2  0
 80 75  2  0
 80 79  1  0
 81 80  1  0
 83 84  1  0
 84 87  1  0
 84 86  1  0
 85 83  2  0
 88 89  1  0
 88 63  1  0
 90 88  1  0
M  ISO  4   4 101   5 101  53 100  61 100
M  END
>  <TORSDO>  (26) 
F 21

>  <SCORE>  (26) 
-13.693

>  <name>  (26) 
25

>  <ligand_id>  (26) 
25

>  <original_smiles>  (26) 
[H]c1c([H])c([H])c2c(c1[H])C([H])([H])C([H])([H])C([H])([H])C2([H])N([H])C(=O)C1([H])N(C(=O)C([H])(N([H])C(=O)C([H])(N([H])C([H])([H])[H])C([H])([H])[H])C(C([H])([H])[H])(C([H])([H])[H])C([H])([H])[H])C([H])([H])c2c([H])c(OC([H])([H])C([H])([H])C([H])([H])C([H])([H])Oc3c([H])c([H])c(N([H])C(=O)N4C([H])([H])C([H])([H])C([H])([H])C([H])(n5nc(-c6c([H])c([H])c(Oc7c([H])c([H])c(F)c([H])c7F)c([H])c6[H])c(C(=O)N([H])[H])c5N([H])[H])C4([H])[H])c([H])c3[H])c([H])c([H])c2C1([H])[H]

>  <smiles>  (26) 
[H]c1c([H])c([H])c2c(c1[H])C([H])([H])C([H])([H])C([H])([H])C2([H])N([H])C(=O)C1([H])N(C(=O)C([H])(N([H])C(=O)C([H])(N([H])C([H])([H])[H])C([H])([H])[H])C(C([H])([H])[H])(C([H])([H])[H])C([H])([H])[H])C([H])([H])c2c([H])c(OC([H])([H])C([H])([H])C([H])([H])C([H])([H])Oc3c([H])c([H])c(N([H])C(=O)N4C([H])([H])C([H])([H])C([H])([H])C([H])(n5nc(-c6c([H])c([H])c(Oc7c([H])c([H])c(F)c([H])c7F)c([H])c6[H])c(C(=O)N([H])[H])c5N([H])[H])C4([H])[H])c([H])c3[H])c([H])c([H])c2C1([H])[H]

$$$$
26:0:0
     RDKit          3D

102110  0  0  1  0  0  0  0  0999 V2000
  -30.2420  -23.2090   18.9040 C   0  0  0  0  0  0  0  0  0  0  0  0
  -29.3790  -24.1330   19.5360 N   0  0  0  0  0  0  0  0  0  0  0  0
  -31.3330  -22.9610   19.4340 O   0  0  0  0  0  0  0  0  0  0  0  0
  -26.2040  -25.6390   18.0070 C   0  0  0  0  0  3  0  0  0  0  0  0
  -27.5220  -25.5670   18.5860 C   0  0  0  0  0  3  0  0  0  0  0  0
  -25.6080  -23.6610   19.2030 C   0  0  0  0  0  3  0  0  0  0  0  0
  -26.9160  -23.5880   19.7920 C   0  0  0  0  0  0  0  0  0  0  0  0
  -25.2110  -24.6490   18.2570 C   0  0  0  0  0  0  0  0  0  0  0  0
  -27.9460  -24.5190   19.4640 C   0  0  0  0  0  0  0  0  0  0  0  0
  -27.2330  -22.4110   20.6970 C   0  0  0  0  0  1  0  0  0  0  0  0
  -23.5450  -24.2090   16.2140 C   0  0  0  0  0  0  0  0  0  0  0  0
  -21.6680  -24.9370   14.7210 C   0  0  0  0  0  2  0  0  0  0  0  0
  -21.3590  -26.4250   15.0030 C   0  0  0  0  0  2  0  0  0  0  0  0
  -20.3790  -26.5740   16.1860 C   0  0  0  0  0  2  0  0  0  0  0  0
  -20.7800  -25.7040   17.4070 C   0  0  0  0  0  3  0  0  0  0  0  0
  -21.1270  -24.2600   16.9780 C   0  0  0  0  0  2  0  0  0  0  0  0
  -22.1950  -24.3450   15.9690 N   0  0  0  0  0  0  0  0  0  0  0  0
  -24.3440  -24.0770   15.2800 O   0  0  0  0  0  0  0  0  0  0  0  0
  -23.9380  -24.4610   17.5160 N   0  0  0  0  0  0  0  0  0  0  0  0
  -23.1270  -24.6580   18.0820 H   0  0  0  0  0  0  0  0  0  0  0  0
  -19.7610  -26.4850   19.6310 C   0  0  0  0  0  0  0  0  0  0  0  0
  -18.5630  -26.2160   20.2340 C   0  0  0  0  0  0  0  0  0  0  0  0
  -17.8880  -25.2910   19.3780 C   0  0  0  0  0  0  0  0  0  0  0  0
  -19.7710  -25.7380   18.4620 N   0  0  0  0  0  0  0  0  0  0  0  0
  -18.6600  -24.9680   18.3490 N   0  0  0  0  0  0  0  0  0  0  0  0
  -16.5290  -24.7380   19.4530 C   0  0  0  0  0  0  0  0  0  0  0  0
  -15.9860  -24.2770   20.6720 C   0  0  0  0  0  3  0  0  0  0  0  0
  -14.6700  -23.7660   20.7200 C   0  0  0  0  0  3  0  0  0  0  0  0
  -13.8850  -23.7150   19.5440 C   0  0  0  0  0  0  0  0  0  0  0  0
  -14.4390  -24.1560   18.3280 C   0  0  0  0  0  3  0  0  0  0  0  0
  -15.7510  -24.6600   18.2810 C   0  0  0  0  0  3  0  0  0  0  0  0
  -12.6070  -23.2110   19.4910 O   0  0  0  0  0  0  0  0  0  0  0  0
  -11.8380  -23.0780   20.6190 C   0  0  0  0  0  0  0  0  0  0  0  0
  -11.0720  -24.1490   21.1280 C   0  0  0  0  0  3  0  0  0  0  0  0
  -10.2400  -23.9510   22.2470 C   0  0  0  0  0  3  0  0  0  0  0  0
  -10.1670  -22.6830   22.8550 C   0  0  0  0  0  0  0  0  0  0  0  0
  -10.9250  -21.6120   22.3470 C   0  0  0  0  0  3  0  0  0  0  0  0
  -11.7560  -21.8100   21.2300 C   0  0  0  0  0  0  0  0  0  0  0  0
  -12.4680  -20.7700   20.7310 F   0  0  0  0  0  0  0  0  0  0  0  0
   -9.3630  -22.4890   23.9260 F   0  0  0  0  0  0  0  0  0  0  0  0
  -18.0290  -26.8560   21.4830 C   0  0  0  0  0  0  0  0  0  0  0  0
  -18.3600  -26.3050   22.6450 N   0  0  0  0  0  0  0  0  0  0  0  0
  -17.3530  -27.8820   21.4350 O   0  0  0  0  0  0  0  0  0  0  0  0
  -18.9340  -25.4760   22.6870 H   0  0  0  0  0  0  0  0  0  0  0  0
  -18.0350  -26.7230   23.5070 H   0  0  0  0  0  0  0  0  0  0  0  0
  -20.8270  -27.3150   19.9620 N   0  0  0  0  0  0  0  0  0  0  0  0
  -20.8140  -27.9060   20.7860 H   0  0  0  0  0  0  0  0  0  0  0  0
  -21.6300  -27.4850   19.3720 H   0  0  0  0  0  0  0  0  0  0  0  0
  -30.0750  -22.4020   17.5690 C   0  0  0  0  0  2  0  0  0  0  0  0
  -31.3840  -22.2820   16.6070 C   0  0  0  0  0  2  0  0  0  0  0  0
  -32.6060  -21.4210   16.7880 O   0  0  0  0  0  0  0  0  0  0  0  0
  -38.1960  -22.1670   21.3880 C   0  0  0  0  0  0  0  0  0  0  0  0
  -33.8370  -22.0540   17.1100 C   0  0  0  0  0  0  0  0  0  0  0  0
  -37.7970  -24.0170   19.8040 C   0  0  0  0  0  3  0  0  0  0  0  0
  -36.2070  -23.5080   17.8650 C   0  0  0  0  0  0  0  0  0  0  0  0
  -37.1460  -21.6120   19.1780 C   0  0  0  0  0  2  0  0  0  0  0  0
  -36.0390  -22.1860   18.2960 C   0  0  0  0  0  0  0  0  0  0  0  0
  -34.8670  -21.4530   17.9120 C   0  0  0  0  0  3  0  0  0  0  0  0
  -34.0900  -23.3750   16.6680 C   0  0  0  0  0  3  0  0  0  0  0  0
  -35.2390  -24.0960   17.0410 C   0  0  0  0  0  3  0  0  0  0  0  0
  -37.4470  -24.2560   18.3140 C   0  0  0  0  0  2  0  0  0  0  0  0
  -37.7090  -22.5680   20.1760 N   0  0  0  0  0  0  0  0  0  0  0  0
  -38.7290  -22.9710   22.1680 O   0  0  0  0  0  0  0  0  0  0  0  0
  -36.9110  -24.9300   20.6850 C   0  0  0  0  0  0  0  0  0  0  0  0
  -37.5320  -25.9070   21.3650 N   0  0  0  0  0  0  0  0  0  0  0  0
  -35.6890  -24.7670   20.7280 O   0  0  0  0  0  0  0  0  0  0  0  0
  -38.5390  -25.9730   21.2880 H   0  0  0  0  0  0  0  0  0  0  0  0
  -38.1340  -28.3750   23.9430 C   0  0  0  0  0  0  0  0  0  0  0  0
  -36.8860  -26.9030   22.2220 C   0  0  0  0  0  3  0  0  0  0  0  0
  -36.6200  -28.2150   21.4480 C   0  0  0  0  0  2  0  0  0  0  0  0
  -37.7470  -29.2430   21.5970 C   0  0  0  0  0  2  0  0  0  0  0  0
  -37.9510  -29.6050   23.0700 C   0  0  0  0  0  2  0  0  0  0  0  0
  -37.6470  -27.1030   23.5380 C   0  0  0  0  0  0  0  0  0  0  0  0
  -37.8740  -25.9860   24.3720 C   0  0  0  0  0  3  0  0  0  0  0  0
  -38.5690  -26.1260   25.5880 C   0  0  0  0  0  3  0  0  0  0  0  0
  -39.0370  -27.3890   25.9910 C   0  0  0  0  0  3  0  0  0  0  0  0
  -38.8140  -28.5100   25.1710 C   0  0  0  0  0  3  0  0  0  0  0  0
  -38.1270  -20.6760   21.8400 C   0  0  0  0  0  3  0  0  0  0  0  0
  -39.4110  -20.3440   22.4750 N   0  0  0  0  0  0  0  0  0  0  0  0
  -40.3920  -19.6440   21.8890 C   0  0  0  0  0  0  0  0  0  0  0  0
  -40.2800  -19.1460   20.7660 O   0  0  0  0  0  0  0  0  0  0  0  0
  -39.5920  -20.7680   23.3730 H   0  0  0  0  0  0  0  0  0  0  0  0
  -42.8310  -20.2630   21.9870 C   0  0  0  0  0  1  0  0  0  0  0  0
  -41.7080  -19.4690   22.6750 C   0  0  0  0  0  3  0  0  0  0  0  0
  -41.2810  -17.3060   23.7570 C   0  0  0  0  0  1  0  0  0  0  0  0
  -42.1190  -18.0570   22.8260 N   0  0  0  0  0  0  0  0  0  0  0  0
  -43.0810  -17.9950   23.1480 H   0  0  0  0  0  0  0  0  0  0  0  0
  -36.9300  -20.3820   22.8240 C   0  0  1  0  0  0  0  0  0  0  0  0
  -36.9510  -21.2470   24.1060 C   0  0  0  0  0  1  0  0  0  0  0  0
  -35.5710  -20.6160   22.1240 C   0  0  0  0  0  1  0  0  0  0  0  0
  -36.9550  -18.8950   23.2510 C   0  0  0  0  0  1  0  0  0  0  0  0
  -30.0850  -24.9880   20.5220 C   0  0  0  0  0  2  0  0  0  0  0  0
  -29.6930  -24.7030   21.9930 C   0  0  0  0  0  2  0  0  0  0  0  0
  -29.7630  -25.9350   22.8210 N   0  0  1  0  0  4  0  0  0  0  0  0
  -30.5860  -25.8210   23.3950 H   0  0  0  0  0  0  0  0  0  0  0  0
  -29.9950  -27.1750   22.0360 C   0  0  0  0  0  2  0  0  0  0  0  0
  -31.6620  -29.0820   21.6350 C   0  0  0  0  0  1  0  0  0  0  0  0
  -31.1540  -28.0150   22.6130 C   0  0  0  0  0  2  0  0  0  0  0  0
  -28.6340  -26.0430   23.7830 C   0  0  0  0  0  2  0  0  0  0  0  0
  -27.4880  -26.8950   23.2020 C   0  0  0  0  0  2  0  0  0  0  0  0
  -25.5800  -26.5620   21.5340 C   0  0  0  0  0  1  0  0  0  0  0  0
  -26.2600  -26.0580   22.8120 C   0  0  0  0  0  2  0  0  0  0  0  0
  1  3  2  0
  1  2  1  0
  2 92  1  0
  4  8  2  0
  4  5  1  0
  5  9  2  0
  6  7  2  0
  7 10  1  0
  8  6  1  0
  9  2  1  0
  9  7  1  0
 11 19  1  0
 12 13  1  0
 12 17  1  0
 13 14  1  0
 15 14  1  0
 15 24  1  0
 16 15  1  0
 17 11  1  0
 17 16  1  0
 18 11  2  0
 19 20  1  0
 19  8  1  0
 21 46  1  0
 21 22  2  0
 22 41  1  0
 23 26  1  0
 23 22  1  0
 24 21  1  0
 25 24  1  0
 25 23  2  0
 26 27  1  0
 27 28  2  0
 29 28  1  0
 30 29  2  0
 31 30  1  0
 31 26  2  0
 32 29  1  0
 32 33  1  0
 33 34  2  0
 33 38  1  0
 34 35  1  0
 35 36  2  0
 36 40  1  0
 37 36  1  0
 38 37  2  0
 39 38  1  0
 41 42  1  0
 42 44  1  0
 42 45  1  0
 43 41  2  0
 46 47  1  0
 48 46  1  0
 49  1  1  0
 50 51  1  0
 50 49  1  0
 51 53  1  0
 52 63  2  0
 53 58  1  0
 54 62  1  0
 54 64  1  0
 55 57  1  0
 55 61  1  0
 56 62  1  0
 57 56  1  0
 58 57  2  0
 59 60  1  0
 59 53  2  0
 60 55  2  0
 61 54  1  0
 62 52  1  0
 64 66  2  0
 64 65  1  0
 67 65  1  0
 68 77  1  0
 69 65  1  0
 69 73  1  0
 70 71  1  0
 70 69  1  0
 71 72  1  0
 72 68  1  0
 73 68  2  0
 73 74  1  0
 74 75  2  0
 75 76  1  0
 77 76  2  0
 78 52  1  0
 78 79  1  0
 78 88  1  0
 79 82  1  0
 80 79  1  0
 80 84  1  0
 81 80  2  0
 84 83  1  0
 84 86  1  0
 86 87  1  0
 86 85  1  0
 88 91  1  1
 88 89  1  0
 90 88  1  0
 92 93  1  0
 93 94  1  0
 94 95  1  1
 94 99  1  0
 96 98  1  0
 96 94  1  0
 97 98  1  0
100 99  1  0
101102  1  0
102100  1  0
M  ISO  4  11 100  19 100  50 101  51 101
M  END
>  <TORSDO>  (27) 
F 27

>  <SCORE>  (27) 
-5.994

>  <name>  (27) 
26

>  <ligand_id>  (27) 
26

>  <original_smiles>  (27) 
[H]c1c([H])c([H])c2c(c1[H])C([H])([H])C([H])([H])C([H])([H])C2([H])N([H])C(=O)C1([H])N(C(=O)C([H])(N([H])C(=O)C([H])(N([H])C([H])([H])[H])C([H])([H])[H])C(C([H])([H])[H])(C([H])([H])[H])C([H])([H])[H])C([H])([H])c2c([H])c(OC([H])([H])C([H])([H])C(=O)N(c3c([H])c([H])c(N([H])C(=O)N4C([H])([H])C([H])([H])C([H])([H])C([H])(n5nc(-c6c([H])c([H])c(Oc7c([H])c([H])c(F)c([H])c7F)c([H])c6[H])c(C(=O)N([H])[H])c5N([H])[H])C4([H])[H])c([H])c3C([H])([H])[H])C([H])([H])C([H])([H])[N+]([H])(C([H])([H])C([H])([H])C([H])([H])[H])C([H])([H])C([H])([H])C([H])([H])C([H])([H])[H])c([H])c([H])c2C1([H])[H]

>  <smiles>  (27) 
[H]c1c([H])c([H])c2c(c1[H])C([H])([H])C([H])([H])C([H])([H])C2([H])N([H])C(=O)C1([H])N(C(=O)C([H])(N([H])C(=O)C([H])(N([H])C([H])([H])[H])C([H])([H])[H])C(C([H])([H])[H])(C([H])([H])[H])C([H])([H])[H])C([H])([H])c2c([H])c(OC([H])([H])C([H])([H])C(=O)N(c3c([H])c([H])c(N([H])C(=O)N4C([H])([H])C([H])([H])C([H])([H])C([H])(n5nc(-c6c([H])c([H])c(Oc7c([H])c([H])c(F)c([H])c7F)c([H])c6[H])c(C(=O)N([H])[H])c5N([H])[H])C4([H])[H])c([H])c3C([H])([H])[H])C([H])([H])C([H])([H])[N+]([H])(C([H])([H])C([H])([H])C([H])([H])[H])C([H])([H])C([H])([H])C([H])([H])C([H])([H])[H])c([H])c([H])c2C1([H])[H]

$$$$
27:0:0
     RDKit          3D

104112  0  0  1  0  0  0  0  0999 V2000
  -31.2800  -22.8700   23.2010 C   0  0  0  0  0  2  0  0  0  0  0  0
  -31.8900  -21.4470   23.0450 C   0  0  0  0  0  2  0  0  0  0  0  0
  -30.8740  -20.2960   22.7400 C   0  0  2  0  0  0  0  0  0  0  0  0
  -30.8200  -19.6340   23.9020 F   0  0  0  0  0  0  0  0  0  0  0  0
  -32.5370  -18.9240   19.5020 C   0  0  0  0  0  3  0  0  0  0  0  0
  -32.0860  -19.7640   20.5290 C   0  0  0  0  0  3  0  0  0  0  0  0
  -32.3300  -17.5450   19.5900 C   0  0  0  0  0  3  0  0  0  0  0  0
  -31.3880  -19.2770   21.6670 C   0  0  0  0  0  0  0  0  0  0  0  0
  -31.2360  -17.8510   21.7700 C   0  0  0  0  0  0  0  0  0  0  0  0
  -31.6980  -16.9960   20.7240 C   0  0  0  0  0  0  0  0  0  0  0  0
  -30.6040  -17.1990   22.9980 C   0  0  0  0  0  1  0  0  0  0  0  0
  -31.9420  -14.5840   20.0440 C   0  0  0  0  0  0  0  0  0  0  0  0
  -32.0090  -12.1170   19.9190 C   0  0  0  0  0  2  0  0  0  0  0  0
  -31.1350  -11.5370   18.7940 C   0  0  0  0  0  2  0  0  0  0  0  0
  -29.6790  -11.3670   19.2590 C   0  0  0  0  0  2  0  0  0  0  0  0
  -29.1190  -12.6520   19.9150 C   0  0  0  0  0  3  0  0  0  0  0  0
  -30.0870  -13.1790   20.9940 C   0  0  0  0  0  2  0  0  0  0  0  0
  -31.4170  -13.3810   20.3820 N   0  0  0  0  0  0  0  0  0  0  0  0
  -32.8730  -14.7140   19.2390 O   0  0  0  0  0  0  0  0  0  0  0  0
  -31.4620  -15.5920   20.7990 N   0  0  0  0  0  0  0  0  0  0  0  0
  -30.8430  -15.2860   21.5350 H   0  0  0  0  0  0  0  0  0  0  0  0
  -26.7760  -13.3480   20.7310 C   0  0  0  0  0  0  0  0  0  0  0  0
  -25.7010  -12.6150   21.1580 C   0  0  0  0  0  0  0  0  0  0  0  0
  -26.1130  -11.2480   21.1080 C   0  0  0  0  0  0  0  0  0  0  0  0
  -27.7790  -12.4310   20.4560 N   0  0  0  0  0  0  0  0  0  0  0  0
  -27.3840  -11.1620   20.7350 N   0  0  0  0  0  0  0  0  0  0  0  0
  -25.3550  -10.0130   21.3440 C   0  0  0  0  0  0  0  0  0  0  0  0
  -25.3460   -9.3840   22.6080 C   0  0  0  0  0  3  0  0  0  0  0  0
  -24.5980   -8.2050   22.8160 C   0  0  0  0  0  3  0  0  0  0  0  0
  -23.8460   -7.6460   21.7570 C   0  0  0  0  0  0  0  0  0  0  0  0
  -23.8760   -8.2630   20.4940 C   0  0  0  0  0  3  0  0  0  0  0  0
  -24.6230   -9.4350   20.2870 C   0  0  0  0  0  3  0  0  0  0  0  0
  -23.1130   -6.4890   21.8580 O   0  0  0  0  0  0  0  0  0  0  0  0
  -22.1010   -6.3570   22.7740 C   0  0  0  0  0  0  0  0  0  0  0  0
  -21.0310   -7.2750   22.8370 C   0  0  0  0  0  3  0  0  0  0  0  0
  -19.9750   -7.0630   23.7470 C   0  0  0  0  0  3  0  0  0  0  0  0
  -19.9840   -5.9330   24.5860 C   0  0  0  0  0  0  0  0  0  0  0  0
  -21.0470   -5.0150   24.5210 C   0  0  0  0  0  3  0  0  0  0  0  0
  -22.1010   -5.2260   23.6140 C   0  0  0  0  0  0  0  0  0  0  0  0
  -23.1130   -4.3270   23.5390 F   0  0  0  0  0  0  0  0  0  0  0  0
  -18.9670   -5.7240   25.4540 F   0  0  0  0  0  0  0  0  0  0  0  0
  -24.3370  -13.1410   21.5000 C   0  0  0  0  0  0  0  0  0  0  0  0
  -23.6430  -12.4860   22.4230 N   0  0  0  0  0  0  0  0  0  0  0  0
  -23.9010  -14.1690   20.9830 O   0  0  0  0  0  0  0  0  0  0  0  0
  -24.0100  -11.6540   22.8610 H   0  0  0  0  0  0  0  0  0  0  0  0
  -22.7300  -12.8230   22.6960 H   0  0  0  0  0  0  0  0  0  0  0  0
  -26.9780  -14.7110   20.5370 N   0  0  0  0  0  0  0  0  0  0  0  0
  -26.2450  -15.3950   20.6880 H   0  0  0  0  0  0  0  0  0  0  0  0
  -27.8300  -15.1180   20.1700 H   0  0  0  0  0  0  0  0  0  0  0  0
  -29.4580  -20.9180   22.4610 C   0  0  1  0  0  0  0  0  0  0  0  0
  -28.5040  -20.0120   22.2580 F   0  0  0  0  0  0  0  0  0  0  0  0
  -29.0390  -21.6570   23.4900 F   0  0  0  0  0  0  0  0  0  0  0  0
  -29.5040  -21.7070   21.3860 F   0  0  0  0  0  0  0  0  0  0  0  0
  -31.8650  -23.9370   22.2420 C   0  0  0  0  0  2  0  0  0  0  0  0
  -30.0060  -23.7020   20.5640 C   0  0  0  0  0  0  0  0  0  0  0  0
  -31.2890  -23.9180   20.8890 N   0  0  0  0  0  0  0  0  0  0  0  0
  -29.7410  -23.8470   19.2580 N   0  0  0  0  0  0  0  0  0  0  0  0
  -29.1440  -23.4020   21.3920 O   0  0  0  0  0  0  0  0  0  0  0  0
  -31.9210  -24.1900   20.1470 H   0  0  0  0  0  0  0  0  0  0  0  0
  -30.4970  -24.0940   18.6340 H   0  0  0  0  0  0  0  0  0  0  0  0
  -28.4070  -23.6610   18.6710 C   0  0  0  0  0  2  0  0  0  0  0  0
  -28.2070  -24.3870   17.3160 C   0  0  0  0  0  2  0  0  0  0  0  0
  -26.7100  -24.5960   16.9990 C   0  0  0  0  0  2  0  0  0  0  0  0
  -26.3930  -25.8530   16.3740 O   0  0  0  0  0  0  0  0  0  0  0  0
  -24.4490  -28.5330   22.6330 C   0  0  0  0  0  0  0  0  0  0  0  0
  -25.4040  -26.5140   17.0630 C   0  0  0  0  0  0  0  0  0  0  0  0
  -22.6200  -28.1450   21.0100 C   0  0  0  0  0  3  0  0  0  0  0  0
  -23.3460  -27.6700   18.6110 C   0  0  0  0  0  0  0  0  0  0  0  0
  -24.9840  -28.6850   20.2060 C   0  0  0  0  0  2  0  0  0  0  0  0
  -24.6870  -27.8680   18.9670 C   0  0  0  0  0  0  0  0  0  0  0  0
  -25.7190  -27.3040   18.1870 C   0  0  0  0  0  3  0  0  0  0  0  0
  -24.0500  -26.3330   16.7050 C   0  0  0  0  0  3  0  0  0  0  0  0
  -23.0210  -26.9030   17.4770 C   0  0  0  0  0  3  0  0  0  0  0  0
  -22.3030  -28.3070   19.4980 C   0  0  0  0  0  2  0  0  0  0  0  0
  -24.0540  -28.4350   21.3300 N   0  0  0  0  0  0  0  0  0  0  0  0
  -23.6350  -28.4280   23.5600 O   0  0  0  0  0  0  0  0  0  0  0  0
  -22.1590  -26.7430   21.4660 C   0  0  0  0  0  0  0  0  0  0  0  0
  -20.8530  -26.4620   21.3140 N   0  0  0  0  0  0  0  0  0  0  0  0
  -22.9670  -25.9260   21.9170 O   0  0  0  0  0  0  0  0  0  0  0  0
  -20.2550  -27.1850   20.9380 H   0  0  0  0  0  0  0  0  0  0  0  0
  -17.7770  -24.6020   20.9780 C   0  0  0  0  0  0  0  0  0  0  0  0
  -20.2070  -25.1910   21.6370 C   0  0  0  0  0  3  0  0  0  0  0  0
  -20.6350  -24.0810   20.6500 C   0  0  0  0  0  2  0  0  0  0  0  0
  -19.6860  -23.9370   19.4570 C   0  0  0  0  0  2  0  0  0  0  0  0
  -18.2690  -23.6110   19.9370 C   0  0  0  0  0  2  0  0  0  0  0  0
  -18.6890  -25.3550   21.7670 C   0  0  0  0  0  0  0  0  0  0  0  0
  -18.1810  -26.2910   22.6930 C   0  0  0  0  0  3  0  0  0  0  0  0
  -16.7940  -26.4720   22.8460 C   0  0  0  0  0  3  0  0  0  0  0  0
  -15.8980  -25.7120   22.0770 C   0  0  0  0  0  3  0  0  0  0  0  0
  -16.3890  -24.7770   21.1490 C   0  0  0  0  0  3  0  0  0  0  0  0
  -25.9380  -28.8000   23.0150 C   0  0  0  0  0  3  0  0  0  0  0  0
  -26.6000  -27.6100   23.8130 C   0  0  1  0  0  0  0  0  0  0  0  0
  -25.7670  -27.1490   25.0310 C   0  0  0  0  0  1  0  0  0  0  0  0
  -26.8150  -26.3900   22.8880 C   0  0  0  0  0  1  0  0  0  0  0  0
  -27.9990  -28.0340   24.3190 C   0  0  0  0  0  1  0  0  0  0  0  0
  -25.9790  -30.0400   23.8040 N   0  0  0  0  0  0  0  0  0  0  0  0
  -26.4780  -31.2000   23.3660 C   0  0  0  0  0  0  0  0  0  0  0  0
  -27.0260  -31.3230   22.2650 O   0  0  0  0  0  0  0  0  0  0  0  0
  -25.4950  -30.0280   24.6900 H   0  0  0  0  0  0  0  0  0  0  0  0
  -25.2230  -33.3380   23.7800 C   0  0  0  0  0  1  0  0  0  0  0  0
  -26.3470  -32.4230   24.2930 C   0  0  0  0  0  3  0  0  0  0  0  0
  -28.6400  -32.4870   25.1660 C   0  0  0  0  0  1  0  0  0  0  0  0
  -27.5990  -33.1970   24.4280 N   0  0  0  0  0  0  0  0  0  0  0  0
  -27.4280  -34.0840   24.8950 H   0  0  0  0  0  0  0  0  0  0  0  0
  2  1  1  0
  3  2  1  0
  3  4  1  1
  5  7  2  0
  5  6  1  0
  6  8  2  0
  7 10  1  0
  8  9  1  0
  8  3  1  0
  9 11  1  0
 10 20  1  0
 10  9  2  0
 12 18  1  0
 12 20  1  0
 13 18  1  0
 14 15  1  0
 14 13  1  0
 16 15  1  0
 16 25  1  0
 16 17  1  0
 18 17  1  0
 19 12  2  0
 20 21  1  0
 22 23  2  0
 23 42  1  0
 24 23  1  0
 24 27  1  0
 25 22  1  0
 25 26  1  0
 26 24  2  0
 27 28  1  0
 28 29  2  0
 30 33  1  0
 30 29  1  0
 31 30  2  0
 32 31  1  0
 32 27  2  0
 33 34  1  0
 34 35  2  0
 34 39  1  0
 35 36  1  0
 36 37  2  0
 37 41  1  0
 38 37  1  0
 39 38  2  0
 40 39  1  0
 42 43  1  0
 43 46  1  0
 43 45  1  0
 44 42  2  0
 47 48  1  0
 47 22  1  0
 49 47  1  0
 50  3  1  0
 50 52  1  1
 51 50  1  0
 53 50  1  0
 54  1  1  0
 55 56  1  0
 55 58  2  0
 56 54  1  0
 57 55  1  0
 59 56  1  0
 60 57  1  0
 61 57  1  0
 62 61  1  0
 63 62  1  0
 64 63  1  0
 64 66  1  0
 65 76  2  0
 66 71  1  0
 67 75  1  0
 67 77  1  0
 68 70  1  0
 68 74  1  0
 69 75  1  0
 70 69  1  0
 71 70  2  0
 72 66  2  0
 72 73  1  0
 73 68  2  0
 74 67  1  0
 75 65  1  0
 77 79  2  0
 78 77  1  0
 80 78  1  0
 81 90  2  0
 81 86  1  0
 82 78  1  0
 82 86  1  0
 83 82  1  0
 84 85  1  0
 84 83  1  0
 85 81  1  0
 86 87  2  0
 87 88  1  0
 89 88  2  0
 90 89  1  0
 91 65  1  0
 91 96  1  0
 91 92  1  0
 92 95  1  1
 92 93  1  0
 94 92  1  0
 96 99  1  0
 97 96  1  0
 97101  1  0
 98 97  2  0
101100  1  0
101103  1  0
103104  1  0
103102  1  0
M  ISO  4  12 100  20 100  63 101  64 101
M  END
>  <TORSDO>  (28) 
F 25

>  <SCORE>  (28) 
-2.785

>  <name>  (28) 
27

>  <ligand_id>  (28) 
27

>  <original_smiles>  (28) 
[H]c1c([H])c([H])c2c(c1[H])C([H])([H])C([H])([H])C([H])([H])C2([H])N([H])C(=O)C1([H])N(C(=O)C([H])(N([H])C(=O)C([H])(N([H])C([H])([H])[H])C([H])([H])[H])C(C([H])([H])[H])(C([H])([H])[H])C([H])([H])[H])C([H])([H])c2c([H])c(OC([H])([H])C([H])([H])C([H])([H])N([H])C(=O)N([H])C([H])([H])C([H])([H])C([H])([H])C(F)(c3c([H])c([H])c([H])c(N([H])C(=O)N4C([H])([H])C([H])([H])C([H])([H])C([H])(n5nc(-c6c([H])c([H])c(Oc7c([H])c([H])c(F)c([H])c7F)c([H])c6[H])c(C(=O)N([H])[H])c5N([H])[H])C4([H])[H])c3C([H])([H])[H])C(F)(F)F)c([H])c([H])c2C1([H])[H]

>  <smiles>  (28) 
[H]c1c([H])c([H])c2c(c1[H])C([H])([H])C([H])([H])C([H])([H])C2([H])N([H])C(=O)C1([H])N(C(=O)C([H])(N([H])C(=O)C([H])(N([H])C([H])([H])[H])C([H])([H])[H])C(C([H])([H])[H])(C([H])([H])[H])C([H])([H])[H])C([H])([H])c2c([H])c(OC([H])([H])C([H])([H])C([H])([H])N([H])C(=O)N([H])C([H])([H])C([H])([H])C([H])([H])C(F)(c3c([H])c([H])c([H])c(N([H])C(=O)N4C([H])([H])C([H])([H])C([H])([H])C([H])(n5nc(-c6c([H])c([H])c(Oc7c([H])c([H])c(F)c([H])c7F)c([H])c6[H])c(C(=O)N([H])[H])c5N([H])[H])C4([H])[H])c3C([H])([H])[H])C(F)(F)F)c([H])c([H])c2C1([H])[H]

$$$$
28:0:0
     RDKit          3D

 96104  0  0  1  0  0  0  0  0999 V2000
  -32.2370  -23.8610   20.7930 C   0  0  0  0  0  2  0  0  0  0  0  0
  -31.7840  -22.6190   21.5790 C   0  0  0  0  0  2  0  0  0  0  0  0
  -32.3840  -21.3250   21.0250 C   0  0  0  0  0  2  0  0  0  0  0  0
  -32.2710  -20.3150   22.0200 O   0  0  0  0  0  0  0  0  0  0  0  0
  -32.1160  -17.2050   19.9530 C   0  0  0  0  0  3  0  0  0  0  0  0
  -32.4090  -18.5320   20.3210 C   0  0  0  0  0  3  0  0  0  0  0  0
  -31.4260  -18.1460   22.5110 C   0  0  0  0  0  3  0  0  0  0  0  0
  -31.4510  -16.3440   20.8590 C   0  0  0  0  0  0  0  0  0  0  0  0
  -32.0510  -19.0210   21.6000 C   0  0  0  0  0  0  0  0  0  0  0  0
  -31.1250  -16.8210   22.1440 C   0  0  0  0  0  0  0  0  0  0  0  0
  -30.5030  -15.9980   23.0240 F   0  0  0  0  0  0  0  0  0  0  0  0
  -31.3560  -14.2310   19.5230 C   0  0  0  0  0  0  0  0  0  0  0  0
  -30.7670  -12.1370   18.3550 C   0  0  0  0  0  2  0  0  0  0  0  0
  -29.6900  -12.3820   17.2810 C   0  0  0  0  0  2  0  0  0  0  0  0
  -28.2780  -12.3100   17.8940 C   0  0  0  0  0  2  0  0  0  0  0  0
  -28.1410  -13.1790   19.1720 C   0  0  0  0  0  3  0  0  0  0  0  0
  -29.3060  -12.8970   20.1450 C   0  0  0  0  0  2  0  0  0  0  0  0
  -30.5800  -13.1200   19.4320 N   0  0  0  0  0  0  0  0  0  0  0  0
  -32.2770  -14.4690   18.7350 O   0  0  0  0  0  0  0  0  0  0  0  0
  -31.0790  -15.0040   20.5810 N   0  0  0  0  0  0  0  0  0  0  0  0
  -30.3470  -14.6480   21.1790 H   0  0  0  0  0  0  0  0  0  0  0  0
  -25.9070  -13.9230   20.2220 C   0  0  0  0  0  0  0  0  0  0  0  0
  -24.8390  -13.2100   20.7000 C   0  0  0  0  0  0  0  0  0  0  0  0
  -25.1850  -11.8320   20.5460 C   0  0  0  0  0  0  0  0  0  0  0  0
  -26.8410  -12.9820   19.8130 N   0  0  0  0  0  0  0  0  0  0  0  0
  -26.4150  -11.7170   20.0610 N   0  0  0  0  0  0  0  0  0  0  0  0
  -24.3950  -10.6170   20.7780 C   0  0  0  0  0  0  0  0  0  0  0  0
  -24.6870   -9.7390   21.8460 C   0  0  0  0  0  3  0  0  0  0  0  0
  -23.9020   -8.5850   22.0590 C   0  0  0  0  0  3  0  0  0  0  0  0
  -22.8110   -8.3000   21.2040 C   0  0  0  0  0  0  0  0  0  0  0  0
  -22.5390   -9.1650   20.1300 C   0  0  0  0  0  3  0  0  0  0  0  0
  -23.3240  -10.3100   19.9150 C   0  0  0  0  0  3  0  0  0  0  0  0
  -22.0100   -7.1900   21.3200 O   0  0  0  0  0  0  0  0  0  0  0  0
  -21.5570   -6.7530   22.5390 C   0  0  0  0  0  0  0  0  0  0  0  0
  -20.8100   -7.5880   23.3980 C   0  0  0  0  0  3  0  0  0  0  0  0
  -20.3040   -7.0780   24.6100 C   0  0  0  0  0  3  0  0  0  0  0  0
  -20.5340   -5.7350   24.9600 C   0  0  0  0  0  0  0  0  0  0  0  0
  -21.2730   -4.9000   24.1030 C   0  0  0  0  0  3  0  0  0  0  0  0
  -21.7800   -5.4070   22.8940 C   0  0  0  0  0  0  0  0  0  0  0  0
  -22.4720   -4.5940   22.0610 F   0  0  0  0  0  0  0  0  0  0  0  0
  -20.0420   -5.2410   26.1210 F   0  0  0  0  0  0  0  0  0  0  0  0
  -23.5330  -13.7700   21.1840 C   0  0  0  0  0  0  0  0  0  0  0  0
  -22.9100  -13.1190   22.1600 N   0  0  0  0  0  0  0  0  0  0  0  0
  -23.0780  -14.8190   20.7290 O   0  0  0  0  0  0  0  0  0  0  0  0
  -23.2920  -12.2700   22.5490 H   0  0  0  0  0  0  0  0  0  0  0  0
  -22.0380  -13.4760   22.5250 H   0  0  0  0  0  0  0  0  0  0  0  0
  -26.1550  -15.2850   20.0840 N   0  0  0  0  0  0  0  0  0  0  0  0
  -25.4730  -15.9910   20.3400 H   0  0  0  0  0  0  0  0  0  0  0  0
  -26.9990  -15.6750   19.6830 H   0  0  0  0  0  0  0  0  0  0  0  0
  -31.4640  -25.1410   21.1640 C   0  0  0  0  0  2  0  0  0  0  0  0
  -29.4980  -25.3480   19.6390 C   0  0  0  0  0  0  0  0  0  0  0  0
  -30.0460  -25.0600   20.8260 N   0  0  0  0  0  0  0  0  0  0  0  0
  -30.1680  -25.6890   18.6600 O   0  0  0  0  0  0  0  0  0  0  0  0
  -29.4130  -24.7940   21.5710 H   0  0  0  0  0  0  0  0  0  0  0  0
  -27.9710  -25.2470   19.5640 C   0  0  0  0  0  2  0  0  0  0  0  0
  -27.4790  -25.8580   18.3700 O   0  0  0  0  0  0  0  0  0  0  0  0
  -24.4180  -30.6960   22.5760 C   0  0  0  0  0  0  0  0  0  0  0  0
  -26.4110  -26.6880   18.5930 C   0  0  0  0  0  0  0  0  0  0  0  0
  -22.9780  -29.7390   20.8030 C   0  0  0  0  0  3  0  0  0  0  0  0
  -24.1800  -28.3550   19.0280 C   0  0  0  0  0  0  0  0  0  0  0  0
  -25.5070  -29.9010   20.4840 C   0  0  0  0  0  2  0  0  0  0  0  0
  -25.4130  -28.6670   19.6160 C   0  0  0  0  0  0  0  0  0  0  0  0
  -26.5330  -27.8400   19.3980 C   0  0  0  0  0  3  0  0  0  0  0  0
  -25.1720  -26.3860   17.9970 C   0  0  0  0  0  3  0  0  0  0  0  0
  -24.0510  -27.2120   18.2170 C   0  0  0  0  0  3  0  0  0  0  0  0
  -23.0370  -29.3000   19.3140 C   0  0  0  0  0  2  0  0  0  0  0  0
  -24.3240  -30.1130   21.3480 N   0  0  0  0  0  0  0  0  0  0  0  0
  -23.4040  -30.9680   23.2330 O   0  0  0  0  0  0  0  0  0  0  0  0
  -22.2750  -28.6280   21.6150 C   0  0  0  0  0  0  0  0  0  0  0  0
  -20.9330  -28.6420   21.6070 N   0  0  0  0  0  0  0  0  0  0  0  0
  -22.9310  -27.7660   22.2070 O   0  0  0  0  0  0  0  0  0  0  0  0
  -20.4720  -29.3880   21.1050 H   0  0  0  0  0  0  0  0  0  0  0  0
  -17.4810  -27.8570   22.3210 C   0  0  0  0  0  0  0  0  0  0  0  0
  -20.0590  -27.6750   22.2670 C   0  0  0  0  0  3  0  0  0  0  0  0
  -19.8510  -26.4210   21.3880 C   0  0  0  0  0  2  0  0  0  0  0  0
  -18.6070  -26.5080   20.4990 C   0  0  0  0  0  2  0  0  0  0  0  0
  -17.3480  -26.6930   21.3520 C   0  0  0  0  0  2  0  0  0  0  0  0
  -18.7540  -28.3270   22.7380 C   0  0  0  0  0  0  0  0  0  0  0  0
  -18.8230  -29.4350   23.6110 C   0  0  0  0  0  3  0  0  0  0  0  0
  -17.6510  -30.0660   24.0670 C   0  0  0  0  0  3  0  0  0  0  0  0
  -16.3920  -29.5870   23.6630 C   0  0  0  0  0  3  0  0  0  0  0  0
  -16.3100  -28.4830   22.7960 C   0  0  0  0  0  3  0  0  0  0  0  0
  -25.7970  -31.0730   23.2000 C   0  0  0  0  0  3  0  0  0  0  0  0
  -25.6550  -32.4000   23.8140 N   0  0  0  0  0  0  0  0  0  0  0  0
  -26.1130  -33.5380   23.2760 C   0  0  0  0  0  0  0  0  0  0  0  0
  -26.7700  -33.5690   22.2320 O   0  0  0  0  0  0  0  0  0  0  0  0
  -25.0770  -32.4570   24.6400 H   0  0  0  0  0  0  0  0  0  0  0  0
  -24.6380  -35.5730   23.3010 C   0  0  0  0  0  1  0  0  0  0  0  0
  -25.7910  -34.8510   24.0150 C   0  0  0  0  0  3  0  0  0  0  0  0
  -27.9840  -35.2620   25.0400 C   0  0  0  0  0  1  0  0  0  0  0  0
  -26.9530  -35.7590   24.1320 N   0  0  0  0  0  0  0  0  0  0  0  0
  -26.6610  -36.6760   24.4590 H   0  0  0  0  0  0  0  0  0  0  0  0
  -26.3130  -30.0190   24.2560 C   0  0  1  0  0  0  0  0  0  0  0  0
  -25.2720  -29.6750   25.3460 C   0  0  0  0  0  1  0  0  0  0  0  0
  -26.7160  -28.7010   23.5540 C   0  0  0  0  0  1  0  0  0  0  0  0
  -27.5820  -30.5560   24.9570 C   0  0  0  0  0  1  0  0  0  0  0  0
  1 50  1  0
  1  2  1  0
  3  2  1  0
  3  4  1  0
  5  6  2  0
  5  8  1  0
  6  9  1  0
  8 10  2  0
  9  4  1  0
  9  7  2  0
 10  7  1  0
 10 11  1  0
 12 20  1  0
 13 18  1  0
 14 15  1  0
 14 13  1  0
 16 15  1  0
 16 25  1  0
 16 17  1  0
 18 12  1  0
 18 17  1  0
 19 12  2  0
 20  8  1  0
 20 21  1  0
 22 23  2  0
 23 42  1  0
 24 23  1  0
 24 27  1  0
 25 26  1  0
 25 22  1  0
 26 24  2  0
 27 28  1  0
 28 29  2  0
 30 33  1  0
 30 29  1  0
 31 30  2  0
 32 31  1  0
 32 27  2  0
 33 34  1  0
 34 39  2  0
 34 35  1  0
 35 36  2  0
 36 37  1  0
 37 41  1  0
 38 37  2  0
 39 38  1  0
 40 39  1  0
 42 43  1  0
 43 46  1  0
 43 45  1  0
 44 42  2  0
 47 22  1  0
 47 48  1  0
 49 47  1  0
 51 52  1  0
 52 50  1  0
 52 54  1  0
 53 51  2  0
 55 51  1  0
 56 58  1  0
 56 55  1  0
 57 68  2  0
 58 63  1  0
 59 67  1  0
 59 69  1  0
 60 66  1  0
 60 62  1  0
 61 67  1  0
 62 61  1  0
 63 62  2  0
 64 65  1  0
 64 58  2  0
 65 60  2  0
 66 59  1  0
 67 57  1  0
 69 71  2  0
 70 69  1  0
 72 70  1  0
 73 78  2  0
 73 82  1  0
 74 70  1  0
 74 78  1  0
 75 74  1  0
 76 77  1  0
 76 75  1  0
 77 73  1  0
 78 79  1  0
 79 80  2  0
 81 80  1  0
 82 81  2  0
 83 57  1  0
 83 84  1  0
 83 93  1  0
 84 87  1  0
 85 84  1  0
 85 89  1  0
 86 85  2  0
 89 88  1  0
 89 91  1  0
 91 92  1  0
 91 90  1  0
 93 96  1  1
 93 94  1  0
 95 93  1  0
M  ISO  4  12 100  20 100  55 101  56 101
M  END
>  <TORSDO>  (29) 
F 23

>  <SCORE>  (29) 
-7.578

>  <name>  (29) 
28

>  <ligand_id>  (29) 
28

>  <original_smiles>  (29) 
[H]c1c([H])c([H])c2c(c1[H])C([H])([H])C([H])([H])C([H])([H])C2([H])N([H])C(=O)C1([H])N(C(=O)C([H])(N([H])C(=O)C([H])(N([H])C([H])([H])[H])C([H])([H])[H])C(C([H])([H])[H])(C([H])([H])[H])C([H])([H])[H])C([H])([H])c2c([H])c(OC([H])([H])C(=O)N([H])C([H])([H])C([H])([H])C([H])([H])C([H])([H])Oc3c([H])c([H])c(N([H])C(=O)N4C([H])([H])C([H])([H])C([H])([H])C([H])(n5nc(-c6c([H])c([H])c(Oc7c([H])c([H])c(F)c([H])c7F)c([H])c6[H])c(C(=O)N([H])[H])c5N([H])[H])C4([H])[H])c(F)c3[H])c([H])c([H])c2C1([H])[H]

>  <smiles>  (29) 
[H]c1c([H])c([H])c2c(c1[H])C([H])([H])C([H])([H])C([H])([H])C2([H])N([H])C(=O)C1([H])N(C(=O)C([H])(N([H])C(=O)C([H])(N([H])C([H])([H])[H])C([H])([H])[H])C(C([H])([H])[H])(C([H])([H])[H])C([H])([H])[H])C([H])([H])c2c([H])c(OC([H])([H])C(=O)N([H])C([H])([H])C([H])([H])C([H])([H])C([H])([H])Oc3c([H])c([H])c(N([H])C(=O)N4C([H])([H])C([H])([H])C([H])([H])C([H])(n5nc(-c6c([H])c([H])c(Oc7c([H])c([H])c(F)c([H])c7F)c([H])c6[H])c(C(=O)N([H])[H])c5N([H])[H])C4([H])[H])c(F)c3[H])c([H])c([H])c2C1([H])[H]

$$$$
29:0:0
     RDKit          3D

 99107  0  0  1  0  0  0  0  0999 V2000
  -31.5050  -24.6950   24.0090 C   0  0  0  0  0  2  0  0  0  0  0  0
  -30.4510  -25.4460   23.1740 C   0  0  0  0  0  2  0  0  0  0  0  0
  -31.0570  -26.4190   22.1400 C   0  0  0  0  0  2  0  0  0  0  0  0
  -29.3170  -26.5920   20.3760 C   0  0  0  0  0  0  0  0  0  0  0  0
  -30.5190  -26.1780   20.8010 N   0  0  0  0  0  0  0  0  0  0  0  0
  -28.5690  -27.2600   21.0930 O   0  0  0  0  0  0  0  0  0  0  0  0
  -31.1020  -25.6660   20.1510 H   0  0  0  0  0  0  0  0  0  0  0  0
  -28.8990  -26.2260   18.9470 C   0  0  0  0  0  2  0  0  0  0  0  0
  -27.4370  -25.7330   18.8370 C   0  0  0  0  0  2  0  0  0  0  0  0
  -26.7350  -26.4050   17.7940 O   0  0  0  0  0  0  0  0  0  0  0  0
  -24.2630  -31.0360   22.6250 C   0  0  0  0  0  0  0  0  0  0  0  0
  -25.7200  -27.2220   18.2240 C   0  0  0  0  0  0  0  0  0  0  0  0
  -22.6240  -30.2190   20.9610 C   0  0  0  0  0  3  0  0  0  0  0  0
  -23.5980  -28.9070   19.0040 C   0  0  0  0  0  0  0  0  0  0  0  0
  -25.1150  -30.3260   20.4000 C   0  0  0  0  0  2  0  0  0  0  0  0
  -24.8950  -29.1480   19.4770 C   0  0  0  0  0  0  0  0  0  0  0  0
  -25.9590  -28.3060   19.0940 C   0  0  0  0  0  3  0  0  0  0  0  0
  -24.4130  -26.9850   17.7540 C   0  0  0  0  0  3  0  0  0  0  0  0
  -23.3490  -27.8200   18.1460 C   0  0  0  0  0  3  0  0  0  0  0  0
  -22.5190  -29.8680   19.4530 C   0  0  0  0  0  2  0  0  0  0  0  0
  -24.0280  -30.5290   21.3830 N   0  0  0  0  0  0  0  0  0  0  0  0
  -23.3310  -31.2940   23.3980 O   0  0  0  0  0  0  0  0  0  0  0  0
  -21.9740  -29.0800   21.7780 C   0  0  0  0  0  0  0  0  0  0  0  0
  -20.6310  -29.0690   21.8220 N   0  0  0  0  0  0  0  0  0  0  0  0
  -22.6670  -28.2210   22.3280 O   0  0  0  0  0  0  0  0  0  0  0  0
  -20.1390  -29.8190   21.3570 H   0  0  0  0  0  0  0  0  0  0  0  0
  -17.2170  -28.1200   22.5350 C   0  0  0  0  0  0  0  0  0  0  0  0
  -19.8000  -28.0710   22.4970 C   0  0  0  0  0  3  0  0  0  0  0  0
  -19.6610  -26.7920   21.6410 C   0  0  0  0  0  2  0  0  0  0  0  0
  -18.4190  -26.7960   20.7420 C   0  0  0  0  0  2  0  0  0  0  0  0
  -17.1490  -26.9320   21.5870 C   0  0  0  0  0  2  0  0  0  0  0  0
  -18.4620  -28.6630   22.9490 C   0  0  0  0  0  0  0  0  0  0  0  0
  -18.4700  -29.7880   23.8010 C   0  0  0  0  0  3  0  0  0  0  0  0
  -17.2650  -30.3690   24.2360 C   0  0  0  0  0  3  0  0  0  0  0  0
  -16.0350  -29.8180   23.8370 C   0  0  0  0  0  3  0  0  0  0  0  0
  -16.0130  -28.6930   22.9930 C   0  0  0  0  0  3  0  0  0  0  0  0
  -25.7100  -31.3430   23.1280 C   0  0  0  0  0  3  0  0  0  0  0  0
  -26.2550  -30.2710   24.1510 C   0  0  1  0  0  0  0  0  0  0  0  0
  -25.2870  -29.9790   25.3190 C   0  0  0  0  0  1  0  0  0  0  0  0
  -26.5480  -28.9310   23.4350 C   0  0  0  0  0  1  0  0  0  0  0  0
  -27.5970  -30.7560   24.7500 C   0  0  0  0  0  1  0  0  0  0  0  0
  -25.6920  -32.6810   23.7310 N   0  0  0  0  0  0  0  0  0  0  0  0
  -26.1930  -33.7820   23.1550 C   0  0  0  0  0  0  0  0  0  0  0  0
  -26.7910  -33.7600   22.0750 O   0  0  0  0  0  0  0  0  0  0  0  0
  -25.1700  -32.7840   24.5890 H   0  0  0  0  0  0  0  0  0  0  0  0
  -24.9070  -35.9390   23.1990 C   0  0  0  0  0  1  0  0  0  0  0  0
  -26.0030  -35.1200   23.8960 C   0  0  0  0  0  3  0  0  0  0  0  0
  -28.2400  -35.3410   24.8860 C   0  0  0  0  0  1  0  0  0  0  0  0
  -27.2420  -35.9220   23.9890 N   0  0  0  0  0  0  0  0  0  0  0  0
  -27.0390  -36.8670   24.3060 H   0  0  0  0  0  0  0  0  0  0  0  0
  -31.1420  -23.2170   24.2670 C   0  0  0  0  0  2  0  0  0  0  0  0
  -31.5580  -22.3200   23.0900 C   0  0  0  0  0  2  0  0  0  0  0  0
  -31.3400  -20.8140   23.3090 C   0  0  0  0  0  2  0  0  0  0  0  0
  -31.7360  -20.1940   22.0920 O   0  0  0  0  0  0  0  0  0  0  0  0
  -30.5140  -16.6680   22.4000 C   0  0  0  0  0  3  0  0  0  0  0  0
  -30.8760  -17.9770   22.7850 C   0  0  0  0  0  3  0  0  0  0  0  0
  -31.2200  -17.1350   20.1200 C   0  0  0  0  0  3  0  0  0  0  0  0
  -30.6910  -16.2270   21.0690 C   0  0  0  0  0  0  0  0  0  0  0  0
  -31.3970  -18.8830   21.8300 C   0  0  0  0  0  0  0  0  0  0  0  0
  -31.5660  -18.4450   20.5000 C   0  0  0  0  0  0  0  0  0  0  0  0
  -32.0640  -19.2970   19.5690 F   0  0  0  0  0  0  0  0  0  0  0  0
  -30.7510  -14.0330   19.8350 C   0  0  0  0  0  0  0  0  0  0  0  0
  -30.4070  -11.8080   18.8080 C   0  0  0  0  0  2  0  0  0  0  0  0
  -29.3610  -11.8750   17.6800 C   0  0  0  0  0  2  0  0  0  0  0  0
  -27.9350  -11.7250   18.2420 C   0  0  0  0  0  2  0  0  0  0  0  0
  -27.6690  -12.6650   19.4470 C   0  0  0  0  0  3  0  0  0  0  0  0
  -28.8100  -12.5540   20.4810 C   0  0  0  0  0  2  0  0  0  0  0  0
  -30.0850  -12.8490   19.7980 N   0  0  0  0  0  0  0  0  0  0  0  0
  -31.7130  -14.2800   19.1010 O   0  0  0  0  0  0  0  0  0  0  0  0
  -30.2880  -14.8960   20.7580 N   0  0  0  0  0  0  0  0  0  0  0  0
  -29.5450  -14.5190   21.3270 H   0  0  0  0  0  0  0  0  0  0  0  0
  -25.3590  -13.2930   20.3980 C   0  0  0  0  0  0  0  0  0  0  0  0
  -24.3240  -12.5280   20.8640 C   0  0  0  0  0  0  0  0  0  0  0  0
  -24.7620  -11.1710   20.7680 C   0  0  0  0  0  0  0  0  0  0  0  0
  -26.3640  -12.4030   20.0520 N   0  0  0  0  0  0  0  0  0  0  0  0
  -26.0130  -11.1210   20.3270 N   0  0  0  0  0  0  0  0  0  0  0  0
  -24.0440   -9.9140   21.0160 C   0  0  0  0  0  0  0  0  0  0  0  0
  -24.4180   -9.0450   22.0650 C   0  0  0  0  0  3  0  0  0  0  0  0
  -23.7000   -7.8510   22.2940 C   0  0  0  0  0  3  0  0  0  0  0  0
  -22.5960   -7.5180   21.4740 C   0  0  0  0  0  0  0  0  0  0  0  0
  -22.2450   -8.3760   20.4170 C   0  0  0  0  0  3  0  0  0  0  0  0
  -22.9620   -9.5620   20.1870 C   0  0  0  0  0  3  0  0  0  0  0  0
  -21.8590   -6.3660   21.6040 O   0  0  0  0  0  0  0  0  0  0  0  0
  -21.5660   -5.8360   22.8360 C   0  0  0  0  0  0  0  0  0  0  0  0
  -20.8120   -6.5490   23.7920 C   0  0  0  0  0  3  0  0  0  0  0  0
  -20.4730   -5.9410   25.0170 C   0  0  0  0  0  3  0  0  0  0  0  0
  -20.8790   -4.6190   25.2840 C   0  0  0  0  0  0  0  0  0  0  0  0
  -21.6250   -3.9050   24.3290 C   0  0  0  0  0  3  0  0  0  0  0  0
  -21.9640   -4.5120   23.1070 C   0  0  0  0  0  0  0  0  0  0  0  0
  -22.6660   -3.8130   22.1820 F   0  0  0  0  0  0  0  0  0  0  0  0
  -20.5470   -4.0290   26.4570 F   0  0  0  0  0  0  0  0  0  0  0  0
  -22.9690  -13.0170   21.2860 C   0  0  0  0  0  0  0  0  0  0  0  0
  -22.3440  -12.3400   22.2430 N   0  0  0  0  0  0  0  0  0  0  0  0
  -22.4760  -14.0340   20.8010 O   0  0  0  0  0  0  0  0  0  0  0  0
  -22.7580  -11.5160   22.6560 H   0  0  0  0  0  0  0  0  0  0  0  0
  -21.4390  -12.6500   22.5690 H   0  0  0  0  0  0  0  0  0  0  0  0
  -25.5230  -14.6640   20.2240 N   0  0  0  0  0  0  0  0  0  0  0  0
  -24.7810  -15.3280   20.4200 H   0  0  0  0  0  0  0  0  0  0  0  0
  -26.3510  -15.0990   19.8350 H   0  0  0  0  0  0  0  0  0  0  0  0
  1 51  1  0
  2  1  1  0
  3  2  1  0
  4  5  1  0
  4  6  2  0
  5  3  1  0
  7  5  1  0
  8  4  1  0
  9  8  1  0
 10 12  1  0
 10  9  1  0
 11 22  2  0
 12 17  1  0
 13 21  1  0
 13 23  1  0
 14 20  1  0
 14 16  1  0
 15 21  1  0
 16 15  1  0
 17 16  2  0
 18 19  1  0
 18 12  2  0
 19 14  2  0
 20 13  1  0
 21 11  1  0
 23 24  1  0
 23 25  2  0
 26 24  1  0
 27 32  2  0
 27 36  1  0
 28 24  1  0
 28 32  1  0
 29 28  1  0
 30 31  1  0
 30 29  1  0
 31 27  1  0
 32 33  1  0
 33 34  2  0
 35 34  1  0
 36 35  2  0
 37 11  1  0
 37 42  1  0
 37 38  1  0
 38 41  1  1
 38 39  1  0
 40 38  1  0
 42 45  1  0
 43 42  1  0
 43 47  1  0
 44 43  2  0
 47 46  1  0
 47 49  1  0
 49 50  1  0
 49 48  1  0
 52 53  1  0
 52 51  1  0
 54 53  1  0
 55 56  1  0
 57 60  2  0
 57 58  1  0
 58 55  2  0
 59 54  1  0
 59 56  2  0
 60 59  1  0
 61 60  1  0
 62 70  1  0
 63 68  1  0
 64 65  1  0
 64 63  1  0
 66 65  1  0
 66 75  1  0
 66 67  1  0
 68 62  1  0
 68 67  1  0
 69 62  2  0
 70 58  1  0
 70 71  1  0
 72 73  2  0
 73 92  1  0
 74 73  1  0
 74 77  1  0
 75 76  1  0
 75 72  1  0
 76 74  2  0
 77 78  1  0
 78 79  2  0
 80 83  1  0
 80 79  1  0
 81 80  2  0
 82 81  1  0
 82 77  2  0
 83 84  1  0
 84 89  2  0
 84 85  1  0
 85 86  2  0
 86 87  1  0
 87 91  1  0
 88 87  2  0
 89 88  1  0
 90 89  1  0
 92 93  1  0
 93 96  1  0
 93 95  1  0
 94 92  2  0
 97 72  1  0
 97 98  1  0
 99 97  1  0
M  ISO  4   9 101  10 101  62 100  70 100
M  END
>  <TORSDO>  (30) 
F 26

>  <SCORE>  (30) 
-0.729

>  <name>  (30) 
29

>  <ligand_id>  (30) 
29

>  <original_smiles>  (30) 
[H]c1c([H])c([H])c2c(c1[H])C([H])([H])C([H])([H])C([H])([H])C2([H])N([H])C(=O)C1([H])N(C(=O)C([H])(N([H])C(=O)C([H])(N([H])C([H])([H])[H])C([H])([H])[H])C(C([H])([H])[H])(C([H])([H])[H])C([H])([H])[H])C([H])([H])c2c([H])c(OC([H])([H])C([H])([H])C(=O)N([H])C([H])([H])C([H])([H])C([H])([H])C([H])([H])C([H])([H])C([H])([H])Oc3c([H])c([H])c(N([H])C(=O)N4C([H])([H])C([H])([H])C([H])([H])C([H])(n5nc(-c6c([H])c([H])c(Oc7c([H])c([H])c(F)c([H])c7F)c([H])c6[H])c(C(=O)N([H])[H])c5N([H])[H])C4([H])[H])c([H])c3F)c([H])c([H])c2C1([H])[H]

>  <smiles>  (30) 
[H]c1c([H])c([H])c2c(c1[H])C([H])([H])C([H])([H])C([H])([H])C2([H])N([H])C(=O)C1([H])N(C(=O)C([H])(N([H])C(=O)C([H])(N([H])C([H])([H])[H])C([H])([H])[H])C(C([H])([H])[H])(C([H])([H])[H])C([H])([H])[H])C([H])([H])c2c([H])c(OC([H])([H])C([H])([H])C(=O)N([H])C([H])([H])C([H])([H])C([H])([H])C([H])([H])C([H])([H])C([H])([H])Oc3c([H])c([H])c(N([H])C(=O)N4C([H])([H])C([H])([H])C([H])([H])C([H])(n5nc(-c6c([H])c([H])c(Oc7c([H])c([H])c(F)c([H])c7F)c([H])c6[H])c(C(=O)N([H])[H])c5N([H])[H])C4([H])[H])c([H])c3F)c([H])c([H])c2C1([H])[H]

$$$$
30:0:0
     RDKit          3D

 90 98  0  0  1  0  0  0  0  0999 V2000
  -27.2940  -18.2290   19.4850 C   0  0  0  0  0  3  0  0  0  0  0  0
  -27.7120  -19.0100   20.5750 C   0  0  0  0  0  3  0  0  0  0  0  0
  -29.5700  -17.3910   19.2160 C   0  0  0  0  0  3  0  0  0  0  0  0
  -28.2450  -17.5100   18.7380 C   0  0  0  0  0  0  0  0  0  0  0  0
  -29.8680  -17.8190   20.5340 C   0  0  0  0  0  3  0  0  0  0  0  0
  -29.0880  -19.0800   20.8830 C   0  0  0  0  0  3  0  0  0  0  0  0
  -27.8050  -16.7900   17.4790 C   0  0  0  0  0  1  0  0  0  0  0  0
  -30.7610  -15.2890   21.0790 C   0  0  0  0  0  0  0  0  0  0  0  0
  -30.7910  -12.9180   20.1710 C   0  0  0  0  0  2  0  0  0  0  0  0
  -29.9870  -12.8510   18.8480 C   0  0  0  0  0  2  0  0  0  0  0  0
  -28.4880  -12.6350   19.1200 C   0  0  0  0  0  2  0  0  0  0  0  0
  -27.9600  -13.5380   20.2650 C   0  0  0  0  0  3  0  0  0  0  0  0
  -28.8960  -13.5520   21.4900 C   0  0  0  0  0  2  0  0  0  0  0  0
  -30.2110  -14.0040   21.0190 N   0  0  0  0  0  0  0  0  0  0  0  0
  -31.9700  -15.3720   20.8340 O   0  0  0  0  0  0  0  0  0  0  0  0
  -29.9680  -16.4700   21.2880 N   0  0  0  0  0  0  0  0  0  0  0  0
  -29.1180  -16.2580   21.7880 H   0  0  0  0  0  0  0  0  0  0  0  0
  -25.5070  -14.0770   20.7490 C   0  0  0  0  0  0  0  0  0  0  0  0
  -24.4240  -13.2870   21.0220 C   0  0  0  0  0  0  0  0  0  0  0  0
  -24.9120  -11.9450   21.0550 C   0  0  0  0  0  0  0  0  0  0  0  0
  -26.5830  -13.2170   20.6270 N   0  0  0  0  0  0  0  0  0  0  0  0
  -26.2290  -11.9280   20.8770 N   0  0  0  0  0  0  0  0  0  0  0  0
  -24.1890  -10.6720   21.1890 C   0  0  0  0  0  0  0  0  0  0  0  0
  -24.5540   -9.7130   22.1590 C   0  0  0  0  0  3  0  0  0  0  0  0
  -23.8300   -8.5070   22.2810 C   0  0  0  0  0  3  0  0  0  0  0  0
  -22.7280   -8.2520   21.4330 C   0  0  0  0  0  0  0  0  0  0  0  0
  -22.3840   -9.1980   20.4510 C   0  0  0  0  0  3  0  0  0  0  0  0
  -23.1080  -10.3950   20.3280 C   0  0  0  0  0  3  0  0  0  0  0  0
  -21.9820   -7.0960   21.4630 O   0  0  0  0  0  0  0  0  0  0  0  0
  -21.8470   -6.3560   22.6090 C   0  0  0  0  0  0  0  0  0  0  0  0
  -21.2920   -6.9010   23.7880 C   0  0  0  0  0  3  0  0  0  0  0  0
  -21.1080   -6.0840   24.9220 C   0  0  0  0  0  3  0  0  0  0  0  0
  -21.4680   -4.7230   24.8770 C   0  0  0  0  0  0  0  0  0  0  0  0
  -22.0160   -4.1790   23.7010 C   0  0  0  0  0  3  0  0  0  0  0  0
  -22.2010   -4.9930   22.5710 C   0  0  0  0  0  0  0  0  0  0  0  0
  -22.7090   -4.4570   21.4350 F   0  0  0  0  0  0  0  0  0  0  0  0
  -21.2840   -3.9370   25.9640 F   0  0  0  0  0  0  0  0  0  0  0  0
  -22.9990  -13.7430   21.1440 C   0  0  0  0  0  0  0  0  0  0  0  0
  -22.2030  -13.0550   21.9550 N   0  0  0  0  0  0  0  0  0  0  0  0
  -22.5970  -14.7440   20.5530 O   0  0  0  0  0  0  0  0  0  0  0  0
  -22.5370  -12.2460   22.4580 H   0  0  0  0  0  0  0  0  0  0  0  0
  -21.2420  -13.3430   22.0740 H   0  0  0  0  0  0  0  0  0  0  0  0
  -25.6630  -15.4480   20.5710 N   0  0  0  0  0  0  0  0  0  0  0  0
  -24.8750  -16.0830   20.6130 H   0  0  0  0  0  0  0  0  0  0  0  0
  -26.5210  -15.9030   20.2950 H   0  0  0  0  0  0  0  0  0  0  0  0
  -29.5460  -20.4810   21.0250 O   0  0  0  0  0  0  0  0  0  0  0  0
  -28.6540  -21.7740   20.8510 C   0  0  0  0  0  2  0  0  0  0  0  0
  -29.1090  -23.4260   20.7480 C   0  0  0  0  0  3  0  0  0  0  0  0
  -28.0800  -24.7800   20.5400 C   0  0  0  0  0  3  0  0  0  0  0  0
  -28.3880  -26.3290   20.5020 O   0  0  0  0  0  0  0  0  0  0  0  0
  -24.7070  -32.0690   23.4180 C   0  0  0  0  0  0  0  0  0  0  0  0
  -27.3420  -27.3380   20.4250 C   0  0  0  0  0  0  0  0  0  0  0  0
  -23.5410  -30.6720   21.7600 C   0  0  0  0  0  3  0  0  0  0  0  0
  -25.0150  -29.1060   20.3560 C   0  0  0  0  0  0  0  0  0  0  0  0
  -26.0990  -30.9390   21.6400 C   0  0  0  0  0  2  0  0  0  0  0  0
  -26.1870  -29.5450   20.9850 C   0  0  0  0  0  0  0  0  0  0  0  0
  -27.3500  -28.6790   21.0010 C   0  0  0  0  0  3  0  0  0  0  0  0
  -26.1430  -27.0140   19.7520 C   0  0  0  0  0  3  0  0  0  0  0  0
  -25.0090  -27.8550   19.7240 C   0  0  0  0  0  3  0  0  0  0  0  0
  -23.7850  -30.0000   20.3840 C   0  0  0  0  0  2  0  0  0  0  0  0
  -24.8020  -31.2500   22.3270 N   0  0  0  0  0  0  0  0  0  0  0  0
  -23.6100  -32.3480   23.9300 O   0  0  0  0  0  0  0  0  0  0  0  0
  -22.8480  -29.6630   22.7110 C   0  0  0  0  0  0  0  0  0  0  0  0
  -21.5410  -29.4210   22.5040 N   0  0  0  0  0  0  0  0  0  0  0  0
  -23.4910  -29.0980   23.5980 O   0  0  0  0  0  0  0  0  0  0  0  0
  -21.0770  -29.9230   21.7600 H   0  0  0  0  0  0  0  0  0  0  0  0
  -18.2160  -28.0090   22.7920 C   0  0  0  0  0  0  0  0  0  0  0  0
  -20.7180  -28.4660   23.2520 C   0  0  0  0  0  3  0  0  0  0  0  0
  -20.9650  -27.0190   22.7680 C   0  0  0  0  0  2  0  0  0  0  0  0
  -19.9770  -26.5670   21.6870 C   0  0  0  0  0  2  0  0  0  0  0  0
  -18.5390  -26.6430   22.2090 C   0  0  0  0  0  2  0  0  0  0  0  0
  -19.2390  -28.8690   23.2700 C   0  0  0  0  0  0  0  0  0  0  0  0
  -18.8860  -30.1380   23.7770 C   0  0  0  0  0  3  0  0  0  0  0  0
  -17.5410  -30.5490   23.8100 C   0  0  0  0  0  3  0  0  0  0  0  0
  -16.5310  -29.6890   23.3460 C   0  0  0  0  0  3  0  0  0  0  0  0
  -16.8690  -28.4200   22.8460 C   0  0  0  0  0  3  0  0  0  0  0  0
  -25.9710  -32.7110   24.0670 C   0  0  0  0  0  3  0  0  0  0  0  0
  -26.4540  -31.9500   25.3630 C   0  0  1  0  0  0  0  0  0  0  0  0
  -25.3280  -31.6870   26.3900 C   0  0  0  0  0  1  0  0  0  0  0  0
  -27.0860  -30.5870   25.0030 C   0  0  0  0  0  1  0  0  0  0  0  0
  -27.5610  -32.7710   26.0680 C   0  0  0  0  0  1  0  0  0  0  0  0
  -25.6500  -34.1110   24.3870 N   0  0  0  0  0  0  0  0  0  0  0  0
  -26.0060  -35.1660   23.6420 C   0  0  0  0  0  0  0  0  0  0  0  0
  -26.7040  -35.0620   22.6300 O   0  0  0  0  0  0  0  0  0  0  0  0
  -25.0300  -34.2650   25.1690 H   0  0  0  0  0  0  0  0  0  0  0  0
  -24.3010  -36.9720   23.2340 C   0  0  0  0  0  1  0  0  0  0  0  0
  -25.5110  -36.5570   24.0880 C   0  0  0  0  0  3  0  0  0  0  0  0
  -27.6170  -37.4300   25.0020 C   0  0  0  0  0  1  0  0  0  0  0  0
  -26.5530  -37.6050   24.0160 N   0  0  0  0  0  0  0  0  0  0  0  0
  -26.1490  -38.5280   24.1460 H   0  0  0  0  0  0  0  0  0  0  0  0
  1  2  2  0
  2  6  1  0
  3  5  1  0
  4  3  2  0
  4  1  1  0
  5  6  1  0
  5 16  1  0
  6 46  1  0
  7  4  1  0
  8 16  1  0
  9 14  1  0
 10 11  1  0
 10  9  1  0
 12 11  1  0
 12 21  1  0
 12 13  1  0
 14  8  1  0
 14 13  1  0
 15  8  2  0
 16 17  1  0
 18 19  2  0
 19 20  1  0
 19 38  1  0
 20 23  1  0
 21 18  1  0
 21 22  1  0
 22 20  2  0
 23 24  1  0
 24 25  2  0
 26 29  1  0
 26 25  1  0
 27 26  2  0
 28 27  1  0
 28 23  2  0
 29 30  1  0
 30 31  1  0
 31 32  2  0
 33 32  1  0
 33 37  1  0
 34 33  2  0
 35 30  2  0
 35 34  1  0
 36 35  1  0
 38 39  1  0
 39 42  1  0
 39 41  1  0
 40 38  2  0
 43 44  1  0
 43 18  1  0
 45 43  1  0
 47 46  1  0
 48 47  1  0
 49 48  2  0
 50 49  1  0
 51 62  2  0
 52 50  1  0
 52 57  1  0
 53 61  1  0
 53 63  1  0
 54 60  1  0
 54 56  1  0
 55 61  1  0
 56 57  2  0
 56 55  1  0
 58 52  2  0
 59 58  1  0
 59 54  2  0
 60 53  1  0
 61 51  1  0
 63 65  2  0
 64 63  1  0
 66 64  1  0
 67 76  2  0
 67 72  1  0
 68 64  1  0
 68 72  1  0
 69 68  1  0
 70 71  1  0
 70 69  1  0
 71 67  1  0
 72 73  2  0
 73 74  1  0
 75 74  2  0
 76 75  1  0
 77 51  1  0
 77 82  1  0
 77 78  1  0
 78 81  1  1
 78 79  1  0
 80 78  1  0
 82 85  1  0
 83 87  1  0
 83 82  1  0
 84 83  2  0
 87 86  1  0
 89 87  1  0
 89 90  1  0
 89 88  1  0
M  ISO  4   8 100  16 100  49 101  50 101
M  END
>  <TORSDO>  (31) 
F 20

>  <SCORE>  (31) 
-12.125

>  <name>  (31) 
30

>  <ligand_id>  (31) 
30

>  <original_smiles>  (31) 
[H]c1c([H])c([H])c2c(c1[H])C([H])([H])C([H])([H])C([H])([H])C2([H])N([H])C(=O)C1([H])N(C(=O)C([H])(N([H])C(=O)C([H])(N([H])C([H])([H])[H])C([H])([H])[H])C(C([H])([H])[H])(C([H])([H])[H])C([H])([H])[H])C([H])([H])c2c([H])c(OC([H])([H])C([H])([H])C([H])([H])Oc3c([H])c([H])c(C([H])([H])[H])c([H])c3N([H])C(=O)N3C([H])([H])C([H])([H])C([H])([H])C([H])(n4nc(-c5c([H])c([H])c(Oc6c([H])c([H])c(F)c([H])c6F)c([H])c5[H])c(C(=O)N([H])[H])c4N([H])[H])C3([H])[H])c([H])c([H])c2C1([H])[H]

>  <smiles>  (31) 
[H]c1c([H])c([H])c2c(c1[H])C([H])([H])C([H])([H])C([H])([H])C2([H])N([H])C(=O)C1([H])N(C(=O)C([H])(N([H])C(=O)C([H])(N([H])C([H])([H])[H])C([H])([H])[H])C(C([H])([H])[H])(C([H])([H])[H])C([H])([H])[H])C([H])([H])c2c([H])c(OC([H])([H])C([H])([H])C([H])([H])Oc3c([H])c([H])c(C([H])([H])[H])c([H])c3N([H])C(=O)N3C([H])([H])C([H])([H])C([H])([H])C([H])(n4nc(-c5c([H])c([H])c(Oc6c([H])c([H])c(F)c([H])c6F)c([H])c5[H])c(C(=O)N([H])[H])c4N([H])[H])C3([H])[H])c([H])c([H])c2C1([H])[H]

$$$$
31:0:0
     RDKit          3D

105113  0  0  1  0  0  0  0  0999 V2000
  -30.6610  -20.1570   24.8540 C   0  0  0  0  0  3  0  0  0  0  0  0
  -31.7600  -19.9240   24.0030 C   0  0  0  0  0  3  0  0  0  0  0  0
  -29.6550  -21.0700   24.4800 C   0  0  0  0  0  3  0  0  0  0  0  0
  -30.8530  -21.5430   22.4220 C   0  0  0  0  0  3  0  0  0  0  0  0
  -31.8680  -20.6320   22.7850 C   0  0  0  0  0  0  0  0  0  0  0  0
  -29.7310  -21.7560   23.2530 C   0  0  0  0  0  0  0  0  0  0  0  0
  -33.4510  -21.4740   21.1640 C   0  0  0  0  0  0  0  0  0  0  0  0
  -32.9630  -20.4250   21.8900 N   0  0  0  0  0  0  0  0  0  0  0  0
  -33.1580  -22.6470   21.4330 O   0  0  0  0  0  0  0  0  0  0  0  0
  -33.5040  -19.0530   21.8100 C   0  0  0  0  0  2  0  0  0  0  0  0
  -32.4560  -17.9860   21.3970 C   0  0  0  0  0  2  0  0  0  0  0  0
  -31.8690  -18.1510   19.9790 C   0  0  0  0  0  2  0  0  0  0  0  0
  -32.0890  -16.9560   19.0330 C   0  0  0  0  0  2  0  0  0  0  0  0
  -31.2020  -14.7100   18.4890 C   0  0  0  0  0  0  0  0  0  0  0  0
  -31.5030  -12.3790   19.1980 C   0  0  0  0  0  2  0  0  0  0  0  0
  -30.6780  -11.3350   18.4350 C   0  0  0  0  0  2  0  0  0  0  0  0
  -29.3000  -11.1730   19.0900 C   0  0  0  0  0  2  0  0  0  0  0  0
  -28.5800  -12.5310   19.2840 C   0  0  0  0  0  3  0  0  0  0  0  0
  -29.5020  -13.5780   19.9560 C   0  0  0  0  0  2  0  0  0  0  0  0
  -30.7750  -13.6550   19.2200 N   0  0  0  0  0  0  0  0  0  0  0  0
  -31.9270  -14.6020   17.4940 O   0  0  0  0  0  0  0  0  0  0  0  0
  -31.0920  -15.8810   19.1390 N   0  0  0  0  0  0  0  0  0  0  0  0
  -30.5360  -15.8620   19.9820 H   0  0  0  0  0  0  0  0  0  0  0  0
  -26.4750  -13.3170   20.5460 C   0  0  0  0  0  0  0  0  0  0  0  0
  -25.4070  -12.6340   21.0610 C   0  0  0  0  0  0  0  0  0  0  0  0
  -25.6600  -11.2510   20.8000 C   0  0  0  0  0  0  0  0  0  0  0  0
  -27.3240  -12.3580   20.0160 N   0  0  0  0  0  0  0  0  0  0  0  0
  -26.8440  -11.1040   20.2180 N   0  0  0  0  0  0  0  0  0  0  0  0
  -24.8170  -10.0670   21.0190 C   0  0  0  0  0  0  0  0  0  0  0  0
  -24.9430   -9.2780   22.1830 C   0  0  0  0  0  3  0  0  0  0  0  0
  -24.1080   -8.1570   22.3830 C   0  0  0  0  0  3  0  0  0  0  0  0
  -23.1350   -7.8140   21.4150 C   0  0  0  0  0  0  0  0  0  0  0  0
  -23.0280   -8.5910   20.2470 C   0  0  0  0  0  3  0  0  0  0  0  0
  -23.8630   -9.7040   20.0470 C   0  0  0  0  0  3  0  0  0  0  0  0
  -22.3000   -6.7270   21.5100 O   0  0  0  0  0  0  0  0  0  0  0  0
  -21.5210   -6.5130   22.6190 C   0  0  0  0  0  0  0  0  0  0  0  0
  -20.5620   -7.4570   23.0470 C   0  0  0  0  0  3  0  0  0  0  0  0
  -19.7340   -7.1670   24.1500 C   0  0  0  0  0  3  0  0  0  0  0  0
  -19.8550   -5.9350   24.8200 C   0  0  0  0  0  0  0  0  0  0  0  0
  -20.8060   -4.9930   24.3900 C   0  0  0  0  0  3  0  0  0  0  0  0
  -21.6340   -5.2800   23.2900 C   0  0  0  0  0  0  0  0  0  0  0  0
  -22.5340   -4.3590   22.8680 F   0  0  0  0  0  0  0  0  0  0  0  0
  -19.0560   -5.6540   25.8750 F   0  0  0  0  0  0  0  0  0  0  0  0
  -24.1740  -13.2300   21.6750 C   0  0  0  0  0  0  0  0  0  0  0  0
  -23.5860  -12.5540   22.6560 N   0  0  0  0  0  0  0  0  0  0  0  0
  -23.7520  -14.3300   21.3190 O   0  0  0  0  0  0  0  0  0  0  0  0
  -23.9440  -11.6610   22.9630 H   0  0  0  0  0  0  0  0  0  0  0  0
  -22.7700  -12.9380   23.1100 H   0  0  0  0  0  0  0  0  0  0  0  0
  -26.7880  -14.6700   20.4680 N   0  0  0  0  0  0  0  0  0  0  0  0
  -26.1610  -15.3990   20.7890 H   0  0  0  0  0  0  0  0  0  0  0  0
  -27.6240  -15.0330   20.0310 H   0  0  0  0  0  0  0  0  0  0  0  0
  -34.4030  -21.2370   19.9740 C   0  0  0  0  0  2  0  0  0  0  0  0
  -33.6000  -22.6290   17.9460 C   0  0  0  0  0  1  0  0  0  0  0  0
  -34.6330  -22.4780   19.0760 C   0  0  0  0  0  2  0  0  0  0  0  0
  -28.7000  -22.6040   22.9170 O   0  0  0  0  0  0  0  0  0  0  0  0
  -28.2390  -22.5520   21.5670 C   0  0  0  0  0  2  0  0  0  0  0  0
  -27.0620  -23.5190   21.4370 C   0  0  0  0  0  2  0  0  0  0  0  0
  -27.1230  -24.2640   20.1630 N   0  0  0  0  0  4  0  0  0  0  0  0
  -27.5580  -25.1600   20.3310 H   0  0  0  0  0  0  0  0  0  0  0  0
  -27.7100  -23.7550   19.5190 H   0  0  0  0  0  0  0  0  0  0  0  0
  -25.8060  -24.4790   19.5340 C   0  0  0  0  0  2  0  0  0  0  0  0
  -25.9020  -24.4020   17.9990 C   0  0  0  0  0  2  0  0  0  0  0  0
  -24.5840  -24.7330   17.2790 C   0  0  0  0  0  2  0  0  0  0  0  0
  -23.8160  -25.8990   17.9050 C   0  0  0  0  0  2  0  0  0  0  0  0
  -24.6870  -26.6760   18.7280 O   0  0  0  0  0  0  0  0  0  0  0  0
  -24.9680  -30.5750   24.6840 C   0  0  0  0  0  0  0  0  0  0  0  0
  -24.0940  -27.6530   19.4960 C   0  0  0  0  0  0  0  0  0  0  0  0
  -22.8980  -30.7930   23.3490 C   0  0  0  0  0  3  0  0  0  0  0  0
  -22.9610  -29.7330   21.0360 C   0  0  0  0  0  0  0  0  0  0  0  0
  -25.1120  -30.1550   22.2340 C   0  0  0  0  0  2  0  0  0  0  0  0
  -24.3050  -29.3800   21.2160 C   0  0  0  0  0  0  0  0  0  0  0  0
  -24.8740  -28.3390   20.4510 C   0  0  0  0  0  3  0  0  0  0  0  0
  -22.7290  -28.0050   19.3500 C   0  0  0  0  0  3  0  0  0  0  0  0
  -22.1660  -29.0400   20.1120 C   0  0  0  0  0  3  0  0  0  0  0  0
  -22.4280  -30.8710   21.8750 C   0  0  0  0  0  2  0  0  0  0  0  0
  -24.3610  -30.4850   23.4680 N   0  0  0  0  0  0  0  0  0  0  0  0
  -24.3420  -30.9500   25.6850 O   0  0  0  0  0  0  0  0  0  0  0  0
  -21.9960  -29.7880   24.0990 C   0  0  0  0  0  0  0  0  0  0  0  0
  -20.6930  -29.8010   23.7790 N   0  0  0  0  0  0  0  0  0  0  0  0
  -22.4720  -29.0050   24.9240 O   0  0  0  0  0  0  0  0  0  0  0  0
  -20.3820  -30.4800   23.1000 H   0  0  0  0  0  0  0  0  0  0  0  0
  -17.3800  -28.4790   23.2000 C   0  0  0  0  0  0  0  0  0  0  0  0
  -19.6620  -28.9230   24.3280 C   0  0  0  0  0  3  0  0  0  0  0  0
  -19.9770  -27.4380   24.0370 C   0  0  0  0  0  2  0  0  0  0  0  0
  -19.3210  -26.9220   22.7530 C   0  0  0  0  0  2  0  0  0  0  0  0
  -17.7990  -27.0680   22.8310 C   0  0  0  0  0  2  0  0  0  0  0  0
  -18.2590  -29.3570   23.8880 C   0  0  0  0  0  0  0  0  0  0  0  0
  -17.8300  -30.6700   24.1740 C   0  0  0  0  0  3  0  0  0  0  0  0
  -16.5490  -31.1090   23.7910 C   0  0  0  0  0  3  0  0  0  0  0  0
  -15.6770  -30.2320   23.1220 C   0  0  0  0  0  3  0  0  0  0  0  0
  -16.0920  -28.9200   22.8330 C   0  0  0  0  0  3  0  0  0  0  0  0
  -26.4810  -30.2390   24.8710 C   0  0  0  0  0  3  0  0  0  0  0  0
  -27.1230  -31.4160   25.4720 N   0  0  0  0  0  0  0  0  0  0  0  0
  -27.8830  -32.2930   24.8020 C   0  0  0  0  0  0  0  0  0  0  0  0
  -28.1790  -32.1550   23.6120 O   0  0  0  0  0  0  0  0  0  0  0  0
  -26.8850  -31.6220   26.4310 H   0  0  0  0  0  0  0  0  0  0  0  0
  -27.5400  -34.7510   25.2210 C   0  0  0  0  0  1  0  0  0  0  0  0
  -28.3950  -33.5220   25.5770 C   0  0  0  0  0  3  0  0  0  0  0  0
  -30.7250  -32.8150   25.8860 C   0  0  0  0  0  1  0  0  0  0  0  0
  -29.8230  -33.8210   25.3300 N   0  0  0  0  0  0  0  0  0  0  0  0
  -30.0760  -34.7220   25.7250 H   0  0  0  0  0  0  0  0  0  0  0  0
  -26.7310  -28.9540   25.7530 C   0  0  1  0  0  0  0  0  0  0  0  0
  -25.9240  -28.9400   27.0710 C   0  0  0  0  0  1  0  0  0  0  0  0
  -26.3760  -27.6700   24.9680 C   0  0  0  0  0  1  0  0  0  0  0  0
  -28.2340  -28.8480   26.1080 C   0  0  0  0  0  1  0  0  0  0  0  0
  2  1  2  0
  3  1  1  0
  4  5  2  0
  4  6  1  0
  5  2  1  0
  6  3  2  0
  7  9  2  0
  7  8  1  0
  8  5  1  0
 10  8  1  0
 11 10  1  0
 12 11  1  0
 13 22  1  0
 13 12  1  0
 14 22  1  0
 14 20  1  0
 15 20  1  0
 16 17  1  0
 16 15  1  0
 18 17  1  0
 18 19  1  0
 18 27  1  0
 20 19  1  0
 21 14  2  0
 22 23  1  0
 24 25  2  0
 25 44  1  0
 26 29  1  0
 26 25  1  0
 27 28  1  0
 27 24  1  0
 28 26  2  0
 29 30  1  0
 30 31  2  0
 32 35  1  0
 32 31  1  0
 33 32  2  0
 34 33  1  0
 34 29  2  0
 35 36  1  0
 36 37  2  0
 36 41  1  0
 37 38  1  0
 38 39  2  0
 39 43  1  0
 40 39  1  0
 41 40  2  0
 42 41  1  0
 44 45  1  0
 45 47  1  0
 45 48  1  0
 46 44  2  0
 49 24  1  0
 49 50  1  0
 51 49  1  0
 52  7  1  0
 53 54  1  0
 54 52  1  0
 55  6  1  0
 56 55  1  0
 57 56  1  0
 58 59  1  0
 58 57  1  0
 60 58  1  0
 61 58  1  0
 62 61  1  0
 63 64  1  0
 63 62  1  0
 64 65  1  0
 65 67  1  0
 66 77  2  0
 67 72  1  0
 68 76  1  0
 68 78  1  0
 69 71  1  0
 69 75  1  0
 70 76  1  0
 71 70  1  0
 72 71  2  0
 73 67  2  0
 73 74  1  0
 74 69  2  0
 75 68  1  0
 76 66  1  0
 78 80  2  0
 79 78  1  0
 81 79  1  0
 82 87  1  0
 83 79  1  0
 84 83  1  0
 85 86  1  0
 85 84  1  0
 86 82  1  0
 87 88  2  0
 87 83  1  0
 89 88  1  0
 90 89  2  0
 91 90  1  0
 91 82  2  0
 92 66  1  0
 92 93  1  0
 92102  1  0
 93 96  1  0
 94 93  1  0
 94 98  1  0
 95 94  2  0
 98 97  1  0
100 98  1  0
100101  1  0
100 99  1  0
102105  1  1
102103  1  0
104102  1  0
M  ISO  4  14 100  22 100  64 101  65 101
M  END
>  <TORSDO>  (32) 
F 31

>  <SCORE>  (32) 
-2.151

>  <name>  (32) 
31

>  <ligand_id>  (32) 
31

>  <original_smiles>  (32) 
[H]c1c([H])c(OC([H])([H])C([H])([H])[N+]([H])([H])C([H])([H])C([H])([H])C([H])([H])C([H])([H])Oc2c([H])c([H])c3c(c2[H])C([H])([H])N(C(=O)C([H])(N([H])C(=O)C([H])(N([H])C([H])([H])[H])C([H])([H])[H])C(C([H])([H])[H])(C([H])([H])[H])C([H])([H])[H])C([H])(C(=O)N([H])C2([H])c4c([H])c([H])c([H])c([H])c4C([H])([H])C([H])([H])C2([H])[H])C3([H])[H])c([H])c(N(C(=O)C([H])([H])C([H])([H])C([H])([H])[H])C([H])([H])C([H])([H])C([H])([H])C([H])([H])N([H])C(=O)N2C([H])([H])C([H])([H])C([H])([H])C([H])(n3nc(-c4c([H])c([H])c(Oc5c([H])c([H])c(F)c([H])c5F)c([H])c4[H])c(C(=O)N([H])[H])c3N([H])[H])C2([H])[H])c1[H]

>  <smiles>  (32) 
[H]c1c([H])c(OC([H])([H])C([H])([H])[N+]([H])([H])C([H])([H])C([H])([H])C([H])([H])C([H])([H])Oc2c([H])c([H])c3c(c2[H])C([H])([H])N(C(=O)C([H])(N([H])C(=O)C([H])(N([H])C([H])([H])[H])C([H])([H])[H])C(C([H])([H])[H])(C([H])([H])[H])C([H])([H])[H])C([H])(C(=O)N([H])C2([H])c4c([H])c([H])c([H])c([H])c4C([H])([H])C([H])([H])C2([H])[H])C3([H])[H])c([H])c(N(C(=O)C([H])([H])C([H])([H])C([H])([H])[H])C([H])([H])C([H])([H])C([H])([H])C([H])([H])N([H])C(=O)N2C([H])([H])C([H])([H])C([H])([H])C([H])(n3nc(-c4c([H])c([H])c(Oc5c([H])c([H])c(F)c([H])c5F)c([H])c4[H])c(C(=O)N([H])[H])c3N([H])[H])C2([H])[H])c1[H]

$$$$
32:0:0
     RDKit          3D

111118  0  0  1  0  0  0  0  0999 V2000
  -31.3840  -24.9190   17.6930 C   0  0  0  0  0  0  0  0  0  0  0  0
  -30.6580  -26.0670   17.7060 N   0  0  0  0  0  0  0  0  0  0  0  0
  -32.6190  -24.9290   17.7240 O   0  0  0  0  0  0  0  0  0  0  0  0
  -29.1900  -26.1230   17.7600 C   0  0  0  0  0  2  0  0  0  0  0  0
  -28.6910  -25.7000   19.1540 C   0  0  0  0  0  2  0  0  0  0  0  0
  -28.5180  -26.8740   19.9430 O   0  0  0  0  0  0  0  0  0  0  0  0
  -24.5830  -31.8200   23.1430 C   0  0  0  0  0  0  0  0  0  0  0  0
  -27.3130  -27.5420   19.9200 C   0  0  0  0  0  0  0  0  0  0  0  0
  -23.4060  -30.4520   21.4540 C   0  0  0  0  0  3  0  0  0  0  0  0
  -24.8880  -28.9940   19.9840 C   0  0  0  0  0  0  0  0  0  0  0  0
  -25.9240  -30.8630   21.2770 C   0  0  0  0  0  2  0  0  0  0  0  0
  -26.0330  -29.5140   20.5990 C   0  0  0  0  0  0  0  0  0  0  0  0
  -27.2410  -28.7870   20.5800 C   0  0  0  0  0  3  0  0  0  0  0  0
  -26.1470  -27.0390   19.2910 C   0  0  0  0  0  3  0  0  0  0  0  0
  -24.9390  -27.7540   19.3320 C   0  0  0  0  0  3  0  0  0  0  0  0
  -23.6300  -29.8250   20.0520 C   0  0  0  0  0  2  0  0  0  0  0  0
  -24.6560  -31.0570   22.0180 N   0  0  0  0  0  0  0  0  0  0  0  0
  -23.4960  -32.0550   23.6890 O   0  0  0  0  0  0  0  0  0  0  0  0
  -22.7750  -29.3850   22.3770 C   0  0  0  0  0  0  0  0  0  0  0  0
  -21.4480  -29.2070   22.2630 N   0  0  0  0  0  0  0  0  0  0  0  0
  -23.4710  -28.7220   23.1490 O   0  0  0  0  0  0  0  0  0  0  0  0
  -20.9460  -29.7960   21.6140 H   0  0  0  0  0  0  0  0  0  0  0  0
  -18.0800  -28.0160   22.7910 C   0  0  0  0  0  0  0  0  0  0  0  0
  -20.6450  -28.2360   23.0050 C   0  0  0  0  0  3  0  0  0  0  0  0
  -20.7190  -26.8370   22.3490 C   0  0  0  0  0  2  0  0  0  0  0  0
  -19.5860  -26.5800   21.3500 C   0  0  0  0  0  2  0  0  0  0  0  0
  -18.2230  -26.7030   22.0380 C   0  0  0  0  0  2  0  0  0  0  0  0
  -19.2170  -28.7430   23.2310 C   0  0  0  0  0  0  0  0  0  0  0  0
  -19.0300  -29.9740   23.8960 C   0  0  0  0  0  3  0  0  0  0  0  0
  -17.7360  -30.4780   24.1240 C   0  0  0  0  0  3  0  0  0  0  0  0
  -16.6130  -29.7480   23.7010 C   0  0  0  0  0  3  0  0  0  0  0  0
  -16.7850  -28.5180   23.0410 C   0  0  0  0  0  3  0  0  0  0  0  0
  -25.8570  -32.4540   23.7850 C   0  0  0  0  0  3  0  0  0  0  0  0
  -25.5290  -33.8430   24.1390 N   0  0  0  0  0  0  0  0  0  0  0  0
  -25.8680  -34.9120   23.4070 C   0  0  0  0  0  0  0  0  0  0  0  0
  -26.5630  -34.8360   22.3890 O   0  0  0  0  0  0  0  0  0  0  0  0
  -24.9150  -33.9770   24.9280 H   0  0  0  0  0  0  0  0  0  0  0  0
  -24.1370  -36.6990   23.0450 C   0  0  0  0  0  1  0  0  0  0  0  0
  -25.3570  -36.2860   23.8820 C   0  0  0  0  0  3  0  0  0  0  0  0
  -27.4600  -37.1630   24.7950 C   0  0  0  0  0  1  0  0  0  0  0  0
  -26.3830  -37.3490   23.8260 N   0  0  0  0  0  0  0  0  0  0  0  0
  -25.9640  -38.2600   23.9890 H   0  0  0  0  0  0  0  0  0  0  0  0
  -26.3800  -31.6620   25.0460 C   0  0  1  0  0  0  0  0  0  0  0  0
  -25.2880  -31.3840   26.1040 C   0  0  0  0  0  1  0  0  0  0  0  0
  -26.9870  -30.3020   24.6250 C   0  0  0  0  0  1  0  0  0  0  0  0
  -27.5200  -32.4560   25.7260 C   0  0  0  0  0  1  0  0  0  0  0  0
  -31.3080  -27.3830   17.7780 C   0  0  0  0  0  2  0  0  0  0  0  0
  -32.0150  -27.7370   16.4590 C   0  0  0  0  0  2  0  0  0  0  0  0
  -32.6970  -29.1130   16.5020 C   0  0  0  0  0  2  0  0  0  0  0  0
  -31.8210  -31.4790   16.4190 C   0  0  0  0  0  0  0  0  0  0  0  0
  -30.9190  -32.3130   15.9120 N   0  0  0  0  0  4  0  0  0  0  0  0
  -32.7520  -31.9480   17.2450 N   0  0  0  0  0  0  0  0  0  0  0  0
  -31.7720  -30.1820   16.0870 N   0  0  0  0  0  0  0  0  0  0  0  0
  -30.9200  -33.3020   16.1160 H   0  0  0  0  0  0  0  0  0  0  0  0
  -30.1990  -31.9860   15.2830 H   0  0  0  0  0  0  0  0  0  0  0  0
  -32.7980  -32.9210   17.5110 H   0  0  0  0  0  0  0  0  0  0  0  0
  -33.4510  -31.3350   17.6370 H   0  0  0  0  0  0  0  0  0  0  0  0
  -31.0810  -29.8990   15.4040 H   0  0  0  0  0  0  0  0  0  0  0  0
  -30.6830  -23.5510   17.6110 C   0  0  0  0  0  2  0  0  0  0  0  0
  -31.2160  -22.5270   18.6260 C   0  0  0  0  0  2  0  0  0  0  0  0
  -30.5610  -21.1590   18.3910 C   0  0  0  0  0  2  0  0  0  0  0  0
  -31.1350  -20.0280   19.2530 C   0  0  0  0  0  2  0  0  0  0  0  0
  -30.4780  -18.6870   18.9000 C   0  0  0  0  0  2  0  0  0  0  0  0
  -31.1890  -17.4700   19.5070 C   0  0  0  0  0  2  0  0  0  0  0  0
  -30.6850  -16.1610   18.8570 C   0  0  0  0  0  2  0  0  0  0  0  0
  -31.3520  -14.5090   20.4400 C   0  0  0  0  0  0  0  0  0  0  0  0
  -30.8720  -12.2380   19.7970 C   0  0  0  0  0  2  0  0  0  0  0  0
  -30.0480  -12.3070   18.5060 C   0  0  0  0  0  2  0  0  0  0  0  0
  -28.5550  -12.3330   18.8320 C   0  0  0  0  0  2  0  0  0  0  0  0
  -28.1610  -13.3400   19.9490 C   0  0  0  0  0  3  0  0  0  0  0  0
  -29.1740  -13.3500   21.1340 C   0  0  0  0  0  2  0  0  0  0  0  0
  -30.5410  -13.4260   20.5720 N   0  0  0  0  0  0  0  0  0  0  0  0
  -32.1310  -14.8930   21.2870 O   0  0  0  0  0  0  0  0  0  0  0  0
  -31.5110  -14.9790   19.1690 N   0  0  0  0  0  0  0  0  0  0  0  0
  -25.7080  -13.9990   20.3960 C   0  0  0  0  0  0  0  0  0  0  0  0
  -24.5970  -13.2530   20.6890 C   0  0  0  0  0  0  0  0  0  0  0  0
  -25.0450  -11.9010   20.7940 C   0  0  0  0  0  0  0  0  0  0  0  0
  -26.7680  -13.1070   20.3490 N   0  0  0  0  0  0  0  0  0  0  0  0
  -26.3640  -11.8440   20.6520 N   0  0  0  0  0  0  0  0  0  0  0  0
  -24.2870  -10.6540   20.9710 C   0  0  0  0  0  0  0  0  0  0  0  0
  -24.6240   -9.7230   21.9790 C   0  0  0  0  0  3  0  0  0  0  0  0
  -23.8660   -8.5440   22.1490 C   0  0  0  0  0  3  0  0  0  0  0  0
  -22.7570   -8.2860   21.3100 C   0  0  0  0  0  0  0  0  0  0  0  0
  -22.4400   -9.2030   20.2920 C   0  0  0  0  0  3  0  0  0  0  0  0
  -23.1980  -10.3730   20.1210 C   0  0  0  0  0  3  0  0  0  0  0  0
  -21.9810   -7.1560   21.3850 O   0  0  0  0  0  0  0  0  0  0  0  0
  -21.8300   -6.4630   22.5590 C   0  0  0  0  0  0  0  0  0  0  0  0
  -21.3190   -7.0750   23.7240 C   0  0  0  0  0  3  0  0  0  0  0  0
  -21.1160   -6.3100   24.8900 C   0  0  0  0  0  3  0  0  0  0  0  0
  -21.4110   -4.9340   24.8910 C   0  0  0  0  0  0  0  0  0  0  0  0
  -21.9140   -4.3220   23.7290 C   0  0  0  0  0  3  0  0  0  0  0  0
  -22.1180   -5.0830   22.5660 C   0  0  0  0  0  0  0  0  0  0  0  0
  -22.5840   -4.4830   21.4440 F   0  0  0  0  0  0  0  0  0  0  0  0
  -21.2080   -4.1970   26.0080 F   0  0  0  0  0  0  0  0  0  0  0  0
  -23.1820  -13.7490   20.7680 C   0  0  0  0  0  0  0  0  0  0  0  0
  -22.3580  -13.1280   21.6060 N   0  0  0  0  0  0  0  0  0  0  0  0
  -22.8080  -14.7270   20.1200 O   0  0  0  0  0  0  0  0  0  0  0  0
  -22.6660  -12.3390   22.1560 H   0  0  0  0  0  0  0  0  0  0  0  0
  -21.4040  -13.4480   21.7000 H   0  0  0  0  0  0  0  0  0  0  0  0
  -25.9010  -15.3540   20.1430 N   0  0  0  0  0  0  0  0  0  0  0  0
  -25.1350  -16.0180   20.1260 H   0  0  0  0  0  0  0  0  0  0  0  0
  -26.7940  -15.7730   19.9140 H   0  0  0  0  0  0  0  0  0  0  0  0
  -32.8260  -14.9420   18.4170 C   0  0  0  0  0  3  0  0  0  0  0  0
  -34.0400  -14.3600   19.2010 C   0  0  0  0  0  0  0  0  0  0  0  0
  -35.0140  -15.1900   19.5600 N   0  0  0  0  0  0  0  0  0  0  0  0
  -34.1190  -13.1630   19.4690 O   0  0  0  0  0  0  0  0  0  0  0  0
  -34.9630  -16.1750   19.3400 H   0  0  0  0  0  0  0  0  0  0  0  0
  -35.8110  -14.8370   20.0700 H   0  0  0  0  0  0  0  0  0  0  0  0
  -31.7410  -14.9060   16.0070 C   0  0  0  0  0  1  0  0  0  0  0  0
  -34.0840  -14.1630   16.2710 C   0  0  0  0  0  1  0  0  0  0  0  0
  -32.7220  -14.2490   17.0030 C   0  0  0  0  0  3  0  0  0  0  0  0
  1  2  1  0
  1  3  2  0
  2  4  1  0
  2 47  1  0
  4  5  1  0
  5  6  1  0
  7 18  2  0
  8  6  1  0
  8 13  1  0
  9 17  1  0
  9 19  1  0
 10 16  1  0
 10 12  1  0
 11 17  1  0
 12 11  1  0
 13 12  2  0
 14 15  1  0
 14  8  2  0
 15 10  2  0
 16  9  1  0
 17  7  1  0
 19 21  2  0
 20 19  1  0
 22 20  1  0
 23 32  2  0
 23 28  1  0
 24 20  1  0
 24 28  1  0
 25 24  1  0
 26 27  1  0
 26 25  1  0
 27 23  1  0
 28 29  2  0
 29 30  1  0
 31 30  2  0
 32 31  1  0
 33  7  1  0
 33 34  1  0
 33 43  1  0
 34 37  1  0
 35 39  1  0
 35 34  1  0
 36 35  2  0
 39 38  1  0
 41 39  1  0
 41 42  1  0
 41 40  1  0
 43 46  1  1
 43 44  1  0
 45 43  1  0
 48 49  1  0
 48 47  1  0
 50 52  1  0
 51 54  1  0
 51 50  2  0
 52 56  1  0
 52 57  1  0
 53 50  1  0
 53 49  1  0
 55 51  1  0
 58 53  1  0
 59  1  1  0
 59 60  1  0
 61 60  1  0
 61 62  1  0
 63 62  1  0
 63 64  1  0
 65 74  1  0
 65 64  1  0
 66 72  1  0
 66 73  2  0
 67 72  1  0
 68 69  1  0
 68 67  1  0
 70 69  1  0
 70 78  1  0
 70 71  1  0
 72 71  1  0
 74 66  1  0
 75 76  2  0
 76 95  1  0
 76 77  1  0
 77 80  1  0
 78 75  1  0
 78 79  1  0
 79 77  2  0
 80 81  1  0
 81 82  2  0
 83 86  1  0
 83 82  1  0
 84 83  2  0
 85 84  1  0
 85 80  2  0
 86 87  1  0
 87 92  2  0
 87 88  1  0
 88 89  2  0
 89 90  1  0
 90 94  1  0
 91 90  2  0
 92 91  1  0
 93 92  1  0
 95 96  1  0
 96 99  1  0
 96 98  1  0
 97 95  2  0
100 75  1  0
101100  1  0
102100  1  0
103111  1  0
103 74  1  0
103104  1  0
104106  2  0
104105  1  0
105108  1  0
107105  1  0
109111  1  0
110111  1  0
M  ISO  4   5 101   6 101  66 100  74 100
M  END
>  <TORSDO>  (33) 
F 32

>  <SCORE>  (33) 
-9.739

>  <name>  (33) 
32

>  <ligand_id>  (33) 
32

>  <original_smiles>  (33) 
[H]c1c([H])c([H])c2c(c1[H])C([H])([H])C([H])([H])C([H])([H])C2([H])N([H])C(=O)C1([H])N(C(=O)C([H])(N([H])C(=O)C([H])(N([H])C([H])([H])[H])C([H])([H])[H])C(C([H])([H])[H])(C([H])([H])[H])C([H])([H])[H])C([H])([H])c2c([H])c(OC([H])([H])C([H])([H])N(C(=O)C([H])([H])C([H])([H])C([H])([H])C([H])([H])C([H])([H])C([H])([H])C([H])([H])N(C(=O)N3C([H])([H])C([H])([H])C([H])([H])C([H])(n4nc(-c5c([H])c([H])c(Oc6c([H])c([H])c(F)c([H])c6F)c([H])c5[H])c(C(=O)N([H])[H])c4N([H])[H])C3([H])[H])C([H])(C(=O)N([H])[H])C([H])(C([H])([H])[H])C([H])([H])[H])C([H])([H])C([H])([H])C([H])([H])N([H])C(N([H])[H])=[N+]([H])[H])c([H])c([H])c2C1([H])[H]

>  <smiles>  (33) 
[H]c1c([H])c([H])c2c(c1[H])C([H])([H])C([H])([H])C([H])([H])C2([H])N([H])C(=O)C1([H])N(C(=O)C([H])(N([H])C(=O)C([H])(N([H])C([H])([H])[H])C([H])([H])[H])C(C([H])([H])[H])(C([H])([H])[H])C([H])([H])[H])C([H])([H])c2c([H])c(OC([H])([H])C([H])([H])N(C(=O)C([H])([H])C([H])([H])C([H])([H])C([H])([H])C([H])([H])C([H])([H])C([H])([H])N(C(=O)N3C([H])([H])C([H])([H])C([H])([H])C([H])(n4nc(-c5c([H])c([H])c(Oc6c([H])c([H])c(F)c([H])c6F)c([H])c5[H])c(C(=O)N([H])[H])c4N([H])[H])C3([H])[H])C([H])(C(=O)N([H])[H])C([H])(C([H])([H])[H])C([H])([H])[H])C([H])([H])C([H])([H])C([H])([H])N([H])C(N([H])[H])=[N+]([H])[H])c([H])c([H])c2C1([H])[H]

$$$$
33:0:0
     RDKit          3D

 95103  0  0  1  0  0  0  0  0999 V2000
  -31.0380  -22.9270   19.5000 C   0  0  0  0  0  0  0  0  0  0  0  0
  -29.8580  -22.3690   19.8600 N   0  0  0  0  0  0  0  0  0  0  0  0
  -31.6880  -23.6290   20.2900 O   0  0  0  0  0  0  0  0  0  0  0  0
  -31.1330  -18.5610   20.0740 C   0  0  0  0  0  3  0  0  0  0  0  0
  -31.0450  -20.0110   19.9850 C   0  0  0  0  0  3  0  0  0  0  0  0
  -28.8100  -18.4980   20.3770 C   0  0  0  0  0  3  0  0  0  0  0  0
  -30.0060  -17.7060   20.2680 C   0  0  0  0  0  0  0  0  0  0  0  0
  -29.8380  -20.8200   20.0410 C   0  0  0  0  0  0  0  0  0  0  0  0
  -28.7100  -19.9490   20.2670 C   0  0  0  0  0  0  0  0  0  0  0  0
  -27.1230  -20.6120   20.4200 Cl  0  0  0  0  0  0  0  0  0  0  0  0
  -30.7590  -15.0660   19.9850 C   0  0  0  0  0  0  0  0  0  0  0  0
  -30.5960  -12.7480   18.9790 C   0  0  0  0  0  2  0  0  0  0  0  0
  -29.5860  -12.7300   17.8050 C   0  0  0  0  0  2  0  0  0  0  0  0
  -28.1520  -12.5040   18.3170 C   0  0  0  0  0  2  0  0  0  0  0  0
  -27.8090  -13.4070   19.5290 C   0  0  0  0  0  3  0  0  0  0  0  0
  -28.9260  -13.3770   20.5980 C   0  0  0  0  0  2  0  0  0  0  0  0
  -30.1750  -13.8000   19.9470 N   0  0  0  0  0  0  0  0  0  0  0  0
  -31.9130  -15.1860   19.5600 O   0  0  0  0  0  0  0  0  0  0  0  0
  -29.9700  -16.1760   20.3680 N   0  0  0  0  0  0  0  0  0  0  0  0
  -29.1050  -15.8420   20.7660 H   0  0  0  0  0  0  0  0  0  0  0  0
  -25.4630  -13.9700   20.3980 C   0  0  0  0  0  0  0  0  0  0  0  0
  -24.4170  -13.1870   20.8040 C   0  0  0  0  0  0  0  0  0  0  0  0
  -24.8780  -11.8360   20.7130 C   0  0  0  0  0  0  0  0  0  0  0  0
  -26.4940  -13.0990   20.0850 N   0  0  0  0  0  0  0  0  0  0  0  0
  -26.1510  -11.8090   20.3370 N   0  0  0  0  0  0  0  0  0  0  0  0
  -24.1600  -10.5680   20.9070 C   0  0  0  0  0  0  0  0  0  0  0  0
  -24.5760   -9.6220   21.8700 C   0  0  0  0  0  3  0  0  0  0  0  0
  -23.8570   -8.4220   22.0520 C   0  0  0  0  0  3  0  0  0  0  0  0
  -22.7080   -8.1570   21.2690 C   0  0  0  0  0  0  0  0  0  0  0  0
  -22.3110   -9.0920   20.2970 C   0  0  0  0  0  3  0  0  0  0  0  0
  -23.0300  -10.2850   20.1140 C   0  0  0  0  0  3  0  0  0  0  0  0
  -21.9630   -7.0060   21.3590 O   0  0  0  0  0  0  0  0  0  0  0  0
  -21.8130   -6.3360   22.5460 C   0  0  0  0  0  0  0  0  0  0  0  0
  -21.2310   -6.9480   23.6780 C   0  0  0  0  0  3  0  0  0  0  0  0
  -21.0290   -6.2020   24.8570 C   0  0  0  0  0  3  0  0  0  0  0  0
  -21.4030   -4.8450   24.9060 C   0  0  0  0  0  0  0  0  0  0  0  0
  -21.9770   -4.2330   23.7780 C   0  0  0  0  0  3  0  0  0  0  0  0
  -22.1780   -4.9750   22.6010 C   0  0  0  0  0  0  0  0  0  0  0  0
  -22.7130   -4.3730   21.5110 F   0  0  0  0  0  0  0  0  0  0  0  0
  -21.2020   -4.1270   26.0350 F   0  0  0  0  0  0  0  0  0  0  0  0
  -23.0360  -13.6560   21.1600 C   0  0  0  0  0  0  0  0  0  0  0  0
  -22.3500  -12.9340   22.0390 N   0  0  0  0  0  0  0  0  0  0  0  0
  -22.5750  -14.6970   20.6910 O   0  0  0  0  0  0  0  0  0  0  0  0
  -22.7350  -12.0920   22.4380 H   0  0  0  0  0  0  0  0  0  0  0  0
  -21.4270  -13.2320   22.3190 H   0  0  0  0  0  0  0  0  0  0  0  0
  -25.6210  -15.3460   20.2420 N   0  0  0  0  0  0  0  0  0  0  0  0
  -24.8620  -15.9980   20.3930 H   0  0  0  0  0  0  0  0  0  0  0  0
  -26.4380  -15.7780   19.8310 H   0  0  0  0  0  0  0  0  0  0  0  0
  -31.5510  -22.7350   18.0550 C   0  0  1  0  0  0  0  0  0  0  0  0
  -32.7510  -22.1500   18.0660 F   0  0  0  0  0  0  0  0  0  0  0  0
  -30.7020  -22.0010   17.3330 F   0  0  0  0  0  0  0  0  0  0  0  0
  -31.6720  -23.9340   17.4780 F   0  0  0  0  0  0  0  0  0  0  0  0
  -28.8920  -23.5330   20.3190 C   0  0  0  0  0  2  0  0  0  0  0  0
  -28.7170  -24.9760   19.4570 C   0  0  0  0  0  2  0  0  0  0  0  0
  -28.5630  -26.4140   19.9910 O   0  0  0  0  0  0  0  0  0  0  0  0
  -24.7130  -31.7890   23.0700 C   0  0  0  0  0  0  0  0  0  0  0  0
  -27.4240  -27.2850   19.8930 C   0  0  0  0  0  0  0  0  0  0  0  0
  -23.5380  -30.4080   21.3970 C   0  0  0  0  0  3  0  0  0  0  0  0
  -25.0230  -28.9200   19.9130 C   0  0  0  0  0  0  0  0  0  0  0  0
  -26.0740  -30.7710   21.2120 C   0  0  0  0  0  2  0  0  0  0  0  0
  -26.1870  -29.4020   20.5250 C   0  0  0  0  0  0  0  0  0  0  0  0
  -27.3790  -28.5970   20.5030 C   0  0  0  0  0  3  0  0  0  0  0  0
  -26.2270  -26.8820   19.2540 C   0  0  0  0  0  3  0  0  0  0  0  0
  -25.0530  -27.6720   19.2660 C   0  0  0  0  0  3  0  0  0  0  0  0
  -23.7700  -29.7800   19.9930 C   0  0  0  0  0  2  0  0  0  0  0  0
  -24.7950  -31.0080   21.9490 N   0  0  0  0  0  0  0  0  0  0  0  0
  -23.6270  -32.0220   23.6190 O   0  0  0  0  0  0  0  0  0  0  0  0
  -22.9010  -29.3510   22.3330 C   0  0  0  0  0  0  0  0  0  0  0  0
  -21.5720  -29.1670   22.2370 N   0  0  0  0  0  0  0  0  0  0  0  0
  -23.6060  -28.7010   23.1100 O   0  0  0  0  0  0  0  0  0  0  0  0
  -21.0620  -29.7460   21.5850 H   0  0  0  0  0  0  0  0  0  0  0  0
  -18.2180  -27.9270   22.7970 C   0  0  0  0  0  0  0  0  0  0  0  0
  -20.7830  -28.1910   22.9910 C   0  0  0  0  0  3  0  0  0  0  0  0
  -20.8730  -26.7870   22.3490 C   0  0  0  0  0  2  0  0  0  0  0  0
  -19.7370  -26.5060   21.3580 C   0  0  0  0  0  2  0  0  0  0  0  0
  -18.3760  -26.6110   22.0540 C   0  0  0  0  0  2  0  0  0  0  0  0
  -19.3480  -28.6750   23.2240 C   0  0  0  0  0  0  0  0  0  0  0  0
  -19.1440  -29.9060   23.8860 C   0  0  0  0  0  3  0  0  0  0  0  0
  -17.8440  -30.3880   24.1250 C   0  0  0  0  0  3  0  0  0  0  0  0
  -16.7280  -29.6370   23.7140 C   0  0  0  0  0  3  0  0  0  0  0  0
  -16.9170  -28.4100   23.0550 C   0  0  0  0  0  3  0  0  0  0  0  0
  -25.9820  -32.4420   23.7020 C   0  0  0  0  0  3  0  0  0  0  0  0
  -26.5310  -31.6480   24.9510 C   0  0  1  0  0  0  0  0  0  0  0  0
  -25.4560  -31.3490   26.0240 C   0  0  0  0  0  1  0  0  0  0  0  0
  -27.1510  -30.2980   24.5180 C   0  0  0  0  0  1  0  0  0  0  0  0
  -27.6660  -32.4550   25.6250 C   0  0  0  0  0  1  0  0  0  0  0  0
  -25.6310  -33.8180   24.0820 N   0  0  0  0  0  0  0  0  0  0  0  0
  -25.9370  -34.9100   23.3670 C   0  0  0  0  0  0  0  0  0  0  0  0
  -26.6100  -34.8630   22.3330 O   0  0  0  0  0  0  0  0  0  0  0  0
  -25.0290  -33.9250   24.8860 H   0  0  0  0  0  0  0  0  0  0  0  0
  -24.1770  -36.6830   23.0700 C   0  0  0  0  0  1  0  0  0  0  0  0
  -25.4180  -36.2680   23.8770 C   0  0  0  0  0  3  0  0  0  0  0  0
  -27.5200  -37.1690   24.7700 C   0  0  0  0  0  1  0  0  0  0  0  0
  -26.4270  -37.3480   23.8190 N   0  0  0  0  0  0  0  0  0  0  0  0
  -25.9970  -38.2520   23.9940 H   0  0  0  0  0  0  0  0  0  0  0  0
  1  2  1  0
  1  3  2  0
  2  8  1  0
  2 53  1  0
  4  7  1  0
  5  8  1  0
  5  4  2  0
  7 19  1  0
  7  6  2  0
  8  9  2  0
  9  6  1  0
  9 10  1  0
 11 19  1  0
 12 17  1  0
 13 14  1  0
 13 12  1  0
 15 14  1  0
 15 24  1  0
 15 16  1  0
 17 11  1  0
 17 16  1  0
 18 11  2  0
 19 20  1  0
 21 22  2  0
 22 41  1  0
 23 22  1  0
 23 26  1  0
 24 25  1  0
 24 21  1  0
 25 23  2  0
 26 27  1  0
 27 28  2  0
 29 32  1  0
 29 28  1  0
 30 29  2  0
 31 30  1  0
 31 26  2  0
 32 33  1  0
 33 38  2  0
 33 34  1  0
 34 35  2  0
 35 36  1  0
 36 40  1  0
 37 36  2  0
 38 37  1  0
 39 38  1  0
 41 42  1  0
 42 45  1  0
 42 44  1  0
 43 41  2  0
 46 47  1  0
 46 21  1  0
 48 46  1  0
 49 50  1  1
 49  1  1  0
 51 49  1  0
 52 49  1  0
 54 55  1  0
 54 53  1  0
 56 67  2  0
 57 55  1  0
 57 62  1  0
 58 66  1  0
 58 68  1  0
 59 65  1  0
 59 61  1  0
 60 66  1  0
 61 60  1  0
 62 61  2  0
 63 64  1  0
 63 57  2  0
 64 59  2  0
 65 58  1  0
 66 56  1  0
 68 70  2  0
 69 68  1  0
 71 69  1  0
 72 81  2  0
 72 77  1  0
 73 69  1  0
 73 77  1  0
 74 73  1  0
 75 76  1  0
 75 74  1  0
 76 72  1  0
 77 78  2  0
 78 79  1  0
 80 79  2  0
 81 80  1  0
 82 56  1  0
 82 87  1  0
 82 83  1  0
 83 86  1  1
 83 84  1  0
 85 83  1  0
 87 90  1  0
 88 92  1  0
 88 87  1  0
 89 88  2  0
 92 91  1  0
 94 92  1  0
 94 95  1  0
 94 93  1  0
M  ISO  4  11 100  19 100  54 101  55 101
M  END
>  <TORSDO>  (34) 
F 20

>  <SCORE>  (34) 
-12.987

>  <name>  (34) 
33

>  <ligand_id>  (34) 
33

>  <original_smiles>  (34) 
[H]c1c([H])c([H])c2c(c1[H])C([H])([H])C([H])([H])C([H])([H])C2([H])N([H])C(=O)C1([H])N(C(=O)C([H])(N([H])C(=O)C([H])(N([H])C([H])([H])[H])C([H])([H])[H])C(C([H])([H])[H])(C([H])([H])[H])C([H])([H])[H])C([H])([H])c2c([H])c(OC([H])([H])C([H])([H])N(C(=O)C(F)(F)F)c3c([H])c([H])c(N([H])C(=O)N4C([H])([H])C([H])([H])C([H])([H])C([H])(n5nc(-c6c([H])c([H])c(Oc7c([H])c([H])c(F)c([H])c7F)c([H])c6[H])c(C(=O)N([H])[H])c5N([H])[H])C4([H])[H])c([H])c3Cl)c([H])c([H])c2C1([H])[H]

>  <smiles>  (34) 
[H]c1c([H])c([H])c2c(c1[H])C([H])([H])C([H])([H])C([H])([H])C2([H])N([H])C(=O)C1([H])N(C(=O)C([H])(N([H])C(=O)C([H])(N([H])C([H])([H])[H])C([H])([H])[H])C(C([H])([H])[H])(C([H])([H])[H])C([H])([H])[H])C([H])([H])c2c([H])c(OC([H])([H])C([H])([H])N(C(=O)C(F)(F)F)c3c([H])c([H])c(N([H])C(=O)N4C([H])([H])C([H])([H])C([H])([H])C([H])(n5nc(-c6c([H])c([H])c(Oc7c([H])c([H])c(F)c([H])c7F)c([H])c6[H])c(C(=O)N([H])[H])c5N([H])[H])C4([H])[H])c([H])c3Cl)c([H])c([H])c2C1([H])[H]

$$$$
34:0:0
     RDKit          3D

 91 99  0  0  1  0  0  0  0  0999 V2000
  -28.9840  -23.7800   20.5020 C   0  0  0  0  0  0  0  0  0  0  0  0
  -28.8150  -22.4500   20.1360 N   0  0  0  0  0  0  0  0  0  0  0  0
  -29.8260  -24.0920   21.3460 O   0  0  0  0  0  0  0  0  0  0  0  0
  -28.1170  -22.2950   19.4230 H   0  0  0  0  0  0  0  0  0  0  0  0
  -29.3300  -21.1870   20.8250 C   0  0  0  0  0  2  0  0  0  0  0  0
  -30.2880  -18.6400   18.0200 C   0  0  0  0  0  3  0  0  0  0  0  0
  -29.9690  -19.8340   18.7060 C   0  0  0  0  0  3  0  0  0  0  0  0
  -30.2570  -17.3820   18.6620 C   0  0  0  0  0  3  0  0  0  0  0  0
  -29.5350  -18.4960   20.6940 C   0  0  0  0  0  3  0  0  0  0  0  0
  -29.5810  -19.8090   20.0610 C   0  0  0  0  0  0  0  0  0  0  0  0
  -29.8920  -17.2550   20.0200 C   0  0  0  0  0  0  0  0  0  0  0  0
  -30.5650  -14.7620   20.3530 C   0  0  0  0  0  0  0  0  0  0  0  0
  -30.3720  -12.4750   19.3890 C   0  0  0  0  0  2  0  0  0  0  0  0
  -29.4400  -12.5590   18.1610 C   0  0  0  0  0  2  0  0  0  0  0  0
  -27.9670  -12.3990   18.5800 C   0  0  0  0  0  2  0  0  0  0  0  0
  -27.5930  -13.2850   19.8000 C   0  0  0  0  0  3  0  0  0  0  0  0
  -28.6470  -13.1810   20.9250 C   0  0  0  0  0  2  0  0  0  0  0  0
  -29.9500  -13.5280   20.3410 N   0  0  0  0  0  0  0  0  0  0  0  0
  -31.7420  -14.8560   19.9950 O   0  0  0  0  0  0  0  0  0  0  0  0
  -29.8040  -15.8940   20.6140 N   0  0  0  0  0  0  0  0  0  0  0  0
  -28.9470  -15.7120   21.1190 H   0  0  0  0  0  0  0  0  0  0  0  0
  -25.2010  -13.8860   20.5040 C   0  0  0  0  0  0  0  0  0  0  0  0
  -24.1320  -13.1180   20.8780 C   0  0  0  0  0  0  0  0  0  0  0  0
  -24.5910  -11.7650   20.8600 C   0  0  0  0  0  0  0  0  0  0  0  0
  -26.2450  -13.0020   20.2810 N   0  0  0  0  0  0  0  0  0  0  0  0
  -25.8840  -11.7230   20.5570 N   0  0  0  0  0  0  0  0  0  0  0  0
  -23.8590  -10.5060   21.0580 C   0  0  0  0  0  0  0  0  0  0  0  0
  -24.2970   -9.5330   21.9830 C   0  0  0  0  0  3  0  0  0  0  0  0
  -23.5650   -8.3400   22.1680 C   0  0  0  0  0  3  0  0  0  0  0  0
  -22.3810   -8.1120   21.4270 C   0  0  0  0  0  0  0  0  0  0  0  0
  -21.9620   -9.0740   20.4910 C   0  0  0  0  0  3  0  0  0  0  0  0
  -22.6950  -10.2570   20.3060 C   0  0  0  0  0  3  0  0  0  0  0  0
  -21.6230   -6.9700   21.5210 O   0  0  0  0  0  0  0  0  0  0  0  0
  -21.6000   -6.2120   22.6640 C   0  0  0  0  0  0  0  0  0  0  0  0
  -21.2220   -6.7550   23.9120 C   0  0  0  0  0  3  0  0  0  0  0  0
  -21.1440   -5.9230   25.0470 C   0  0  0  0  0  3  0  0  0  0  0  0
  -21.4350   -4.5510   24.9380 C   0  0  0  0  0  0  0  0  0  0  0  0
  -21.8060   -4.0070   23.6960 C   0  0  0  0  0  3  0  0  0  0  0  0
  -21.8850   -4.8340   22.5620 C   0  0  0  0  0  0  0  0  0  0  0  0
  -22.2210   -4.3010   21.3620 F   0  0  0  0  0  0  0  0  0  0  0  0
  -21.3510   -3.7520   26.0240 F   0  0  0  0  0  0  0  0  0  0  0  0
  -22.7340  -13.6030   21.1380 C   0  0  0  0  0  0  0  0  0  0  0  0
  -22.0000  -12.9200   22.0090 N   0  0  0  0  0  0  0  0  0  0  0  0
  -22.3030  -14.6240   20.6040 O   0  0  0  0  0  0  0  0  0  0  0  0
  -22.3620  -12.0970   22.4690 H   0  0  0  0  0  0  0  0  0  0  0  0
  -21.0640  -13.2300   22.2270 H   0  0  0  0  0  0  0  0  0  0  0  0
  -25.3710  -15.2550   20.3120 N   0  0  0  0  0  0  0  0  0  0  0  0
  -24.6120  -15.9180   20.4210 H   0  0  0  0  0  0  0  0  0  0  0  0
  -26.2140  -15.6740   19.9410 H   0  0  0  0  0  0  0  0  0  0  0  0
  -28.0410  -24.9250   19.8980 C   0  0  0  0  0  2  0  0  0  0  0  0
  -28.2910  -26.3760   20.2330 O   0  0  0  0  0  0  0  0  0  0  0  0
  -24.6360  -31.8890   23.2430 C   0  0  0  0  0  0  0  0  0  0  0  0
  -27.2030  -27.2850   20.1620 C   0  0  0  0  0  0  0  0  0  0  0  0
  -23.4160  -30.4960   21.6140 C   0  0  0  0  0  3  0  0  0  0  0  0
  -24.8510  -28.9440   20.1710 C   0  0  0  0  0  0  0  0  0  0  0  0
  -25.9590  -30.7940   21.4130 C   0  0  0  0  0  2  0  0  0  0  0  0
  -26.0290  -29.4120   20.7650 C   0  0  0  0  0  0  0  0  0  0  0  0
  -27.2060  -28.5940   20.7550 C   0  0  0  0  0  3  0  0  0  0  0  0
  -26.0020  -26.8990   19.5170 C   0  0  0  0  0  3  0  0  0  0  0  0
  -24.8430  -27.6960   19.5340 C   0  0  0  0  0  3  0  0  0  0  0  0
  -23.6180  -29.8240   20.2310 C   0  0  0  0  0  2  0  0  0  0  0  0
  -24.6890  -31.0780   22.1460 N   0  0  0  0  0  0  0  0  0  0  0  0
  -23.5570  -32.1690   23.7880 O   0  0  0  0  0  0  0  0  0  0  0  0
  -22.7540  -29.4810   22.5780 C   0  0  0  0  0  0  0  0  0  0  0  0
  -21.4280  -29.3060   22.4580 N   0  0  0  0  0  0  0  0  0  0  0  0
  -23.4350  -28.8570   23.3960 O   0  0  0  0  0  0  0  0  0  0  0  0
  -20.9370  -29.8620   21.7710 H   0  0  0  0  0  0  0  0  0  0  0  0
  -18.0550  -28.0950   22.9610 C   0  0  0  0  0  0  0  0  0  0  0  0
  -20.6110  -28.3710   23.2350 C   0  0  0  0  0  3  0  0  0  0  0  0
  -20.7210  -26.9350   22.6730 C   0  0  0  0  0  2  0  0  0  0  0  0
  -19.6230  -26.5960   21.6590 C   0  0  0  0  0  2  0  0  0  0  0  0
  -18.2390  -26.7410   22.2970 C   0  0  0  0  0  2  0  0  0  0  0  0
  -19.1680  -28.8670   23.3870 C   0  0  0  0  0  0  0  0  0  0  0  0
  -18.9410  -30.1330   23.9700 C   0  0  0  0  0  3  0  0  0  0  0  0
  -17.6320  -30.6270   24.1310 C   0  0  0  0  0  3  0  0  0  0  0  0
  -16.5340  -29.8530   23.7190 C   0  0  0  0  0  3  0  0  0  0  0  0
  -16.7450  -28.5900   23.1390 C   0  0  0  0  0  3  0  0  0  0  0  0
  -25.9240  -32.5190   23.8560 C   0  0  0  0  0  3  0  0  0  0  0  0
  -26.4470  -31.7440   25.1280 C   0  0  1  0  0  0  0  0  0  0  0  0
  -25.3630  -31.5160   26.2070 C   0  0  0  0  0  1  0  0  0  0  0  0
  -27.0140  -30.3620   24.7320 C   0  0  0  0  0  1  0  0  0  0  0  0
  -27.6110  -32.5310   25.7750 C   0  0  0  0  0  1  0  0  0  0  0  0
  -25.6190  -33.9160   24.1930 N   0  0  0  0  0  0  0  0  0  0  0  0
  -25.9440  -34.9720   23.4340 C   0  0  0  0  0  0  0  0  0  0  0  0
  -26.6000  -34.8690   22.3930 O   0  0  0  0  0  0  0  0  0  0  0  0
  -25.0330  -34.0690   25.0010 H   0  0  0  0  0  0  0  0  0  0  0  0
  -24.2120  -36.7680   23.1080 C   0  0  0  0  0  1  0  0  0  0  0  0
  -25.4650  -36.3600   23.8990 C   0  0  0  0  0  3  0  0  0  0  0  0
  -27.6190  -37.2380   24.6920 C   0  0  0  0  0  1  0  0  0  0  0  0
  -26.4970  -37.4140   23.7730 N   0  0  0  0  0  0  0  0  0  0  0  0
  -26.0950  -38.3330   23.9360 H   0  0  0  0  0  0  0  0  0  0  0  0
  1  3  2  0
  2  1  1  0
  2  5  1  0
  4  2  1  0
  6  8  2  0
  6  7  1  0
  7 10  2  0
  8 11  1  0
 10  9  1  0
 10  5  1  0
 11 20  1  0
 11  9  2  0
 12 20  1  0
 13 18  1  0
 14 15  1  0
 14 13  1  0
 16 15  1  0
 16 25  1  0
 16 17  1  0
 18 12  1  0
 18 17  1  0
 19 12  2  0
 20 21  1  0
 22 23  2  0
 23 42  1  0
 24 23  1  0
 24 27  1  0
 25 22  1  0
 25 26  1  0
 26 24  2  0
 27 28  1  0
 28 29  2  0
 30 33  1  0
 30 29  1  0
 31 30  2  0
 32 31  1  0
 32 27  2  0
 33 34  1  0
 34 35  1  0
 35 36  2  0
 37 36  1  0
 37 41  1  0
 38 37  2  0
 39 34  2  0
 39 38  1  0
 40 39  1  0
 42 43  1  0
 43 46  1  0
 43 45  1  0
 44 42  2  0
 47 48  1  0
 47 22  1  0
 49 47  1  0
 50 51  1  0
 50  1  1  0
 52 63  2  0
 53 51  1  0
 53 58  1  0
 54 62  1  0
 54 64  1  0
 55 61  1  0
 55 57  1  0
 56 62  1  0
 57 56  1  0
 58 57  2  0
 59 60  1  0
 59 53  2  0
 60 55  2  0
 61 54  1  0
 62 52  1  0
 64 66  2  0
 65 64  1  0
 67 65  1  0
 68 77  2  0
 68 73  1  0
 69 65  1  0
 69 73  1  0
 70 69  1  0
 71 72  1  0
 71 70  1  0
 72 68  1  0
 73 74  2  0
 74 75  1  0
 76 75  2  0
 77 76  1  0
 78 52  1  0
 78 83  1  0
 78 79  1  0
 79 82  1  1
 79 80  1  0
 81 79  1  0
 83 86  1  0
 84 88  1  0
 84 83  1  0
 85 84  2  0
 88 87  1  0
 90 88  1  0
 90 91  1  0
 90 89  1  0
M  ISO  4  12 100  20 100  50 101  51 101
M  END
>  <TORSDO>  (35) 
F 19

>  <SCORE>  (35) 
-14.199

>  <name>  (35) 
34

>  <ligand_id>  (35) 
34

>  <original_smiles>  (35) 
[H]c1c([H])c(N([H])C(=O)N2C([H])([H])C([H])([H])C([H])([H])C([H])(n3nc(-c4c([H])c([H])c(Oc5c([H])c([H])c(F)c([H])c5F)c([H])c4[H])c(C(=O)N([H])[H])c3N([H])[H])C2([H])[H])c([H])c(C([H])([H])N([H])C(=O)C([H])([H])Oc2c([H])c([H])c3c(c2[H])C([H])([H])N(C(=O)C([H])(N([H])C(=O)C([H])(N([H])C([H])([H])[H])C([H])([H])[H])C(C([H])([H])[H])(C([H])([H])[H])C([H])([H])[H])C([H])(C(=O)N([H])C2([H])c4c([H])c([H])c([H])c([H])c4C([H])([H])C([H])([H])C2([H])[H])C3([H])[H])c1[H]

>  <smiles>  (35) 
[H]c1c([H])c(N([H])C(=O)N2C([H])([H])C([H])([H])C([H])([H])C([H])(n3nc(-c4c([H])c([H])c(Oc5c([H])c([H])c(F)c([H])c5F)c([H])c4[H])c(C(=O)N([H])[H])c3N([H])[H])C2([H])[H])c([H])c(C([H])([H])N([H])C(=O)C([H])([H])Oc2c([H])c([H])c3c(c2[H])C([H])([H])N(C(=O)C([H])(N([H])C(=O)C([H])(N([H])C([H])([H])[H])C([H])([H])[H])C(C([H])([H])[H])(C([H])([H])[H])C([H])([H])[H])C([H])(C(=O)N([H])C2([H])c4c([H])c([H])c([H])c([H])c4C([H])([H])C([H])([H])C2([H])[H])C3([H])[H])c1[H]

$$$$
35:0:0
     RDKit          3D

103111  0  0  1  0  0  0  0  0999 V2000
  -23.7070  -24.6560   16.1230 C   0  0  0  0  0  3  0  0  0  0  0  0
  -24.5420  -25.7890   16.1420 C   0  0  0  0  0  3  0  0  0  0  0  0
  -24.9600  -23.7840   14.2230 C   0  0  0  0  0  3  0  0  0  0  0  0
  -23.9710  -23.6050   15.2160 C   0  0  0  0  0  0  0  0  0  0  0  0
  -25.8170  -24.9040   14.2630 C   0  0  0  0  0  0  0  0  0  0  0  0
  -25.6690  -25.8630   15.2860 C   0  0  0  0  0  0  0  0  0  0  0  0
  -26.9560  -25.0060   13.2720 C   0  0  0  0  0  1  0  0  0  0  0  0
  -23.3050  -22.2670   15.3620 C   0  0  0  0  0  0  0  0  0  0  0  0
  -23.1980  -21.8700   16.6370 N   0  0  0  0  0  0  0  0  0  0  0  0
  -23.0820  -21.5390   14.3930 O   0  0  0  0  0  0  0  0  0  0  0  0
  -23.4290  -22.5790   17.3200 H   0  0  0  0  0  0  0  0  0  0  0  0
  -23.3000  -20.4890   17.1000 C   0  0  0  0  0  2  0  0  0  0  0  0
  -24.7090  -20.1690   17.4080 C   0  0  0  0  0  0  0  0  0  0  0  0
  -25.9160  -20.0980   17.5780 C   0  0  0  0  0  0  0  0  0  0  0  0
  -27.3750  -20.2500   17.6700 C   0  0  0  0  0  2  0  0  0  0  0  0
  -27.9770  -19.2090   18.4330 O   0  0  0  0  0  0  0  0  0  0  0  0
  -29.3890  -19.3870   18.4340 C   0  0  0  0  0  2  0  0  0  0  0  0
  -30.1290  -18.3870   19.3310 C   0  0  0  0  0  2  0  0  0  0  0  0
  -31.6550  -18.5200   19.1240 C   0  0  0  0  0  2  0  0  0  0  0  0
  -32.5350  -17.5980   19.9860 C   0  0  0  0  0  2  0  0  0  0  0  0
  -32.4280  -15.1900   19.2750 C   0  0  0  0  0  0  0  0  0  0  0  0
  -31.9550  -12.8240   18.7380 C   0  0  0  0  0  2  0  0  0  0  0  0
  -30.9490  -12.7000   17.5770 C   0  0  0  0  0  2  0  0  0  0  0  0
  -29.4980  -12.7870   18.0870 C   0  0  0  0  0  2  0  0  0  0  0  0
  -29.2700  -13.9980   19.0260 C   0  0  0  0  0  3  0  0  0  0  0  0
  -30.3580  -14.0360   20.1190 C   0  0  0  0  0  2  0  0  0  0  0  0
  -31.6800  -14.0750   19.4600 N   0  0  0  0  0  0  0  0  0  0  0  0
  -33.4030  -15.2480   18.5160 O   0  0  0  0  0  0  0  0  0  0  0  0
  -32.0310  -16.2320   20.0170 N   0  0  0  0  0  0  0  0  0  0  0  0
  -31.2720  -16.0450   20.6550 H   0  0  0  0  0  0  0  0  0  0  0  0
  -27.1210  -15.0400   19.9930 C   0  0  0  0  0  0  0  0  0  0  0  0
  -25.9430  -14.4800   20.4090 C   0  0  0  0  0  0  0  0  0  0  0  0
  -26.0960  -13.0700   20.2410 C   0  0  0  0  0  0  0  0  0  0  0  0
  -27.9290  -13.9810   19.6040 N   0  0  0  0  0  0  0  0  0  0  0  0
  -27.3170  -12.7870   19.8060 N   0  0  0  0  0  0  0  0  0  0  0  0
  -25.1310  -11.9760   20.4130 C   0  0  0  0  0  0  0  0  0  0  0  0
  -25.4100  -10.8710   21.2460 C   0  0  0  0  0  3  0  0  0  0  0  0
  -24.4580   -9.8400   21.4100 C   0  0  0  0  0  3  0  0  0  0  0  0
  -23.2150   -9.9100   20.7380 C   0  0  0  0  0  0  0  0  0  0  0  0
  -22.9510  -11.0010   19.8930 C   0  0  0  0  0  3  0  0  0  0  0  0
  -23.9010  -12.0240   19.7280 C   0  0  0  0  0  3  0  0  0  0  0  0
  -22.2420   -8.9430   20.8170 O   0  0  0  0  0  0  0  0  0  0  0  0
  -22.0680   -8.1850   21.9470 C   0  0  0  0  0  0  0  0  0  0  0  0
  -21.8060   -8.7720   23.2040 C   0  0  0  0  0  3  0  0  0  0  0  0
  -21.5650   -7.9540   24.3260 C   0  0  0  0  0  3  0  0  0  0  0  0
  -21.5780   -6.5540   24.1930 C   0  0  0  0  0  0  0  0  0  0  0  0
  -21.8340   -5.9680   22.9410 C   0  0  0  0  0  3  0  0  0  0  0  0
  -22.0760   -6.7810   21.8210 C   0  0  0  0  0  0  0  0  0  0  0  0
  -22.3010   -6.2120   20.6120 F   0  0  0  0  0  0  0  0  0  0  0  0
  -21.3390   -5.7670   25.2690 F   0  0  0  0  0  0  0  0  0  0  0  0
  -24.7080  -15.2140   20.8500 C   0  0  0  0  0  0  0  0  0  0  0  0
  -23.9300  -14.6190   21.7450 N   0  0  0  0  0  0  0  0  0  0  0  0
  -24.4550  -16.3450   20.4360 O   0  0  0  0  0  0  0  0  0  0  0  0
  -24.1490  -13.6990   22.1000 H   0  0  0  0  0  0  0  0  0  0  0  0
  -23.1020  -15.0890   22.0820 H   0  0  0  0  0  0  0  0  0  0  0  0
  -27.5630  -16.3550   19.8970 N   0  0  0  0  0  0  0  0  0  0  0  0
  -26.9730  -17.1430   20.1410 H   0  0  0  0  0  0  0  0  0  0  0  0
  -28.4690  -16.6390   19.5460 H   0  0  0  0  0  0  0  0  0  0  0  0
  -26.6970  -26.7530   15.5280 O   0  0  0  0  0  0  0  0  0  0  0  0
  -27.0520  -26.7720   16.9120 C   0  0  0  0  0  2  0  0  0  0  0  0
  -28.5480  -26.7220   17.2620 C   0  0  0  0  0  2  0  0  0  0  0  0
  -28.8300  -26.2470   18.7210 C   0  0  0  0  0  2  0  0  0  0  0  0
  -28.7020  -27.2210   19.7710 O   0  0  0  0  0  0  0  0  0  0  0  0
  -25.0060  -31.8800   23.7200 C   0  0  0  0  0  0  0  0  0  0  0  0
  -27.4880  -27.8280   20.0270 C   0  0  0  0  0  0  0  0  0  0  0  0
  -23.7050  -30.6290   22.0310 C   0  0  0  0  0  3  0  0  0  0  0  0
  -25.0720  -29.2620   20.3860 C   0  0  0  0  0  0  0  0  0  0  0  0
  -26.2070  -31.0580   21.6930 C   0  0  0  0  0  2  0  0  0  0  0  0
  -26.2660  -29.7570   20.9220 C   0  0  0  0  0  0  0  0  0  0  0  0
  -27.4750  -29.0540   20.7290 C   0  0  0  0  0  3  0  0  0  0  0  0
  -26.2460  -27.2850   19.6260 C   0  0  0  0  0  3  0  0  0  0  0  0
  -25.0550  -28.0160   19.7430 C   0  0  0  0  0  3  0  0  0  0  0  0
  -23.8300  -30.0940   20.5820 C   0  0  0  0  0  2  0  0  0  0  0  0
  -24.9960  -31.1940   22.5430 N   0  0  0  0  0  0  0  0  0  0  0  0
  -23.9610  -32.0840   24.3530 O   0  0  0  0  0  0  0  0  0  0  0  0
  -23.1350  -29.5030   22.9200 C   0  0  0  0  0  0  0  0  0  0  0  0
  -21.8540  -29.1590   22.7030 N   0  0  0  0  0  0  0  0  0  0  0  0
  -23.8420  -28.9440   23.7620 O   0  0  0  0  0  0  0  0  0  0  0  0
  -21.3420  -29.6660   21.9950 H   0  0  0  0  0  0  0  0  0  0  0  0
  -18.7170  -27.3780   22.7670 C   0  0  0  0  0  0  0  0  0  0  0  0
  -21.1150  -28.1050   23.3970 C   0  0  0  0  0  3  0  0  0  0  0  0
  -21.5610  -26.7060   22.9120 C   0  0  0  0  0  2  0  0  0  0  0  0
  -20.7010  -26.1620   21.7680 C   0  0  0  0  0  2  0  0  0  0  0  0
  -19.2350  -26.0670   22.1970 C   0  0  0  0  0  2  0  0  0  0  0  0
  -19.6020  -28.3410   23.3180 C   0  0  0  0  0  0  0  0  0  0  0  0
  -19.0730  -29.5580   23.8010 C   0  0  0  0  0  3  0  0  0  0  0  0
  -17.6890  -29.8150   23.7520 C   0  0  0  0  0  3  0  0  0  0  0  0
  -16.8160  -28.8480   23.2250 C   0  0  0  0  0  3  0  0  0  0  0  0
  -17.3300  -27.6360   22.7330 C   0  0  0  0  0  3  0  0  0  0  0  0
  -26.3260  -32.4630   24.3130 C   0  0  0  0  0  3  0  0  0  0  0  0
  -26.0590  -33.8570   24.6950 N   0  0  0  0  0  0  0  0  0  0  0  0
  -26.3820  -34.9230   23.9520 C   0  0  0  0  0  0  0  0  0  0  0  0
  -27.0060  -34.8360   22.8910 O   0  0  0  0  0  0  0  0  0  0  0  0
  -25.4870  -33.9990   25.5150 H   0  0  0  0  0  0  0  0  0  0  0  0
  -24.6660  -36.7430   23.7190 C   0  0  0  0  0  1  0  0  0  0  0  0
  -25.9360  -36.3030   24.4630 C   0  0  0  0  0  3  0  0  0  0  0  0
  -28.1220  -37.1280   25.2150 C   0  0  0  0  0  1  0  0  0  0  0  0
  -26.9780  -37.3430   24.3330 N   0  0  0  0  0  0  0  0  0  0  0  0
  -26.5960  -38.2650   24.5270 H   0  0  0  0  0  0  0  0  0  0  0  0
  -26.8740  -31.6410   25.5440 C   0  0  1  0  0  0  0  0  0  0  0  0
  -25.8060  -31.3610   26.6260 C   0  0  0  0  0  1  0  0  0  0  0  0
  -27.4450  -30.2820   25.0790 C   0  0  0  0  0  1  0  0  0  0  0  0
  -28.0440  -32.4020   26.2100 C   0  0  0  0  0  1  0  0  0  0  0  0
  1  2  1  0
  3  5  2  0
  3  4  1  0
  4  8  1  0
  4  1  2  0
  5  6  1  0
  6 59  1  0
  6  2  2  0
  7  5  1  0
  8  9  1  0
  9 12  1  0
  9 11  1  0
 10  8  2  0
 12 13  1  0
 13 14  3  0
 14 15  1  0
 15 16  1  0
 16 17  1  0
 17 18  1  0
 19 18  1  0
 19 20  1  0
 20 29  1  0
 21 27  1  0
 21 29  1  0
 22 27  1  0
 23 24  1  0
 23 22  1  0
 25 24  1  0
 25 34  1  0
 25 26  1  0
 27 26  1  0
 28 21  2  0
 29 30  1  0
 31 32  2  0
 32 51  1  0
 33 32  1  0
 33 36  1  0
 34 35  1  0
 34 31  1  0
 35 33  2  0
 36 37  1  0
 37 38  2  0
 39 42  1  0
 39 38  1  0
 40 39  2  0
 41 40  1  0
 41 36  2  0
 42 43  1  0
 43 44  1  0
 44 45  2  0
 46 45  1  0
 46 50  1  0
 47 46  2  0
 48 43  2  0
 48 47  1  0
 49 48  1  0
 51 52  1  0
 52 55  1  0
 52 54  1  0
 53 51  2  0
 56 31  1  0
 56 57  1  0
 58 56  1  0
 59 60  1  0
 60 61  1  0
 61 62  1  0
 62 63  1  0
 63 65  1  0
 64 75  2  0
 65 70  1  0
 66 74  1  0
 66 76  1  0
 67 73  1  0
 67 69  1  0
 68 74  1  0
 69 68  1  0
 70 69  2  0
 71 72  1  0
 71 65  2  0
 72 67  2  0
 73 66  1  0
 74 64  1  0
 76 78  2  0
 77 76  1  0
 79 77  1  0
 80 85  1  0
 81 77  1  0
 82 81  1  0
 83 84  1  0
 83 82  1  0
 84 80  1  0
 85 81  1  0
 85 86  2  0
 87 86  1  0
 88 87  2  0
 89 80  2  0
 89 88  1  0
 90 64  1  0
 90 91  1  0
 90100  1  0
 91 94  1  0
 92 96  1  0
 92 91  1  0
 93 92  2  0
 96 95  1  0
 98 96  1  0
 98 99  1  0
 98 97  1  0
100103  1  1
100101  1  0
102100  1  0
M  ISO  4  21 100  29 100  62 101  63 101
M  END
>  <TORSDO>  (36) 
F 29

>  <SCORE>  (36) 
-4.935

>  <name>  (36) 
35

>  <ligand_id>  (36) 
35

>  <original_smiles>  (36) 
[H]c1c([H])c([H])c2c(c1[H])C([H])([H])C([H])([H])C([H])([H])C2([H])N([H])C(=O)C1([H])N(C(=O)C([H])(N([H])C(=O)C([H])(N([H])C([H])([H])[H])C([H])([H])[H])C(C([H])([H])[H])(C([H])([H])[H])C([H])([H])[H])C([H])([H])c2c([H])c(OC([H])([H])C([H])([H])C([H])([H])Oc3c([H])c([H])c(C(=O)N([H])C([H])([H])C#CC([H])([H])OC([H])([H])C([H])([H])C([H])([H])C([H])([H])N([H])C(=O)N4C([H])([H])C([H])([H])C([H])([H])C([H])(n5nc(-c6c([H])c([H])c(Oc7c([H])c([H])c(F)c([H])c7F)c([H])c6[H])c(C(=O)N([H])[H])c5N([H])[H])C4([H])[H])c([H])c3C([H])([H])[H])c([H])c([H])c2C1([H])[H]

>  <smiles>  (36) 
[H]c1c([H])c([H])c2c(c1[H])C([H])([H])C([H])([H])C([H])([H])C2([H])N([H])C(=O)C1([H])N(C(=O)C([H])(N([H])C(=O)C([H])(N([H])C([H])([H])[H])C([H])([H])[H])C(C([H])([H])[H])(C([H])([H])[H])C([H])([H])[H])C([H])([H])c2c([H])c(OC([H])([H])C([H])([H])C([H])([H])Oc3c([H])c([H])c(C(=O)N([H])C([H])([H])C#CC([H])([H])OC([H])([H])C([H])([H])C([H])([H])C([H])([H])N([H])C(=O)N4C([H])([H])C([H])([H])C([H])([H])C([H])(n5nc(-c6c([H])c([H])c(Oc7c([H])c([H])c(F)c([H])c7F)c([H])c6[H])c(C(=O)N([H])[H])c5N([H])[H])C4([H])[H])c([H])c3C([H])([H])[H])c([H])c([H])c2C1([H])[H]

$$$$
36:0:0
     RDKit          3D

111119  0  0  1  0  0  0  0  0999 V2000
  -22.8170  -18.6490   26.5440 C   0  0  0  0  0  1  0  0  0  0  0  0
  -24.1720  -18.3190   26.0380 N   0  0  2  0  0  4  0  0  0  0  0  0
  -24.0050  -17.8760   25.1470 H   0  0  0  0  0  0  0  0  0  0  0  0
  -24.8660  -17.3380   26.9220 C   0  0  0  0  0  2  0  0  0  0  0  0
  -26.1250  -16.6400   26.3270 C   0  0  0  0  0  2  0  0  0  0  0  0
  -24.9110  -15.3060   24.6570 C   0  0  0  0  0  0  0  0  0  0  0  0
  -25.9940  -16.0440   24.9810 N   0  0  0  0  0  0  0  0  0  0  0  0
  -24.1280  -15.6680   23.7770 O   0  0  0  0  0  0  0  0  0  0  0  0
  -28.3900  -16.0690   22.0690 C   0  0  0  0  0  3  0  0  0  0  0  0
  -27.2390  -16.3110   22.8510 C   0  0  0  0  0  3  0  0  0  0  0  0
  -29.4450  -14.9680   23.9730 C   0  0  0  0  0  3  0  0  0  0  0  0
  -29.4820  -15.3650   22.6220 C   0  0  0  0  0  0  0  0  0  0  0  0
  -27.1770  -15.8650   24.1960 C   0  0  0  0  0  0  0  0  0  0  0  0
  -28.2990  -15.2060   24.7510 C   0  0  0  0  0  0  0  0  0  0  0  0
  -28.2690  -14.7500   26.0250 F   0  0  0  0  0  0  0  0  0  0  0  0
  -30.8040  -14.3570   20.7300 C   0  0  0  0  0  0  0  0  0  0  0  0
  -30.4130  -12.3160   19.3980 C   0  0  0  0  0  2  0  0  0  0  0  0
  -29.4840  -12.5640   18.1940 C   0  0  0  0  0  2  0  0  0  0  0  0
  -28.0040  -12.4120   18.5960 C   0  0  0  0  0  2  0  0  0  0  0  0
  -27.6650  -13.2020   19.8820 C   0  0  0  0  0  3  0  0  0  0  0  0
  -28.6980  -12.8930   20.9850 C   0  0  0  0  0  2  0  0  0  0  0  0
  -30.0440  -13.2450   20.4860 N   0  0  0  0  0  0  0  0  0  0  0  0
  -31.7650  -14.6670   20.0170 O   0  0  0  0  0  0  0  0  0  0  0  0
  -30.6360  -15.0630   21.8650 N   0  0  0  0  0  0  0  0  0  0  0  0
  -31.4280  -15.6590   22.0690 H   0  0  0  0  0  0  0  0  0  0  0  0
  -25.2560  -13.8130   20.5610 C   0  0  0  0  0  0  0  0  0  0  0  0
  -24.1830  -13.0440   20.9180 C   0  0  0  0  0  0  0  0  0  0  0  0
  -24.6390  -11.6910   20.8750 C   0  0  0  0  0  0  0  0  0  0  0  0
  -26.3030  -12.9320   20.3380 N   0  0  0  0  0  0  0  0  0  0  0  0
  -25.9310  -11.6480   20.5760 N   0  0  0  0  0  0  0  0  0  0  0  0
  -23.9070  -10.4290   21.0410 C   0  0  0  0  0  0  0  0  0  0  0  0
  -24.3630   -9.4180   21.9150 C   0  0  0  0  0  3  0  0  0  0  0  0
  -23.6310   -8.2220   22.0690 C   0  0  0  0  0  3  0  0  0  0  0  0
  -22.4270   -8.0290   21.3540 C   0  0  0  0  0  0  0  0  0  0  0  0
  -21.9920   -9.0250   20.4610 C   0  0  0  0  0  3  0  0  0  0  0  0
  -22.7280  -10.2100   20.3030 C   0  0  0  0  0  3  0  0  0  0  0  0
  -21.6640   -6.8890   21.4250 O   0  0  0  0  0  0  0  0  0  0  0  0
  -21.6880   -6.0740   22.5280 C   0  0  0  0  0  0  0  0  0  0  0  0
  -21.4050   -6.5610   23.8220 C   0  0  0  0  0  3  0  0  0  0  0  0
  -21.3650   -5.6720   24.9150 C   0  0  0  0  0  3  0  0  0  0  0  0
  -21.6040   -4.2980   24.7180 C   0  0  0  0  0  0  0  0  0  0  0  0
  -21.8840   -3.8130   23.4290 C   0  0  0  0  0  3  0  0  0  0  0  0
  -21.9200   -4.6970   22.3380 C   0  0  0  0  0  0  0  0  0  0  0  0
  -22.1670   -4.2200   21.0950 F   0  0  0  0  0  0  0  0  0  0  0  0
  -21.5610   -3.4440   25.7660 F   0  0  0  0  0  0  0  0  0  0  0  0
  -22.7870  -13.5270   21.1900 C   0  0  0  0  0  0  0  0  0  0  0  0
  -22.0510  -12.8170   22.0400 N   0  0  0  0  0  0  0  0  0  0  0  0
  -22.3550  -14.5570   20.6760 O   0  0  0  0  0  0  0  0  0  0  0  0
  -22.4020  -11.9730   22.4610 H   0  0  0  0  0  0  0  0  0  0  0  0
  -21.1190  -13.1270   22.2750 H   0  0  0  0  0  0  0  0  0  0  0  0
  -25.4190  -15.1820   20.3800 N   0  0  0  0  0  0  0  0  0  0  0  0
  -24.6570  -15.8320   20.5270 H   0  0  0  0  0  0  0  0  0  0  0  0
  -26.2670  -15.6270   20.0590 H   0  0  0  0  0  0  0  0  0  0  0  0
  -25.3810  -12.8300   24.7150 C   0  0  0  0  0  1  0  0  0  0  0  0
  -24.6710  -13.9900   25.4310 C   0  0  0  0  0  3  0  0  0  0  0  0
  -22.3430  -14.6290   26.4350 C   0  0  0  0  0  1  0  0  0  0  0  0
  -23.1770  -13.6270   25.6230 C   0  0  0  0  0  2  0  0  0  0  0  0
  -24.9740  -19.5430   25.7730 C   0  0  0  0  0  2  0  0  0  0  0  0
  -25.5690  -19.5380   24.3570 C   0  0  0  0  0  2  0  0  0  0  0  0
  -26.6480  -20.6110   24.1650 C   0  0  0  0  0  2  0  0  0  0  0  0
  -27.2890  -20.5390   22.7730 C   0  0  0  0  0  2  0  0  0  0  0  0
  -28.5400  -21.4200   22.6640 C   0  0  0  0  0  2  0  0  0  0  0  0
  -29.1790  -21.3630   21.2660 C   0  0  0  0  0  2  0  0  0  0  0  0
  -30.6070  -21.9470   21.2070 C   0  0  0  0  0  2  0  0  0  0  0  0
  -30.7400  -23.4200   21.6370 C   0  0  0  0  0  2  0  0  0  0  0  0
  -29.8020  -24.8390   19.8030 C   0  0  0  0  0  0  0  0  0  0  0  0
  -29.7330  -24.2670   21.0090 N   0  0  0  0  0  0  0  0  0  0  0  0
  -30.8020  -24.7840   19.0820 O   0  0  0  0  0  0  0  0  0  0  0  0
  -28.8650  -24.3890   21.5130 H   0  0  0  0  0  0  0  0  0  0  0  0
  -28.5360  -25.5650   19.3480 C   0  0  0  0  0  2  0  0  0  0  0  0
  -28.4290  -26.7860   20.0760 O   0  0  0  0  0  0  0  0  0  0  0  0
  -24.6100  -31.8720   23.2160 C   0  0  0  0  0  0  0  0  0  0  0  0
  -27.2320  -27.4680   20.0670 C   0  0  0  0  0  0  0  0  0  0  0  0
  -23.3940  -30.4990   21.5560 C   0  0  0  0  0  3  0  0  0  0  0  0
  -24.8370  -28.9740   20.1120 C   0  0  0  0  0  0  0  0  0  0  0  0
  -25.9220  -30.8430   21.3690 C   0  0  0  0  0  2  0  0  0  0  0  0
  -25.9950  -29.4820   20.7090 C   0  0  0  0  0  0  0  0  0  0  0  0
  -27.1910  -28.7330   20.6910 C   0  0  0  0  0  3  0  0  0  0  0  0
  -26.0500  -26.9670   19.4690 C   0  0  0  0  0  3  0  0  0  0  0  0
  -24.8570  -27.7130   19.4930 C   0  0  0  0  0  3  0  0  0  0  0  0
  -23.5980  -29.8380   20.1680 C   0  0  0  0  0  2  0  0  0  0  0  0
  -24.6600  -31.0850   22.1050 N   0  0  0  0  0  0  0  0  0  0  0  0
  -23.5310  -32.1460   23.7580 O   0  0  0  0  0  0  0  0  0  0  0  0
  -22.7380  -29.4680   22.5010 C   0  0  0  0  0  0  0  0  0  0  0  0
  -21.4110  -29.3020   22.3740 N   0  0  0  0  0  0  0  0  0  0  0  0
  -23.4170  -28.8220   23.3040 O   0  0  0  0  0  0  0  0  0  0  0  0
  -20.9260  -29.8700   21.6940 H   0  0  0  0  0  0  0  0  0  0  0  0
  -18.0270  -28.1380   22.8480 C   0  0  0  0  0  0  0  0  0  0  0  0
  -20.5850  -28.3660   23.1340 C   0  0  0  0  0  3  0  0  0  0  0  0
  -20.6760  -26.9400   22.5440 C   0  0  0  0  0  2  0  0  0  0  0  0
  -19.5760  -26.6390   21.5210 C   0  0  0  0  0  2  0  0  0  0  0  0
  -18.1920  -26.7940   22.1580 C   0  0  0  0  0  2  0  0  0  0  0  0
  -19.1520  -28.8840   23.2900 C   0  0  0  0  0  0  0  0  0  0  0  0
  -18.9440  -30.1440   23.8910 C   0  0  0  0  0  3  0  0  0  0  0  0
  -17.6450  -30.6580   24.0570 C   0  0  0  0  0  3  0  0  0  0  0  0
  -16.5340  -29.9080   23.6330 C   0  0  0  0  0  3  0  0  0  0  0  0
  -16.7260  -28.6510   23.0330 C   0  0  0  0  0  3  0  0  0  0  0  0
  -25.9030  -32.4840   23.8420 C   0  0  0  0  0  3  0  0  0  0  0  0
  -25.5910  -33.8640   24.2350 N   0  0  0  0  0  0  0  0  0  0  0  0
  -25.9030  -34.9480   23.5140 C   0  0  0  0  0  0  0  0  0  0  0  0
  -26.5580  -34.8930   22.4680 O   0  0  0  0  0  0  0  0  0  0  0  0
  -25.0080  -33.9820   25.0500 H   0  0  0  0  0  0  0  0  0  0  0  0
  -24.1490  -36.7310   23.2640 C   0  0  0  0  0  1  0  0  0  0  0  0
  -25.4110  -36.3120   24.0340 C   0  0  0  0  0  3  0  0  0  0  0  0
  -27.5600  -37.1800   24.8460 C   0  0  0  0  0  1  0  0  0  0  0  0
  -26.4300  -37.3800   23.9410 N   0  0  0  0  0  0  0  0  0  0  0  0
  -26.0200  -38.2890   24.1420 H   0  0  0  0  0  0  0  0  0  0  0  0
  -26.4470  -31.6600   25.0730 C   0  0  1  0  0  0  0  0  0  0  0  0
  -25.3740  -31.3770   26.1510 C   0  0  0  0  0  1  0  0  0  0  0  0
  -27.0220  -30.3010   24.6120 C   0  0  0  0  0  1  0  0  0  0  0  0
  -27.6100  -32.4290   25.7420 C   0  0  0  0  0  1  0  0  0  0  0  0
  2  1  1  0
  2  4  1  0
  2  3  1  6
  5  4  1  0
  6  7  1  0
  6 55  1  0
  7  5  1  0
  8  6  2  0
  9 12  2  0
  9 10  1  0
 10 13  2  0
 11 14  2  0
 12 11  1  0
 13 14  1  0
 13  7  1  0
 14 15  1  0
 16 24  1  0
 17 22  1  0
 18 19  1  0
 18 17  1  0
 20 19  1  0
 20 29  1  0
 20 21  1  0
 22 16  1  0
 22 21  1  0
 23 16  2  0
 24 25  1  0
 24 12  1  0
 26 27  2  0
 27 46  1  0
 28 27  1  0
 28 31  1  0
 29 26  1  0
 29 30  1  0
 30 28  2  0
 31 32  1  0
 32 33  2  0
 34 37  1  0
 34 33  1  0
 35 34  2  0
 36 35  1  0
 36 31  2  0
 37 38  1  0
 38 39  1  0
 39 40  2  0
 41 40  1  0
 41 45  1  0
 42 41  2  0
 43 38  2  0
 43 42  1  0
 44 43  1  0
 46 47  1  0
 47 50  1  0
 47 49  1  0
 48 46  2  0
 51 52  1  0
 51 26  1  0
 53 51  1  0
 55 54  1  0
 55 57  1  0
 57 56  1  0
 58  2  1  0
 59 58  1  0
 60 59  1  0
 61 60  1  0
 62 61  1  0
 63 62  1  0
 64 63  1  0
 64 65  1  0
 66 67  1  0
 67 69  1  0
 67 65  1  0
 68 66  2  0
 70 66  1  0
 70 71  1  0
 72 83  2  0
 73 71  1  0
 73 78  1  0
 74 82  1  0
 74 84  1  0
 75 81  1  0
 75 77  1  0
 76 82  1  0
 77 76  1  0
 78 77  2  0
 79 80  1  0
 79 73  2  0
 80 75  2  0
 81 74  1  0
 82 72  1  0
 84 86  2  0
 85 84  1  0
 87 85  1  0
 88 97  2  0
 88 93  1  0
 89 85  1  0
 89 93  1  0
 90 89  1  0
 91 92  1  0
 91 90  1  0
 92 88  1  0
 93 94  2  0
 94 95  1  0
 96 95  2  0
 97 96  1  0
 98 72  1  0
 98 99  1  0
 98108  1  0
 99102  1  0
100104  1  0
100 99  1  0
101100  2  0
104103  1  0
106104  1  0
106107  1  0
106105  1  0
108111  1  1
108109  1  0
110108  1  0
M  ISO  4  16 100  24 100  70 101  71 101
M  END
>  <TORSDO>  (37) 
F 32

>  <SCORE>  (37) 
109.695

>  <name>  (37) 
36

>  <ligand_id>  (37) 
36

>  <original_smiles>  (37) 
[H]c1c([H])c([H])c2c(c1[H])C([H])([H])C([H])([H])C([H])([H])C2([H])N([H])C(=O)C1([H])N(C(=O)C([H])(N([H])C(=O)C([H])(N([H])C([H])([H])[H])C([H])([H])[H])C(C([H])([H])[H])(C([H])([H])[H])C([H])([H])[H])C([H])([H])c2c([H])c(OC([H])([H])C(=O)N([H])C([H])([H])C([H])([H])C([H])([H])C([H])([H])C([H])([H])C([H])([H])C([H])([H])C([H])([H])[N+]([H])(C([H])([H])[H])C([H])([H])C([H])([H])N(C(=O)C([H])(C([H])([H])[H])C([H])([H])C([H])([H])[H])c3c([H])c([H])c(N([H])C(=O)N4C([H])([H])C([H])([H])C([H])([H])C([H])(n5nc(-c6c([H])c([H])c(Oc7c([H])c([H])c(F)c([H])c7F)c([H])c6[H])c(C(=O)N([H])[H])c5N([H])[H])C4([H])[H])c([H])c3F)c([H])c([H])c2C1([H])[H]

>  <smiles>  (37) 
[H]c1c([H])c([H])c2c(c1[H])C([H])([H])C([H])([H])C([H])([H])C2([H])N([H])C(=O)C1([H])N(C(=O)C([H])(N([H])C(=O)C([H])(N([H])C([H])([H])[H])C([H])([H])[H])C(C([H])([H])[H])(C([H])([H])[H])C([H])([H])[H])C([H])([H])c2c([H])c(OC([H])([H])C(=O)N([H])C([H])([H])C([H])([H])C([H])([H])C([H])([H])C([H])([H])C([H])([H])C([H])([H])C([H])([H])[N+]([H])(C([H])([H])[H])C([H])([H])C([H])([H])N(C(=O)C([H])(C([H])([H])[H])C([H])([H])C([H])([H])[H])c3c([H])c([H])c(N([H])C(=O)N4C([H])([H])C([H])([H])C([H])([H])C([H])(n5nc(-c6c([H])c([H])c(Oc7c([H])c([H])c(F)c([H])c7F)c([H])c6[H])c(C(=O)N([H])[H])c5N([H])[H])C4([H])[H])c([H])c3F)c([H])c([H])c2C1([H])[H]

$$$$
37:0:0
     RDKit          3D

 96104  0  0  1  0  0  0  0  0999 V2000
  -28.2770  -21.0100   20.7770 C   0  0  0  0  0  0  0  0  0  0  0  0
  -27.7530  -19.9040   18.6280 C   0  0  0  0  0  1  0  0  0  0  0  0
  -27.5700  -22.0600   20.3300 N   0  0  0  0  0  0  0  0  0  0  0  0
  -28.5740  -20.0900   19.8310 N   0  0  0  0  0  0  0  0  0  0  0  0
  -28.6560  -20.9250   21.9480 O   0  0  0  0  0  0  0  0  0  0  0  0
  -27.3110  -22.0290   19.3550 H   0  0  0  0  0  0  0  0  0  0  0  0
  -32.1210  -18.9640   19.9040 C   0  0  0  0  0  3  0  0  0  0  0  0
  -31.9900  -17.6380   20.3500 C   0  0  0  0  0  3  0  0  0  0  0  0
  -30.9770  -19.7490   19.6890 C   0  0  0  0  0  3  0  0  0  0  0  0
  -30.7080  -17.0680   20.5550 C   0  0  0  0  0  0  0  0  0  0  0  0
  -29.7010  -19.2390   20.0020 C   0  0  0  0  0  0  0  0  0  0  0  0
  -29.5670  -17.9040   20.4620 C   0  0  0  0  0  0  0  0  0  0  0  0
  -28.0160  -17.2880   20.9100 Cl  0  0  0  0  0  0  0  0  0  0  0  0
  -31.0640  -14.6670   20.1130 C   0  0  0  0  0  0  0  0  0  0  0  0
  -30.6110  -12.5630   18.9240 C   0  0  0  0  0  2  0  0  0  0  0  0
  -29.6240  -12.8390   17.7740 C   0  0  0  0  0  2  0  0  0  0  0  0
  -28.1670  -12.7320   18.2670 C   0  0  0  0  0  2  0  0  0  0  0  0
  -27.9120  -13.5210   19.5800 C   0  0  0  0  0  3  0  0  0  0  0  0
  -29.0230  -13.2700   20.6270 C   0  0  0  0  0  2  0  0  0  0  0  0
  -30.3270  -13.5300   19.9970 N   0  0  0  0  0  0  0  0  0  0  0  0
  -32.1420  -14.8040   19.5320 O   0  0  0  0  0  0  0  0  0  0  0  0
  -30.5130  -15.6740   20.8170 N   0  0  0  0  0  0  0  0  0  0  0  0
  -29.6310  -15.4490   21.2550 H   0  0  0  0  0  0  0  0  0  0  0  0
  -25.5580  -14.1340   20.4220 C   0  0  0  0  0  0  0  0  0  0  0  0
  -24.4990  -13.3690   20.8220 C   0  0  0  0  0  0  0  0  0  0  0  0
  -24.9360  -12.0120   20.7280 C   0  0  0  0  0  0  0  0  0  0  0  0
  -26.5800  -13.2470   20.1190 N   0  0  0  0  0  0  0  0  0  0  0  0
  -26.2090  -11.9620   20.3560 N   0  0  0  0  0  0  0  0  0  0  0  0
  -24.1950  -10.7570   20.9160 C   0  0  0  0  0  0  0  0  0  0  0  0
  -24.6050   -9.7890   21.8580 C   0  0  0  0  0  3  0  0  0  0  0  0
  -23.8660   -8.5990   22.0340 C   0  0  0  0  0  3  0  0  0  0  0  0
  -22.7000   -8.3670   21.2650 C   0  0  0  0  0  0  0  0  0  0  0  0
  -22.3070   -9.3250   20.3130 C   0  0  0  0  0  3  0  0  0  0  0  0
  -23.0480  -10.5060   20.1360 C   0  0  0  0  0  3  0  0  0  0  0  0
  -21.9350   -7.2300   21.3490 O   0  0  0  0  0  0  0  0  0  0  0  0
  -21.7950   -6.5400   22.5280 C   0  0  0  0  0  0  0  0  0  0  0  0
  -21.2510   -7.1420   23.6830 C   0  0  0  0  0  3  0  0  0  0  0  0
  -21.0640   -6.3780   24.8530 C   0  0  0  0  0  3  0  0  0  0  0  0
  -21.4060   -5.0130   24.8660 C   0  0  0  0  0  0  0  0  0  0  0  0
  -21.9390   -4.4100   23.7120 C   0  0  0  0  0  3  0  0  0  0  0  0
  -22.1310   -5.1720   22.5470 C   0  0  0  0  0  0  0  0  0  0  0  0
  -22.6260   -4.5800   21.4330 F   0  0  0  0  0  0  0  0  0  0  0  0
  -21.2180   -4.2760   25.9860 F   0  0  0  0  0  0  0  0  0  0  0  0
  -23.1280  -13.8610   21.1870 C   0  0  0  0  0  0  0  0  0  0  0  0
  -22.4400  -13.1590   22.0790 N   0  0  0  0  0  0  0  0  0  0  0  0
  -22.6770  -14.9060   20.7190 O   0  0  0  0  0  0  0  0  0  0  0  0
  -22.8160  -12.3130   22.4820 H   0  0  0  0  0  0  0  0  0  0  0  0
  -21.5220  -13.4710   22.3630 H   0  0  0  0  0  0  0  0  0  0  0  0
  -25.7280  -15.5040   20.2680 N   0  0  0  0  0  0  0  0  0  0  0  0
  -24.9920  -16.1710   20.4710 H   0  0  0  0  0  0  0  0  0  0  0  0
  -26.6100  -15.9480   20.0490 H   0  0  0  0  0  0  0  0  0  0  0  0
  -26.9810  -23.1250   21.1460 C   0  0  0  0  0  2  0  0  0  0  0  0
  -28.0100  -24.0980   21.7760 C   0  0  0  0  0  2  0  0  0  0  0  0
  -27.9330  -25.5480   21.2690 C   0  0  0  0  0  2  0  0  0  0  0  0
  -28.4440  -25.7500   19.8260 C   0  0  0  0  0  2  0  0  0  0  0  0
  -28.4680  -27.1340   19.4670 O   0  0  0  0  0  0  0  0  0  0  0  0
  -24.5570  -31.7790   23.1220 C   0  0  0  0  0  0  0  0  0  0  0  0
  -27.2680  -27.8010   19.5360 C   0  0  0  0  0  0  0  0  0  0  0  0
  -23.3500  -30.5040   21.3780 C   0  0  0  0  0  3  0  0  0  0  0  0
  -24.8150  -29.1750   19.7700 C   0  0  0  0  0  0  0  0  0  0  0  0
  -25.8520  -30.9860   21.1510 C   0  0  0  0  0  2  0  0  0  0  0  0
  -25.9710  -29.6950   20.3700 C   0  0  0  0  0  0  0  0  0  0  0  0
  -27.1990  -29.0140   20.2490 C   0  0  0  0  0  3  0  0  0  0  0  0
  -26.1000  -27.2900   18.9310 C   0  0  0  0  0  3  0  0  0  0  0  0
  -24.8750  -27.9710   19.0480 C   0  0  0  0  0  3  0  0  0  0  0  0
  -23.5420  -29.9740   19.9340 C   0  0  0  0  0  2  0  0  0  0  0  0
  -24.6050  -31.0990   21.9430 N   0  0  0  0  0  0  0  0  0  0  0  0
  -23.4840  -31.9520   23.7150 O   0  0  0  0  0  0  0  0  0  0  0  0
  -22.7680  -29.3660   22.2470 C   0  0  0  0  0  0  0  0  0  0  0  0
  -21.4480  -29.1460   22.1330 N   0  0  0  0  0  0  0  0  0  0  0  0
  -23.4980  -28.6900   22.9780 O   0  0  0  0  0  0  0  0  0  0  0  0
  -20.9230  -29.7440   21.5100 H   0  0  0  0  0  0  0  0  0  0  0  0
  -18.1360  -27.7770   22.5840 C   0  0  0  0  0  0  0  0  0  0  0  0
  -20.6890  -28.1040   22.8230 C   0  0  0  0  0  3  0  0  0  0  0  0
  -20.8290  -26.7440   22.1010 C   0  0  0  0  0  2  0  0  0  0  0  0
  -19.7130  -26.4790   21.0860 C   0  0  0  0  0  2  0  0  0  0  0  0
  -18.3440  -26.5080   21.7710 C   0  0  0  0  0  2  0  0  0  0  0  0
  -19.2370  -28.5340   23.0630 C   0  0  0  0  0  0  0  0  0  0  0  0
  -18.9910  -29.7250   23.7810 C   0  0  0  0  0  3  0  0  0  0  0  0
  -17.6750  -30.1600   24.0230 C   0  0  0  0  0  3  0  0  0  0  0  0
  -16.5880  -29.4000   23.5600 C   0  0  0  0  0  3  0  0  0  0  0  0
  -16.8200  -28.2080   22.8490 C   0  0  0  0  0  3  0  0  0  0  0  0
  -25.8400  -32.3910   23.7680 C   0  0  0  0  0  3  0  0  0  0  0  0
  -25.5190  -33.7680   24.1580 N   0  0  0  0  0  0  0  0  0  0  0  0
  -25.8530  -34.8580   23.4510 C   0  0  0  0  0  0  0  0  0  0  0  0
  -26.5340  -34.8050   22.4240 O   0  0  0  0  0  0  0  0  0  0  0  0
  -24.9120  -33.8850   24.9560 H   0  0  0  0  0  0  0  0  0  0  0  0
  -24.1160  -36.6540   23.1560 C   0  0  0  0  0  1  0  0  0  0  0  0
  -25.3480  -36.2180   23.9660 C   0  0  0  0  0  3  0  0  0  0  0  0
  -27.4590  -37.0770   24.8790 C   0  0  0  0  0  1  0  0  0  0  0  0
  -26.3760  -37.2810   23.9210 N   0  0  0  0  0  0  0  0  0  0  0  0
  -25.9620  -38.1920   24.1000 H   0  0  0  0  0  0  0  0  0  0  0  0
  -26.3700  -31.5660   25.0030 C   0  0  1  0  0  0  0  0  0  0  0  0
  -25.2860  -31.2730   26.0650 C   0  0  0  0  0  1  0  0  0  0  0  0
  -26.9580  -30.2120   24.5430 C   0  0  0  0  0  1  0  0  0  0  0  0
  -27.5170  -32.3390   25.6960 C   0  0  0  0  0  1  0  0  0  0  0  0
  1  5  2  0
  2  4  1  0
  3  1  1  0
  3 52  1  0
  4 11  1  0
  4  1  1  0
  6  3  1  0
  7  8  1  0
  8 10  2  0
  9  7  2  0
  9 11  1  0
 10 22  1  0
 11 12  2  0
 12 10  1  0
 12 13  1  0
 14 22  1  0
 15 20  1  0
 16 17  1  0
 16 15  1  0
 18 17  1  0
 18 27  1  0
 18 19  1  0
 20 14  1  0
 20 19  1  0
 21 14  2  0
 22 23  1  0
 24 25  2  0
 25 44  1  0
 26 25  1  0
 26 29  1  0
 27 28  1  0
 27 24  1  0
 28 26  2  0
 29 30  1  0
 30 31  2  0
 32 35  1  0
 32 31  1  0
 33 32  2  0
 34 33  1  0
 34 29  2  0
 35 36  1  0
 36 41  2  0
 36 37  1  0
 37 38  2  0
 38 39  1  0
 39 43  1  0
 40 39  2  0
 41 40  1  0
 42 41  1  0
 44 45  1  0
 45 48  1  0
 45 47  1  0
 46 44  2  0
 49 24  1  0
 49 50  1  0
 51 49  1  0
 52 53  1  0
 54 53  1  0
 55 54  1  0
 56 58  1  0
 56 55  1  0
 57 68  2  0
 58 63  1  0
 59 67  1  0
 59 69  1  0
 60 66  1  0
 60 62  1  0
 61 67  1  0
 62 61  1  0
 63 62  2  0
 64 65  1  0
 64 58  2  0
 65 60  2  0
 66 59  1  0
 67 57  1  0
 69 71  2  0
 70 69  1  0
 72 70  1  0
 73 82  2  0
 73 78  1  0
 74 70  1  0
 74 78  1  0
 75 74  1  0
 76 77  1  0
 76 75  1  0
 77 73  1  0
 78 79  2  0
 79 80  1  0
 81 80  2  0
 82 81  1  0
 83 57  1  0
 83 84  1  0
 83 93  1  0
 84 87  1  0
 85 89  1  0
 85 84  1  0
 86 85  2  0
 89 88  1  0
 91 89  1  0
 91 92  1  0
 91 90  1  0
 93 96  1  1
 93 94  1  0
 95 93  1  0
M  ISO  4  14 100  22 100  55 101  56 101
M  END
>  <TORSDO>  (38) 
F 21

>  <SCORE>  (38) 
-12.669

>  <name>  (38) 
37

>  <ligand_id>  (38) 
37

>  <original_smiles>  (38) 
[H]c1c([H])c(N([H])C(=O)N2C([H])([H])C([H])([H])C([H])([H])C([H])(n3nc(-c4c([H])c([H])c(Oc5c([H])c([H])c(F)c([H])c5F)c([H])c4[H])c(C(=O)N([H])[H])c3N([H])[H])C2([H])[H])c(Cl)c(N(C(=O)N([H])C([H])([H])C([H])([H])C([H])([H])C([H])([H])Oc2c([H])c([H])c3c(c2[H])C([H])([H])N(C(=O)C([H])(N([H])C(=O)C([H])(N([H])C([H])([H])[H])C([H])([H])[H])C(C([H])([H])[H])(C([H])([H])[H])C([H])([H])[H])C([H])(C(=O)N([H])C2([H])c4c([H])c([H])c([H])c([H])c4C([H])([H])C([H])([H])C2([H])[H])C3([H])[H])C([H])([H])[H])c1[H]

>  <smiles>  (38) 
[H]c1c([H])c(N([H])C(=O)N2C([H])([H])C([H])([H])C([H])([H])C([H])(n3nc(-c4c([H])c([H])c(Oc5c([H])c([H])c(F)c([H])c5F)c([H])c4[H])c(C(=O)N([H])[H])c3N([H])[H])C2([H])[H])c(Cl)c(N(C(=O)N([H])C([H])([H])C([H])([H])C([H])([H])C([H])([H])Oc2c([H])c([H])c3c(c2[H])C([H])([H])N(C(=O)C([H])(N([H])C(=O)C([H])(N([H])C([H])([H])[H])C([H])([H])[H])C(C([H])([H])[H])(C([H])([H])[H])C([H])([H])[H])C([H])(C(=O)N([H])C2([H])c4c([H])c([H])c([H])c([H])c4C([H])([H])C([H])([H])C2([H])[H])C3([H])[H])C([H])([H])[H])c1[H]

$$$$
38:0:0
     RDKit          3D

 94102  0  0  1  0  0  0  0  0999 V2000
  -29.7580  -21.4270   22.5580 C   0  0  0  0  0  0  0  0  0  0  0  0
  -29.3700  -22.3830   21.7030 N   0  0  0  0  0  0  0  0  0  0  0  0
  -29.9880  -21.6490   23.7490 O   0  0  0  0  0  0  0  0  0  0  0  0
  -29.2180  -22.0630   20.7540 H   0  0  0  0  0  0  0  0  0  0  0  0
  -29.8340  -18.5390   20.4010 C   0  0  0  0  0  3  0  0  0  0  0  0
  -29.8920  -20.0670   21.9230 C   0  0  0  0  0  0  0  0  0  0  0  0
  -30.2660  -18.8660   22.5120 C   0  0  0  0  0  0  0  0  0  0  0  0
  -30.6550  -18.5150   23.9210 C   0  0  0  0  0  1  0  0  0  0  0  0
  -29.6150  -19.8400   20.5710 N   0  0  0  0  0  0  0  0  0  0  0  0
  -30.2210  -17.8940   21.5090 N   0  0  0  0  0  0  0  0  0  0  0  0
  -30.4980  -16.4640   21.6340 C   0  0  0  0  0  2  0  0  0  0  0  0
  -31.8860  -16.0430   21.0990 C   0  0  0  0  0  2  0  0  0  0  0  0
  -32.3420  -14.3190   19.3950 C   0  0  0  0  0  0  0  0  0  0  0  0
  -31.7580  -11.9870   18.8240 C   0  0  0  0  0  2  0  0  0  0  0  0
  -30.7140  -11.9610   17.6890 C   0  0  0  0  0  2  0  0  0  0  0  0
  -29.2820  -12.0650   18.2560 C   0  0  0  0  0  2  0  0  0  0  0  0
  -29.1320  -13.2210   19.2770 C   0  0  0  0  0  3  0  0  0  0  0  0
  -30.2730  -13.2050   20.3170 C   0  0  0  0  0  2  0  0  0  0  0  0
  -31.5580  -13.2260   19.5990 N   0  0  0  0  0  0  0  0  0  0  0  0
  -33.3740  -14.2950   18.7220 O   0  0  0  0  0  0  0  0  0  0  0  0
  -31.8240  -15.5070   19.7390 N   0  0  0  0  0  0  0  0  0  0  0  0
  -32.1410  -16.2110   19.0910 H   0  0  0  0  0  0  0  0  0  0  0  0
  -27.0740  -14.2500   20.4290 C   0  0  0  0  0  0  0  0  0  0  0  0
  -25.9060  -13.7010   20.8750 C   0  0  0  0  0  0  0  0  0  0  0  0
  -26.0060  -12.2960   20.6230 C   0  0  0  0  0  0  0  0  0  0  0  0
  -27.8230  -13.1970   19.9290 N   0  0  0  0  0  0  0  0  0  0  0  0
  -27.1890  -12.0070   20.0990 N   0  0  0  0  0  0  0  0  0  0  0  0
  -25.0220  -11.2190   20.7870 C   0  0  0  0  0  0  0  0  0  0  0  0
  -25.3230  -10.0470   21.5160 C   0  0  0  0  0  3  0  0  0  0  0  0
  -24.3550   -9.0320   21.6700 C   0  0  0  0  0  3  0  0  0  0  0  0
  -23.0690   -9.1820   21.0950 C   0  0  0  0  0  0  0  0  0  0  0  0
  -22.7810  -10.3400   20.3530 C   0  0  0  0  0  3  0  0  0  0  0  0
  -23.7470  -11.3490   20.1970 C   0  0  0  0  0  3  0  0  0  0  0  0
  -22.0780   -8.2350   21.1700 O   0  0  0  0  0  0  0  0  0  0  0  0
  -21.9180   -7.4470   22.2800 C   0  0  0  0  0  0  0  0  0  0  0  0
  -21.7630   -7.9990   23.5700 C   0  0  0  0  0  3  0  0  0  0  0  0
  -21.5340   -7.1540   24.6750 C   0  0  0  0  0  3  0  0  0  0  0  0
  -21.4450   -5.7600   24.4910 C   0  0  0  0  0  0  0  0  0  0  0  0
  -21.5910   -5.2110   23.2050 C   0  0  0  0  0  3  0  0  0  0  0  0
  -21.8200   -6.0520   22.1040 C   0  0  0  0  0  0  0  0  0  0  0  0
  -21.9430   -5.5190   20.8650 F   0  0  0  0  0  0  0  0  0  0  0  0
  -21.2190   -4.9470   25.5510 F   0  0  0  0  0  0  0  0  0  0  0  0
  -24.7150  -14.4430   21.4150 C   0  0  0  0  0  0  0  0  0  0  0  0
  -23.9800  -13.8420   22.3430 N   0  0  0  0  0  0  0  0  0  0  0  0
  -24.4530  -15.5880   21.0450 O   0  0  0  0  0  0  0  0  0  0  0  0
  -24.1970  -12.9080   22.6640 H   0  0  0  0  0  0  0  0  0  0  0  0
  -23.1750  -14.3200   22.7240 H   0  0  0  0  0  0  0  0  0  0  0  0
  -27.5680  -15.5510   20.3890 N   0  0  0  0  0  0  0  0  0  0  0  0
  -27.0420  -16.3660   20.6830 H   0  0  0  0  0  0  0  0  0  0  0  0
  -28.4560  -15.7770   19.9630 H   0  0  0  0  0  0  0  0  0  0  0  0
  -29.1850  -23.8000   22.0300 C   0  0  0  0  0  2  0  0  0  0  0  0
  -29.0620  -24.7000   20.7820 C   0  0  0  0  0  2  0  0  0  0  0  0
  -29.1810  -26.1920   21.1500 C   0  0  0  0  0  2  0  0  0  0  0  0
  -28.9000  -27.0250   20.0290 O   0  0  0  0  0  0  0  0  0  0  0  0
  -24.8090  -31.8040   23.3860 C   0  0  0  0  0  0  0  0  0  0  0  0
  -27.7040  -27.6910   20.1050 C   0  0  0  0  0  0  0  0  0  0  0  0
  -23.6940  -30.4440   21.6450 C   0  0  0  0  0  3  0  0  0  0  0  0
  -25.2380  -29.0570   20.1660 C   0  0  0  0  0  0  0  0  0  0  0  0
  -26.2010  -30.9330   21.5150 C   0  0  0  0  0  2  0  0  0  0  0  0
  -26.3570  -29.6030   20.8100 C   0  0  0  0  0  0  0  0  0  0  0  0
  -27.5930  -28.9220   20.7900 C   0  0  0  0  0  3  0  0  0  0  0  0
  -26.5780  -27.1470   19.4610 C   0  0  0  0  0  3  0  0  0  0  0  0
  -25.3430  -27.8250   19.4940 C   0  0  0  0  0  3  0  0  0  0  0  0
  -23.9570  -29.8570   20.2310 C   0  0  0  0  0  2  0  0  0  0  0  0
  -24.9180  -31.0730   22.2420 N   0  0  0  0  0  0  0  0  0  0  0  0
  -23.7090  -31.9960   23.9230 O   0  0  0  0  0  0  0  0  0  0  0  0
  -23.0790  -29.3410   22.5340 C   0  0  0  0  0  0  0  0  0  0  0  0
  -21.7730  -29.0860   22.3530 N   0  0  0  0  0  0  0  0  0  0  0  0
  -23.7740  -28.7200   23.3420 O   0  0  0  0  0  0  0  0  0  0  0  0
  -21.2670  -29.6470   21.6820 H   0  0  0  0  0  0  0  0  0  0  0  0
  -18.4650  -27.6690   22.6760 C   0  0  0  0  0  0  0  0  0  0  0  0
  -20.9920  -28.0660   23.0510 C   0  0  0  0  0  3  0  0  0  0  0  0
  -21.2020  -26.6730   22.4140 C   0  0  0  0  0  2  0  0  0  0  0  0
  -20.1560  -26.3340   21.3470 C   0  0  0  0  0  2  0  0  0  0  0  0
  -18.7470  -26.3660   21.9470 C   0  0  0  0  0  2  0  0  0  0  0  0
  -19.5210  -28.4750   23.1810 C   0  0  0  0  0  0  0  0  0  0  0  0
  -19.2070  -29.6930   23.8200 C   0  0  0  0  0  3  0  0  0  0  0  0
  -17.8710  -30.1100   23.9600 C   0  0  0  0  0  3  0  0  0  0  0  0
  -16.8290  -29.3020   23.4730 C   0  0  0  0  0  3  0  0  0  0  0  0
  -17.1280  -28.0830   22.8380 C   0  0  0  0  0  3  0  0  0  0  0  0
  -26.0560  -32.4560   24.0600 C   0  0  0  0  0  3  0  0  0  0  0  0
  -25.6950  -33.8330   24.4180 N   0  0  0  0  0  0  0  0  0  0  0  0
  -26.0190  -34.9160   23.6970 C   0  0  0  0  0  0  0  0  0  0  0  0
  -26.7250  -34.8610   22.6870 O   0  0  0  0  0  0  0  0  0  0  0  0
  -25.0700  -33.9500   25.2010 H   0  0  0  0  0  0  0  0  0  0  0  0
  -24.2450  -36.6620   23.3370 C   0  0  0  0  0  1  0  0  0  0  0  0
  -25.4750  -36.2750   24.1740 C   0  0  0  0  0  3  0  0  0  0  0  0
  -27.5550  -37.2070   25.0900 C   0  0  0  0  0  1  0  0  0  0  0  0
  -26.4770  -37.3620   24.1180 N   0  0  0  0  0  0  0  0  0  0  0  0
  -26.0380  -38.2670   24.2710 H   0  0  0  0  0  0  0  0  0  0  0  0
  -26.5650  -31.6670   25.3290 C   0  0  1  0  0  0  0  0  0  0  0  0
  -25.4450  -31.3270   26.3400 C   0  0  0  0  0  1  0  0  0  0  0  0
  -27.2460  -30.3420   24.9140 C   0  0  0  0  0  1  0  0  0  0  0  0
  -27.6350  -32.5010   26.0740 C   0  0  0  0  0  1  0  0  0  0  0  0
  1  3  2  0
  2 51  1  0
  2  1  1  0
  4  2  1  0
  5  9  2  0
  5 10  1  0
  6  7  2  0
  6  1  1  0
  7  8  1  0
  9  6  1  0
 10 11  1  0
 10  7  1  0
 12 11  1  0
 13 19  1  0
 13 21  1  0
 14 19  1  0
 15 16  1  0
 15 14  1  0
 17 16  1  0
 17 26  1  0
 17 18  1  0
 19 18  1  0
 20 13  2  0
 21 12  1  0
 22 21  1  0
 23 24  2  0
 24 43  1  0
 25 28  1  0
 25 24  1  0
 26 27  1  0
 26 23  1  0
 27 25  2  0
 28 29  1  0
 29 30  2  0
 31 34  1  0
 31 30  1  0
 32 31  2  0
 33 32  1  0
 33 28  2  0
 34 35  1  0
 35 36  1  0
 36 37  2  0
 38 37  1  0
 38 42  1  0
 39 38  2  0
 40 35  2  0
 40 39  1  0
 41 40  1  0
 43 44  1  0
 44 46  1  0
 44 47  1  0
 45 43  2  0
 48 23  1  0
 48 49  1  0
 50 48  1  0
 52 53  1  0
 52 51  1  0
 54 56  1  0
 54 53  1  0
 55 66  2  0
 56 61  1  0
 57 65  1  0
 57 67  1  0
 58 64  1  0
 58 60  1  0
 59 65  1  0
 60 59  1  0
 61 60  2  0
 62 63  1  0
 62 56  2  0
 63 58  2  0
 64 57  1  0
 65 55  1  0
 67 69  2  0
 68 67  1  0
 70 68  1  0
 71 80  2  0
 71 76  1  0
 72 68  1  0
 72 76  1  0
 73 72  1  0
 74 75  1  0
 74 73  1  0
 75 71  1  0
 76 77  2  0
 77 78  1  0
 79 78  2  0
 80 79  1  0
 81 55  1  0
 81 82  1  0
 81 91  1  0
 82 85  1  0
 83 87  1  0
 83 82  1  0
 84 83  2  0
 87 86  1  0
 89 87  1  0
 89 90  1  0
 89 88  1  0
 91 94  1  1
 91 92  1  0
 93 91  1  0
M  ISO  4  13 100  21 100  53 101  54 101
M  END
>  <TORSDO>  (39) 
F 22

>  <SCORE>  (39) 
-9.835

>  <name>  (39) 
38

>  <ligand_id>  (39) 
38

>  <original_smiles>  (39) 
[H]c1c([H])c([H])c2c(c1[H])C([H])([H])C([H])([H])C([H])([H])C2([H])N([H])C(=O)C1([H])N(C(=O)C([H])(N([H])C(=O)C([H])(N([H])C([H])([H])[H])C([H])([H])[H])C(C([H])([H])[H])(C([H])([H])[H])C([H])([H])[H])C([H])([H])c2c([H])c(OC([H])([H])C([H])([H])C([H])([H])N([H])C(=O)c3nc([H])n(C([H])([H])C([H])([H])N([H])C(=O)N4C([H])([H])C([H])([H])C([H])([H])C([H])(n5nc(-c6c([H])c([H])c(Oc7c([H])c([H])c(F)c([H])c7F)c([H])c6[H])c(C(=O)N([H])[H])c5N([H])[H])C4([H])[H])c3C([H])([H])[H])c([H])c([H])c2C1([H])[H]

>  <smiles>  (39) 
[H]c1c([H])c([H])c2c(c1[H])C([H])([H])C([H])([H])C([H])([H])C2([H])N([H])C(=O)C1([H])N(C(=O)C([H])(N([H])C(=O)C([H])(N([H])C([H])([H])[H])C([H])([H])[H])C(C([H])([H])[H])(C([H])([H])[H])C([H])([H])[H])C([H])([H])c2c([H])c(OC([H])([H])C([H])([H])C([H])([H])N([H])C(=O)c3nc([H])n(C([H])([H])C([H])([H])N([H])C(=O)N4C([H])([H])C([H])([H])C([H])([H])C([H])(n5nc(-c6c([H])c([H])c(Oc7c([H])c([H])c(F)c([H])c7F)c([H])c6[H])c(C(=O)N([H])[H])c5N([H])[H])C4([H])[H])c3C([H])([H])[H])c([H])c([H])c2C1([H])[H]

$$$$
39:0:0
     RDKit          3D

109117  0  0  1  0  0  0  0  0999 V2000
  -23.4120  -17.6040   18.4590 C   0  0  0  0  0  3  0  0  0  0  0  0
  -24.2050  -16.8340   19.3300 C   0  0  0  0  0  3  0  0  0  0  0  0
  -23.9210  -18.7950   17.9080 C   0  0  0  0  0  3  0  0  0  0  0  0
  -25.9990  -18.4640   19.1210 C   0  0  0  0  0  3  0  0  0  0  0  0
  -25.5090  -17.2550   19.6550 C   0  0  0  0  0  0  0  0  0  0  0  0
  -25.2200  -19.2350   18.2250 C   0  0  0  0  0  0  0  0  0  0  0  0
  -25.6660  -20.3890   17.6170 O   0  0  0  0  0  0  0  0  0  0  0  0
  -26.8550  -20.9770   18.1310 C   0  0  0  0  0  2  0  0  0  0  0  0
  -27.0740  -22.3560   17.5130 C   0  0  0  0  0  2  0  0  0  0  0  0
  -27.9950  -23.2050   18.3990 C   0  0  0  0  0  2  0  0  0  0  0  0
  -28.4120  -24.5280   17.7470 C   0  0  1  0  0  0  0  0  0  0  0  0
  -29.3950  -24.2660   16.8830 F   0  0  0  0  0  0  0  0  0  0  0  0
  -27.3990  -25.0520   17.0530 F   0  0  0  0  0  0  0  0  0  0  0  0
  -28.9240  -25.5450   18.7890 C   0  0  0  0  0  2  0  0  0  0  0  0
  -28.2470  -26.7960   18.7300 O   0  0  0  0  0  0  0  0  0  0  0  0
  -27.4130  -31.1830   24.2530 C   0  0  0  0  0  0  0  0  0  0  0  0
  -27.4900  -27.1360   19.8240 C   0  0  0  0  0  0  0  0  0  0  0  0
  -25.8210  -29.2910   24.1400 C   0  0  0  0  0  3  0  0  0  0  0  0
  -25.8530  -27.9530   21.9710 C   0  0  0  0  0  0  0  0  0  0  0  0
  -26.8910  -30.2290   22.0150 C   0  0  0  0  0  2  0  0  0  0  0  0
  -26.7870  -28.8410   21.4220 C   0  0  0  0  0  0  0  0  0  0  0  0
  -27.6000  -28.4410   20.3430 C   0  0  0  0  0  3  0  0  0  0  0  0
  -26.5510  -26.2450   20.3850 C   0  0  0  0  0  3  0  0  0  0  0  0
  -25.7330  -26.6490   21.4610 C   0  0  0  0  0  3  0  0  0  0  0  0
  -25.0010  -28.4720   23.1070 C   0  0  0  0  0  2  0  0  0  0  0  0
  -26.7610  -30.2610   23.4900 N   0  0  0  0  0  0  0  0  0  0  0  0
  -27.2080  -31.2630   25.4710 O   0  0  0  0  0  0  0  0  0  0  0  0
  -26.5260  -28.3050   25.0980 C   0  0  0  0  0  0  0  0  0  0  0  0
  -26.1020  -28.3070   26.3720 N   0  0  0  0  0  0  0  0  0  0  0  0
  -27.4050  -27.5430   24.6870 O   0  0  0  0  0  0  0  0  0  0  0  0
  -25.3830  -28.9670   26.6310 H   0  0  0  0  0  0  0  0  0  0  0  0
  -26.4420  -28.0200   29.9570 C   0  0  0  0  0  0  0  0  0  0  0  0
  -26.5930  -27.4390   27.4420 C   0  0  0  0  0  3  0  0  0  0  0  0
  -25.5820  -26.3090   27.7480 C   0  0  0  0  0  2  0  0  0  0  0  0
  -24.6030  -26.6630   28.8730 C   0  0  0  0  0  2  0  0  0  0  0  0
  -25.3620  -26.9730   30.1660 C   0  0  0  0  0  2  0  0  0  0  0  0
  -27.0090  -28.2500   28.6750 C   0  0  0  0  0  0  0  0  0  0  0  0
  -27.9870  -29.2570   28.5280 C   0  0  0  0  0  3  0  0  0  0  0  0
  -28.4000  -30.0270   29.6310 C   0  0  0  0  0  3  0  0  0  0  0  0
  -27.8460  -29.7860   30.9010 C   0  0  0  0  0  3  0  0  0  0  0  0
  -26.8760  -28.7810   31.0620 C   0  0  0  0  0  3  0  0  0  0  0  0
  -28.4260  -32.1950   23.6310 C   0  0  0  0  0  3  0  0  0  0  0  0
  -28.2250  -33.4850   24.3040 N   0  0  0  0  0  0  0  0  0  0  0  0
  -27.5790  -34.5290   23.7660 C   0  0  0  0  0  0  0  0  0  0  0  0
  -27.1470  -34.5280   22.6100 O   0  0  0  0  0  0  0  0  0  0  0  0
  -28.4920  -33.5330   25.2760 H   0  0  0  0  0  0  0  0  0  0  0  0
  -25.9310  -35.8340   25.1460 C   0  0  0  0  0  1  0  0  0  0  0  0
  -27.3850  -35.7740   24.6520 C   0  0  0  0  0  3  0  0  0  0  0  0
  -29.1650  -37.2180   23.7740 C   0  0  0  0  0  1  0  0  0  0  0  0
  -27.7290  -37.0410   23.9700 N   0  0  0  0  0  0  0  0  0  0  0  0
  -27.3800  -37.8390   24.4960 H   0  0  0  0  0  0  0  0  0  0  0  0
  -29.9270  -31.7260   23.7520 C   0  0  1  0  0  0  0  0  0  0  0  0
  -30.3390  -31.3240   25.1870 C   0  0  0  0  0  1  0  0  0  0  0  0
  -30.1970  -30.5180   22.8250 C   0  0  0  0  0  1  0  0  0  0  0  0
  -30.8680  -32.8630   23.2860 C   0  0  0  0  0  1  0  0  0  0  0  0
  -26.4140  -16.4220   20.5540 C   0  0  0  0  0  2  0  0  0  0  0  0
  -26.9280  -13.9960   20.5160 C   0  0  0  0  0  0  0  0  0  0  0  0
  -26.0240  -15.0040   20.7020 N   0  0  0  0  0  0  0  0  0  0  0  0
  -26.6850  -12.8120   20.7680 O   0  0  0  0  0  0  0  0  0  0  0  0
  -24.5850  -14.8690   21.0640 C   0  0  0  0  0  2  0  0  0  0  0  0
  -24.0000  -13.4660   21.3640 C   0  0  0  0  0  2  0  0  0  0  0  0
  -22.4710  -13.4910   21.5820 C   0  0  0  0  0  2  0  0  0  0  0  0
  -21.8550  -12.1290   21.9710 C   0  0  0  0  0  2  0  0  0  0  0  0
  -22.0190  -11.0080   20.9240 C   0  0  0  0  0  2  0  0  0  0  0  0
  -21.9140   -8.4580   20.5900 C   0  0  0  0  0  1  0  0  0  0  0  0
  -21.4250   -9.6710   21.4000 C   0  0  0  0  0  2  0  0  0  0  0  0
  -28.3200  -14.3260   19.9190 C   0  0  0  0  0  2  0  0  0  0  0  0
  -29.3460  -14.1230   20.8920 O   0  0  0  0  0  0  0  0  0  0  0  0
  -30.4320  -13.3020   20.4630 C   0  0  0  0  0  2  0  0  0  0  0  0
  -31.1340  -12.8560   21.7520 C   0  0  0  0  0  2  0  0  0  0  0  0
  -32.3770  -11.9360   21.6310 C   0  0  0  0  0  2  0  0  0  0  0  0
  -32.8200   -9.7960   22.8680 C   0  0  0  0  0  0  0  0  0  0  0  0
  -32.1270   -7.5060   23.5020 C   0  0  0  0  0  2  0  0  0  0  0  0
  -31.6290   -6.7290   22.2660 C   0  0  0  0  0  2  0  0  0  0  0  0
  -30.1530   -7.0430   21.9490 C   0  0  0  0  0  2  0  0  0  0  0  0
  -29.8570   -8.5630   21.9340 C   0  0  0  0  0  3  0  0  0  0  0  0
  -30.4080   -9.1970   23.2300 C   0  0  0  0  0  2  0  0  0  0  0  0
  -31.8630   -8.9330   23.2970 N   0  0  0  0  0  0  0  0  0  0  0  0
  -33.9860   -9.4760   22.6110 O   0  0  0  0  0  0  0  0  0  0  0  0
  -32.3650  -11.0540   22.7980 N   0  0  0  0  0  0  0  0  0  0  0  0
  -31.5230  -11.1530   23.3450 H   0  0  0  0  0  0  0  0  0  0  0  0
  -27.7930   -9.8740   21.1090 C   0  0  0  0  0  0  0  0  0  0  0  0
  -26.4550   -9.6130   21.1940 C   0  0  0  0  0  0  0  0  0  0  0  0
  -26.3380   -8.3760   21.8990 C   0  0  0  0  0  0  0  0  0  0  0  0
  -28.4290   -8.8320   21.7660 N   0  0  0  0  0  0  0  0  0  0  0  0
  -27.5350   -7.9520   22.2830 N   0  0  0  0  0  0  0  0  0  0  0  0
  -25.1630   -7.5430   22.1850 C   0  0  0  0  0  0  0  0  0  0  0  0
  -24.6490   -7.4140   23.4940 C   0  0  0  0  0  3  0  0  0  0  0  0
  -23.5090   -6.6190   23.7440 C   0  0  0  0  0  3  0  0  0  0  0  0
  -22.8670   -5.9490   22.6740 C   0  0  0  0  0  0  0  0  0  0  0  0
  -23.3910   -6.0700   21.3770 C   0  0  0  0  0  3  0  0  0  0  0  0
  -24.5290   -6.8550   21.1310 C   0  0  0  0  0  3  0  0  0  0  0  0
  -21.7620   -5.1440   22.8180 O   0  0  0  0  0  0  0  0  0  0  0  0
  -20.7360   -5.4720   23.6690 C   0  0  0  0  0  0  0  0  0  0  0  0
  -20.0160   -6.6800   23.5370 C   0  0  0  0  0  3  0  0  0  0  0  0
  -18.9290   -6.9500   24.3910 C   0  0  0  0  0  3  0  0  0  0  0  0
  -18.5500   -6.0070   25.3670 C   0  0  0  0  0  0  0  0  0  0  0  0
  -19.2620   -4.8010   25.4970 C   0  0  0  0  0  3  0  0  0  0  0  0
  -20.3500   -4.5340   24.6490 C   0  0  0  0  0  0  0  0  0  0  0  0
  -21.0230   -3.3640   24.7620 F   0  0  0  0  0  0  0  0  0  0  0  0
  -17.4970   -6.2590   26.1790 F   0  0  0  0  0  0  0  0  0  0  0  0
  -25.3450  -10.4090   20.5740 C   0  0  0  0  0  0  0  0  0  0  0  0
  -24.1630  -10.3920   21.1810 N   0  0  0  0  0  0  0  0  0  0  0  0
  -25.5290  -11.0760   19.5610 O   0  0  0  0  0  0  0  0  0  0  0  0
  -24.0120   -9.8560   22.0220 H   0  0  0  0  0  0  0  0  0  0  0  0
  -23.3960  -10.9130   20.7820 H   0  0  0  0  0  0  0  0  0  0  0  0
  -28.5280  -10.8940   20.5120 N   0  0  0  0  0  0  0  0  0  0  0  0
  -28.0790  -11.5910   19.9290 H   0  0  0  0  0  0  0  0  0  0  0  0
  -29.5370  -10.9140   20.4700 H   0  0  0  0  0  0  0  0  0  0  0  0
  1  2  1  0
  2  5  2  0
  3  6  1  0
  3  1  2  0
  4  5  1  0
  5 56  1  0
  6  4  2  0
  7  8  1  0
  7  6  1  0
  9  8  1  0
  9 10  1  0
 11 10  1  0
 11 14  1  0
 11 12  1  6
 13 11  1  0
 15 14  1  0
 15 17  1  0
 16 27  2  0
 17 22  2  0
 17 23  1  0
 18 28  1  0
 19 25  1  0
 20 26  1  0
 21 19  2  0
 21 20  1  0
 22 21  1  0
 23 24  2  0
 24 19  1  0
 25 18  1  0
 26 18  1  0
 26 16  1  0
 28 29  1  0
 29 31  1  0
 30 28  2  0
 32 36  1  0
 32 41  1  0
 33 29  1  0
 33 34  1  0
 33 37  1  0
 34 35  1  0
 35 36  1  0
 37 32  2  0
 38 37  1  0
 38 39  2  0
 39 40  1  0
 40 41  2  0
 42 52  1  0
 42 16  1  0
 42 43  1  0
 43 46  1  0
 44 43  1  0
 44 48  1  0
 45 44  2  0
 48 47  1  0
 49 50  1  0
 50 51  1  0
 50 48  1  0
 52 53  1  1
 54 52  1  0
 55 52  1  0
 56 58  1  0
 57 58  1  0
 57 59  2  0
 58 60  1  0
 60 61  1  0
 61 62  1  0
 62 63  1  0
 64 66  1  0
 64 63  1  0
 65 66  1  0
 67 57  1  0
 67 68  1  0
 69 68  1  0
 69 70  1  0
 71 70  1  0
 71 80  1  0
 72 78  1  0
 74 73  1  0
 75 74  1  0
 76 85  1  0
 76 75  1  0
 76 77  1  0
 77 78  1  0
 78 73  1  0
 79 72  2  0
 80 72  1  0
 80 81  1  0
 82 83  2  0
 82 85  1  0
 83 84  1  0
 84 87  1  0
 84 86  2  0
 85 86  1  0
 87 88  1  0
 88 89  2  0
 90 93  1  0
 90 89  1  0
 91 90  2  0
 92 91  1  0
 92 87  2  0
 93 94  1  0
 94 99  1  0
 95 94  2  0
 95 96  1  0
 96 97  2  0
 97 98  1  0
 97101  1  0
 99100  1  0
 99 98  2  0
102103  1  0
102 83  1  0
103105  1  0
104102  2  0
106103  1  0
107 82  1  0
108107  1  0
109107  1  0
M  ISO  4  14 101  15 101  72 100  80 100
M  END
>  <TORSDO>  (40) 
F 35

>  <SCORE>  (40) 
3.764

>  <name>  (40) 
39

>  <ligand_id>  (40) 
39

>  <original_smiles>  (40) 
[H]c1c([H])c(OC([H])([H])C([H])([H])C([H])([H])C(F)(F)C([H])([H])Oc2c([H])c([H])c3c(c2[H])C([H])([H])N(C(=O)C([H])(N([H])C(=O)C([H])(N([H])C([H])([H])[H])C([H])([H])[H])C(C([H])([H])[H])(C([H])([H])[H])C([H])([H])[H])C([H])(C(=O)N([H])C2([H])c4c([H])c([H])c([H])c([H])c4C([H])([H])C([H])([H])C2([H])[H])C3([H])[H])c([H])c(C([H])([H])N(C(=O)C([H])([H])OC([H])([H])C([H])([H])C([H])([H])N([H])C(=O)N2C([H])([H])C([H])([H])C([H])([H])C([H])(n3nc(-c4c([H])c([H])c(Oc5c([H])c([H])c(F)c([H])c5F)c([H])c4[H])c(C(=O)N([H])[H])c3N([H])[H])C2([H])[H])C([H])([H])C([H])([H])C([H])([H])C([H])([H])C([H])([H])C([H])([H])C([H])([H])[H])c1[H]

>  <smiles>  (40) 
[H]c1c([H])c(OC([H])([H])C([H])([H])C([H])([H])C(F)(F)C([H])([H])Oc2c([H])c([H])c3c(c2[H])C([H])([H])N(C(=O)C([H])(N([H])C(=O)C([H])(N([H])C([H])([H])[H])C([H])([H])[H])C(C([H])([H])[H])(C([H])([H])[H])C([H])([H])[H])C([H])(C(=O)N([H])C2([H])c4c([H])c([H])c([H])c([H])c4C([H])([H])C([H])([H])C2([H])[H])C3([H])[H])c([H])c(C([H])([H])N(C(=O)C([H])([H])OC([H])([H])C([H])([H])C([H])([H])N([H])C(=O)N2C([H])([H])C([H])([H])C([H])([H])C([H])(n3nc(-c4c([H])c([H])c(Oc5c([H])c([H])c(F)c([H])c5F)c([H])c4[H])c(C(=O)N([H])[H])c3N([H])[H])C2([H])[H])C([H])([H])C([H])([H])C([H])([H])C([H])([H])C([H])([H])C([H])([H])C([H])([H])[H])c1[H]

$$$$
40:0:0
     RDKit          3D

 90 97  0  0  1  0  0  0  0  0999 V2000
  -27.5530  -20.7540   20.8910 C   0  0  0  0  0  2  0  0  0  0  0  0
  -26.9130  -19.5410   20.2010 C   0  0  0  0  0  2  0  0  0  0  0  0
  -27.8090  -18.8060   19.1920 C   0  0  0  0  0  2  0  0  0  0  0  0
  -29.1550  -18.2980   19.7580 C   0  0  0  0  0  2  0  0  0  0  0  0
  -29.8040  -17.2860   18.8350 C   0  0  0  0  0  0  0  0  0  0  0  0
  -29.8830  -17.5790   17.3640 C   0  0  0  0  0  1  0  0  0  0  0  0
  -30.3180  -16.1660   19.2070 N   0  0  0  0  0  0  0  0  0  0  0  0
  -31.2580  -14.7470   20.7470 C   0  0  0  0  0  0  0  0  0  0  0  0
  -31.0020  -12.5530   19.6800 C   0  0  0  0  0  2  0  0  0  0  0  0
  -30.1580  -12.7400   18.4020 C   0  0  0  0  0  2  0  0  0  0  0  0
  -28.6500  -12.6610   18.7220 C   0  0  0  0  0  2  0  0  0  0  0  0
  -28.2340  -13.5450   19.9310 C   0  0  0  0  0  3  0  0  0  0  0  0
  -29.2040  -13.3600   21.1180 C   0  0  0  0  0  2  0  0  0  0  0  0
  -30.5710  -13.5840   20.6260 N   0  0  0  0  0  0  0  0  0  0  0  0
  -32.4800  -14.8460   20.6210 O   0  0  0  0  0  0  0  0  0  0  0  0
  -30.5160  -15.8390   20.5140 N   0  0  0  0  0  0  0  0  0  0  0  0
  -30.7830  -16.6480   21.0570 H   0  0  0  0  0  0  0  0  0  0  0  0
  -25.8070  -14.2240   20.4420 C   0  0  0  0  0  0  0  0  0  0  0  0
  -24.6940  -13.4820   20.7360 C   0  0  0  0  0  0  0  0  0  0  0  0
  -25.1250  -12.1220   20.7710 C   0  0  0  0  0  0  0  0  0  0  0  0
  -26.8440  -13.3120   20.3140 N   0  0  0  0  0  0  0  0  0  0  0  0
  -26.4340  -12.0470   20.5720 N   0  0  0  0  0  0  0  0  0  0  0  0
  -24.3580  -10.8790   20.9260 C   0  0  0  0  0  0  0  0  0  0  0  0
  -24.7140   -9.9100   21.8890 C   0  0  0  0  0  3  0  0  0  0  0  0
  -23.9510   -8.7310   22.0340 C   0  0  0  0  0  3  0  0  0  0  0  0
  -22.8190   -8.5130   21.2120 C   0  0  0  0  0  0  0  0  0  0  0  0
  -22.4820   -9.4710   20.2390 C   0  0  0  0  0  3  0  0  0  0  0  0
  -23.2460  -10.6430   20.0950 C   0  0  0  0  0  3  0  0  0  0  0  0
  -22.0340   -7.3870   21.2660 O   0  0  0  0  0  0  0  0  0  0  0  0
  -21.9100   -6.6480   22.4180 C   0  0  0  0  0  0  0  0  0  0  0  0
  -21.4480   -7.2220   23.6230 C   0  0  0  0  0  3  0  0  0  0  0  0
  -21.2630   -6.4130   24.7630 C   0  0  0  0  0  3  0  0  0  0  0  0
  -21.5330   -5.0340   24.6970 C   0  0  0  0  0  0  0  0  0  0  0  0
  -21.9910   -4.4590   23.4980 C   0  0  0  0  0  3  0  0  0  0  0  0
  -22.1740   -5.2650   22.3600 C   0  0  0  0  0  0  0  0  0  0  0  0
  -22.5910   -4.7010   21.2010 F   0  0  0  0  0  0  0  0  0  0  0  0
  -21.3510   -4.2560   25.7900 F   0  0  0  0  0  0  0  0  0  0  0  0
  -23.2900  -13.9950   20.8850 C   0  0  0  0  0  0  0  0  0  0  0  0
  -22.4880  -13.3430   21.7180 N   0  0  0  0  0  0  0  0  0  0  0  0
  -22.9130  -15.0090   20.2980 O   0  0  0  0  0  0  0  0  0  0  0  0
  -22.8050  -12.5190   22.2070 H   0  0  0  0  0  0  0  0  0  0  0  0
  -21.5430  -13.6680   21.8660 H   0  0  0  0  0  0  0  0  0  0  0  0
  -26.0190  -15.5880   20.2550 N   0  0  0  0  0  0  0  0  0  0  0  0
  -25.2650  -16.2630   20.2830 H   0  0  0  0  0  0  0  0  0  0  0  0
  -26.9180  -15.9960   20.0230 H   0  0  0  0  0  0  0  0  0  0  0  0
  -27.8560  -21.9360   19.9550 C   0  0  0  0  0  2  0  0  0  0  0  0
  -28.3830  -23.1390   20.7530 C   0  0  0  0  0  2  0  0  0  0  0  0
  -28.3790  -24.4560   19.9650 C   0  0  0  0  0  2  0  0  0  0  0  0
  -28.5340  -25.6810   20.8830 C   0  0  0  0  0  2  0  0  0  0  0  0
  -28.4800  -26.8990   20.1520 O   0  0  0  0  0  0  0  0  0  0  0  0
  -24.5930  -31.9560   23.2980 C   0  0  0  0  0  0  0  0  0  0  0  0
  -27.2820  -27.5700   20.2070 C   0  0  0  0  0  0  0  0  0  0  0  0
  -23.3970  -30.5450   21.6540 C   0  0  0  0  0  3  0  0  0  0  0  0
  -24.8630  -29.0190   20.2350 C   0  0  0  0  0  0  0  0  0  0  0  0
  -25.9150  -30.9330   21.4550 C   0  0  0  0  0  2  0  0  0  0  0  0
  -26.0140  -29.5640   20.8200 C   0  0  0  0  0  0  0  0  0  0  0  0
  -27.2280  -28.8480   20.8020 C   0  0  0  0  0  3  0  0  0  0  0  0
  -26.1130  -27.0290   19.6280 C   0  0  0  0  0  3  0  0  0  0  0  0
  -24.9050  -27.7480   19.6400 C   0  0  0  0  0  3  0  0  0  0  0  0
  -23.6120  -29.8650   20.2750 C   0  0  0  0  0  2  0  0  0  0  0  0
  -24.6530  -31.1590   22.1950 N   0  0  0  0  0  0  0  0  0  0  0  0
  -23.5100  -32.2200   23.8370 O   0  0  0  0  0  0  0  0  0  0  0  0
  -22.7540  -29.5180   22.6130 C   0  0  0  0  0  0  0  0  0  0  0  0
  -21.4320  -29.3250   22.4790 N   0  0  0  0  0  0  0  0  0  0  0  0
  -23.4420  -28.8960   23.4280 O   0  0  0  0  0  0  0  0  0  0  0  0
  -20.9400  -29.8810   21.7940 H   0  0  0  0  0  0  0  0  0  0  0  0
  -18.0640  -28.1150   22.9620 C   0  0  0  0  0  0  0  0  0  0  0  0
  -20.6180  -28.3830   23.2460 C   0  0  0  0  0  3  0  0  0  0  0  0
  -20.7300  -26.9530   22.6680 C   0  0  0  0  0  2  0  0  0  0  0  0
  -19.6340  -26.6240   21.6490 C   0  0  0  0  0  2  0  0  0  0  0  0
  -18.2500  -26.7660   22.2880 C   0  0  0  0  0  2  0  0  0  0  0  0
  -19.1780  -28.8820   23.3960 C   0  0  0  0  0  0  0  0  0  0  0  0
  -18.9510  -30.1450   23.9820 C   0  0  0  0  0  3  0  0  0  0  0  0
  -17.6440  -30.6410   24.1440 C   0  0  0  0  0  3  0  0  0  0  0  0
  -16.5450  -29.8710   23.7240 C   0  0  0  0  0  3  0  0  0  0  0  0
  -16.7560  -28.6090   23.1400 C   0  0  0  0  0  3  0  0  0  0  0  0
  -25.8760  -32.5950   23.9200 C   0  0  0  0  0  3  0  0  0  0  0  0
  -25.5660  -33.9970   24.2290 N   0  0  0  0  0  0  0  0  0  0  0  0
  -25.9080  -35.0380   23.4590 C   0  0  0  0  0  0  0  0  0  0  0  0
  -26.5890  -34.9190   22.4380 O   0  0  0  0  0  0  0  0  0  0  0  0
  -24.9680  -34.1660   25.0240 H   0  0  0  0  0  0  0  0  0  0  0  0
  -24.1840  -36.8220   23.0490 C   0  0  0  0  0  1  0  0  0  0  0  0
  -25.4130  -36.4310   23.8870 C   0  0  0  0  0  3  0  0  0  0  0  0
  -27.5330  -37.3220   24.7420 C   0  0  0  0  0  1  0  0  0  0  0  0
  -26.4460  -37.4830   23.7810 N   0  0  0  0  0  0  0  0  0  0  0  0
  -26.0380  -38.4030   23.9190 H   0  0  0  0  0  0  0  0  0  0  0  0
  -26.3840  -31.8390   25.2110 C   0  0  1  0  0  0  0  0  0  0  0  0
  -25.2830  -31.6100   26.2730 C   0  0  0  0  0  1  0  0  0  0  0  0
  -26.9720  -30.4590   24.8350 C   0  0  0  0  0  1  0  0  0  0  0  0
  -27.5280  -32.6440   25.8750 C   0  0  0  0  0  1  0  0  0  0  0  0
  2  1  1  0
  3  4  1  0
  3  2  1  0
  5  7  2  0
  5  4  1  0
  6  5  1  0
  7 16  1  0
  9 14  1  0
 10 11  1  0
 10  9  1  0
 12 11  1  0
 12 21  1  0
 12 13  1  0
 14  8  1  0
 14 13  1  0
 15  8  2  0
 16  8  1  0
 16 17  1  0
 18 19  2  0
 19 20  1  0
 19 38  1  0
 20 23  1  0
 21 18  1  0
 21 22  1  0
 22 20  2  0
 23 24  1  0
 24 25  2  0
 26 29  1  0
 26 25  1  0
 27 26  2  0
 28 27  1  0
 28 23  2  0
 29 30  1  0
 30 31  1  0
 31 32  2  0
 33 32  1  0
 33 37  1  0
 34 33  2  0
 35 30  2  0
 35 34  1  0
 36 35  1  0
 38 39  1  0
 39 42  1  0
 39 41  1  0
 40 38  2  0
 43 44  1  0
 43 18  1  0
 45 43  1  0
 46 47  1  0
 46  1  1  0
 48 47  1  0
 48 49  1  0
 50 52  1  0
 50 49  1  0
 51 62  2  0
 52 57  1  0
 53 61  1  0
 53 63  1  0
 54 60  1  0
 54 56  1  0
 55 61  1  0
 56 55  1  0
 57 56  2  0
 58 59  1  0
 58 52  2  0
 59 54  2  0
 60 53  1  0
 61 51  1  0
 63 65  2  0
 64 63  1  0
 66 64  1  0
 67 76  2  0
 67 72  1  0
 68 64  1  0
 68 72  1  0
 69 68  1  0
 70 71  1  0
 70 69  1  0
 71 67  1  0
 72 73  2  0
 73 74  1  0
 75 74  2  0
 76 75  1  0
 77 51  1  0
 77 78  1  0
 77 87  1  0
 78 81  1  0
 79 83  1  0
 79 78  1  0
 80 79  2  0
 83 82  1  0
 85 83  1  0
 85 86  1  0
 85 84  1  0
 87 90  1  1
 87 88  1  0
 89 87  1  0
M  ISO  4   8 100  16 100  49 101  50 101
M  END
>  <TORSDO>  (41) 
F 24

>  <SCORE>  (41) 
-10.512

>  <name>  (41) 
40

>  <ligand_id>  (41) 
40

>  <original_smiles>  (41) 
[H]c1c([H])c([H])c2c(c1[H])C([H])([H])C([H])([H])C([H])([H])C2([H])N([H])C(=O)C1([H])N(C(=O)C([H])(N([H])C(=O)C([H])(N([H])C([H])([H])[H])C([H])([H])[H])C(C([H])([H])[H])(C([H])([H])[H])C([H])([H])[H])C([H])([H])c2c([H])c(OC([H])([H])C([H])([H])C([H])([H])C([H])([H])C([H])([H])C([H])([H])C([H])([H])C([H])([H])C(=NN([H])C(=O)N3C([H])([H])C([H])([H])C([H])([H])C([H])(n4nc(-c5c([H])c([H])c(Oc6c([H])c([H])c(F)c([H])c6F)c([H])c5[H])c(C(=O)N([H])[H])c4N([H])[H])C3([H])[H])C([H])([H])[H])c([H])c([H])c2C1([H])[H]

>  <smiles>  (41) 
[H]c1c([H])c([H])c2c(c1[H])C([H])([H])C([H])([H])C([H])([H])C2([H])N([H])C(=O)C1([H])N(C(=O)C([H])(N([H])C(=O)C([H])(N([H])C([H])([H])[H])C([H])([H])[H])C(C([H])([H])[H])(C([H])([H])[H])C([H])([H])[H])C([H])([H])c2c([H])c(OC([H])([H])C([H])([H])C([H])([H])C([H])([H])C([H])([H])C([H])([H])C([H])([H])C([H])([H])C(=NN([H])C(=O)N3C([H])([H])C([H])([H])C([H])([H])C([H])(n4nc(-c5c([H])c([H])c(Oc6c([H])c([H])c(F)c([H])c6F)c([H])c5[H])c(C(=O)N([H])[H])c4N([H])[H])C3([H])[H])C([H])([H])[H])c([H])c([H])c2C1([H])[H]

$$$$
41:0:0
     RDKit          3D

 95103  0  0  1  0  0  0  0  0999 V2000
  -30.3490  -20.0610   21.3910 C   0  0  0  0  0  3  0  0  0  0  0  0
  -30.6650  -18.6500   21.6190 C   0  0  0  0  0  3  0  0  0  0  0  0
  -28.5050  -19.4030   20.0760 C   0  0  0  0  0  3  0  0  0  0  0  0
  -29.2300  -20.5190   20.6120 C   0  0  0  0  0  0  0  0  0  0  0  0
  -29.9130  -17.5420   21.0840 C   0  0  0  0  0  0  0  0  0  0  0  0
  -28.8110  -17.9900   20.2780 C   0  0  0  0  0  0  0  0  0  0  0  0
  -30.9750  -15.0330   21.5980 C   0  0  0  0  0  0  0  0  0  0  0  0
  -31.2100  -12.5920   20.9720 C   0  0  0  0  0  2  0  0  0  0  0  0
  -30.4610  -12.3140   19.6470 C   0  0  0  0  0  2  0  0  0  0  0  0
  -28.9690  -12.0270   19.9090 C   0  0  0  0  0  2  0  0  0  0  0  0
  -28.3300  -13.0450   20.8900 C   0  0  0  0  0  3  0  0  0  0  0  0
  -29.2090  -13.2630   22.1370 C   0  0  0  0  0  2  0  0  0  0  0  0
  -30.5240  -13.7190   21.6580 N   0  0  0  0  0  0  0  0  0  0  0  0
  -32.1910  -15.2220   21.4840 O   0  0  0  0  0  0  0  0  0  0  0  0
  -30.0110  -16.0630   21.4750 N   0  0  0  0  0  0  0  0  0  0  0  0
  -29.1000  -15.6330   21.4610 H   0  0  0  0  0  0  0  0  0  0  0  0
  -25.8910  -13.5500   21.4820 C   0  0  0  0  0  0  0  0  0  0  0  0
  -24.8020  -12.7410   21.6550 C   0  0  0  0  0  0  0  0  0  0  0  0
  -25.2720  -11.4030   21.4840 C   0  0  0  0  0  0  0  0  0  0  0  0
  -26.9540  -12.7020   21.2240 N   0  0  0  0  0  0  0  0  0  0  0  0
  -26.5850  -11.3970   21.2880 N   0  0  0  0  0  0  0  0  0  0  0  0
  -24.5390  -10.1320   21.4420 C   0  0  0  0  0  0  0  0  0  0  0  0
  -24.9340   -9.0250   22.2250 C   0  0  0  0  0  3  0  0  0  0  0  0
  -24.2020   -7.8190   22.1830 C   0  0  0  0  0  3  0  0  0  0  0  0
  -23.0600   -7.7120   21.3530 C   0  0  0  0  0  0  0  0  0  0  0  0
  -22.6860   -8.8080   20.5560 C   0  0  0  0  0  3  0  0  0  0  0  0
  -23.4190  -10.0060   20.5970 C   0  0  0  0  0  3  0  0  0  0  0  0
  -22.3030   -6.5730   21.2280 O   0  0  0  0  0  0  0  0  0  0  0  0
  -22.2350   -5.6400   22.2310 C   0  0  0  0  0  0  0  0  0  0  0  0
  -21.7710   -5.9660   23.5240 C   0  0  0  0  0  3  0  0  0  0  0  0
  -21.6530   -4.9610   24.5050 C   0  0  0  0  0  3  0  0  0  0  0  0
  -21.9900   -3.6300   24.1920 C   0  0  0  0  0  0  0  0  0  0  0  0
  -22.4460   -3.3010   22.9040 C   0  0  0  0  0  3  0  0  0  0  0  0
  -22.5660   -4.3040   21.9260 C   0  0  0  0  0  0  0  0  0  0  0  0
  -22.9850   -3.9790   20.6790 F   0  0  0  0  0  0  0  0  0  0  0  0
  -21.8680   -2.6620   25.1310 F   0  0  0  0  0  0  0  0  0  0  0  0
  -23.3830  -13.1850   21.8670 C   0  0  0  0  0  0  0  0  0  0  0  0
  -22.5940  -12.3870   22.5770 N   0  0  0  0  0  0  0  0  0  0  0  0
  -22.9820  -14.2700   21.4460 O   0  0  0  0  0  0  0  0  0  0  0  0
  -22.9330  -11.5110   22.9460 H   0  0  0  0  0  0  0  0  0  0  0  0
  -21.6350  -12.6500   22.7520 H   0  0  0  0  0  0  0  0  0  0  0  0
  -26.0590  -14.9320   21.4980 N   0  0  0  0  0  0  0  0  0  0  0  0
  -25.2710  -15.5590   21.6120 H   0  0  0  0  0  0  0  0  0  0  0  0
  -26.9110  -15.4150   21.2440 H   0  0  0  0  0  0  0  0  0  0  0  0
  -29.0640  -23.3000   20.4900 C   0  0  0  0  0  0  0  0  0  0  0  0
  -28.7030  -21.9370   20.3310 N   0  0  0  0  0  0  0  0  0  0  0  0
  -30.1570  -23.6040   20.9750 O   0  0  0  0  0  0  0  0  0  0  0  0
  -27.7990  -21.9050   19.8800 H   0  0  0  0  0  0  0  0  0  0  0  0
  -28.0310  -24.5160   20.0370 C   0  0  0  0  0  2  0  0  0  0  0  0
  -28.3680  -26.0360   20.0290 O   0  0  0  0  0  0  0  0  0  0  0  0
  -24.7240  -31.6990   23.0240 C   0  0  0  0  0  0  0  0  0  0  0  0
  -27.3090  -27.0170   19.9570 C   0  0  0  0  0  0  0  0  0  0  0  0
  -23.5140  -30.2930   21.4030 C   0  0  0  0  0  3  0  0  0  0  0  0
  -24.9580  -28.7360   19.9560 C   0  0  0  0  0  0  0  0  0  0  0  0
  -26.0620  -30.5850   21.2010 C   0  0  0  0  0  2  0  0  0  0  0  0
  -26.1420  -29.1940   20.5500 C   0  0  0  0  0  0  0  0  0  0  0  0
  -27.3160  -28.3490   20.5360 C   0  0  0  0  0  3  0  0  0  0  0  0
  -26.0980  -26.6690   19.3140 C   0  0  0  0  0  3  0  0  0  0  0  0
  -24.9500  -27.4870   19.3240 C   0  0  0  0  0  3  0  0  0  0  0  0
  -23.7220  -29.6180   20.0220 C   0  0  0  0  0  2  0  0  0  0  0  0
  -24.7880  -30.8810   21.9300 N   0  0  0  0  0  0  0  0  0  0  0  0
  -23.6430  -31.9740   23.5680 O   0  0  0  0  0  0  0  0  0  0  0  0
  -22.8590  -29.2780   22.3740 C   0  0  0  0  0  0  0  0  0  0  0  0
  -21.5330  -29.0900   22.2620 N   0  0  0  0  0  0  0  0  0  0  0  0
  -23.5480  -28.6630   23.1920 O   0  0  0  0  0  0  0  0  0  0  0  0
  -21.0330  -29.6340   21.5720 H   0  0  0  0  0  0  0  0  0  0  0  0
  -18.1850  -27.8020   22.7600 C   0  0  0  0  0  0  0  0  0  0  0  0
  -20.7330  -28.1470   23.0460 C   0  0  0  0  0  3  0  0  0  0  0  0
  -20.8810  -26.7050   22.5050 C   0  0  0  0  0  2  0  0  0  0  0  0
  -19.8010  -26.3270   21.4890 C   0  0  0  0  0  2  0  0  0  0  0  0
  -18.4080  -26.4450   22.1150 C   0  0  0  0  0  2  0  0  0  0  0  0
  -19.2760  -28.6070   23.1830 C   0  0  0  0  0  0  0  0  0  0  0  0
  -19.0120  -29.8740   23.7490 C   0  0  0  0  0  3  0  0  0  0  0  0
  -17.6900  -30.3370   23.8940 C   0  0  0  0  0  3  0  0  0  0  0  0
  -16.6140  -29.5290   23.4850 C   0  0  0  0  0  3  0  0  0  0  0  0
  -16.8610  -28.2640   22.9240 C   0  0  0  0  0  3  0  0  0  0  0  0
  -26.0050  -32.3490   23.6300 C   0  0  0  0  0  3  0  0  0  0  0  0
  -25.6470  -33.6990   24.0930 N   0  0  0  0  0  0  0  0  0  0  0  0
  -25.9710  -34.8350   23.4610 C   0  0  0  0  0  0  0  0  0  0  0  0
  -26.6730  -34.8570   22.4470 O   0  0  0  0  0  0  0  0  0  0  0  0
  -25.0270  -33.7540   24.8870 H   0  0  0  0  0  0  0  0  0  0  0  0
  -24.2180  -36.6260   23.2390 C   0  0  0  0  0  1  0  0  0  0  0  0
  -25.4370  -36.1560   24.0490 C   0  0  0  0  0  3  0  0  0  0  0  0
  -27.5200  -36.9840   25.0540 C   0  0  0  0  0  1  0  0  0  0  0  0
  -26.4490  -37.2340   24.0930 N   0  0  0  0  0  0  0  0  0  0  0  0
  -26.0160  -38.1240   24.3280 H   0  0  0  0  0  0  0  0  0  0  0  0
  -26.6240  -31.5090   24.8150 C   0  0  1  0  0  0  0  0  0  0  0  0
  -25.6050  -31.1490   25.9210 C   0  0  0  0  0  1  0  0  0  0  0  0
  -27.2380  -30.1880   24.2940 C   0  0  0  0  0  1  0  0  0  0  0  0
  -27.7790  -32.3030   25.4720 C   0  0  0  0  0  1  0  0  0  0  0  0
  -28.0700  -16.9620   19.7160 O   0  0  0  0  0  0  0  0  0  0  0  0
  -26.9120  -17.2130   18.9130 C   0  0  0  0  0  2  0  0  0  0  0  0
  -26.5880  -15.9600   18.0840 C   0  0  0  0  0  2  0  0  0  0  0  0
  -26.4480  -13.4110   17.9960 C   0  0  0  0  0  1  0  0  0  0  0  0
  -26.6540  -14.6490   18.8750 C   0  0  0  0  0  2  0  0  0  0  0  0
  1  2  1  0
  3  6  2  0
  3  4  1  0
  4  1  2  0
  5 15  1  0
  5  2  2  0
  6  5  1  0
  7 13  1  0
  8 13  1  0
  9 10  1  0
  9  8  1  0
 11 10  1  0
 11 20  1  0
 11 12  1  0
 13 12  1  0
 14  7  2  0
 15  7  1  0
 16 15  1  0
 17 42  1  0
 17 18  2  0
 18 37  1  0
 19 18  1  0
 20 21  1  0
 20 17  1  0
 21 19  2  0
 22 19  1  0
 22 23  1  0
 24 23  2  0
 25 24  1  0
 26 27  1  0
 26 25  2  0
 27 22  2  0
 28 25  1  0
 28 29  1  0
 29 30  1  0
 30 31  2  0
 32 31  1  0
 32 36  1  0
 33 32  2  0
 34 29  2  0
 34 33  1  0
 35 34  1  0
 37 38  1  0
 38 41  1  0
 38 40  1  0
 39 37  2  0
 42 43  1  0
 44 42  1  0
 45 47  2  0
 46 45  1  0
 46  4  1  0
 48 46  1  0
 49 45  1  0
 50 49  1  0
 51 62  2  0
 52 50  1  0
 52 57  1  0
 53 61  1  0
 53 63  1  0
 54 60  1  0
 54 56  1  0
 55 61  1  0
 56 55  1  0
 57 56  2  0
 58 59  1  0
 58 52  2  0
 59 54  2  0
 60 53  1  0
 61 51  1  0
 63 65  2  0
 64 63  1  0
 66 64  1  0
 67 76  2  0
 67 72  1  0
 68 64  1  0
 68 72  1  0
 69 68  1  0
 70 71  1  0
 70 69  1  0
 71 67  1  0
 72 73  2  0
 73 74  1  0
 75 74  2  0
 76 75  1  0
 77 51  1  0
 77 78  1  0
 77 87  1  0
 78 81  1  0
 79 83  1  0
 79 78  1  0
 80 79  2  0
 83 82  1  0
 83 85  1  0
 85 86  1  0
 85 84  1  0
 87 90  1  1
 87 88  1  0
 89 87  1  0
 91  6  1  0
 92 91  1  0
 93 95  1  0
 93 92  1  0
 94 95  1  0
M  ISO  4   7 100  15 100  49 101  50 101
M  END
>  <TORSDO>  (42) 
F 22

>  <SCORE>  (42) 
-4.685

>  <name>  (42) 
41

>  <ligand_id>  (42) 
41

>  <original_smiles>  (42) 
[H]c1c([H])c([H])c2c(c1[H])C([H])([H])C([H])([H])C([H])([H])C2([H])N([H])C(=O)C1([H])N(C(=O)C([H])(N([H])C(=O)C([H])(N([H])C([H])([H])[H])C([H])([H])[H])C(C([H])([H])[H])(C([H])([H])[H])C([H])([H])[H])C([H])([H])c2c([H])c(OC([H])([H])C(=O)N([H])c3c([H])c([H])c(N([H])C(=O)N4C([H])([H])C([H])([H])C([H])([H])C([H])(n5nc(-c6c([H])c([H])c(Oc7c([H])c([H])c(F)c([H])c7F)c([H])c6[H])c(C(=O)N([H])[H])c5N([H])[H])C4([H])[H])c(OC([H])([H])C([H])([H])C([H])([H])C([H])([H])[H])c3[H])c([H])c([H])c2C1([H])[H]

>  <smiles>  (42) 
[H]c1c([H])c([H])c2c(c1[H])C([H])([H])C([H])([H])C([H])([H])C2([H])N([H])C(=O)C1([H])N(C(=O)C([H])(N([H])C(=O)C([H])(N([H])C([H])([H])[H])C([H])([H])[H])C(C([H])([H])[H])(C([H])([H])[H])C([H])([H])[H])C([H])([H])c2c([H])c(OC([H])([H])C(=O)N([H])c3c([H])c([H])c(N([H])C(=O)N4C([H])([H])C([H])([H])C([H])([H])C([H])(n5nc(-c6c([H])c([H])c(Oc7c([H])c([H])c(F)c([H])c7F)c([H])c6[H])c(C(=O)N([H])[H])c5N([H])[H])C4([H])[H])c(OC([H])([H])C([H])([H])C([H])([H])C([H])([H])[H])c3[H])c([H])c([H])c2C1([H])[H]

$$$$
42:0:0
     RDKit          3D

106115  0  0  1  0  0  0  0  0999 V2000
  -25.4540  -22.1940   25.8060 C   0  0  0  0  0  3  0  0  0  0  0  0
  -26.5220  -22.2170   24.9780 C   0  0  0  0  0  3  0  0  0  0  0  0
  -24.1330  -22.9480   25.7800 C   0  0  0  0  0  2  0  0  0  0  0  0
  -25.7870  -23.8700   22.9950 C   0  0  0  0  0  2  0  0  0  0  0  0
  -24.3200  -23.8760   23.4140 C   0  0  0  0  0  3  0  0  0  0  0  0
  -26.8510  -22.9700   23.6800 C   0  0  0  0  0  3  0  0  0  0  0  0
  -24.0720  -24.1950   24.8940 C   0  0  0  0  0  3  0  0  0  0  0  0
  -28.8890  -23.5970   25.3580 O   0  0  0  0  0  0  0  0  0  0  0  0
  -28.1920  -25.3190   23.6570 O   0  0  0  0  0  0  0  0  0  0  0  0
  -28.4380  -23.9080   23.9930 S   0  0  2  0  0  0  0  0  0  0  0  0
  -30.4350  -21.9780   20.9580 C   0  0  0  0  0  3  0  0  0  0  0  0
  -31.8250  -23.8360   21.6960 C   0  0  0  0  0  3  0  0  0  0  0  0
  -29.4980  -22.2820   21.9550 C   0  0  0  0  0  3  0  0  0  0  0  0
  -30.8970  -24.1210   22.7220 C   0  0  0  0  0  3  0  0  0  0  0  0
  -31.5930  -22.7590   20.8130 C   0  0  0  0  0  0  0  0  0  0  0  0
  -29.7200  -23.3480   22.8460 C   0  0  0  0  0  0  0  0  0  0  0  0
  -33.7440  -22.5450   19.6990 C   0  0  0  0  0  0  0  0  0  0  0  0
  -35.1370  -21.0650   18.3480 C   0  0  0  0  0  2  0  0  0  0  0  0
  -34.2440  -20.4780   17.2360 C   0  0  0  0  0  2  0  0  0  0  0  0
  -33.5460  -19.1920   17.7190 C   0  0  0  0  0  2  0  0  0  0  0  0
  -32.8580  -19.3560   19.1020 C   0  0  0  0  0  3  0  0  0  0  0  0
  -33.8070  -20.0520   20.1080 C   0  0  0  0  0  2  0  0  0  0  0  0
  -34.2650  -21.3080   19.5000 N   0  0  0  0  0  0  0  0  0  0  0  0
  -34.3160  -23.5850   19.3800 O   0  0  0  0  0  0  0  0  0  0  0  0
  -32.4080  -22.5850   19.6790 N   0  0  0  0  0  0  0  0  0  0  0  0
  -32.1640  -23.2740   18.9840 H   0  0  0  0  0  0  0  0  0  0  0  0
  -31.0670  -17.7310   19.9920 C   0  0  0  0  0  0  0  0  0  0  0  0
  -31.1150  -16.3970   20.2980 C   0  0  0  0  0  0  0  0  0  0  0  0
  -32.4590  -15.9830   20.0480 C   0  0  0  0  0  0  0  0  0  0  0  0
  -32.3520  -18.0790   19.5990 N   0  0  0  0  0  0  0  0  0  0  0  0
  -33.2010  -17.0210   19.6840 N   0  0  0  0  0  0  0  0  0  0  0  0
  -33.0670  -14.6470   20.0750 C   0  0  0  0  0  0  0  0  0  0  0  0
  -34.2940  -14.4080   20.7330 C   0  0  0  0  0  3  0  0  0  0  0  0
  -34.8500  -13.1110   20.7620 C   0  0  0  0  0  3  0  0  0  0  0  0
  -34.1780  -12.0370   20.1300 C   0  0  0  0  0  0  0  0  0  0  0  0
  -32.9690  -12.2850   19.4570 C   0  0  0  0  0  3  0  0  0  0  0  0
  -32.4190  -13.5780   19.4250 C   0  0  0  0  0  3  0  0  0  0  0  0
  -34.6560  -10.7500   20.0840 O   0  0  0  0  0  0  0  0  0  0  0  0
  -35.5630  -10.2870   21.0030 C   0  0  0  0  0  0  0  0  0  0  0  0
  -35.2970  -10.3090   22.3900 C   0  0  0  0  0  3  0  0  0  0  0  0
  -36.2260   -9.7600   23.2950 C   0  0  0  0  0  3  0  0  0  0  0  0
  -37.4170   -9.1800   22.8180 C   0  0  0  0  0  0  0  0  0  0  0  0
  -37.6810   -9.1500   21.4370 C   0  0  0  0  0  3  0  0  0  0  0  0
  -36.7550   -9.7000   20.5330 C   0  0  0  0  0  0  0  0  0  0  0  0
  -37.0050   -9.6500   19.2020 F   0  0  0  0  0  0  0  0  0  0  0  0
  -38.3070   -8.6450   23.6860 F   0  0  0  0  0  0  0  0  0  0  0  0
  -29.9550  -15.5340   20.6980 C   0  0  0  0  0  0  0  0  0  0  0  0
  -30.2040  -14.5220   21.5200 N   0  0  0  0  0  0  0  0  0  0  0  0
  -28.8120  -15.7800   20.3160 O   0  0  0  0  0  0  0  0  0  0  0  0
  -31.1430  -14.3320   21.8380 H   0  0  0  0  0  0  0  0  0  0  0  0
  -29.4510  -13.9260   21.8350 H   0  0  0  0  0  0  0  0  0  0  0  0
  -30.0340  -18.6610   19.9920 N   0  0  0  0  0  0  0  0  0  0  0  0
  -29.0730  -18.3800   20.1620 H   0  0  0  0  0  0  0  0  0  0  0  0
  -30.1090  -19.5900   19.5970 H   0  0  0  0  0  0  0  0  0  0  0  0
  -23.6050  -22.6770   22.9370 C   0  0  0  0  0  0  0  0  0  0  0  0
  -23.0450  -21.7330   22.5580 N   0  0  0  0  0  0  0  0  0  0  0  0
  -24.9610  -25.1390   25.4840 O   0  0  0  0  0  0  0  0  0  0  0  0
  -25.1250  -26.3830   25.0190 C   0  0  0  0  0  0  0  0  0  0  0  0
  -25.2160  -27.2780   26.0720 N   0  0  0  0  0  0  0  0  0  0  0  0
  -25.2000  -26.6870   23.8300 O   0  0  0  0  0  0  0  0  0  0  0  0
  -25.3800  -28.2390   25.7960 H   0  0  0  0  0  0  0  0  0  0  0  0
  -24.8860  -26.9850   27.4720 C   0  0  0  0  0  2  0  0  0  0  0  0
  -26.0910  -27.1250   28.4390 C   0  0  0  0  0  2  0  0  0  0  0  0
  -25.7090  -28.0200   29.6170 C   0  0  0  0  0  3  0  0  0  0  0  0
  -26.6650  -28.1090   30.8420 C   0  0  0  0  0  3  0  0  0  0  0  0
  -26.3430  -29.0770   31.8760 O   0  0  0  0  0  0  0  0  0  0  0  0
  -20.1210  -27.6400   34.9970 C   0  0  0  0  0  0  0  0  0  0  0  0
  -25.0120  -29.3950   31.9810 C   0  0  0  0  0  0  0  0  0  0  0  0
  -20.0220  -28.8190   32.8260 C   0  0  0  0  0  3  0  0  0  0  0  0
  -22.2270  -29.7920   31.9930 C   0  0  0  0  0  0  0  0  0  0  0  0
  -22.0330  -29.1040   34.3860 C   0  0  0  0  0  2  0  0  0  0  0  0
  -22.8760  -29.3400   33.1530 C   0  0  0  0  0  0  0  0  0  0  0  0
  -24.2720  -29.1210   33.1510 C   0  0  0  0  0  3  0  0  0  0  0  0
  -24.3600  -29.9770   30.8730 C   0  0  0  0  0  3  0  0  0  0  0  0
  -22.9680  -30.1110   30.8460 C   0  0  0  0  0  3  0  0  0  0  0  0
  -20.7300  -29.9660   32.0570 C   0  0  0  0  0  2  0  0  0  0  0  0
  -20.7240  -28.4700   34.1040 N   0  0  0  0  0  0  0  0  0  0  0  0
  -18.9800  -27.2010   34.7980 O   0  0  0  0  0  0  0  0  0  0  0  0
  -19.8410  -27.6150   31.8750 C   0  0  0  0  0  0  0  0  0  0  0  0
  -18.5930  -27.3620   31.4550 N   0  0  0  0  0  0  0  0  0  0  0  0
  -20.8110  -26.9410   31.5170 O   0  0  0  0  0  0  0  0  0  0  0  0
  -17.8530  -27.9540   31.8050 H   0  0  0  0  0  0  0  0  0  0  0  0
  -15.7480  -25.8510   29.8290 C   0  0  0  0  0  0  0  0  0  0  0  0
  -18.1930  -26.2920   30.5410 C   0  0  0  0  0  3  0  0  0  0  0  0
  -18.4380  -26.6890   29.0660 C   0  0  0  0  0  2  0  0  0  0  0  0
  -17.2190  -27.3470   28.4110 C   0  0  0  0  0  2  0  0  0  0  0  0
  -16.0130  -26.4020   28.4380 C   0  0  0  0  0  2  0  0  0  0  0  0
  -16.7640  -25.8150   30.8230 C   0  0  0  0  0  0  0  0  0  0  0  0
  -16.4470  -25.3270   32.1080 C   0  0  0  0  0  3  0  0  0  0  0  0
  -15.1460  -24.8800   32.4080 C   0  0  0  0  0  3  0  0  0  0  0  0
  -14.1480  -24.9100   31.4200 C   0  0  0  0  0  3  0  0  0  0  0  0
  -14.4530  -25.3830   30.1310 C   0  0  0  0  0  3  0  0  0  0  0  0
  -20.8200  -27.2260   36.3300 C   0  0  0  0  0  3  0  0  0  0  0  0
  -21.7350  -25.9490   36.1810 C   0  0  1  0  0  0  0  0  0  0  0  0
  -21.0730  -24.8060   35.3760 C   0  0  0  0  0  1  0  0  0  0  0  0
  -23.0730  -26.3050   35.4900 C   0  0  0  0  0  1  0  0  0  0  0  0
  -22.0980  -25.3970   37.5810 C   0  0  0  0  0  1  0  0  0  0  0  0
  -19.7710  -27.0040   37.3300 N   0  0  0  0  0  0  0  0  0  0  0  0
  -19.4570  -27.8670   38.3060 C   0  0  0  0  0  0  0  0  0  0  0  0
  -20.0810  -28.9130   38.5030 O   0  0  0  0  0  0  0  0  0  0  0  0
  -19.1750  -26.2010   37.1930 H   0  0  0  0  0  0  0  0  0  0  0  0
  -17.1390  -28.5480   39.0070 C   0  0  0  0  0  1  0  0  0  0  0  0
  -18.2570  -27.5120   39.2030 C   0  0  0  0  0  3  0  0  0  0  0  0
  -19.4730  -26.2970   40.9550 C   0  0  0  0  0  1  0  0  0  0  0  0
  -18.6030  -27.4260   40.6380 N   0  0  0  0  0  0  0  0  0  0  0  0
  -17.7630  -27.3530   41.2070 H   0  0  0  0  0  0  0  0  0  0  0  0
  2  1  2  0
  3  1  1  0
  4  5  1  0
  4  6  1  0
  5 55  1  0
  5  7  1  0
 10  6  1  6
  6  2  1  0
  7 57  1  0
  7  3  1  0
  9 10  2  0
 10  8  2  0
 11 13  1  0
 12 14  2  0
 13 16  2  0
 14 16  1  0
 15 11  2  0
 15 12  1  0
 16 10  1  0
 18 23  1  0
 19 20  1  0
 19 18  1  0
 21 20  1  0
 21 30  1  0
 21 22  1  0
 23 17  1  0
 23 22  1  0
 24 17  2  0
 25 17  1  0
 25 15  1  0
 26 25  1  0
 27 52  1  0
 27 28  2  0
 28 47  1  0
 29 32  1  0
 29 28  1  0
 30 31  1  0
 30 27  1  0
 31 29  2  0
 32 33  1  0
 33 34  2  0
 35 34  1  0
 36 35  2  0
 37 36  1  0
 37 32  2  0
 38 35  1  0
 38 39  1  0
 39 40  1  0
 40 41  2  0
 42 41  1  0
 42 46  1  0
 43 42  2  0
 44 39  2  0
 44 43  1  0
 45 44  1  0
 47 48  1  0
 48 51  1  0
 48 50  1  0
 49 47  2  0
 52 53  1  0
 54 52  1  0
 56 55  3  0
 58 57  1  0
 58 59  1  0
 59 62  1  0
 60 58  2  0
 61 59  1  0
 62 63  1  0
 63 64  1  0
 64 65  2  0
 65 66  1  0
 66 68  1  0
 68 73  1  0
 69 79  1  0
 69 77  1  0
 70 76  1  0
 70 72  1  0
 72 71  1  0
 73 72  2  0
 74 68  2  0
 75 74  1  0
 75 70  2  0
 76 69  1  0
 77 71  1  0
 77 67  1  0
 78 67  2  0
 80 82  1  0
 80 79  1  0
 81 79  2  0
 83 92  2  0
 83 88  1  0
 84 88  1  0
 84 80  1  0
 85 84  1  0
 86 87  1  0
 86 85  1  0
 87 83  1  0
 88 89  2  0
 89 90  1  0
 91 90  2  0
 92 91  1  0
 93 67  1  0
 93 98  1  0
 94 93  1  0
 94 97  1  1
 95 94  1  0
 96 94  1  0
 98 99  1  0
 99100  2  0
 99103  1  0
101 98  1  0
103102  1  0
103105  1  0
105104  1  0
105106  1  0
M  ISO  4  17 100  25 100  65 101  66 101
M  END
>  <TORSDO>  (43) 
F 25

>  <SCORE>  (43) 
62.851

>  <name>  (43) 
42

>  <ligand_id>  (43) 
42

>  <original_smiles>  (43) 
[H]C1=C([H])C([H])(S(=O)(=O)c2c([H])c([H])c(N([H])C(=O)N3C([H])([H])C([H])([H])C([H])([H])C([H])(n4nc(-c5c([H])c([H])c(Oc6c([H])c([H])c(F)c([H])c6F)c([H])c5[H])c(C(=O)N([H])[H])c4N([H])[H])C3([H])[H])c([H])c2[H])C([H])([H])C([H])(C#N)C([H])(OC(=O)N([H])C([H])([H])C([H])([H])C([H])([H])C([H])([H])Oc2c([H])c([H])c3c(c2[H])C([H])([H])N(C(=O)C([H])(N([H])C(=O)C([H])(N([H])C([H])([H])[H])C([H])([H])[H])C(C([H])([H])[H])(C([H])([H])[H])C([H])([H])[H])C([H])(C(=O)N([H])C2([H])c4c([H])c([H])c([H])c([H])c4C([H])([H])C([H])([H])C2([H])[H])C3([H])[H])C1([H])[H]

>  <smiles>  (43) 
[H]C1=C([H])C([H])(S(=O)(=O)c2c([H])c([H])c(N([H])C(=O)N3C([H])([H])C([H])([H])C([H])([H])C([H])(n4nc(-c5c([H])c([H])c(Oc6c([H])c([H])c(F)c([H])c6F)c([H])c5[H])c(C(=O)N([H])[H])c4N([H])[H])C3([H])[H])c([H])c2[H])C([H])([H])C([H])(C#N)C([H])(OC(=O)N([H])C([H])([H])C([H])([H])C([H])([H])C([H])([H])Oc2c([H])c([H])c3c(c2[H])C([H])([H])N(C(=O)C([H])(N([H])C(=O)C([H])(N([H])C([H])([H])[H])C([H])([H])[H])C(C([H])([H])[H])(C([H])([H])[H])C([H])([H])[H])C([H])(C(=O)N([H])C2([H])c4c([H])c([H])c([H])c([H])c4C([H])([H])C([H])([H])C2([H])[H])C3([H])[H])C1([H])[H]

$$$$
43:0:0
     RDKit          3D

 93101  0  0  1  0  0  0  0  0999 V2000
  -30.8160  -18.5170   19.6870 C   0  0  0  0  0  3  0  0  0  0  0  0
  -30.5660  -19.9490   19.4990 C   0  0  0  0  0  3  0  0  0  0  0  0
  -28.5120  -18.1030   19.4090 C   0  0  0  0  0  3  0  0  0  0  0  0
  -29.7930  -17.5030   19.6540 C   0  0  0  0  0  0  0  0  0  0  0  0
  -29.2690  -20.5290   19.2520 C   0  0  0  0  0  0  0  0  0  0  0  0
  -28.2480  -19.5230   19.2120 C   0  0  0  0  0  0  0  0  0  0  0  0
  -30.6970  -14.8600   19.5040 C   0  0  0  0  0  0  0  0  0  0  0  0
  -30.4830  -12.4810   18.6510 C   0  0  0  0  0  2  0  0  0  0  0  0
  -29.4260  -12.4460   17.5220 C   0  0  0  0  0  2  0  0  0  0  0  0
  -28.0070  -12.2880   18.1030 C   0  0  0  0  0  2  0  0  0  0  0  0
  -27.7470  -13.2520   19.2890 C   0  0  0  0  0  3  0  0  0  0  0  0
  -28.9060  -13.2270   20.3090 C   0  0  0  0  0  2  0  0  0  0  0  0
  -30.1280  -13.5910   19.5780 N   0  0  0  0  0  0  0  0  0  0  0  0
  -31.8460  -14.9540   19.0530 O   0  0  0  0  0  0  0  0  0  0  0  0
  -29.8720  -15.9730   19.8030 N   0  0  0  0  0  0  0  0  0  0  0  0
  -29.0210  -15.6100   20.2060 H   0  0  0  0  0  0  0  0  0  0  0  0
  -25.5000  -13.9480   20.3000 C   0  0  0  0  0  0  0  0  0  0  0  0
  -24.4350  -13.2240   20.7630 C   0  0  0  0  0  0  0  0  0  0  0  0
  -24.8040  -11.8500   20.6310 C   0  0  0  0  0  0  0  0  0  0  0  0
  -26.4520  -13.0180   19.9160 N   0  0  0  0  0  0  0  0  0  0  0  0
  -26.0480  -11.7490   20.1780 N   0  0  0  0  0  0  0  0  0  0  0  0
  -24.0220  -10.6280   20.8570 C   0  0  0  0  0  0  0  0  0  0  0  0
  -24.4890   -9.5980   21.7010 C   0  0  0  0  0  3  0  0  0  0  0  0
  -23.7100   -8.4400   21.9150 C   0  0  0  0  0  3  0  0  0  0  0  0
  -22.4500   -8.3050   21.2850 C   0  0  0  0  0  0  0  0  0  0  0  0
  -22.0020   -9.3230   20.4250 C   0  0  0  0  0  3  0  0  0  0  0  0
  -22.7800  -10.4730   20.2090 C   0  0  0  0  0  3  0  0  0  0  0  0
  -21.6360   -7.2060   21.4150 O   0  0  0  0  0  0  0  0  0  0  0  0
  -21.6550   -6.4250   22.5430 C   0  0  0  0  0  0  0  0  0  0  0  0
  -21.3900   -6.9580   23.8230 C   0  0  0  0  0  3  0  0  0  0  0  0
  -21.3520   -6.1070   24.9470 C   0  0  0  0  0  3  0  0  0  0  0  0
  -21.5700   -4.7230   24.7910 C   0  0  0  0  0  0  0  0  0  0  0  0
  -21.8290   -4.1910   23.5150 C   0  0  0  0  0  3  0  0  0  0  0  0
  -21.8690   -5.0400   22.3950 C   0  0  0  0  0  0  0  0  0  0  0  0
  -22.0990   -4.5180   21.1650 F   0  0  0  0  0  0  0  0  0  0  0  0
  -21.5260   -3.9050   25.8660 F   0  0  0  0  0  0  0  0  0  0  0  0
  -23.1110  -13.7740   21.2030 C   0  0  0  0  0  0  0  0  0  0  0  0
  -22.4420  -13.0960   22.1290 N   0  0  0  0  0  0  0  0  0  0  0  0
  -22.6830  -14.8390   20.7590 O   0  0  0  0  0  0  0  0  0  0  0  0
  -22.8010  -12.2340   22.5070 H   0  0  0  0  0  0  0  0  0  0  0  0
  -21.5560  -13.4480   22.4640 H   0  0  0  0  0  0  0  0  0  0  0  0
  -25.7230  -15.3130   20.1460 N   0  0  0  0  0  0  0  0  0  0  0  0
  -24.9620  -15.9690   20.2800 H   0  0  0  0  0  0  0  0  0  0  0  0
  -26.4830  -15.6990   19.6020 H   0  0  0  0  0  0  0  0  0  0  0  0
  -29.3340  -23.3000   19.0820 C   0  0  0  0  0  0  0  0  0  0  0  0
  -28.8620  -21.9730   18.9370 N   0  0  0  0  0  0  0  0  0  0  0  0
  -30.4080  -23.5220   19.6460 O   0  0  0  0  0  0  0  0  0  0  0  0
  -27.9240  -21.9930   18.5560 H   0  0  0  0  0  0  0  0  0  0  0  0
  -28.4730  -24.5810   18.4870 C   0  0  0  0  0  2  0  0  0  0  0  0
  -28.7330  -26.0810   18.8160 O   0  0  0  0  0  0  0  0  0  0  0  0
  -24.6800  -30.9430   22.6070 C   0  0  0  0  0  0  0  0  0  0  0  0
  -27.6110  -26.9850   18.8990 C   0  0  0  0  0  0  0  0  0  0  0  0
  -23.5840  -29.7130   20.7750 C   0  0  0  0  0  3  0  0  0  0  0  0
  -25.1440  -28.5080   19.1320 C   0  0  0  0  0  0  0  0  0  0  0  0
  -26.1060  -30.2210   20.6550 C   0  0  0  0  0  2  0  0  0  0  0  0
  -26.2910  -28.9570   19.8000 C   0  0  0  0  0  0  0  0  0  0  0  0
  -27.5260  -28.2150   19.6680 C   0  0  0  0  0  3  0  0  0  0  0  0
  -26.4260  -26.6480   18.2050 C   0  0  0  0  0  3  0  0  0  0  0  0
  -25.2230  -27.3720   18.3200 C   0  0  0  0  0  3  0  0  0  0  0  0
  -23.8460  -29.2770   19.3110 C   0  0  0  0  0  2  0  0  0  0  0  0
  -24.8090  -30.3070   21.4030 N   0  0  0  0  0  0  0  0  0  0  0  0
  -23.5800  -31.0470   23.1710 O   0  0  0  0  0  0  0  0  0  0  0  0
  -23.0070  -28.5160   21.5690 C   0  0  0  0  0  0  0  0  0  0  0  0
  -21.6870  -28.2840   21.4560 N   0  0  0  0  0  0  0  0  0  0  0  0
  -23.7470  -27.8030   22.2520 O   0  0  0  0  0  0  0  0  0  0  0  0
  -21.1400  -28.9190   20.8900 H   0  0  0  0  0  0  0  0  0  0  0  0
  -18.3890  -26.8630   21.9300 C   0  0  0  0  0  0  0  0  0  0  0  0
  -20.9520  -27.1840   22.0840 C   0  0  0  0  0  3  0  0  0  0  0  0
  -21.0590  -25.8900   21.2430 C   0  0  0  0  0  2  0  0  0  0  0  0
  -19.9010  -25.7150   20.2550 C   0  0  0  0  0  2  0  0  0  0  0  0
  -18.5630  -25.6750   20.9990 C   0  0  0  0  0  2  0  0  0  0  0  0
  -19.5100  -27.5810   22.4270 C   0  0  0  0  0  0  0  0  0  0  0  0
  -19.2900  -28.6980   23.2640 C   0  0  0  0  0  3  0  0  0  0  0  0
  -17.9840  -29.0960   23.6050 C   0  0  0  0  0  3  0  0  0  0  0  0
  -16.8790  -28.3740   23.1210 C   0  0  0  0  0  3  0  0  0  0  0  0
  -17.0840  -27.2580   22.2910 C   0  0  0  0  0  3  0  0  0  0  0  0
  -25.9040  -31.5860   23.3250 C   0  0  0  0  0  3  0  0  0  0  0  0
  -26.4990  -30.6770   24.4700 C   0  0  1  0  0  0  0  0  0  0  0  0
  -25.4430  -30.1920   25.4910 C   0  0  0  0  0  1  0  0  0  0  0  0
  -27.1860  -29.4280   23.8750 C   0  0  0  0  0  1  0  0  0  0  0  0
  -27.5850  -31.4570   25.2460 C   0  0  0  0  0  1  0  0  0  0  0  0
  -25.4740  -32.8820   23.8730 N   0  0  0  0  0  0  0  0  0  0  0  0
  -25.7100  -34.0710   23.3010 C   0  0  0  0  0  0  0  0  0  0  0  0
  -26.3820  -34.1950   22.2740 O   0  0  0  0  0  0  0  0  0  0  0  0
  -24.8770  -32.8510   24.6860 H   0  0  0  0  0  0  0  0  0  0  0  0
  -23.8310  -35.7430   23.2290 C   0  0  0  0  0  1  0  0  0  0  0  0
  -25.1060  -35.3180   23.9750 C   0  0  0  0  0  3  0  0  0  0  0  0
  -27.1620  -36.2350   24.9590 C   0  0  0  0  0  1  0  0  0  0  0  0
  -26.0420  -36.4630   24.0500 N   0  0  0  0  0  0  0  0  0  0  0  0
  -25.5560  -37.3030   24.3540 H   0  0  0  0  0  0  0  0  0  0  0  0
  -26.9790  -20.0080   18.9500 O   0  0  0  0  0  0  0  0  0  0  0  0
  -24.5750  -19.8980   18.9000 C   0  0  0  0  0  1  0  0  0  0  0  0
  -25.8810  -19.1010   18.9670 C   0  0  0  0  0  2  0  0  0  0  0  0
  2  1  2  0
  3  4  2  0
  4  1  1  0
  4 15  1  0
  5  2  1  0
  6  5  2  0
  6  3  1  0
  7 13  1  0
  7 15  1  0
  8 13  1  0
  9 10  1  0
  9  8  1  0
 11 10  1  0
 11 20  1  0
 11 12  1  0
 13 12  1  0
 14  7  2  0
 15 16  1  0
 17 18  2  0
 18 37  1  0
 19 18  1  0
 19 22  1  0
 20 21  1  0
 20 17  1  0
 21 19  2  0
 22 23  1  0
 23 24  2  0
 25 28  1  0
 25 24  1  0
 26 25  2  0
 27 26  1  0
 27 22  2  0
 28 29  1  0
 29 30  1  0
 30 31  2  0
 32 31  1  0
 32 36  1  0
 33 32  2  0
 34 29  2  0
 34 33  1  0
 35 34  1  0
 37 38  1  0
 38 41  1  0
 38 40  1  0
 39 37  2  0
 42 43  1  0
 42 17  1  0
 44 42  1  0
 45 47  2  0
 46 45  1  0
 46  5  1  0
 48 46  1  0
 49 50  1  0
 49 45  1  0
 50 52  1  0
 51 62  2  0
 52 57  1  0
 53 61  1  0
 53 63  1  0
 54 60  1  0
 54 56  1  0
 55 61  1  0
 56 55  1  0
 57 56  2  0
 58 59  1  0
 58 52  2  0
 59 54  2  0
 60 53  1  0
 61 51  1  0
 63 65  2  0
 64 63  1  0
 66 64  1  0
 67 76  2  0
 67 72  1  0
 68 64  1  0
 68 72  1  0
 69 68  1  0
 70 71  1  0
 70 69  1  0
 71 67  1  0
 72 73  2  0
 73 74  1  0
 75 74  2  0
 76 75  1  0
 77 51  1  0
 77 82  1  0
 77 78  1  0
 78 81  1  1
 78 79  1  0
 80 78  1  0
 82 85  1  0
 83 82  1  0
 83 87  1  0
 84 83  2  0
 87 86  1  0
 87 89  1  0
 89 90  1  0
 89 88  1  0
 91 93  1  0
 91  6  1  0
 92 93  1  0
M  ISO  4   7 100  15 100  49 101  50 101
M  END
>  <TORSDO>  (44) 
F 20

>  <SCORE>  (44) 
-9.392

>  <name>  (44) 
43

>  <ligand_id>  (44) 
43

>  <original_smiles>  (44) 
[H]c1c([H])c([H])c2c(c1[H])C([H])([H])C([H])([H])C([H])([H])C2([H])N([H])C(=O)C1([H])N(C(=O)C([H])(N([H])C(=O)C([H])(N([H])C([H])([H])[H])C([H])([H])[H])C(C([H])([H])[H])(C([H])([H])[H])C([H])([H])[H])C([H])([H])c2c([H])c(OC([H])([H])C(=O)N([H])c3c([H])c([H])c(N([H])C(=O)N4C([H])([H])C([H])([H])C([H])([H])C([H])(n5nc(-c6c([H])c([H])c(Oc7c([H])c([H])c(F)c([H])c7F)c([H])c6[H])c(C(=O)N([H])[H])c5N([H])[H])C4([H])[H])c([H])c3OC([H])([H])C([H])([H])[H])c([H])c([H])c2C1([H])[H]

>  <smiles>  (44) 
[H]c1c([H])c([H])c2c(c1[H])C([H])([H])C([H])([H])C([H])([H])C2([H])N([H])C(=O)C1([H])N(C(=O)C([H])(N([H])C(=O)C([H])(N([H])C([H])([H])[H])C([H])([H])[H])C(C([H])([H])[H])(C([H])([H])[H])C([H])([H])[H])C([H])([H])c2c([H])c(OC([H])([H])C(=O)N([H])c3c([H])c([H])c(N([H])C(=O)N4C([H])([H])C([H])([H])C([H])([H])C([H])(n5nc(-c6c([H])c([H])c(Oc7c([H])c([H])c(F)c([H])c7F)c([H])c6[H])c(C(=O)N([H])[H])c5N([H])[H])C4([H])[H])c([H])c3OC([H])([H])C([H])([H])[H])c([H])c([H])c2C1([H])[H]

$$$$
44:0:0
     RDKit          3D

107115  0  0  1  0  0  0  0  0999 V2000
  -21.1540  -21.5170   20.8280 C   0  0  0  0  0  2  0  0  0  0  0  0
  -21.8810  -22.7670   21.3490 C   0  0  0  0  0  2  0  0  0  0  0  0
  -22.6190  -23.4410   20.1860 C   0  0  0  0  0  2  0  0  0  0  0  0
  -21.6210  -24.0920   19.1960 C   0  0  0  0  0  2  0  0  0  0  0  0
  -21.9060  -24.0110   16.7230 C   0  0  0  0  0  0  0  0  0  0  0  0
  -22.2230  -24.5140   17.9280 N   0  0  0  0  0  0  0  0  0  0  0  0
  -22.8820  -24.1680   15.8010 N   0  0  0  0  0  0  0  0  0  0  0  0
  -20.8170  -23.4490   16.5260 O   0  0  0  0  0  0  0  0  0  0  0  0
  -22.5390  -25.4860   17.9090 H   0  0  0  0  0  0  0  0  0  0  0  0
  -23.7460  -24.5300   16.1880 H   0  0  0  0  0  0  0  0  0  0  0  0
  -23.0010  -23.8190   14.3540 C   0  0  0  0  0  2  0  0  0  0  0  0
  -21.8040  -24.1680   13.4230 C   0  0  0  0  0  2  0  0  0  0  0  0
  -22.1500  -25.0950   12.2370 C   0  0  0  0  0  2  0  0  0  0  0  0
  -22.1100  -26.5010   12.5330 O   0  0  0  0  0  0  0  0  0  0  0  0
  -28.1350  -27.9020   16.0980 C   0  0  0  0  0  0  0  0  0  0  0  0
  -22.7160  -26.9340   13.6840 C   0  0  0  0  0  0  0  0  0  0  0  0
  -26.0280  -28.1100   17.3970 C   0  0  0  0  0  3  0  0  0  0  0  0
  -23.8800  -27.9990   16.0260 C   0  0  0  0  0  0  0  0  0  0  0  0
  -26.0460  -28.4260   14.8550 C   0  0  0  0  0  2  0  0  0  0  0  0
  -24.6230  -27.9200   14.8450 C   0  0  0  0  0  0  0  0  0  0  0  0
  -24.0540  -27.3790   13.6760 C   0  0  0  0  0  3  0  0  0  0  0  0
  -21.9690  -27.0320   14.8750 C   0  0  0  0  0  3  0  0  0  0  0  0
  -22.5520  -27.5380   16.0530 C   0  0  0  0  0  3  0  0  0  0  0  0
  -24.5660  -28.6100   17.2260 C   0  0  0  0  0  2  0  0  0  0  0  0
  -26.7890  -28.1310   16.1030 N   0  0  0  0  0  0  0  0  0  0  0  0
  -28.7530  -27.7250   17.1560 O   0  0  0  0  0  0  0  0  0  0  0  0
  -26.0110  -26.7170   18.0690 C   0  0  0  0  0  0  0  0  0  0  0  0
  -25.8460  -26.6940   19.4010 N   0  0  0  0  0  0  0  0  0  0  0  0
  -26.1060  -25.6860   17.3960 O   0  0  0  0  0  0  0  0  0  0  0  0
  -25.8170  -27.5770   19.8920 H   0  0  0  0  0  0  0  0  0  0  0  0
  -25.4370  -25.5360   22.8010 C   0  0  0  0  0  0  0  0  0  0  0  0
  -25.7420  -25.4920   20.2300 C   0  0  0  0  0  3  0  0  0  0  0  0
  -24.3220  -24.8980   20.1780 C   0  0  0  0  0  2  0  0  0  0  0  0
  -23.4170  -25.4450   21.2870 C   0  0  0  0  0  2  0  0  0  0  0  0
  -23.9920  -25.0930   22.6650 C   0  0  0  0  0  2  0  0  0  0  0  0
  -26.2510  -25.7370   21.6550 C   0  0  0  0  0  0  0  0  0  0  0  0
  -27.5730  -26.1930   21.8290 C   0  0  0  0  0  3  0  0  0  0  0  0
  -28.0870  -26.4670   23.1100 C   0  0  0  0  0  3  0  0  0  0  0  0
  -27.2780  -26.2430   24.2390 C   0  0  0  0  0  3  0  0  0  0  0  0
  -25.9650  -25.7710   24.0860 C   0  0  0  0  0  3  0  0  0  0  0  0
  -28.9720  -27.8740   14.7770 C   0  0  0  0  0  3  0  0  0  0  0  0
  -30.3170  -28.3860   15.0890 N   0  0  0  0  0  0  0  0  0  0  0  0
  -30.7180  -29.6490   14.8830 C   0  0  0  0  0  0  0  0  0  0  0  0
  -30.0160  -30.4920   14.3200 O   0  0  0  0  0  0  0  0  0  0  0  0
  -30.9480  -27.7510   15.5530 H   0  0  0  0  0  0  0  0  0  0  0  0
  -32.0230  -30.8530   16.6620 C   0  0  0  0  0  1  0  0  0  0  0  0
  -32.1330  -30.0300   15.3710 C   0  0  0  0  0  3  0  0  0  0  0  0
  -33.3260  -29.9870   13.2220 C   0  0  0  0  0  1  0  0  0  0  0  0
  -32.9150  -30.7890   14.3730 N   0  0  0  0  0  0  0  0  0  0  0  0
  -33.7440  -31.2000   14.7930 H   0  0  0  0  0  0  0  0  0  0  0  0
  -29.0680  -26.4480   14.1050 C   0  0  1  0  0  0  0  0  0  0  0  0
  -29.5460  -25.3330   15.0590 C   0  0  0  0  0  1  0  0  0  0  0  0
  -27.7040  -26.0170   13.5140 C   0  0  0  0  0  1  0  0  0  0  0  0
  -30.0600  -26.4910   12.9180 C   0  0  0  0  0  1  0  0  0  0  0  0
  -20.2290  -20.8510   21.8580 C   0  0  0  0  0  2  0  0  0  0  0  0
  -18.9750  -21.7070   22.0400 C   0  0  0  0  0  2  0  0  0  0  0  0
  -18.1040  -21.2860   23.2250 C   0  0  0  0  0  2  0  0  0  0  0  0
  -17.1590  -22.4020   23.7000 C   0  0  0  0  0  2  0  0  0  0  0  0
  -16.2920  -22.7990   22.6370 O   0  0  0  0  0  0  0  0  0  0  0  0
  -12.9990  -24.3940   22.8600 C   0  0  0  0  0  3  0  0  0  0  0  0
  -14.0290  -23.5150   22.4990 C   0  0  0  0  0  3  0  0  0  0  0  0
  -15.6260  -24.9060   23.6800 C   0  0  0  0  0  3  0  0  0  0  0  0
  -14.5880  -25.7390   24.1570 C   0  0  0  0  0  0  0  0  0  0  0  0
  -13.2530  -25.5050   23.6970 C   0  0  0  0  0  0  0  0  0  0  0  0
  -15.3480  -23.7520   22.9220 C   0  0  0  0  0  0  0  0  0  0  0  0
  -10.9430  -25.9490   24.4200 C   0  0  0  0  0  0  0  0  0  0  0  0
  -10.9210  -26.0750   26.8230 C   0  0  0  0  0  2  0  0  0  0  0  0
  -12.3490  -26.0340   27.3520 C   0  0  0  0  0  2  0  0  0  0  0  0
  -12.8000  -24.5970   27.6310 C   0  0  0  0  0  2  0  0  0  0  0  0
  -12.5160  -23.6210   26.4580 C   0  0  0  0  0  3  0  0  0  0  0  0
  -11.1000  -23.8300   25.8670 C   0  0  0  0  0  2  0  0  0  0  0  0
  -10.9420  -25.2720   25.6050 N   0  0  0  0  0  0  0  0  0  0  0  0
   -9.9650  -26.5730   24.0490 O   0  0  0  0  0  0  0  0  0  0  0  0
  -12.1610  -26.3820   23.9530 N   0  0  0  0  0  0  0  0  0  0  0  0
  -13.3090  -21.2100   26.0680 C   0  0  0  0  0  0  0  0  0  0  0  0
  -13.5130  -20.1600   26.9330 C   0  0  0  0  0  0  0  0  0  0  0  0
  -13.1060  -20.6250   28.2140 C   0  0  0  0  0  0  0  0  0  0  0  0
  -12.7990  -22.2400   26.8410 N   0  0  0  0  0  0  0  0  0  0  0  0
  -12.6200  -21.8590   28.1290 N   0  0  0  0  0  0  0  0  0  0  0  0
  -13.2040  -19.9850   29.5360 C   0  0  0  0  0  0  0  0  0  0  0  0
  -12.1030  -19.9500   30.4180 C   0  0  0  0  0  3  0  0  0  0  0  0
  -12.2130  -19.3130   31.6720 C   0  0  0  0  0  3  0  0  0  0  0  0
  -13.4280  -18.7000   32.0570 C   0  0  0  0  0  0  0  0  0  0  0  0
  -14.5290  -18.7570   31.1840 C   0  0  0  0  0  3  0  0  0  0  0  0
  -14.4220  -19.3960   29.9360 C   0  0  0  0  0  3  0  0  0  0  0  0
  -13.6360  -18.0840   33.2660 O   0  0  0  0  0  0  0  0  0  0  0  0
  -12.5900  -17.6810   34.0560 C   0  0  0  0  0  0  0  0  0  0  0  0
  -11.7360  -16.6250   33.6770 C   0  0  0  0  0  3  0  0  0  0  0  0
  -10.7200  -16.1950   34.5540 C   0  0  0  0  0  3  0  0  0  0  0  0
  -10.5600  -16.8190   35.8060 C   0  0  0  0  0  0  0  0  0  0  0  0
  -11.4100  -17.8740   36.1820 C   0  0  0  0  0  3  0  0  0  0  0  0
  -12.4280  -18.2980   35.3110 C   0  0  0  0  0  0  0  0  0  0  0  0
  -13.2610  -19.2990   35.6860 F   0  0  0  0  0  0  0  0  0  0  0  0
   -9.5890  -16.4030   36.6530 F   0  0  0  0  0  0  0  0  0  0  0  0
  -14.1440  -18.8450   26.5890 C   0  0  0  0  0  0  0  0  0  0  0  0
  -13.6720  -17.7660   27.2120 N   0  0  0  0  0  0  0  0  0  0  0  0
  -15.0280  -18.7550   25.7440 O   0  0  0  0  0  0  0  0  0  0  0  0
  -12.9280  -17.8390   27.8900 H   0  0  0  0  0  0  0  0  0  0  0  0
  -14.0490  -16.8550   26.9920 H   0  0  0  0  0  0  0  0  0  0  0  0
  -13.5340  -21.3660   24.7170 N   0  0  0  0  0  0  0  0  0  0  0  0
  -13.9670  -20.6600   24.1350 H   0  0  0  0  0  0  0  0  0  0  0  0
  -13.3540  -22.2270   24.2140 H   0  0  0  0  0  0  0  0  0  0  0  0
  -12.2450  -27.7750   23.3980 C   0  0  0  0  0  2  0  0  0  0  0  0
  -13.6450  -28.3140   23.0350 C   0  0  0  0  0  2  0  0  0  0  0  0
  -14.3040  -27.4780   22.2250 F   0  0  0  0  0  0  0  0  0  0  0  0
  -15.5860  -26.1120   26.4580 C   0  0  0  0  0  1  0  0  0  0  0  0
  -14.9720  -26.7930   25.2070 C   0  0  0  0  0  2  0  0  0  0  0  0
  1  2  1  0
  1 55  1  0
  3  2  1  0
  4  3  1  0
  5  6  1  0
  6  4  1  0
  7 10  1  0
  7  5  1  0
  8  5  2  0
  9  6  1  0
 11  7  1  0
 12 11  1  0
 13 14  1  0
 13 12  1  0
 14 16  1  0
 15 25  1  0
 15 26  2  0
 16 22  1  0
 17 27  1  0
 18 23  1  0
 18 24  1  0
 19 25  1  0
 20 19  1  0
 20 18  2  0
 21 16  2  0
 21 20  1  0
 22 23  2  0
 24 17  1  0
 25 17  1  0
 27 28  1  0
 28 30  1  0
 29 27  2  0
 31 40  1  0
 32 28  1  0
 32 36  1  0
 33 32  1  0
 33 34  1  0
 34 35  1  0
 35 31  1  0
 36 37  1  0
 36 31  2  0
 37 38  2  0
 38 39  1  0
 40 39  2  0
 41 42  1  0
 41 15  1  0
 42 45  1  0
 43 42  1  0
 43 47  1  0
 44 43  2  0
 47 46  1  0
 48 49  1  0
 49 50  1  0
 49 47  1  0
 51 41  1  0
 51 52  1  1
 53 51  1  0
 54 51  1  0
 55 56  1  0
 56 57  1  0
 57 58  1  0
 59 65  1  0
 59 58  1  0
 60 64  1  0
 61 60  2  0
 61 65  1  0
 62 63  1  0
 63107  1  0
 64 74  1  0
 64 63  2  0
 65 62  2  0
 66 72  1  0
 67 68  1  0
 68 69  1  0
 70 71  1  0
 70 78  1  0
 70 69  1  0
 72 71  1  0
 72 67  1  0
 73 66  2  0
 74 66  1  0
 75 78  1  0
 75 76  2  0
 76 77  1  0
 77 80  1  0
 78 79  1  0
 79 77  2  0
 80 85  2  0
 80 81  1  0
 81 82  2  0
 82 83  1  0
 83 86  1  0
 84 83  2  0
 85 84  1  0
 86 87  1  0
 87 92  1  0
 88 87  2  0
 88 89  1  0
 89 90  2  0
 90 91  1  0
 90 94  1  0
 92 93  1  0
 92 91  2  0
 95 76  1  0
 95 96  1  0
 96 98  1  0
 97 95  2  0
 99 96  1  0
100 75  1  0
101100  1  0
102100  1  0
103 74  1  0
104103  1  0
105104  1  0
107106  1  0
M  ISO  4  13 101  14 101  66 100  74 100
M  END
>  <TORSDO>  (45) 
F 32

>  <SCORE>  (45) 
2.916

>  <name>  (45) 
44

>  <ligand_id>  (45) 
44

>  <original_smiles>  (45) 
[H]c1c([H])c([H])c2c(c1[H])C([H])([H])C([H])([H])C([H])([H])C2([H])N([H])C(=O)C1([H])N(C(=O)C([H])(N([H])C(=O)C([H])(N([H])C([H])([H])[H])C([H])([H])[H])C(C([H])([H])[H])(C([H])([H])[H])C([H])([H])[H])C([H])([H])c2c([H])c(OC([H])([H])C([H])([H])C([H])([H])N([H])C(=O)N([H])C([H])([H])C([H])([H])C([H])([H])C([H])([H])C([H])([H])C([H])([H])C([H])([H])C([H])([H])Oc3c([H])c([H])c(N(C(=O)N4C([H])([H])C([H])([H])C([H])([H])C([H])(n5nc(-c6c([H])c([H])c(Oc7c([H])c([H])c(F)c([H])c7F)c([H])c6[H])c(C(=O)N([H])[H])c5N([H])[H])C4([H])[H])C([H])([H])C([H])([H])F)c(C([H])([H])C([H])([H])[H])c3[H])c([H])c([H])c2C1([H])[H]

>  <smiles>  (45) 
[H]c1c([H])c([H])c2c(c1[H])C([H])([H])C([H])([H])C([H])([H])C2([H])N([H])C(=O)C1([H])N(C(=O)C([H])(N([H])C(=O)C([H])(N([H])C([H])([H])[H])C([H])([H])[H])C(C([H])([H])[H])(C([H])([H])[H])C([H])([H])[H])C([H])([H])c2c([H])c(OC([H])([H])C([H])([H])C([H])([H])N([H])C(=O)N([H])C([H])([H])C([H])([H])C([H])([H])C([H])([H])C([H])([H])C([H])([H])C([H])([H])C([H])([H])Oc3c([H])c([H])c(N(C(=O)N4C([H])([H])C([H])([H])C([H])([H])C([H])(n5nc(-c6c([H])c([H])c(Oc7c([H])c([H])c(F)c([H])c7F)c([H])c6[H])c(C(=O)N([H])[H])c5N([H])[H])C4([H])[H])C([H])([H])C([H])([H])F)c(C([H])([H])C([H])([H])[H])c3[H])c([H])c([H])c2C1([H])[H]

$$$$
45:0:0
     RDKit          3D

101110  0  0  1  0  0  0  0  0999 V2000
  -29.8720  -22.3890   20.0350 C   0  0  0  0  0  0  0  0  0  0  0  0
  -30.0940  -21.5580   21.0710 N   0  0  0  0  0  0  0  0  0  0  0  0
  -29.3290  -22.0250   18.9870 O   0  0  0  0  0  0  0  0  0  0  0  0
  -30.3600  -22.0180   21.9310 H   0  0  0  0  0  0  0  0  0  0  0  0
  -29.1470  -25.3160   18.4560 C   0  0  0  0  0  0  0  0  0  0  0  0
  -32.4710  -23.8840   19.1790 C   0  0  0  0  0  2  0  0  0  0  0  0
  -31.8040  -23.9520   20.5450 C   0  0  0  0  0  2  0  0  0  0  0  0
  -31.5030  -24.6610   18.2880 C   0  0  0  0  0  2  0  0  0  0  0  0
  -30.2940  -23.8730   20.2320 C   0  0  0  0  0  3  0  0  0  0  0  0
  -30.1990  -24.6310   18.9670 N   0  0  0  0  0  0  0  0  0  0  0  0
  -29.1750  -25.7510   17.2980 O   0  0  0  0  0  0  0  0  0  0  0  0
  -27.9320  -25.6870   19.3180 C   0  0  0  0  0  2  0  0  0  0  0  0
  -27.9210  -27.1170   19.4340 O   0  0  0  0  0  0  0  0  0  0  0  0
  -24.5670  -32.0230   23.3330 C   0  0  0  0  0  0  0  0  0  0  0  0
  -26.7360  -27.7900   19.6410 C   0  0  0  0  0  0  0  0  0  0  0  0
  -23.1380  -30.7290   21.7840 C   0  0  0  0  0  3  0  0  0  0  0  0
  -24.3720  -29.2840   20.0850 C   0  0  0  0  0  0  0  0  0  0  0  0
  -25.6160  -31.1010   21.2690 C   0  0  0  0  0  2  0  0  0  0  0  0
  -25.6020  -29.7730   20.5380 C   0  0  0  0  0  0  0  0  0  0  0  0
  -26.7830  -29.0340   20.3120 C   0  0  0  0  0  3  0  0  0  0  0  0
  -25.4810  -27.3030   19.2060 C   0  0  0  0  0  3  0  0  0  0  0  0
  -24.3060  -28.0470   19.4220 C   0  0  0  0  0  3  0  0  0  0  0  0
  -23.1520  -30.1380   20.3490 C   0  0  0  0  0  2  0  0  0  0  0  0
  -24.4670  -31.2950   22.1840 N   0  0  0  0  0  0  0  0  0  0  0  0
  -23.5700  -32.2590   24.0310 O   0  0  0  0  0  0  0  0  0  0  0  0
  -22.6150  -29.6470   22.7560 C   0  0  0  0  0  0  0  0  0  0  0  0
  -21.3390  -29.2620   22.5940 N   0  0  0  0  0  0  0  0  0  0  0  0
  -23.3570  -29.1530   23.6110 O   0  0  0  0  0  0  0  0  0  0  0  0
  -20.7950  -29.7190   21.8750 H   0  0  0  0  0  0  0  0  0  0  0  0
  -18.2590  -27.3940   22.8440 C   0  0  0  0  0  0  0  0  0  0  0  0
  -20.6460  -28.2340   23.3670 C   0  0  0  0  0  3  0  0  0  0  0  0
  -21.1230  -26.8200   22.9660 C   0  0  0  0  0  2  0  0  0  0  0  0
  -20.2570  -26.1770   21.8770 C   0  0  0  0  0  2  0  0  0  0  0  0
  -18.8030  -26.0660   22.3440 C   0  0  0  0  0  2  0  0  0  0  0  0
  -19.1250  -28.4170   23.3100 C   0  0  0  0  0  0  0  0  0  0  0  0
  -18.5720  -29.6450   23.7290 C   0  0  0  0  0  3  0  0  0  0  0  0
  -17.1810  -29.8580   23.6930 C   0  0  0  0  0  3  0  0  0  0  0  0
  -16.3260  -28.8360   23.2470 C   0  0  0  0  0  3  0  0  0  0  0  0
  -16.8650  -27.6060   22.8280 C   0  0  0  0  0  3  0  0  0  0  0  0
  -25.9310  -32.6140   23.8120 C   0  0  0  0  0  3  0  0  0  0  0  0
  -25.6880  -33.9990   24.2310 N   0  0  0  0  0  0  0  0  0  0  0  0
  -25.9390  -35.0770   23.4750 C   0  0  0  0  0  0  0  0  0  0  0  0
  -26.4740  -35.0080   22.3660 O   0  0  0  0  0  0  0  0  0  0  0  0
  -25.1980  -34.1300   25.1050 H   0  0  0  0  0  0  0  0  0  0  0  0
  -24.2130  -36.9040   23.3960 C   0  0  0  0  0  1  0  0  0  0  0  0
  -25.5320  -36.4510   24.0410 C   0  0  0  0  0  3  0  0  0  0  0  0
  -27.7610  -37.2760   24.6580 C   0  0  0  0  0  1  0  0  0  0  0  0
  -26.5630  -37.4950   23.8520 N   0  0  0  0  0  0  0  0  0  0  0  0
  -26.1920  -38.4120   24.0770 H   0  0  0  0  0  0  0  0  0  0  0  0
  -26.5920  -31.7850   24.9820 C   0  0  1  0  0  0  0  0  0  0  0  0
  -25.6370  -31.5140   26.1680 C   0  0  0  0  0  1  0  0  0  0  0  0
  -27.1010  -30.4190   24.4630 C   0  0  0  0  0  1  0  0  0  0  0  0
  -27.8260  -32.5410   25.5280 C   0  0  0  0  0  1  0  0  0  0  0  0
  -30.1980  -19.3380   19.9280 C   0  0  0  0  0  3  0  0  0  0  0  0
  -30.3400  -17.9370   20.0200 C   0  0  0  0  0  3  0  0  0  0  0  0
  -30.2180  -19.4950   22.3540 C   0  0  0  0  0  3  0  0  0  0  0  0
  -30.1380  -20.1310   21.0960 C   0  0  0  0  0  0  0  0  0  0  0  0
  -30.4080  -17.3060   21.2850 C   0  0  0  0  0  0  0  0  0  0  0  0
  -30.3330  -18.0850   22.4620 C   0  0  0  0  0  0  0  0  0  0  0  0
  -31.2530  -14.9620   20.8850 C   0  0  0  0  0  0  0  0  0  0  0  0
  -31.2240  -12.6740   19.9580 C   0  0  0  0  0  2  0  0  0  0  0  0
  -30.4320  -12.6970   18.6350 C   0  0  0  0  0  2  0  0  0  0  0  0
  -28.9200  -12.5190   18.8910 C   0  0  0  0  0  2  0  0  0  0  0  0
  -28.3890  -13.4680   20.0000 C   0  0  0  0  0  3  0  0  0  0  0  0
  -29.3010  -13.4070   21.2450 C   0  0  0  0  0  2  0  0  0  0  0  0
  -30.6790  -13.7300   20.8250 N   0  0  0  0  0  0  0  0  0  0  0  0
  -32.3730  -15.2060   20.4270 O   0  0  0  0  0  0  0  0  0  0  0  0
  -30.4880  -15.8940   21.4770 N   0  0  0  0  0  0  0  0  0  0  0  0
  -29.7130  -15.5200   22.0050 H   0  0  0  0  0  0  0  0  0  0  0  0
  -25.9020  -14.0340   20.3710 C   0  0  0  0  0  0  0  0  0  0  0  0
  -24.8200  -13.2490   20.6730 C   0  0  0  0  0  0  0  0  0  0  0  0
  -25.3220  -11.9200   20.7970 C   0  0  0  0  0  0  0  0  0  0  0  0
  -26.9940  -13.1790   20.3320 N   0  0  0  0  0  0  0  0  0  0  0  0
  -26.6400  -11.9050   20.6400 N   0  0  0  0  0  0  0  0  0  0  0  0
  -24.6150  -10.6480   20.9990 C   0  0  0  0  0  0  0  0  0  0  0  0
  -24.8100   -9.8730   22.1640 C   0  0  0  0  0  3  0  0  0  0  0  0
  -24.1090   -8.6610   22.3430 C   0  0  0  0  0  3  0  0  0  0  0  0
  -23.1970   -8.2180   21.3560 C   0  0  0  0  0  0  0  0  0  0  0  0
  -23.0240   -8.9800   20.1870 C   0  0  0  0  0  3  0  0  0  0  0  0
  -23.7280  -10.1820   20.0080 C   0  0  0  0  0  3  0  0  0  0  0  0
  -22.4880   -7.0430   21.4350 O   0  0  0  0  0  0  0  0  0  0  0  0
  -21.9040   -6.6340   22.6070 C   0  0  0  0  0  0  0  0  0  0  0  0
  -20.9610   -7.4330   23.2890 C   0  0  0  0  0  3  0  0  0  0  0  0
  -20.3340   -6.9410   24.4530 C   0  0  0  0  0  3  0  0  0  0  0  0
  -20.6390   -5.6520   24.9280 C   0  0  0  0  0  0  0  0  0  0  0  0
  -21.5740   -4.8530   24.2460 C   0  0  0  0  0  3  0  0  0  0  0  0
  -22.2030   -5.3420   23.0880 C   0  0  0  0  0  0  0  0  0  0  0  0
  -23.0880   -4.5610   22.4230 F   0  0  0  0  0  0  0  0  0  0  0  0
  -20.0310   -5.1770   26.0400 F   0  0  0  0  0  0  0  0  0  0  0  0
  -23.3870  -13.6940   20.7510 C   0  0  0  0  0  0  0  0  0  0  0  0
  -22.5850  -13.0390   21.5850 N   0  0  0  0  0  0  0  0  0  0  0  0
  -22.9800  -14.6590   20.1070 O   0  0  0  0  0  0  0  0  0  0  0  0
  -22.9230  -12.2600   22.1300 H   0  0  0  0  0  0  0  0  0  0  0  0
  -21.6210  -13.3250   21.6890 H   0  0  0  0  0  0  0  0  0  0  0  0
  -26.0480  -15.3930   20.1120 N   0  0  0  0  0  0  0  0  0  0  0  0
  -25.2540  -16.0230   20.0770 H   0  0  0  0  0  0  0  0  0  0  0  0
  -26.9270  -15.8390   19.8830 H   0  0  0  0  0  0  0  0  0  0  0  0
  -30.3760  -17.3730   23.6480 O   0  0  0  0  0  0  0  0  0  0  0  0
  -31.9480  -18.7450   24.9760 C   0  0  0  0  0  1  0  0  0  0  0  0
  -29.3970  -18.7020   25.5100 C   0  0  0  0  0  1  0  0  0  0  0  0
  -30.6160  -17.9760   24.9200 C   0  0  0  0  0  3  0  0  0  0  0  0
  1  2  1  0
  2 57  1  0
  2  4  1  0
  3  1  2  0
  5 10  1  0
  5 12  1  0
  6  7  1  0
  8 10  1  0
  8  6  1  0
  9  1  1  0
  9  7  1  0
 10  9  1  0
 11  5  2  0
 12 13  1  0
 13 15  1  0
 14 25  2  0
 15 20  1  0
 16 24  1  0
 16 26  1  0
 17 23  1  0
 17 19  1  0
 18 24  1  0
 19 18  1  0
 20 19  2  0
 21 22  1  0
 21 15  2  0
 22 17  2  0
 23 16  1  0
 24 14  1  0
 26 28  2  0
 27 26  1  0
 29 27  1  0
 30 35  1  0
 31 27  1  0
 32 31  1  0
 33 34  1  0
 33 32  1  0
 34 30  1  0
 35 31  1  0
 35 36  2  0
 37 36  1  0
 38 37  2  0
 39 30  2  0
 39 38  1  0
 40 14  1  0
 40 41  1  0
 40 50  1  0
 41 44  1  0
 42 46  1  0
 42 41  1  0
 43 42  2  0
 46 45  1  0
 48 46  1  0
 48 49  1  0
 48 47  1  0
 50 53  1  1
 50 51  1  0
 52 50  1  0
 54 55  2  0
 54 57  1  0
 55 58  1  0
 56 59  1  0
 57 56  2  0
 58 68  1  0
 58 59  2  0
 59 98  1  0
 60 68  1  0
 61 66  1  0
 62 63  1  0
 62 61  1  0
 64 63  1  0
 64 73  1  0
 64 65  1  0
 66 60  1  0
 66 65  1  0
 67 60  2  0
 68 69  1  0
 70 71  2  0
 71 90  1  0
 71 72  1  0
 72 75  1  0
 73 70  1  0
 73 74  1  0
 74 72  2  0
 75 76  1  0
 76 77  2  0
 78 81  1  0
 78 77  1  0
 79 78  2  0
 80 79  1  0
 80 75  2  0
 81 82  1  0
 82 87  2  0
 82 83  1  0
 83 84  2  0
 84 85  1  0
 85 89  1  0
 86 85  2  0
 87 86  1  0
 88 87  1  0
 90 91  1  0
 91 94  1  0
 91 93  1  0
 92 90  2  0
 95 70  1  0
 96 95  1  0
 97 95  1  0
 98101  1  0
101 99  1  0
101100  1  0
M  ISO  4  12 101  13 101  60 100  68 100
M  END
>  <TORSDO>  (46) 
F 21

>  <SCORE>  (46) 
-3.001

>  <name>  (46) 
45

>  <ligand_id>  (46) 
45

>  <original_smiles>  (46) 
[H]c1c([H])c([H])c2c(c1[H])C([H])([H])C([H])([H])C([H])([H])C2([H])N([H])C(=O)C1([H])N(C(=O)C([H])(N([H])C(=O)C([H])(N([H])C([H])([H])[H])C([H])([H])[H])C(C([H])([H])[H])(C([H])([H])[H])C([H])([H])[H])C([H])([H])c2c([H])c(OC([H])([H])C(=O)N3C([H])([H])C([H])([H])C([H])([H])C3([H])C(=O)N([H])c3c([H])c([H])c(N([H])C(=O)N4C([H])([H])C([H])([H])C([H])([H])C([H])(n5nc(-c6c([H])c([H])c(Oc7c([H])c([H])c(F)c([H])c7F)c([H])c6[H])c(C(=O)N([H])[H])c5N([H])[H])C4([H])[H])c(OC([H])(C([H])([H])[H])C([H])([H])[H])c3[H])c([H])c([H])c2C1([H])[H]

>  <smiles>  (46) 
[H]c1c([H])c([H])c2c(c1[H])C([H])([H])C([H])([H])C([H])([H])C2([H])N([H])C(=O)C1([H])N(C(=O)C([H])(N([H])C(=O)C([H])(N([H])C([H])([H])[H])C([H])([H])[H])C(C([H])([H])[H])(C([H])([H])[H])C([H])([H])[H])C([H])([H])c2c([H])c(OC([H])([H])C(=O)N3C([H])([H])C([H])([H])C([H])([H])C3([H])C(=O)N([H])c3c([H])c([H])c(N([H])C(=O)N4C([H])([H])C([H])([H])C([H])([H])C([H])(n5nc(-c6c([H])c([H])c(Oc7c([H])c([H])c(F)c([H])c7F)c([H])c6[H])c(C(=O)N([H])[H])c5N([H])[H])C4([H])[H])c(OC([H])(C([H])([H])[H])C([H])([H])[H])c3[H])c([H])c([H])c2C1([H])[H]

$$$$
46:0:0
     RDKit          3D

 97105  0  0  1  0  0  0  0  0999 V2000
  -28.8360  -20.6690   21.7060 N   0  0  0  0  0  0  0  0  0  0  0  0
  -27.8650  -20.6060   22.0030 H   0  0  0  0  0  0  0  0  0  0  0  0
  -30.8440  -17.5890   21.0000 C   0  0  0  0  0  3  0  0  0  0  0  0
  -28.4680  -18.8440   20.1950 C   0  0  0  0  0  3  0  0  0  0  0  0
  -29.9760  -16.9530   20.0880 C   0  0  0  0  0  0  0  0  0  0  0  0
  -29.2990  -19.4770   21.1420 C   0  0  0  0  0  0  0  0  0  0  0  0
  -30.5290  -18.8610   21.5270 C   0  0  0  0  0  0  0  0  0  0  0  0
  -28.8040  -17.5990   19.6620 C   0  0  0  0  0  0  0  0  0  0  0  0
  -27.7240  -16.8490   18.5360 Cl  0  0  0  0  0  0  0  0  0  0  0  0
  -30.9970  -14.6690   19.9970 C   0  0  0  0  0  0  0  0  0  0  0  0
  -30.7070  -12.4530   19.0120 C   0  0  0  0  0  2  0  0  0  0  0  0
  -29.7160  -12.6340   17.8440 C   0  0  0  0  0  2  0  0  0  0  0  0
  -28.2520  -12.5200   18.3350 C   0  0  0  0  0  2  0  0  0  0  0  0
  -27.9550  -13.3920   19.5860 C   0  0  0  0  0  3  0  0  0  0  0  0
  -29.0690  -13.2320   20.6530 C   0  0  0  0  0  2  0  0  0  0  0  0
  -30.3720  -13.4700   20.0060 N   0  0  0  0  0  0  0  0  0  0  0  0
  -32.1910  -14.8500   19.7740 O   0  0  0  0  0  0  0  0  0  0  0  0
  -30.1220  -15.6180   19.6670 N   0  0  0  0  0  0  0  0  0  0  0  0
  -29.2970  -15.2580   19.2120 H   0  0  0  0  0  0  0  0  0  0  0  0
  -25.6170  -14.0390   20.4440 C   0  0  0  0  0  0  0  0  0  0  0  0
  -24.5480  -13.2780   20.8310 C   0  0  0  0  0  0  0  0  0  0  0  0
  -24.9710  -11.9180   20.7260 C   0  0  0  0  0  0  0  0  0  0  0  0
  -26.6250  -13.1380   20.1290 N   0  0  0  0  0  0  0  0  0  0  0  0
  -26.2420  -11.8560   20.3550 N   0  0  0  0  0  0  0  0  0  0  0  0
  -24.2240  -10.6680   20.8990 C   0  0  0  0  0  0  0  0  0  0  0  0
  -24.6040   -9.7150   21.8680 C   0  0  0  0  0  3  0  0  0  0  0  0
  -23.8620   -8.5260   22.0300 C   0  0  0  0  0  3  0  0  0  0  0  0
  -22.7270   -8.2820   21.2210 C   0  0  0  0  0  0  0  0  0  0  0  0
  -22.3660   -9.2250   20.2430 C   0  0  0  0  0  3  0  0  0  0  0  0
  -23.1080  -10.4070   20.0800 C   0  0  0  0  0  3  0  0  0  0  0  0
  -21.9620   -7.1440   21.2890 O   0  0  0  0  0  0  0  0  0  0  0  0
  -21.7450   -6.4910   22.4750 C   0  0  0  0  0  0  0  0  0  0  0  0
  -21.1080   -7.1210   23.5670 C   0  0  0  0  0  3  0  0  0  0  0  0
  -20.8450   -6.3950   24.7440 C   0  0  0  0  0  3  0  0  0  0  0  0
  -21.2030   -5.0360   24.8300 C   0  0  0  0  0  0  0  0  0  0  0  0
  -21.8310   -4.4040   23.7420 C   0  0  0  0  0  3  0  0  0  0  0  0
  -22.0980   -5.1300   22.5670 C   0  0  0  0  0  0  0  0  0  0  0  0
  -22.6820   -4.5100   21.5130 F   0  0  0  0  0  0  0  0  0  0  0  0
  -20.9440   -4.3350   25.9590 F   0  0  0  0  0  0  0  0  0  0  0  0
  -23.1780  -13.7760   21.1880 C   0  0  0  0  0  0  0  0  0  0  0  0
  -22.4750  -13.0630   22.0600 N   0  0  0  0  0  0  0  0  0  0  0  0
  -22.7410  -14.8320   20.7300 O   0  0  0  0  0  0  0  0  0  0  0  0
  -22.8470  -12.2120   22.4570 H   0  0  0  0  0  0  0  0  0  0  0  0
  -21.5560  -13.3760   22.3400 H   0  0  0  0  0  0  0  0  0  0  0  0
  -25.8070  -15.4120   20.3170 N   0  0  0  0  0  0  0  0  0  0  0  0
  -25.0610  -16.0770   20.4880 H   0  0  0  0  0  0  0  0  0  0  0  0
  -26.6530  -15.8500   19.9780 H   0  0  0  0  0  0  0  0  0  0  0  0
  -31.7080  -20.7510   22.4720 C   0  0  0  0  0  1  0  0  0  0  0  0
  -31.4320  -19.3560   22.4470 O   0  0  0  0  0  0  0  0  0  0  0  0
  -29.0790  -21.8380   20.8730 C   0  0  0  0  0  2  0  0  0  0  0  0
  -27.7870  -22.3490   20.1940 C   0  0  0  0  0  2  0  0  0  0  0  0
  -28.3460  -24.7220   20.0420 C   0  0  0  0  0  0  0  0  0  0  0  0
  -27.9010  -23.4400   17.9520 C   0  0  0  0  0  1  0  0  0  0  0  0
  -28.0350  -23.5660   19.4110 N   0  0  0  0  0  0  0  0  0  0  0  0
  -28.3080  -24.8260   21.2750 O   0  0  0  0  0  0  0  0  0  0  0  0
  -28.8020  -25.9400   19.2230 C   0  0  0  0  0  2  0  0  0  0  0  0
  -28.6150  -27.1380   19.9680 O   0  0  0  0  0  0  0  0  0  0  0  0
  -24.6750  -31.9640   23.3060 C   0  0  0  0  0  0  0  0  0  0  0  0
  -27.3760  -27.7390   20.0020 C   0  0  0  0  0  0  0  0  0  0  0  0
  -23.4760  -30.5980   21.6290 C   0  0  0  0  0  3  0  0  0  0  0  0
  -24.9350  -29.1460   20.1320 C   0  0  0  0  0  0  0  0  0  0  0  0
  -25.9810  -31.0300   21.4060 C   0  0  0  0  0  2  0  0  0  0  0  0
  -26.0810  -29.6820   20.7230 C   0  0  0  0  0  0  0  0  0  0  0  0
  -27.2980  -28.9780   20.6660 C   0  0  0  0  0  3  0  0  0  0  0  0
  -26.2060  -27.2030   19.4090 C   0  0  0  0  0  3  0  0  0  0  0  0
  -24.9870  -27.9030   19.4770 C   0  0  0  0  0  3  0  0  0  0  0  0
  -23.6760  -29.9690   20.2260 C   0  0  0  0  0  2  0  0  0  0  0  0
  -24.7310  -31.2070   22.1760 N   0  0  0  0  0  0  0  0  0  0  0  0
  -23.5960  -32.1950   23.8710 O   0  0  0  0  0  0  0  0  0  0  0  0
  -22.8560  -29.5330   22.5600 C   0  0  0  0  0  0  0  0  0  0  0  0
  -21.5400  -29.2990   22.4080 N   0  0  0  0  0  0  0  0  0  0  0  0
  -23.5530  -28.9190   23.3710 O   0  0  0  0  0  0  0  0  0  0  0  0
  -21.0370  -29.8490   21.7250 H   0  0  0  0  0  0  0  0  0  0  0  0
  -18.2250  -27.9350   22.8080 C   0  0  0  0  0  0  0  0  0  0  0  0
  -20.7570  -28.3120   23.1490 C   0  0  0  0  0  3  0  0  0  0  0  0
  -20.9450  -26.8960   22.5580 C   0  0  0  0  0  2  0  0  0  0  0  0
  -19.8850  -26.5340   21.5120 C   0  0  0  0  0  2  0  0  0  0  0  0
  -18.4820  -26.6050   22.1210 C   0  0  0  0  0  2  0  0  0  0  0  0
  -19.2940  -28.7430   23.2760 C   0  0  0  0  0  0  0  0  0  0  0  0
  -19.0010  -29.9860   23.8770 C   0  0  0  0  0  3  0  0  0  0  0  0
  -17.6720  -30.4230   24.0170 C   0  0  0  0  0  3  0  0  0  0  0  0
  -16.6150  -29.6140   23.5640 C   0  0  0  0  0  3  0  0  0  0  0  0
  -16.8920  -28.3720   22.9660 C   0  0  0  0  0  3  0  0  0  0  0  0
  -25.9570  -32.5930   23.9330 C   0  0  0  0  0  3  0  0  0  0  0  0
  -25.6530  -33.9970   24.2460 N   0  0  0  0  0  0  0  0  0  0  0  0
  -25.9960  -35.0370   23.4750 C   0  0  0  0  0  0  0  0  0  0  0  0
  -26.6720  -34.9160   22.4490 O   0  0  0  0  0  0  0  0  0  0  0  0
  -25.0560  -34.1670   25.0420 H   0  0  0  0  0  0  0  0  0  0  0  0
  -24.2780  -36.8300   23.0830 C   0  0  0  0  0  1  0  0  0  0  0  0
  -25.5120  -36.4350   23.9090 C   0  0  0  0  0  3  0  0  0  0  0  0
  -27.6390  -37.3270   24.7490 C   0  0  0  0  0  1  0  0  0  0  0  0
  -26.5500  -37.4830   23.7870 N   0  0  0  0  0  0  0  0  0  0  0  0
  -26.1470  -38.4070   23.9190 H   0  0  0  0  0  0  0  0  0  0  0  0
  -26.4630  -31.8270   25.2170 C   0  0  1  0  0  0  0  0  0  0  0  0
  -25.3550  -31.5810   26.2700 C   0  0  0  0  0  1  0  0  0  0  0  0
  -27.0680  -30.4580   24.8290 C   0  0  0  0  0  1  0  0  0  0  0  0
  -27.5980  -32.6330   25.8920 C   0  0  0  0  0  1  0  0  0  0  0  0
  1  2  1  0
  3  7  1  0
  4  6  1  0
  5  3  2  0
  6  7  2  0
  6  1  1  0
  7 49  1  0
  8  5  1  0
  8  4  2  0
  9  8  1  0
 10 16  1  0
 11 16  1  0
 12 13  1  0
 12 11  1  0
 14 13  1  0
 14 23  1  0
 14 15  1  0
 16 15  1  0
 17 10  2  0
 18 10  1  0
 18  5  1  0
 19 18  1  0
 20 21  2  0
 21 40  1  0
 22 21  1  0
 22 25  1  0
 23 24  1  0
 23 20  1  0
 24 22  2  0
 25 26  1  0
 26 27  2  0
 28 31  1  0
 28 27  1  0
 29 28  2  0
 30 29  1  0
 30 25  2  0
 31 32  1  0
 32 37  2  0
 32 33  1  0
 33 34  2  0
 34 35  1  0
 35 39  1  0
 36 35  2  0
 37 36  1  0
 38 37  1  0
 40 41  1  0
 41 44  1  0
 41 43  1  0
 42 40  2  0
 45 20  1  0
 45 46  1  0
 47 45  1  0
 49 48  1  0
 50  1  1  0
 51 50  1  0
 52 55  2  0
 53 54  1  0
 54 52  1  0
 54 51  1  0
 56 57  1  0
 56 52  1  0
 57 59  1  0
 58 69  2  0
 59 64  1  0
 60 68  1  0
 60 70  1  0
 61 67  1  0
 61 63  1  0
 62 68  1  0
 63 62  1  0
 64 63  2  0
 65 66  1  0
 65 59  2  0
 66 61  2  0
 67 60  1  0
 68 58  1  0
 70 72  2  0
 71 70  1  0
 73 71  1  0
 74 83  2  0
 74 79  1  0
 75 71  1  0
 75 79  1  0
 76 75  1  0
 77 78  1  0
 77 76  1  0
 78 74  1  0
 79 80  2  0
 80 81  1  0
 82 81  2  0
 83 82  1  0
 84 58  1  0
 84 85  1  0
 84 94  1  0
 85 88  1  0
 86 90  1  0
 86 85  1  0
 87 86  2  0
 90 89  1  0
 92 90  1  0
 92 93  1  0
 92 91  1  0
 94 97  1  1
 94 95  1  0
 96 94  1  0
M  ISO  4  10 100  18 100  56 101  57 101
M  END
>  <TORSDO>  (47) 
F 22

>  <SCORE>  (47) 
-12.946

>  <name>  (47) 
46

>  <ligand_id>  (47) 
46

>  <original_smiles>  (47) 
[H]c1c([H])c([H])c2c(c1[H])C([H])([H])C([H])([H])C([H])([H])C2([H])N([H])C(=O)C1([H])N(C(=O)C([H])(N([H])C(=O)C([H])(N([H])C([H])([H])[H])C([H])([H])[H])C(C([H])([H])[H])(C([H])([H])[H])C([H])([H])[H])C([H])([H])c2c([H])c(OC([H])([H])C(=O)N(C([H])([H])[H])C([H])([H])C([H])([H])N([H])c3c([H])c(Cl)c(N([H])C(=O)N4C([H])([H])C([H])([H])C([H])([H])C([H])(n5nc(-c6c([H])c([H])c(Oc7c([H])c([H])c(F)c([H])c7F)c([H])c6[H])c(C(=O)N([H])[H])c5N([H])[H])C4([H])[H])c([H])c3OC([H])([H])[H])c([H])c([H])c2C1([H])[H]

>  <smiles>  (47) 
[H]c1c([H])c([H])c2c(c1[H])C([H])([H])C([H])([H])C([H])([H])C2([H])N([H])C(=O)C1([H])N(C(=O)C([H])(N([H])C(=O)C([H])(N([H])C([H])([H])[H])C([H])([H])[H])C(C([H])([H])[H])(C([H])([H])[H])C([H])([H])[H])C([H])([H])c2c([H])c(OC([H])([H])C(=O)N(C([H])([H])[H])C([H])([H])C([H])([H])N([H])c3c([H])c(Cl)c(N([H])C(=O)N4C([H])([H])C([H])([H])C([H])([H])C([H])(n5nc(-c6c([H])c([H])c(Oc7c([H])c([H])c(F)c([H])c7F)c([H])c6[H])c(C(=O)N([H])[H])c5N([H])[H])C4([H])[H])c([H])c3OC([H])([H])[H])c([H])c([H])c2C1([H])[H]

$$$$
47:0:0
     RDKit          3D

 99107  0  0  1  0  0  0  0  0999 V2000
  -28.6890  -21.8780   16.5990 C   0  0  0  0  0  2  0  0  0  0  0  0
  -27.5100  -21.0340   17.1190 C   0  0  0  0  0  2  0  0  0  0  0  0
  -27.0720  -19.9160   16.1560 C   0  0  0  0  0  2  0  0  0  0  0  0
  -26.6520  -18.6050   16.8580 C   0  0  0  0  0  2  0  0  0  0  0  0
  -28.9530  -17.8900   17.7000 C   0  0  0  0  0  0  0  0  0  0  0  0
  -27.6190  -18.0270   17.8010 N   0  0  0  0  0  0  0  0  0  0  0  0
  -29.6280  -18.4200   16.8170 O   0  0  0  0  0  0  0  0  0  0  0  0
  -27.2040  -17.5290   18.5780 H   0  0  0  0  0  0  0  0  0  0  0  0
  -31.3050  -14.0070   20.9710 C   0  0  0  0  0  0  0  0  0  0  0  0
  -30.8800  -11.9230   19.7640 C   0  0  0  0  0  2  0  0  0  0  0  0
  -29.9510  -12.2180   18.5750 C   0  0  0  0  0  2  0  0  0  0  0  0
  -28.4900  -12.0180   19.0160 C   0  0  0  0  0  2  0  0  0  0  0  0
  -28.1520  -12.8250   20.2990 C   0  0  0  0  0  3  0  0  0  0  0  0
  -29.2170  -12.6000   21.3990 C   0  0  0  0  0  2  0  0  0  0  0  0
  -30.5230  -12.9030   20.7990 N   0  0  0  0  0  0  0  0  0  0  0  0
  -32.5310  -13.9070   20.9050 O   0  0  0  0  0  0  0  0  0  0  0  0
  -30.9780  -17.3920   19.2500 C   0  0  0  0  0  2  0  0  0  0  0  0
  -28.7430  -16.5250   19.9020 C   0  0  0  0  0  2  0  0  0  0  0  0
  -31.6970  -16.1960   19.9200 C   0  0  0  0  0  2  0  0  0  0  0  0
  -29.5520  -15.8690   21.0630 C   0  0  0  0  0  2  0  0  0  0  0  0
  -29.6230  -16.9230   18.6970 C   0  0  0  0  0  3  0  0  0  0  0  0
  -30.7850  -15.2150   20.5810 N   0  0  0  0  0  0  0  0  0  0  0  0
  -25.8140  -13.4990   21.1380 C   0  0  0  0  0  0  0  0  0  0  0  0
  -24.6850  -12.7630   21.3780 C   0  0  0  0  0  0  0  0  0  0  0  0
  -25.0460  -11.4050   21.1340 C   0  0  0  0  0  0  0  0  0  0  0  0
  -26.7900  -12.5860   20.7610 N   0  0  0  0  0  0  0  0  0  0  0  0
  -26.3320  -11.3140   20.8160 N   0  0  0  0  0  0  0  0  0  0  0  0
  -24.2290  -10.1860   21.1300 C   0  0  0  0  0  0  0  0  0  0  0  0
  -24.4430   -9.1590   22.0740 C   0  0  0  0  0  3  0  0  0  0  0  0
  -23.6370   -8.0010   22.0610 C   0  0  0  0  0  3  0  0  0  0  0  0
  -22.6030   -7.8660   21.1040 C   0  0  0  0  0  0  0  0  0  0  0  0
  -22.4110   -8.8830   20.1530 C   0  0  0  0  0  3  0  0  0  0  0  0
  -23.2170  -10.0340   20.1630 C   0  0  0  0  0  3  0  0  0  0  0  0
  -21.7880   -6.7670   21.0010 O   0  0  0  0  0  0  0  0  0  0  0  0
  -21.2690   -6.1500   22.1090 C   0  0  0  0  0  0  0  0  0  0  0  0
  -20.3960   -6.8190   22.9970 C   0  0  0  0  0  3  0  0  0  0  0  0
  -19.8340   -6.1270   24.0870 C   0  0  0  0  0  3  0  0  0  0  0  0
  -20.1340   -4.7670   24.2880 C   0  0  0  0  0  0  0  0  0  0  0  0
  -20.9970   -4.0970   23.4030 C   0  0  0  0  0  3  0  0  0  0  0  0
  -21.5620   -4.7880   22.3170 C   0  0  0  0  0  0  0  0  0  0  0  0
  -22.3780   -4.1320   21.4570 F   0  0  0  0  0  0  0  0  0  0  0  0
  -19.5860   -4.0980   25.3290 F   0  0  0  0  0  0  0  0  0  0  0  0
  -23.3260  -13.2930   21.7390 C   0  0  0  0  0  0  0  0  0  0  0  0
  -22.5640  -12.5250   22.5100 N   0  0  0  0  0  0  0  0  0  0  0  0
  -22.9510  -14.4070   21.3800 O   0  0  0  0  0  0  0  0  0  0  0  0
  -22.8740  -11.6110   22.8070 H   0  0  0  0  0  0  0  0  0  0  0  0
  -21.6560  -12.8520   22.8060 H   0  0  0  0  0  0  0  0  0  0  0  0
  -26.0880  -14.8590   21.1870 N   0  0  0  0  0  0  0  0  0  0  0  0
  -25.3990  -15.5600   21.4280 H   0  0  0  0  0  0  0  0  0  0  0  0
  -27.0110  -15.2430   21.0310 H   0  0  0  0  0  0  0  0  0  0  0  0
  -29.6580  -22.2290   17.7290 C   0  0  0  0  0  2  0  0  0  0  0  0
  -30.8400  -23.1030   17.2800 C   0  0  0  0  0  2  0  0  0  0  0  0
  -31.8080  -23.4180   18.4370 C   0  0  0  0  0  2  0  0  0  0  0  0
  -30.7150  -25.2120   19.7580 C   0  0  0  0  0  0  0  0  0  0  0  0
  -31.0770  -23.9380   19.5900 N   0  0  0  0  0  0  0  0  0  0  0  0
  -31.1770  -26.1280   19.0710 O   0  0  0  0  0  0  0  0  0  0  0  0
  -30.6630  -23.2550   20.2120 H   0  0  0  0  0  0  0  0  0  0  0  0
  -29.6400  -25.4850   20.8160 C   0  0  0  0  0  2  0  0  0  0  0  0
  -29.4150  -26.8920   20.8920 O   0  0  0  0  0  0  0  0  0  0  0  0
  -24.9220  -31.6370   23.5860 C   0  0  0  0  0  0  0  0  0  0  0  0
  -28.1500  -27.4200   20.7850 C   0  0  0  0  0  0  0  0  0  0  0  0
  -23.9560  -30.1230   21.8810 C   0  0  0  0  0  3  0  0  0  0  0  0
  -25.6330  -28.6940   20.5970 C   0  0  0  0  0  0  0  0  0  0  0  0
  -26.4470  -30.6950   21.8600 C   0  0  0  0  0  2  0  0  0  0  0  0
  -26.6910  -29.3290   21.2570 C   0  0  0  0  0  0  0  0  0  0  0  0
  -27.9470  -28.6970   21.3490 C   0  0  0  0  0  3  0  0  0  0  0  0
  -27.0740  -26.7920   20.1140 C   0  0  0  0  0  3  0  0  0  0  0  0
  -25.8180  -27.4230   20.0250 C   0  0  0  0  0  3  0  0  0  0  0  0
  -24.3200  -29.4410   20.5340 C   0  0  0  0  0  2  0  0  0  0  0  0
  -25.1200  -30.8350   22.5020 N   0  0  0  0  0  0  0  0  0  0  0  0
  -23.7860  -31.8240   24.0410 O   0  0  0  0  0  0  0  0  0  0  0  0
  -23.3240  -29.0630   22.8090 C   0  0  0  0  0  0  0  0  0  0  0  0
  -22.0720  -28.6810   22.5090 N   0  0  0  0  0  0  0  0  0  0  0  0
  -23.9620  -28.5820   23.7500 O   0  0  0  0  0  0  0  0  0  0  0  0
  -21.6150  -29.1290   21.7270 H   0  0  0  0  0  0  0  0  0  0  0  0
  -18.9070  -26.9410   22.5260 C   0  0  0  0  0  0  0  0  0  0  0  0
  -21.2890  -27.6670   23.2160 C   0  0  0  0  0  3  0  0  0  0  0  0
  -21.7320  -26.2420   22.8110 C   0  0  0  0  0  2  0  0  0  0  0  0
  -20.9080  -25.6580   21.6580 C   0  0  0  0  0  2  0  0  0  0  0  0
  -19.4240  -25.6010   22.0310 C   0  0  0  0  0  2  0  0  0  0  0  0
  -19.7840  -27.9170   23.0670 C   0  0  0  0  0  0  0  0  0  0  0  0
  -19.2580  -29.1620   23.4760 C   0  0  0  0  0  3  0  0  0  0  0  0
  -17.8820  -29.4340   23.3580 C   0  0  0  0  0  3  0  0  0  0  0  0
  -17.0140  -28.4580   22.8390 C   0  0  0  0  0  3  0  0  0  0  0  0
  -17.5260  -27.2140   22.4290 C   0  0  0  0  0  3  0  0  0  0  0  0
  -26.1050  -32.3750   24.2890 C   0  0  0  0  0  3  0  0  0  0  0  0
  -26.4760  -31.7590   25.6930 C   0  0  1  0  0  0  0  0  0  0  0  0
  -25.2610  -31.5750   26.6300 C   0  0  0  0  0  1  0  0  0  0  0  0
  -27.1540  -30.3790   25.5230 C   0  0  0  0  0  1  0  0  0  0  0  0
  -27.5000  -32.6690   26.4120 C   0  0  0  0  0  1  0  0  0  0  0  0
  -25.7270  -33.7870   24.4230 N   0  0  0  0  0  0  0  0  0  0  0  0
  -26.1530  -34.7680   23.6150 C   0  0  0  0  0  0  0  0  0  0  0  0
  -26.9740  -34.5820   22.7110 O   0  0  0  0  0  0  0  0  0  0  0  0
  -25.0190  -34.0030   25.1070 H   0  0  0  0  0  0  0  0  0  0  0  0
  -24.5020  -36.4730   22.7860 C   0  0  0  0  0  1  0  0  0  0  0  0
  -25.5770  -36.1780   23.8440 C   0  0  0  0  0  3  0  0  0  0  0  0
  -27.5090  -37.1940   24.9690 C   0  0  0  0  0  1  0  0  0  0  0  0
  -26.6020  -37.2430   23.8250 N   0  0  0  0  0  0  0  0  0  0  0  0
  -26.1680  -38.1610   23.8040 H   0  0  0  0  0  0  0  0  0  0  0  0
  1  2  1  0
  1 51  1  0
  3  4  1  0
  3  2  1  0
  4  6  1  0
  5  6  1  0
  6  8  1  0
  7  5  2  0
 10 15  1  0
 11 12  1  0
 11 10  1  0
 13 12  1  0
 13 26  1  0
 13 14  1  0
 15  9  1  0
 15 14  1  0
 16  9  2  0
 17 19  1  0
 18 20  1  0
 19 22  1  0
 21  5  1  0
 21 17  1  0
 21 18  1  0
 22  9  1  0
 22 20  1  0
 23 48  1  0
 23 24  2  0
 24 43  1  0
 25 24  1  0
 26 27  1  0
 26 23  1  0
 27 25  2  0
 28 25  1  0
 28 29  1  0
 30 29  2  0
 31 30  1  0
 32 33  1  0
 32 31  2  0
 33 28  2  0
 34 31  1  0
 34 35  1  0
 35 40  2  0
 35 36  1  0
 36 37  2  0
 37 38  1  0
 38 42  1  0
 39 38  2  0
 40 39  1  0
 41 40  1  0
 43 44  1  0
 44 47  1  0
 44 46  1  0
 45 43  2  0
 48 49  1  0
 50 48  1  0
 52 51  1  0
 52 53  1  0
 53 55  1  0
 54 58  1  0
 55 54  1  0
 55 57  1  0
 56 54  2  0
 58 59  1  0
 60 71  2  0
 61 59  1  0
 61 66  1  0
 62 70  1  0
 62 72  1  0
 63 65  1  0
 64 70  1  0
 65 66  2  0
 65 64  1  0
 67 61  2  0
 68 67  1  0
 68 63  2  0
 69 63  1  0
 69 62  1  0
 70 60  1  0
 72 74  2  0
 73 72  1  0
 75 73  1  0
 76 81  1  0
 77 73  1  0
 78 77  1  0
 79 80  1  0
 79 78  1  0
 80 76  1  0
 81 77  1  0
 81 82  2  0
 83 82  1  0
 84 83  2  0
 85 76  2  0
 85 84  1  0
 86 60  1  0
 86 91  1  0
 86 87  1  0
 87 90  1  1
 87 88  1  0
 89 87  1  0
 91 94  1  0
 92 96  1  0
 92 91  1  0
 93 92  2  0
 96 95  1  0
 98 96  1  0
 98 97  1  0
 99 98  1  0
M  ISO  4   9 100  22 100  58 101  59 101
M  END
>  <TORSDO>  (48) 
F 25

>  <SCORE>  (48) 
-6.873

>  <name>  (48) 
47

>  <ligand_id>  (48) 
47

>  <original_smiles>  (48) 
[H]c1c([H])c([H])c2c(c1[H])C([H])([H])C([H])([H])C([H])([H])C2([H])N([H])C(=O)C1([H])N(C(=O)C([H])(N([H])C(=O)C([H])(N([H])C([H])([H])[H])C([H])([H])[H])C(C([H])([H])[H])(C([H])([H])[H])C([H])([H])[H])C([H])([H])c2c([H])c(OC([H])([H])C(=O)N([H])C([H])([H])C([H])([H])C([H])([H])C([H])([H])C([H])([H])C([H])([H])C([H])([H])N([H])C(=O)C3([H])C([H])([H])C([H])([H])N(C(=O)N4C([H])([H])C([H])([H])C([H])([H])C([H])(n5nc(-c6c([H])c([H])c(Oc7c([H])c([H])c(F)c([H])c7F)c([H])c6[H])c(C(=O)N([H])[H])c5N([H])[H])C4([H])[H])C([H])([H])C3([H])[H])c([H])c([H])c2C1([H])[H]

>  <smiles>  (48) 
[H]c1c([H])c([H])c2c(c1[H])C([H])([H])C([H])([H])C([H])([H])C2([H])N([H])C(=O)C1([H])N(C(=O)C([H])(N([H])C(=O)C([H])(N([H])C([H])([H])[H])C([H])([H])[H])C(C([H])([H])[H])(C([H])([H])[H])C([H])([H])[H])C([H])([H])c2c([H])c(OC([H])([H])C(=O)N([H])C([H])([H])C([H])([H])C([H])([H])C([H])([H])C([H])([H])C([H])([H])C([H])([H])N([H])C(=O)C3([H])C([H])([H])C([H])([H])N(C(=O)N4C([H])([H])C([H])([H])C([H])([H])C([H])(n5nc(-c6c([H])c([H])c(Oc7c([H])c([H])c(F)c([H])c7F)c([H])c6[H])c(C(=O)N([H])[H])c5N([H])[H])C4([H])[H])C([H])([H])C3([H])[H])c([H])c([H])c2C1([H])[H]

$$$$
48:0:0
     RDKit          3D

 97103  0  0  1  0  0  0  0  0999 V2000
  -28.9960  -16.7750   19.0360 C   0  0  0  0  0 15  0  0  0  0  0  0
  -25.3540  -17.0040   19.9600 C   0  0  0  0  0  3  0  0  0  0  0  0
  -28.2060  -15.3980   20.1390 C   0  0  0  0  0  0  0  0  0  0  0  0
  -28.0410  -18.3110   18.5060 C   0  0  0  0  0  2  0  0  0  0  0  0
  -26.1860  -18.3170   18.8510 C   0  0  0  0  0  0  0  0  0  0  0  0
  -26.3530  -15.5140   20.5700 C   0  0  0  0  0  3  0  0  0  0  0  0
  -25.5670  -14.3780   21.6150 Cl  0  0  0  0  0  0  0  0  0  0  0  0
  -28.4240  -13.7020   21.8990 C   0  0  0  0  0  1  0  0  0  0  0  0
  -29.0490  -14.6850   21.0210 N   0  0  0  0  0  0  0  0  0  0  0  0
  -30.0400  -15.5370   21.7030 C   0  0  0  0  0  2  0  0  0  0  0  0
  -31.3600  -15.8190   20.9360 C   0  0  0  0  0  2  0  0  0  0  0  0
  -32.3720  -14.6520   20.7700 C   0  0  0  0  0  2  0  0  0  0  0  0
  -32.1380  -12.1000   20.8710 C   0  0  0  0  0  0  0  0  0  0  0  0
  -31.4460   -9.7230   21.0900 C   0  0  0  0  0  2  0  0  0  0  0  0
  -30.7690   -9.1670   19.8120 C   0  0  0  0  0  2  0  0  0  0  0  0
  -29.2750   -9.5870   19.6570 C   0  0  0  0  0  2  0  0  0  0  0  0
  -29.1040  -11.1250   19.8650 C   0  0  0  0  0  3  0  0  0  0  0  0
  -29.7430  -11.3860   21.2610 C   0  0  0  0  0  2  0  0  0  0  0  0
  -31.1920  -11.1650   21.1650 N   0  0  0  0  0  0  0  0  0  0  0  0
  -33.2990  -11.8190   20.5530 O   0  0  0  0  0  0  0  0  0  0  0  0
  -31.7160  -13.3660   20.9970 N   0  0  0  0  0  0  0  0  0  0  0  0
  -30.7420  -13.4890   21.2610 H   0  0  0  0  0  0  0  0  0  0  0  0
  -27.0900  -12.9820   19.0630 C   0  0  0  0  0  2  0  0  0  0  0  0
  -25.7520  -12.2550   19.2850 C   0  0  0  0  0  0  0  0  0  0  0  0
  -25.6850  -11.1420   20.2430 C   0  0  0  0  0  0  0  0  0  0  0  0
  -27.7110  -11.6860   19.6780 N   0  0  0  0  0  0  0  0  0  0  0  0
  -26.9150  -10.8410   20.4530 N   0  0  0  0  0  2  0  0  0  0  0  0
  -24.5390  -10.3000   20.9030 C   0  0  0  0  0  0  0  0  0  0  0  0
  -24.7060   -9.4710   22.0600 C   0  0  0  0  0  3  0  0  0  0  0  0
  -23.6240   -8.7710   22.6900 C   0  0  0  0  0  3  0  0  0  0  0  0
  -22.3030   -8.8710   22.1860 C   0  0  0  0  0  0  0  0  0  0  0  0
  -22.1230   -9.6570   21.0310 C   0  0  0  0  0  3  0  0  0  0  0  0
  -23.2040  -10.3350   20.4080 C   0  0  0  0  0  3  0  0  0  0  0  0
  -21.1880   -8.2100   22.6860 O   0  0  0  0  0  0  0  0  0  0  0  0
  -21.2590   -7.1230   23.5330 C   0  0  0  0  0  0  0  0  0  0  0  0
  -21.3820   -7.2740   24.9320 C   0  0  0  0  0  3  0  0  0  0  0  0
  -21.3810   -6.1390   25.7730 C   0  0  0  0  0  3  0  0  0  0  0  0
  -21.2530   -4.8500   25.2250 C   0  0  0  0  0  0  0  0  0  0  0  0
  -21.1120   -4.6930   23.8350 C   0  0  0  0  0  3  0  0  0  0  0  0
  -21.1060   -5.8240   22.9960 C   0  0  0  0  0  0  0  0  0  0  0  0
  -20.9390   -5.6540   21.6610 F   0  0  0  0  0  0  0  0  0  0  0  0
  -21.2620   -3.7620   26.0310 F   0  0  0  0  0  0  0  0  0  0  0  0
  -24.3510  -12.5950   18.7740 C   0  0  0  0  0  0  0  0  0  0  0  0
  -23.4020  -12.9660   19.6450 N   0  0  0  0  0  0  0  0  0  0  0  0
  -24.1610  -12.7420   17.5780 O   0  0  0  0  0  0  0  0  0  0  0  0
  -23.5440  -12.9380   20.6450 H   0  0  0  0  0  0  0  0  0  0  0  0
  -22.5040  -13.2560   19.2900 H   0  0  0  0  0  0  0  0  0  0  0  0
  -27.8390  -15.4850   19.0170 N   0  0  0  0  0  4  0  0  0  0  0  0
  -27.2340  -16.1660   18.5700 H   0  0  0  0  0  0  0  0  0  0  0  0
  -28.8200  -15.7220   18.9690 H   0  0  0  0  0  0  0  0  0  0  0  0
  -24.3270  -19.6850   19.3780 C   0  0  0  0  0  1  0  0  0  0  0  0
  -25.5250  -19.5020   18.6250 O   0  0  0  0  0  0  0  0  0  0  0  0
  -28.8590  -19.6920   18.6650 O   0  0  0  0  0  0  0  0  0  0  0  0
  -28.9430  -21.1240   19.6720 C   0  0  0  0  0  2  0  0  0  0  0  0
  -29.3200  -23.0270   19.5660 C   0  0  0  0  0  3  0  0  0  0  0  0
  -28.8410  -24.7370   20.3380 C   0  0  0  0  0  3  0  0  0  0  0  0
  -29.3440  -26.4230   20.5290 O   0  0  0  0  0  0  0  0  0  0  0  0
  -24.8450  -31.9690   23.4350 C   0  0  0  0  0  0  0  0  0  0  0  0
  -28.4910  -27.6800   20.4850 C   0  0  0  0  0  0  0  0  0  0  0  0
  -24.2790  -30.6960   21.4260 C   0  0  0  0  0  3  0  0  0  0  0  0
  -26.2020  -29.5240   20.1700 C   0  0  0  0  0  0  0  0  0  0  0  0
  -26.7720  -31.1560   21.9400 C   0  0  0  0  0  2  0  0  0  0  0  0
  -27.1610  -29.8640   21.1310 C   0  0  0  0  0  0  0  0  0  0  0  0
  -28.3310  -28.9590   21.2730 C   0  0  0  0  0  3  0  0  0  0  0  0
  -27.5740  -27.6210   19.4400 C   0  0  0  0  0  3  0  0  0  0  0  0
  -26.4550  -28.4580   19.3060 C   0  0  0  0  0  3  0  0  0  0  0  0
  -24.9010  -30.3080   20.0620 C   0  0  0  0  0  2  0  0  0  0  0  0
  -25.3090  -31.3020   22.3250 N   0  0  0  0  0  0  0  0  0  0  0  0
  -23.6320  -32.0400   23.6950 O   0  0  0  0  0  0  0  0  0  0  0  0
  -23.5700  -29.4700   22.0640 C   0  0  0  0  0  0  0  0  0  0  0  0
  -22.2460  -29.3380   21.8610 N   0  0  0  0  0  0  0  0  0  0  0  0
  -24.2190  -28.6550   22.7240 O   0  0  0  0  0  0  0  0  0  0  0  0
  -21.7760  -30.0530   21.3260 H   0  0  0  0  0  0  0  0  0  0  0  0
  -18.8400  -28.0970   22.0960 C   0  0  0  0  0  0  0  0  0  0  0  0
  -21.4140  -28.2260   22.3360 C   0  0  0  0  0  3  0  0  0  0  0  0
  -21.4590  -27.0350   21.3520 C   0  0  0  0  0  2  0  0  0  0  0  0
  -20.3200  -27.0540   20.3270 C   0  0  0  0  0  2  0  0  0  0  0  0
  -18.9610  -27.0190   21.0330 C   0  0  0  0  0  2  0  0  0  0  0  0
  -19.9910  -28.6740   22.6980 C   0  0  0  0  0  0  0  0  0  0  0  0
  -19.8210  -29.6910   23.6620 C   0  0  0  0  0  3  0  0  0  0  0  0
  -18.5330  -30.1310   24.0260 C   0  0  0  0  0  3  0  0  0  0  0  0
  -17.3990  -29.5500   23.4360 C   0  0  0  0  0  3  0  0  0  0  0  0
  -17.5520  -28.5330   22.4770 C   0  0  0  0  0  3  0  0  0  0  0  0
  -25.8090  -32.6880   24.4240 C   0  0  0  0  0  3  0  0  0  0  0  0
  -25.8150  -32.0360   25.8620 C   0  0  1  0  0  0  0  0  0  0  0  0
  -24.4010  -31.8180   26.4500 C   0  0  0  0  0  1  0  0  0  0  0  0
  -26.5330  -30.6700   25.8480 C   0  0  0  0  0  1  0  0  0  0  0  0
  -26.6080  -32.9340   26.8390 C   0  0  0  0  0  1  0  0  0  0  0  0
  -25.3900  -34.1000   24.5210 N   0  0  0  0  0  0  0  0  0  0  0  0
  -25.9090  -35.1140   23.8150 C   0  0  0  0  0  0  0  0  0  0  0  0
  -26.8500  -34.9610   23.0340 O   0  0  0  0  0  0  0  0  0  0  0  0
  -24.5890  -34.2900   25.1060 H   0  0  0  0  0  0  0  0  0  0  0  0
  -24.2690  -36.7960   22.8950 C   0  0  0  0  0  1  0  0  0  0  0  0
  -25.2950  -36.5180   24.0060 C   0  0  0  0  0  3  0  0  0  0  0  0
  -27.1790  -37.5590   25.1940 C   0  0  0  0  0  1  0  0  0  0  0  0
  -26.2990  -37.6050   24.0290 N   0  0  0  0  0  0  0  0  0  0  0  0
  -25.8470  -38.5160   24.0060 H   0  0  0  0  0  0  0  0  0  0  0  0
  2  6  1  0
  3  6  1  0
  3  9  1  0
  4 53  1  0
  4  5  1  0
  5  2  2  0
  6  7  1  0
  9 10  1  0
  9  8  1  0
 11 10  1  0
 12 11  1  0
 12 21  1  0
 13 21  1  0
 13 19  1  0
 14 19  1  0
 15 14  1  0
 16 15  1  0
 17 16  1  0
 17 18  1  0
 19 18  1  0
 20 13  2  0
 21 22  1  0
 23 24  1  0
 24 25  2  0
 25 27  1  0
 25 28  1  0
 26 23  1  0
 26 17  1  0
 26 27  1  0
 28 29  1  0
 29 30  2  0
 31 34  1  0
 31 30  1  0
 32 31  2  0
 33 28  2  0
 33 32  1  0
 34 35  1  0
 35 36  1  0
 36 37  2  0
 38 37  1  0
 38 42  1  0
 39 38  2  0
 40 35  2  0
 40 39  1  0
 41 40  1  0
 43 24  1  0
 43 44  1  0
 44 46  1  0
 45 43  2  0
 47 44  1  0
 48  3  2  0
 49 48  1  0
 50 48  1  0
 52  5  1  0
 52 51  1  0
 53 54  1  0
 55 54  1  0
 55 56  2  0
 56 57  1  0
 58 69  2  0
 59 57  1  0
 59 64  1  0
 60 70  1  0
 60 68  1  0
 61 63  1  0
 62 68  1  0
 63 64  2  0
 63 62  1  0
 65 59  2  0
 66 65  1  0
 66 61  2  0
 67 61  1  0
 67 60  1  0
 68 58  1  0
 70 72  2  0
 71 70  1  0
 73 71  1  0
 74 83  2  0
 74 79  1  0
 75 71  1  0
 75 79  1  0
 76 75  1  0
 77 78  1  0
 77 76  1  0
 78 74  1  0
 79 80  2  0
 80 81  1  0
 82 81  2  0
 83 82  1  0
 84 58  1  0
 84 89  1  0
 84 85  1  0
 85 86  1  1
 85 88  1  0
 87 85  1  0
 89 92  1  0
 90 94  1  0
 90 89  1  0
 91 90  2  0
 94 93  1  0
 94 96  1  0
 96 95  1  0
 97 96  1  0
M  ISO  4  13 100  21 100  56 101  57 101
M  END
>  <TORSDO>  (49) 
F 25

>  <SCORE>  (49) 
-0.885

>  <name>  (49) 
48

>  <ligand_id>  (49) 
48

>  <original_smiles>  (49) 
[H]c1c([H])c([H])c2c(c1[H])C([H])([H])C([H])([H])C([H])([H])C2([H])N([H])C(=O)C1([H])N(C(=O)C([H])(N([H])C(=O)C([H])(N([H])C([H])([H])[H])C([H])([H])[H])C(C([H])([H])[H])(C([H])([H])[H])C([H])([H])[H])C([H])([H])c2c([H])c(OC([H])([H])C([H])([H])C([H])([H])Oc3c([H])c(N(C([H])([H])[H])C([H])([H])C([H])([H])C([H])([H])N([H])C(=O)N4C([H])([H])C([H])([H])C([H])([H])C([H])(n5nc(-c6c([H])c([H])c(Oc7c([H])c([H])c(F)c([H])c7F)c([H])c6[H])c(C(=O)N([H])[H])c5N([H])[H])C4([H])[H])c(Cl)c([H])c3OC([H])([H])[H])c([H])c([H])c2C1([H])[H]

>  <smiles>  (49) 
[H]c1c([H])c([H])c2c(c1[H])C([H])([H])C([H])([H])C([H])([H])C2([H])N([H])C(=O)C1([H])N(C(=O)C([H])(N([H])C(=O)C([H])(N([H])C([H])([H])[H])C([H])([H])[H])C(C([H])([H])[H])(C([H])([H])[H])C([H])([H])[H])C([H])([H])c2c([H])c(OC([H])([H])C([H])([H])C([H])([H])Oc3c([H])c(N(C([H])([H])[H])C([H])([H])C([H])([H])C([H])([H])N([H])C(=O)N4C([H])([H])C([H])([H])C([H])([H])C([H])(n5nc(-c6c([H])c([H])c(Oc7c([H])c([H])c(F)c([H])c7F)c([H])c6[H])c(C(=O)N([H])[H])c5N([H])[H])C4([H])[H])c(Cl)c([H])c3OC([H])([H])[H])c([H])c([H])c2C1([H])[H]

$$$$
49:0:0
     RDKit          3D

 97105  0  0  1  0  0  0  0  0999 V2000
  -26.6390  -22.8640   17.6100 C   0  0  0  0  0  2  0  0  0  0  0  0
  -25.6300  -23.0390   18.7670 C   0  0  0  0  0  2  0  0  0  0  0  0
  -26.2280  -22.8940   20.1890 C   0  0  0  0  0  2  0  0  0  0  0  0
  -28.1380  -24.4720   20.6080 C   0  0  0  0  0  0  0  0  0  0  0  0
  -26.8410  -24.1320   20.6640 N   0  0  0  0  0  0  0  0  0  0  0  0
  -29.0010  -23.7390   20.1210 O   0  0  0  0  0  0  0  0  0  0  0  0
  -26.2170  -24.8070   21.0900 H   0  0  0  0  0  0  0  0  0  0  0  0
  -28.5250  -25.8460   21.1800 C   0  0  0  0  0  2  0  0  0  0  0  0
  -28.4680  -26.8540   20.1650 O   0  0  0  0  0  0  0  0  0  0  0  0
  -24.6720  -31.9850   23.2870 C   0  0  0  0  0  0  0  0  0  0  0  0
  -27.3080  -27.5860   20.1770 C   0  0  0  0  0  0  0  0  0  0  0  0
  -23.4590  -30.5870   21.6460 C   0  0  0  0  0  3  0  0  0  0  0  0
  -24.9100  -29.0600   20.2130 C   0  0  0  0  0  0  0  0  0  0  0  0
  -25.9780  -30.9650   21.4320 C   0  0  0  0  0  2  0  0  0  0  0  0
  -26.0670  -29.5930   20.7960 C   0  0  0  0  0  0  0  0  0  0  0  0
  -27.2710  -28.8590   20.7860 C   0  0  0  0  0  3  0  0  0  0  0  0
  -26.1440  -27.0680   19.5760 C   0  0  0  0  0  3  0  0  0  0  0  0
  -24.9380  -27.7900   19.6100 C   0  0  0  0  0  3  0  0  0  0  0  0
  -23.6630  -29.9130   20.2630 C   0  0  0  0  0  2  0  0  0  0  0  0
  -24.7220  -31.1930   22.1790 N   0  0  0  0  0  0  0  0  0  0  0  0
  -23.5940  -32.2530   23.8330 O   0  0  0  0  0  0  0  0  0  0  0  0
  -22.8170  -29.5600   22.6060 C   0  0  0  0  0  0  0  0  0  0  0  0
  -21.4960  -29.3640   22.4770 N   0  0  0  0  0  0  0  0  0  0  0  0
  -23.5060  -28.9400   23.4230 O   0  0  0  0  0  0  0  0  0  0  0  0
  -21.0020  -29.9180   21.7910 H   0  0  0  0  0  0  0  0  0  0  0  0
  -18.1300  -28.1530   22.9780 C   0  0  0  0  0  0  0  0  0  0  0  0
  -20.6860  -28.4230   23.2490 C   0  0  0  0  0  3  0  0  0  0  0  0
  -20.7980  -26.9940   22.6710 C   0  0  0  0  0  2  0  0  0  0  0  0
  -19.6960  -26.6640   21.6590 C   0  0  0  0  0  2  0  0  0  0  0  0
  -18.3130  -26.8040   22.3040 C   0  0  0  0  0  2  0  0  0  0  0  0
  -19.2450  -28.9190   23.4080 C   0  0  0  0  0  0  0  0  0  0  0  0
  -19.0200  -30.1820   23.9980 C   0  0  0  0  0  3  0  0  0  0  0  0
  -17.7140  -30.6780   24.1640 C   0  0  0  0  0  3  0  0  0  0  0  0
  -16.6130  -29.9090   23.7490 C   0  0  0  0  0  3  0  0  0  0  0  0
  -16.8220  -28.6490   23.1620 C   0  0  0  0  0  3  0  0  0  0  0  0
  -25.9590  -32.6200   23.9000 C   0  0  0  0  0  3  0  0  0  0  0  0
  -26.4840  -31.8490   25.1730 C   0  0  1  0  0  0  0  0  0  0  0  0
  -25.3950  -31.6090   26.2440 C   0  0  0  0  0  1  0  0  0  0  0  0
  -27.0700  -30.4740   24.7740 C   0  0  0  0  0  1  0  0  0  0  0  0
  -27.6320  -32.6500   25.8350 C   0  0  0  0  0  1  0  0  0  0  0  0
  -25.6530  -34.0180   24.2260 N   0  0  0  0  0  0  0  0  0  0  0  0
  -25.9800  -35.0670   23.4580 C   0  0  0  0  0  0  0  0  0  0  0  0
  -26.6430  -34.9580   22.4230 O   0  0  0  0  0  0  0  0  0  0  0  0
  -25.0700  -34.1760   25.0360 H   0  0  0  0  0  0  0  0  0  0  0  0
  -24.2530  -36.8560   23.0960 C   0  0  0  0  0  1  0  0  0  0  0  0
  -25.4940  -36.4560   23.9100 C   0  0  0  0  0  3  0  0  0  0  0  0
  -27.6230  -37.3440   24.7480 C   0  0  0  0  0  1  0  0  0  0  0  0
  -26.5250  -37.5090   23.7960 N   0  0  0  0  0  0  0  0  0  0  0  0
  -26.1180  -38.4290   23.9420 H   0  0  0  0  0  0  0  0  0  0  0  0
  -26.7310  -21.4260   17.0570 C   0  0  0  0  0  2  0  0  0  0  0  0
  -27.2020  -20.4330   18.1150 C   0  0  0  0  0  2  0  0  0  0  0  0
  -27.5580  -19.1800   17.5470 O   0  0  0  0  0  0  0  0  0  0  0  0
  -28.5140  -17.4200   20.6870 C   0  0  0  0  0  3  0  0  0  0  0  0
  -29.8780  -16.6360   18.8380 C   0  0  0  0  0  3  0  0  0  0  0  0
  -27.8060  -18.2530   19.8030 C   0  0  0  0  0  3  0  0  0  0  0  0
  -29.1590  -17.4610   17.9530 C   0  0  0  0  0  3  0  0  0  0  0  0
  -29.5810  -16.6120   20.2300 C   0  0  0  0  0  0  0  0  0  0  0  0
  -28.1460  -18.3080   18.4320 C   0  0  0  0  0  0  0  0  0  0  0  0
  -31.0600  -14.7430   20.7300 C   0  0  0  0  0  0  0  0  0  0  0  0
  -30.7910  -12.5880   19.5570 C   0  0  0  0  0  2  0  0  0  0  0  0
  -29.8950  -12.7530   18.3140 C   0  0  0  0  0  2  0  0  0  0  0  0
  -28.4010  -12.6390   18.6840 C   0  0  0  0  0  2  0  0  0  0  0  0
  -28.0100  -13.4890   19.9210 C   0  0  0  0  0  3  0  0  0  0  0  0
  -29.0230  -13.2990   21.0730 C   0  0  0  0  0  2  0  0  0  0  0  0
  -30.3670  -13.5890   20.5440 N   0  0  0  0  0  0  0  0  0  0  0  0
  -32.2200  -14.9080   20.3350 O   0  0  0  0  0  0  0  0  0  0  0  0
  -30.3330  -15.8010   21.1550 N   0  0  0  0  0  0  0  0  0  0  0  0
  -25.5910  -14.1090   20.5500 C   0  0  0  0  0  0  0  0  0  0  0  0
  -24.5070  -13.3380   20.8760 C   0  0  0  0  0  0  0  0  0  0  0  0
  -24.9670  -11.9860   20.8620 C   0  0  0  0  0  0  0  0  0  0  0  0
  -26.6410  -13.2240   20.3540 N   0  0  0  0  0  0  0  0  0  0  0  0
  -26.2670  -11.9440   20.6050 N   0  0  0  0  0  0  0  0  0  0  0  0
  -24.2330  -10.7260   21.0240 C   0  0  0  0  0  0  0  0  0  0  0  0
  -24.6010   -9.7800   22.0050 C   0  0  0  0  0  3  0  0  0  0  0  0
  -23.8710   -8.5820   22.1540 C   0  0  0  0  0  3  0  0  0  0  0  0
  -22.7570   -8.3210   21.3210 C   0  0  0  0  0  0  0  0  0  0  0  0
  -22.4060   -9.2590   20.3320 C   0  0  0  0  0  3  0  0  0  0  0  0
  -23.1390  -10.4490   20.1820 C   0  0  0  0  0  3  0  0  0  0  0  0
  -22.0010   -7.1760   21.3770 O   0  0  0  0  0  0  0  0  0  0  0  0
  -21.8060   -6.5010   22.5540 C   0  0  0  0  0  0  0  0  0  0  0  0
  -21.1980   -7.1130   23.6730 C   0  0  0  0  0  3  0  0  0  0  0  0
  -20.9480   -6.3600   24.8370 C   0  0  0  0  0  3  0  0  0  0  0  0
  -21.3020   -4.9990   24.8860 C   0  0  0  0  0  0  0  0  0  0  0  0
  -21.9030   -4.3870   23.7730 C   0  0  0  0  0  3  0  0  0  0  0  0
  -22.1540   -5.1370   22.6100 C   0  0  0  0  0  0  0  0  0  0  0  0
  -22.7150   -4.5360   21.5330 F   0  0  0  0  0  0  0  0  0  0  0  0
  -21.0540   -4.2760   26.0030 F   0  0  0  0  0  0  0  0  0  0  0  0
  -23.1020  -13.8200   21.0910 C   0  0  0  0  0  0  0  0  0  0  0  0
  -22.3400  -13.1340   21.9340 N   0  0  0  0  0  0  0  0  0  0  0  0
  -22.6850  -14.8420   20.5480 O   0  0  0  0  0  0  0  0  0  0  0  0
  -22.6890  -12.3160   22.4090 H   0  0  0  0  0  0  0  0  0  0  0  0
  -21.3920  -13.4360   22.1090 H   0  0  0  0  0  0  0  0  0  0  0  0
  -25.7630  -15.4790   20.3800 N   0  0  0  0  0  0  0  0  0  0  0  0
  -24.9930  -16.1310   20.4680 H   0  0  0  0  0  0  0  0  0  0  0  0
  -26.6310  -15.9240   20.1120 H   0  0  0  0  0  0  0  0  0  0  0  0
  -31.2740  -17.6200   22.5990 C   0  0  0  0  0  1  0  0  0  0  0  0
  -30.5470  -16.2640   22.5390 C   0  0  0  0  0  2  0  0  0  0  0  0
  1  2  1  0
  2  3  1  0
  3  5  1  0
  4  5  1  0
  4  8  1  0
  5  7  1  0
  6  4  2  0
  9 11  1  0
  9  8  1  0
 10 21  2  0
 11 16  1  0
 12 20  1  0
 12 22  1  0
 13 19  1  0
 13 15  1  0
 14 20  1  0
 15 14  1  0
 16 15  2  0
 17 18  1  0
 17 11  2  0
 18 13  2  0
 19 12  1  0
 20 10  1  0
 22 24  2  0
 23 22  1  0
 25 23  1  0
 26 35  2  0
 26 31  1  0
 27 23  1  0
 27 31  1  0
 28 27  1  0
 29 30  1  0
 29 28  1  0
 30 26  1  0
 31 32  2  0
 32 33  1  0
 34 33  2  0
 35 34  1  0
 36 10  1  0
 36 41  1  0
 36 37  1  0
 37 40  1  1
 37 38  1  0
 39 37  1  0
 41 44  1  0
 42 46  1  0
 42 41  1  0
 43 42  2  0
 46 45  1  0
 48 46  1  0
 48 49  1  0
 48 47  1  0
 50  1  1  0
 50 51  1  0
 52 51  1  0
 52 58  1  0
 54 57  2  0
 55 53  2  0
 56 58  2  0
 56 54  1  0
 57 53  1  0
 57 67  1  0
 58 55  1  0
 59 67  1  0
 60 65  1  0
 61 62  1  0
 61 60  1  0
 63 62  1  0
 63 71  1  0
 63 64  1  0
 65 59  1  0
 65 64  1  0
 66 59  2  0
 67 97  1  0
 68 69  2  0
 69 88  1  0
 70 69  1  0
 70 73  1  0
 71 68  1  0
 71 72  1  0
 72 70  2  0
 73 74  1  0
 74 75  2  0
 76 79  1  0
 76 75  1  0
 77 76  2  0
 78 77  1  0
 78 73  2  0
 79 80  1  0
 80 85  2  0
 80 81  1  0
 81 82  2  0
 82 83  1  0
 83 87  1  0
 84 83  2  0
 85 84  1  0
 86 85  1  0
 88 89  1  0
 89 92  1  0
 89 91  1  0
 90 88  2  0
 93 94  1  0
 93 68  1  0
 95 93  1  0
 97 96  1  0
M  ISO  4   8 101   9 101  59 100  67 100
M  END
>  <TORSDO>  (50) 
F 25

>  <SCORE>  (50) 
-10.835

>  <name>  (50) 
49

>  <ligand_id>  (50) 
49

>  <original_smiles>  (50) 
[H]c1c([H])c([H])c2c(c1[H])C([H])([H])C([H])([H])C([H])([H])C2([H])N([H])C(=O)C1([H])N(C(=O)C([H])(N([H])C(=O)C([H])(N([H])C([H])([H])[H])C([H])([H])[H])C(C([H])([H])[H])(C([H])([H])[H])C([H])([H])[H])C([H])([H])c2c([H])c(OC([H])([H])C(=O)N([H])C([H])([H])C([H])([H])C([H])([H])C([H])([H])C([H])([H])Oc3c([H])c([H])c(N(C(=O)N4C([H])([H])C([H])([H])C([H])([H])C([H])(n5nc(-c6c([H])c([H])c(Oc7c([H])c([H])c(F)c([H])c7F)c([H])c6[H])c(C(=O)N([H])[H])c5N([H])[H])C4([H])[H])C([H])([H])C([H])([H])[H])c([H])c3[H])c([H])c([H])c2C1([H])[H]

>  <smiles>  (50) 
[H]c1c([H])c([H])c2c(c1[H])C([H])([H])C([H])([H])C([H])([H])C2([H])N([H])C(=O)C1([H])N(C(=O)C([H])(N([H])C(=O)C([H])(N([H])C([H])([H])[H])C([H])([H])[H])C(C([H])([H])[H])(C([H])([H])[H])C([H])([H])[H])C([H])([H])c2c([H])c(OC([H])([H])C(=O)N([H])C([H])([H])C([H])([H])C([H])([H])C([H])([H])C([H])([H])Oc3c([H])c([H])c(N(C(=O)N4C([H])([H])C([H])([H])C([H])([H])C([H])(n5nc(-c6c([H])c([H])c(Oc7c([H])c([H])c(F)c([H])c7F)c([H])c6[H])c(C(=O)N([H])[H])c5N([H])[H])C4([H])[H])C([H])([H])C([H])([H])[H])c([H])c3[H])c([H])c([H])c2C1([H])[H]

$$$$
50:0:0
     RDKit          3D

109117  0  0  1  0  0  0  0  0999 V2000
  -26.1990  -19.3980   23.7560 C   0  0  0  0  0  0  0  0  0  0  0  0
  -24.9500  -19.8390   23.9360 N   0  0  0  0  0  0  0  0  0  0  0  0
  -26.9880  -19.2200   24.6850 O   0  0  0  0  0  0  0  0  0  0  0  0
  -24.3550  -19.8860   23.1200 H   0  0  0  0  0  0  0  0  0  0  0  0
  -24.4750  -20.5380   25.1250 C   0  0  0  0  0  2  0  0  0  0  0  0
  -24.6820  -22.0560   24.9570 C   0  0  0  0  0  2  0  0  0  0  0  0
  -23.7410  -22.6790   23.9100 C   0  0  0  0  0  2  0  0  0  0  0  0
  -24.1450  -24.0950   23.4670 C   0  0  0  0  0  2  0  0  0  0  0  0
  -23.3900  -24.5080   22.1920 C   0  0  0  0  0  2  0  0  0  0  0  0
  -23.9430  -25.7540   21.4730 C   0  0  0  0  0  2  0  0  0  0  0  0
  -26.0160  -25.0830   20.2370 C   0  0  0  0  0  0  0  0  0  0  0  0
  -25.3860  -25.7560   21.2120 N   0  0  0  0  0  0  0  0  0  0  0  0
  -25.5270  -24.0990   19.6820 O   0  0  0  0  0  0  0  0  0  0  0  0
  -25.8920  -26.5380   21.6030 H   0  0  0  0  0  0  0  0  0  0  0  0
  -27.3240  -25.7040   19.6900 C   0  0  0  0  0  2  0  0  0  0  0  0
  -27.0730  -26.6330   18.6100 O   0  0  0  0  0  0  0  0  0  0  0  0
  -24.9870  -31.2990   23.5190 C   0  0  0  0  0  0  0  0  0  0  0  0
  -26.1710  -27.6140   18.9410 C   0  0  0  0  0  0  0  0  0  0  0  0
  -23.2900  -30.6530   21.8380 C   0  0  0  0  0  3  0  0  0  0  0  0
  -24.1740  -29.3980   19.8010 C   0  0  0  0  0  0  0  0  0  0  0  0
  -25.7800  -30.6410   21.2580 C   0  0  0  0  0  2  0  0  0  0  0  0
  -25.4840  -29.5270   20.2810 C   0  0  0  0  0  0  0  0  0  0  0  0
  -26.4910  -28.6310   19.8640 C   0  0  0  0  0  3  0  0  0  0  0  0
  -24.8650  -27.5300   18.4190 C   0  0  0  0  0  3  0  0  0  0  0  0
  -23.8550  -28.3970   18.8680 C   0  0  0  0  0  3  0  0  0  0  0  0
  -23.1540  -30.3850   20.3160 C   0  0  0  0  0  2  0  0  0  0  0  0
  -24.7130  -30.8560   22.2620 N   0  0  0  0  0  0  0  0  0  0  0  0
  -24.0770  -31.5760   24.3110 O   0  0  0  0  0  0  0  0  0  0  0  0
  -22.5830  -29.5140   22.6070 C   0  0  0  0  0  0  0  0  0  0  0  0
  -21.2500  -29.4310   22.4600 N   0  0  0  0  0  0  0  0  0  0  0  0
  -23.2280  -28.7130   23.2890 O   0  0  0  0  0  0  0  0  0  0  0  0
  -20.7950  -30.1310   21.8900 H   0  0  0  0  0  0  0  0  0  0  0  0
  -17.8610  -28.1890   22.5260 C   0  0  0  0  0  0  0  0  0  0  0  0
  -20.3800  -28.4250   23.0640 C   0  0  0  0  0  3  0  0  0  0  0  0
  -20.5500  -27.0530   22.3730 C   0  0  0  0  0  2  0  0  0  0  0  0
  -19.5560  -26.8270   21.2290 C   0  0  0  0  0  2  0  0  0  0  0  0
  -18.1150  -26.9110   21.7470 C   0  0  0  0  0  2  0  0  0  0  0  0
  -18.9260  -28.9100   23.1300 C   0  0  0  0  0  0  0  0  0  0  0  0
  -18.6390  -30.1150   23.8090 C   0  0  0  0  0  3  0  0  0  0  0  0
  -17.3180  -30.5970   23.8930 C   0  0  0  0  0  3  0  0  0  0  0  0
  -16.2670  -29.8700   23.3080 C   0  0  0  0  0  3  0  0  0  0  0  0
  -16.5390  -28.6680   22.6310 C   0  0  0  0  0  3  0  0  0  0  0  0
  -26.4520  -31.5030   24.0150 C   0  0  0  0  0  3  0  0  0  0  0  0
  -26.5190  -32.8170   24.6680 N   0  0  0  0  0  0  0  0  0  0  0  0
  -27.0200  -33.9220   24.1000 C   0  0  0  0  0  0  0  0  0  0  0  0
  -27.5470  -33.9230   22.9840 O   0  0  0  0  0  0  0  0  0  0  0  0
  -26.0580  -32.9030   25.5610 H   0  0  0  0  0  0  0  0  0  0  0  0
  -25.7680  -36.0880   24.3410 C   0  0  0  0  0  1  0  0  0  0  0  0
  -26.9200  -35.2370   24.8950 C   0  0  0  0  0  3  0  0  0  0  0  0
  -29.2510  -35.4030   25.6510 C   0  0  0  0  0  1  0  0  0  0  0  0
  -28.1720  -36.0250   24.8870 N   0  0  0  0  0  0  0  0  0  0  0  0
  -28.0140  -36.9560   25.2640 H   0  0  0  0  0  0  0  0  0  0  0  0
  -26.9400  -30.3650   24.9940 C   0  0  1  0  0  0  0  0  0  0  0  0
  -25.9740  -30.1040   26.1720 C   0  0  0  0  0  1  0  0  0  0  0  0
  -27.1270  -29.0330   24.2310 C   0  0  0  0  0  1  0  0  0  0  0  0
  -28.3220  -30.7360   25.5800 C   0  0  0  0  0  1  0  0  0  0  0  0
  -26.6570  -19.2140   22.3070 C   0  0  0  0  0  2  0  0  0  0  0  0
  -27.8800  -20.1020   21.9770 C   0  0  0  0  0  2  0  0  0  0  0  0
  -27.5240  -21.5060   21.4270 C   0  0  0  0  0  2  0  0  0  0  0  0
  -28.2050  -21.9150   20.1050 C   0  0  0  0  0  2  0  0  0  0  0  0
  -27.6590  -21.2240   18.8420 C   0  0  0  0  0  2  0  0  0  0  0  0
  -28.7770  -19.4210   17.5250 C   0  0  0  0  0  0  0  0  0  0  0  0
  -28.3350  -19.9570   18.6610 N   0  0  0  0  0  0  0  0  0  0  0  0
  -28.5170  -19.8620   16.4030 O   0  0  0  0  0  0  0  0  0  0  0  0
  -28.6350  -19.4950   19.5050 H   0  0  0  0  0  0  0  0  0  0  0  0
  -31.8020  -17.1350   17.1210 C   0  0  0  0  0  3  0  0  0  0  0  0
  -30.8540  -18.1440   16.8750 C   0  0  0  0  0  3  0  0  0  0  0  0
  -31.6650  -16.2970   18.2420 C   0  0  0  0  0  3  0  0  0  0  0  0
  -29.5960  -17.4230   18.8390 C   0  0  0  0  0  3  0  0  0  0  0  0
  -29.7500  -18.3010   17.7410 C   0  0  0  0  0  0  0  0  0  0  0  0
  -30.5660  -16.4460   19.1280 C   0  0  0  0  0  0  0  0  0  0  0  0
  -31.1530  -14.6230   20.6650 C   0  0  0  0  0  0  0  0  0  0  0  0
  -30.9780  -12.2930   20.0280 C   0  0  0  0  0  2  0  0  0  0  0  0
  -30.1920  -12.2750   18.6990 C   0  0  0  0  0  2  0  0  0  0  0  0
  -28.6770  -12.1910   18.9720 C   0  0  0  0  0  2  0  0  0  0  0  0
  -28.1880  -13.2410   20.0040 C   0  0  0  0  0  3  0  0  0  0  0  0
  -29.1090  -13.2740   21.2470 C   0  0  0  0  0  2  0  0  0  0  0  0
  -30.4970  -13.4470   20.7920 N   0  0  0  0  0  0  0  0  0  0  0  0
  -32.3770  -14.7240   20.5700 O   0  0  0  0  0  0  0  0  0  0  0  0
  -30.3630  -15.6330   20.2840 N   0  0  0  0  0  0  0  0  0  0  0  0
  -29.4120  -15.5770   20.6140 H   0  0  0  0  0  0  0  0  0  0  0  0
  -25.7540  -13.9430   20.4510 C   0  0  0  0  0  0  0  0  0  0  0  0
  -24.6340  -13.2130   20.7480 C   0  0  0  0  0  0  0  0  0  0  0  0
  -25.0590  -11.8530   20.8280 C   0  0  0  0  0  0  0  0  0  0  0  0
  -26.7910  -13.0250   20.3670 N   0  0  0  0  0  0  0  0  0  0  0  0
  -26.3700  -11.7670   20.6510 N   0  0  0  0  0  0  0  0  0  0  0  0
  -24.2840  -10.6180   21.0030 C   0  0  0  0  0  0  0  0  0  0  0  0
  -24.6100   -9.6810   22.0100 C   0  0  0  0  0  3  0  0  0  0  0  0
  -23.8400   -8.5100   22.1730 C   0  0  0  0  0  3  0  0  0  0  0  0
  -22.7290   -8.2670   21.3300 C   0  0  0  0  0  0  0  0  0  0  0  0
  -22.4230   -9.1930   20.3150 C   0  0  0  0  0  3  0  0  0  0  0  0
  -23.1940  -10.3550   20.1500 C   0  0  0  0  0  3  0  0  0  0  0  0
  -21.9410   -7.1440   21.3990 O   0  0  0  0  0  0  0  0  0  0  0  0
  -21.7600   -6.4610   22.5750 C   0  0  0  0  0  0  0  0  0  0  0  0
  -21.1940   -7.0770   23.7150 C   0  0  0  0  0  3  0  0  0  0  0  0
  -20.9610   -6.3200   24.8800 C   0  0  0  0  0  3  0  0  0  0  0  0
  -21.2870   -4.9510   24.9070 C   0  0  0  0  0  0  0  0  0  0  0  0
  -21.8420   -4.3350   23.7700 C   0  0  0  0  0  3  0  0  0  0  0  0
  -22.0750   -5.0880   22.6070 C   0  0  0  0  0  0  0  0  0  0  0  0
  -22.5910   -4.4870   21.5080 F   0  0  0  0  0  0  0  0  0  0  0  0
  -21.0560   -4.2200   26.0220 F   0  0  0  0  0  0  0  0  0  0  0  0
  -23.2300  -13.7340   20.8570 C   0  0  0  0  0  0  0  0  0  0  0  0
  -22.4070  -13.1070   21.6900 N   0  0  0  0  0  0  0  0  0  0  0  0
  -22.8700  -14.7330   20.2360 O   0  0  0  0  0  0  0  0  0  0  0  0
  -22.7120  -12.3000   22.2180 H   0  0  0  0  0  0  0  0  0  0  0  0
  -21.4590  -13.4410   21.8010 H   0  0  0  0  0  0  0  0  0  0  0  0
  -25.9710  -15.2990   20.2240 N   0  0  0  0  0  0  0  0  0  0  0  0
  -25.2050  -15.9630   20.2190 H   0  0  0  0  0  0  0  0  0  0  0  0
  -26.8420  -15.6970   19.8980 H   0  0  0  0  0  0  0  0  0  0  0  0
  1  2  1  0
  1  3  2  0
  2  5  1  0
  4  2  1  0
  6  5  1  0
  7  6  1  0
  8  7  1  0
  9  8  1  0
 10  9  1  0
 11 12  1  0
 12 10  1  0
 12 14  1  0
 13 11  2  0
 15 11  1  0
 16 18  1  0
 16 15  1  0
 17 28  2  0
 18 23  1  0
 19 27  1  0
 19 29  1  0
 20 22  1  0
 20 26  1  0
 21 27  1  0
 22 21  1  0
 23 22  2  0
 24 25  1  0
 24 18  2  0
 25 20  2  0
 26 19  1  0
 27 17  1  0
 29 31  2  0
 30 29  1  0
 32 30  1  0
 33 42  2  0
 33 38  1  0
 34 30  1  0
 34 38  1  0
 35 34  1  0
 36 37  1  0
 36 35  1  0
 37 33  1  0
 38 39  2  0
 39 40  1  0
 41 40  2  0
 42 41  1  0
 43 17  1  0
 43 44  1  0
 43 53  1  0
 44 47  1  0
 45 44  1  0
 45 49  1  0
 46 45  2  0
 49 48  1  0
 51 49  1  0
 51 52  1  0
 51 50  1  0
 53 56  1  1
 53 54  1  0
 55 53  1  0
 57  1  1  0
 58 57  1  0
 59 58  1  0
 60 59  1  0
 61 60  1  0
 62 70  1  0
 62 63  1  0
 63 61  1  0
 63 65  1  0
 64 62  2  0
 66 68  1  0
 67 66  2  0
 67 70  1  0
 68 71  2  0
 69 71  1  0
 70 69  2  0
 71 80  1  0
 72 78  1  0
 73 78  1  0
 74 75  1  0
 74 73  1  0
 76 75  1  0
 76 85  1  0
 76 77  1  0
 78 77  1  0
 79 72  2  0
 80 81  1  0
 80 72  1  0
 82 83  2  0
 83 84  1  0
 83102  1  0
 84 87  1  0
 85 82  1  0
 85 86  1  0
 86 84  2  0
 87 88  1  0
 88 89  2  0
 90 93  1  0
 90 89  1  0
 91 90  2  0
 92 91  1  0
 92 87  2  0
 93 94  1  0
 94 99  2  0
 94 95  1  0
 95 96  2  0
 96 97  1  0
 97101  1  0
 98 97  2  0
 99 98  1  0
100 99  1  0
102103  1  0
103106  1  0
103105  1  0
104102  2  0
107 82  1  0
108107  1  0
109107  1  0
M  ISO  4  15 101  16 101  72 100  80 100
M  END
>  <TORSDO>  (51) 
F 31

>  <SCORE>  (51) 
32.665

>  <name>  (51) 
50

>  <ligand_id>  (51) 
50

>  <original_smiles>  (51) 
[H]c1c([H])c(C(=O)N([H])C([H])([H])C([H])([H])C([H])([H])C([H])([H])C([H])([H])C(=O)N([H])C([H])([H])C([H])([H])C([H])([H])C([H])([H])C([H])([H])C([H])([H])N([H])C(=O)C([H])([H])Oc2c([H])c([H])c3c(c2[H])C([H])([H])N(C(=O)C([H])(N([H])C(=O)C([H])(N([H])C([H])([H])[H])C([H])([H])[H])C(C([H])([H])[H])(C([H])([H])[H])C([H])([H])[H])C([H])(C(=O)N([H])C2([H])c4c([H])c([H])c([H])c([H])c4C([H])([H])C([H])([H])C2([H])[H])C3([H])[H])c([H])c(N([H])C(=O)N2C([H])([H])C([H])([H])C([H])([H])C([H])(n3nc(-c4c([H])c([H])c(Oc5c([H])c([H])c(F)c([H])c5F)c([H])c4[H])c(C(=O)N([H])[H])c3N([H])[H])C2([H])[H])c1[H]

>  <smiles>  (51) 
[H]c1c([H])c(C(=O)N([H])C([H])([H])C([H])([H])C([H])([H])C([H])([H])C([H])([H])C(=O)N([H])C([H])([H])C([H])([H])C([H])([H])C([H])([H])C([H])([H])C([H])([H])N([H])C(=O)C([H])([H])Oc2c([H])c([H])c3c(c2[H])C([H])([H])N(C(=O)C([H])(N([H])C(=O)C([H])(N([H])C([H])([H])[H])C([H])([H])[H])C(C([H])([H])[H])(C([H])([H])[H])C([H])([H])[H])C([H])(C(=O)N([H])C2([H])c4c([H])c([H])c([H])c([H])c4C([H])([H])C([H])([H])C2([H])[H])C3([H])[H])c([H])c(N([H])C(=O)N2C([H])([H])C([H])([H])C([H])([H])C([H])(n3nc(-c4c([H])c([H])c(Oc5c([H])c([H])c(F)c([H])c5F)c([H])c4[H])c(C(=O)N([H])[H])c3N([H])[H])C2([H])[H])c1[H]

$$$$
51:0:0
     RDKit          3D

109117  0  0  1  0  0  0  0  0999 V2000
  -29.6350  -20.4680   21.4600 C   0  0  0  0  0  0  0  0  0  0  0  0
  -30.0240  -19.1730   21.2640 N   0  0  0  0  0  0  0  0  0  0  0  0
  -28.5610  -20.9040   21.0450 O   0  0  0  0  0  0  0  0  0  0  0  0
  -30.9360  -18.4600   22.1840 C   0  0  0  0  0  2  0  0  0  0  0  0
  -30.3120  -18.3850   23.6000 C   0  0  0  0  0  2  0  0  0  0  0  0
  -31.2720  -17.9520   24.6320 N   0  0  0  0  0  4  0  0  0  0  0  0
  -31.6030  -17.0220   24.4480 H   0  0  0  0  0  0  0  0  0  0  0  0
  -30.8260  -17.9450   25.5340 H   0  0  0  0  0  0  0  0  0  0  0  0
  -32.0620  -18.5710   24.6900 H   0  0  0  0  0  0  0  0  0  0  0  0
  -29.6990  -18.3740   20.0440 C   0  0  0  0  0  3  0  0  0  0  0  0
  -32.4050  -19.3610   17.5210 C   0  0  0  0  0  3  0  0  0  0  0  0
  -33.1200  -18.1720   17.3450 C   0  0  0  0  0  3  0  0  0  0  0  0
  -31.3110  -19.3780   18.3980 C   0  0  0  0  0  3  0  0  0  0  0  0
  -32.7340  -17.0130   18.0380 C   0  0  0  0  0  3  0  0  0  0  0  0
  -30.9230  -18.2300   19.1300 C   0  0  0  0  0  0  0  0  0  0  0  0
  -31.6450  -17.0070   18.9560 C   0  0  0  0  0  0  0  0  0  0  0  0
  -31.8410  -14.5790   19.5000 C   0  0  0  0  0  0  0  0  0  0  0  0
  -31.1700  -12.4490   18.5140 C   0  0  0  0  0  2  0  0  0  0  0  0
  -30.1560  -12.7480   17.3930 C   0  0  0  0  0  2  0  0  0  0  0  0
  -28.7230  -12.7720   17.9610 C   0  0  0  0  0  2  0  0  0  0  0  0
  -28.5880  -13.6610   19.2280 C   0  0  0  0  0  3  0  0  0  0  0  0
  -29.7310  -13.3970   20.2370 C   0  0  0  0  0  2  0  0  0  0  0  0
  -31.0120  -13.5050   19.5240 N   0  0  0  0  0  0  0  0  0  0  0  0
  -33.0190  -14.4900   19.1550 O   0  0  0  0  0  0  0  0  0  0  0  0
  -31.2480  -15.7880   19.6200 N   0  0  0  0  0  0  0  0  0  0  0  0
  -30.3280  -15.7760   20.0290 H   0  0  0  0  0  0  0  0  0  0  0  0
  -26.3880  -14.4910   20.2730 C   0  0  0  0  0  0  0  0  0  0  0  0
  -25.2660  -13.8370   20.6940 C   0  0  0  0  0  0  0  0  0  0  0  0
  -25.5260  -12.4490   20.4940 C   0  0  0  0  0  0  0  0  0  0  0  0
  -27.2710  -13.5140   19.8450 N   0  0  0  0  0  0  0  0  0  0  0  0
  -26.7610  -12.2710   20.0380 N   0  0  0  0  0  0  0  0  0  0  0  0
  -24.6500  -11.2860   20.6570 C   0  0  0  0  0  0  0  0  0  0  0  0
  -25.0190  -10.1910   21.4700 C   0  0  0  0  0  3  0  0  0  0  0  0
  -24.1480   -9.0910   21.6250 C   0  0  0  0  0  3  0  0  0  0  0  0
  -22.8940   -9.0810   20.9700 C   0  0  0  0  0  0  0  0  0  0  0  0
  -22.5430  -10.1630   20.1440 C   0  0  0  0  0  3  0  0  0  0  0  0
  -23.4120  -11.2550   19.9860 C   0  0  0  0  0  3  0  0  0  0  0  0
  -21.9950   -8.0450   21.0430 O   0  0  0  0  0  0  0  0  0  0  0  0
  -21.8990   -7.2540   22.1610 C   0  0  0  0  0  0  0  0  0  0  0  0
  -21.6080   -7.7940   23.4330 C   0  0  0  0  0  3  0  0  0  0  0  0
  -21.4490   -6.9380   24.5410 C   0  0  0  0  0  3  0  0  0  0  0  0
  -21.5730   -5.5460   24.3780 C   0  0  0  0  0  0  0  0  0  0  0  0
  -21.8570   -5.0050   23.1110 C   0  0  0  0  0  3  0  0  0  0  0  0
  -22.0180   -5.8590   22.0060 C   0  0  0  0  0  0  0  0  0  0  0  0
  -22.2720   -5.3330   20.7840 F   0  0  0  0  0  0  0  0  0  0  0  0
  -21.4120   -4.7230   25.4400 F   0  0  0  0  0  0  0  0  0  0  0  0
  -23.9880  -14.4730   21.1620 C   0  0  0  0  0  0  0  0  0  0  0  0
  -23.2650  -13.8060   22.0550 N   0  0  0  0  0  0  0  0  0  0  0  0
  -23.6490  -15.5910   20.7760 O   0  0  0  0  0  0  0  0  0  0  0  0
  -23.5540  -12.8990   22.3880 H   0  0  0  0  0  0  0  0  0  0  0  0
  -22.4080  -14.2090   22.4090 H   0  0  0  0  0  0  0  0  0  0  0  0
  -26.7100  -15.8360   20.2050 N   0  0  0  0  0  0  0  0  0  0  0  0
  -26.0490  -16.5560   20.4670 H   0  0  0  0  0  0  0  0  0  0  0  0
  -27.5660  -16.2120   19.8220 H   0  0  0  0  0  0  0  0  0  0  0  0
  -28.5080  -18.4330   17.7500 C   0  0  0  0  0  1  0  0  0  0  0  0
  -27.1480  -18.2690   19.9140 C   0  0  0  0  0  1  0  0  0  0  0  0
  -28.4260  -18.8010   19.2440 C   0  0  0  0  0  3  0  0  0  0  0  0
  -30.5900  -21.4890   22.1240 C   0  0  0  0  0  3  0  0  0  0  0  0
  -29.7640  -23.8110   21.5490 C   0  0  0  0  0  0  0  0  0  0  0  0
  -31.5880  -22.8070   20.2350 C   0  0  0  0  0  1  0  0  0  0  0  0
  -30.6260  -22.7700   21.3460 N   0  0  0  0  0  0  0  0  0  0  0  0
  -28.9220  -23.8040   22.4480 O   0  0  0  0  0  0  0  0  0  0  0  0
  -29.7940  -25.0640   20.6410 C   0  0  0  0  0  2  0  0  0  0  0  0
  -28.3790  -25.5590   20.2760 C   0  0  0  0  0  2  0  0  0  0  0  0
  -28.4310  -26.8430   19.6490 O   0  0  0  0  0  0  0  0  0  0  0  0
  -24.6380  -31.7240   23.1120 C   0  0  0  0  0  0  0  0  0  0  0  0
  -27.2470  -27.5340   19.7060 C   0  0  0  0  0  0  0  0  0  0  0  0
  -23.3910  -30.3830   21.4490 C   0  0  0  0  0  3  0  0  0  0  0  0
  -24.8140  -28.9560   19.8860 C   0  0  0  0  0  0  0  0  0  0  0  0
  -25.8910  -30.8210   21.1590 C   0  0  0  0  0  2  0  0  0  0  0  0
  -25.9830  -29.4870   20.4500 C   0  0  0  0  0  0  0  0  0  0  0  0
  -27.2020  -28.7890   20.3480 C   0  0  0  0  0  3  0  0  0  0  0  0
  -26.0630  -27.0020   19.1500 C   0  0  0  0  0  3  0  0  0  0  0  0
  -24.8510  -27.7120   19.2290 C   0  0  0  0  0  3  0  0  0  0  0  0
  -23.5550  -29.7790   20.0290 C   0  0  0  0  0  2  0  0  0  0  0  0
  -24.6620  -30.9870   21.9670 N   0  0  0  0  0  0  0  0  0  0  0  0
  -23.5760  -31.9430   23.7120 O   0  0  0  0  0  0  0  0  0  0  0  0
  -22.8010  -29.3020   22.3830 C   0  0  0  0  0  0  0  0  0  0  0  0
  -21.4850  -29.0590   22.2600 N   0  0  0  0  0  0  0  0  0  0  0  0
  -23.5250  -28.6840   23.1690 O   0  0  0  0  0  0  0  0  0  0  0  0
  -20.9620  -29.6170   21.6000 H   0  0  0  0  0  0  0  0  0  0  0  0
  -18.1960  -27.6170   22.6650 C   0  0  0  0  0  0  0  0  0  0  0  0
  -20.7230  -28.0550   23.0010 C   0  0  0  0  0  3  0  0  0  0  0  0
  -20.9450  -26.6410   22.4190 C   0  0  0  0  0  2  0  0  0  0  0  0
  -19.8930  -26.2470   21.3770 C   0  0  0  0  0  2  0  0  0  0  0  0
  -18.4890  -26.2880   21.9860 C   0  0  0  0  0  2  0  0  0  0  0  0
  -19.2480  -28.4510   23.1290 C   0  0  0  0  0  0  0  0  0  0  0  0
  -18.9280  -29.6910   23.7230 C   0  0  0  0  0  3  0  0  0  0  0  0
  -17.5880  -30.0990   23.8590 C   0  0  0  0  0  3  0  0  0  0  0  0
  -16.5500  -29.2630   23.4170 C   0  0  0  0  0  3  0  0  0  0  0  0
  -16.8550  -28.0240   22.8250 C   0  0  0  0  0  3  0  0  0  0  0  0
  -25.9380  -32.3520   23.7090 C   0  0  0  0  0  3  0  0  0  0  0  0
  -26.4900  -31.5610   24.9590 C   0  0  1  0  0  0  0  0  0  0  0  0
  -25.4260  -31.3090   26.0510 C   0  0  0  0  0  1  0  0  0  0  0  0
  -27.0610  -30.1900   24.5240 C   0  0  0  0  0  1  0  0  0  0  0  0
  -27.6600  -32.3440   25.6000 C   0  0  0  0  0  1  0  0  0  0  0  0
  -25.6350  -33.7460   24.0620 N   0  0  0  0  0  0  0  0  0  0  0  0
  -26.0060  -34.8100   23.3420 C   0  0  0  0  0  0  0  0  0  0  0  0
  -26.7080  -34.7240   22.3310 O   0  0  0  0  0  0  0  0  0  0  0  0
  -25.0190  -33.8850   24.8490 H   0  0  0  0  0  0  0  0  0  0  0  0
  -24.3340  -36.6480   22.9520 C   0  0  0  0  0  1  0  0  0  0  0  0
  -25.5180  -36.1910   23.8190 C   0  0  0  0  0  3  0  0  0  0  0  0
  -27.6200  -37.0040   24.7970 C   0  0  0  0  0  1  0  0  0  0  0  0
  -26.5740  -37.2250   23.8010 N   0  0  0  0  0  0  0  0  0  0  0  0
  -26.1790  -38.1490   23.9540 H   0  0  0  0  0  0  0  0  0  0  0  0
  -30.4340  -21.6590   23.6600 C   0  0  0  0  0  2  0  0  0  0  0  0
  -31.5040  -22.3340   25.8510 C   0  0  0  0  0  1  0  0  0  0  0  0
  -32.8410  -20.9820   24.1840 C   0  0  0  0  0  1  0  0  0  0  0  0
  -31.7490  -22.0530   24.3650 C   0  0  0  0  0  3  0  0  0  0  0  0
  1 58  1  0
  2  1  1  0
  2  4  1  0
  3  1  2  0
  4  5  1  0
  5  6  1  0
  6  9  1  0
  6  8  1  0
  7  6  1  0
 10 57  1  0
 10  2  1  0
 11 13  1  0
 12 11  2  0
 12 14  1  0
 13 15  2  0
 14 16  2  0
 15 10  1  0
 16 15  1  0
 16 25  1  0
 17 23  1  0
 17 25  1  0
 18 23  1  0
 19 20  1  0
 19 18  1  0
 21 20  1  0
 21 30  1  0
 21 22  1  0
 23 22  1  0
 24 17  2  0
 25 26  1  0
 27 28  2  0
 28 47  1  0
 29 32  1  0
 29 28  1  0
 30 31  1  0
 30 27  1  0
 31 29  2  0
 32 33  1  0
 33 34  2  0
 35 38  1  0
 35 34  1  0
 36 35  2  0
 37 36  1  0
 37 32  2  0
 38 39  1  0
 39 40  1  0
 40 41  2  0
 42 41  1  0
 42 46  1  0
 43 42  2  0
 44 39  2  0
 44 43  1  0
 45 44  1  0
 47 48  1  0
 48 50  1  0
 48 51  1  0
 49 47  2  0
 52 27  1  0
 52 53  1  0
 54 52  1  0
 55 57  1  0
 57 56  1  0
 58106  1  0
 59 62  2  0
 60 61  1  0
 61 59  1  0
 61 58  1  0
 63 59  1  0
 64 63  1  0
 65 67  1  0
 65 64  1  0
 66 77  2  0
 67 72  1  0
 68 76  1  0
 68 78  1  0
 69 75  1  0
 69 71  1  0
 70 76  1  0
 71 70  1  0
 72 71  2  0
 73 74  1  0
 73 67  2  0
 74 69  2  0
 75 68  1  0
 76 66  1  0
 78 80  2  0
 79 78  1  0
 81 79  1  0
 82 91  2  0
 82 87  1  0
 83 79  1  0
 83 87  1  0
 84 83  1  0
 85 86  1  0
 85 84  1  0
 86 82  1  0
 87 88  2  0
 88 89  1  0
 90 89  2  0
 91 90  1  0
 92 66  1  0
 92 97  1  0
 92 93  1  0
 93 96  1  1
 93 94  1  0
 95 93  1  0
 97100  1  0
 98102  1  0
 98 97  1  0
 99 98  2  0
102101  1  0
104102  1  0
104105  1  0
104103  1  0
106109  1  0
108109  1  0
109107  1  0
M  ISO  4  17 100  25 100  64 101  65 101
M  END
>  <TORSDO>  (52) 
F 28

>  <SCORE>  (52) 
-7.139

>  <name>  (52) 
51

>  <ligand_id>  (52) 
51

>  <original_smiles>  (52) 
[H]c1c([H])c([H])c(C([H])(N(C(=O)C([H])(N(C(=O)C([H])([H])C([H])([H])Oc2c([H])c([H])c3c(c2[H])C([H])([H])N(C(=O)C([H])(N([H])C(=O)C([H])(N([H])C([H])([H])[H])C([H])([H])[H])C(C([H])([H])[H])(C([H])([H])[H])C([H])([H])[H])C([H])(C(=O)N([H])C2([H])c4c([H])c([H])c([H])c([H])c4C([H])([H])C([H])([H])C2([H])[H])C3([H])[H])C([H])([H])[H])C([H])([H])C([H])(C([H])([H])[H])C([H])([H])[H])C([H])([H])C([H])([H])[N+]([H])([H])[H])C([H])(C([H])([H])[H])C([H])([H])[H])c(N([H])C(=O)N2C([H])([H])C([H])([H])C([H])([H])C([H])(n3nc(-c4c([H])c([H])c(Oc5c([H])c([H])c(F)c([H])c5F)c([H])c4[H])c(C(=O)N([H])[H])c3N([H])[H])C2([H])[H])c1[H]

>  <smiles>  (52) 
[H]c1c([H])c([H])c(C([H])(N(C(=O)C([H])(N(C(=O)C([H])([H])C([H])([H])Oc2c([H])c([H])c3c(c2[H])C([H])([H])N(C(=O)C([H])(N([H])C(=O)C([H])(N([H])C([H])([H])[H])C([H])([H])[H])C(C([H])([H])[H])(C([H])([H])[H])C([H])([H])[H])C([H])(C(=O)N([H])C2([H])c4c([H])c([H])c([H])c([H])c4C([H])([H])C([H])([H])C2([H])[H])C3([H])[H])C([H])([H])[H])C([H])([H])C([H])(C([H])([H])[H])C([H])([H])[H])C([H])([H])C([H])([H])[N+]([H])([H])[H])C([H])(C([H])([H])[H])C([H])([H])[H])c(N([H])C(=O)N2C([H])([H])C([H])([H])C([H])([H])C([H])(n3nc(-c4c([H])c([H])c(Oc5c([H])c([H])c(F)c([H])c5F)c([H])c4[H])c(C(=O)N([H])[H])c3N([H])[H])C2([H])[H])c1[H]

$$$$
52:0:0
     RDKit          3D

106115  0  0  1  0  0  0  0  0999 V2000
  -29.6890  -24.7320   20.3540 C   0  0  0  0  0  0  0  0  0  0  0  0
  -29.6960  -23.3840   20.5450 N   0  0  0  0  0  0  0  0  0  0  0  0
  -30.7150  -25.4170   20.4400 O   0  0  0  0  0  0  0  0  0  0  0  0
  -30.9390  -22.6330   20.8140 C   0  0  0  0  0  2  0  0  0  0  0  0
  -30.9730  -21.6520   24.5100 C   0  0  0  0  0  3  0  0  0  0  0  0
  -30.9960  -22.4210   23.3350 C   0  0  0  0  0  3  0  0  0  0  0  0
  -30.8360  -20.2530   24.4370 C   0  0  0  0  0  3  0  0  0  0  0  0
  -30.7530  -20.3790   22.0150 C   0  0  0  0  0  3  0  0  0  0  0  0
  -30.8920  -21.7880   22.0820 C   0  0  0  0  0  0  0  0  0  0  0  0
  -30.7180  -19.5870   23.1910 C   0  0  0  0  0  0  0  0  0  0  0  0
  -30.9650  -17.3870   24.3190 C   0  0  0  0  0  1  0  0  0  0  0  0
  -30.5840  -18.1750   23.1460 N   0  0  0  0  0  0  0  0  0  0  0  0
  -30.0110  -17.4610   22.0020 C   0  0  0  0  0  2  0  0  0  0  0  0
  -31.0320  -16.5290   21.3170 C   0  0  0  0  0  2  0  0  0  0  0  0
  -30.9830  -14.3250   20.1880 C   0  0  0  0  0  0  0  0  0  0  0  0
  -30.6960  -12.1520   19.0560 C   0  0  0  0  0  2  0  0  0  0  0  0
  -29.6110  -12.2460   17.9670 C   0  0  0  0  0  2  0  0  0  0  0  0
  -28.2160  -11.9840   18.5670 C   0  0  0  0  0  2  0  0  0  0  0  0
  -27.9490  -12.8250   19.8430 C   0  0  0  0  0  3  0  0  0  0  0  0
  -29.1340  -12.7250   20.8300 C   0  0  0  0  0  2  0  0  0  0  0  0
  -30.3640  -13.1170   20.1170 N   0  0  0  0  0  0  0  0  0  0  0  0
  -31.9330  -14.6410   19.4660 O   0  0  0  0  0  0  0  0  0  0  0  0
  -30.4910  -15.1870   21.0870 N   0  0  0  0  0  0  0  0  0  0  0  0
  -29.7220  -14.8770   21.6620 H   0  0  0  0  0  0  0  0  0  0  0  0
  -25.7510  -13.2370   21.1200 C   0  0  0  0  0  0  0  0  0  0  0  0
  -24.7230  -12.4020   21.4650 C   0  0  0  0  0  0  0  0  0  0  0  0
  -25.0930  -11.1050   20.9930 C   0  0  0  0  0  0  0  0  0  0  0  0
  -26.6870  -12.4430   20.4750 N   0  0  0  0  0  0  0  0  0  0  0  0
  -26.3020  -11.1400   20.4500 N   0  0  0  0  0  0  0  0  0  0  0  0
  -24.3410   -9.8430   20.9790 C   0  0  0  0  0  0  0  0  0  0  0  0
  -24.8350   -8.6830   21.6150 C   0  0  0  0  0  3  0  0  0  0  0  0
  -24.0870   -7.4860   21.6020 C   0  0  0  0  0  3  0  0  0  0  0  0
  -22.8300   -7.4410   20.9540 C   0  0  0  0  0  0  0  0  0  0  0  0
  -22.3540   -8.5930   20.3020 C   0  0  0  0  0  3  0  0  0  0  0  0
  -23.1020   -9.7810   20.3110 C   0  0  0  0  0  3  0  0  0  0  0  0
  -22.0460   -6.3160   20.8680 O   0  0  0  0  0  0  0  0  0  0  0  0
  -22.0260   -5.3760   21.8650 C   0  0  0  0  0  0  0  0  0  0  0  0
  -21.6800   -5.7060   23.1940 C   0  0  0  0  0  3  0  0  0  0  0  0
  -21.6050   -4.6950   24.1730 C   0  0  0  0  0  3  0  0  0  0  0  0
  -21.8620   -3.3560   23.8250 C   0  0  0  0  0  0  0  0  0  0  0  0
  -22.2010   -3.0240   22.5010 C   0  0  0  0  0  3  0  0  0  0  0  0
  -22.2790   -4.0310   21.5240 C   0  0  0  0  0  0  0  0  0  0  0  0
  -22.5840   -3.7040   20.2440 F   0  0  0  0  0  0  0  0  0  0  0  0
  -21.7820   -2.3830   24.7630 F   0  0  0  0  0  0  0  0  0  0  0  0
  -23.4270  -12.7990   22.1090 C   0  0  0  0  0  0  0  0  0  0  0  0
  -22.8320  -11.9040   22.8920 N   0  0  0  0  0  0  0  0  0  0  0  0
  -22.9570  -13.9270   21.9620 O   0  0  0  0  0  0  0  0  0  0  0  0
  -23.2270  -10.9860   23.0300 H   0  0  0  0  0  0  0  0  0  0  0  0
  -21.9700  -12.1420   23.3610 H   0  0  0  0  0  0  0  0  0  0  0  0
  -25.9610  -14.6010   21.2820 N   0  0  0  0  0  0  0  0  0  0  0  0
  -25.2420  -15.2090   21.6550 H   0  0  0  0  0  0  0  0  0  0  0  0
  -26.7300  -15.1090   20.8630 H   0  0  0  0  0  0  0  0  0  0  0  0
  -28.3600  -25.4310   19.9910 C   0  0  0  0  0  2  0  0  0  0  0  0
  -28.4600  -26.8650   20.0810 O   0  0  0  0  0  0  0  0  0  0  0  0
  -24.6110  -31.9430   23.2640 C   0  0  0  0  0  0  0  0  0  0  0  0
  -27.2680  -27.5650   20.0970 C   0  0  0  0  0  0  0  0  0  0  0  0
  -23.3930  -30.5260   21.6440 C   0  0  0  0  0  3  0  0  0  0  0  0
  -24.8410  -29.0260   20.1790 C   0  0  0  0  0  0  0  0  0  0  0  0
  -25.9080  -30.9320   21.3900 C   0  0  0  0  0  2  0  0  0  0  0  0
  -26.0040  -29.5670   20.7400 C   0  0  0  0  0  0  0  0  0  0  0  0
  -27.2190  -28.8450   20.6950 C   0  0  0  0  0  3  0  0  0  0  0  0
  -26.0790  -27.0410   19.5290 C   0  0  0  0  0  3  0  0  0  0  0  0
  -24.8750  -27.7620   19.5690 C   0  0  0  0  0  3  0  0  0  0  0  0
  -23.5810  -29.8560   20.2570 C   0  0  0  0  0  2  0  0  0  0  0  0
  -24.6570  -31.1490   22.1560 N   0  0  0  0  0  0  0  0  0  0  0  0
  -23.5380  -32.1890   23.8320 O   0  0  0  0  0  0  0  0  0  0  0  0
  -22.7830  -29.4870   22.6140 C   0  0  0  0  0  0  0  0  0  0  0  0
  -21.4790  -29.2120   22.4540 N   0  0  0  0  0  0  0  0  0  0  0  0
  -23.4820  -28.9320   23.4660 O   0  0  0  0  0  0  0  0  0  0  0  0
  -20.9720  -29.7160   21.7400 H   0  0  0  0  0  0  0  0  0  0  0  0
  -18.1900  -27.7710   22.8520 C   0  0  0  0  0  0  0  0  0  0  0  0
  -20.7050  -28.2420   23.2270 C   0  0  0  0  0  3  0  0  0  0  0  0
  -20.9450  -26.8010   22.7190 C   0  0  0  0  0  2  0  0  0  0  0  0
  -19.9230  -26.3530   21.6700 C   0  0  0  0  0  2  0  0  0  0  0  0
  -18.5040  -26.4140   22.2410 C   0  0  0  0  0  2  0  0  0  0  0  0
  -19.2250  -28.6350   23.3000 C   0  0  0  0  0  0  0  0  0  0  0  0
  -18.8800  -29.8990   23.8260 C   0  0  0  0  0  3  0  0  0  0  0  0
  -17.5350  -30.3020   23.9110 C   0  0  0  0  0  3  0  0  0  0  0  0
  -16.5140  -29.4360   23.4820 C   0  0  0  0  0  3  0  0  0  0  0  0
  -16.8430  -28.1730   22.9590 C   0  0  0  0  0  3  0  0  0  0  0  0
  -25.8990  -32.5960   23.8560 C   0  0  0  0  0  3  0  0  0  0  0  0
  -25.5780  -33.9920   24.1800 N   0  0  0  0  0  0  0  0  0  0  0  0
  -25.8770  -35.0410   23.4030 C   0  0  0  0  0  0  0  0  0  0  0  0
  -26.5250  -34.9370   22.3570 O   0  0  0  0  0  0  0  0  0  0  0  0
  -25.0020  -34.1460   24.9940 H   0  0  0  0  0  0  0  0  0  0  0  0
  -24.1080  -36.7970   23.0780 C   0  0  0  0  0  1  0  0  0  0  0  0
  -25.3770  -36.4250   23.8580 C   0  0  0  0  0  3  0  0  0  0  0  0
  -27.5190  -37.3510   24.6190 C   0  0  0  0  0  1  0  0  0  0  0  0
  -26.3870  -37.4960   23.7070 N   0  0  0  0  0  0  0  0  0  0  0  0
  -25.9690  -38.4090   23.8650 H   0  0  0  0  0  0  0  0  0  0  0  0
  -26.4490  -31.8440   25.1290 C   0  0  1  0  0  0  0  0  0  0  0  0
  -25.3720  -31.5860   26.2100 C   0  0  0  0  0  1  0  0  0  0  0  0
  -27.0590  -30.4800   24.7350 C   0  0  0  0  0  1  0  0  0  0  0  0
  -27.5910  -32.6660   25.7720 C   0  0  0  0  0  1  0  0  0  0  0  0
  -28.4930  -22.5330   20.5660 C   0  0  0  0  0  2  0  0  0  0  0  0
  -28.3250  -21.6920   19.2850 C   0  0  0  0  0  2  0  0  0  0  0  0
  -26.9720  -20.9660   19.2670 C   0  0  0  0  0  2  0  0  0  0  0  0
  -27.1340  -19.6730   18.6990 O   0  0  0  0  0  0  0  0  0  0  0  0
  -23.9180  -17.9980   19.5820 C   0  0  0  0  0  3  0  0  0  0  0  0
  -24.8190  -18.9950   19.1630 C   0  0  0  0  0  3  0  0  0  0  0  0
  -25.7590  -16.4180   19.7730 C   0  0  0  0  0  3  0  0  0  0  0  0
  -24.3860  -16.7080   19.8990 C   0  0  0  0  0  0  0  0  0  0  0  0
  -26.2060  -18.7190   19.0650 C   0  0  0  0  0  0  0  0  0  0  0  0
  -26.6640  -17.4160   19.3600 C   0  0  0  0  0  0  0  0  0  0  0  0
  -23.4280  -15.6370   20.3810 C   0  0  0  0  0  1  0  0  0  0  0  0
  -28.3460  -17.0370   19.2550 Cl  0  0  0  0  0  0  0  0  0  0  0  0
  1  3  2  0
  1  2  1  0
  2 95  1  0
  2  4  1  0
  4  9  1  0
  6  5  2  0
  7  5  1  0
  8  9  2  0
  8 10  1  0
  9  6  1  0
 10  7  2  0
 12 10  1  0
 12 11  1  0
 13 12  1  0
 14 13  1  0
 15 23  1  0
 16 21  1  0
 17 18  1  0
 17 16  1  0
 19 18  1  0
 19 28  1  0
 19 20  1  0
 21 15  1  0
 21 20  1  0
 22 15  2  0
 23 14  1  0
 23 24  1  0
 25 50  1  0
 25 26  2  0
 26 45  1  0
 27 26  1  0
 28 25  1  0
 29 28  1  0
 29 27  2  0
 30 27  1  0
 30 31  1  0
 32 31  2  0
 33 32  1  0
 34 35  1  0
 34 33  2  0
 35 30  2  0
 36 33  1  0
 36 37  1  0
 37 38  1  0
 38 39  2  0
 40 39  1  0
 40 44  1  0
 41 40  2  0
 42 37  2  0
 42 41  1  0
 43 42  1  0
 45 46  1  0
 46 48  1  0
 46 49  1  0
 47 45  2  0
 50 51  1  0
 52 50  1  0
 53 54  1  0
 53  1  1  0
 54 56  1  0
 55 66  2  0
 56 61  1  0
 57 65  1  0
 57 67  1  0
 58 64  1  0
 58 60  1  0
 59 65  1  0
 60 59  1  0
 61 60  2  0
 62 63  1  0
 62 56  2  0
 63 58  2  0
 64 57  1  0
 65 55  1  0
 67 69  2  0
 68 67  1  0
 70 68  1  0
 71 80  2  0
 71 76  1  0
 72 68  1  0
 72 76  1  0
 73 72  1  0
 74 75  1  0
 74 73  1  0
 75 71  1  0
 76 77  2  0
 77 78  1  0
 79 78  2  0
 80 79  1  0
 81 55  1  0
 81 82  1  0
 81 91  1  0
 82 85  1  0
 83 87  1  0
 83 82  1  0
 84 83  2  0
 87 86  1  0
 89 87  1  0
 89 90  1  0
 89 88  1  0
 91 94  1  1
 91 92  1  0
 93 91  1  0
 96 95  1  0
 97 96  1  0
 98103  1  0
 98 97  1  0
 99102  1  0
100 99  2  0
101102  2  0
102105  1  0
103100  1  0
103104  2  0
104101  1  0
106104  1  0
M  ISO  4  15 100  23 100  53 101  54 101
M  END
>  <TORSDO>  (53) 
F 27

>  <SCORE>  (53) 
-3.797

>  <name>  (53) 
52

>  <ligand_id>  (53) 
52

>  <original_smiles>  (53) 
[H]c1c([H])c(N(C([H])([H])[H])C([H])([H])C([H])([H])N([H])C(=O)N2C([H])([H])C([H])([H])C([H])([H])C([H])(n3nc(-c4c([H])c([H])c(Oc5c([H])c([H])c(F)c([H])c5F)c([H])c4[H])c(C(=O)N([H])[H])c3N([H])[H])C2([H])[H])c([H])c(C([H])([H])N(C(=O)C([H])([H])Oc2c([H])c([H])c3c(c2[H])C([H])([H])N(C(=O)C([H])(N([H])C(=O)C([H])(N([H])C([H])([H])[H])C([H])([H])[H])C(C([H])([H])[H])(C([H])([H])[H])C([H])([H])[H])C([H])(C(=O)N([H])C2([H])c4c([H])c([H])c([H])c([H])c4C([H])([H])C([H])([H])C2([H])[H])C3([H])[H])C([H])([H])C([H])([H])C([H])([H])Oc2c([H])c([H])c(C([H])([H])[H])c([H])c2Cl)c1[H]

>  <smiles>  (53) 
[H]c1c([H])c(N(C([H])([H])[H])C([H])([H])C([H])([H])N([H])C(=O)N2C([H])([H])C([H])([H])C([H])([H])C([H])(n3nc(-c4c([H])c([H])c(Oc5c([H])c([H])c(F)c([H])c5F)c([H])c4[H])c(C(=O)N([H])[H])c3N([H])[H])C2([H])[H])c([H])c(C([H])([H])N(C(=O)C([H])([H])Oc2c([H])c([H])c3c(c2[H])C([H])([H])N(C(=O)C([H])(N([H])C(=O)C([H])(N([H])C([H])([H])[H])C([H])([H])[H])C(C([H])([H])[H])(C([H])([H])[H])C([H])([H])[H])C([H])(C(=O)N([H])C2([H])c4c([H])c([H])c([H])c([H])c4C([H])([H])C([H])([H])C2([H])[H])C3([H])[H])C([H])([H])C([H])([H])C([H])([H])Oc2c([H])c([H])c(C([H])([H])[H])c([H])c2Cl)c1[H]

$$$$
53:0:0
     RDKit          3D

 92100  0  0  1  0  0  0  0  0999 V2000
  -30.5240  -18.9770   22.3530 C   0  0  0  0  0  3  0  0  0  0  0  0
  -30.0460  -19.1060   19.9790 C   0  0  0  0  0  3  0  0  0  0  0  0
  -30.6360  -17.5720   22.2720 C   0  0  0  0  0  0  0  0  0  0  0  0
  -30.4610  -16.9190   21.0290 C   0  0  0  0  0  0  0  0  0  0  0  0
  -30.2150  -19.7600   21.2240 C   0  0  0  0  0  0  0  0  0  0  0  0
  -30.1590  -17.6990   19.8810 C   0  0  0  0  0  0  0  0  0  0  0  0
  -30.9320  -16.7790   23.5360 C   0  0  0  0  0  1  0  0  0  0  0  0
  -29.9120  -17.1040   18.6880 F   0  0  0  0  0  0  0  0  0  0  0  0
  -31.0040  -14.6540   20.1120 C   0  0  0  0  0  0  0  0  0  0  0  0
  -30.6690  -12.5160   18.9170 C   0  0  0  0  0  2  0  0  0  0  0  0
  -29.6540  -12.7240   17.7740 C   0  0  0  0  0  2  0  0  0  0  0  0
  -28.2050  -12.5760   18.2820 C   0  0  0  0  0  2  0  0  0  0  0  0
  -27.9380  -13.4030   19.5660 C   0  0  0  0  0  3  0  0  0  0  0  0
  -29.0470  -13.1450   20.6100 C   0  0  0  0  0  2  0  0  0  0  0  0
  -30.3490  -13.4680   19.9910 N   0  0  0  0  0  0  0  0  0  0  0  0
  -32.0300  -14.9310   19.4800 O   0  0  0  0  0  0  0  0  0  0  0  0
  -30.4590  -15.4930   21.0080 N   0  0  0  0  0  0  0  0  0  0  0  0
  -29.7990  -15.0580   21.6330 H   0  0  0  0  0  0  0  0  0  0  0  0
  -25.5950  -14.0200   20.4420 C   0  0  0  0  0  0  0  0  0  0  0  0
  -24.5380  -13.2490   20.8470 C   0  0  0  0  0  0  0  0  0  0  0  0
  -24.9730  -11.8930   20.7330 C   0  0  0  0  0  0  0  0  0  0  0  0
  -26.6090  -13.1330   20.1120 N   0  0  0  0  0  0  0  0  0  0  0  0
  -26.2410  -11.8470   20.3400 N   0  0  0  0  0  0  0  0  0  0  0  0
  -24.2400  -10.6340   20.9180 C   0  0  0  0  0  0  0  0  0  0  0  0
  -24.6450   -9.6780   21.8750 C   0  0  0  0  0  3  0  0  0  0  0  0
  -23.9140   -8.4840   22.0470 C   0  0  0  0  0  3  0  0  0  0  0  0
  -22.7630   -8.2360   21.2610 C   0  0  0  0  0  0  0  0  0  0  0  0
  -22.3770   -9.1810   20.2950 C   0  0  0  0  0  3  0  0  0  0  0  0
  -23.1090  -10.3670   20.1210 C   0  0  0  0  0  3  0  0  0  0  0  0
  -22.0060   -7.0930   21.3410 O   0  0  0  0  0  0  0  0  0  0  0  0
  -21.8160   -6.4370   22.5310 C   0  0  0  0  0  0  0  0  0  0  0  0
  -21.2020   -7.0640   23.6380 C   0  0  0  0  0  3  0  0  0  0  0  0
  -20.9640   -6.3310   24.8190 C   0  0  0  0  0  3  0  0  0  0  0  0
  -21.3270   -4.9740   24.8910 C   0  0  0  0  0  0  0  0  0  0  0  0
  -21.9330   -4.3470   23.7890 C   0  0  0  0  0  3  0  0  0  0  0  0
  -22.1740   -5.0770   22.6100 C   0  0  0  0  0  0  0  0  0  0  0  0
  -22.7390   -4.4610   21.5430 F   0  0  0  0  0  0  0  0  0  0  0  0
  -21.0920   -4.2680   26.0220 F   0  0  0  0  0  0  0  0  0  0  0  0
  -23.1700  -13.7350   21.2280 C   0  0  0  0  0  0  0  0  0  0  0  0
  -22.4940  -13.0230   22.1250 N   0  0  0  0  0  0  0  0  0  0  0  0
  -22.7090  -14.7780   20.7670 O   0  0  0  0  0  0  0  0  0  0  0  0
  -22.8810  -12.1780   22.5200 H   0  0  0  0  0  0  0  0  0  0  0  0
  -21.5790  -13.3290   22.4220 H   0  0  0  0  0  0  0  0  0  0  0  0
  -25.7720  -15.3940   20.3100 N   0  0  0  0  0  0  0  0  0  0  0  0
  -25.0290  -16.0580   20.4950 H   0  0  0  0  0  0  0  0  0  0  0  0
  -26.6160  -15.8320   19.9580 H   0  0  0  0  0  0  0  0  0  0  0  0
  -30.0860  -21.1200   21.4360 O   0  0  0  0  0  0  0  0  0  0  0  0
  -29.7010  -21.9890   20.3690 C   0  0  0  0  0  2  0  0  0  0  0  0
  -29.3990  -23.3690   20.9950 C   0  0  0  0  0  2  0  0  0  0  0  0
  -29.1040  -24.5190   20.0020 C   0  0  0  0  0  2  0  0  0  0  0  0
  -28.7050  -25.8270   20.7250 C   0  0  0  0  0  2  0  0  0  0  0  0
  -28.6120  -26.9430   19.8320 O   0  0  0  0  0  0  0  0  0  0  0  0
  -24.6790  -31.7880   23.2750 C   0  0  0  0  0  0  0  0  0  0  0  0
  -27.4280  -27.6390   19.9080 C   0  0  0  0  0  0  0  0  0  0  0  0
  -23.5000  -30.4560   21.5570 C   0  0  0  0  0  3  0  0  0  0  0  0
  -24.9870  -29.0510   20.0300 C   0  0  0  0  0  0  0  0  0  0  0  0
  -26.0090  -30.9070   21.3630 C   0  0  0  0  0  2  0  0  0  0  0  0
  -26.1320  -29.5800   20.6400 C   0  0  0  0  0  0  0  0  0  0  0  0
  -27.3590  -28.8810   20.5750 C   0  0  0  0  0  3  0  0  0  0  0  0
  -26.2700  -27.1160   19.3000 C   0  0  0  0  0  3  0  0  0  0  0  0
  -25.0490  -27.8170   19.3580 C   0  0  0  0  0  3  0  0  0  0  0  0
  -23.7170  -29.8650   20.1370 C   0  0  0  0  0  2  0  0  0  0  0  0
  -24.7480  -31.0610   22.1250 N   0  0  0  0  0  0  0  0  0  0  0  0
  -23.5960  -31.9940   23.8410 O   0  0  0  0  0  0  0  0  0  0  0  0
  -22.8870  -29.3590   22.4570 C   0  0  0  0  0  0  0  0  0  0  0  0
  -21.5760  -29.1160   22.2960 N   0  0  0  0  0  0  0  0  0  0  0  0
  -23.5890  -28.7310   23.2550 O   0  0  0  0  0  0  0  0  0  0  0  0
  -21.0700  -29.6790   21.6260 H   0  0  0  0  0  0  0  0  0  0  0  0
  -18.2680  -27.7070   22.6420 C   0  0  0  0  0  0  0  0  0  0  0  0
  -20.7960  -28.1020   23.0050 C   0  0  0  0  0  3  0  0  0  0  0  0
  -21.0010  -26.7040   22.3780 C   0  0  0  0  0  2  0  0  0  0  0  0
  -19.9510  -26.3580   21.3180 C   0  0  0  0  0  2  0  0  0  0  0  0
  -18.5450  -26.3970   21.9230 C   0  0  0  0  0  2  0  0  0  0  0  0
  -19.3260  -28.5150   23.1370 C   0  0  0  0  0  0  0  0  0  0  0  0
  -19.0150  -29.7400   23.7650 C   0  0  0  0  0  3  0  0  0  0  0  0
  -17.6790  -30.1590   23.9070 C   0  0  0  0  0  3  0  0  0  0  0  0
  -16.6350  -29.3470   23.4310 C   0  0  0  0  0  3  0  0  0  0  0  0
  -16.9300  -28.1220   22.8050 C   0  0  0  0  0  3  0  0  0  0  0  0
  -25.9530  -32.4160   23.9250 C   0  0  0  0  0  3  0  0  0  0  0  0
  -25.6230  -33.7960   24.3030 N   0  0  0  0  0  0  0  0  0  0  0  0
  -25.9380  -34.8780   23.5780 C   0  0  0  0  0  0  0  0  0  0  0  0
  -26.6100  -34.8200   22.5440 O   0  0  0  0  0  0  0  0  0  0  0  0
  -25.0270  -33.9150   25.1090 H   0  0  0  0  0  0  0  0  0  0  0  0
  -24.1780  -36.6480   23.2850 C   0  0  0  0  0  1  0  0  0  0  0  0
  -25.4280  -36.2420   24.0810 C   0  0  0  0  0  3  0  0  0  0  0  0
  -27.5470  -37.1390   24.9370 C   0  0  0  0  0  1  0  0  0  0  0  0
  -26.4420  -37.3160   23.9990 N   0  0  0  0  0  0  0  0  0  0  0  0
  -26.0200  -38.2240   24.1730 H   0  0  0  0  0  0  0  0  0  0  0  0
  -26.4790  -31.6060   25.1730 C   0  0  1  0  0  0  0  0  0  0  0  0
  -25.3800  -31.2850   26.2130 C   0  0  0  0  0  1  0  0  0  0  0  0
  -27.1140  -30.2680   24.7260 C   0  0  0  0  0  1  0  0  0  0  0  0
  -27.5930  -32.4070   25.8870 C   0  0  0  0  0  1  0  0  0  0  0  0
  2  5  1  0
  3  1  1  0
  3  7  1  0
  4  3  2  0
  5 47  1  0
  5  1  2  0
  6  2  2  0
  6  4  1  0
  8  6  1  0
  9 17  1  0
 10 15  1  0
 11 12  1  0
 11 10  1  0
 13 12  1  0
 13 22  1  0
 13 14  1  0
 15  9  1  0
 15 14  1  0
 16  9  2  0
 17  4  1  0
 17 18  1  0
 19 20  2  0
 20 39  1  0
 21 20  1  0
 21 24  1  0
 22 23  1  0
 22 19  1  0
 23 21  2  0
 24 25  1  0
 25 26  2  0
 27 30  1  0
 27 26  1  0
 28 27  2  0
 29 28  1  0
 29 24  2  0
 30 31  1  0
 31 36  2  0
 31 32  1  0
 32 33  2  0
 33 34  1  0
 34 38  1  0
 35 34  2  0
 36 35  1  0
 37 36  1  0
 39 40  1  0
 40 43  1  0
 40 42  1  0
 41 39  2  0
 44 19  1  0
 44 45  1  0
 46 44  1  0
 48 49  1  0
 48 47  1  0
 50 51  1  0
 50 49  1  0
 52 54  1  0
 52 51  1  0
 53 64  2  0
 54 59  1  0
 55 63  1  0
 55 65  1  0
 56 62  1  0
 56 58  1  0
 57 63  1  0
 58 57  1  0
 59 58  2  0
 60 61  1  0
 60 54  2  0
 61 56  2  0
 62 55  1  0
 63 53  1  0
 65 67  2  0
 66 65  1  0
 68 66  1  0
 69 78  2  0
 69 74  1  0
 70 66  1  0
 70 74  1  0
 71 70  1  0
 72 73  1  0
 72 71  1  0
 73 69  1  0
 74 75  2  0
 75 76  1  0
 77 76  2  0
 78 77  1  0
 79 53  1  0
 79 80  1  0
 79 89  1  0
 80 83  1  0
 81 85  1  0
 81 80  1  0
 82 81  2  0
 85 84  1  0
 87 85  1  0
 87 88  1  0
 87 86  1  0
 89 92  1  1
 89 90  1  0
 91 89  1  0
M  ISO  4   9 100  17 100  51 101  52 101
M  END
>  <TORSDO>  (54) 
F 21

>  <SCORE>  (54) 
-11.531

>  <name>  (54) 
53

>  <ligand_id>  (54) 
53

>  <original_smiles>  (54) 
[H]c1c([H])c([H])c2c(c1[H])C([H])([H])C([H])([H])C([H])([H])C2([H])N([H])C(=O)C1([H])N(C(=O)C([H])(N([H])C(=O)C([H])(N([H])C([H])([H])[H])C([H])([H])[H])C(C([H])([H])[H])(C([H])([H])[H])C([H])([H])[H])C([H])([H])c2c([H])c(OC([H])([H])C([H])([H])C([H])([H])C([H])([H])Oc3c([H])c(F)c(N([H])C(=O)N4C([H])([H])C([H])([H])C([H])([H])C([H])(n5nc(-c6c([H])c([H])c(Oc7c([H])c([H])c(F)c([H])c7F)c([H])c6[H])c(C(=O)N([H])[H])c5N([H])[H])C4([H])[H])c(C([H])([H])[H])c3[H])c([H])c([H])c2C1([H])[H]

>  <smiles>  (54) 
[H]c1c([H])c([H])c2c(c1[H])C([H])([H])C([H])([H])C([H])([H])C2([H])N([H])C(=O)C1([H])N(C(=O)C([H])(N([H])C(=O)C([H])(N([H])C([H])([H])[H])C([H])([H])[H])C(C([H])([H])[H])(C([H])([H])[H])C([H])([H])[H])C([H])([H])c2c([H])c(OC([H])([H])C([H])([H])C([H])([H])C([H])([H])Oc3c([H])c(F)c(N([H])C(=O)N4C([H])([H])C([H])([H])C([H])([H])C([H])(n5nc(-c6c([H])c([H])c(Oc7c([H])c([H])c(F)c([H])c7F)c([H])c6[H])c(C(=O)N([H])[H])c5N([H])[H])C4([H])[H])c(C([H])([H])[H])c3[H])c([H])c([H])c2C1([H])[H]

$$$$
54:0:0
     RDKit          3D

110118  0  0  1  0  0  0  0  0999 V2000
  -31.5630  -23.5080   23.5960 C   0  0  0  0  0  2  0  0  0  0  0  0
  -30.2520  -25.6160   23.7250 C   0  0  0  0  0  0  0  0  0  0  0  0
  -30.6250  -24.4310   24.2160 N   0  0  0  0  0  0  0  0  0  0  0  0
  -30.6580  -26.0580   22.6480 O   0  0  0  0  0  0  0  0  0  0  0  0
  -30.2220  -24.1570   25.1010 H   0  0  0  0  0  0  0  0  0  0  0  0
  -29.2980  -26.4310   24.6020 C   0  0  0  0  0  2  0  0  0  0  0  0
  -27.8580  -26.4890   24.0570 C   0  0  0  0  0  2  0  0  0  0  0  0
  -27.0480  -25.2120   24.3790 C   0  0  0  0  0  2  0  0  0  0  0  0
  -25.8570  -24.9230   23.4410 C   0  0  0  0  0  2  0  0  0  0  0  0
  -26.2560  -24.0590   22.2290 C   0  0  0  0  0  2  0  0  0  0  0  0
  -27.8030  -24.3690   20.2800 C   0  0  0  0  0  0  0  0  0  0  0  0
  -27.2040  -24.7820   21.4000 N   0  0  0  0  0  0  0  0  0  0  0  0
  -27.7530  -23.2030   19.8830 O   0  0  0  0  0  0  0  0  0  0  0  0
  -27.3410  -25.7620   21.6130 H   0  0  0  0  0  0  0  0  0  0  0  0
  -28.5180  -25.4580   19.4500 C   0  0  0  0  0  2  0  0  0  0  0  0
  -28.4240  -26.7590   20.0620 O   0  0  0  0  0  0  0  0  0  0  0  0
  -24.6090  -31.8660   23.2150 C   0  0  0  0  0  0  0  0  0  0  0  0
  -27.2340  -27.4640   20.0470 C   0  0  0  0  0  0  0  0  0  0  0  0
  -23.3960  -30.4940   21.5550 C   0  0  0  0  0  3  0  0  0  0  0  0
  -24.8410  -28.9690   20.1170 C   0  0  0  0  0  0  0  0  0  0  0  0
  -25.9250  -30.8390   21.3660 C   0  0  0  0  0  2  0  0  0  0  0  0
  -26.0030  -29.4780   20.7070 C   0  0  0  0  0  0  0  0  0  0  0  0
  -27.1960  -28.7230   20.6870 C   0  0  0  0  0  3  0  0  0  0  0  0
  -26.0460  -26.9710   19.4570 C   0  0  0  0  0  3  0  0  0  0  0  0
  -24.8520  -27.7070   19.5100 C   0  0  0  0  0  3  0  0  0  0  0  0
  -23.6050  -29.8320   20.1680 C   0  0  0  0  0  2  0  0  0  0  0  0
  -24.6620  -31.0790   22.1040 N   0  0  0  0  0  0  0  0  0  0  0  0
  -23.5280  -32.1450   23.7530 O   0  0  0  0  0  0  0  0  0  0  0  0
  -22.7380  -29.4630   22.5000 C   0  0  0  0  0  0  0  0  0  0  0  0
  -21.4120  -29.2980   22.3770 N   0  0  0  0  0  0  0  0  0  0  0  0
  -23.4190  -28.8140   23.2990 O   0  0  0  0  0  0  0  0  0  0  0  0
  -20.9220  -29.8750   21.7080 H   0  0  0  0  0  0  0  0  0  0  0  0
  -18.0270  -28.1380   22.8500 C   0  0  0  0  0  0  0  0  0  0  0  0
  -20.5860  -28.3620   23.1350 C   0  0  0  0  0  3  0  0  0  0  0  0
  -20.6760  -26.9360   22.5430 C   0  0  0  0  0  2  0  0  0  0  0  0
  -19.5750  -26.6380   21.5210 C   0  0  0  0  0  2  0  0  0  0  0  0
  -18.1920  -26.7950   22.1600 C   0  0  0  0  0  2  0  0  0  0  0  0
  -19.1520  -28.8830   23.2920 C   0  0  0  0  0  0  0  0  0  0  0  0
  -18.9450  -30.1450   23.8900 C   0  0  0  0  0  3  0  0  0  0  0  0
  -17.6440  -30.6590   24.0580 C   0  0  0  0  0  3  0  0  0  0  0  0
  -16.5330  -29.9090   23.6340 C   0  0  0  0  0  3  0  0  0  0  0  0
  -16.7260  -28.6510   23.0340 C   0  0  0  0  0  3  0  0  0  0  0  0
  -25.9020  -32.4830   23.8410 C   0  0  0  0  0  3  0  0  0  0  0  0
  -25.5890  -33.8620   24.2350 N   0  0  0  0  0  0  0  0  0  0  0  0
  -25.9000  -34.9460   23.5110 C   0  0  0  0  0  0  0  0  0  0  0  0
  -26.5530  -34.8890   22.4660 O   0  0  0  0  0  0  0  0  0  0  0  0
  -25.0130  -33.9810   25.0560 H   0  0  0  0  0  0  0  0  0  0  0  0
  -24.1490  -36.7290   23.2640 C   0  0  0  0  0  1  0  0  0  0  0  0
  -25.4110  -36.3080   24.0340 C   0  0  0  0  0  3  0  0  0  0  0  0
  -27.5580  -37.1780   24.8450 C   0  0  0  0  0  1  0  0  0  0  0  0
  -26.4300  -37.3750   23.9400 N   0  0  0  0  0  0  0  0  0  0  0  0
  -26.0160  -38.2820   24.1410 H   0  0  0  0  0  0  0  0  0  0  0  0
  -26.4520  -31.6620   25.0720 C   0  0  1  0  0  0  0  0  0  0  0  0
  -25.3830  -31.3800   26.1530 C   0  0  0  0  0  1  0  0  0  0  0  0
  -27.0300  -30.3040   24.6080 C   0  0  0  0  0  1  0  0  0  0  0  0
  -27.6140  -32.4300   25.7490 C   0  0  0  0  0  1  0  0  0  0  0  0
  -31.4470  -22.1110   24.2310 C   0  0  0  0  0  2  0  0  0  0  0  0
  -30.1600  -21.4010   23.7750 C   0  0  0  0  0  2  0  0  0  0  0  0
  -29.9860  -19.9820   24.3420 C   0  0  0  0  0  2  0  0  0  0  0  0
  -28.9310  -19.1720   23.5700 C   0  0  0  0  0  2  0  0  0  0  0  0
  -29.3580  -18.6730   22.1710 C   0  0  0  0  0  2  0  0  0  0  0  0
  -29.9280  -17.3670   22.2050 O   0  0  0  0  0  0  0  0  0  0  0  0
  -33.6320  -17.9350   22.5230 C   0  0  0  0  0  3  0  0  0  0  0  0
  -32.2580  -18.2310   22.3850 C   0  0  0  0  0  3  0  0  0  0  0  0
  -33.1190  -15.5600   22.5200 C   0  0  0  0  0  3  0  0  0  0  0  0
  -34.0680  -16.5960   22.6280 C   0  0  0  0  0  0  0  0  0  0  0  0
  -31.7550  -15.8540   22.3060 C   0  0  0  0  0  0  0  0  0  0  0  0
  -31.2950  -17.1890   22.3130 C   0  0  0  0  0  0  0  0  0  0  0  0
  -30.8730  -14.2880   20.7150 C   0  0  0  0  0  0  0  0  0  0  0  0
  -30.3960  -12.2680   19.4120 C   0  0  0  0  0  2  0  0  0  0  0  0
  -29.4780  -12.5490   18.2120 C   0  0  0  0  0  2  0  0  0  0  0  0
  -28.0060  -12.4000   18.6250 C   0  0  0  0  0  2  0  0  0  0  0  0
  -27.6740  -13.2180   19.9000 C   0  0  0  0  0  3  0  0  0  0  0  0
  -28.7200  -12.9920   21.0230 C   0  0  0  0  0  2  0  0  0  0  0  0
  -30.0760  -13.2140   20.4910 N   0  0  0  0  0  0  0  0  0  0  0  0
  -31.7280  -14.6550   19.9030 O   0  0  0  0  0  0  0  0  0  0  0  0
  -30.8600  -14.8080   21.9530 N   0  0  0  0  0  0  0  0  0  0  0  0
  -30.1950  -14.4840   22.6360 H   0  0  0  0  0  0  0  0  0  0  0  0
  -25.2610  -13.8210   20.5670 C   0  0  0  0  0  0  0  0  0  0  0  0
  -24.1830  -13.0440   20.9100 C   0  0  0  0  0  0  0  0  0  0  0  0
  -24.6430  -11.6940   20.8720 C   0  0  0  0  0  0  0  0  0  0  0  0
  -26.3110  -12.9420   20.3530 N   0  0  0  0  0  0  0  0  0  0  0  0
  -25.9390  -11.6560   20.5850 N   0  0  0  0  0  0  0  0  0  0  0  0
  -23.9100  -10.4300   21.0380 C   0  0  0  0  0  0  0  0  0  0  0  0
  -24.3630   -9.4210   21.9160 C   0  0  0  0  0  3  0  0  0  0  0  0
  -23.6280   -8.2260   22.0760 C   0  0  0  0  0  3  0  0  0  0  0  0
  -22.4270   -8.0300   21.3560 C   0  0  0  0  0  0  0  0  0  0  0  0
  -21.9900   -9.0270   20.4660 C   0  0  0  0  0  3  0  0  0  0  0  0
  -22.7250  -10.2140   20.3030 C   0  0  0  0  0  3  0  0  0  0  0  0
  -21.6660   -6.8860   21.4240 O   0  0  0  0  0  0  0  0  0  0  0  0
  -21.6870   -6.0690   22.5280 C   0  0  0  0  0  0  0  0  0  0  0  0
  -21.4030   -6.5620   23.8200 C   0  0  0  0  0  3  0  0  0  0  0  0
  -21.3660   -5.6770   24.9160 C   0  0  0  0  0  3  0  0  0  0  0  0
  -21.6050   -4.3040   24.7230 C   0  0  0  0  0  0  0  0  0  0  0  0
  -21.8820   -3.8120   23.4360 C   0  0  0  0  0  3  0  0  0  0  0  0
  -21.9190   -4.6920   22.3400 C   0  0  0  0  0  0  0  0  0  0  0  0
  -22.1660   -4.2110   21.0990 F   0  0  0  0  0  0  0  0  0  0  0  0
  -21.5630   -3.4530   25.7740 F   0  0  0  0  0  0  0  0  0  0  0  0
  -22.7880  -13.5250   21.1700 C   0  0  0  0  0  0  0  0  0  0  0  0
  -22.0540  -12.8290   22.0330 N   0  0  0  0  0  0  0  0  0  0  0  0
  -22.3530  -14.5520   20.6520 O   0  0  0  0  0  0  0  0  0  0  0  0
  -22.4160  -11.9960   22.4720 H   0  0  0  0  0  0  0  0  0  0  0  0
  -21.1190  -13.1390   22.2560 H   0  0  0  0  0  0  0  0  0  0  0  0
  -25.4330  -15.1910   20.4040 N   0  0  0  0  0  0  0  0  0  0  0  0
  -24.6820  -15.8610   20.5140 H   0  0  0  0  0  0  0  0  0  0  0  0
  -26.3020  -15.6280   20.1230 H   0  0  0  0  0  0  0  0  0  0  0  0
  -35.5360  -16.2300   22.8070 C   0  0  1  0  0  0  0  0  0  0  0  0
  -36.3030  -17.2870   23.0840 F   0  0  0  0  0  0  0  0  0  0  0  0
  -35.6510  -15.3510   23.8040 F   0  0  0  0  0  0  0  0  0  0  0  0
  -35.9950  -15.6610   21.6930 F   0  0  0  0  0  0  0  0  0  0  0  0
  1  3  1  0
  1 57  1  0
  2  3  1  0
  2  6  1  0
  3  5  1  0
  4  2  2  0
  7  8  1  0
  7  6  1  0
  9  8  1  0
 10  9  1  0
 11 12  1  0
 12 14  1  0
 12 10  1  0
 13 11  2  0
 15 16  1  0
 15 11  1  0
 17 28  2  0
 18 16  1  0
 18 23  1  0
 19 27  1  0
 19 29  1  0
 20 26  1  0
 20 22  1  0
 21 27  1  0
 22 21  1  0
 23 22  2  0
 24 25  1  0
 24 18  2  0
 25 20  2  0
 26 19  1  0
 27 17  1  0
 29 31  2  0
 30 29  1  0
 32 30  1  0
 33 42  2  0
 33 38  1  0
 34 30  1  0
 34 38  1  0
 35 34  1  0
 36 37  1  0
 36 35  1  0
 37 33  1  0
 38 39  2  0
 39 40  1  0
 41 40  2  0
 42 41  1  0
 43 17  1  0
 43 44  1  0
 43 53  1  0
 44 47  1  0
 45 49  1  0
 45 44  1  0
 46 45  2  0
 49 48  1  0
 51 49  1  0
 51 52  1  0
 51 50  1  0
 53 56  1  1
 53 54  1  0
 55 53  1  0
 58 57  1  0
 58 59  1  0
 60 59  1  0
 61 62  1  0
 61 60  1  0
 62 68  1  0
 63 66  1  0
 64 63  2  0
 65 66  2  0
 66107  1  0
 67 68  2  0
 67 65  1  0
 68 64  1  0
 69 77  1  0
 70 75  1  0
 71 72  1  0
 71 70  1  0
 73 72  1  0
 73 82  1  0
 73 74  1  0
 75 69  1  0
 75 74  1  0
 76 69  2  0
 77 67  1  0
 77 78  1  0
 79 80  2  0
 80 99  1  0
 81 80  1  0
 81 84  1  0
 82 79  1  0
 82 83  1  0
 83 81  2  0
 84 85  1  0
 85 86  2  0
 87 90  1  0
 87 86  1  0
 88 87  2  0
 89 88  1  0
 89 84  2  0
 90 91  1  0
 91 92  1  0
 92 93  2  0
 94 93  1  0
 94 98  1  0
 95 94  2  0
 96 91  2  0
 96 95  1  0
 97 96  1  0
 99100  1  0
100103  1  0
100102  1  0
101 99  2  0
104105  1  0
104 79  1  0
106104  1  0
107108  1  1
107109  1  0
110107  1  0
M  ISO  4  15 101  16 101  69 100  77 100
M  END
>  <TORSDO>  (55) 
F 32

>  <SCORE>  (55) 
24.707

>  <name>  (55) 
54

>  <ligand_id>  (55) 
54

>  <original_smiles>  (55) 
[H]c1c([H])c([H])c2c(c1[H])C([H])([H])C([H])([H])C([H])([H])C2([H])N([H])C(=O)C1([H])N(C(=O)C([H])(N([H])C(=O)C([H])(N([H])C([H])([H])[H])C([H])([H])[H])C(C([H])([H])[H])(C([H])([H])[H])C([H])([H])[H])C([H])([H])c2c([H])c(OC([H])([H])C(=O)N([H])C([H])([H])C([H])([H])C([H])([H])C([H])([H])C([H])([H])C(=O)N([H])C([H])([H])C([H])([H])C([H])([H])C([H])([H])C([H])([H])C([H])([H])Oc3c([H])c([H])c(C(F)(F)F)c([H])c3N([H])C(=O)N3C([H])([H])C([H])([H])C([H])([H])C([H])(n4nc(-c5c([H])c([H])c(Oc6c([H])c([H])c(F)c([H])c6F)c([H])c5[H])c(C(=O)N([H])[H])c4N([H])[H])C3([H])[H])c([H])c([H])c2C1([H])[H]

>  <smiles>  (55) 
[H]c1c([H])c([H])c2c(c1[H])C([H])([H])C([H])([H])C([H])([H])C2([H])N([H])C(=O)C1([H])N(C(=O)C([H])(N([H])C(=O)C([H])(N([H])C([H])([H])[H])C([H])([H])[H])C(C([H])([H])[H])(C([H])([H])[H])C([H])([H])[H])C([H])([H])c2c([H])c(OC([H])([H])C(=O)N([H])C([H])([H])C([H])([H])C([H])([H])C([H])([H])C([H])([H])C(=O)N([H])C([H])([H])C([H])([H])C([H])([H])C([H])([H])C([H])([H])C([H])([H])Oc3c([H])c([H])c(C(F)(F)F)c([H])c3N([H])C(=O)N3C([H])([H])C([H])([H])C([H])([H])C([H])(n4nc(-c5c([H])c([H])c(Oc6c([H])c([H])c(F)c([H])c6F)c([H])c5[H])c(C(=O)N([H])[H])c4N([H])[H])C3([H])[H])c([H])c([H])c2C1([H])[H]

$$$$
55:0:0
     RDKit          3D

107116  0  0  1  0  0  0  0  0999 V2000
  -22.8910  -24.5860   21.3630 C   0  0  0  0  0  0  0  0  0  0  0  0
  -24.0340  -25.1540   20.9630 N   0  0  0  0  0  0  0  0  0  0  0  0
  -22.8400  -23.6500   22.1630 O   0  0  0  0  0  0  0  0  0  0  0  0
  -23.9530  -25.5560   20.0410 H   0  0  0  0  0  0  0  0  0  0  0  0
  -25.5330  -25.4820   22.9090 C   0  0  0  0  0  3  0  0  0  0  0  0
  -25.2070  -28.2630   22.6200 C   0  0  0  0  0  3  0  0  0  0  0  0
  -26.0950  -26.3600   23.8550 C   0  0  0  0  0  0  0  0  0  0  0  0
  -24.6640  -27.3920   21.6560 C   0  0  0  0  0  0  0  0  0  0  0  0
  -24.7710  -25.9930   21.8320 C   0  0  0  0  0  0  0  0  0  0  0  0
  -25.8950  -27.7510   23.7450 C   0  0  0  0  0  0  0  0  0  0  0  0
  -26.8920  -25.8070   25.0230 C   0  0  0  0  0  1  0  0  0  0  0  0
  -23.9290  -27.9770   20.4600 C   0  0  0  0  0  1  0  0  0  0  0  0
  -26.3910  -28.5190   24.7650 O   0  0  0  0  0  0  0  0  0  0  0  0
  -25.5160  -29.0900   25.7270 C   0  0  0  0  0  2  0  0  0  0  0  0
  -25.7040  -28.2580   27.0120 C   0  0  0  0  0  2  0  0  0  0  0  0
  -24.5890  -27.4210   27.3060 O   0  0  0  0  0  0  0  0  0  0  0  0
  -21.4220  -28.5800   33.5220 C   0  0  0  0  0  0  0  0  0  0  0  0
  -24.4090  -26.9280   28.5800 C   0  0  0  0  0  0  0  0  0  0  0  0
  -23.0950  -26.7580   33.5150 C   0  0  0  0  0  3  0  0  0  0  0  0
  -23.9260  -26.0330   31.2180 C   0  0  0  0  0  0  0  0  0  0  0  0
  -21.8250  -27.3750   31.3850 C   0  0  0  0  0  2  0  0  0  0  0  0
  -23.0380  -26.9230   30.6060 C   0  0  0  0  0  0  0  0  0  0  0  0
  -23.2790  -27.3770   29.2940 C   0  0  0  0  0  3  0  0  0  0  0  0
  -25.2790  -26.0010   29.2010 C   0  0  0  0  0  3  0  0  0  0  0  0
  -25.0550  -25.5710   30.5210 C   0  0  0  0  0  3  0  0  0  0  0  0
  -23.5930  -25.5900   32.6220 C   0  0  0  0  0  2  0  0  0  0  0  0
  -22.0970  -27.6300   32.8160 N   0  0  0  0  0  0  0  0  0  0  0  0
  -21.5870  -28.7100   34.7430 O   0  0  0  0  0  0  0  0  0  0  0  0
  -24.3240  -27.5360   34.0370 C   0  0  0  0  0  0  0  0  0  0  0  0
  -24.1610  -28.1960   35.1980 N   0  0  0  0  0  0  0  0  0  0  0  0
  -25.3940  -27.5170   33.4260 O   0  0  0  0  0  0  0  0  0  0  0  0
  -23.2500  -28.1740   35.6360 H   0  0  0  0  0  0  0  0  0  0  0  0
  -24.6750  -30.8000   37.6460 C   0  0  0  0  0  0  0  0  0  0  0  0
  -25.1870  -28.9640   35.9000 C   0  0  0  0  0  3  0  0  0  0  0  0
  -25.7810  -28.1540   37.0730 C   0  0  0  0  0  2  0  0  0  0  0  0
  -25.0790  -28.4190   38.4090 C   0  0  0  0  0  2  0  0  0  0  0  0
  -25.1610  -29.9030   38.7730 C   0  0  0  0  0  2  0  0  0  0  0  0
  -24.6720  -30.3520   36.2990 C   0  0  0  0  0  0  0  0  0  0  0  0
  -24.1760  -31.2120   35.2950 C   0  0  0  0  0  3  0  0  0  0  0  0
  -23.6940  -32.4940   35.6160 C   0  0  0  0  0  3  0  0  0  0  0  0
  -23.7140  -32.9370   36.9500 C   0  0  0  0  0  3  0  0  0  0  0  0
  -24.2080  -32.0930   37.9620 C   0  0  0  0  0  3  0  0  0  0  0  0
  -20.3950  -29.5340   32.8350 C   0  0  0  0  0  3  0  0  0  0  0  0
  -19.3480  -29.8350   33.8170 N   0  0  0  0  0  0  0  0  0  0  0  0
  -18.3450  -29.0070   34.1410 C   0  0  0  0  0  0  0  0  0  0  0  0
  -18.1680  -27.9210   33.5810 O   0  0  0  0  0  0  0  0  0  0  0  0
  -19.4590  -30.6840   34.3520 H   0  0  0  0  0  0  0  0  0  0  0  0
  -18.0150  -29.1220   36.6310 C   0  0  0  0  0  1  0  0  0  0  0  0
  -17.3920  -29.4510   35.2660 C   0  0  0  0  0  3  0  0  0  0  0  0
  -15.2730  -29.3200   34.0320 C   0  0  0  0  0  1  0  0  0  0  0  0
  -16.0480  -28.8400   35.1720 N   0  0  0  0  0  0  0  0  0  0  0  0
  -15.5120  -29.0150   36.0180 H   0  0  0  0  0  0  0  0  0  0  0  0
  -21.0460  -30.8620   32.2840 C   0  0  1  0  0  0  0  0  0  0  0  0
  -21.5190  -31.8270   33.3970 C   0  0  0  0  0  1  0  0  0  0  0  0
  -22.2640  -30.5410   31.3860 C   0  0  0  0  0  1  0  0  0  0  0  0
  -20.0280  -31.6170   31.3970 C   0  0  0  0  0  1  0  0  0  0  0  0
  -21.6070  -25.1980   20.8000 C   0  0  0  0  0  2  0  0  0  0  0  0
  -20.9360  -24.2610   19.7640 C   0  0  0  0  0  2  0  0  0  0  0  0
  -21.4720  -22.8130   19.7790 C   0  0  0  0  0  2  0  0  0  0  0  0
  -22.8550  -22.7250   19.4420 O   0  0  0  0  0  0  0  0  0  0  0  0
  -25.0170  -24.6980   17.1460 C   0  0  0  0  0  3  0  0  0  0  0  0
  -23.4300  -26.1690   18.2570 C   0  0  0  0  0  3  0  0  0  0  0  0
  -24.4740  -23.5920   17.8250 C   0  0  0  0  0  3  0  0  0  0  0  0
  -22.8920  -25.0600   18.9420 C   0  0  0  0  0  3  0  0  0  0  0  0
  -24.4980  -25.9950   17.3490 C   0  0  0  0  0  0  0  0  0  0  0  0
  -23.4020  -23.7650   18.7290 C   0  0  0  0  0  0  0  0  0  0  0  0
  -25.7090  -26.9740   15.5020 C   0  0  0  0  0  0  0  0  0  0  0  0
  -27.7900  -26.4240   14.2820 C   0  0  0  0  0  2  0  0  0  0  0  0
  -27.8330  -24.9410   13.8740 C   0  0  0  0  0  2  0  0  0  0  0  0
  -28.4070  -24.0760   15.0130 C   0  0  0  0  0  2  0  0  0  0  0  0
  -27.7280  -24.3690   16.3760 C   0  0  0  0  0  3  0  0  0  0  0  0
  -27.6930  -25.8880   16.6430 C   0  0  0  0  0  2  0  0  0  0  0  0
  -26.9980  -26.5340   15.5170 N   0  0  0  0  0  0  0  0  0  0  0  0
  -25.1480  -27.3360   14.4620 O   0  0  0  0  0  0  0  0  0  0  0  0
  -25.1000  -27.1180   16.7060 N   0  0  0  0  0  0  0  0  0  0  0  0
  -28.1610  -23.7210   18.8280 C   0  0  0  0  0  0  0  0  0  0  0  0
  -28.9810  -22.7870   19.3990 C   0  0  0  0  0  0  0  0  0  0  0  0
  -29.6610  -22.1500   18.3170 C   0  0  0  0  0  0  0  0  0  0  0  0
  -28.3800  -23.6420   17.4620 N   0  0  0  0  0  0  0  0  0  0  0  0
  -29.3260  -22.7150   17.1630 N   0  0  0  0  0  0  0  0  0  0  0  0
  -30.5670  -20.9950   18.3070 C   0  0  0  0  0  0  0  0  0  0  0  0
  -30.5100  -20.0230   17.2830 C   0  0  0  0  0  3  0  0  0  0  0  0
  -31.4010  -18.9280   17.2870 C   0  0  0  0  0  3  0  0  0  0  0  0
  -32.3620  -18.7970   18.3180 C   0  0  0  0  0  0  0  0  0  0  0  0
  -32.4000  -19.7560   19.3460 C   0  0  0  0  0  3  0  0  0  0  0  0
  -31.5090  -20.8440   19.3430 C   0  0  0  0  0  3  0  0  0  0  0  0
  -33.2510  -17.7560   18.4170 O   0  0  0  0  0  0  0  0  0  0  0  0
  -32.8280  -16.4670   18.6210 C   0  0  0  0  0  0  0  0  0  0  0  0
  -31.8010  -15.8890   17.8430 C   0  0  0  0  0  3  0  0  0  0  0  0
  -31.4430  -14.5420   18.0420 C   0  0  0  0  0  3  0  0  0  0  0  0
  -32.1160  -13.7670   19.0070 C   0  0  0  0  0  0  0  0  0  0  0  0
  -33.1450  -14.3390   19.7760 C   0  0  0  0  0  3  0  0  0  0  0  0
  -33.5000  -15.6850   19.5810 C   0  0  0  0  0  0  0  0  0  0  0  0
  -34.5070  -16.2260   20.3100 F   0  0  0  0  0  0  0  0  0  0  0  0
  -31.7780  -12.4700   19.1880 F   0  0  0  0  0  0  0  0  0  0  0  0
  -29.0620  -22.4380   20.8580 C   0  0  0  0  0  0  0  0  0  0  0  0
  -30.1910  -21.8880   21.2920 N   0  0  0  0  0  0  0  0  0  0  0  0
  -28.1410  -22.7040   21.6300 O   0  0  0  0  0  0  0  0  0  0  0  0
  -30.9490  -21.6850   20.6570 H   0  0  0  0  0  0  0  0  0  0  0  0
  -30.2990  -21.6690   22.2710 H   0  0  0  0  0  0  0  0  0  0  0  0
  -27.2370  -24.6110   19.3490 N   0  0  0  0  0  0  0  0  0  0  0  0
  -27.0350  -24.6570   20.3410 H   0  0  0  0  0  0  0  0  0  0  0  0
  -26.7230  -25.2870   18.7990 H   0  0  0  0  0  0  0  0  0  0  0  0
  -24.4880  -28.4280   16.9830 C   0  0  0  0  0  2  0  0  0  0  0  0
  -23.9440  -28.5470   18.4180 C   0  0  0  0  0  2  0  0  0  0  0  0
  -22.0060  -29.4520   19.7940 C   0  0  0  0  0  1  0  0  0  0  0  0
  -22.8920  -29.6550   18.5610 C   0  0  0  0  0  2  0  0  0  0  0  0
  1  3  2  0
  2  1  1  0
  2  9  1  0
  4  2  1  0
  5  7  1  0
  6 10  1  0
  7 11  1  0
  8  9  1  0
  8  6  2  0
  9  5  2  0
 10  7  2  0
 10 13  1  0
 12  8  1  0
 13 14  1  0
 14 15  1  0
 15 16  1  0
 16 18  1  0
 17 28  2  0
 18 24  2  0
 18 23  1  0
 19 29  1  0
 20 26  1  0
 21 27  1  0
 22 20  1  0
 22 21  1  0
 23 22  2  0
 24 25  1  0
 25 20  2  0
 26 19  1  0
 27 19  1  0
 27 17  1  0
 29 30  1  0
 30 32  1  0
 31 29  2  0
 33 42  1  0
 33 37  1  0
 34 30  1  0
 34 38  1  0
 34 35  1  0
 35 36  1  0
 36 37  1  0
 38 33  2  0
 39 40  2  0
 39 38  1  0
 40 41  1  0
 41 42  2  0
 43 17  1  0
 43 44  1  0
 44 45  1  0
 44 47  1  0
 45 49  1  0
 46 45  2  0
 49 48  1  0
 50 51  1  0
 51 49  1  0
 51 52  1  0
 53 43  1  0
 53 54  1  1
 55 53  1  0
 56 53  1  0
 57  1  1  0
 58 59  1  0
 58 57  1  0
 60 59  1  0
 61 65  2  0
 61 63  1  0
 62 64  2  0
 63 66  2  0
 65 62  1  0
 66 64  1  0
 66 60  1  0
 67 73  1  0
 67 75  1  0
 68 73  1  0
 69 68  1  0
 69 70  1  0
 71 70  1  0
 71 72  1  0
 71 79  1  0
 73 72  1  0
 74 67  2  0
 75104  1  0
 75 65  1  0
 76101  1  0
 76 77  2  0
 77 96  1  0
 78 77  1  0
 79 76  1  0
 80 79  1  0
 80 78  2  0
 81 78  1  0
 81 86  1  0
 82 83  1  0
 82 81  2  0
 83 84  2  0
 84 87  1  0
 84 85  1  0
 86 85  2  0
 87 88  1  0
 88 93  1  0
 89 90  1  0
 89 88  2  0
 90 91  2  0
 91 95  1  0
 91 92  1  0
 93 92  2  0
 93 94  1  0
 96 97  1  0
 96 98  2  0
 97100  1  0
 99 97  1  0
101102  1  0
103101  1  0
104105  1  0
105107  1  0
107106  1  0
M  ISO  4  15 101  16 101  67 100  75 100
M  END
>  <TORSDO>  (56) 
F 28

>  <SCORE>  (56) 
2.976

>  <name>  (56) 
55

>  <ligand_id>  (56) 
55

>  <original_smiles>  (56) 
[H]c1c([H])c([H])c2c(c1[H])C([H])([H])C([H])([H])C([H])([H])C2([H])N([H])C(=O)C1([H])N(C(=O)C([H])(N([H])C(=O)C([H])(N([H])C([H])([H])[H])C([H])([H])[H])C(C([H])([H])[H])(C([H])([H])[H])C([H])([H])[H])C([H])([H])c2c([H])c(OC([H])([H])C([H])([H])Oc3c([H])c(C([H])([H])[H])c(N([H])C(=O)C([H])([H])C([H])([H])C([H])([H])Oc4c([H])c([H])c(N(C(=O)N5C([H])([H])C([H])([H])C([H])([H])C([H])(n6nc(-c7c([H])c([H])c(Oc8c([H])c([H])c(F)c([H])c8F)c([H])c7[H])c(C(=O)N([H])[H])c6N([H])[H])C5([H])[H])C([H])([H])C([H])([H])C([H])([H])C([H])([H])[H])c([H])c4[H])c([H])c3C([H])([H])[H])c([H])c([H])c2C1([H])[H]

>  <smiles>  (56) 
[H]c1c([H])c([H])c2c(c1[H])C([H])([H])C([H])([H])C([H])([H])C2([H])N([H])C(=O)C1([H])N(C(=O)C([H])(N([H])C(=O)C([H])(N([H])C([H])([H])[H])C([H])([H])[H])C(C([H])([H])[H])(C([H])([H])[H])C([H])([H])[H])C([H])([H])c2c([H])c(OC([H])([H])C([H])([H])Oc3c([H])c(C([H])([H])[H])c(N([H])C(=O)C([H])([H])C([H])([H])C([H])([H])Oc4c([H])c([H])c(N(C(=O)N5C([H])([H])C([H])([H])C([H])([H])C([H])(n6nc(-c7c([H])c([H])c(Oc8c([H])c([H])c(F)c([H])c8F)c([H])c7[H])c(C(=O)N([H])[H])c6N([H])[H])C5([H])[H])C([H])([H])C([H])([H])C([H])([H])C([H])([H])[H])c([H])c4[H])c([H])c3C([H])([H])[H])c([H])c([H])c2C1([H])[H]

$$$$
56:0:0
     RDKit          3D

114122  0  0  1  0  0  0  0  0999 V2000
  -27.2200  -21.6950   23.3780 C   0  0  0  0  0  2  0  0  0  0  0  0
  -28.6220  -22.3000   23.1930 C   0  0  0  0  0  2  0  0  0  0  0  0
  -29.6230  -21.3310   22.5510 C   0  0  0  0  0  2  0  0  0  0  0  0
  -31.0480  -21.9170   22.5370 C   0  0  0  0  0  2  0  0  0  0  0  0
  -31.6490  -22.0930   21.1290 C   0  0  0  0  0  2  0  0  0  0  0  0
  -31.3230  -23.4400   20.4550 C   0  0  0  0  0  2  0  0  0  0  0  0
  -31.8800  -24.6620   21.2060 C   0  0  0  0  0  2  0  0  0  0  0  0
  -31.8470  -25.9450   20.3740 C   0  0  0  0  0  2  0  0  0  0  0  0
  -32.7790  -27.0270   20.9520 C   0  0  0  0  0  2  0  0  0  0  0  0
  -32.5270  -29.2770   19.8640 C   0  0  0  0  0  0  0  0  0  0  0  0
  -34.0520  -27.5920   18.9260 C   0  0  0  0  0  1  0  0  0  0  0  0
  -33.1130  -28.0550   19.9530 N   0  0  0  0  0  0  0  0  0  0  0  0
  -32.5640  -29.9530   18.8300 O   0  0  0  0  0  0  0  0  0  0  0  0
  -32.6010  -30.3440   22.1690 C   0  0  0  0  0  3  0  0  0  0  0  0
  -30.4480  -30.0930   21.0570 C   0  0  0  0  0  3  0  0  0  0  0  0
  -31.9790  -31.0530   23.2130 C   0  0  0  0  0  3  0  0  0  0  0  0
  -29.8200  -30.8090   22.0990 C   0  0  0  0  0  3  0  0  0  0  0  0
  -31.8450  -29.8680   21.0730 C   0  0  0  0  0  0  0  0  0  0  0  0
  -30.5940  -31.3260   23.1610 C   0  0  0  0  0  0  0  0  0  0  0  0
  -30.2110  -33.5600   23.8680 C   0  0  0  0  0  0  0  0  0  0  0  0
  -30.0440  -35.9680   24.3820 C   0  0  0  0  0  2  0  0  0  0  0  0
  -31.0710  -36.3550   25.4660 C   0  0  0  0  0  2  0  0  0  0  0  0
  -30.4780  -36.1650   26.8750 C   0  0  0  0  0  2  0  0  0  0  0  0
  -29.7840  -34.7880   27.0400 C   0  0  0  0  0  3  0  0  0  0  0  0
  -28.8390  -34.5110   25.8450 C   0  0  0  0  0  2  0  0  0  0  0  0
  -29.6360  -34.5630   24.6110 N   0  0  0  0  0  0  0  0  0  0  0  0
  -30.9230  -33.8730   22.9060 O   0  0  0  0  0  0  0  0  0  0  0  0
  -30.0170  -32.2200   24.1150 N   0  0  0  0  0  0  0  0  0  0  0  0
  -29.1790  -33.7030   29.2950 C   0  0  0  0  0  0  0  0  0  0  0  0
  -28.3790  -34.1270   30.3250 C   0  0  0  0  0  0  0  0  0  0  0  0
  -27.8430  -35.3850   29.9170 C   0  0  0  0  0  0  0  0  0  0  0  0
  -29.0900  -34.6860   28.3200 N   0  0  0  0  0  0  0  0  0  0  0  0
  -28.2400  -35.6790   28.6860 N   0  0  0  0  0  0  0  0  0  0  0  0
  -27.0200  -36.3570   30.6490 C   0  0  0  0  0  0  0  0  0  0  0  0
  -25.6490  -36.5310   30.3560 C   0  0  0  0  0  3  0  0  0  0  0  0
  -24.8720  -37.4590   31.0840 C   0  0  0  0  0  3  0  0  0  0  0  0
  -25.4650  -38.2180   32.1220 C   0  0  0  0  0  0  0  0  0  0  0  0
  -26.8350  -38.0580   32.3950 C   0  0  0  0  0  3  0  0  0  0  0  0
  -27.6080  -37.1390   31.6640 C   0  0  0  0  0  3  0  0  0  0  0  0
  -24.7950  -39.1610   32.8650 O   0  0  0  0  0  0  0  0  0  0  0  0
  -23.5470  -38.9180   33.3780 C   0  0  0  0  0  0  0  0  0  0  0  0
  -23.3240  -37.9230   34.3560 C   0  0  0  0  0  3  0  0  0  0  0  0
  -22.0390  -37.7550   34.9070 C   0  0  0  0  0  3  0  0  0  0  0  0
  -20.9790  -38.5820   34.4890 C   0  0  0  0  0  0  0  0  0  0  0  0
  -21.2020  -39.5780   33.5200 C   0  0  0  0  0  3  0  0  0  0  0  0
  -22.4830  -39.7470   32.9690 C   0  0  0  0  0  0  0  0  0  0  0  0
  -22.6960  -40.7200   32.0510 F   0  0  0  0  0  0  0  0  0  0  0  0
  -19.7450  -38.4260   35.0230 F   0  0  0  0  0  0  0  0  0  0  0  0
  -28.2000  -33.4480   31.6520 C   0  0  0  0  0  0  0  0  0  0  0  0
  -27.0130  -33.5650   32.2390 N   0  0  0  0  0  0  0  0  0  0  0  0
  -29.0950  -32.7720   32.1540 O   0  0  0  0  0  0  0  0  0  0  0  0
  -26.2730  -34.1060   31.8190 H   0  0  0  0  0  0  0  0  0  0  0  0
  -26.8450  -33.1070   33.1240 H   0  0  0  0  0  0  0  0  0  0  0  0
  -29.9810  -32.5840   29.1150 N   0  0  0  0  0  0  0  0  0  0  0  0
  -30.1040  -31.8870   29.8420 H   0  0  0  0  0  0  0  0  0  0  0  0
  -30.5720  -32.4270   28.3090 H   0  0  0  0  0  0  0  0  0  0  0  0
  -28.4460  -30.5530   25.1100 C   0  0  0  0  0  1  0  0  0  0  0  0
  -29.5970  -31.5450   25.3540 C   0  0  0  0  0  2  0  0  0  0  0  0
  -26.1410  -22.5730   22.7150 C   0  0  0  0  0  2  0  0  0  0  0  0
  -24.8680  -22.7800   23.5620 C   0  0  0  0  0  0  0  0  0  0  0  0
  -22.9780  -24.1860   24.2670 C   0  0  0  0  0  1  0  0  0  0  0  0
  -24.1560  -23.9310   23.4360 N   0  0  0  0  0  0  0  0  0  0  0  0
  -24.5310  -21.8880   24.3460 O   0  0  0  0  0  0  0  0  0  0  0  0
  -24.5090  -25.0150   22.5060 C   0  0  0  0  0  2  0  0  0  0  0  0
  -25.3060  -26.1180   23.2370 C   0  0  0  0  0  2  0  0  0  0  0  0
  -25.6490  -27.3390   22.3640 C   0  0  0  0  0  2  0  0  0  0  0  0
  -27.0420  -27.8980   22.7080 C   0  0  0  0  0  2  0  0  0  0  0  0
  -27.0240  -29.3230   23.2770 C   0  0  0  0  0  2  0  0  0  0  0  0
  -26.1110  -31.1300   21.8060 C   0  0  0  0  0  0  0  0  0  0  0  0
  -25.9620  -30.1490   22.7080 N   0  0  0  0  0  0  0  0  0  0  0  0
  -27.0870  -31.2170   21.0570 O   0  0  0  0  0  0  0  0  0  0  0  0
  -25.0970  -30.1700   23.2290 H   0  0  0  0  0  0  0  0  0  0  0  0
  -25.0470  -32.2510   21.8620 C   0  0  0  0  0  2  0  0  0  0  0  0
  -25.4770  -33.3390   22.6970 O   0  0  0  0  0  0  0  0  0  0  0  0
  -29.1390  -30.3290   27.9470 C   0  0  0  0  0  0  0  0  0  0  0  0
  -25.5210  -33.1270   24.0580 C   0  0  0  0  0  0  0  0  0  0  0  0
  -26.8310  -31.0190   28.5150 C   0  0  0  0  0  3  0  0  0  0  0  0
  -25.6680  -32.5170   26.8100 C   0  0  0  0  0  0  0  0  0  0  0  0
  -28.1540  -32.2380   26.6950 C   0  0  0  0  0  2  0  0  0  0  0  0
  -26.8310  -32.5430   26.0300 C   0  0  0  0  0  0  0  0  0  0  0  0
  -26.7640  -32.8440   24.6550 C   0  0  0  0  0  3  0  0  0  0  0  0
  -24.3590  -33.1530   24.8660 C   0  0  0  0  0  3  0  0  0  0  0  0
  -24.4230  -32.8230   26.2320 C   0  0  0  0  0  3  0  0  0  0  0  0
  -25.8270  -32.1790   28.2710 C   0  0  0  0  0  2  0  0  0  0  0  0
  -28.0830  -31.1560   27.7020 N   0  0  0  0  0  0  0  0  0  0  0  0
  -29.0980  -29.4990   28.8640 O   0  0  0  0  0  0  0  0  0  0  0  0
  -26.0980  -29.6790   28.2880 C   0  0  0  0  0  0  0  0  0  0  0  0
  -25.4070  -29.1940   29.3300 N   0  0  0  0  0  0  0  0  0  0  0  0
  -26.1340  -29.1150   27.1910 O   0  0  0  0  0  0  0  0  0  0  0  0
  -25.4360  -29.7100   30.1980 H   0  0  0  0  0  0  0  0  0  0  0  0
  -23.9260  -26.6880   31.4720 C   0  0  0  0  0  0  0  0  0  0  0  0
  -24.6020  -27.9730   29.3360 C   0  0  0  0  0  3  0  0  0  0  0  0
  -23.1000  -28.2970   29.1750 C   0  0  0  0  0  2  0  0  0  0  0  0
  -22.3630  -28.4290   30.5100 C   0  0  0  0  0  2  0  0  0  0  0  0
  -22.4820  -27.1390   31.3240 C   0  0  0  0  0  2  0  0  0  0  0  0
  -24.9230  -27.0920   30.5460 C   0  0  0  0  0  0  0  0  0  0  0  0
  -26.2570  -26.6760   30.7480 C   0  0  0  0  0  3  0  0  0  0  0  0
  -26.5970  -25.8640   31.8470 C   0  0  0  0  0  3  0  0  0  0  0  0
  -25.6050  -25.4550   32.7530 C   0  0  0  0  0  3  0  0  0  0  0  0
  -24.2720  -25.8650   32.5650 C   0  0  0  0  0  3  0  0  0  0  0  0
  -30.4550  -30.4030   27.1070 C   0  0  0  0  0  3  0  0  0  0  0  0
  -31.0470  -28.9880   26.7390 C   0  0  1  0  0  0  0  0  0  0  0  0
  -31.7190  -28.2650   27.9290 C   0  0  0  0  0  1  0  0  0  0  0  0
  -29.9370  -28.0610   26.1880 C   0  0  0  0  0  1  0  0  0  0  0  0
  -32.1010  -29.1420   25.6170 C   0  0  0  0  0  1  0  0  0  0  0  0
  -31.4280  -31.1880   27.8800 N   0  0  0  0  0  0  0  0  0  0  0  0
  -32.0550  -32.2830   27.4300 C   0  0  0  0  0  0  0  0  0  0  0  0
  -31.9290  -32.7000   26.2760 O   0  0  0  0  0  0  0  0  0  0  0  0
  -31.5520  -30.9330   28.8510 H   0  0  0  0  0  0  0  0  0  0  0  0
  -32.1620  -34.1170   29.1430 C   0  0  0  0  0  1  0  0  0  0  0  0
  -32.9710  -33.0320   28.4170 C   0  0  0  0  0  3  0  0  0  0  0  0
  -35.1650  -32.6470   27.3900 C   0  0  0  0  0  1  0  0  0  0  0  0
  -34.1600  -33.6350   27.7740 N   0  0  0  0  0  0  0  0  0  0  0  0
  -34.6010  -34.3100   28.3950 H   0  0  0  0  0  0  0  0  0  0  0  0
  2  1  1  0
  3  2  1  0
  4  3  1  0
  5  4  1  0
  6  5  1  0
  6  7  1  0
  8  9  1  0
  8  7  1  0
 10 12  1  0
 10 18  1  0
 11 12  1  0
 12  9  1  0
 13 10  2  0
 14 16  1  0
 15 18  1  0
 15 17  2  0
 17 19  1  0
 18 14  2  0
 19 16  2  0
 19 28  1  0
 20 28  1  0
 20 26  1  0
 21 26  1  0
 21 22  1  0
 22 23  1  0
 23 24  1  0
 24 25  1  0
 24 32  1  0
 26 25  1  0
 27 20  2  0
 28 58  1  0
 29 30  2  0
 30 49  1  0
 31 30  1  0
 31 34  1  0
 32 33  1  0
 32 29  1  0
 33 31  2  0
 34 39  1  0
 35 34  2  0
 35 36  1  0
 36 37  2  0
 37 38  1  0
 37 40  1  0
 39 38  2  0
 40 41  1  0
 41 42  1  0
 42 43  2  0
 44 43  1  0
 44 48  1  0
 45 44  2  0
 46 41  2  0
 46 45  1  0
 47 46  1  0
 49 51  2  0
 49 50  1  0
 50 53  1  0
 52 50  1  0
 54 29  1  0
 54 55  1  0
 56 54  1  0
 57 58  1  0
 59  1  1  0
 59 60  1  0
 60 63  2  0
 62 60  1  0
 62 61  1  0
 64 65  1  0
 64 62  1  0
 66 67  1  0
 66 65  1  0
 67 68  1  0
 69 73  1  0
 69 70  1  0
 70 72  1  0
 70 68  1  0
 71 69  2  0
 73 74  1  0
 74 76  1  0
 75 86  2  0
 76 81  2  0
 76 82  1  0
 77 87  1  0
 78 84  1  0
 79 85  1  0
 80 79  1  0
 80 78  2  0
 81 80  1  0
 82 83  2  0
 83 78  1  0
 84 77  1  0
 85 75  1  0
 85 77  1  0
 87 88  1  0
 88 90  1  0
 89 87  2  0
 91100  1  0
 92 88  1  0
 92 96  1  0
 93 92  1  0
 93 94  1  0
 94 95  1  0
 95 91  1  0
 96 97  1  0
 96 91  2  0
 97 98  2  0
 98 99  1  0
100 99  2  0
101106  1  0
101 75  1  0
102101  1  0
102103  1  1
104102  1  0
105102  1  0
106109  1  0
107106  1  0
107111  1  0
108107  2  0
111110  1  0
112113  1  0
113114  1  0
113111  1  0
M  ISO  4  20 100  28 100  73 101  74 101
M  END
>  <TORSDO>  (57) 
F 36

>  <SCORE>  (57) 
20.135

>  <name>  (57) 
56

>  <ligand_id>  (57) 
56

>  <original_smiles>  (57) 
[H]c1c([H])c([H])c2c(c1[H])C([H])([H])C([H])([H])C([H])([H])C2([H])N([H])C(=O)C1([H])N(C(=O)C([H])(N([H])C(=O)C([H])(N([H])C([H])([H])[H])C([H])([H])[H])C(C([H])([H])[H])(C([H])([H])[H])C([H])([H])[H])C([H])([H])c2c([H])c(OC([H])([H])C(=O)N([H])C([H])([H])C([H])([H])C([H])([H])C([H])([H])C([H])([H])N(C(=O)C([H])([H])C([H])([H])C([H])([H])C([H])([H])C([H])([H])C([H])([H])C([H])([H])C([H])([H])C([H])([H])C([H])([H])N(C(=O)c3c([H])c([H])c(N(C(=O)N4C([H])([H])C([H])([H])C([H])([H])C([H])(n5nc(-c6c([H])c([H])c(Oc7c([H])c([H])c(F)c([H])c7F)c([H])c6[H])c(C(=O)N([H])[H])c5N([H])[H])C4([H])[H])C([H])([H])C([H])([H])[H])c([H])c3[H])C([H])([H])[H])C([H])([H])[H])c([H])c([H])c2C1([H])[H]

>  <smiles>  (57) 
[H]c1c([H])c([H])c2c(c1[H])C([H])([H])C([H])([H])C([H])([H])C2([H])N([H])C(=O)C1([H])N(C(=O)C([H])(N([H])C(=O)C([H])(N([H])C([H])([H])[H])C([H])([H])[H])C(C([H])([H])[H])(C([H])([H])[H])C([H])([H])[H])C([H])([H])c2c([H])c(OC([H])([H])C(=O)N([H])C([H])([H])C([H])([H])C([H])([H])C([H])([H])C([H])([H])N(C(=O)C([H])([H])C([H])([H])C([H])([H])C([H])([H])C([H])([H])C([H])([H])C([H])([H])C([H])([H])C([H])([H])C([H])([H])N(C(=O)c3c([H])c([H])c(N(C(=O)N4C([H])([H])C([H])([H])C([H])([H])C([H])(n5nc(-c6c([H])c([H])c(Oc7c([H])c([H])c(F)c([H])c7F)c([H])c6[H])c(C(=O)N([H])[H])c5N([H])[H])C4([H])[H])C([H])([H])C([H])([H])[H])c([H])c3[H])C([H])([H])[H])C([H])([H])[H])c([H])c([H])c2C1([H])[H]

$$$$
57:0:0
     RDKit          3D

109117  0  0  1  0  0  0  0  0999 V2000
  -23.7620  -24.5130   15.6180 C   0  0  0  0  0  0  0  0  0  0  0  0
  -24.8080  -24.2410   16.4690 N   0  0  0  0  0  0  0  0  0  0  0  0
  -23.8080  -25.5250   14.9090 O   0  0  0  0  0  0  0  0  0  0  0  0
  -24.9500  -23.0550   17.3420 C   0  0  0  0  0  2  0  0  0  0  0  0
  -24.4130  -23.2840   18.7780 C   0  0  0  0  0  2  0  0  0  0  0  0
  -24.9620  -22.2370   19.7670 C   0  0  0  0  0  2  0  0  0  0  0  0
  -26.3120  -22.6350   20.3960 C   0  0  0  0  0  2  0  0  0  0  0  0
  -28.6320  -21.7210   20.2090 C   0  0  0  0  0  0  0  0  0  0  0  0
  -27.4310  -22.0130   19.6980 N   0  0  0  0  0  0  0  0  0  0  0  0
  -28.8550  -21.6430   21.4180 O   0  0  0  0  0  0  0  0  0  0  0  0
  -27.3750  -21.9770   18.6910 H   0  0  0  0  0  0  0  0  0  0  0  0
  -31.0210  -21.1220   19.5970 C   0  0  0  0  0  3  0  0  0  0  0  0
  -32.0850  -21.1190   18.6700 C   0  0  0  0  0  3  0  0  0  0  0  0
  -29.5320  -21.9260   17.8510 C   0  0  0  0  0  3  0  0  0  0  0  0
  -29.7330  -21.5460   19.1980 C   0  0  0  0  0  0  0  0  0  0  0  0
  -30.5930  -21.9410   16.9210 C   0  0  0  0  0  0  0  0  0  0  0  0
  -31.8880  -21.5230   17.3330 C   0  0  0  0  0  0  0  0  0  0  0  0
  -30.2790  -22.4930   15.5410 C   0  0  0  0  0  1  0  0  0  0  0  0
  -33.3520  -20.9750   15.4100 C   0  0  0  0  0  0  0  0  0  0  0  0
  -33.9090  -18.8470   14.3060 C   0  0  0  0  0  2  0  0  0  0  0  0
  -32.6480  -18.0340   13.9560 C   0  0  0  0  0  2  0  0  0  0  0  0
  -32.2470  -17.1460   15.1470 C   0  0  0  0  0  2  0  0  0  0  0  0
  -32.1730  -17.9340   16.4800 C   0  0  0  0  0  3  0  0  0  0  0  0
  -33.4460  -18.7850   16.6860 C   0  0  0  0  0  2  0  0  0  0  0  0
  -33.6190  -19.6440   15.5070 N   0  0  0  0  0  0  0  0  0  0  0  0
  -33.4190  -21.5930   14.3450 O   0  0  0  0  0  0  0  0  0  0  0  0
  -33.0460  -21.6580   16.5230 N   0  0  0  0  0  0  0  0  0  0  0  0
  -33.2640  -22.6330   16.3770 H   0  0  0  0  0  0  0  0  0  0  0  0
  -30.9480  -17.1000   18.5840 C   0  0  0  0  0  0  0  0  0  0  0  0
  -31.1170  -15.9870   19.3600 C   0  0  0  0  0  0  0  0  0  0  0  0
  -32.2220  -15.2770   18.7970 C   0  0  0  0  0  0  0  0  0  0  0  0
  -31.9310  -17.0410   17.6090 N   0  0  0  0  0  0  0  0  0  0  0  0
  -32.7320  -15.9580   17.7770 N   0  0  0  0  0  0  0  0  0  0  0  0
  -32.7820  -13.9620   19.1310 C   0  0  0  0  0  0  0  0  0  0  0  0
  -34.1490  -13.8040   19.4560 C   0  0  0  0  0  3  0  0  0  0  0  0
  -34.6620  -12.5340   19.7940 C   0  0  0  0  0  3  0  0  0  0  0  0
  -33.8070  -11.4050   19.8110 C   0  0  0  0  0  0  0  0  0  0  0  0
  -32.4550  -11.5630   19.4630 C   0  0  0  0  0  3  0  0  0  0  0  0
  -31.9470  -12.8270   19.1220 C   0  0  0  0  0  3  0  0  0  0  0  0
  -34.2240  -10.1280   20.0970 O   0  0  0  0  0  0  0  0  0  0  0  0
  -35.3130   -9.8900   20.8960 C   0  0  0  0  0  0  0  0  0  0  0  0
  -35.3580  -10.3200   22.2410 C   0  0  0  0  0  3  0  0  0  0  0  0
  -36.4690   -9.9940   23.0470 C   0  0  0  0  0  3  0  0  0  0  0  0
  -37.5260   -9.2310   22.5150 C   0  0  0  0  0  0  0  0  0  0  0  0
  -37.4780   -8.7970   21.1790 C   0  0  0  0  0  3  0  0  0  0  0  0
  -36.3730   -9.1230   20.3740 C   0  0  0  0  0  0  0  0  0  0  0  0
  -36.3200   -8.6860   19.0920 F   0  0  0  0  0  0  0  0  0  0  0  0
  -38.5880   -8.9100   23.2890 F   0  0  0  0  0  0  0  0  0  0  0  0
  -30.2450  -15.5560   20.5060 C   0  0  0  0  0  0  0  0  0  0  0  0
  -30.8320  -14.9450   21.5280 N   0  0  0  0  0  0  0  0  0  0  0  0
  -29.0400  -15.8040   20.5220 O   0  0  0  0  0  0  0  0  0  0  0  0
  -31.8260  -14.7710   21.5320 H   0  0  0  0  0  0  0  0  0  0  0  0
  -30.2800  -14.6480   22.3210 H   0  0  0  0  0  0  0  0  0  0  0  0
  -30.0300  -18.1430   18.6160 N   0  0  0  0  0  0  0  0  0  0  0  0
  -29.2950  -18.1780   19.3140 H   0  0  0  0  0  0  0  0  0  0  0  0
  -30.0440  -18.9440   18.0000 H   0  0  0  0  0  0  0  0  0  0  0  0
  -25.9220  -25.2360   16.4850 C   0  0  0  0  0  2  0  0  0  0  0  0
  -26.6500  -25.5240   17.8280 C   0  0  0  0  0  2  0  0  0  0  0  0
  -28.1950  -25.5460   17.7130 C   0  0  0  0  0  2  0  0  0  0  0  0
  -28.7900  -26.9780   17.8090 C   0  0  0  0  0  2  0  0  0  0  0  0
  -30.2230  -26.9950   17.9300 O   0  0  0  0  0  0  0  0  0  0  0  0
  -36.6630  -27.0210   14.8560 C   0  0  0  0  0  0  0  0  0  0  0  0
  -30.9710  -26.7230   16.7990 C   0  0  0  0  0  0  0  0  0  0  0  0
  -34.7520  -26.5460   13.3630 C   0  0  0  0  0  3  0  0  0  0  0  0
  -32.5320  -26.1010   14.5190 C   0  0  0  0  0  0  0  0  0  0  0  0
  -34.6340  -25.9590   15.8520 C   0  0  0  0  0  2  0  0  0  0  0  0
  -33.1390  -26.1960   15.7770 C   0  0  0  0  0  0  0  0  0  0  0  0
  -32.3620  -26.4980   16.9210 C   0  0  0  0  0  3  0  0  0  0  0  0
  -30.3940  -26.6550   15.5070 C   0  0  0  0  0  3  0  0  0  0  0  0
  -31.1590  -26.3370   14.3780 C   0  0  0  0  0  3  0  0  0  0  0  0
  -33.4200  -25.7540   13.3460 C   0  0  0  0  0  2  0  0  0  0  0  0
  -35.3900  -26.5520   14.7200 N   0  0  0  0  0  0  0  0  0  0  0  0
  -37.3150  -27.4100   13.8750 O   0  0  0  0  0  0  0  0  0  0  0  0
  -34.4990  -27.9620   12.7960 C   0  0  0  0  0  0  0  0  0  0  0  0
  -34.6360  -28.1120   11.4670 N   0  0  0  0  0  0  0  0  0  0  0  0
  -34.1600  -28.8890   13.5340 O   0  0  0  0  0  0  0  0  0  0  0  0
  -34.8540  -27.2930   10.9170 H   0  0  0  0  0  0  0  0  0  0  0  0
  -35.0410  -29.6450    8.2240 C   0  0  0  0  0  0  0  0  0  0  0  0
  -34.4460  -29.3560   10.7220 C   0  0  0  0  0  3  0  0  0  0  0  0
  -32.9700  -29.5170   10.2820 C   0  0  0  0  0  2  0  0  0  0  0  0
  -32.6970  -28.9680    8.8780 C   0  0  0  0  0  2  0  0  0  0  0  0
  -33.5710  -29.6870    7.8510 C   0  0  0  0  0  2  0  0  0  0  0  0
  -35.4530  -29.4880    9.5730 C   0  0  0  0  0  0  0  0  0  0  0  0
  -36.8340  -29.4630    9.8660 C   0  0  0  0  0  3  0  0  0  0  0  0
  -37.7900  -29.5830    8.8370 C   0  0  0  0  0  3  0  0  0  0  0  0
  -37.3740  -29.7440    7.5040 C   0  0  0  0  0  3  0  0  0  0  0  0
  -36.0020  -29.7830    7.2020 C   0  0  0  0  0  3  0  0  0  0  0  0
  -37.3710  -27.0700   16.2450 C   0  0  0  0  0  3  0  0  0  0  0  0
  -37.3320  -28.4980   16.9130 C   0  0  1  0  0  0  0  0  0  0  0  0
  -37.8800  -29.6230   16.0050 C   0  0  0  0  0  1  0  0  0  0  0  0
  -35.8820  -28.8680   17.3060 C   0  0  0  0  0  1  0  0  0  0  0  0
  -38.1570  -28.4970   18.2220 C   0  0  0  0  0  1  0  0  0  0  0  0
  -38.7580  -26.6260   16.0520 N   0  0  0  0  0  0  0  0  0  0  0  0
  -39.2010  -25.3840   16.2950 C   0  0  0  0  0  0  0  0  0  0  0  0
  -38.4870  -24.5010   16.7790 O   0  0  0  0  0  0  0  0  0  0  0  0
  -39.3910  -27.2800   15.6140 H   0  0  0  0  0  0  0  0  0  0  0  0
  -40.7260  -24.3140   14.6060 C   0  0  0  0  0  1  0  0  0  0  0  0
  -40.6670  -25.0730   15.9410 C   0  0  0  0  0  3  0  0  0  0  0  0
  -41.6320  -25.0650   18.1990 C   0  0  0  0  0  1  0  0  0  0  0  0
  -41.3710  -24.2980   16.9840 N   0  0  0  0  0  0  0  0  0  0  0  0
  -42.2570  -23.9460   16.6340 H   0  0  0  0  0  0  0  0  0  0  0  0
  -22.4680  -23.6410   15.4240 C   0  0  0  0  0  3  0  0  0  0  0  0
  -22.3620  -22.3870   16.1930 N   0  0  0  0  0  4  0  0  0  0  0  0
  -22.5260  -22.5600   17.1690 H   0  0  0  0  0  0  0  0  0  0  0  0
  -23.0380  -21.7210   15.8570 H   0  0  0  0  0  0  0  0  0  0  0  0
  -21.4440  -21.9920   16.0700 H   0  0  0  0  0  0  0  0  0  0  0  0
  -19.9590  -23.8240   16.2090 C   0  0  0  0  0  1  0  0  0  0  0  0
  -20.7270  -25.0260   14.1230 C   0  0  0  0  0  1  0  0  0  0  0  0
  -21.1590  -24.5080   15.5110 C   0  0  0  0  0  3  0  0  0  0  0  0
  1  2  1  0
  2 57  1  0
  2  4  1  0
  3  1  2  0
  4  5  1  0
  5  6  1  0
  6  7  1  0
  8 10  2  0
  9  8  1  0
  9  7  1  0
 11  9  1  0
 13 12  2  0
 14 15  2  0
 15 12  1  0
 15  8  1  0
 16 17  2  0
 16 14  1  0
 17 13  1  0
 18 16  1  0
 19 25  1  0
 19 27  1  0
 20 25  1  0
 21 20  1  0
 21 22  1  0
 23 22  1  0
 23 24  1  0
 23 32  1  0
 25 24  1  0
 26 19  2  0
 27 17  1  0
 28 27  1  0
 29 54  1  0
 29 30  2  0
 30 49  1  0
 31 34  1  0
 31 30  1  0
 32 33  1  0
 32 29  1  0
 33 31  2  0
 34 35  1  0
 35 36  2  0
 36 37  1  0
 37 40  1  0
 38 37  2  0
 39 34  2  0
 39 38  1  0
 40 41  1  0
 41 42  1  0
 42 43  2  0
 44 43  1  0
 44 48  1  0
 45 44  2  0
 46 41  2  0
 46 45  1  0
 47 46  1  0
 49 51  2  0
 49 50  1  0
 50 52  1  0
 50 53  1  0
 54 55  1  0
 56 54  1  0
 57 58  1  0
 59 60  1  0
 59 58  1  0
 60 61  1  0
 63 68  1  0
 63 61  1  0
 64 74  1  0
 64 72  1  0
 65 67  1  0
 67 66  1  0
 67 68  2  0
 69 63  2  0
 70 65  2  0
 70 69  1  0
 71 64  1  0
 71 65  1  0
 72 62  1  0
 72 66  1  0
 73 62  2  0
 74 76  2  0
 75 74  1  0
 77 75  1  0
 78 83  1  0
 79 75  1  0
 80 79  1  0
 81 80  1  0
 82 78  1  0
 82 81  1  0
 83 84  2  0
 83 79  1  0
 85 84  1  0
 86 85  2  0
 87 86  1  0
 87 78  2  0
 88 62  1  0
 88 89  1  0
 89 91  1  1
 89 92  1  0
 90 89  1  0
 93 88  1  0
 93 94  1  0
 94 95  2  0
 96 93  1  0
 98 97  1  0
 98 94  1  0
 98100  1  0
100 99  1  0
101100  1  0
102109  1  0
102  1  1  0
102103  1  0
103104  1  0
105103  1  0
106103  1  0
108109  1  0
109107  1  0
M  ISO  4  19 100  27 100  60 101  61 101
M  END
>  <TORSDO>  (58) 
F 29

>  <SCORE>  (58) 
-2.744

>  <name>  (58) 
57

>  <ligand_id>  (58) 
57

>  <original_smiles>  (58) 
[H]c1c([H])c([H])c2c(c1[H])C([H])([H])C([H])([H])C([H])([H])C2([H])N([H])C(=O)C1([H])N(C(=O)C([H])(N([H])C(=O)C([H])(N([H])C([H])([H])[H])C([H])([H])[H])C(C([H])([H])[H])(C([H])([H])[H])C([H])([H])[H])C([H])([H])c2c([H])c(OC([H])([H])C([H])([H])C([H])([H])C([H])([H])N(C(=O)C([H])(C([H])(C([H])([H])[H])C([H])([H])[H])[N+]([H])([H])[H])C([H])([H])C([H])([H])C([H])([H])C([H])([H])N([H])C(=O)c3c([H])c([H])c(N([H])C(=O)N4C([H])([H])C([H])([H])C([H])([H])C([H])(n5nc(-c6c([H])c([H])c(Oc7c([H])c([H])c(F)c([H])c7F)c([H])c6[H])c(C(=O)N([H])[H])c5N([H])[H])C4([H])[H])c(C([H])([H])[H])c3[H])c([H])c([H])c2C1([H])[H]

>  <smiles>  (58) 
[H]c1c([H])c([H])c2c(c1[H])C([H])([H])C([H])([H])C([H])([H])C2([H])N([H])C(=O)C1([H])N(C(=O)C([H])(N([H])C(=O)C([H])(N([H])C([H])([H])[H])C([H])([H])[H])C(C([H])([H])[H])(C([H])([H])[H])C([H])([H])[H])C([H])([H])c2c([H])c(OC([H])([H])C([H])([H])C([H])([H])C([H])([H])N(C(=O)C([H])(C([H])(C([H])([H])[H])C([H])([H])[H])[N+]([H])([H])[H])C([H])([H])C([H])([H])C([H])([H])C([H])([H])N([H])C(=O)c3c([H])c([H])c(N([H])C(=O)N4C([H])([H])C([H])([H])C([H])([H])C([H])(n5nc(-c6c([H])c([H])c(Oc7c([H])c([H])c(F)c([H])c7F)c([H])c6[H])c(C(=O)N([H])[H])c5N([H])[H])C4([H])[H])c(C([H])([H])[H])c3[H])c([H])c([H])c2C1([H])[H]

$$$$
58:0:0
     RDKit          3D

 93101  0  0  1  0  0  0  0  0999 V2000
  -29.0420  -19.4630   20.6380 C   0  0  0  0  0  3  0  0  0  0  0  0
  -31.3040  -17.8970   20.1150 C   0  0  0  0  0  3  0  0  0  0  0  0
  -28.9850  -18.0380   20.7360 C   0  0  0  0  0  0  0  0  0  0  0  0
  -30.2300  -20.1470   20.2870 C   0  0  0  0  0  0  0  0  0  0  0  0
  -30.1120  -17.2060   20.4540 C   0  0  0  0  0  0  0  0  0  0  0  0
  -31.3770  -19.3310   20.0420 C   0  0  0  0  0  0  0  0  0  0  0  0
  -27.6640  -17.4230   21.1560 C   0  0  0  0  0  1  0  0  0  0  0  0
  -30.7130  -14.6960   20.0110 C   0  0  0  0  0  0  0  0  0  0  0  0
  -30.3860  -12.5180   18.8520 C   0  0  0  0  0  2  0  0  0  0  0  0
  -29.3570  -12.7140   17.7160 C   0  0  0  0  0  2  0  0  0  0  0  0
  -27.9170  -12.5490   18.2420 C   0  0  0  0  0  2  0  0  0  0  0  0
  -27.6610  -13.3480   19.5480 C   0  0  0  0  0  3  0  0  0  0  0  0
  -28.7980  -13.1320   20.5730 C   0  0  0  0  0  2  0  0  0  0  0  0
  -30.0660  -13.4890   19.9180 N   0  0  0  0  0  0  0  0  0  0  0  0
  -31.8390  -14.8490   19.5310 O   0  0  0  0  0  0  0  0  0  0  0  0
  -29.9750  -15.7400   20.5140 N   0  0  0  0  0  0  0  0  0  0  0  0
  -29.1010  -15.4260   20.9040 H   0  0  0  0  0  0  0  0  0  0  0  0
  -25.3120  -13.9180   20.4220 C   0  0  0  0  0  0  0  0  0  0  0  0
  -24.2780  -13.1370   20.8560 C   0  0  0  0  0  0  0  0  0  0  0  0
  -24.7420  -11.7890   20.7710 C   0  0  0  0  0  0  0  0  0  0  0  0
  -26.3470  -13.0490   20.1130 N   0  0  0  0  0  0  0  0  0  0  0  0
  -26.0110  -11.7620   20.3790 N   0  0  0  0  0  0  0  0  0  0  0  0
  -24.0320  -10.5230   20.9830 C   0  0  0  0  0  0  0  0  0  0  0  0
  -24.4720   -9.5790   21.9360 C   0  0  0  0  0  3  0  0  0  0  0  0
  -23.7610   -8.3770   22.1340 C   0  0  0  0  0  3  0  0  0  0  0  0
  -22.5920   -8.1100   21.3800 C   0  0  0  0  0  0  0  0  0  0  0  0
  -22.1710   -9.0440   20.4160 C   0  0  0  0  0  3  0  0  0  0  0  0
  -22.8850  -10.2370   20.2150 C   0  0  0  0  0  3  0  0  0  0  0  0
  -21.8520   -6.9590   21.4870 O   0  0  0  0  0  0  0  0  0  0  0  0
  -21.7280   -6.2930   22.6800 C   0  0  0  0  0  0  0  0  0  0  0  0
  -21.1800   -6.9100   23.8250 C   0  0  0  0  0  3  0  0  0  0  0  0
  -21.0060   -6.1680   25.0110 C   0  0  0  0  0  3  0  0  0  0  0  0
  -21.3710   -4.8090   25.0490 C   0  0  0  0  0  0  0  0  0  0  0  0
  -21.9110   -4.1900   23.9080 C   0  0  0  0  0  3  0  0  0  0  0  0
  -22.0860   -4.9310   22.7260 C   0  0  0  0  0  0  0  0  0  0  0  0
  -22.5880   -4.3240   21.6230 F   0  0  0  0  0  0  0  0  0  0  0  0
  -21.1970   -4.0920   26.1850 F   0  0  0  0  0  0  0  0  0  0  0  0
  -22.9010  -13.6070   21.2250 C   0  0  0  0  0  0  0  0  0  0  0  0
  -22.2350  -12.9000   22.1320 N   0  0  0  0  0  0  0  0  0  0  0  0
  -22.4250  -14.6360   20.7470 O   0  0  0  0  0  0  0  0  0  0  0  0
  -22.6330  -12.0670   22.5390 H   0  0  0  0  0  0  0  0  0  0  0  0
  -21.3150  -13.1980   22.4240 H   0  0  0  0  0  0  0  0  0  0  0  0
  -25.4480  -15.2880   20.2380 N   0  0  0  0  0  0  0  0  0  0  0  0
  -24.6690  -15.9210   20.3810 H   0  0  0  0  0  0  0  0  0  0  0  0
  -26.2280  -15.7190   19.7610 H   0  0  0  0  0  0  0  0  0  0  0  0
  -33.7410  -19.2470   19.5510 C   0  0  0  0  0  1  0  0  0  0  0  0
  -32.5490  -20.0010   19.7460 O   0  0  0  0  0  0  0  0  0  0  0  0
  -30.3550  -21.7190   20.2560 C   0  0  0  0  0  2  0  0  0  0  0  0
  -29.1710  -22.5920   20.2270 O   0  0  0  0  0  0  0  0  0  0  0  0
  -29.6680  -24.3270   21.8550 C   0  0  0  0  0  1  0  0  0  0  0  0
  -29.4290  -24.0440   20.3630 C   0  0  0  0  0  3  0  0  0  0  0  0
  -28.3030  -25.0400   19.8300 C   0  0  0  0  0  2  0  0  0  0  0  0
  -28.4600  -26.4990   20.0630 O   0  0  0  0  0  0  0  0  0  0  0  0
  -24.5380  -31.7100   23.1510 C   0  0  0  0  0  0  0  0  0  0  0  0
  -27.3150  -27.3110   20.0120 C   0  0  0  0  0  0  0  0  0  0  0  0
  -23.3970  -30.3270   21.4550 C   0  0  0  0  0  3  0  0  0  0  0  0
  -24.9070  -28.8580   20.0090 C   0  0  0  0  0  0  0  0  0  0  0  0
  -25.9270  -30.7190   21.3160 C   0  0  0  0  0  2  0  0  0  0  0  0
  -26.0530  -29.3600   20.6390 C   0  0  0  0  0  0  0  0  0  0  0  0
  -27.2600  -28.6000   20.6310 C   0  0  0  0  0  3  0  0  0  0  0  0
  -26.1430  -26.8630   19.3600 C   0  0  0  0  0  3  0  0  0  0  0  0
  -24.9540  -27.6130   19.3630 C   0  0  0  0  0  3  0  0  0  0  0  0
  -23.6490  -29.6980   20.0590 C   0  0  0  0  0  2  0  0  0  0  0  0
  -24.6390  -30.9340   22.0320 N   0  0  0  0  0  0  0  0  0  0  0  0
  -23.4400  -31.9400   23.6770 O   0  0  0  0  0  0  0  0  0  0  0  0
  -22.7490  -29.2640   22.3750 C   0  0  0  0  0  0  0  0  0  0  0  0
  -21.4300  -29.0540   22.2260 N   0  0  0  0  0  0  0  0  0  0  0  0
  -23.4340  -28.6340   23.1850 O   0  0  0  0  0  0  0  0  0  0  0  0
  -20.9320  -29.6220   21.5540 H   0  0  0  0  0  0  0  0  0  0  0  0
  -18.0790  -27.7670   22.6600 C   0  0  0  0  0  0  0  0  0  0  0  0
  -20.6280  -28.0730   22.9600 C   0  0  0  0  0  3  0  0  0  0  0  0
  -20.7670  -26.6620   22.3410 C   0  0  0  0  0  2  0  0  0  0  0  0
  -19.6820  -26.3470   21.3070 C   0  0  0  0  0  2  0  0  0  0  0  0
  -18.2920  -26.4440   21.9440 C   0  0  0  0  0  2  0  0  0  0  0  0
  -19.1760  -28.5380   23.1240 C   0  0  0  0  0  0  0  0  0  0  0  0
  -18.9250  -29.7770   23.7540 C   0  0  0  0  0  3  0  0  0  0  0  0
  -17.6080  -30.2440   23.9210 C   0  0  0  0  0  3  0  0  0  0  0  0
  -16.5240  -29.4700   23.4730 C   0  0  0  0  0  3  0  0  0  0  0  0
  -16.7600  -28.2320   22.8490 C   0  0  0  0  0  3  0  0  0  0  0  0
  -25.7930  -32.3620   23.8080 C   0  0  0  0  0  3  0  0  0  0  0  0
  -25.4490  -33.7510   24.1430 N   0  0  0  0  0  0  0  0  0  0  0  0
  -25.7540  -34.8150   23.3870 C   0  0  0  0  0  0  0  0  0  0  0  0
  -26.4260  -34.7310   22.3540 O   0  0  0  0  0  0  0  0  0  0  0  0
  -24.8550  -33.8870   24.9470 H   0  0  0  0  0  0  0  0  0  0  0  0
  -23.9750  -36.5600   23.0530 C   0  0  0  0  0  1  0  0  0  0  0  0
  -25.2350  -36.1900   23.8500 C   0  0  0  0  0  3  0  0  0  0  0  0
  -27.3510  -37.1390   24.6600 C   0  0  0  0  0  1  0  0  0  0  0  0
  -26.2370  -37.2700   23.7230 N   0  0  0  0  0  0  0  0  0  0  0  0
  -25.8070  -38.1800   23.8700 H   0  0  0  0  0  0  0  0  0  0  0  0
  -26.2930  -31.5890   25.0890 C   0  0  1  0  0  0  0  0  0  0  0  0
  -25.1800  -31.3180   26.1270 C   0  0  0  0  0  1  0  0  0  0  0  0
  -26.9140  -30.2300   24.6940 C   0  0  0  0  0  1  0  0  0  0  0  0
  -27.4120  -32.3980   25.7860 C   0  0  0  0  0  1  0  0  0  0  0  0
  1  3  1  0
  2  5  1  0
  3  7  1  0
  4  1  2  0
  5 16  1  0
  5  3  2  0
  6  2  2  0
  6  4  1  0
  8 16  1  0
  9 14  1  0
 10 11  1  0
 10  9  1  0
 12 11  1  0
 12 21  1  0
 12 13  1  0
 14  8  1  0
 14 13  1  0
 15  8  2  0
 16 17  1  0
 18 19  2  0
 19 38  1  0
 20 19  1  0
 20 23  1  0
 21 22  1  0
 21 18  1  0
 22 20  2  0
 23 24  1  0
 24 25  2  0
 26 29  1  0
 26 25  1  0
 27 26  2  0
 28 27  1  0
 28 23  2  0
 29 30  1  0
 30 35  2  0
 30 31  1  0
 31 32  2  0
 32 33  1  0
 33 37  1  0
 34 33  2  0
 35 34  1  0
 36 35  1  0
 38 39  1  0
 39 42  1  0
 39 41  1  0
 40 38  2  0
 43 44  1  0
 43 18  1  0
 45 43  1  0
 46 47  1  0
 47  6  1  0
 48  4  1  0
 49 48  1  0
 49 51  1  0
 51 50  1  0
 52 53  1  0
 52 51  1  0
 54 65  2  0
 55 53  1  0
 55 60  1  0
 56 64  1  0
 56 66  1  0
 57 63  1  0
 57 59  1  0
 58 64  1  0
 59 58  1  0
 60 59  2  0
 61 62  1  0
 61 55  2  0
 62 57  2  0
 63 56  1  0
 64 54  1  0
 66 68  2  0
 67 66  1  0
 69 67  1  0
 70 79  2  0
 70 75  1  0
 71 67  1  0
 71 75  1  0
 72 71  1  0
 73 74  1  0
 73 72  1  0
 74 70  1  0
 75 76  2  0
 76 77  1  0
 78 77  2  0
 79 78  1  0
 80 54  1  0
 80 81  1  0
 80 90  1  0
 81 84  1  0
 82 86  1  0
 82 81  1  0
 83 82  2  0
 86 85  1  0
 88 86  1  0
 88 89  1  0
 88 87  1  0
 90 93  1  1
 90 91  1  0
 92 90  1  0
M  ISO  4   8 100  16 100  52 101  53 101
M  END
>  <TORSDO>  (59) 
F 21

>  <SCORE>  (59) 
-12.167

>  <name>  (59) 
58

>  <ligand_id>  (59) 
58

>  <original_smiles>  (59) 
[H]c1c([H])c([H])c2c(c1[H])C([H])([H])C([H])([H])C([H])([H])C2([H])N([H])C(=O)C1([H])N(C(=O)C([H])(N([H])C(=O)C([H])(N([H])C([H])([H])[H])C([H])([H])[H])C(C([H])([H])[H])(C([H])([H])[H])C([H])([H])[H])C([H])([H])c2c([H])c(OC([H])([H])C([H])(OC([H])([H])c3c([H])c(C([H])([H])[H])c(N([H])C(=O)N4C([H])([H])C([H])([H])C([H])([H])C([H])(n5nc(-c6c([H])c([H])c(Oc7c([H])c([H])c(F)c([H])c7F)c([H])c6[H])c(C(=O)N([H])[H])c5N([H])[H])C4([H])[H])c([H])c3OC([H])([H])[H])C([H])([H])[H])c([H])c([H])c2C1([H])[H]

>  <smiles>  (59) 
[H]c1c([H])c([H])c2c(c1[H])C([H])([H])C([H])([H])C([H])([H])C2([H])N([H])C(=O)C1([H])N(C(=O)C([H])(N([H])C(=O)C([H])(N([H])C([H])([H])[H])C([H])([H])[H])C(C([H])([H])[H])(C([H])([H])[H])C([H])([H])[H])C([H])([H])c2c([H])c(OC([H])([H])C([H])(OC([H])([H])c3c([H])c(C([H])([H])[H])c(N([H])C(=O)N4C([H])([H])C([H])([H])C([H])([H])C([H])(n5nc(-c6c([H])c([H])c(Oc7c([H])c([H])c(F)c([H])c7F)c([H])c6[H])c(C(=O)N([H])[H])c5N([H])[H])C4([H])[H])c([H])c3OC([H])([H])[H])C([H])([H])[H])c([H])c([H])c2C1([H])[H]

$$$$
59:0:0
     RDKit          3D

 95103  0  0  1  0  0  0  0  0999 V2000
  -29.4730  -19.3710   21.2430 C   0  0  0  0  0  3  0  0  0  0  0  0
  -28.8720  -19.0630   18.9340 C   0  0  0  0  0  3  0  0  0  0  0  0
  -29.2490  -18.4720   20.1650 C   0  0  0  0  0  0  0  0  0  0  0  0
  -29.2660  -20.7810   21.1220 C   0  0  0  0  0  0  0  0  0  0  0  0
  -28.6990  -20.4650   18.7910 C   0  0  0  0  0  0  0  0  0  0  0  0
  -28.8410  -21.3620   19.8910 C   0  0  0  0  0  0  0  0  0  0  0  0
  -29.4300  -21.6400   22.3640 C   0  0  0  0  0  1  0  0  0  0  0  0
  -28.3100  -20.9780   17.5540 N   0  0  0  0  0  0  0  0  0  0  0  0
  -27.9370  -21.9190   17.6420 H   0  0  0  0  0  0  0  0  0  0  0  0
  -27.7380  -20.3820   16.9690 H   0  0  0  0  0  0  0  0  0  0  0  0
  -26.8600  -22.6010   20.0560 C   0  0  0  0  0  1  0  0  0  0  0  0
  -28.2950  -22.6890   19.7670 N   0  0  0  0  0  0  0  0  0  0  0  0
  -28.9790  -23.9950   20.0720 C   0  0  0  0  0  2  0  0  0  0  0  0
  -28.1210  -25.2690   19.6320 C   0  0  0  0  0  2  0  0  0  0  0  0
  -28.3860  -26.6800   19.9960 O   0  0  0  0  0  0  0  0  0  0  0  0
  -24.6270  -31.9240   23.2450 C   0  0  0  0  0  0  0  0  0  0  0  0
  -27.2730  -27.5460   19.9640 C   0  0  0  0  0  0  0  0  0  0  0  0
  -23.4300  -30.5780   21.5600 C   0  0  0  0  0  3  0  0  0  0  0  0
  -24.8910  -29.1270   20.0500 C   0  0  0  0  0  0  0  0  0  0  0  0
  -25.9650  -30.9410   21.3730 C   0  0  0  0  0  2  0  0  0  0  0  0
  -26.0590  -29.5970   20.6640 C   0  0  0  0  0  0  0  0  0  0  0  0
  -27.2550  -28.8170   20.6180 C   0  0  0  0  0  3  0  0  0  0  0  0
  -26.0850  -27.1560   19.2970 C   0  0  0  0  0  3  0  0  0  0  0  0
  -24.9060  -27.9110   19.3600 C   0  0  0  0  0  3  0  0  0  0  0  0
  -23.6390  -29.9720   20.1500 C   0  0  0  0  0  2  0  0  0  0  0  0
  -24.6930  -31.1610   22.1170 N   0  0  0  0  0  0  0  0  0  0  0  0
  -23.5440  -32.1660   23.7960 O   0  0  0  0  0  0  0  0  0  0  0  0
  -22.7900  -29.5080   22.4770 C   0  0  0  0  0  0  0  0  0  0  0  0
  -21.4680  -29.3060   22.3470 N   0  0  0  0  0  0  0  0  0  0  0  0
  -23.4850  -28.8650   23.2680 O   0  0  0  0  0  0  0  0  0  0  0  0
  -20.9650  -29.8770   21.6810 H   0  0  0  0  0  0  0  0  0  0  0  0
  -18.1140  -28.0440   22.8270 C   0  0  0  0  0  0  0  0  0  0  0  0
  -20.6710  -28.3260   23.0840 C   0  0  0  0  0  3  0  0  0  0  0  0
  -20.7860  -26.9210   22.4470 C   0  0  0  0  0  2  0  0  0  0  0  0
  -19.6770  -26.6270   21.4320 C   0  0  0  0  0  2  0  0  0  0  0  0
  -18.3000  -26.7270   22.0930 C   0  0  0  0  0  2  0  0  0  0  0  0
  -19.2270  -28.8020   23.2800 C   0  0  0  0  0  0  0  0  0  0  0  0
  -18.9990  -30.0350   23.9270 C   0  0  0  0  0  3  0  0  0  0  0  0
  -17.6900  -30.5130   24.1240 C   0  0  0  0  0  3  0  0  0  0  0  0
  -16.5910  -29.7520   23.6880 C   0  0  0  0  0  3  0  0  0  0  0  0
  -16.8050  -28.5200   23.0470 C   0  0  0  0  0  3  0  0  0  0  0  0
  -25.9070  -32.5480   23.8800 C   0  0  0  0  0  3  0  0  0  0  0  0
  -25.5980  -33.9470   24.2100 N   0  0  0  0  0  0  0  0  0  0  0  0
  -25.9220  -34.9980   23.4450 C   0  0  0  0  0  0  0  0  0  0  0  0
  -26.5840  -34.8930   22.4080 O   0  0  0  0  0  0  0  0  0  0  0  0
  -25.0030  -34.1040   25.0110 H   0  0  0  0  0  0  0  0  0  0  0  0
  -24.1860  -36.7830   23.1080 C   0  0  0  0  0  1  0  0  0  0  0  0
  -25.4390  -36.3860   23.9040 C   0  0  0  0  0  3  0  0  0  0  0  0
  -27.5720  -37.2850   24.7190 C   0  0  0  0  0  1  0  0  0  0  0  0
  -26.4690  -37.4400   23.7740 N   0  0  0  0  0  0  0  0  0  0  0  0
  -26.0600  -38.3590   23.9120 H   0  0  0  0  0  0  0  0  0  0  0  0
  -26.4090  -31.7690   25.1560 C   0  0  1  0  0  0  0  0  0  0  0  0
  -25.3020  -31.5230   26.2070 C   0  0  0  0  0  1  0  0  0  0  0  0
  -26.9970  -30.3930   24.7670 C   0  0  0  0  0  1  0  0  0  0  0  0
  -27.5520  -32.5590   25.8350 C   0  0  0  0  0  1  0  0  0  0  0  0
  -29.3420  -16.9040   20.3320 C   0  0  0  0  0  2  0  0  0  0  0  0
  -30.9050  -14.8380   20.0110 C   0  0  0  0  0  0  0  0  0  0  0  0
  -30.3950  -12.6540   18.9670 C   0  0  0  0  0  2  0  0  0  0  0  0
  -29.4270  -12.7450   17.7780 C   0  0  0  0  0  2  0  0  0  0  0  0
  -27.9830  -12.5940   18.2860 C   0  0  0  0  0  2  0  0  0  0  0  0
  -27.6730  -13.5130   19.4970 C   0  0  0  0  0  3  0  0  0  0  0  0
  -28.7870  -13.4950   20.5680 C   0  0  0  0  0  2  0  0  0  0  0  0
  -30.0500  -13.7720   19.8740 N   0  0  0  0  0  0  0  0  0  0  0  0
  -32.1040  -14.6160   19.8630 O   0  0  0  0  0  0  0  0  0  0  0  0
  -30.5060  -16.1490   19.7670 N   0  0  0  0  0  0  0  0  0  0  0  0
  -25.3260  -14.1170   20.3270 C   0  0  0  0  0  0  0  0  0  0  0  0
  -24.2670  -13.3490   20.7300 C   0  0  0  0  0  0  0  0  0  0  0  0
  -24.7220  -11.9950   20.6840 C   0  0  0  0  0  0  0  0  0  0  0  0
  -26.3550  -13.2310   20.0570 N   0  0  0  0  0  0  0  0  0  0  0  0
  -26.0040  -11.9500   20.3390 N   0  0  0  0  0  0  0  0  0  0  0  0
  -23.9940  -10.7360   20.8950 C   0  0  0  0  0  0  0  0  0  0  0  0
  -24.4260   -9.7800   21.8410 C   0  0  0  0  0  3  0  0  0  0  0  0
  -23.6950   -8.5890   22.0420 C   0  0  0  0  0  3  0  0  0  0  0  0
  -22.5180   -8.3430   21.2940 C   0  0  0  0  0  0  0  0  0  0  0  0
  -22.1050   -9.2870   20.3380 C   0  0  0  0  0  3  0  0  0  0  0  0
  -22.8360  -10.4710   20.1370 C   0  0  0  0  0  3  0  0  0  0  0  0
  -21.7600   -7.2020   21.4010 O   0  0  0  0  0  0  0  0  0  0  0  0
  -21.6960   -6.4880   22.5710 C   0  0  0  0  0  0  0  0  0  0  0  0
  -21.2110   -7.0600   23.7680 C   0  0  0  0  0  3  0  0  0  0  0  0
  -21.0960   -6.2700   24.9290 C   0  0  0  0  0  3  0  0  0  0  0  0
  -21.4600   -4.9100   24.8960 C   0  0  0  0  0  0  0  0  0  0  0  0
  -21.9400   -4.3390   23.7040 C   0  0  0  0  0  3  0  0  0  0  0  0
  -22.0550   -5.1260   22.5450 C   0  0  0  0  0  0  0  0  0  0  0  0
  -22.4980   -4.5650   21.3940 F   0  0  0  0  0  0  0  0  0  0  0  0
  -21.3410   -4.1490   26.0090 F   0  0  0  0  0  0  0  0  0  0  0  0
  -22.8820  -13.8340   21.0380 C   0  0  0  0  0  0  0  0  0  0  0  0
  -22.1790  -13.1440   21.9270 N   0  0  0  0  0  0  0  0  0  0  0  0
  -22.4360  -14.8610   20.5250 O   0  0  0  0  0  0  0  0  0  0  0  0
  -22.5560  -12.3130   22.3550 H   0  0  0  0  0  0  0  0  0  0  0  0
  -21.2540  -13.4540   22.1880 H   0  0  0  0  0  0  0  0  0  0  0  0
  -25.4930  -15.4860   20.1430 N   0  0  0  0  0  0  0  0  0  0  0  0
  -24.7260  -16.1400   20.2540 H   0  0  0  0  0  0  0  0  0  0  0  0
  -26.3260  -15.9130   19.7580 H   0  0  0  0  0  0  0  0  0  0  0  0
  -32.4680  -17.7170   20.1000 C   0  0  0  0  0  1  0  0  0  0  0  0
  -31.5070  -17.0320   19.1030 C   0  0  0  0  0  2  0  0  0  0  0  0
  2  3  1  0
  3 56  1  0
  3  1  2  0
  4  1  1  0
  4  7  1  0
  5  2  2  0
  5  6  1  0
  6  4  2  0
  8  9  1  0
  8  5  1  0
 10  8  1  0
 12  6  1  0
 12 11  1  0
 12 13  1  0
 14 15  1  0
 14 13  1  0
 16 27  2  0
 17 15  1  0
 17 22  1  0
 18 26  1  0
 18 28  1  0
 19 25  1  0
 19 21  1  0
 20 26  1  0
 21 20  1  0
 22 21  2  0
 23 24  1  0
 23 17  2  0
 24 19  2  0
 25 18  1  0
 26 16  1  0
 28 30  2  0
 29 28  1  0
 31 29  1  0
 32 41  2  0
 32 37  1  0
 33 29  1  0
 33 37  1  0
 34 33  1  0
 35 36  1  0
 35 34  1  0
 36 32  1  0
 37 38  2  0
 38 39  1  0
 40 39  2  0
 41 40  1  0
 42 16  1  0
 42 43  1  0
 42 52  1  0
 43 46  1  0
 44 48  1  0
 44 43  1  0
 45 44  2  0
 48 47  1  0
 50 48  1  0
 50 51  1  0
 50 49  1  0
 52 55  1  1
 52 53  1  0
 54 52  1  0
 58 63  1  0
 59 60  1  0
 59 58  1  0
 61 60  1  0
 61 69  1  0
 61 62  1  0
 63 57  1  0
 63 62  1  0
 64 57  2  0
 65 57  1  0
 65 56  1  0
 66 67  2  0
 67 86  1  0
 68 67  1  0
 68 71  1  0
 69 66  1  0
 69 70  1  0
 70 68  2  0
 71 72  1  0
 72 73  2  0
 74 77  1  0
 74 73  1  0
 75 74  2  0
 76 75  1  0
 76 71  2  0
 77 78  1  0
 78 79  1  0
 79 80  2  0
 81 80  1  0
 81 85  1  0
 82 81  2  0
 83 78  2  0
 83 82  1  0
 84 83  1  0
 86 87  1  0
 87 90  1  0
 87 89  1  0
 88 86  2  0
 91 92  1  0
 91 66  1  0
 93 91  1  0
 95 65  1  0
 95 94  1  0
M  ISO  4  14 101  15 101  57 100  65 100
M  END
>  <TORSDO>  (60) 
F 22

>  <SCORE>  (60) 
-13.284

>  <name>  (60) 
59

>  <ligand_id>  (60) 
59

>  <original_smiles>  (60) 
[H]c1c([H])c([H])c2c(c1[H])C([H])([H])C([H])([H])C([H])([H])C2([H])N([H])C(=O)C1([H])N(C(=O)C([H])(N([H])C(=O)C([H])(N([H])C([H])([H])[H])C([H])([H])[H])C(C([H])([H])[H])(C([H])([H])[H])C([H])([H])[H])C([H])([H])c2c([H])c(OC([H])([H])C([H])([H])N(c3c(N([H])[H])c([H])c(C([H])([H])N(C(=O)N4C([H])([H])C([H])([H])C([H])([H])C([H])(n5nc(-c6c([H])c([H])c(Oc7c([H])c([H])c(F)c([H])c7F)c([H])c6[H])c(C(=O)N([H])[H])c5N([H])[H])C4([H])[H])C([H])([H])C([H])([H])[H])c([H])c3C([H])([H])[H])C([H])([H])[H])c([H])c([H])c2C1([H])[H]

>  <smiles>  (60) 
[H]c1c([H])c([H])c2c(c1[H])C([H])([H])C([H])([H])C([H])([H])C2([H])N([H])C(=O)C1([H])N(C(=O)C([H])(N([H])C(=O)C([H])(N([H])C([H])([H])[H])C([H])([H])[H])C(C([H])([H])[H])(C([H])([H])[H])C([H])([H])[H])C([H])([H])c2c([H])c(OC([H])([H])C([H])([H])N(c3c(N([H])[H])c([H])c(C([H])([H])N(C(=O)N4C([H])([H])C([H])([H])C([H])([H])C([H])(n5nc(-c6c([H])c([H])c(Oc7c([H])c([H])c(F)c([H])c7F)c([H])c6[H])c(C(=O)N([H])[H])c5N([H])[H])C4([H])[H])C([H])([H])C([H])([H])[H])c([H])c3C([H])([H])[H])C([H])([H])[H])c([H])c([H])c2C1([H])[H]

$$$$
60:0:0
     RDKit          3D

 96104  0  0  1  0  0  0  0  0999 V2000
  -31.1210  -19.5730   18.6600 C   0  0  0  0  0  3  0  0  0  0  0  0
  -31.1350  -18.1850   19.0080 C   0  0  0  0  0  3  0  0  0  0  0  0
  -29.2980  -18.5710   20.5070 C   0  0  0  0  0  3  0  0  0  0  0  0
  -30.2160  -20.5070   19.2400 C   0  0  0  0  0  0  0  0  0  0  0  0
  -30.2260  -17.6430   19.9560 C   0  0  0  0  0  0  0  0  0  0  0  0
  -29.2980  -19.9620   20.1780 C   0  0  0  0  0  0  0  0  0  0  0  0
  -30.9380  -15.1390   20.0880 C   0  0  0  0  0  0  0  0  0  0  0  0
  -30.8050  -12.7450   19.4200 C   0  0  0  0  0  2  0  0  0  0  0  0
  -29.9100  -12.6350   18.1640 C   0  0  0  0  0  2  0  0  0  0  0  0
  -28.4230  -12.5200   18.5560 C   0  0  0  0  0  2  0  0  0  0  0  0
  -28.0000  -13.5790   19.6100 C   0  0  0  0  0  3  0  0  0  0  0  0
  -29.0120  -13.6400   20.7770 C   0  0  0  0  0  2  0  0  0  0  0  0
  -30.3420  -13.9080   20.2050 N   0  0  0  0  0  0  0  0  0  0  0  0
  -32.0980  -15.2510   19.6800 O   0  0  0  0  0  0  0  0  0  0  0  0
  -30.1410  -16.2270   20.3350 N   0  0  0  0  0  0  0  0  0  0  0  0
  -29.2880  -15.9740   20.8110 H   0  0  0  0  0  0  0  0  0  0  0  0
  -25.6370  -14.2850   20.3340 C   0  0  0  0  0  0  0  0  0  0  0  0
  -24.5270  -13.5590   20.6750 C   0  0  0  0  0  0  0  0  0  0  0  0
  -24.9170  -12.1870   20.6060 C   0  0  0  0  0  0  0  0  0  0  0  0
  -26.6340  -13.3570   20.0790 N   0  0  0  0  0  0  0  0  0  0  0  0
  -26.2060  -12.0880   20.3020 N   0  0  0  0  0  0  0  0  0  0  0  0
  -24.1230  -10.9590   20.7540 C   0  0  0  0  0  0  0  0  0  0  0  0
  -24.6120   -9.8470   21.4750 C   0  0  0  0  0  3  0  0  0  0  0  0
  -23.8230   -8.6870   21.6210 C   0  0  0  0  0  3  0  0  0  0  0  0
  -22.5310   -8.6300   21.0450 C   0  0  0  0  0  0  0  0  0  0  0  0
  -22.0580   -9.7310   20.3100 C   0  0  0  0  0  3  0  0  0  0  0  0
  -22.8470  -10.8840   20.1620 C   0  0  0  0  0  3  0  0  0  0  0  0
  -21.7040   -7.5350   21.1130 O   0  0  0  0  0  0  0  0  0  0  0  0
  -21.8840   -6.5540   22.0550 C   0  0  0  0  0  0  0  0  0  0  0  0
  -21.9790   -6.8510   23.4320 C   0  0  0  0  0  3  0  0  0  0  0  0
  -22.0940   -5.8070   24.3710 C   0  0  0  0  0  3  0  0  0  0  0  0
  -22.1050   -4.4680   23.9380 C   0  0  0  0  0  0  0  0  0  0  0  0
  -22.0060   -4.1700   22.5680 C   0  0  0  0  0  3  0  0  0  0  0  0
  -21.8930   -5.2100   21.6300 C   0  0  0  0  0  0  0  0  0  0  0  0
  -21.7760   -4.9170   20.3120 F   0  0  0  0  0  0  0  0  0  0  0  0
  -22.2080   -3.4630   24.8400 F   0  0  0  0  0  0  0  0  0  0  0  0
  -23.1570  -14.1020   20.9550 C   0  0  0  0  0  0  0  0  0  0  0  0
  -22.4180  -13.4660   21.8580 N   0  0  0  0  0  0  0  0  0  0  0  0
  -22.7510  -15.1260   20.4080 O   0  0  0  0  0  0  0  0  0  0  0  0
  -22.7590  -12.6360   22.3200 H   0  0  0  0  0  0  0  0  0  0  0  0
  -21.4980  -13.8140   22.0900 H   0  0  0  0  0  0  0  0  0  0  0  0
  -25.8760  -15.6490   20.1990 N   0  0  0  0  0  0  0  0  0  0  0  0
  -25.1460  -16.3410   20.3250 H   0  0  0  0  0  0  0  0  0  0  0  0
  -26.7500  -16.0490   19.8790 H   0  0  0  0  0  0  0  0  0  0  0  0
  -30.3970  -22.0620   19.0200 C   0  0  0  0  0  2  0  0  0  0  0  0
  -29.3520  -24.3970   19.1240 C   0  0  0  0  0  0  0  0  0  0  0  0
  -29.2530  -23.0370   18.9410 N   0  0  0  0  0  0  0  0  0  0  0  0
  -30.4340  -24.9120   19.4120 O   0  0  0  0  0  0  0  0  0  0  0  0
  -28.3500  -22.6650   18.6830 H   0  0  0  0  0  0  0  0  0  0  0  0
  -28.0910  -25.3340   18.9600 C   0  0  0  0  0  2  0  0  0  0  0  0
  -28.2710  -26.7690   19.3090 O   0  0  0  0  0  0  0  0  0  0  0  0
  -24.5240  -31.5750   23.1870 C   0  0  0  0  0  0  0  0  0  0  0  0
  -27.1160  -27.5670   19.4250 C   0  0  0  0  0  0  0  0  0  0  0  0
  -23.2760  -30.3450   21.4490 C   0  0  0  0  0  3  0  0  0  0  0  0
  -24.6940  -29.0590   19.7540 C   0  0  0  0  0  0  0  0  0  0  0  0
  -25.7850  -30.7980   21.1680 C   0  0  0  0  0  2  0  0  0  0  0  0
  -25.8770  -29.5210   20.3420 C   0  0  0  0  0  0  0  0  0  0  0  0
  -27.0910  -28.7880   20.1680 C   0  0  0  0  0  3  0  0  0  0  0  0
  -25.9020  -27.1630   18.8190 C   0  0  0  0  0  3  0  0  0  0  0  0
  -24.7060  -27.8860   18.9850 C   0  0  0  0  0  3  0  0  0  0  0  0
  -23.4300  -29.8620   19.9840 C   0  0  0  0  0  2  0  0  0  0  0  0
  -24.5490  -30.9170   21.9910 N   0  0  0  0  0  0  0  0  0  0  0  0
  -23.4660  -31.7340   23.8130 O   0  0  0  0  0  0  0  0  0  0  0  0
  -22.7100  -29.1860   22.3050 C   0  0  0  0  0  0  0  0  0  0  0  0
  -21.3920  -28.9470   22.2070 N   0  0  0  0  0  0  0  0  0  0  0  0
  -23.4570  -28.5120   23.0200 O   0  0  0  0  0  0  0  0  0  0  0  0
  -20.8450  -29.5500   21.6110 H   0  0  0  0  0  0  0  0  0  0  0  0
  -18.1590  -27.3510   22.4940 C   0  0  0  0  0  0  0  0  0  0  0  0
  -20.6590  -27.8800   22.8910 C   0  0  0  0  0  3  0  0  0  0  0  0
  -20.9470  -26.5040   22.2470 C   0  0  0  0  0  2  0  0  0  0  0  0
  -19.9290  -26.1180   21.1690 C   0  0  0  0  0  2  0  0  0  0  0  0
  -18.5160  -26.0700   21.7570 C   0  0  0  0  0  2  0  0  0  0  0  0
  -19.1660  -28.2080   23.0120 C   0  0  0  0  0  0  0  0  0  0  0  0
  -18.7800  -29.4020   23.6570 C   0  0  0  0  0  3  0  0  0  0  0  0
  -17.4210  -29.7440   23.7920 C   0  0  0  0  0  3  0  0  0  0  0  0
  -16.4290  -28.8850   23.2900 C   0  0  0  0  0  3  0  0  0  0  0  0
  -16.7990  -27.6890   22.6460 C   0  0  0  0  0  3  0  0  0  0  0  0
  -25.8190  -32.1800   23.8130 C   0  0  0  0  0  3  0  0  0  0  0  0
  -25.5370  -33.5830   24.1460 N   0  0  0  0  0  0  0  0  0  0  0  0
  -26.0080  -34.6390   23.4690 C   0  0  0  0  0  0  0  0  0  0  0  0
  -26.7920  -34.5280   22.5210 O   0  0  0  0  0  0  0  0  0  0  0  0
  -24.8570  -33.7470   24.8750 H   0  0  0  0  0  0  0  0  0  0  0  0
  -24.4050  -36.5150   22.9830 C   0  0  0  0  0  1  0  0  0  0  0  0
  -25.5350  -36.0370   23.9090 C   0  0  0  0  0  3  0  0  0  0  0  0
  -27.5970  -36.8150   24.9910 C   0  0  0  0  0  1  0  0  0  0  0  0
  -26.6170  -37.0450   23.9330 N   0  0  0  0  0  0  0  0  0  0  0  0
  -26.2360  -37.9800   24.0510 H   0  0  0  0  0  0  0  0  0  0  0  0
  -26.3160  -31.3960   25.0890 C   0  0  1  0  0  0  0  0  0  0  0  0
  -25.2250  -31.2090   26.1690 C   0  0  0  0  0  1  0  0  0  0  0  0
  -26.8400  -29.9950   24.7000 C   0  0  0  0  0  1  0  0  0  0  0  0
  -27.5030  -32.1490   25.7360 C   0  0  0  0  0  1  0  0  0  0  0  0
  -28.4500  -20.7980   20.8510 O   0  0  0  0  0  0  0  0  0  0  0  0
  -27.1700  -20.9240   20.2520 C   0  0  0  0  0  2  0  0  0  0  0  0
  -25.4710  -22.6320   19.4630 C   0  0  0  0  0  1  0  0  0  0  0  0
  -26.8580  -23.0980   21.5300 C   0  0  0  0  0  1  0  0  0  0  0  0
  -26.8280  -22.4190   20.1510 C   0  0  0  0  0  3  0  0  0  0  0  0
  1  2  2  0
  1  4  1  0
  2  5  1  0
  4  6  2  0
  5 15  1  0
  5  3  2  0
  6  3  1  0
  6 92  1  0
  7 13  1  0
  7 15  1  0
  8 13  1  0
  9 10  1  0
  9  8  1  0
 11 10  1  0
 11 20  1  0
 11 12  1  0
 13 12  1  0
 14  7  2  0
 15 16  1  0
 17 18  2  0
 18 37  1  0
 19 18  1  0
 19 22  1  0
 20 21  1  0
 20 17  1  0
 21 19  2  0
 22 23  1  0
 23 24  2  0
 25 28  1  0
 25 24  1  0
 26 25  2  0
 27 26  1  0
 27 22  2  0
 28 29  1  0
 29 30  1  0
 30 31  2  0
 32 31  1  0
 32 36  1  0
 33 32  2  0
 34 29  2  0
 34 33  1  0
 35 34  1  0
 37 38  1  0
 38 41  1  0
 38 40  1  0
 39 37  2  0
 42 43  1  0
 42 17  1  0
 44 42  1  0
 45  4  1  0
 46 48  2  0
 47 45  1  0
 47 46  1  0
 49 47  1  0
 50 46  1  0
 50 51  1  0
 51 53  1  0
 52 63  2  0
 53 58  1  0
 54 62  1  0
 54 64  1  0
 55 61  1  0
 55 57  1  0
 56 62  1  0
 57 56  1  0
 58 57  2  0
 59 60  1  0
 59 53  2  0
 60 55  2  0
 61 54  1  0
 62 52  1  0
 64 66  2  0
 65 64  1  0
 67 65  1  0
 68 77  2  0
 68 73  1  0
 69 65  1  0
 69 73  1  0
 70 69  1  0
 71 72  1  0
 71 70  1  0
 72 68  1  0
 73 74  2  0
 74 75  1  0
 76 75  2  0
 77 76  1  0
 78 52  1  0
 78 79  1  0
 78 88  1  0
 79 82  1  0
 80 84  1  0
 80 79  1  0
 81 80  2  0
 84 83  1  0
 84 86  1  0
 86 87  1  0
 86 85  1  0
 88 91  1  1
 88 89  1  0
 90 88  1  0
 93 92  1  0
 94 96  1  0
 96 93  1  0
 96 95  1  0
M  ISO  4   7 100  15 100  50 101  51 101
M  END
>  <TORSDO>  (61) 
F 22

>  <SCORE>  (61) 
-11.469

>  <name>  (61) 
60

>  <ligand_id>  (61) 
60

>  <original_smiles>  (61) 
[H]c1c([H])c([H])c2c(c1[H])C([H])([H])C([H])([H])C([H])([H])C2([H])N([H])C(=O)C1([H])N(C(=O)C([H])(N([H])C(=O)C([H])(N([H])C([H])([H])[H])C([H])([H])[H])C(C([H])([H])[H])(C([H])([H])[H])C([H])([H])[H])C([H])([H])c2c([H])c(OC([H])([H])C(=O)N([H])C([H])([H])c3c([H])c([H])c(N([H])C(=O)N4C([H])([H])C([H])([H])C([H])([H])C([H])(n5nc(-c6c([H])c([H])c(Oc7c([H])c([H])c(F)c([H])c7F)c([H])c6[H])c(C(=O)N([H])[H])c5N([H])[H])C4([H])[H])c([H])c3OC([H])([H])C([H])(C([H])([H])[H])C([H])([H])[H])c([H])c([H])c2C1([H])[H]

>  <smiles>  (61) 
[H]c1c([H])c([H])c2c(c1[H])C([H])([H])C([H])([H])C([H])([H])C2([H])N([H])C(=O)C1([H])N(C(=O)C([H])(N([H])C(=O)C([H])(N([H])C([H])([H])[H])C([H])([H])[H])C(C([H])([H])[H])(C([H])([H])[H])C([H])([H])[H])C([H])([H])c2c([H])c(OC([H])([H])C(=O)N([H])C([H])([H])c3c([H])c([H])c(N([H])C(=O)N4C([H])([H])C([H])([H])C([H])([H])C([H])(n5nc(-c6c([H])c([H])c(Oc7c([H])c([H])c(F)c([H])c7F)c([H])c6[H])c(C(=O)N([H])[H])c5N([H])[H])C4([H])[H])c([H])c3OC([H])([H])C([H])(C([H])([H])[H])C([H])([H])[H])c([H])c([H])c2C1([H])[H]

$$$$
61:0:0
     RDKit          3D

 93101  0  0  1  0  0  0  0  0999 V2000
  -31.1970  -17.9980   21.3090 C   0  0  0  0  0  3  0  0  0  0  0  0
  -31.2030  -19.4240   21.2770 C   0  0  0  0  0  3  0  0  0  0  0  0
  -28.9070  -19.4500   20.5780 C   0  0  0  0  0  3  0  0  0  0  0  0
  -30.0330  -17.2580   20.9860 C   0  0  0  0  0  0  0  0  0  0  0  0
  -30.0610  -20.1960   20.9300 C   0  0  0  0  0  0  0  0  0  0  0  0
  -28.8880  -18.0130   20.5940 C   0  0  0  0  0  0  0  0  0  0  0  0
  -30.7950  -14.7690   20.9890 C   0  0  0  0  0  0  0  0  0  0  0  0
  -30.7280  -12.4850   20.0030 C   0  0  0  0  0  2  0  0  0  0  0  0
  -29.8800  -12.5530   18.7130 C   0  0  0  0  0  2  0  0  0  0  0  0
  -28.3790  -12.3770   19.0280 C   0  0  0  0  0  2  0  0  0  0  0  0
  -27.9050  -13.2720   20.2050 C   0  0  0  0  0  3  0  0  0  0  0  0
  -28.8760  -13.1770   21.4040 C   0  0  0  0  0  2  0  0  0  0  0  0
  -30.2200  -13.5270   20.9150 N   0  0  0  0  0  0  0  0  0  0  0  0
  -31.9920  -14.9410   20.7420 O   0  0  0  0  0  0  0  0  0  0  0  0
  -29.9110  -15.8070   21.1180 N   0  0  0  0  0  0  0  0  0  0  0  0
  -28.9540  -15.4920   21.1470 H   0  0  0  0  0  0  0  0  0  0  0  0
  -25.4650  -13.8560   20.7610 C   0  0  0  0  0  0  0  0  0  0  0  0
  -24.3780  -13.0760   21.0430 C   0  0  0  0  0  0  0  0  0  0  0  0
  -24.8480  -11.7270   21.0400 C   0  0  0  0  0  0  0  0  0  0  0  0
  -26.5280  -12.9810   20.5920 N   0  0  0  0  0  0  0  0  0  0  0  0
  -26.1570  -11.6960   20.8240 N   0  0  0  0  0  0  0  0  0  0  0  0
  -24.1160  -10.4620   21.1750 C   0  0  0  0  0  0  0  0  0  0  0  0
  -24.4600   -9.5110   22.1600 C   0  0  0  0  0  3  0  0  0  0  0  0
  -23.7290   -8.3100   22.2810 C   0  0  0  0  0  3  0  0  0  0  0  0
  -22.6410   -8.0510   21.4140 C   0  0  0  0  0  0  0  0  0  0  0  0
  -22.3190   -8.9900   20.4190 C   0  0  0  0  0  3  0  0  0  0  0  0
  -23.0510  -10.1820   20.2960 C   0  0  0  0  0  3  0  0  0  0  0  0
  -21.8910   -6.9000   21.4410 O   0  0  0  0  0  0  0  0  0  0  0  0
  -21.6960   -6.1930   22.6000 C   0  0  0  0  0  0  0  0  0  0  0  0
  -21.0910   -6.7770   23.7360 C   0  0  0  0  0  3  0  0  0  0  0  0
  -20.8470   -5.9960   24.8830 C   0  0  0  0  0  3  0  0  0  0  0  0
  -21.1970   -4.6320   24.8940 C   0  0  0  0  0  0  0  0  0  0  0  0
  -21.7940   -4.0480   23.7630 C   0  0  0  0  0  3  0  0  0  0  0  0
  -22.0400   -4.8270   22.6190 C   0  0  0  0  0  0  0  0  0  0  0  0
  -22.5960   -4.2530   21.5240 F   0  0  0  0  0  0  0  0  0  0  0  0
  -20.9560   -3.8790   25.9930 F   0  0  0  0  0  0  0  0  0  0  0  0
  -22.9620  -13.5460   21.2130 C   0  0  0  0  0  0  0  0  0  0  0  0
  -22.1760  -12.8490   22.0280 N   0  0  0  0  0  0  0  0  0  0  0  0
  -22.5560  -14.5670   20.6580 O   0  0  0  0  0  0  0  0  0  0  0  0
  -22.5150  -12.0250   22.5000 H   0  0  0  0  0  0  0  0  0  0  0  0
  -21.2230  -13.1460   22.1810 H   0  0  0  0  0  0  0  0  0  0  0  0
  -25.6310  -15.2280   20.6170 N   0  0  0  0  0  0  0  0  0  0  0  0
  -24.8470  -15.8630   20.6940 H   0  0  0  0  0  0  0  0  0  0  0  0
  -26.4910  -15.6990   20.3570 H   0  0  0  0  0  0  0  0  0  0  0  0
  -30.1620  -21.6050   20.9640 O   0  0  0  0  0  0  0  0  0  0  0  0
  -29.0900  -22.5120   20.5450 C   0  0  0  0  0  3  0  0  0  0  0  0
  -29.4000  -24.0700   20.7380 C   0  0  0  0  0  3  0  0  0  0  0  0
  -28.3020  -25.1150   20.2580 C   0  0  0  0  0  2  0  0  0  0  0  0
  -28.5000  -26.5690   20.4740 O   0  0  0  0  0  0  0  0  0  0  0  0
  -24.6870  -31.9730   23.3650 C   0  0  0  0  0  0  0  0  0  0  0  0
  -27.3760  -27.4110   20.3860 C   0  0  0  0  0  0  0  0  0  0  0  0
  -23.5210  -30.5670   21.7040 C   0  0  0  0  0  3  0  0  0  0  0  0
  -25.0060  -29.0150   20.3160 C   0  0  0  0  0  0  0  0  0  0  0  0
  -26.0630  -30.8890   21.5750 C   0  0  0  0  0  2  0  0  0  0  0  0
  -26.1600  -29.5100   20.9350 C   0  0  0  0  0  0  0  0  0  0  0  0
  -27.3480  -28.7190   20.9600 C   0  0  0  0  0  3  0  0  0  0  0  0
  -26.1960  -26.9710   19.7400 C   0  0  0  0  0  3  0  0  0  0  0  0
  -25.0250  -27.7490   19.7120 C   0  0  0  0  0  3  0  0  0  0  0  0
  -23.7670  -29.8860   20.3310 C   0  0  0  0  0  2  0  0  0  0  0  0
  -24.7750  -31.1600   22.2710 N   0  0  0  0  0  0  0  0  0  0  0  0
  -23.5920  -32.2510   23.8730 O   0  0  0  0  0  0  0  0  0  0  0  0
  -22.8390  -29.5520   22.6510 C   0  0  0  0  0  0  0  0  0  0  0  0
  -21.5280  -29.3290   22.4560 N   0  0  0  0  0  0  0  0  0  0  0  0
  -23.4890  -28.9680   23.5220 O   0  0  0  0  0  0  0  0  0  0  0  0
  -21.0640  -29.8560   21.7300 H   0  0  0  0  0  0  0  0  0  0  0  0
  -18.1710  -28.0210   22.7780 C   0  0  0  0  0  0  0  0  0  0  0  0
  -20.6950  -28.3860   23.2020 C   0  0  0  0  0  3  0  0  0  0  0  0
  -20.8850  -26.9420   22.6840 C   0  0  0  0  0  2  0  0  0  0  0  0
  -19.8640  -26.5450   21.6120 C   0  0  0  0  0  2  0  0  0  0  0  0
  -18.4390  -26.6580   22.1610 C   0  0  0  0  0  2  0  0  0  0  0  0
  -19.2310  -28.8390   23.2520 C   0  0  0  0  0  0  0  0  0  0  0  0
  -18.9290  -30.1100   23.7850 C   0  0  0  0  0  3  0  0  0  0  0  0
  -17.5990  -30.5680   23.8490 C   0  0  0  0  0  3  0  0  0  0  0  0
  -16.5520  -29.7480   23.3930 C   0  0  0  0  0  3  0  0  0  0  0  0
  -16.8380  -28.4770   22.8630 C   0  0  0  0  0  3  0  0  0  0  0  0
  -25.9550  -32.6070   24.0140 C   0  0  0  0  0  3  0  0  0  0  0  0
  -25.6420  -34.0100   24.3200 N   0  0  0  0  0  0  0  0  0  0  0  0
  -25.9670  -35.0510   23.5420 C   0  0  0  0  0  0  0  0  0  0  0  0
  -26.6330  -34.9300   22.5090 O   0  0  0  0  0  0  0  0  0  0  0  0
  -25.0530  -34.1770   25.1220 H   0  0  0  0  0  0  0  0  0  0  0  0
  -24.2130  -36.8170   23.1850 C   0  0  0  0  0  1  0  0  0  0  0  0
  -25.4780  -36.4450   23.9760 C   0  0  0  0  0  3  0  0  0  0  0  0
  -27.6190  -37.3740   24.7370 C   0  0  0  0  0  1  0  0  0  0  0  0
  -26.4960  -37.5040   23.8130 N   0  0  0  0  0  0  0  0  0  0  0  0
  -26.0840  -38.4250   23.9430 H   0  0  0  0  0  0  0  0  0  0  0  0
  -26.4330  -31.8490   25.3130 C   0  0  1  0  0  0  0  0  0  0  0  0
  -25.3030  -31.6000   26.3400 C   0  0  0  0  0  1  0  0  0  0  0  0
  -27.0510  -30.4790   24.9500 C   0  0  0  0  0  1  0  0  0  0  0  0
  -27.5460  -32.6630   26.0150 C   0  0  0  0  0  1  0  0  0  0  0  0
  -27.7650  -17.2930   20.2420 O   0  0  0  0  0  0  0  0  0  0  0  0
  -26.8130  -16.6420   18.1550 C   0  0  0  0  0  1  0  0  0  0  0  0
  -25.6380  -18.3190   19.6620 C   0  0  0  0  0  1  0  0  0  0  0  0
  -26.9870  -17.7920   19.1530 C   0  0  0  0  0  3  0  0  0  0  0  0
  2  1  1  0
  3  6  2  0
  3  5  1  0
  4 15  1  0
  4  1  2  0
  5 45  1  0
  5  2  2  0
  6  4  1  0
  7 15  1  0
  8 13  1  0
  9 10  1  0
  9  8  1  0
 11 10  1  0
 11 20  1  0
 11 12  1  0
 13  7  1  0
 13 12  1  0
 14  7  2  0
 15 16  1  0
 17 18  2  0
 18 37  1  0
 19 18  1  0
 19 22  1  0
 20 17  1  0
 20 21  1  0
 21 19  2  0
 22 23  1  0
 23 24  2  0
 25 28  1  0
 25 24  1  0
 26 25  2  0
 27 26  1  0
 27 22  2  0
 28 29  1  0
 29 34  2  0
 29 30  1  0
 30 31  2  0
 31 32  1  0
 32 36  1  0
 33 32  2  0
 34 33  1  0
 35 34  1  0
 37 38  1  0
 38 41  1  0
 38 40  1  0
 39 37  2  0
 42 43  1  0
 42 17  1  0
 44 42  1  0
 46 47  2  0
 46 45  1  0
 48 49  1  0
 48 47  1  0
 50 61  2  0
 51 49  1  0
 51 56  1  0
 52 60  1  0
 52 62  1  0
 53 59  1  0
 53 55  1  0
 54 60  1  0
 55 56  2  0
 55 54  1  0
 57 51  2  0
 58 57  1  0
 58 53  2  0
 59 52  1  0
 60 50  1  0
 62 64  2  0
 63 62  1  0
 65 63  1  0
 66 75  2  0
 66 71  1  0
 67 63  1  0
 67 71  1  0
 68 67  1  0
 69 70  1  0
 69 68  1  0
 70 66  1  0
 71 72  2  0
 72 73  1  0
 74 73  2  0
 75 74  1  0
 76 50  1  0
 76 77  1  0
 76 86  1  0
 77 80  1  0
 78 82  1  0
 78 77  1  0
 79 78  2  0
 82 81  1  0
 84 85  1  0
 84 82  1  0
 84 83  1  0
 86 89  1  1
 86 87  1  0
 88 86  1  0
 90  6  1  0
 91 93  1  0
 93 92  1  0
 93 90  1  0
M  ISO  4   7 100  15 100  48 101  49 101
M  END
>  <TORSDO>  (62) 
F 22

>  <SCORE>  (62) 
-10.835

>  <name>  (62) 
61

>  <ligand_id>  (62) 
61

>  <original_smiles>  (62) 
[H]c1c([H])c([H])c2c(c1[H])C([H])([H])C([H])([H])C([H])([H])C2([H])N([H])C(=O)C1([H])N(C(=O)C([H])(N([H])C(=O)C([H])(N([H])C([H])([H])[H])C([H])([H])[H])C(C([H])([H])[H])(C([H])([H])[H])C([H])([H])[H])C([H])([H])c2c([H])c(OC([H])([H])C([H])([H])C([H])([H])Oc3c([H])c([H])c(N([H])C(=O)N4C([H])([H])C([H])([H])C([H])([H])C([H])(n5nc(-c6c([H])c([H])c(Oc7c([H])c([H])c(F)c([H])c7F)c([H])c6[H])c(C(=O)N([H])[H])c5N([H])[H])C4([H])[H])c(OC([H])(C([H])([H])[H])C([H])([H])[H])c3[H])c([H])c([H])c2C1([H])[H]

>  <smiles>  (62) 
[H]c1c([H])c([H])c2c(c1[H])C([H])([H])C([H])([H])C([H])([H])C2([H])N([H])C(=O)C1([H])N(C(=O)C([H])(N([H])C(=O)C([H])(N([H])C([H])([H])[H])C([H])([H])[H])C(C([H])([H])[H])(C([H])([H])[H])C([H])([H])[H])C([H])([H])c2c([H])c(OC([H])([H])C([H])([H])C([H])([H])Oc3c([H])c([H])c(N([H])C(=O)N4C([H])([H])C([H])([H])C([H])([H])C([H])(n5nc(-c6c([H])c([H])c(Oc7c([H])c([H])c(F)c([H])c7F)c([H])c6[H])c(C(=O)N([H])[H])c5N([H])[H])C4([H])[H])c(OC([H])(C([H])([H])[H])C([H])([H])[H])c3[H])c([H])c([H])c2C1([H])[H]

$$$$
62:0:0
     RDKit          3D

102110  0  0  1  0  0  0  0  0999 V2000
  -28.7020  -22.1050   17.6850 N   0  0  2  0  0  4  0  0  0  0  0  0
  -29.2940  -21.3280   17.4250 H   0  0  0  0  0  0  0  0  0  0  0  0
  -29.3360  -22.6760   18.9120 C   0  0  0  0  0  2  0  0  0  0  0  0
  -28.6330  -23.9390   19.4410 C   0  0  0  0  0  2  0  0  0  0  0  0
  -29.3050  -24.5080   20.6980 C   0  0  0  0  0  2  0  0  0  0  0  0
  -28.5650  -25.7390   21.2260 C   0  0  0  0  0  2  0  0  0  0  0  0
  -28.4860  -26.6900   20.1730 O   0  0  0  0  0  0  0  0  0  0  0  0
  -24.5780  -31.7460   23.2320 C   0  0  0  0  0  0  0  0  0  0  0  0
  -27.3120  -27.3880   20.1710 C   0  0  0  0  0  0  0  0  0  0  0  0
  -23.4060  -30.3470   21.5600 C   0  0  0  0  0  3  0  0  0  0  0  0
  -24.8960  -28.8300   20.1550 C   0  0  0  0  0  0  0  0  0  0  0  0
  -25.9290  -30.7340   21.4080 C   0  0  0  0  0  2  0  0  0  0  0  0
  -26.0330  -29.3720   20.7650 C   0  0  0  0  0  0  0  0  0  0  0  0
  -27.2480  -28.6570   20.7750 C   0  0  0  0  0  3  0  0  0  0  0  0
  -26.1650  -26.8400   19.5630 C   0  0  0  0  0  3  0  0  0  0  0  0
  -24.9540  -27.5610   19.5530 C   0  0  0  0  0  3  0  0  0  0  0  0
  -23.6410  -29.6740   20.1820 C   0  0  0  0  0  2  0  0  0  0  0  0
  -24.6530  -30.9560   22.1260 N   0  0  0  0  0  0  0  0  0  0  0  0
  -23.4860  -32.0090   23.7570 O   0  0  0  0  0  0  0  0  0  0  0  0
  -22.7470  -29.3140   22.5020 C   0  0  0  0  0  0  0  0  0  0  0  0
  -21.4260  -29.1260   22.3510 N   0  0  0  0  0  0  0  0  0  0  0  0
  -23.4200  -28.6860   23.3220 O   0  0  0  0  0  0  0  0  0  0  0  0
  -20.9460  -29.6830   21.6590 H   0  0  0  0  0  0  0  0  0  0  0  0
  -18.0480  -27.9350   22.7960 C   0  0  0  0  0  0  0  0  0  0  0  0
  -20.6010  -28.1820   23.1020 C   0  0  0  0  0  3  0  0  0  0  0  0
  -20.7070  -26.7580   22.5100 C   0  0  0  0  0  2  0  0  0  0  0  0
  -19.6170  -26.4490   21.4780 C   0  0  0  0  0  2  0  0  0  0  0  0
  -18.2280  -26.5920   22.1060 C   0  0  0  0  0  2  0  0  0  0  0  0
  -19.1620  -28.6870   23.2500 C   0  0  0  0  0  0  0  0  0  0  0  0
  -18.9430  -29.9440   23.8530 C   0  0  0  0  0  3  0  0  0  0  0  0
  -17.6380  -30.4510   24.0060 C   0  0  0  0  0  3  0  0  0  0  0  0
  -16.5360  -29.6940   23.5710 C   0  0  0  0  0  3  0  0  0  0  0  0
  -16.7410  -28.4380   22.9740 C   0  0  0  0  0  3  0  0  0  0  0  0
  -25.8520  -32.3760   23.8750 C   0  0  0  0  0  3  0  0  0  0  0  0
  -25.5370  -33.7750   24.1920 N   0  0  0  0  0  0  0  0  0  0  0  0
  -25.8820  -34.8220   23.4310 C   0  0  0  0  0  0  0  0  0  0  0  0
  -26.5710  -34.7120   22.4120 O   0  0  0  0  0  0  0  0  0  0  0  0
  -24.9230  -33.9360   24.9770 H   0  0  0  0  0  0  0  0  0  0  0  0
  -24.1470  -36.6020   23.0430 C   0  0  0  0  0  1  0  0  0  0  0  0
  -25.3810  -36.2110   23.8700 C   0  0  0  0  0  3  0  0  0  0  0  0
  -27.5000  -37.1210   24.7180 C   0  0  0  0  0  1  0  0  0  0  0  0
  -26.4090  -37.2700   23.7580 N   0  0  0  0  0  0  0  0  0  0  0  0
  -25.9940  -38.1890   23.8910 H   0  0  0  0  0  0  0  0  0  0  0  0
  -26.3460  -31.6080   25.1630 C   0  0  1  0  0  0  0  0  0  0  0  0
  -25.2300  -31.3660   26.2070 C   0  0  0  0  0  1  0  0  0  0  0  0
  -26.9470  -30.2320   24.7870 C   0  0  0  0  0  1  0  0  0  0  0  0
  -27.4750  -32.4110   25.8520 C   0  0  0  0  0  1  0  0  0  0  0  0
  -28.7150  -23.0100   16.4930 C   0  0  0  0  0  2  0  0  0  0  0  0
  -30.0680  -23.6700   16.1450 C   0  0  0  0  0  2  0  0  0  0  0  0
  -31.1820  -22.6850   15.7510 C   0  0  0  0  0  2  0  0  0  0  0  0
  -33.6350  -22.4500   15.0730 C   0  0  0  0  0  1  0  0  0  0  0  0
  -32.4630  -23.4100   15.3090 C   0  0  0  0  0  2  0  0  0  0  0  0
  -27.3310  -21.5370   17.8920 C   0  0  0  0  0  2  0  0  0  0  0  0
  -27.1520  -20.5240   19.0520 C   0  0  0  0  0  2  0  0  0  0  0  0
  -28.0670  -19.3110   18.9510 C   0  0  0  0  0  0  0  0  0  0  0  0
  -27.8650  -18.4230   18.1190 O   0  0  0  0  0  0  0  0  0  0  0  0
  -29.1080  -19.3780   19.8030 O   0  0  0  0  0  0  0  0  0  0  0  0
  -29.9990  -16.1990   21.4550 C   0  0  0  0  0  3  0  0  0  0  0  0
  -29.3600  -17.4260   21.2010 C   0  0  0  0  0  3  0  0  0  0  0  0
  -31.5270  -16.6020   19.5930 C   0  0  0  0  0  3  0  0  0  0  0  0
  -31.0570  -15.7640   20.6320 C   0  0  0  0  0  0  0  0  0  0  0  0
  -29.7710  -18.2200   20.1090 C   0  0  0  0  0  0  0  0  0  0  0  0
  -30.8800  -17.8240   19.3310 C   0  0  0  0  0  0  0  0  0  0  0  0
  -31.3000  -18.6090   18.3080 F   0  0  0  0  0  0  0  0  0  0  0  0
  -31.8480  -13.6070   19.8770 C   0  0  0  0  0  0  0  0  0  0  0  0
  -31.2270  -11.4390   18.8770 C   0  0  0  0  0  2  0  0  0  0  0  0
  -30.1980  -11.6210   17.7460 C   0  0  0  0  0  2  0  0  0  0  0  0
  -28.7610  -11.6780   18.2990 C   0  0  0  0  0  2  0  0  0  0  0  0
  -28.6190  -12.6670   19.4850 C   0  0  0  0  0  3  0  0  0  0  0  0
  -29.7290  -12.4180   20.5290 C   0  0  0  0  0  2  0  0  0  0  0  0
  -31.0450  -12.5130   19.8610 N   0  0  0  0  0  0  0  0  0  0  0  0
  -32.7940  -13.7780   19.1000 O   0  0  0  0  0  0  0  0  0  0  0  0
  -31.5770  -14.4680   20.8640 N   0  0  0  0  0  0  0  0  0  0  0  0
  -31.1160  -14.0000   21.6290 H   0  0  0  0  0  0  0  0  0  0  0  0
  -26.4330  -13.6080   20.4820 C   0  0  0  0  0  0  0  0  0  0  0  0
  -25.2910  -12.9950   20.9240 C   0  0  0  0  0  0  0  0  0  0  0  0
  -25.5070  -11.5930   20.7590 C   0  0  0  0  0  0  0  0  0  0  0  0
  -27.2870  -12.5890   20.0870 N   0  0  0  0  0  0  0  0  0  0  0  0
  -26.7340  -11.3680   20.3040 N   0  0  0  0  0  0  0  0  0  0  0  0
  -24.5990  -10.4550   20.9500 C   0  0  0  0  0  0  0  0  0  0  0  0
  -24.8840   -9.4310   21.8790 C   0  0  0  0  0  3  0  0  0  0  0  0
  -23.9880   -8.3550   22.0580 C   0  0  0  0  0  3  0  0  0  0  0  0
  -22.7920   -8.2950   21.3040 C   0  0  0  0  0  0  0  0  0  0  0  0
  -22.5230   -9.3070   20.3650 C   0  0  0  0  0  3  0  0  0  0  0  0
  -23.4180  -10.3730   20.1840 C   0  0  0  0  0  3  0  0  0  0  0  0
  -21.8740   -7.2760   21.3930 O   0  0  0  0  0  0  0  0  0  0  0  0
  -21.6590   -6.6020   22.5690 C   0  0  0  0  0  0  0  0  0  0  0  0
  -21.1990   -7.2570   23.7310 C   0  0  0  0  0  3  0  0  0  0  0  0
  -20.9230   -6.5130   24.8960 C   0  0  0  0  0  3  0  0  0  0  0  0
  -21.0980   -5.1170   24.8980 C   0  0  0  0  0  0  0  0  0  0  0  0
  -21.5530   -4.4610   23.7400 C   0  0  0  0  0  3  0  0  0  0  0  0
  -21.8300   -5.2020   22.5780 C   0  0  0  0  0  0  0  0  0  0  0  0
  -22.2460   -4.5640   21.4580 F   0  0  0  0  0  0  0  0  0  0  0  0
  -20.8260   -4.4010   26.0140 F   0  0  0  0  0  0  0  0  0  0  0  0
  -24.0300  -13.6700   21.3820 C   0  0  0  0  0  0  0  0  0  0  0  0
  -23.3020  -13.0520   22.3050 N   0  0  0  0  0  0  0  0  0  0  0  0
  -23.7080  -14.7790   20.9560 O   0  0  0  0  0  0  0  0  0  0  0  0
  -23.5790  -12.1540   22.6730 H   0  0  0  0  0  0  0  0  0  0  0  0
  -22.4610  -13.4860   22.6540 H   0  0  0  0  0  0  0  0  0  0  0  0
  -26.8050  -14.9440   20.3630 N   0  0  0  0  0  0  0  0  0  0  0  0
  -26.1480  -15.6930   20.5450 H   0  0  0  0  0  0  0  0  0  0  0  0
  -27.6510  -15.2630   19.9070 H   0  0  0  0  0  0  0  0  0  0  0  0
  1 53  1  0
  1  3  1  0
  1  2  1  6
  3  4  1  0
  4  5  1  0
  5  6  1  0
  7  6  1  0
  8 19  2  0
  9  7  1  0
  9 14  1  0
 10 18  1  0
 10 20  1  0
 11 17  1  0
 11 13  1  0
 12 18  1  0
 13 14  2  0
 13 12  1  0
 15  9  2  0
 16 15  1  0
 16 11  2  0
 17 10  1  0
 18  8  1  0
 20 22  2  0
 21 20  1  0
 23 21  1  0
 24 33  2  0
 24 29  1  0
 25 21  1  0
 25 29  1  0
 26 25  1  0
 27 28  1  0
 27 26  1  0
 28 24  1  0
 29 30  2  0
 30 31  1  0
 32 31  2  0
 33 32  1  0
 34  8  1  0
 34 35  1  0
 34 44  1  0
 35 38  1  0
 36 40  1  0
 36 35  1  0
 37 36  2  0
 40 39  1  0
 42 40  1  0
 42 43  1  0
 42 41  1  0
 44 47  1  1
 44 45  1  0
 46 44  1  0
 48  1  1  0
 49 48  1  0
 50 49  1  0
 51 52  1  0
 52 50  1  0
 53 54  1  0
 55 54  1  0
 55 57  1  0
 56 55  2  0
 57 62  1  0
 59 58  1  0
 60 61  1  0
 61 73  1  0
 61 58  2  0
 62 59  2  0
 63 60  2  0
 63 62  1  0
 64 63  1  0
 65 73  1  0
 66 71  1  0
 67 68  1  0
 67 66  1  0
 69 68  1  0
 69 78  1  0
 69 70  1  0
 71 65  1  0
 71 70  1  0
 72 65  2  0
 73 74  1  0
 75 76  2  0
 76 95  1  0
 77 76  1  0
 77 80  1  0
 78 79  1  0
 78 75  1  0
 79 77  2  0
 80 81  1  0
 81 82  2  0
 83 86  1  0
 83 82  1  0
 84 83  2  0
 85 84  1  0
 85 80  2  0
 86 87  1  0
 87 92  2  0
 87 88  1  0
 88 89  2  0
 89 90  1  0
 90 94  1  0
 91 90  2  0
 92 91  1  0
 93 92  1  0
 95 96  1  0
 96 99  1  0
 96 98  1  0
 97 95  2  0
100 75  1  0
100101  1  0
102100  1  0
M  ISO  4   6 101   7 101  65 100  73 100
M  END
>  <TORSDO>  (63) 
F 29

>  <SCORE>  (63) 
-10.149

>  <name>  (63) 
62

>  <ligand_id>  (63) 
62

>  <original_smiles>  (63) 
[H]c1c([H])c([H])c2c(c1[H])C([H])([H])C([H])([H])C([H])([H])C2([H])N([H])C(=O)C1([H])N(C(=O)C([H])(N([H])C(=O)C([H])(N([H])C([H])([H])[H])C([H])([H])[H])C(C([H])([H])[H])(C([H])([H])[H])C([H])([H])[H])C([H])([H])c2c([H])c(OC([H])([H])C([H])([H])C([H])([H])C([H])([H])[N+]([H])(C([H])([H])C([H])([H])C(=O)Oc3c([H])c([H])c(N([H])C(=O)N4C([H])([H])C([H])([H])C([H])([H])C([H])(n5nc(-c6c([H])c([H])c(Oc7c([H])c([H])c(F)c([H])c7F)c([H])c6[H])c(C(=O)N([H])[H])c5N([H])[H])C4([H])[H])c([H])c3F)C([H])([H])C([H])([H])C([H])([H])C([H])([H])C([H])([H])[H])c([H])c([H])c2C1([H])[H]

>  <smiles>  (63) 
[H]c1c([H])c([H])c2c(c1[H])C([H])([H])C([H])([H])C([H])([H])C2([H])N([H])C(=O)C1([H])N(C(=O)C([H])(N([H])C(=O)C([H])(N([H])C([H])([H])[H])C([H])([H])[H])C(C([H])([H])[H])(C([H])([H])[H])C([H])([H])[H])C([H])([H])c2c([H])c(OC([H])([H])C([H])([H])C([H])([H])C([H])([H])[N+]([H])(C([H])([H])C([H])([H])C(=O)Oc3c([H])c([H])c(N([H])C(=O)N4C([H])([H])C([H])([H])C([H])([H])C([H])(n5nc(-c6c([H])c([H])c(Oc7c([H])c([H])c(F)c([H])c7F)c([H])c6[H])c(C(=O)N([H])[H])c5N([H])[H])C4([H])[H])c([H])c3F)C([H])([H])C([H])([H])C([H])([H])C([H])([H])C([H])([H])[H])c([H])c([H])c2C1([H])[H]

$$$$
63:0:0
     RDKit          3D

 98106  0  0  1  0  0  0  0  0999 V2000
  -34.8380  -23.7710   18.0800 C   0  0  0  0  0  0  0  0  0  0  0  0
  -36.6720  -22.1580   17.7190 C   0  0  0  0  0  1  0  0  0  0  0  0
  -35.4440  -22.5950   18.3870 N   0  0  0  0  0  0  0  0  0  0  0  0
  -33.8120  -24.1590   18.6520 O   0  0  0  0  0  0  0  0  0  0  0  0
  -35.3470  -20.3500   21.3610 C   0  0  0  0  0  3  0  0  0  0  0  0
  -34.0360  -19.8450   21.2980 C   0  0  0  0  0  3  0  0  0  0  0  0
  -35.7930  -21.2790   20.4040 C   0  0  0  0  0  3  0  0  0  0  0  0
  -33.5930  -21.2300   19.3210 C   0  0  0  0  0  0  0  0  0  0  0  0
  -33.1550  -20.2780   20.2790 C   0  0  0  0  0  0  0  0  0  0  0  0
  -34.9240  -21.7220   19.3850 C   0  0  0  0  0  0  0  0  0  0  0  0
  -32.6540  -21.6850   18.2040 C   0  0  0  0  0  1  0  0  0  0  0  0
  -31.0050  -19.9500   19.1450 C   0  0  0  0  0  0  0  0  0  0  0  0
  -29.4810  -18.5630   17.8050 C   0  0  0  0  0  2  0  0  0  0  0  0
  -28.7040  -17.6270   18.7530 C   0  0  0  0  0  2  0  0  0  0  0  0
  -29.4990  -16.3310   19.0110 C   0  0  0  0  0  2  0  0  0  0  0  0
  -30.9760  -16.6000   19.4070 C   0  0  0  0  0  3  0  0  0  0  0  0
  -31.6260  -17.6130   18.4410 C   0  0  0  0  0  2  0  0  0  0  0  0
  -30.7900  -18.8250   18.4160 N   0  0  0  0  0  0  0  0  0  0  0  0
  -30.2870  -20.9500   19.0810 O   0  0  0  0  0  0  0  0  0  0  0  0
  -31.8240  -19.7980   20.1920 N   0  0  0  0  0  0  0  0  0  0  0  0
  -31.3230  -19.9910   21.0450 H   0  0  0  0  0  0  0  0  0  0  0  0
  -31.4680  -14.1930   20.1830 C   0  0  0  0  0  0  0  0  0  0  0  0
  -32.4690  -13.3160   19.8610 C   0  0  0  0  0  0  0  0  0  0  0  0
  -33.3280  -14.0120   18.9560 C   0  0  0  0  0  0  0  0  0  0  0  0
  -31.7460  -15.3590   19.4860 N   0  0  0  0  0  0  0  0  0  0  0  0
  -32.9050  -15.2580   18.7850 N   0  0  0  0  0  0  0  0  0  0  0  0
  -34.4940  -13.5460   18.1970 C   0  0  0  0  0  0  0  0  0  0  0  0
  -35.7960  -14.0170   18.4800 C   0  0  0  0  0  3  0  0  0  0  0  0
  -36.9050  -13.5420   17.7480 C   0  0  0  0  0  3  0  0  0  0  0  0
  -36.7200  -12.5850   16.7220 C   0  0  0  0  0  0  0  0  0  0  0  0
  -35.4200  -12.1370   16.4280 C   0  0  0  0  0  3  0  0  0  0  0  0
  -34.3160  -12.6140   17.1540 C   0  0  0  0  0  3  0  0  0  0  0  0
  -37.7340  -12.0860   15.9390 O   0  0  0  0  0  0  0  0  0  0  0  0
  -38.9430  -11.7230   16.4750 C   0  0  0  0  0  0  0  0  0  0  0  0
  -39.1000  -10.5360   17.2230 C   0  0  0  0  0  3  0  0  0  0  0  0
  -40.3740  -10.1650   17.6960 C   0  0  0  0  0  3  0  0  0  0  0  0
  -41.4930  -10.9720   17.4150 C   0  0  0  0  0  0  0  0  0  0  0  0
  -41.3400  -12.1520   16.6660 C   0  0  0  0  0  3  0  0  0  0  0  0
  -40.0690  -12.5250   16.1950 C   0  0  0  0  0  0  0  0  0  0  0  0
  -39.9300  -13.6510   15.4550 F   0  0  0  0  0  0  0  0  0  0  0  0
  -42.7180  -10.6120   17.8630 F   0  0  0  0  0  0  0  0  0  0  0  0
  -32.5760  -11.8820   20.2930 C   0  0  0  0  0  0  0  0  0  0  0  0
  -33.7470  -11.4670   20.7610 N   0  0  0  0  0  0  0  0  0  0  0  0
  -31.6010  -11.1300   20.2610 O   0  0  0  0  0  0  0  0  0  0  0  0
  -34.5410  -12.0880   20.8100 H   0  0  0  0  0  0  0  0  0  0  0  0
  -33.8510  -10.5140   21.0790 H   0  0  0  0  0  0  0  0  0  0  0  0
  -30.3390  -14.0920   20.9910 N   0  0  0  0  0  0  0  0  0  0  0  0
  -30.0920  -13.2390   21.4810 H   0  0  0  0  0  0  0  0  0  0  0  0
  -29.6770  -14.8430   21.1390 H   0  0  0  0  0  0  0  0  0  0  0  0
  -35.4600  -24.6500   16.9770 C   0  0  0  0  0  2  0  0  0  0  0  0
  -35.7960  -23.9280   15.6530 C   0  0  0  0  0  2  0  0  0  0  0  0
  -37.1590  -23.2010   15.6120 C   0  0  0  0  0  2  0  0  0  0  0  0
  -37.6500  -24.0940   13.3240 C   0  0  0  0  0  0  0  0  0  0  0  0
  -38.0380  -23.6260   14.5200 N   0  0  0  0  0  0  0  0  0  0  0  0
  -36.4740  -24.3710   13.0740 O   0  0  0  0  0  0  0  0  0  0  0  0
  -39.0250  -23.4340   14.6340 H   0  0  0  0  0  0  0  0  0  0  0  0
  -38.7510  -24.2540   12.2520 C   0  0  0  0  0  2  0  0  0  0  0  0
  -39.0000  -23.0300   11.5430 O   0  0  0  0  0  0  0  0  0  0  0  0
  -36.8430  -16.5920    9.5170 C   0  0  0  0  0  0  0  0  0  0  0  0
  -37.9330  -22.2910   11.0740 C   0  0  0  0  0  0  0  0  0  0  0  0
  -35.2820  -18.4440    9.0160 C   0  0  0  0  0  3  0  0  0  0  0  0
  -35.8170  -20.6760   10.1240 C   0  0  0  0  0  0  0  0  0  0  0  0
  -36.8840  -18.5910   11.0040 C   0  0  0  0  0  2  0  0  0  0  0  0
  -36.8880  -20.0920   10.8100 C   0  0  0  0  0  0  0  0  0  0  0  0
  -37.9410  -20.8970   11.2950 C   0  0  0  0  0  3  0  0  0  0  0  0
  -36.8420  -22.8670   10.3820 C   0  0  0  0  0  3  0  0  0  0  0  0
  -35.7880  -22.0640    9.9070 C   0  0  0  0  0  3  0  0  0  0  0  0
  -34.7240  -19.7490    9.6450 C   0  0  0  0  0  2  0  0  0  0  0  0
  -36.3840  -17.8370    9.8300 N   0  0  0  0  0  0  0  0  0  0  0  0
  -36.3370  -15.9350    8.5970 O   0  0  0  0  0  0  0  0  0  0  0  0
  -35.6900  -18.7370    7.5550 C   0  0  0  0  0  0  0  0  0  0  0  0
  -35.1800  -17.9230    6.6170 N   0  0  0  0  0  0  0  0  0  0  0  0
  -36.4210  -19.6930    7.2830 O   0  0  0  0  0  0  0  0  0  0  0  0
  -34.5930  -17.1590    6.9230 H   0  0  0  0  0  0  0  0  0  0  0  0
  -35.6280  -16.0020    3.5920 C   0  0  0  0  0  0  0  0  0  0  0  0
  -35.3970  -18.0320    5.1750 C   0  0  0  0  0  3  0  0  0  0  0  0
  -34.0730  -18.3290    4.4340 C   0  0  0  0  0  2  0  0  0  0  0  0
  -33.3590  -17.0660    3.9430 C   0  0  0  0  0  2  0  0  0  0  0  0
  -34.2610  -16.2770    2.9890 C   0  0  0  0  0  2  0  0  0  0  0  0
  -36.1550  -16.8160    4.6290 C   0  0  0  0  0  0  0  0  0  0  0  0
  -37.4150  -16.4960    5.1780 C   0  0  0  0  0  3  0  0  0  0  0  0
  -38.1450  -15.3880    4.7070 C   0  0  0  0  0  3  0  0  0  0  0  0
  -37.6260  -14.5950    3.6690 C   0  0  0  0  0  3  0  0  0  0  0  0
  -36.3730  -14.9040    3.1120 C   0  0  0  0  0  3  0  0  0  0  0  0
  -38.0090  -15.9260   10.3140 C   0  0  0  0  0  3  0  0  0  0  0  0
  -37.5590  -14.5870   10.7150 N   0  0  0  0  0  0  0  0  0  0  0  0
  -37.2460  -14.2350   11.9690 C   0  0  0  0  0  0  0  0  0  0  0  0
  -37.3750  -14.9960   12.9310 O   0  0  0  0  0  0  0  0  0  0  0  0
  -37.3770  -13.9290    9.9710 H   0  0  0  0  0  0  0  0  0  0  0  0
  -35.2330  -12.8840   12.6400 C   0  0  0  0  0  1  0  0  0  0  0  0
  -36.7000  -12.8100   12.1900 C   0  0  0  0  0  3  0  0  0  0  0  0
  -38.7940  -11.6190   12.6710 C   0  0  0  0  0  1  0  0  0  0  0  0
  -37.4830  -12.0270   13.1710 N   0  0  0  0  0  0  0  0  0  0  0  0
  -36.9760  -11.1920   13.4510 H   0  0  0  0  0  0  0  0  0  0  0  0
  -39.3550  -15.8420    9.4950 C   0  0  1  0  0  0  0  0  0  0  0  0
  -39.1940  -15.1990    8.0990 C   0  0  0  0  0  1  0  0  0  0  0  0
  -39.9620  -17.2510    9.2980 C   0  0  0  0  0  1  0  0  0  0  0  0
  -40.3990  -15.0160   10.2840 C   0  0  0  0  0  1  0  0  0  0  0  0
  1  3  1  0
  1  4  2  0
  2  3  1  0
  3 10  1  0
  6  5  1  0
  7  5  2  0
  8 10  2  0
  8  9  1  0
  9  6  2  0
 10  7  1  0
 11  8  1  0
 12 20  1  0
 13 18  1  0
 13 14  1  0
 14 15  1  0
 15 16  1  0
 16 17  1  0
 16 25  1  0
 18 17  1  0
 18 12  1  0
 19 12  2  0
 20  9  1  0
 20 21  1  0
 22 47  1  0
 23 22  2  0
 23 42  1  0
 24 23  1  0
 25 22  1  0
 26 24  2  0
 26 25  1  0
 27 28  1  0
 27 24  1  0
 29 28  2  0
 30 29  1  0
 31 30  2  0
 31 32  1  0
 32 27  2  0
 33 34  1  0
 33 30  1  0
 34 35  1  0
 35 36  2  0
 37 36  1  0
 37 41  1  0
 38 37  2  0
 39 34  2  0
 39 38  1  0
 40 39  1  0
 42 43  1  0
 43 45  1  0
 43 46  1  0
 44 42  2  0
 47 49  1  0
 47 48  1  0
 50  1  1  0
 51 50  1  0
 52 51  1  0
 53 54  1  0
 54 56  1  0
 54 52  1  0
 55 53  2  0
 57 53  1  0
 58 57  1  0
 59 69  1  0
 60 65  1  0
 60 58  1  0
 61 71  1  0
 61 68  1  0
 61 69  1  0
 62 64  1  0
 64 63  1  0
 64 65  2  0
 66 60  2  0
 67 62  2  0
 67 66  1  0
 68 62  1  0
 69 63  1  0
 70 59  2  0
 72 74  1  0
 72 71  1  0
 73 71  2  0
 75 80  1  0
 76 72  1  0
 77 76  1  0
 78 77  1  0
 79 75  1  0
 79 78  1  0
 80 76  1  0
 80 81  2  0
 82 81  1  0
 83 82  2  0
 84 75  2  0
 84 83  1  0
 85 59  1  0
 85 86  1  0
 86 87  1  0
 87 91  1  0
 87 88  2  0
 89 86  1  0
 91 90  1  0
 91 93  1  0
 92 93  1  0
 93 94  1  0
 95 98  1  1
 95 85  1  0
 96 95  1  0
 97 95  1  0
M  ISO  4  12 100  20 100  57 101  58 101
M  END
>  <TORSDO>  (64) 
F 22

>  <SCORE>  (64) 
-1.944

>  <name>  (64) 
63

>  <ligand_id>  (64) 
63

>  <original_smiles>  (64) 
[H]c1c([H])c(N([H])C(=O)N2C([H])([H])C([H])([H])C([H])([H])C([H])(n3nc(-c4c([H])c([H])c(Oc5c([H])c([H])c(F)c([H])c5F)c([H])c4[H])c(C(=O)N([H])[H])c3N([H])[H])C2([H])[H])c(C([H])([H])[H])c(N(C(=O)C([H])([H])C([H])([H])C([H])([H])N([H])C(=O)C([H])([H])Oc2c([H])c([H])c3c(c2[H])C([H])([H])N(C(=O)C([H])(N([H])C(=O)C([H])(N([H])C([H])([H])[H])C([H])([H])[H])C(C([H])([H])[H])(C([H])([H])[H])C([H])([H])[H])C([H])(C(=O)N([H])C2([H])c4c([H])c([H])c([H])c([H])c4C([H])([H])C([H])([H])C2([H])[H])C3([H])[H])C([H])([H])[H])c1[H]

>  <smiles>  (64) 
[H]c1c([H])c(N([H])C(=O)N2C([H])([H])C([H])([H])C([H])([H])C([H])(n3nc(-c4c([H])c([H])c(Oc5c([H])c([H])c(F)c([H])c5F)c([H])c4[H])c(C(=O)N([H])[H])c3N([H])[H])C2([H])[H])c(C([H])([H])[H])c(N(C(=O)C([H])([H])C([H])([H])C([H])([H])N([H])C(=O)C([H])([H])Oc2c([H])c([H])c3c(c2[H])C([H])([H])N(C(=O)C([H])(N([H])C(=O)C([H])(N([H])C([H])([H])[H])C([H])([H])[H])C(C([H])([H])[H])(C([H])([H])[H])C([H])([H])[H])C([H])(C(=O)N([H])C2([H])c4c([H])c([H])c([H])c([H])c4C([H])([H])C([H])([H])C2([H])[H])C3([H])[H])C([H])([H])[H])c1[H]

$$$$
64:0:0
     RDKit          3D

 96104  0  0  1  0  0  0  0  0999 V2000
  -29.1530  -21.0040   20.4480 C   0  0  0  0  0  3  0  0  0  0  0  0
  -29.7190  -19.8620   21.0470 C   0  0  0  0  0  3  0  0  0  0  0  0
  -30.1700  -22.3950   22.1520 C   0  0  0  0  0  3  0  0  0  0  0  0
  -29.3910  -22.2860   20.9770 C   0  0  0  0  0  0  0  0  0  0  0  0
  -30.5560  -19.9610   22.1860 C   0  0  0  0  0  0  0  0  0  0  0  0
  -30.7430  -21.2550   22.7490 C   0  0  0  0  0  0  0  0  0  0  0  0
  -31.4690  -21.4330   23.8820 F   0  0  0  0  0  0  0  0  0  0  0  0
  -28.9980  -24.7100   20.4690 C   0  0  0  0  0  0  0  0  0  0  0  0
  -28.8320  -23.3900   20.2730 N   0  0  0  0  0  0  0  0  0  0  0  0
  -29.5440  -25.2040   21.4610 O   0  0  0  0  0  0  0  0  0  0  0  0
  -28.3310  -23.1560   19.4260 H   0  0  0  0  0  0  0  0  0  0  0  0
  -28.4720  -25.6170   19.3510 C   0  0  0  0  0  2  0  0  0  0  0  0
  -28.3370  -26.9580   19.8290 O   0  0  0  0  0  0  0  0  0  0  0  0
  -24.5310  -31.8950   23.2200 C   0  0  0  0  0  0  0  0  0  0  0  0
  -27.1030  -27.5610   19.9340 C   0  0  0  0  0  0  0  0  0  0  0  0
  -23.2700  -30.5000   21.6150 C   0  0  0  0  0  3  0  0  0  0  0  0
  -24.6760  -29.0020   20.1090 C   0  0  0  0  0  0  0  0  0  0  0  0
  -25.7770  -30.9030   21.3070 C   0  0  0  0  0  2  0  0  0  0  0  0
  -25.8510  -29.5430   20.6450 C   0  0  0  0  0  0  0  0  0  0  0  0
  -27.0630  -28.8290   20.5550 C   0  0  0  0  0  3  0  0  0  0  0  0
  -25.9000  -27.0150   19.4220 C   0  0  0  0  0  3  0  0  0  0  0  0
  -24.6930  -27.7340   19.5060 C   0  0  0  0  0  3  0  0  0  0  0  0
  -23.4250  -29.8410   20.2190 C   0  0  0  0  0  2  0  0  0  0  0  0
  -24.5470  -31.1120   22.1050 N   0  0  0  0  0  0  0  0  0  0  0  0
  -23.4730  -32.1440   23.8130 O   0  0  0  0  0  0  0  0  0  0  0  0
  -22.6820  -29.4540   22.5870 C   0  0  0  0  0  0  0  0  0  0  0  0
  -21.3750  -29.1810   22.4490 N   0  0  0  0  0  0  0  0  0  0  0  0
  -23.3970  -28.8860   23.4150 O   0  0  0  0  0  0  0  0  0  0  0  0
  -20.8550  -29.6940   21.7500 H   0  0  0  0  0  0  0  0  0  0  0  0
  -18.1100  -27.6900   22.8510 C   0  0  0  0  0  0  0  0  0  0  0  0
  -20.6140  -28.2050   23.2280 C   0  0  0  0  0  3  0  0  0  0  0  0
  -20.8810  -26.7660   22.7300 C   0  0  0  0  0  2  0  0  0  0  0  0
  -19.8670  -26.2920   21.6830 C   0  0  0  0  0  2  0  0  0  0  0  0
  -18.4460  -26.3340   22.2540 C   0  0  0  0  0  2  0  0  0  0  0  0
  -19.1280  -28.5750   23.2930 C   0  0  0  0  0  0  0  0  0  0  0  0
  -18.7640  -29.8380   23.8070 C   0  0  0  0  0  3  0  0  0  0  0  0
  -17.4110  -30.2210   23.8850 C   0  0  0  0  0  3  0  0  0  0  0  0
  -16.4060  -29.3340   23.4610 C   0  0  0  0  0  3  0  0  0  0  0  0
  -16.7560  -28.0720   22.9500 C   0  0  0  0  0  3  0  0  0  0  0  0
  -25.8370  -32.5350   23.7900 C   0  0  0  0  0  3  0  0  0  0  0  0
  -25.5360  -33.9330   24.1200 N   0  0  0  0  0  0  0  0  0  0  0  0
  -25.8340  -34.9800   23.3410 C   0  0  0  0  0  0  0  0  0  0  0  0
  -26.4670  -34.8720   22.2860 O   0  0  0  0  0  0  0  0  0  0  0  0
  -24.9700  -34.0910   24.9420 H   0  0  0  0  0  0  0  0  0  0  0  0
  -24.0870  -36.7600   23.0280 C   0  0  0  0  0  1  0  0  0  0  0  0
  -25.3550  -36.3700   23.8020 C   0  0  0  0  0  3  0  0  0  0  0  0
  -27.5090  -37.2710   24.5630 C   0  0  0  0  0  1  0  0  0  0  0  0
  -26.3780  -37.4260   23.6510 N   0  0  0  0  0  0  0  0  0  0  0  0
  -25.9720  -38.3450   23.8040 H   0  0  0  0  0  0  0  0  0  0  0  0
  -26.4070  -31.7730   25.0480 C   0  0  1  0  0  0  0  0  0  0  0  0
  -25.3520  -31.5260   26.1520 C   0  0  0  0  0  1  0  0  0  0  0  0
  -26.9950  -30.4020   24.6370 C   0  0  0  0  0  1  0  0  0  0  0  0
  -27.5670  -32.5850   25.6710 C   0  0  0  0  0  1  0  0  0  0  0  0
  -32.4940  -18.9730   23.3660 C   0  0  0  0  0  1  0  0  0  0  0  0
  -31.1810  -18.8100   22.7360 N   0  0  0  0  0  0  0  0  0  0  0  0
  -30.8460  -17.4670   22.2600 C   0  0  0  0  0  2  0  0  0  0  0  0
  -31.6250  -17.0690   20.9880 C   0  0  0  0  0  2  0  0  0  0  0  0
  -32.0960  -15.6080   20.9890 C   0  0  0  0  0  2  0  0  0  0  0  0
  -31.0650  -13.9820   19.4240 C   0  0  0  0  0  0  0  0  0  0  0  0
  -30.4630  -11.8030   18.4520 C   0  0  0  0  0  2  0  0  0  0  0  0
  -29.3790  -11.8940   17.3670 C   0  0  0  0  0  2  0  0  0  0  0  0
  -27.9790  -11.8390   18.0000 C   0  0  0  0  0  2  0  0  0  0  0  0
  -27.8150  -12.8510   19.1630 C   0  0  0  0  0  3  0  0  0  0  0  0
  -28.9920  -12.7540   20.1590 C   0  0  0  0  0  2  0  0  0  0  0  0
  -30.2620  -12.8910   19.4180 N   0  0  0  0  0  0  0  0  0  0  0  0
  -31.8830  -14.2330   18.5340 O   0  0  0  0  0  0  0  0  0  0  0  0
  -31.0610  -14.6610   20.5750 N   0  0  0  0  0  0  0  0  0  0  0  0
  -30.4070  -14.3470   21.2770 H   0  0  0  0  0  0  0  0  0  0  0  0
  -25.6260  -13.6420   20.2660 C   0  0  0  0  0  0  0  0  0  0  0  0
  -24.5490  -12.9540   20.7580 C   0  0  0  0  0  0  0  0  0  0  0  0
  -24.8530  -11.5690   20.5850 C   0  0  0  0  0  0  0  0  0  0  0  0
  -26.5260  -12.6810   19.8320 N   0  0  0  0  0  0  0  0  0  0  0  0
  -26.0700  -11.4250   20.0770 N   0  0  0  0  0  0  0  0  0  0  0  0
  -24.0340  -10.3720   20.8210 C   0  0  0  0  0  0  0  0  0  0  0  0
  -24.4410   -9.3650   21.7230 C   0  0  0  0  0  3  0  0  0  0  0  0
  -23.6280   -8.2330   21.9470 C   0  0  0  0  0  3  0  0  0  0  0  0
  -22.3930   -8.1010   21.2690 C   0  0  0  0  0  0  0  0  0  0  0  0
  -22.0040   -9.0950   20.3540 C   0  0  0  0  0  3  0  0  0  0  0  0
  -22.8170  -10.2190   20.1290 C   0  0  0  0  0  3  0  0  0  0  0  0
  -21.5520   -7.0230   21.4030 O   0  0  0  0  0  0  0  0  0  0  0  0
  -21.4240   -6.3530   22.5930 C   0  0  0  0  0  0  0  0  0  0  0  0
  -21.0140   -7.0040   23.7750 C   0  0  0  0  0  3  0  0  0  0  0  0
  -20.8290   -6.2640   24.9600 C   0  0  0  0  0  3  0  0  0  0  0  0
  -21.0450   -4.8730   24.9630 C   0  0  0  0  0  0  0  0  0  0  0  0
  -21.4480   -4.2210   23.7840 C   0  0  0  0  0  3  0  0  0  0  0  0
  -21.6340   -4.9590   22.6020 C   0  0  0  0  0  0  0  0  0  0  0  0
  -22.0020   -4.3220   21.4630 F   0  0  0  0  0  0  0  0  0  0  0  0
  -20.8600   -4.1590   26.0990 F   0  0  0  0  0  0  0  0  0  0  0  0
  -23.2670  -13.5440   21.2720 C   0  0  0  0  0  0  0  0  0  0  0  0
  -22.6180  -12.8720   22.2150 N   0  0  0  0  0  0  0  0  0  0  0  0
  -22.8590  -14.6330   20.8700 O   0  0  0  0  0  0  0  0  0  0  0  0
  -22.9620  -11.9880   22.5590 H   0  0  0  0  0  0  0  0  0  0  0  0
  -21.7630  -13.2480   22.6010 H   0  0  0  0  0  0  0  0  0  0  0  0
  -25.9100  -14.9980   20.1360 N   0  0  0  0  0  0  0  0  0  0  0  0
  -25.2520  -15.7240   20.3970 H   0  0  0  0  0  0  0  0  0  0  0  0
  -26.7560  -15.3650   19.7150 H   0  0  0  0  0  0  0  0  0  0  0  0
  1  4  2  0
  1  2  1  0
  2  5  2  0
  3  6  2  0
  4  3  1  0
  5 55  1  0
  5  6  1  0
  6  7  1  0
  8 10  2  0
  9  8  1  0
  9  4  1  0
 11  9  1  0
 12 13  1  0
 12  8  1  0
 13 15  1  0
 14 25  2  0
 15 20  1  0
 16 24  1  0
 16 26  1  0
 17 23  1  0
 17 19  1  0
 18 24  1  0
 19 18  1  0
 20 19  2  0
 21 22  1  0
 21 15  2  0
 22 17  2  0
 23 16  1  0
 24 14  1  0
 26 28  2  0
 27 26  1  0
 29 27  1  0
 30 39  2  0
 30 35  1  0
 31 27  1  0
 31 35  1  0
 32 31  1  0
 33 34  1  0
 33 32  1  0
 34 30  1  0
 35 36  2  0
 36 37  1  0
 38 37  2  0
 39 38  1  0
 40 14  1  0
 40 41  1  0
 40 50  1  0
 41 44  1  0
 42 46  1  0
 42 41  1  0
 43 42  2  0
 46 45  1  0
 48 46  1  0
 48 49  1  0
 48 47  1  0
 50 53  1  1
 50 51  1  0
 52 50  1  0
 55 54  1  0
 56 55  1  0
 57 58  1  0
 57 56  1  0
 59 67  1  0
 60 65  1  0
 61 62  1  0
 61 60  1  0
 63 62  1  0
 63 72  1  0
 63 64  1  0
 65 59  1  0
 65 64  1  0
 66 59  2  0
 67 58  1  0
 67 68  1  0
 69 70  2  0
 70 89  1  0
 71 70  1  0
 71 74  1  0
 72 73  1  0
 72 69  1  0
 73 71  2  0
 74 75  1  0
 75 76  2  0
 77 80  1  0
 77 76  1  0
 78 77  2  0
 79 78  1  0
 79 74  2  0
 80 81  1  0
 81 86  2  0
 81 82  1  0
 82 83  2  0
 83 84  1  0
 84 88  1  0
 85 84  2  0
 86 85  1  0
 87 86  1  0
 89 90  1  0
 90 92  1  0
 90 93  1  0
 91 89  2  0
 94 69  1  0
 94 95  1  0
 96 94  1  0
M  ISO  4  12 101  13 101  59 100  67 100
M  END
>  <TORSDO>  (65) 
F 22

>  <SCORE>  (65) 
-10.628

>  <name>  (65) 
64

>  <ligand_id>  (65) 
64

>  <original_smiles>  (65) 
[H]c1c([H])c([H])c2c(c1[H])C([H])([H])C([H])([H])C([H])([H])C2([H])N([H])C(=O)C1([H])N(C(=O)C([H])(N([H])C(=O)C([H])(N([H])C([H])([H])[H])C([H])([H])[H])C(C([H])([H])[H])(C([H])([H])[H])C([H])([H])[H])C([H])([H])c2c([H])c(OC([H])([H])C(=O)N([H])c3c([H])c([H])c(N(C([H])([H])[H])C([H])([H])C([H])([H])C([H])([H])N([H])C(=O)N4C([H])([H])C([H])([H])C([H])([H])C([H])(n5nc(-c6c([H])c([H])c(Oc7c([H])c([H])c(F)c([H])c7F)c([H])c6[H])c(C(=O)N([H])[H])c5N([H])[H])C4([H])[H])c(F)c3[H])c([H])c([H])c2C1([H])[H]

>  <smiles>  (65) 
[H]c1c([H])c([H])c2c(c1[H])C([H])([H])C([H])([H])C([H])([H])C2([H])N([H])C(=O)C1([H])N(C(=O)C([H])(N([H])C(=O)C([H])(N([H])C([H])([H])[H])C([H])([H])[H])C(C([H])([H])[H])(C([H])([H])[H])C([H])([H])[H])C([H])([H])c2c([H])c(OC([H])([H])C(=O)N([H])c3c([H])c([H])c(N(C([H])([H])[H])C([H])([H])C([H])([H])C([H])([H])N([H])C(=O)N4C([H])([H])C([H])([H])C([H])([H])C([H])(n5nc(-c6c([H])c([H])c(Oc7c([H])c([H])c(F)c([H])c7F)c([H])c6[H])c(C(=O)N([H])[H])c5N([H])[H])C4([H])[H])c(F)c3[H])c([H])c([H])c2C1([H])[H]

$$$$
65:0:0
     RDKit          3D

 93101  0  0  1  0  0  0  0  0999 V2000
  -28.1380  -21.8460   19.1930 C   0  0  0  0  0  0  0  0  0  0  0  0
  -28.2540  -20.6450   19.7690 N   0  0  0  0  0  0  0  0  0  0  0  0
  -27.5920  -21.9600   18.0950 O   0  0  0  0  0  0  0  0  0  0  0  0
  -27.8410  -19.8650   19.2770 H   0  0  0  0  0  0  0  0  0  0  0  0
  -29.0150  -20.3060   20.9710 C   0  0  0  0  0  2  0  0  0  0  0  0
  -29.9350  -18.3190   19.6450 C   0  0  0  0  0  3  0  0  0  0  0  0
  -29.9450  -18.2310   22.0780 C   0  0  0  0  0  3  0  0  0  0  0  0
  -30.4510  -17.0110   19.5910 C   0  0  0  0  0  3  0  0  0  0  0  0
  -30.4570  -16.9210   22.0290 C   0  0  0  0  0  3  0  0  0  0  0  0
  -29.6480  -18.9250   20.8880 C   0  0  0  0  0  0  0  0  0  0  0  0
  -30.6880  -16.2930   20.7870 C   0  0  0  0  0  0  0  0  0  0  0  0
  -31.3610  -14.1870   19.7360 C   0  0  0  0  0  0  0  0  0  0  0  0
  -30.7530  -12.1560   18.4800 C   0  0  0  0  0  2  0  0  0  0  0  0
  -29.7190  -12.4940   17.3900 C   0  0  0  0  0  2  0  0  0  0  0  0
  -28.2870  -12.4530   17.9550 C   0  0  0  0  0  2  0  0  0  0  0  0
  -28.1440  -13.2610   19.2710 C   0  0  0  0  0  3  0  0  0  0  0  0
  -29.2690  -12.8920   20.2620 C   0  0  0  0  0  2  0  0  0  0  0  0
  -30.5750  -13.0890   19.5990 N   0  0  0  0  0  0  0  0  0  0  0  0
  -32.3070  -14.4540   18.9860 O   0  0  0  0  0  0  0  0  0  0  0  0
  -31.0810  -14.9310   20.8110 N   0  0  0  0  0  0  0  0  0  0  0  0
  -30.6440  -14.4010   21.5490 H   0  0  0  0  0  0  0  0  0  0  0  0
  -25.8760  -14.0270   20.2260 C   0  0  0  0  0  0  0  0  0  0  0  0
  -24.7910  -13.3250   20.6800 C   0  0  0  0  0  0  0  0  0  0  0  0
  -25.1360  -11.9440   20.5600 C   0  0  0  0  0  0  0  0  0  0  0  0
  -26.8210  -13.0780   19.8690 N   0  0  0  0  0  0  0  0  0  0  0  0
  -26.3810  -11.8180   20.1180 N   0  0  0  0  0  0  0  0  0  0  0  0
  -24.3320  -10.7350   20.7820 C   0  0  0  0  0  0  0  0  0  0  0  0
  -24.7050   -9.7690   21.7430 C   0  0  0  0  0  3  0  0  0  0  0  0
  -23.9070   -8.6230   21.9530 C   0  0  0  0  0  3  0  0  0  0  0  0
  -22.7230   -8.4350   21.2010 C   0  0  0  0  0  0  0  0  0  0  0  0
  -22.3680   -9.3890   20.2300 C   0  0  0  0  0  3  0  0  0  0  0  0
  -23.1660  -10.5270   20.0190 C   0  0  0  0  0  3  0  0  0  0  0  0
  -21.9000   -7.3410   21.3180 O   0  0  0  0  0  0  0  0  0  0  0  0
  -21.7270   -6.6950   22.5150 C   0  0  0  0  0  0  0  0  0  0  0  0
  -21.2450   -7.3660   23.6610 C   0  0  0  0  0  3  0  0  0  0  0  0
  -21.0140   -6.6500   24.8510 C   0  0  0  0  0  3  0  0  0  0  0  0
  -21.2560   -5.2640   24.8980 C   0  0  0  0  0  0  0  0  0  0  0  0
  -21.7310   -4.5930   23.7580 C   0  0  0  0  0  3  0  0  0  0  0  0
  -21.9630   -5.3070   22.5690 C   0  0  0  0  0  0  0  0  0  0  0  0
  -22.4000   -4.6510   21.4670 F   0  0  0  0  0  0  0  0  0  0  0  0
  -21.0270   -4.5750   26.0400 F   0  0  0  0  0  0  0  0  0  0  0  0
  -23.4700  -13.8970   21.1120 C   0  0  0  0  0  0  0  0  0  0  0  0
  -22.8000  -13.2480   22.0580 N   0  0  0  0  0  0  0  0  0  0  0  0
  -23.0480  -14.9550   20.6470 O   0  0  0  0  0  0  0  0  0  0  0  0
  -23.1540  -12.3910   22.4550 H   0  0  0  0  0  0  0  0  0  0  0  0
  -21.9230  -13.6190   22.3940 H   0  0  0  0  0  0  0  0  0  0  0  0
  -26.1270  -15.3870   20.0710 N   0  0  0  0  0  0  0  0  0  0  0  0
  -25.4210  -16.0920   20.2450 H   0  0  0  0  0  0  0  0  0  0  0  0
  -26.9770  -15.7690   19.6730 H   0  0  0  0  0  0  0  0  0  0  0  0
  -28.6600  -23.0800   19.9390 C   0  0  0  0  0  2  0  0  0  0  0  0
  -28.3890  -24.4150   19.2260 C   0  0  0  0  0  2  0  0  0  0  0  0
  -28.4530  -25.5860   20.2150 C   0  0  0  0  0  2  0  0  0  0  0  0
  -28.3820  -26.8410   19.5520 O   0  0  0  0  0  0  0  0  0  0  0  0
  -24.4640  -31.6900   22.9510 C   0  0  0  0  0  0  0  0  0  0  0  0
  -27.1740  -27.4850   19.6380 C   0  0  0  0  0  0  0  0  0  0  0  0
  -23.2610  -30.3150   21.2840 C   0  0  0  0  0  3  0  0  0  0  0  0
  -24.7260  -28.8770   19.7770 C   0  0  0  0  0  0  0  0  0  0  0  0
  -25.7640  -30.7680   21.0400 C   0  0  0  0  0  2  0  0  0  0  0  0
  -25.8780  -29.4260   20.3530 C   0  0  0  0  0  0  0  0  0  0  0  0
  -27.1070  -28.7360   20.2810 C   0  0  0  0  0  3  0  0  0  0  0  0
  -26.0040  -26.9360   19.0680 C   0  0  0  0  0  3  0  0  0  0  0  0
  -24.7800  -27.6260   19.1390 C   0  0  0  0  0  3  0  0  0  0  0  0
  -23.4590  -29.6910   19.8760 C   0  0  0  0  0  2  0  0  0  0  0  0
  -24.5150  -30.9360   21.8170 N   0  0  0  0  0  0  0  0  0  0  0  0
  -23.3880  -31.9090   23.5240 O   0  0  0  0  0  0  0  0  0  0  0  0
  -22.6630  -29.2400   22.2180 C   0  0  0  0  0  0  0  0  0  0  0  0
  -21.3400  -29.0340   22.1220 N   0  0  0  0  0  0  0  0  0  0  0  0
  -23.3860  -28.5920   22.9810 O   0  0  0  0  0  0  0  0  0  0  0  0
  -20.8180  -29.6150   21.4800 H   0  0  0  0  0  0  0  0  0  0  0  0
  -18.0050  -27.7660   22.6700 C   0  0  0  0  0  0  0  0  0  0  0  0
  -20.5650  -28.0460   22.8710 C   0  0  0  0  0  3  0  0  0  0  0  0
  -20.6690  -26.6470   22.2210 C   0  0  0  0  0  2  0  0  0  0  0  0
  -19.5360  -26.3560   21.2310 C   0  0  0  0  0  2  0  0  0  0  0  0
  -18.1760  -26.4510   21.9270 C   0  0  0  0  0  2  0  0  0  0  0  0
  -19.1270  -28.5220   23.1000 C   0  0  0  0  0  0  0  0  0  0  0  0
  -18.9110  -29.7530   23.7560 C   0  0  0  0  0  3  0  0  0  0  0  0
  -17.6060  -30.2270   23.9880 C   0  0  0  0  0  3  0  0  0  0  0  0
  -16.5000  -29.4680   23.5720 C   0  0  0  0  0  3  0  0  0  0  0  0
  -16.6990  -28.2380   22.9190 C   0  0  0  0  0  3  0  0  0  0  0  0
  -25.7480  -32.3330   23.5660 C   0  0  0  0  0  3  0  0  0  0  0  0
  -25.3920  -33.6850   24.0150 N   0  0  0  0  0  0  0  0  0  0  0  0
  -25.6580  -34.8070   23.3320 C   0  0  0  0  0  0  0  0  0  0  0  0
  -26.3030  -34.8120   22.2790 O   0  0  0  0  0  0  0  0  0  0  0  0
  -24.8170  -33.7510   24.8410 H   0  0  0  0  0  0  0  0  0  0  0  0
  -23.8480  -36.5430   23.1590 C   0  0  0  0  0  1  0  0  0  0  0  0
  -25.1260  -36.1320   23.9090 C   0  0  0  0  0  3  0  0  0  0  0  0
  -27.2410  -37.0420   24.7630 C   0  0  0  0  0  1  0  0  0  0  0  0
  -26.1100  -37.2340   23.8570 N   0  0  0  0  0  0  0  0  0  0  0  0
  -25.6690  -38.1210   24.0850 H   0  0  0  0  0  0  0  0  0  0  0  0
  -26.3580  -31.4890   24.7520 C   0  0  1  0  0  0  0  0  0  0  0  0
  -25.3280  -31.1150   25.8430 C   0  0  0  0  0  1  0  0  0  0  0  0
  -26.9820  -30.1770   24.2210 C   0  0  0  0  0  1  0  0  0  0  0  0
  -27.5000  -32.2840   25.4280 C   0  0  0  0  0  1  0  0  0  0  0  0
  1  2  1  0
  1 50  1  0
  2  5  1  0
  3  1  2  0
  4  2  1  0
  6 10  1  0
  8  6  2  0
  8 11  1  0
  9  7  1  0
 10  5  1  0
 10  7  2  0
 11 20  1  0
 11  9  2  0
 12 20  1  0
 13 18  1  0
 14 15  1  0
 14 13  1  0
 16 15  1  0
 16 25  1  0
 16 17  1  0
 18 12  1  0
 18 17  1  0
 19 12  2  0
 20 21  1  0
 22 23  2  0
 23 42  1  0
 24 23  1  0
 24 27  1  0
 25 26  1  0
 25 22  1  0
 26 24  2  0
 27 28  1  0
 28 29  2  0
 30 33  1  0
 30 29  1  0
 31 30  2  0
 32 31  1  0
 32 27  2  0
 33 34  1  0
 34 39  2  0
 34 35  1  0
 35 36  2  0
 36 37  1  0
 37 41  1  0
 38 37  2  0
 39 38  1  0
 40 39  1  0
 42 43  1  0
 43 46  1  0
 43 45  1  0
 44 42  2  0
 47 22  1  0
 47 48  1  0
 49 47  1  0
 51 50  1  0
 51 52  1  0
 53 55  1  0
 53 52  1  0
 54 65  2  0
 55 60  1  0
 56 64  1  0
 56 66  1  0
 57 63  1  0
 57 59  1  0
 58 64  1  0
 59 58  1  0
 60 59  2  0
 61 62  1  0
 61 55  2  0
 62 57  2  0
 63 56  1  0
 64 54  1  0
 66 68  2  0
 67 66  1  0
 69 67  1  0
 70 79  2  0
 70 75  1  0
 71 67  1  0
 71 75  1  0
 72 71  1  0
 73 74  1  0
 73 72  1  0
 74 70  1  0
 75 76  2  0
 76 77  1  0
 78 77  2  0
 79 78  1  0
 80 54  1  0
 80 81  1  0
 80 90  1  0
 81 84  1  0
 82 86  1  0
 82 81  1  0
 83 82  2  0
 86 85  1  0
 88 86  1  0
 88 89  1  0
 88 87  1  0
 90 93  1  1
 90 91  1  0
 92 90  1  0
M  ISO  4  12 100  20 100  52 101  53 101
M  END
>  <TORSDO>  (66) 
F 21

>  <SCORE>  (66) 
-11.807

>  <name>  (66) 
65

>  <ligand_id>  (66) 
65

>  <original_smiles>  (66) 
[H]c1c([H])c([H])c2c(c1[H])C([H])([H])C([H])([H])C([H])([H])C2([H])N([H])C(=O)C1([H])N(C(=O)C([H])(N([H])C(=O)C([H])(N([H])C([H])([H])[H])C([H])([H])[H])C(C([H])([H])[H])(C([H])([H])[H])C([H])([H])[H])C([H])([H])c2c([H])c(OC([H])([H])C([H])([H])C([H])([H])C(=O)N([H])C([H])([H])c3c([H])c([H])c(N([H])C(=O)N4C([H])([H])C([H])([H])C([H])([H])C([H])(n5nc(-c6c([H])c([H])c(Oc7c([H])c([H])c(F)c([H])c7F)c([H])c6[H])c(C(=O)N([H])[H])c5N([H])[H])C4([H])[H])c([H])c3[H])c([H])c([H])c2C1([H])[H]

>  <smiles>  (66) 
[H]c1c([H])c([H])c2c(c1[H])C([H])([H])C([H])([H])C([H])([H])C2([H])N([H])C(=O)C1([H])N(C(=O)C([H])(N([H])C(=O)C([H])(N([H])C([H])([H])[H])C([H])([H])[H])C(C([H])([H])[H])(C([H])([H])[H])C([H])([H])[H])C([H])([H])c2c([H])c(OC([H])([H])C([H])([H])C([H])([H])C(=O)N([H])C([H])([H])c3c([H])c([H])c(N([H])C(=O)N4C([H])([H])C([H])([H])C([H])([H])C([H])(n5nc(-c6c([H])c([H])c(Oc7c([H])c([H])c(F)c([H])c7F)c([H])c6[H])c(C(=O)N([H])[H])c5N([H])[H])C4([H])[H])c([H])c3[H])c([H])c([H])c2C1([H])[H]

$$$$
66:0:0
     RDKit          3D

109118  0  0  1  0  0  0  0  0999 V2000
  -30.7070  -18.3760   24.9750 C   0  0  0  0  0  1  0  0  0  0  0  0
  -30.5730  -18.7220   23.5630 N   0  0  0  0  0  0  0  0  0  0  0  0
  -29.9290  -16.2280   20.8860 C   0  0  0  0  0  3  0  0  0  0  0  0
  -32.1990  -15.9190   21.7060 C   0  0  0  0  0  3  0  0  0  0  0  0
  -29.7710  -17.3360   21.7390 C   0  0  0  0  0  3  0  0  0  0  0  0
  -32.0400  -17.0280   22.5610 C   0  0  0  0  0  3  0  0  0  0  0  0
  -31.1290  -15.4830   20.8950 C   0  0  0  0  0  0  0  0  0  0  0  0
  -30.8070  -17.7170   22.6130 C   0  0  0  0  0  0  0  0  0  0  0  0
  -30.6850  -14.0500   18.9770 C   0  0  0  0  0  0  0  0  0  0  0  0
  -30.0870  -11.8880   17.9660 C   0  0  0  0  0  2  0  0  0  0  0  0
  -28.8740  -11.8540   17.0280 C   0  0  0  0  0  2  0  0  0  0  0  0
  -27.5690  -11.6960   17.8270 C   0  0  0  0  0  2  0  0  0  0  0  0
  -27.4560  -12.7250   18.9780 C   0  0  0  0  0  3  0  0  0  0  0  0
  -28.7380  -12.7280   19.8320 C   0  0  0  0  0  2  0  0  0  0  0  0
  -29.9000  -12.9500   18.9590 N   0  0  0  0  0  0  0  0  0  0  0  0
  -31.2570  -14.5020   17.9760 O   0  0  0  0  0  0  0  0  0  0  0  0
  -31.2120  -14.2370   20.2100 N   0  0  0  0  0  0  0  0  0  0  0  0
  -25.4240  -13.3920   20.4200 C   0  0  0  0  0  0  0  0  0  0  0  0
  -24.4160  -12.6490   20.9790 C   0  0  0  0  0  0  0  0  0  0  0  0
  -24.6990  -11.2910   20.6460 C   0  0  0  0  0  0  0  0  0  0  0  0
  -26.2640  -12.4830   19.7920 N   0  0  0  0  0  0  0  0  0  0  0  0
  -25.8430  -11.2060   19.9800 N   0  0  0  0  0  0  0  0  0  0  0  0
  -23.9170  -10.0670   20.8740 C   0  0  0  0  0  0  0  0  0  0  0  0
  -24.4290   -8.9940   21.6330 C   0  0  0  0  0  3  0  0  0  0  0  0
  -23.6500   -7.8370   21.8540 C   0  0  0  0  0  3  0  0  0  0  0  0
  -22.3450   -7.7480   21.3170 C   0  0  0  0  0  0  0  0  0  0  0  0
  -21.8480   -8.8100   20.5410 C   0  0  0  0  0  3  0  0  0  0  0  0
  -22.6260   -9.9580   20.3170 C   0  0  0  0  0  3  0  0  0  0  0  0
  -21.5250   -6.6540   21.4580 O   0  0  0  0  0  0  0  0  0  0  0  0
  -21.5650   -5.8660   22.5790 C   0  0  0  0  0  0  0  0  0  0  0  0
  -21.2760   -6.3780   23.8630 C   0  0  0  0  0  3  0  0  0  0  0  0
  -21.2610   -5.5170   24.9780 C   0  0  0  0  0  3  0  0  0  0  0  0
  -21.5230   -4.1430   24.8120 C   0  0  0  0  0  0  0  0  0  0  0  0
  -21.8060   -3.6300   23.5330 C   0  0  0  0  0  3  0  0  0  0  0  0
  -21.8230   -4.4890   22.4210 C   0  0  0  0  0  0  0  0  0  0  0  0
  -22.0750   -3.9850   21.1880 F   0  0  0  0  0  0  0  0  0  0  0  0
  -21.5030   -3.3130   25.8820 F   0  0  0  0  0  0  0  0  0  0  0  0
  -23.2080  -13.1770   21.6990 C   0  0  0  0  0  0  0  0  0  0  0  0
  -22.7090  -12.4350   22.6830 N   0  0  0  0  0  0  0  0  0  0  0  0
  -22.7280  -14.2750   21.4240 O   0  0  0  0  0  0  0  0  0  0  0  0
  -23.1130  -11.5410   22.9200 H   0  0  0  0  0  0  0  0  0  0  0  0
  -21.9120  -12.7670   23.2080 H   0  0  0  0  0  0  0  0  0  0  0  0
  -25.6820  -14.7570   20.3780 N   0  0  0  0  0  0  0  0  0  0  0  0
  -25.0500  -15.4390   20.7860 H   0  0  0  0  0  0  0  0  0  0  0  0
  -26.4630  -15.1840   19.8940 H   0  0  0  0  0  0  0  0  0  0  0  0
  -32.2520  -13.2780   20.6330 C   0  0  0  0  0  2  0  0  0  0  0  0
  -31.6760  -12.1470   21.5140 C   0  0  0  0  0  2  0  0  0  0  0  0
  -32.2770  -10.7490   21.2460 C   0  0  0  0  0  2  0  0  0  0  0  0
  -35.8570  -10.2000   22.4740 C   0  0  0  0  0  3  0  0  0  0  0  0
  -36.5410  -10.4120   21.2660 C   0  0  0  0  0  3  0  0  0  0  0  0
  -34.4560  -10.3270   22.4830 C   0  0  0  0  0  3  0  0  0  0  0  0
  -35.8010  -10.7510   20.1190 C   0  0  0  0  0  0  0  0  0  0  0  0
  -33.7940  -10.6640   21.2880 C   0  0  0  0  0  0  0  0  0  0  0  0
  -36.4890  -10.9910   18.7930 C   0  0  0  0  0  1  0  0  0  0  0  0
  -34.4550  -10.8780   20.1270 N   0  0  0  0  0  0  0  0  0  0  0  0
  -30.4260  -20.1080   23.1330 C   0  0  0  0  0  2  0  0  0  0  0  0
  -30.9980  -20.3070   21.7230 C   0  0  0  0  0  2  0  0  0  0  0  0
  -30.5070  -21.5920   21.0420 C   0  0  0  0  0  2  0  0  0  0  0  0
  -30.4180  -21.4200   19.5180 C   0  0  0  0  0  2  0  0  0  0  0  0
  -30.3020  -22.7550   18.7660 C   0  0  0  0  0  2  0  0  0  0  0  0
  -30.0140  -22.5370   17.2650 C   0  0  0  0  0  2  0  0  0  0  0  0
  -28.7280  -23.1820   16.7000 C   0  0  0  0  0  2  0  0  0  0  0  0
  -27.5240  -23.2340   17.6620 C   0  0  0  0  0  0  0  0  0  0  0  0
  -27.1850  -20.7760   17.4910 C   0  0  0  0  0  1  0  0  0  0  0  0
  -26.7820  -22.1220   17.9040 N   0  0  0  0  0  0  0  0  0  0  0  0
  -27.2050  -24.3320   18.1240 O   0  0  0  0  0  0  0  0  0  0  0  0
  -25.4390  -22.2380   18.5030 C   0  0  0  0  0  2  0  0  0  0  0  0
  -24.4910  -22.9370   17.5130 C   0  0  0  0  0  2  0  0  0  0  0  0
  -23.1290  -22.8220   17.9110 O   0  0  0  0  0  0  0  0  0  0  0  0
  -23.1090  -28.0910   22.7300 C   0  0  0  0  0  0  0  0  0  0  0  0
  -22.5420  -23.9680   18.4010 C   0  0  0  0  0  0  0  0  0  0  0  0
  -21.0390  -27.8140   21.3990 C   0  0  0  0  0  3  0  0  0  0  0  0
  -21.2090  -26.2530   19.3880 C   0  0  0  0  0  0  0  0  0  0  0  0
  -23.3070  -27.1370   20.4410 C   0  0  0  0  0  2  0  0  0  0  0  0
  -22.5770  -26.0870   19.6320 C   0  0  0  0  0  0  0  0  0  0  0  0
  -23.2470  -24.9580   19.1310 C   0  0  0  0  0  3  0  0  0  0  0  0
  -21.1660  -24.1510   18.1620 C   0  0  0  0  0  3  0  0  0  0  0  0
  -20.4990  -25.2950   18.6470 C   0  0  0  0  0  3  0  0  0  0  0  0
  -20.5690  -27.4960   19.9530 C   0  0  0  0  0  2  0  0  0  0  0  0
  -22.5210  -27.6720   21.5750 N   0  0  0  0  0  0  0  0  0  0  0  0
  -22.4440  -28.6340   23.6250 O   0  0  0  0  0  0  0  0  0  0  0  0
  -20.2250  -26.9430   22.3840 C   0  0  0  0  0  0  0  0  0  0  0  0
  -18.9210  -27.2350   22.4940 N   0  0  0  0  0  0  0  0  0  0  0  0
  -20.7580  -26.0190   23.0040 O   0  0  0  0  0  0  0  0  0  0  0  0
  -18.5680  -28.0080   21.9500 H   0  0  0  0  0  0  0  0  0  0  0  0
  -15.3870  -26.9160   23.1940 C   0  0  0  0  0  0  0  0  0  0  0  0
  -17.9410  -26.5310   23.3220 C   0  0  0  0  0  3  0  0  0  0  0  0
  -17.6520  -25.1210   22.7590 C   0  0  0  0  0  2  0  0  0  0  0  0
  -16.4470  -25.0810   21.8130 C   0  0  0  0  0  2  0  0  0  0  0  0
  -15.1840  -25.5640   22.5300 C   0  0  0  0  0  2  0  0  0  0  0  0
  -16.6830  -27.3760   23.5490 C   0  0  0  0  0  0  0  0  0  0  0  0
  -16.8180  -28.6540   24.1330 C   0  0  0  0  0  3  0  0  0  0  0  0
  -15.6900  -29.4680   24.3530 C   0  0  0  0  0  3  0  0  0  0  0  0
  -14.4100  -28.9980   24.0170 C   0  0  0  0  0  3  0  0  0  0  0  0
  -14.2570  -27.7220   23.4470 C   0  0  0  0  0  3  0  0  0  0  0  0
  -24.6450  -27.9340   22.9720 C   0  0  0  0  0  3  0  0  0  0  0  0
  -25.0950  -29.1090   23.7280 N   0  0  0  0  0  0  0  0  0  0  0  0
  -25.7560  -30.1440   23.1940 C   0  0  0  0  0  0  0  0  0  0  0  0
  -26.1150  -30.1760   22.0130 O   0  0  0  0  0  0  0  0  0  0  0  0
  -24.7800  -29.1820   24.6840 H   0  0  0  0  0  0  0  0  0  0  0  0
  -24.9700  -32.4030   23.9620 C   0  0  0  0  0  1  0  0  0  0  0  0
  -26.0660  -31.3350   24.1200 C   0  0  0  0  0  3  0  0  0  0  0  0
  -28.4860  -31.2270   24.5150 C   0  0  0  0  0  1  0  0  0  0  0  0
  -27.3890  -31.9460   23.8710 N   0  0  0  0  0  0  0  0  0  0  0  0
  -27.4070  -32.9080   24.1920 H   0  0  0  0  0  0  0  0  0  0  0  0
  -25.0230  -26.6080   23.7360 C   0  0  1  0  0  0  0  0  0  0  0  0
  -24.2800  -26.4300   25.0820 C   0  0  0  0  0  1  0  0  0  0  0  0
  -24.7120  -25.3680   22.8720 C   0  0  0  0  0  1  0  0  0  0  0  0
  -26.5440  -26.5840   24.0230 C   0  0  0  0  0  1  0  0  0  0  0  0
  2  1  1  0
  3  7  2  0
  3  5  1  0
  4  6  2  0
  5  8  2  0
  6  8  1  0
  7  4  1  0
  8  2  1  0
  9 17  1  0
 10 15  1  0
 11 12  1  0
 11 10  1  0
 13 12  1  0
 13 21  1  0
 13 14  1  0
 15  9  1  0
 15 14  1  0
 16  9  2  0
 17 46  1  0
 17  7  1  0
 18 19  2  0
 19 38  1  0
 20 23  1  0
 20 19  1  0
 21 22  1  0
 21 18  1  0
 22 20  2  0
 23 24  1  0
 24 25  2  0
 26 29  1  0
 26 25  1  0
 27 26  2  0
 28 27  1  0
 28 23  2  0
 29 30  1  0
 30 31  1  0
 31 32  2  0
 33 32  1  0
 33 37  1  0
 34 33  2  0
 35 30  2  0
 35 34  1  0
 36 35  1  0
 38 39  1  0
 39 41  1  0
 39 42  1  0
 40 38  2  0
 43 18  1  0
 43 44  1  0
 45 43  1  0
 46 47  1  0
 48 53  1  0
 48 47  1  0
 49 51  1  0
 50 49  2  0
 52 55  2  0
 52 50  1  0
 53 51  2  0
 54 52  1  0
 55 53  1  0
 56  2  1  0
 57 56  1  0
 58 57  1  0
 59 58  1  0
 60 59  1  0
 61 60  1  0
 62 61  1  0
 62 63  1  0
 63 65  1  0
 63 66  2  0
 64 65  1  0
 65 67  1  0
 68 69  1  0
 68 67  1  0
 69 71  1  0
 70 81  2  0
 71 76  1  0
 72 80  1  0
 72 82  1  0
 73 75  1  0
 73 79  1  0
 74 80  1  0
 75 74  1  0
 76 75  2  0
 77 71  2  0
 77 78  1  0
 78 73  2  0
 79 72  1  0
 80 70  1  0
 82 83  1  0
 82 84  2  0
 85 83  1  0
 86 95  2  0
 86 91  1  0
 87 83  1  0
 87 91  1  0
 88 87  1  0
 89 90  1  0
 89 88  1  0
 90 86  1  0
 91 92  2  0
 92 93  1  0
 94 93  2  0
 95 94  1  0
 96 70  1  0
 96 97  1  0
 96106  1  0
 97100  1  0
 98 97  1  0
 98102  1  0
 99 98  2  0
102101  1  0
104102  1  0
104105  1  0
104103  1  0
106109  1  1
106107  1  0
108106  1  0
M  ISO  4   9 100  17 100  68 101  69 101
M  END
>  <TORSDO>  (67) 
F 31

>  <SCORE>  (67) 
-2.119

>  <name>  (67) 
66

>  <ligand_id>  (67) 
66

>  <original_smiles>  (67) 
[H]c1c(C([H])([H])[H])nc(C([H])([H])C([H])([H])C([H])([H])N(C(=O)N2C([H])([H])C([H])([H])C([H])([H])C([H])(n3nc(-c4c([H])c([H])c(Oc5c([H])c([H])c(F)c([H])c5F)c([H])c4[H])c(C(=O)N([H])[H])c3N([H])[H])C2([H])[H])c2c([H])c([H])c(N(C([H])([H])[H])C([H])([H])C([H])([H])C([H])([H])C([H])([H])C([H])([H])C([H])([H])C([H])([H])C(=O)N(C([H])([H])[H])C([H])([H])C([H])([H])Oc3c([H])c([H])c4c(c3[H])C([H])([H])N(C(=O)C([H])(N([H])C(=O)C([H])(N([H])C([H])([H])[H])C([H])([H])[H])C(C([H])([H])[H])(C([H])([H])[H])C([H])([H])[H])C([H])(C(=O)N([H])C3([H])c5c([H])c([H])c([H])c([H])c5C([H])([H])C([H])([H])C3([H])[H])C4([H])[H])c([H])c2[H])c([H])c1[H]

>  <smiles>  (67) 
[H]c1c(C([H])([H])[H])nc(C([H])([H])C([H])([H])C([H])([H])N(C(=O)N2C([H])([H])C([H])([H])C([H])([H])C([H])(n3nc(-c4c([H])c([H])c(Oc5c([H])c([H])c(F)c([H])c5F)c([H])c4[H])c(C(=O)N([H])[H])c3N([H])[H])C2([H])[H])c2c([H])c([H])c(N(C([H])([H])[H])C([H])([H])C([H])([H])C([H])([H])C([H])([H])C([H])([H])C([H])([H])C([H])([H])C(=O)N(C([H])([H])[H])C([H])([H])C([H])([H])Oc3c([H])c([H])c4c(c3[H])C([H])([H])N(C(=O)C([H])(N([H])C(=O)C([H])(N([H])C([H])([H])[H])C([H])([H])[H])C(C([H])([H])[H])(C([H])([H])[H])C([H])([H])[H])C([H])(C(=O)N([H])C3([H])c5c([H])c([H])c([H])c([H])c5C([H])([H])C([H])([H])C3([H])[H])C4([H])[H])c([H])c2[H])c([H])c1[H]

$$$$
67:0:0
     RDKit          3D

111118  0  0  1  0  0  0  0  0999 V2000
  -24.4720  -26.0650   19.9750 C   0  0  0  0  0  3  0  0  0  0  0  0
  -24.3960  -24.6670   19.8480 C   0  0  0  0  0  3  0  0  0  0  0  0
  -24.8140  -26.6180   21.2240 C   0  0  0  0  0  3  0  0  0  0  0  0
  -24.6360  -23.8700   20.9900 C   0  0  0  0  0  0  0  0  0  0  0  0
  -24.9670  -25.7810   22.3640 C   0  0  0  0  0  0  0  0  0  0  0  0
  -24.4190  -24.4700   22.2720 C   0  0  0  0  0  0  0  0  0  0  0  0
  -26.6060  -22.8080   19.9290 C   0  0  0  0  0  0  0  0  0  0  0  0
  -25.5060  -22.7340   20.7490 N   0  0  0  0  0  0  0  0  0  0  0  0
  -27.1860  -23.8750   19.7670 O   0  0  0  0  0  0  0  0  0  0  0  0
  -25.0950  -21.8200   20.8640 H   0  0  0  0  0  0  0  0  0  0  0  0
  -27.1460  -21.5280   19.1800 C   0  0  0  0  0  3  0  0  0  0  0  0
  -28.7200  -21.3130   19.1660 C   0  0  0  0  0  3  0  0  0  0  0  0
  -29.3230  -19.9730   18.5810 C   0  0  0  0  0  2  0  0  0  0  0  0
  -30.6890  -19.4940   19.2290 C   0  0  0  0  0  3  0  0  0  0  0  0
  -31.0070  -17.9460   19.2000 C   0  0  0  0  0  3  0  0  0  0  0  0
  -32.8270  -16.2370   19.8810 C   0  0  0  0  0  0  0  0  0  0  0  0
  -32.5630  -13.7680   19.6710 C   0  0  0  0  0  2  0  0  0  0  0  0
  -31.7470  -13.4420   18.4030 C   0  0  0  0  0  2  0  0  0  0  0  0
  -30.2410  -13.4710   18.7260 C   0  0  0  0  0  2  0  0  0  0  0  0
  -29.8250  -14.7510   19.4960 C   0  0  0  0  0  3  0  0  0  0  0  0
  -30.7670  -15.0130   20.6920 C   0  0  0  0  0  2  0  0  0  0  0  0
  -32.1290  -15.0920   20.1590 N   0  0  0  0  0  0  0  0  0  0  0  0
  -34.0210  -16.1860   19.5700 O   0  0  0  0  0  0  0  0  0  0  0  0
  -32.2190  -17.4570   19.9300 N   0  0  0  0  0  0  0  0  0  0  0  0
  -32.9260  -18.1730   20.0010 H   0  0  0  0  0  0  0  0  0  0  0  0
  -27.5430  -15.7520   20.1240 C   0  0  0  0  0  0  0  0  0  0  0  0
  -26.3420  -15.1700   20.4170 C   0  0  0  0  0  0  0  0  0  0  0  0
  -26.5630  -13.7600   20.3500 C   0  0  0  0  0  0  0  0  0  0  0  0
  -28.4290  -14.7080   19.9090 N   0  0  0  0  0  0  0  0  0  0  0  0
  -27.8410  -13.5040   20.1020 N   0  0  0  0  0  0  0  0  0  0  0  0
  -25.6240  -12.6390   20.4430 C   0  0  0  0  0  0  0  0  0  0  0  0
  -25.8810  -11.5290   21.2750 C   0  0  0  0  0  3  0  0  0  0  0  0
  -24.9550  -10.4690   21.3610 C   0  0  0  0  0  3  0  0  0  0  0  0
  -23.7520  -10.5160   20.6150 C   0  0  0  0  0  0  0  0  0  0  0  0
  -23.5120  -11.6130   19.7680 C   0  0  0  0  0  3  0  0  0  0  0  0
  -24.4390  -12.6650   19.6800 C   0  0  0  0  0  3  0  0  0  0  0  0
  -22.8050   -9.5220   20.6180 O   0  0  0  0  0  0  0  0  0  0  0  0
  -22.5460   -8.7790   21.7420 C   0  0  0  0  0  0  0  0  0  0  0  0
  -22.2520   -9.3840   22.9840 C   0  0  0  0  0  3  0  0  0  0  0  0
  -21.9230   -8.5840   24.0960 C   0  0  0  0  0  3  0  0  0  0  0  0
  -21.8790   -7.1830   23.9680 C   0  0  0  0  0  0  0  0  0  0  0  0
  -22.1670   -6.5790   22.7310 C   0  0  0  0  0  3  0  0  0  0  0  0
  -22.4970   -7.3760   21.6200 C   0  0  0  0  0  0  0  0  0  0  0  0
  -22.7520   -6.7910   20.4250 F   0  0  0  0  0  0  0  0  0  0  0  0
  -21.5560   -6.4140   25.0340 F   0  0  0  0  0  0  0  0  0  0  0  0
  -25.0370  -15.8750   20.6470 C   0  0  0  0  0  0  0  0  0  0  0  0
  -24.1440  -15.2750   21.4240 N   0  0  0  0  0  0  0  0  0  0  0  0
  -24.8220  -16.9880   20.1680 O   0  0  0  0  0  0  0  0  0  0  0  0
  -24.3330  -14.3720   21.8320 H   0  0  0  0  0  0  0  0  0  0  0  0
  -23.2650  -15.7280   21.6150 H   0  0  0  0  0  0  0  0  0  0  0  0
  -27.9410  -17.0780   19.9990 N   0  0  0  0  0  0  0  0  0  0  0  0
  -27.2810  -17.8440   20.0870 H   0  0  0  0  0  0  0  0  0  0  0  0
  -28.8500  -17.3730   19.6690 H   0  0  0  0  0  0  0  0  0  0  0  0
  -23.2540  -24.1320   23.0110 O   0  0  0  0  0  0  0  0  0  0  0  0
  -21.9410  -24.7660   22.7530 C   0  0  0  0  0  2  0  0  0  0  0  0
  -20.9140  -23.9430   21.8230 C   0  0  0  0  0  2  0  0  0  0  0  0
  -20.3370  -24.4860   20.4090 C   0  0  0  0  0  2  0  0  0  0  0  0
  -20.4480  -23.5330   19.1040 C   0  0  0  0  0  2  0  0  0  0  0  0
  -23.0910  -24.5250   16.4190 C   0  0  0  0  0  2  0  0  0  0  0  0
  -23.6290  -24.1200   14.9750 C   0  0  0  0  0  1  0  0  0  0  0  0
  -21.0800  -23.8630   17.6990 N   0  0  0  0  0  2  0  0  0  0  0  0
  -24.0630  -25.2870   16.7190 O   0  0  0  0  0  1  0  0  0  0  0  0
  -20.5140  -23.3990   17.0130 H   0  0  0  0  0  0  0  0  0  0  0  0
  -25.6700  -26.1760   23.4800 O   0  0  0  0  0  0  0  0  0  0  0  0
  -27.0050  -26.6730   23.2480 C   0  0  0  0  0  2  0  0  0  0  0  0
  -28.1760  -25.7300   23.6280 C   0  0  0  0  0  2  0  0  0  0  0  0
  -29.4840  -25.9900   22.8270 C   0  0  0  0  0  2  0  0  0  0  0  0
  -29.7660  -24.9470   21.7180 C   0  0  0  0  0  2  0  0  0  0  0  0
  -30.5970  -25.4530   20.5200 C   0  0  0  0  0  2  0  0  0  0  0  0
  -29.7340  -26.1610   19.4470 C   0  0  0  0  0  2  0  0  0  0  0  0
  -29.4380  -27.4290   20.0050 O   0  0  0  0  0  0  0  0  0  0  0  0
  -25.0570  -31.3420   23.8860 C   0  0  0  0  0  0  0  0  0  0  0  0
  -28.1900  -27.9980   19.9930 C   0  0  0  0  0  0  0  0  0  0  0  0
  -24.1900  -30.6540   21.6830 C   0  0  0  0  0  3  0  0  0  0  0  0
  -25.8190  -29.5330   20.1070 C   0  0  0  0  0  0  0  0  0  0  0  0
  -26.6960  -30.8670   22.0640 C   0  0  0  0  0  2  0  0  0  0  0  0
  -26.8350  -29.7430   21.0480 C   0  0  0  0  0  0  0  0  0  0  0  0
  -28.0020  -28.9530   21.0160 C   0  0  0  0  0  3  0  0  0  0  0  0
  -27.1640  -27.7920   19.0280 C   0  0  0  0  0  3  0  0  0  0  0  0
  -25.9770  -28.5670   19.0850 C   0  0  0  0  0  3  0  0  0  0  0  0
  -24.6390  -30.4760   20.1980 C   0  0  0  0  0  2  0  0  0  0  0  0
  -25.3220  -30.9550   22.6030 N   0  0  0  0  0  0  0  0  0  0  0  0
  -23.8960  -31.4780   24.2920 O   0  0  0  0  0  0  0  0  0  0  0  0
  -23.4130  -29.4030   22.0960 C   0  0  0  0  0  0  0  0  0  0  0  0
  -22.2000  -29.2500   21.5570 N   0  0  0  0  0  0  0  0  0  0  0  0
  -23.9080  -28.5830   22.8700 O   0  0  0  0  0  0  0  0  0  0  0  0
  -21.8460  -29.9500   20.9180 H   0  0  0  0  0  0  0  0  0  0  0  0
  -18.4970  -28.0910   21.3950 C   0  0  0  0  0  0  0  0  0  0  0  0
  -21.3570  -28.1480   21.8950 C   0  0  0  0  0  3  0  0  0  0  0  0
  -21.1420  -27.0480   20.8620 C   0  0  0  0  0  2  0  0  0  0  0  0
  -20.1010  -27.3020   19.7560 C   0  0  0  0  0  2  0  0  0  0  0  0
  -18.6490  -27.2180   20.2350 C   0  0  0  0  0  2  0  0  0  0  0  0
  -20.0970  -28.6480   22.3310 C   0  0  0  0  0  0  0  0  0  0  0  0
  -19.9750  -29.8600   23.8540 C   0  0  0  0  0  3  0  0  0  0  0  0
  -18.2320  -30.4730   24.4400 C   0  0  0  0  0  3  0  0  0  0  0  0
  -16.6290  -29.8770   23.5330 C   0  0  0  0  0  3  0  0  0  0  0  0
  -16.7620  -28.6860   21.9990 C   0  0  0  0  0  3  0  0  0  0  0  0
  -26.2150  -31.6390   24.8760 C   0  0  0  0  0  3  0  0  0  0  0  0
  -26.2040  -30.7220   26.1590 C   0  0  1  0  0  0  0  0  0  0  0  0
  -24.8380  -30.6800   26.8740 C   0  0  0  0  0  1  0  0  0  0  0  0
  -26.5840  -29.2670   25.8050 C   0  0  0  0  0  1  0  0  0  0  0  0
  -27.2710  -31.2290   27.1540 C   0  0  0  0  0  1  0  0  0  0  0  0
  -26.1000  -33.0560   25.2230 N   0  0  0  0  0  0  0  0  0  0  0  0
  -26.9180  -34.0160   24.7610 C   0  0  0  0  0  0  0  0  0  0  0  0
  -27.8870  -33.7840   24.0310 O   0  0  0  0  0  0  0  0  0  0  0  0
  -25.2900  -33.3450   25.7530 H   0  0  0  0  0  0  0  0  0  0  0  0
  -25.9460  -36.2020   24.0130 C   0  0  0  0  0  1  0  0  0  0  0  0
  -26.6130  -35.4600   25.1810 C   0  0  0  0  0  3  0  0  0  0  0  0
  -28.3620  -35.7080   26.8850 C   0  0  0  0  0  1  0  0  0  0  0  0
  -27.8110  -36.2100   25.6240 N   0  0  0  0  0  0  0  0  0  0  0  0
  -27.5970  -37.1960   25.7420 H   0  0  0  0  0  0  0  0  0  0  0  0
  1  3  1  0
  2  1  2  0
  2  4  1  0
  3  5  2  0
  4  6  2  3
  5 64  1  0
  6  5  1  0
  6 54  1  0
  7  8  1  0
  8 10  1  0
  8  4  1  0
  9  7  2  0
 11  7  1  0
 12 11  2  0
 13 12  1  0
 13 14  1  0
 15 14  2  0
 15 24  1  0
 16 24  1  0
 16 22  1  0
 17 22  1  0
 18 19  1  0
 18 17  1  0
 20 19  1  0
 20 29  1  0
 20 21  1  0
 22 21  1  0
 23 16  2  0
 24 25  1  0
 26 27  2  0
 27 46  1  0
 28 27  1  0
 28 31  1  0
 29 30  1  0
 29 26  1  0
 30 28  2  0
 31 32  1  0
 32 33  2  0
 34 37  1  0
 34 33  1  0
 35 34  2  0
 36 35  1  0
 36 31  2  0
 37 38  1  0
 38 39  1  0
 39 40  2  0
 41 40  1  0
 41 45  1  0
 42 41  2  0
 43 38  2  0
 43 42  1  0
 44 43  1  0
 46 47  1  0
 47 50  1  0
 47 49  1  0
 48 46  2  0
 51 52  1  0
 51 26  1  0
 53 51  1  0
 55 54  1  0
 56 55  1  0
 57 56  1  0
 58 57  1  0
 59 62  1  0
 60 59  1  0
 61 58  1  0
 63 61  1  0
 65 64  1  0
 65 66  1  0
 67 66  1  0
 68 67  1  0
 69 68  1  0
 70 71  1  0
 70 69  1  0
 72 83  2  0
 73 71  1  0
 73 78  1  0
 74 84  1  0
 74 82  1  0
 75 81  1  0
 75 77  1  0
 76 82  1  0
 77 76  1  0
 78 77  2  0
 79 80  1  0
 79 73  2  0
 80 75  2  0
 81 74  1  0
 82 72  1  0
 84 86  2  0
 85 84  1  0
 87 85  1  0
 88 97  2  0
 88 93  1  0
 89 85  1  0
 89 93  1  0
 90 89  1  0
 91 92  1  0
 91 90  1  0
 92 88  1  0
 93 94  2  0
 94 95  1  0
 96 95  2  0
 97 96  1  0
 98 72  1  0
 98103  1  0
 98 99  1  0
 99100  1  1
 99102  1  0
101 99  1  0
103106  1  0
104108  1  0
104103  1  0
105104  2  0
108107  1  0
108110  1  0
110111  1  0
110109  1  0
M  ISO  4  16 100  24 100  70 101  71 101
M  END
>  <TORSDO>  (68) 
F 35

>  <SCORE>  (68) 
-5.579

>  <name>  (68) 
67

>  <ligand_id>  (68) 
67

>  <original_smiles>  (68) 
[H]c1c([H])c(OC([H])([H])C([H])([H])C([H])([H])C([H])([H])C([H])([H])C([H])([H])Oc2c([H])c([H])c3c(c2[H])C([H])([H])N(C(=O)C([H])(N([H])C(=O)C([H])(N([H])C([H])([H])[H])C([H])([H])[H])C(C([H])([H])[H])(C([H])([H])[H])C([H])([H])[H])C([H])(C(=O)N([H])C2([H])c4c([H])c([H])c([H])c([H])c4C([H])([H])C([H])([H])C2([H])[H])C3([H])[H])c(OC([H])([H])C([H])([H])C([H])([H])C([H])([H])N([H])C(=O)C([H])([H])[H])c(N([H])C(=O)C([H])([H])C([H])([H])C([H])([H])C([H])([H])C([H])([H])N([H])C(=O)N2C([H])([H])C([H])([H])C([H])([H])C([H])(n3nc(-c4c([H])c([H])c(Oc5c([H])c([H])c(F)c([H])c5F)c([H])c4[H])c(C(=O)N([H])[H])c3N([H])[H])C2([H])[H])c1[H]

>  <smiles>  (68) 
[H]c1c([H])c(OC([H])([H])C([H])([H])C([H])([H])C([H])([H])C([H])([H])C([H])([H])Oc2c([H])c([H])c3c(c2[H])C([H])([H])N(C(=O)C([H])(N([H])C(=O)C([H])(N([H])C([H])([H])[H])C([H])([H])[H])C(C([H])([H])[H])(C([H])([H])[H])C([H])([H])[H])C([H])(C(=O)N([H])C2([H])c4c([H])c([H])c([H])c([H])c4C([H])([H])C([H])([H])C2([H])[H])C3([H])[H])c(OC([H])([H])C([H])([H])C([H])([H])C([H])([H])N([H])C(=O)C([H])([H])[H])c(N([H])C(=O)C([H])([H])C([H])([H])C([H])([H])C([H])([H])C([H])([H])N([H])C(=O)N2C([H])([H])C([H])([H])C([H])([H])C([H])(n3nc(-c4c([H])c([H])c(Oc5c([H])c([H])c(F)c([H])c5F)c([H])c4[H])c(C(=O)N([H])[H])c3N([H])[H])C2([H])[H])c1[H]

$$$$
68:0:0
     RDKit          3D

 98106  0  0  1  0  0  0  0  0999 V2000
  -32.3770  -20.3670   23.9850 C   0  0  0  0  0  2  0  0  0  0  0  0
  -32.8520  -19.8290   25.3480 C   0  0  0  0  0  2  0  0  0  0  0  0
  -33.9770  -17.8940   26.4900 C   0  0  0  0  0  1  0  0  0  0  0  0
  -33.3350  -18.4450   25.3010 N   0  0  0  0  0  0  0  0  0  0  0  0
  -32.3680  -16.4980   22.2960 C   0  0  0  0  0  3  0  0  0  0  0  0
  -33.0450  -17.3630   23.1700 C   0  0  0  0  0  3  0  0  0  0  0  0
  -30.8330  -15.9140   24.0880 C   0  0  0  0  0  3  0  0  0  0  0  0
  -31.4950  -16.7990   24.9660 C   0  0  0  0  0  0  0  0  0  0  0  0
  -31.2560  -15.7540   22.7510 C   0  0  0  0  0  0  0  0  0  0  0  0
  -32.6210  -17.5310   24.5050 C   0  0  0  0  0  0  0  0  0  0  0  0
  -30.9670  -16.9340   26.3860 C   0  0  0  0  0  1  0  0  0  0  0  0
  -30.8120  -14.2950   20.7530 C   0  0  0  0  0  0  0  0  0  0  0  0
  -30.4090  -12.2890   19.3730 C   0  0  0  0  0  2  0  0  0  0  0  0
  -29.4720  -12.5440   18.1800 C   0  0  0  0  0  2  0  0  0  0  0  0
  -28.0010  -12.3870   18.6030 C   0  0  0  0  0  2  0  0  0  0  0  0
  -27.6650  -13.2010   19.8770 C   0  0  0  0  0  3  0  0  0  0  0  0
  -28.7010  -12.9350   20.9900 C   0  0  0  0  0  2  0  0  0  0  0  0
  -30.0510  -13.2120   20.4590 N   0  0  0  0  0  0  0  0  0  0  0  0
  -31.7540  -14.6630   20.0440 O   0  0  0  0  0  0  0  0  0  0  0  0
  -30.5230  -14.8370   21.9480 N   0  0  0  0  0  0  0  0  0  0  0  0
  -29.7320  -14.4030   22.3980 H   0  0  0  0  0  0  0  0  0  0  0  0
  -25.2600  -13.8150   20.5670 C   0  0  0  0  0  0  0  0  0  0  0  0
  -24.1830  -13.0440   20.9160 C   0  0  0  0  0  0  0  0  0  0  0  0
  -24.6380  -11.6900   20.8720 C   0  0  0  0  0  0  0  0  0  0  0  0
  -26.3030  -12.9320   20.3370 N   0  0  0  0  0  0  0  0  0  0  0  0
  -25.9300  -11.6480   20.5740 N   0  0  0  0  0  0  0  0  0  0  0  0
  -23.9040  -10.4290   21.0400 C   0  0  0  0  0  0  0  0  0  0  0  0
  -24.3600   -9.4210   21.9180 C   0  0  0  0  0  3  0  0  0  0  0  0
  -23.6280   -8.2240   22.0750 C   0  0  0  0  0  3  0  0  0  0  0  0
  -22.4270   -8.0280   21.3540 C   0  0  0  0  0  0  0  0  0  0  0  0
  -21.9890   -9.0250   20.4650 C   0  0  0  0  0  3  0  0  0  0  0  0
  -22.7220  -10.2130   20.3050 C   0  0  0  0  0  3  0  0  0  0  0  0
  -21.6630   -6.8870   21.4240 O   0  0  0  0  0  0  0  0  0  0  0  0
  -21.6850   -6.0740   22.5270 C   0  0  0  0  0  0  0  0  0  0  0  0
  -21.4010   -6.5640   23.8210 C   0  0  0  0  0  3  0  0  0  0  0  0
  -21.3660   -5.6790   24.9170 C   0  0  0  0  0  3  0  0  0  0  0  0
  -21.6040   -4.3050   24.7220 C   0  0  0  0  0  0  0  0  0  0  0  0
  -21.8820   -3.8150   23.4340 C   0  0  0  0  0  3  0  0  0  0  0  0
  -21.9190   -4.6960   22.3400 C   0  0  0  0  0  0  0  0  0  0  0  0
  -22.1660   -4.2150   21.0980 F   0  0  0  0  0  0  0  0  0  0  0  0
  -21.5630   -3.4540   25.7740 F   0  0  0  0  0  0  0  0  0  0  0  0
  -22.7860  -13.5240   21.1840 C   0  0  0  0  0  0  0  0  0  0  0  0
  -22.0500  -12.8240   22.0410 N   0  0  0  0  0  0  0  0  0  0  0  0
  -22.3550  -14.5570   20.6720 O   0  0  0  0  0  0  0  0  0  0  0  0
  -22.4110  -11.9870   22.4760 H   0  0  0  0  0  0  0  0  0  0  0  0
  -21.1140  -13.1290   22.2660 H   0  0  0  0  0  0  0  0  0  0  0  0
  -25.4370  -15.1870   20.4100 N   0  0  0  0  0  0  0  0  0  0  0  0
  -24.6790  -15.8520   20.5170 H   0  0  0  0  0  0  0  0  0  0  0  0
  -26.3060  -15.6190   20.1190 H   0  0  0  0  0  0  0  0  0  0  0  0
  -32.0770  -21.8770   23.9770 C   0  0  0  0  0  2  0  0  0  0  0  0
  -30.4210  -23.1960   22.6950 C   0  0  0  0  0  0  0  0  0  0  0  0
  -32.1000  -21.7970   21.4900 C   0  0  0  0  0  1  0  0  0  0  0  0
  -31.4690  -22.3320   22.7090 N   0  0  0  0  0  0  0  0  0  0  0  0
  -29.8820  -23.6020   23.7290 O   0  0  0  0  0  0  0  0  0  0  0  0
  -29.8970  -23.7040   21.3420 C   0  0  0  0  0  2  0  0  0  0  0  0
  -28.8610  -24.8400   21.4320 C   0  0  0  0  0  2  0  0  0  0  0  0
  -28.4920  -25.3780   20.0390 C   0  0  0  0  0  2  0  0  0  0  0  0
  -28.4400  -26.8010   20.0750 O   0  0  0  0  0  0  0  0  0  0  0  0
  -24.6100  -31.8700   23.2110 C   0  0  0  0  0  0  0  0  0  0  0  0
  -27.2310  -27.4570   20.0930 C   0  0  0  0  0  0  0  0  0  0  0  0
  -23.3970  -30.4970   21.5490 C   0  0  0  0  0  3  0  0  0  0  0  0
  -24.8400  -28.9640   20.1160 C   0  0  0  0  0  0  0  0  0  0  0  0
  -25.9230  -30.8430   21.3600 C   0  0  0  0  0  2  0  0  0  0  0  0
  -25.9970  -29.4770   20.7120 C   0  0  0  0  0  0  0  0  0  0  0  0
  -27.1920  -28.7300   20.6980 C   0  0  0  0  0  3  0  0  0  0  0  0
  -26.0570  -26.9530   19.4860 C   0  0  0  0  0  3  0  0  0  0  0  0
  -24.8630  -27.6990   19.5050 C   0  0  0  0  0  3  0  0  0  0  0  0
  -23.6030  -29.8320   20.1620 C   0  0  0  0  0  2  0  0  0  0  0  0
  -24.6620  -31.0840   22.0990 N   0  0  0  0  0  0  0  0  0  0  0  0
  -23.5300  -32.1450   23.7520 O   0  0  0  0  0  0  0  0  0  0  0  0
  -22.7390  -29.4680   22.4960 C   0  0  0  0  0  0  0  0  0  0  0  0
  -21.4120  -29.3050   22.3720 N   0  0  0  0  0  0  0  0  0  0  0  0
  -23.4180  -28.8200   23.2990 O   0  0  0  0  0  0  0  0  0  0  0  0
  -20.9260  -29.8820   21.6980 H   0  0  0  0  0  0  0  0  0  0  0  0
  -18.0280  -28.1390   22.8480 C   0  0  0  0  0  0  0  0  0  0  0  0
  -20.5860  -28.3670   23.1300 C   0  0  0  0  0  3  0  0  0  0  0  0
  -20.6770  -26.9400   22.5410 C   0  0  0  0  0  2  0  0  0  0  0  0
  -19.5770  -26.6370   21.5220 C   0  0  0  0  0  2  0  0  0  0  0  0
  -18.1940  -26.7930   22.1610 C   0  0  0  0  0  2  0  0  0  0  0  0
  -19.1530  -28.8840   23.2900 C   0  0  0  0  0  0  0  0  0  0  0  0
  -18.9470  -30.1440   23.8910 C   0  0  0  0  0  3  0  0  0  0  0  0
  -17.6480  -30.6580   24.0570 C   0  0  0  0  0  3  0  0  0  0  0  0
  -16.5360  -29.9100   23.6320 C   0  0  0  0  0  3  0  0  0  0  0  0
  -16.7270  -28.6520   23.0320 C   0  0  0  0  0  3  0  0  0  0  0  0
  -25.9010  -32.4840   23.8400 C   0  0  0  0  0  3  0  0  0  0  0  0
  -25.5880  -33.8630   24.2330 N   0  0  0  0  0  0  0  0  0  0  0  0
  -25.9030  -34.9490   23.5140 C   0  0  0  0  0  0  0  0  0  0  0  0
  -26.5600  -34.8940   22.4710 O   0  0  0  0  0  0  0  0  0  0  0  0
  -25.0020  -33.9790   25.0470 H   0  0  0  0  0  0  0  0  0  0  0  0
  -24.1490  -36.7310   23.2650 C   0  0  0  0  0  1  0  0  0  0  0  0
  -25.4110  -36.3130   24.0350 C   0  0  0  0  0  3  0  0  0  0  0  0
  -27.5590  -37.1810   24.8470 C   0  0  0  0  0  1  0  0  0  0  0  0
  -26.4310  -37.3800   23.9420 N   0  0  0  0  0  0  0  0  0  0  0  0
  -26.0210  -38.2890   24.1420 H   0  0  0  0  0  0  0  0  0  0  0  0
  -26.4440  -31.6610   25.0710 C   0  0  1  0  0  0  0  0  0  0  0  0
  -25.3720  -31.3710   26.1470 C   0  0  0  0  0  1  0  0  0  0  0  0
  -27.0270  -30.3070   24.6030 C   0  0  0  0  0  1  0  0  0  0  0  0
  -27.6030  -32.4310   25.7470 C   0  0  0  0  0  1  0  0  0  0  0  0
  1  2  1  0
  4  2  1  0
  4  3  1  0
  5  9  2  0
  5  6  1  0
  6 10  2  0
  7  8  2  0
  8 11  1  0
  9  7  1  0
 10  8  1  0
 10  4  1  0
 12 20  1  0
 13 18  1  0
 14 15  1  0
 14 13  1  0
 16 15  1  0
 16 25  1  0
 16 17  1  0
 18 12  1  0
 18 17  1  0
 19 12  2  0
 20 21  1  0
 20  9  1  0
 22 23  2  0
 23 42  1  0
 24 23  1  0
 24 27  1  0
 25 22  1  0
 25 26  1  0
 26 24  2  0
 27 28  1  0
 28 29  2  0
 30 33  1  0
 30 29  1  0
 31 30  2  0
 32 31  1  0
 32 27  2  0
 33 34  1  0
 34 35  1  0
 35 36  2  0
 37 36  1  0
 37 41  1  0
 38 37  2  0
 39 34  2  0
 39 38  1  0
 40 39  1  0
 42 43  1  0
 43 46  1  0
 43 45  1  0
 44 42  2  0
 47 48  1  0
 47 22  1  0
 49 47  1  0
 50  1  1  0
 51 53  1  0
 51 54  2  0
 52 53  1  0
 53 50  1  0
 55 56  1  0
 55 51  1  0
 57 58  1  0
 57 56  1  0
 58 60  1  0
 59 70  2  0
 60 65  1  0
 61 69  1  0
 61 71  1  0
 62 68  1  0
 62 64  1  0
 63 69  1  0
 64 63  1  0
 65 64  2  0
 66 67  1  0
 66 60  2  0
 67 62  2  0
 68 61  1  0
 69 59  1  0
 71 73  2  0
 72 71  1  0
 74 72  1  0
 75 84  2  0
 75 80  1  0
 76 72  1  0
 76 80  1  0
 77 76  1  0
 78 79  1  0
 78 77  1  0
 79 75  1  0
 80 81  2  0
 81 82  1  0
 83 82  2  0
 84 83  1  0
 85 59  1  0
 85 86  1  0
 85 95  1  0
 86 89  1  0
 87 91  1  0
 87 86  1  0
 88 87  2  0
 91 90  1  0
 93 91  1  0
 93 94  1  0
 93 92  1  0
 95 98  1  1
 95 96  1  0
 97 95  1  0
M  ISO  4  12 100  20 100  57 101  58 101
M  END
>  <TORSDO>  (69) 
F 24

>  <SCORE>  (69) 
42.329

>  <name>  (69) 
68

>  <ligand_id>  (69) 
68

>  <original_smiles>  (69) 
[H]c1c([H])c([H])c2c(c1[H])C([H])([H])C([H])([H])C([H])([H])C2([H])N([H])C(=O)C1([H])N(C(=O)C([H])(N([H])C(=O)C([H])(N([H])C([H])([H])[H])C([H])([H])[H])C(C([H])([H])[H])(C([H])([H])[H])C([H])([H])[H])C([H])([H])c2c([H])c(OC([H])([H])C([H])([H])C([H])([H])C(=O)N(C([H])([H])[H])C([H])([H])C([H])([H])C([H])([H])N(c3c([H])c([H])c(N([H])C(=O)N4C([H])([H])C([H])([H])C([H])([H])C([H])(n5nc(-c6c([H])c([H])c(Oc7c([H])c([H])c(F)c([H])c7F)c([H])c6[H])c(C(=O)N([H])[H])c5N([H])[H])C4([H])[H])c([H])c3C([H])([H])[H])C([H])([H])[H])c([H])c([H])c2C1([H])[H]

>  <smiles>  (69) 
[H]c1c([H])c([H])c2c(c1[H])C([H])([H])C([H])([H])C([H])([H])C2([H])N([H])C(=O)C1([H])N(C(=O)C([H])(N([H])C(=O)C([H])(N([H])C([H])([H])[H])C([H])([H])[H])C(C([H])([H])[H])(C([H])([H])[H])C([H])([H])[H])C([H])([H])c2c([H])c(OC([H])([H])C([H])([H])C([H])([H])C(=O)N(C([H])([H])[H])C([H])([H])C([H])([H])C([H])([H])N(c3c([H])c([H])c(N([H])C(=O)N4C([H])([H])C([H])([H])C([H])([H])C([H])(n5nc(-c6c([H])c([H])c(Oc7c([H])c([H])c(F)c([H])c7F)c([H])c6[H])c(C(=O)N([H])[H])c5N([H])[H])C4([H])[H])c([H])c3C([H])([H])[H])C([H])([H])[H])c([H])c([H])c2C1([H])[H]

$$$$
69:0:0
     RDKit          3D

 99107  0  0  1  0  0  0  0  0999 V2000
  -25.5400  -24.1200   16.6950 C   0  0  0  0  0  0  0  0  0  0  0  0
  -23.6160  -22.7240   16.3110 C   0  0  0  0  0  1  0  0  0  0  0  0
  -24.9710  -22.9130   16.8310 N   0  0  0  0  0  0  0  0  0  0  0  0
  -25.4240  -24.9960   17.5530 O   0  0  0  0  0  0  0  0  0  0  0  0
  -25.4220  -21.9920   17.8810 C   0  0  0  0  0  2  0  0  0  0  0  0
  -26.0980  -20.7560   17.2550 C   0  0  0  0  0  2  0  0  0  0  0  0
  -26.6920  -19.7800   18.2790 C   0  0  0  0  0  2  0  0  0  0  0  0
  -28.0150  -20.1620   18.6500 O   0  0  0  0  0  0  0  0  0  0  0  0
  -30.5000  -17.4820   19.1470 C   0  0  0  0  0  3  0  0  0  0  0  0
  -29.8770  -18.6470   18.6480 C   0  0  0  0  0  3  0  0  0  0  0  0
  -28.8370  -17.3560   20.9240 C   0  0  0  0  0  3  0  0  0  0  0  0
  -29.9620  -16.8100   20.2720 C   0  0  0  0  0  0  0  0  0  0  0  0
  -28.6970  -19.1320   19.2490 C   0  0  0  0  0  0  0  0  0  0  0  0
  -28.2000  -18.5030   20.4120 C   0  0  0  0  0  0  0  0  0  0  0  0
  -27.0880  -18.9770   21.0210 F   0  0  0  0  0  0  0  0  0  0  0  0
  -31.0710  -14.6560   19.9840 C   0  0  0  0  0  0  0  0  0  0  0  0
  -30.6320  -12.6080   18.7030 C   0  0  0  0  0  2  0  0  0  0  0  0
  -29.5970  -12.9200   17.6010 C   0  0  0  0  0  2  0  0  0  0  0  0
  -28.1610  -12.7820   18.1420 C   0  0  0  0  0  2  0  0  0  0  0  0
  -27.9520  -13.5310   19.4830 C   0  0  0  0  0  3  0  0  0  0  0  0
  -29.0800  -13.1880   20.4810 C   0  0  0  0  0  2  0  0  0  0  0  0
  -30.3720  -13.4990   19.8410 N   0  0  0  0  0  0  0  0  0  0  0  0
  -32.1240  -14.8930   19.3850 O   0  0  0  0  0  0  0  0  0  0  0  0
  -30.4740  -15.5740   20.7620 N   0  0  0  0  0  0  0  0  0  0  0  0
  -29.8910  -15.1480   21.4670 H   0  0  0  0  0  0  0  0  0  0  0  0
  -25.6270  -14.1490   20.4000 C   0  0  0  0  0  0  0  0  0  0  0  0
  -24.5760  -13.3770   20.8150 C   0  0  0  0  0  0  0  0  0  0  0  0
  -25.0050  -12.0220   20.6820 C   0  0  0  0  0  0  0  0  0  0  0  0
  -26.6330  -13.2620   20.0460 N   0  0  0  0  0  0  0  0  0  0  0  0
  -26.2640  -11.9760   20.2680 N   0  0  0  0  0  0  0  0  0  0  0  0
  -24.2720  -10.7640   20.8660 C   0  0  0  0  0  0  0  0  0  0  0  0
  -24.6580   -9.8210   21.8440 C   0  0  0  0  0  3  0  0  0  0  0  0
  -23.9310   -8.6220   22.0080 C   0  0  0  0  0  3  0  0  0  0  0  0
  -22.8000   -8.3610   21.1970 C   0  0  0  0  0  0  0  0  0  0  0  0
  -22.4360   -9.2930   20.2090 C   0  0  0  0  0  3  0  0  0  0  0  0
  -23.1650  -10.4830   20.0410 C   0  0  0  0  0  3  0  0  0  0  0  0
  -22.0410   -7.2200   21.2760 O   0  0  0  0  0  0  0  0  0  0  0  0
  -21.7920   -6.6030   22.4770 C   0  0  0  0  0  0  0  0  0  0  0  0
  -21.0990   -7.2520   23.5230 C   0  0  0  0  0  3  0  0  0  0  0  0
  -20.8030   -6.5530   24.7100 C   0  0  0  0  0  3  0  0  0  0  0  0
  -21.1900   -5.2060   24.8510 C   0  0  0  0  0  0  0  0  0  0  0  0
  -21.8760   -4.5590   23.8090 C   0  0  0  0  0  3  0  0  0  0  0  0
  -22.1690   -5.2530   22.6250 C   0  0  0  0  0  0  0  0  0  0  0  0
  -22.8110   -4.6140   21.6150 F   0  0  0  0  0  0  0  0  0  0  0  0
  -20.8960   -4.5340   25.9890 F   0  0  0  0  0  0  0  0  0  0  0  0
  -23.2130  -13.8640   21.2240 C   0  0  0  0  0  0  0  0  0  0  0  0
  -22.5520  -13.1450   22.1270 N   0  0  0  0  0  0  0  0  0  0  0  0
  -22.7540  -14.9150   20.7820 O   0  0  0  0  0  0  0  0  0  0  0  0
  -22.9430  -12.3000   22.5140 H   0  0  0  0  0  0  0  0  0  0  0  0
  -21.6380  -13.4430   22.4390 H   0  0  0  0  0  0  0  0  0  0  0  0
  -25.7990  -15.5250   20.2770 N   0  0  0  0  0  0  0  0  0  0  0  0
  -25.0610  -16.1850   20.4990 H   0  0  0  0  0  0  0  0  0  0  0  0
  -26.6250  -15.9700   19.9000 H   0  0  0  0  0  0  0  0  0  0  0  0
  -26.3510  -24.3450   15.4130 C   0  0  0  0  0  2  0  0  0  0  0  0
  -27.3120  -25.5610   15.3940 C   0  0  0  0  0  2  0  0  0  0  0  0
  -28.4630  -25.5740   16.4330 C   0  0  0  0  0  2  0  0  0  0  0  0
  -28.0240  -25.9300   17.8670 C   0  0  0  0  0  3  0  0  0  0  0  0
  -28.9490  -26.9100   18.6300 C   0  0  0  0  0  3  0  0  0  0  0  0
  -28.5710  -27.1860   19.9940 O   0  0  0  0  0  0  0  0  0  0  0  0
  -24.8410  -32.0730   23.6690 C   0  0  0  0  0  0  0  0  0  0  0  0
  -27.4030  -27.8920   20.1630 C   0  0  0  0  0  0  0  0  0  0  0  0
  -23.5940  -30.7990   21.9560 C   0  0  0  0  0  3  0  0  0  0  0  0
  -25.0090  -29.3700   20.3990 C   0  0  0  0  0  0  0  0  0  0  0  0
  -26.1200  -31.1710   21.7290 C   0  0  0  0  0  2  0  0  0  0  0  0
  -26.1870  -29.8540   20.9820 C   0  0  0  0  0  0  0  0  0  0  0  0
  -27.3920  -29.1210   20.8600 C   0  0  0  0  0  3  0  0  0  0  0  0
  -26.1860  -27.3840   19.6590 C   0  0  0  0  0  3  0  0  0  0  0  0
  -24.9990  -28.1270   19.7460 C   0  0  0  0  0  3  0  0  0  0  0  0
  -23.7740  -30.2300   20.5270 C   0  0  0  0  0  2  0  0  0  0  0  0
  -24.8710  -31.3600   22.5100 N   0  0  0  0  0  0  0  0  0  0  0  0
  -23.7720  -32.3060   24.2490 O   0  0  0  0  0  0  0  0  0  0  0  0
  -22.9630  -29.7110   22.8500 C   0  0  0  0  0  0  0  0  0  0  0  0
  -21.6510  -29.4750   22.6710 N   0  0  0  0  0  0  0  0  0  0  0  0
  -23.6480  -29.0790   23.6600 O   0  0  0  0  0  0  0  0  0  0  0  0
  -21.1580  -30.0400   21.9930 H   0  0  0  0  0  0  0  0  0  0  0  0
  -18.3510  -28.0260   22.9050 C   0  0  0  0  0  0  0  0  0  0  0  0
  -20.8530  -28.4720   23.3740 C   0  0  0  0  0  3  0  0  0  0  0  0
  -21.1080  -27.0580   22.8000 C   0  0  0  0  0  2  0  0  0  0  0  0
  -20.1130  -26.6640   21.7030 C   0  0  0  0  0  2  0  0  0  0  0  0
  -18.6790  -26.7000   22.2400 C   0  0  0  0  0  2  0  0  0  0  0  0
  -19.3730  -28.8650   23.4210 C   0  0  0  0  0  0  0  0  0  0  0  0
  -19.0170  -30.1040   23.9980 C   0  0  0  0  0  3  0  0  0  0  0  0
  -17.6700  -30.5050   24.0650 C   0  0  0  0  0  3  0  0  0  0  0  0
  -16.6610  -29.6660   23.5670 C   0  0  0  0  0  3  0  0  0  0  0  0
  -17.0010  -28.4270   22.9940 C   0  0  0  0  0  3  0  0  0  0  0  0
  -26.1430  -32.6540   24.3070 C   0  0  0  0  0  3  0  0  0  0  0  0
  -26.6450  -31.8280   25.5530 C   0  0  1  0  0  0  0  0  0  0  0  0
  -25.5450  -31.5590   26.6050 C   0  0  0  0  0  1  0  0  0  0  0  0
  -27.2210  -30.4630   25.1090 C   0  0  0  0  0  1  0  0  0  0  0  0
  -27.7980  -32.5880   26.2520 C   0  0  0  0  0  1  0  0  0  0  0  0
  -25.8670  -34.0460   24.6820 N   0  0  0  0  0  0  0  0  0  0  0  0
  -26.2270  -35.1150   23.9590 C   0  0  0  0  0  0  0  0  0  0  0  0
  -26.9000  -35.0290   22.9260 O   0  0  0  0  0  0  0  0  0  0  0  0
  -25.2750  -34.1880   25.4860 H   0  0  0  0  0  0  0  0  0  0  0  0
  -24.5490  -36.9610   23.6430 C   0  0  0  0  0  1  0  0  0  0  0  0
  -25.7690  -36.4980   24.4580 C   0  0  0  0  0  3  0  0  0  0  0  0
  -27.9090  -37.3020   25.3530 C   0  0  0  0  0  1  0  0  0  0  0  0
  -26.8300  -37.5280   24.3950 N   0  0  0  0  0  0  0  0  0  0  0  0
  -26.4430  -38.4520   24.5650 H   0  0  0  0  0  0  0  0  0  0  0  0
  1  3  1  0
  1  4  2  0
  2  3  1  0
  3  5  1  0
  6  5  1  0
  6  7  1  0
  7  8  1  0
  8 13  1  0
  9 12  1  0
 10  9  2  0
 10 13  1  0
 12 24  1  0
 12 11  2  0
 13 14  2  0
 14 11  1  0
 14 15  1  0
 16 24  1  0
 17 22  1  0
 18 19  1  0
 18 17  1  0
 20 19  1  0
 20 29  1  0
 20 21  1  0
 22 16  1  0
 22 21  1  0
 23 16  2  0
 24 25  1  0
 26 27  2  0
 27 46  1  0
 28 27  1  0
 28 31  1  0
 29 30  1  0
 29 26  1  0
 30 28  2  0
 31 32  1  0
 32 33  2  0
 34 37  1  0
 34 33  1  0
 35 34  2  0
 36 35  1  0
 36 31  2  0
 37 38  1  0
 38 43  2  0
 38 39  1  0
 39 40  2  0
 40 41  1  0
 41 45  1  0
 42 41  2  0
 43 42  1  0
 44 43  1  0
 46 47  1  0
 47 50  1  0
 47 49  1  0
 48 46  2  0
 51 26  1  0
 51 52  1  0
 53 51  1  0
 54  1  1  0
 55 54  1  0
 55 56  1  0
 56 57  1  0
 57 58  2  0
 58 59  1  0
 59 61  1  0
 60 71  2  0
 61 66  1  0
 62 70  1  0
 62 72  1  0
 63 69  1  0
 63 65  1  0
 64 70  1  0
 65 64  1  0
 66 65  2  0
 67 68  1  0
 67 61  2  0
 68 63  2  0
 69 62  1  0
 70 60  1  0
 72 74  2  0
 73 72  1  0
 75 73  1  0
 76 85  2  0
 76 81  1  0
 77 73  1  0
 77 81  1  0
 78 77  1  0
 79 80  1  0
 79 78  1  0
 80 76  1  0
 81 82  2  0
 82 83  1  0
 84 83  2  0
 85 84  1  0
 86 60  1  0
 86 91  1  0
 86 87  1  0
 87 90  1  1
 87 88  1  0
 89 87  1  0
 91 94  1  0
 92 96  1  0
 92 91  1  0
 93 92  2  0
 96 95  1  0
 98 96  1  0
 98 99  1  0
 98 97  1  0
M  ISO  4  16 100  24 100  58 101  59 101
M  END
>  <TORSDO>  (70) 
F 26

>  <SCORE>  (70) 
-9.335

>  <name>  (70) 
69

>  <ligand_id>  (70) 
69

>  <original_smiles>  (70) 
[H]c1c([H])c([H])c2c(c1[H])C([H])([H])C([H])([H])C([H])([H])C2([H])N([H])C(=O)C1([H])N(C(=O)C([H])(N([H])C(=O)C([H])(N([H])C([H])([H])[H])C([H])([H])[H])C(C([H])([H])[H])(C([H])([H])[H])C([H])([H])[H])C([H])([H])c2c([H])c(OC([H])([H])C([H])([H])C([H])([H])C([H])([H])C([H])([H])C(=O)N(C([H])([H])[H])C([H])([H])C([H])([H])C([H])([H])Oc3c([H])c([H])c(N([H])C(=O)N4C([H])([H])C([H])([H])C([H])([H])C([H])(n5nc(-c6c([H])c([H])c(Oc7c([H])c([H])c(F)c([H])c7F)c([H])c6[H])c(C(=O)N([H])[H])c5N([H])[H])C4([H])[H])c([H])c3F)c([H])c([H])c2C1([H])[H]

>  <smiles>  (70) 
[H]c1c([H])c([H])c2c(c1[H])C([H])([H])C([H])([H])C([H])([H])C2([H])N([H])C(=O)C1([H])N(C(=O)C([H])(N([H])C(=O)C([H])(N([H])C([H])([H])[H])C([H])([H])[H])C(C([H])([H])[H])(C([H])([H])[H])C([H])([H])[H])C([H])([H])c2c([H])c(OC([H])([H])C([H])([H])C([H])([H])C([H])([H])C([H])([H])C(=O)N(C([H])([H])[H])C([H])([H])C([H])([H])C([H])([H])Oc3c([H])c([H])c(N([H])C(=O)N4C([H])([H])C([H])([H])C([H])([H])C([H])(n5nc(-c6c([H])c([H])c(Oc7c([H])c([H])c(F)c([H])c7F)c([H])c6[H])c(C(=O)N([H])[H])c5N([H])[H])C4([H])[H])c([H])c3F)c([H])c([H])c2C1([H])[H]

$$$$
71:0:0
     RDKit          3D

105113  0  0  1  0  0  0  0  0999 V2000
  -28.3720  -24.4590   27.1300 C   0  0  0  0  0  2  0  0  0  0  0  0
  -29.6410  -24.0860   26.3440 C   0  0  0  0  0  2  0  0  0  0  0  0
  -29.5420  -22.7090   25.6700 C   0  0  0  0  0  2  0  0  0  0  0  0
  -30.7400  -22.4100   24.7560 C   0  0  0  0  0  2  0  0  0  0  0  0
  -31.4620  -20.5390   23.3030 C   0  0  0  0  0  0  0  0  0  0  0  0
  -30.5710  -21.1130   24.1160 N   0  0  0  0  0  0  0  0  0  0  0  0
  -32.4960  -21.1030   22.9370 O   0  0  0  0  0  0  0  0  0  0  0  0
  -29.7330  -20.5900   24.3230 H   0  0  0  0  0  0  0  0  0  0  0  0
  -31.6280  -18.6990   21.5810 C   0  0  0  0  0  3  0  0  0  0  0  0
  -31.3440  -17.3950   21.1310 C   0  0  0  0  0  3  0  0  0  0  0  0
  -30.3060  -18.2950   23.5890 C   0  0  0  0  0  3  0  0  0  0  0  0
  -31.1130  -19.1620   22.8130 C   0  0  0  0  0  0  0  0  0  0  0  0
  -30.5460  -16.5300   21.9170 C   0  0  0  0  0  0  0  0  0  0  0  0
  -30.0170  -16.9970   23.1340 C   0  0  0  0  0  0  0  0  0  0  0  0
  -29.2290  -16.1800   23.8740 F   0  0  0  0  0  0  0  0  0  0  0  0
  -30.7440  -14.3830   20.6500 C   0  0  0  0  0  0  0  0  0  0  0  0
  -30.4240  -12.2860   19.3970 C   0  0  0  0  0  2  0  0  0  0  0  0
  -29.4870  -12.5160   18.1960 C   0  0  0  0  0  2  0  0  0  0  0  0
  -28.0110  -12.3760   18.6140 C   0  0  0  0  0  2  0  0  0  0  0  0
  -27.6680  -13.1990   19.8830 C   0  0  0  0  0  3  0  0  0  0  0  0
  -28.7070  -12.9330   20.9950 C   0  0  0  0  0  2  0  0  0  0  0  0
  -30.0490  -13.2320   20.4570 N   0  0  0  0  0  0  0  0  0  0  0  0
  -31.7920  -14.6440   20.0550 O   0  0  0  0  0  0  0  0  0  0  0  0
  -30.1930  -15.2070   21.5520 N   0  0  0  0  0  0  0  0  0  0  0  0
  -29.4150  -14.8210   22.0640 H   0  0  0  0  0  0  0  0  0  0  0  0
  -25.2610  -13.8150   20.5690 C   0  0  0  0  0  0  0  0  0  0  0  0
  -24.1850  -13.0450   20.9170 C   0  0  0  0  0  0  0  0  0  0  0  0
  -24.6390  -11.6910   20.8730 C   0  0  0  0  0  0  0  0  0  0  0  0
  -26.3060  -12.9310   20.3400 N   0  0  0  0  0  0  0  0  0  0  0  0
  -25.9320  -11.6480   20.5770 N   0  0  0  0  0  0  0  0  0  0  0  0
  -23.9050  -10.4300   21.0410 C   0  0  0  0  0  0  0  0  0  0  0  0
  -24.3610   -9.4210   21.9180 C   0  0  0  0  0  3  0  0  0  0  0  0
  -23.6290   -8.2250   22.0750 C   0  0  0  0  0  3  0  0  0  0  0  0
  -22.4270   -8.0290   21.3540 C   0  0  0  0  0  0  0  0  0  0  0  0
  -21.9910   -9.0260   20.4640 C   0  0  0  0  0  3  0  0  0  0  0  0
  -22.7230  -10.2140   20.3050 C   0  0  0  0  0  3  0  0  0  0  0  0
  -21.6640   -6.8880   21.4240 O   0  0  0  0  0  0  0  0  0  0  0  0
  -21.6850   -6.0740   22.5280 C   0  0  0  0  0  0  0  0  0  0  0  0
  -21.4010   -6.5640   23.8220 C   0  0  0  0  0  3  0  0  0  0  0  0
  -21.3660   -5.6790   24.9170 C   0  0  0  0  0  3  0  0  0  0  0  0
  -21.6050   -4.3060   24.7220 C   0  0  0  0  0  0  0  0  0  0  0  0
  -21.8820   -3.8150   23.4340 C   0  0  0  0  0  3  0  0  0  0  0  0
  -21.9200   -4.6970   22.3400 C   0  0  0  0  0  0  0  0  0  0  0  0
  -22.1660   -4.2160   21.0980 F   0  0  0  0  0  0  0  0  0  0  0  0
  -21.5630   -3.4540   25.7730 F   0  0  0  0  0  0  0  0  0  0  0  0
  -22.7870  -13.5250   21.1850 C   0  0  0  0  0  0  0  0  0  0  0  0
  -22.0510  -12.8250   22.0400 N   0  0  0  0  0  0  0  0  0  0  0  0
  -22.3560  -14.5560   20.6700 O   0  0  0  0  0  0  0  0  0  0  0  0
  -22.4110  -11.9900   22.4780 H   0  0  0  0  0  0  0  0  0  0  0  0
  -21.1130  -13.1280   22.2620 H   0  0  0  0  0  0  0  0  0  0  0  0
  -25.4380  -15.1870   20.4090 N   0  0  0  0  0  0  0  0  0  0  0  0
  -24.6790  -15.8510   20.5230 H   0  0  0  0  0  0  0  0  0  0  0  0
  -26.3020  -15.6220   20.1120 H   0  0  0  0  0  0  0  0  0  0  0  0
  -28.2850  -25.9730   27.4240 C   0  0  0  0  0  2  0  0  0  0  0  0
  -26.8520  -26.5490   27.3940 C   0  0  0  0  0  2  0  0  0  0  0  0
  -26.1300  -26.4830   26.0240 C   0  0  0  0  0  2  0  0  0  0  0  0
  -27.3440  -26.1110   23.8760 C   0  0  0  0  0  0  0  0  0  0  0  0
  -27.0110  -26.8690   24.9240 N   0  0  0  0  0  0  0  0  0  0  0  0
  -28.3660  -26.6320   23.1960 N   0  0  0  0  0  0  0  0  0  0  0  0
  -26.8270  -25.0260   23.6070 O   0  0  0  0  0  0  0  0  0  0  0  0
  -27.5260  -27.7260   25.0550 H   0  0  0  0  0  0  0  0  0  0  0  0
  -28.7030  -27.5450   23.4650 H   0  0  0  0  0  0  0  0  0  0  0  0
  -29.1810  -25.9280   22.2140 C   0  0  0  0  0  2  0  0  0  0  0  0
  -29.4340  -26.7640   20.9460 C   0  0  0  0  0  2  0  0  0  0  0  0
  -28.3690  -26.6570   20.0050 O   0  0  0  0  0  0  0  0  0  0  0  0
  -24.6170  -31.8710   23.2120 C   0  0  0  0  0  0  0  0  0  0  0  0
  -27.2480  -27.4530   20.1010 C   0  0  0  0  0  0  0  0  0  0  0  0
  -23.4060  -30.4910   21.5570 C   0  0  0  0  0  3  0  0  0  0  0  0
  -24.8530  -28.9570   20.1190 C   0  0  0  0  0  0  0  0  0  0  0  0
  -25.9300  -30.8420   21.3600 C   0  0  0  0  0  2  0  0  0  0  0  0
  -26.0090  -29.4720   20.7190 C   0  0  0  0  0  0  0  0  0  0  0  0
  -27.2090  -28.7270   20.7170 C   0  0  0  0  0  3  0  0  0  0  0  0
  -26.0790  -26.9570   19.4870 C   0  0  0  0  0  3  0  0  0  0  0  0
  -24.8800  -27.6960   19.5000 C   0  0  0  0  0  3  0  0  0  0  0  0
  -23.6130  -29.8190   20.1710 C   0  0  0  0  0  2  0  0  0  0  0  0
  -24.6710  -31.0800   22.1040 N   0  0  0  0  0  0  0  0  0  0  0  0
  -23.5390  -32.1430   23.7570 O   0  0  0  0  0  0  0  0  0  0  0  0
  -22.7430  -29.4660   22.5020 C   0  0  0  0  0  0  0  0  0  0  0  0
  -21.4160  -29.3050   22.3710 N   0  0  0  0  0  0  0  0  0  0  0  0
  -23.4160  -28.8210   23.3090 O   0  0  0  0  0  0  0  0  0  0  0  0
  -20.9340  -29.8800   21.6950 H   0  0  0  0  0  0  0  0  0  0  0  0
  -18.0290  -28.1370   22.8480 C   0  0  0  0  0  0  0  0  0  0  0  0
  -20.5880  -28.3660   23.1270 C   0  0  0  0  0  3  0  0  0  0  0  0
  -20.6780  -26.9390   22.5390 C   0  0  0  0  0  2  0  0  0  0  0  0
  -19.5750  -26.6370   21.5200 C   0  0  0  0  0  2  0  0  0  0  0  0
  -18.1950  -26.7930   22.1620 C   0  0  0  0  0  2  0  0  0  0  0  0
  -19.1530  -28.8830   23.2900 C   0  0  0  0  0  0  0  0  0  0  0  0
  -18.9430  -30.1420   23.8910 C   0  0  0  0  0  3  0  0  0  0  0  0
  -17.6430  -30.6550   24.0570 C   0  0  0  0  0  3  0  0  0  0  0  0
  -16.5320  -29.9070   23.6320 C   0  0  0  0  0  3  0  0  0  0  0  0
  -16.7280  -28.6490   23.0330 C   0  0  0  0  0  3  0  0  0  0  0  0
  -25.9060  -32.4860   23.8410 C   0  0  0  0  0  3  0  0  0  0  0  0
  -25.5870  -33.8640   24.2400 N   0  0  0  0  0  0  0  0  0  0  0  0
  -25.8980  -34.9490   23.5160 C   0  0  0  0  0  0  0  0  0  0  0  0
  -26.5550  -34.8910   22.4710 O   0  0  0  0  0  0  0  0  0  0  0  0
  -24.9970  -33.9770   25.0520 H   0  0  0  0  0  0  0  0  0  0  0  0
  -24.1440  -36.7410   23.2630 C   0  0  0  0  0  1  0  0  0  0  0  0
  -25.4040  -36.3150   24.0340 C   0  0  0  0  0  3  0  0  0  0  0  0
  -27.5550  -37.1850   24.8500 C   0  0  0  0  0  1  0  0  0  0  0  0
  -26.4240  -37.3840   23.9450 N   0  0  0  0  0  0  0  0  0  0  0  0
  -26.0100  -38.2880   24.1520 H   0  0  0  0  0  0  0  0  0  0  0  0
  -26.4420  -31.6550   25.0680 C   0  0  1  0  0  0  0  0  0  0  0  0
  -25.3610  -31.3460   26.1290 C   0  0  0  0  0  1  0  0  0  0  0  0
  -27.0320  -30.3070   24.5970 C   0  0  0  0  0  1  0  0  0  0  0  0
  -27.5900  -32.4320   25.7550 C   0  0  0  0  0  1  0  0  0  0  0  0
  1 54  1  0
  2  1  1  0
  3  2  1  0
  4  3  1  0
  5  6  1  0
  6  8  1  0
  6  4  1  0
  7  5  2  0
  9 12  1  0
 10  9  2  0
 10 13  1  0
 12  5  1  0
 12 11  2  0
 13 14  2  0
 14 11  1  0
 14 15  1  0
 16 24  1  0
 17 22  1  0
 18 19  1  0
 18 17  1  0
 20 19  1  0
 20 29  1  0
 20 21  1  0
 22 16  1  0
 22 21  1  0
 23 16  2  0
 24 13  1  0
 24 25  1  0
 26 27  2  0
 27 46  1  0
 28 27  1  0
 28 31  1  0
 29 26  1  0
 29 30  1  0
 30 28  2  0
 31 32  1  0
 32 33  2  0
 34 37  1  0
 34 33  1  0
 35 34  2  0
 36 35  1  0
 36 31  2  0
 37 38  1  0
 38 39  1  0
 39 40  2  0
 41 40  1  0
 41 45  1  0
 42 41  2  0
 43 38  2  0
 43 42  1  0
 44 43  1  0
 46 47  1  0
 47 50  1  0
 47 49  1  0
 48 46  2  0
 51 52  1  0
 51 26  1  0
 53 51  1  0
 55 54  1  0
 56 55  1  0
 57 58  1  0
 58 61  1  0
 58 56  1  0
 59 62  1  0
 59 57  1  0
 60 57  2  0
 63 59  1  0
 64 63  1  0
 65 67  1  0
 65 64  1  0
 66 77  2  0
 67 72  1  0
 68 76  1  0
 68 78  1  0
 69 75  1  0
 69 71  1  0
 70 76  1  0
 71 70  1  0
 72 71  2  0
 73 74  1  0
 73 67  2  0
 74 69  2  0
 75 68  1  0
 76 66  1  0
 78 80  2  0
 79 78  1  0
 81 79  1  0
 82 91  2  0
 82 87  1  0
 83 79  1  0
 83 87  1  0
 84 83  1  0
 85 86  1  0
 85 84  1  0
 86 82  1  0
 87 88  2  0
 88 89  1  0
 90 89  2  0
 91 90  1  0
 92 66  1  0
 92 93  1  0
 92102  1  0
 93 96  1  0
 94 98  1  0
 94 93  1  0
 95 94  2  0
 98 97  1  0
100 98  1  0
100101  1  0
100 99  1  0
102105  1  1
102103  1  0
104102  1  0
M  ISO  4  16 100  24 100  64 101  65 101
M  END
>  <TORSDO>  (71) 
F 27

>  <SCORE>  (71) 
2.617

>  <name>  (71) 
71

>  <ligand_id>  (71) 
71

>  <original_smiles>  (71) 
[H]c1c([H])c([H])c2c(c1[H])C([H])([H])C([H])([H])C([H])([H])C2([H])N([H])C(=O)C1([H])N(C(=O)C([H])(N([H])C(=O)C([H])(N([H])C([H])([H])[H])C([H])([H])[H])C(C([H])([H])[H])(C([H])([H])[H])C([H])([H])[H])C([H])([H])c2c([H])c(OC([H])([H])C([H])([H])N([H])C(=O)N([H])C([H])([H])C([H])([H])C([H])([H])C([H])([H])C([H])([H])C([H])([H])C([H])([H])N([H])C(=O)c3c([H])c([H])c(N([H])C(=O)N4C([H])([H])C([H])([H])C([H])([H])C([H])(n5nc(-c6c([H])c([H])c(Oc7c([H])c([H])c(F)c([H])c7F)c([H])c6[H])c(C(=O)N([H])[H])c5N([H])[H])C4([H])[H])c(F)c3[H])c([H])c([H])c2C1([H])[H]

>  <smiles>  (71) 
[H]c1c([H])c([H])c2c(c1[H])C([H])([H])C([H])([H])C([H])([H])C2([H])N([H])C(=O)C1([H])N(C(=O)C([H])(N([H])C(=O)C([H])(N([H])C([H])([H])[H])C([H])([H])[H])C(C([H])([H])[H])(C([H])([H])[H])C([H])([H])[H])C([H])([H])c2c([H])c(OC([H])([H])C([H])([H])N([H])C(=O)N([H])C([H])([H])C([H])([H])C([H])([H])C([H])([H])C([H])([H])C([H])([H])C([H])([H])N([H])C(=O)c3c([H])c([H])c(N([H])C(=O)N4C([H])([H])C([H])([H])C([H])([H])C([H])(n5nc(-c6c([H])c([H])c(Oc7c([H])c([H])c(F)c([H])c7F)c([H])c6[H])c(C(=O)N([H])[H])c5N([H])[H])C4([H])[H])c(F)c3[H])c([H])c([H])c2C1([H])[H]

$$$$
72:0:0
     RDKit          3D

108117  0  0  1  0  0  0  0  0999 V2000
  -29.8490  -21.7720   18.7370 C   0  0  0  0  0  0  0  0  0  0  0  0
  -29.9230  -21.3290   20.0030 N   0  0  0  0  0  0  0  0  0  0  0  0
  -30.5700  -21.3440   17.8340 O   0  0  0  0  0  0  0  0  0  0  0  0
  -29.4770  -21.9090   20.7000 H   0  0  0  0  0  0  0  0  0  0  0  0
  -29.7210  -19.5350   21.6510 C   0  0  0  0  0  3  0  0  0  0  0  0
  -29.8250  -18.1680   21.9840 C   0  0  0  0  0  3  0  0  0  0  0  0
  -30.9290  -19.1100   19.5900 C   0  0  0  0  0  3  0  0  0  0  0  0
  -31.0110  -17.7340   19.8850 C   0  0  0  0  0  0  0  0  0  0  0  0
  -30.2470  -20.0110   20.4340 C   0  0  0  0  0  0  0  0  0  0  0  0
  -30.4370  -17.2520   21.0990 C   0  0  0  0  0  0  0  0  0  0  0  0
  -31.1260  -14.8870   20.9880 C   0  0  0  0  0  0  0  0  0  0  0  0
  -30.9630  -12.8150   19.6830 C   0  0  0  0  0  2  0  0  0  0  0  0
  -30.0820  -13.1240   18.4560 C   0  0  0  0  0  2  0  0  0  0  0  0
  -28.5820  -12.9610   18.7850 C   0  0  0  0  0  2  0  0  0  0  0  0
  -28.1570  -13.6350   20.1220 C   0  0  0  0  0  3  0  0  0  0  0  0
  -29.1700  -13.3180   21.2460 C   0  0  0  0  0  2  0  0  0  0  0  0
  -30.5150  -13.6920   20.7720 N   0  0  0  0  0  0  0  0  0  0  0  0
  -32.2960  -15.1220   20.6730 O   0  0  0  0  0  0  0  0  0  0  0  0
  -30.2940  -15.8650   21.3830 N   0  0  0  0  0  0  0  0  0  0  0  0
  -29.3690  -15.5580   21.6340 H   0  0  0  0  0  0  0  0  0  0  0  0
  -25.6980  -14.1280   20.7020 C   0  0  0  0  0  0  0  0  0  0  0  0
  -24.6360  -13.3040   20.9520 C   0  0  0  0  0  0  0  0  0  0  0  0
  -25.1500  -11.9740   20.8870 C   0  0  0  0  0  0  0  0  0  0  0  0
  -26.7880  -13.2950   20.4940 N   0  0  0  0  0  0  0  0  0  0  0  0
  -26.4580  -11.9910   20.6640 N   0  0  0  0  0  0  0  0  0  0  0  0
  -24.4610  -10.6800   20.9700 C   0  0  0  0  0  0  0  0  0  0  0  0
  -24.9010   -9.6690   21.8520 C   0  0  0  0  0  3  0  0  0  0  0  0
  -24.2140   -8.4390   21.9260 C   0  0  0  0  0  3  0  0  0  0  0  0
  -23.0750   -8.2140   21.1190 C   0  0  0  0  0  0  0  0  0  0  0  0
  -22.6560   -9.2150   20.2240 C   0  0  0  0  0  3  0  0  0  0  0  0
  -23.3440  -10.4380   20.1480 C   0  0  0  0  0  3  0  0  0  0  0  0
  -22.3590   -7.0420   21.1070 O   0  0  0  0  0  0  0  0  0  0  0  0
  -22.1630   -6.3050   22.2470 C   0  0  0  0  0  0  0  0  0  0  0  0
  -21.7310   -6.8990   23.4530 C   0  0  0  0  0  3  0  0  0  0  0  0
  -21.4770   -6.0950   24.5820 C   0  0  0  0  0  3  0  0  0  0  0  0
  -21.6450   -4.6990   24.5050 C   0  0  0  0  0  0  0  0  0  0  0  0
  -22.0690   -4.1050   23.3030 C   0  0  0  0  0  3  0  0  0  0  0  0
  -22.3250   -4.9060   22.1760 C   0  0  0  0  0  0  0  0  0  0  0  0
  -22.7140   -4.3280   21.0160 F   0  0  0  0  0  0  0  0  0  0  0  0
  -21.3930   -3.9250   25.5870 F   0  0  0  0  0  0  0  0  0  0  0  0
  -23.2070  -13.7210   21.1530 C   0  0  0  0  0  0  0  0  0  0  0  0
  -22.4660  -12.9940   21.9810 N   0  0  0  0  0  0  0  0  0  0  0  0
  -22.7500  -14.7250   20.6080 O   0  0  0  0  0  0  0  0  0  0  0  0
  -22.8440  -12.1830   22.4480 H   0  0  0  0  0  0  0  0  0  0  0  0
  -21.5060  -13.2560   22.1530 H   0  0  0  0  0  0  0  0  0  0  0  0
  -25.8160  -15.5110   20.6230 N   0  0  0  0  0  0  0  0  0  0  0  0
  -25.0200  -16.1260   20.7420 H   0  0  0  0  0  0  0  0  0  0  0  0
  -26.6740  -16.0050   20.4210 H   0  0  0  0  0  0  0  0  0  0  0  0
  -32.5500  -16.1440   16.0490 C   0  0  0  0  0  2  0  0  0  0  0  0
  -33.5280  -16.2530   17.2330 C   0  0  0  0  0  2  0  0  0  0  0  0
  -31.1250  -15.8020   16.5100 C   0  0  0  0  0  2  0  0  0  0  0  0
  -33.0140  -17.2060   18.3360 C   0  0  0  0  0  2  0  0  0  0  0  0
  -30.6430  -16.7870   17.5790 C   0  0  0  0  0  2  0  0  0  0  0  0
  -31.5900  -16.8260   18.7970 C   0  0  0  0  0  3  0  0  0  0  0  0
  -28.7880  -22.8470   18.4460 C   0  0  0  0  0  2  0  0  0  0  0  0
  -29.2490  -24.2010   17.8590 C   0  0  0  0  0  3  0  0  0  0  0  0
  -30.0660  -24.1670   16.5510 C   0  0  0  0  0  3  0  0  0  0  0  0
  -30.1920  -25.5220   15.8250 C   0  0  0  0  0  2  0  0  0  0  0  0
  -30.5520  -26.7420   16.6970 C   0  0  0  0  0  2  0  0  0  0  0  0
  -31.9350  -26.6820   17.3850 C   0  0  0  0  0  2  0  0  0  0  0  0
  -31.8180  -26.9300   18.8990 C   0  0  0  0  0  0  0  0  0  0  0  0
  -32.8320  -24.7160   19.4190 C   0  0  0  0  0  1  0  0  0  0  0  0
  -32.0960  -25.9350   19.7780 N   0  0  0  0  0  0  0  0  0  0  0  0
  -31.4210  -28.0390   19.2680 O   0  0  0  0  0  0  0  0  0  0  0  0
  -31.7510  -26.0440   21.2020 C   0  0  0  0  0  2  0  0  0  0  0  0
  -30.4120  -25.3480   21.5460 C   0  0  0  0  0  2  0  0  0  0  0  0
  -29.1660  -26.2530   21.5140 C   0  0  0  0  0  2  0  0  0  0  0  0
  -28.4820  -26.2500   20.2570 O   0  0  0  0  0  0  0  0  0  0  0  0
  -24.6400  -31.5420   23.0850 C   0  0  0  0  0  0  0  0  0  0  0  0
  -27.3330  -27.0140   20.2180 C   0  0  0  0  0  0  0  0  0  0  0  0
  -23.4530  -30.1060   21.4500 C   0  0  0  0  0  3  0  0  0  0  0  0
  -24.9290  -28.5070   20.1120 C   0  0  0  0  0  0  0  0  0  0  0  0
  -25.9790  -30.4440   21.2990 C   0  0  0  0  0  2  0  0  0  0  0  0
  -26.0680  -29.0520   20.7140 C   0  0  0  0  0  0  0  0  0  0  0  0
  -27.2640  -28.3150   20.7700 C   0  0  0  0  0  3  0  0  0  0  0  0
  -26.1830  -26.4810   19.5980 C   0  0  0  0  0  3  0  0  0  0  0  0
  -24.9790  -27.2170   19.5510 C   0  0  0  0  0  3  0  0  0  0  0  0
  -23.6880  -29.3720   20.1000 C   0  0  0  0  0  2  0  0  0  0  0  0
  -24.7070  -30.7120   22.0060 N   0  0  0  0  0  0  0  0  0  0  0  0
  -23.5510  -31.8460   23.5920 O   0  0  0  0  0  0  0  0  0  0  0  0
  -22.7660  -29.1250   22.4270 C   0  0  0  0  0  0  0  0  0  0  0  0
  -21.4400  -28.9750   22.2870 N   0  0  0  0  0  0  0  0  0  0  0  0
  -23.4230  -28.5000   23.2630 O   0  0  0  0  0  0  0  0  0  0  0  0
  -20.9740  -29.5260   21.5790 H   0  0  0  0  0  0  0  0  0  0  0  0
  -18.0320  -27.8760   22.7440 C   0  0  0  0  0  0  0  0  0  0  0  0
  -20.5890  -28.0770   23.0640 C   0  0  0  0  0  3  0  0  0  0  0  0
  -20.6680  -26.6310   22.5240 C   0  0  0  0  0  2  0  0  0  0  0  0
  -19.5800  -26.3100   21.4960 C   0  0  0  0  0  2  0  0  0  0  0  0
  -18.1900  -26.5060   22.1070 C   0  0  0  0  0  2  0  0  0  0  0  0
  -19.1600  -28.6210   23.1790 C   0  0  0  0  0  0  0  0  0  0  0  0
  -18.9620  -29.9050   23.7310 C   0  0  0  0  0  3  0  0  0  0  0  0
  -17.6680  -30.4430   23.8530 C   0  0  0  0  0  3  0  0  0  0  0  0
  -16.5530  -29.6950   23.4390 C   0  0  0  0  0  3  0  0  0  0  0  0
  -16.7360  -28.4130   22.8900 C   0  0  0  0  0  3  0  0  0  0  0  0
  -25.9230  -32.1690   23.7190 C   0  0  0  0  0  3  0  0  0  0  0  0
  -25.6310  -33.5800   24.0010 N   0  0  0  0  0  0  0  0  0  0  0  0
  -26.0200  -34.6040   23.2300 C   0  0  0  0  0  0  0  0  0  0  0  0
  -26.7320  -34.4610   22.2330 O   0  0  0  0  0  0  0  0  0  0  0  0
  -25.0040  -33.7670   24.7690 H   0  0  0  0  0  0  0  0  0  0  0  0
  -24.3840  -36.4420   22.7160 C   0  0  0  0  0  1  0  0  0  0  0  0
  -25.5420  -36.0130   23.6290 C   0  0  0  0  0  3  0  0  0  0  0  0
  -27.6290  -36.8500   24.6190 C   0  0  0  0  0  1  0  0  0  0  0  0
  -26.6130  -37.0310   23.5850 N   0  0  0  0  0  0  0  0  0  0  0  0
  -26.2250  -37.9650   23.6820 H   0  0  0  0  0  0  0  0  0  0  0  0
  -26.4020  -31.4240   25.0240 C   0  0  1  0  0  0  0  0  0  0  0  0
  -25.2840  -31.2350   26.0750 C   0  0  0  0  0  1  0  0  0  0  0  0
  -26.9740  -30.0290   24.6800 C   0  0  0  0  0  1  0  0  0  0  0  0
  -27.5520  -32.2180   25.6870 C   0  0  0  0  0  1  0  0  0  0  0  0
  1  2  1  0
  2  9  1  0
  2  4  1  0
  3  1  2  0
  5  6  1  0
  7  8  2  0
  7  9  1  0
  8 10  1  0
  9  5  2  0
 10 19  1  0
 10  6  2  0
 11 19  1  0
 12 17  1  0
 13 14  1  0
 13 12  1  0
 15 14  1  0
 15 24  1  0
 15 16  1  0
 17 11  1  0
 17 16  1  0
 18 11  2  0
 19 20  1  0
 21 22  2  0
 22 41  1  0
 23 22  1  0
 23 26  1  0
 24 25  1  0
 24 21  1  0
 25 23  2  0
 26 27  1  0
 27 28  2  0
 29 28  1  0
 30 29  2  0
 31 30  1  0
 31 26  2  0
 32 29  1  0
 32 33  1  0
 33 34  1  0
 34 35  2  0
 36 35  1  0
 36 40  1  0
 37 36  2  0
 38 33  2  0
 38 37  1  0
 39 38  1  0
 41 42  1  0
 42 45  1  0
 42 44  1  0
 43 41  2  0
 46 21  1  0
 46 47  1  0
 48 46  1  0
 49 51  1  0
 49 50  1  0
 50 52  1  0
 51 53  1  0
 52 54  1  0
 53 54  1  0
 54  8  1  0
 55  1  1  0
 56 55  1  0
 57 56  2  0
 58 57  1  0
 58 59  1  0
 59 60  1  0
 60 61  1  0
 61 64  2  0
 61 63  1  0
 62 63  1  0
 63 65  1  0
 65 66  1  0
 67 66  1  0
 68 67  1  0
 69 80  2  0
 70 68  1  0
 70 75  1  0
 71 79  1  0
 71 81  1  0
 72 74  1  0
 73 79  1  0
 74 75  2  0
 74 73  1  0
 76 70  2  0
 77 76  1  0
 77 72  2  0
 78 72  1  0
 78 71  1  0
 79 69  1  0
 81 83  2  0
 82 81  1  0
 84 82  1  0
 85 94  2  0
 85 90  1  0
 86 82  1  0
 86 90  1  0
 87 86  1  0
 88 89  1  0
 88 87  1  0
 89 85  1  0
 90 91  2  0
 91 92  1  0
 93 92  2  0
 94 93  1  0
 95 69  1  0
 95 96  1  0
 95105  1  0
 96 99  1  0
 97101  1  0
 97 96  1  0
 98 97  2  0
101100  1  0
103101  1  0
103104  1  0
103102  1  0
105108  1  1
105106  1  0
107105  1  0
M  ISO  4  11 100  19 100  67 101  68 101
M  END
>  <TORSDO>  (72) 
F 28

>  <SCORE>  (72) 
-8.823

>  <name>  (72) 
72

>  <ligand_id>  (72) 
72

>  <original_smiles>  (72) 
[H]c1c([H])c([H])c2c(c1[H])C([H])([H])C([H])([H])C([H])([H])C2([H])N([H])C(=O)C1([H])N(C(=O)C([H])(N([H])C(=O)C([H])(N([H])C([H])([H])[H])C([H])([H])[H])C(C([H])([H])[H])(C([H])([H])[H])C([H])([H])[H])C([H])([H])c2c([H])c(OC([H])([H])C([H])([H])C([H])([H])N(C(=O)C([H])([H])C([H])([H])C([H])([H])C([H])([H])C([H])([H])C([H])([H])C(=O)N([H])c3c([H])c([H])c(N([H])C(=O)N4C([H])([H])C([H])([H])C([H])([H])C([H])(n5nc(-c6c([H])c([H])c(Oc7c([H])c([H])c(F)c([H])c7F)c([H])c6[H])c(C(=O)N([H])[H])c5N([H])[H])C4([H])[H])c(C4([H])C([H])([H])C([H])([H])C([H])([H])C([H])([H])C4([H])[H])c3[H])C([H])([H])[H])c([H])c([H])c2C1([H])[H]

>  <smiles>  (72) 
[H]c1c([H])c([H])c2c(c1[H])C([H])([H])C([H])([H])C([H])([H])C2([H])N([H])C(=O)C1([H])N(C(=O)C([H])(N([H])C(=O)C([H])(N([H])C([H])([H])[H])C([H])([H])[H])C(C([H])([H])[H])(C([H])([H])[H])C([H])([H])[H])C([H])([H])c2c([H])c(OC([H])([H])C([H])([H])C([H])([H])N(C(=O)C([H])([H])C([H])([H])C([H])([H])C([H])([H])C([H])([H])C([H])([H])C(=O)N([H])c3c([H])c([H])c(N([H])C(=O)N4C([H])([H])C([H])([H])C([H])([H])C([H])(n5nc(-c6c([H])c([H])c(Oc7c([H])c([H])c(F)c([H])c7F)c([H])c6[H])c(C(=O)N([H])[H])c5N([H])[H])C4([H])[H])c(C4([H])C([H])([H])C([H])([H])C([H])([H])C([H])([H])C4([H])[H])c3[H])C([H])([H])[H])c([H])c([H])c2C1([H])[H]

$$$$
73:0:0
     RDKit          3D

100108  0  0  1  0  0  0  0  0999 V2000
  -28.3870  -22.1110   21.4200 C   0  0  0  0  0  0  0  0  0  0  0  0
  -29.3230  -21.2430   21.8380 N   0  0  0  0  0  0  0  0  0  0  0  0
  -27.9650  -22.9110   22.4020 N   0  0  0  0  0  0  0  0  0  0  0  0
  -27.9670  -22.1980   20.2640 O   0  0  0  0  0  0  0  0  0  0  0  0
  -29.6750  -21.3970   22.7730 H   0  0  0  0  0  0  0  0  0  0  0  0
  -28.3540  -22.7790   23.3230 H   0  0  0  0  0  0  0  0  0  0  0  0
  -30.8570  -19.3560   21.8320 C   0  0  0  0  0  3  0  0  0  0  0  0
  -31.2810  -18.1010   21.3510 C   0  0  0  0  0  3  0  0  0  0  0  0
  -29.1730  -19.4790   20.0750 C   0  0  0  0  0  3  0  0  0  0  0  0
  -29.7870  -20.0450   21.2170 C   0  0  0  0  0  0  0  0  0  0  0  0
  -30.6220  -17.5240   20.2460 C   0  0  0  0  0  0  0  0  0  0  0  0
  -29.5780  -18.2130   19.5920 C   0  0  0  0  0  0  0  0  0  0  0  0
  -31.7160  -15.2700   20.1670 C   0  0  0  0  0  0  0  0  0  0  0  0
  -31.4970  -12.9490   19.4000 C   0  0  0  0  0  2  0  0  0  0  0  0
  -30.5900  -12.9680   18.1500 C   0  0  0  0  0  2  0  0  0  0  0  0
  -29.0970  -12.9070   18.5410 C   0  0  0  0  0  2  0  0  0  0  0  0
  -28.7120  -13.9400   19.6350 C   0  0  0  0  0  3  0  0  0  0  0  0
  -29.7320  -13.8960   20.8000 C   0  0  0  0  0  2  0  0  0  0  0  0
  -31.0820  -14.0740   20.2360 N   0  0  0  0  0  0  0  0  0  0  0  0
  -32.9240  -15.4210   19.9790 O   0  0  0  0  0  0  0  0  0  0  0  0
  -30.8590  -16.2160   19.7760 N   0  0  0  0  0  0  0  0  0  0  0  0
  -30.0630  -15.8350   19.2900 H   0  0  0  0  0  0  0  0  0  0  0  0
  -26.3660  -14.7200   20.3500 C   0  0  0  0  0  0  0  0  0  0  0  0
  -25.2340  -14.0220   20.6810 C   0  0  0  0  0  0  0  0  0  0  0  0
  -25.5930  -12.6420   20.6200 C   0  0  0  0  0  0  0  0  0  0  0  0
  -27.3400  -13.7650   20.1000 N   0  0  0  0  0  0  0  0  0  0  0  0
  -26.8800  -12.5090   20.3240 N   0  0  0  0  0  0  0  0  0  0  0  0
  -24.7730  -11.4350   20.7680 C   0  0  0  0  0  0  0  0  0  0  0  0
  -25.1120  -10.4230   21.6930 C   0  0  0  0  0  3  0  0  0  0  0  0
  -24.2990   -9.2760   21.8270 C   0  0  0  0  0  3  0  0  0  0  0  0
  -23.1350   -9.1360   21.0350 C   0  0  0  0  0  0  0  0  0  0  0  0
  -22.8150  -10.1380   20.1010 C   0  0  0  0  0  3  0  0  0  0  0  0
  -23.6260  -11.2760   19.9650 C   0  0  0  0  0  3  0  0  0  0  0  0
  -22.2990   -8.0470   21.0800 O   0  0  0  0  0  0  0  0  0  0  0  0
  -22.1010   -7.3400   22.2400 C   0  0  0  0  0  0  0  0  0  0  0  0
  -21.6050   -7.9560   23.4100 C   0  0  0  0  0  3  0  0  0  0  0  0
  -21.3470   -7.1800   24.5590 C   0  0  0  0  0  3  0  0  0  0  0  0
  -21.5750   -5.7910   24.5380 C   0  0  0  0  0  0  0  0  0  0  0  0
  -22.0640   -5.1760   23.3710 C   0  0  0  0  0  3  0  0  0  0  0  0
  -22.3230   -5.9490   22.2250 C   0  0  0  0  0  0  0  0  0  0  0  0
  -22.7730   -5.3470   21.0980 F   0  0  0  0  0  0  0  0  0  0  0  0
  -21.3220   -5.0450   25.6370 F   0  0  0  0  0  0  0  0  0  0  0  0
  -23.8730  -14.5990   20.9460 C   0  0  0  0  0  0  0  0  0  0  0  0
  -23.0890  -13.9600   21.8060 N   0  0  0  0  0  0  0  0  0  0  0  0
  -23.5140  -15.6540   20.4250 O   0  0  0  0  0  0  0  0  0  0  0  0
  -23.3850  -13.1040   22.2480 H   0  0  0  0  0  0  0  0  0  0  0  0
  -22.1760  -14.3350   22.0230 H   0  0  0  0  0  0  0  0  0  0  0  0
  -26.6350  -16.0790   20.2230 N   0  0  0  0  0  0  0  0  0  0  0  0
  -25.9280  -16.7820   20.4140 H   0  0  0  0  0  0  0  0  0  0  0  0
  -27.5250  -16.4770   19.9490 H   0  0  0  0  0  0  0  0  0  0  0  0
  -28.0940  -18.3180   17.7010 C   0  0  0  0  0  1  0  0  0  0  0  0
  -28.9760  -17.5700   18.5270 O   0  0  0  0  0  0  0  0  0  0  0  0
  -26.9390  -23.9440   22.2800 C   0  0  0  0  0  2  0  0  0  0  0  0
  -27.2470  -25.1260   23.2260 C   0  0  0  0  0  2  0  0  0  0  0  0
  -27.6530  -26.4440   22.5400 C   0  0  0  0  0  2  0  0  0  0  0  0
  -29.0150  -26.4260   21.8110 C   0  0  0  0  0  2  0  0  0  0  0  0
  -29.0030  -25.9520   20.3400 C   0  0  0  0  0  2  0  0  0  0  0  0
  -28.0010  -26.7030   19.4490 C   0  0  0  0  0  2  0  0  0  0  0  0
  -28.0120  -26.2260   17.9790 C   0  0  0  0  0  2  0  0  0  0  0  0
  -27.3470  -27.1320   17.1060 O   0  0  0  0  0  0  0  0  0  0  0  0
  -24.3880  -30.8520   22.3480 C   0  0  0  0  0  0  0  0  0  0  0  0
  -26.1900  -27.6700   17.6020 C   0  0  0  0  0  0  0  0  0  0  0  0
  -22.8060  -29.7600   20.7840 C   0  0  0  0  0  3  0  0  0  0  0  0
  -23.8400  -28.8020   18.6580 C   0  0  0  0  0  0  0  0  0  0  0  0
  -25.1390  -30.4640   20.0080 C   0  0  0  0  0  2  0  0  0  0  0  0
  -25.0890  -29.3130   19.0300 C   0  0  0  0  0  0  0  0  0  0  0  0
  -26.2690  -28.7560   18.4950 C   0  0  0  0  0  3  0  0  0  0  0  0
  -24.9300  -27.1560   17.2340 C   0  0  0  0  0  3  0  0  0  0  0  0
  -23.7510  -27.7230   17.7590 C   0  0  0  0  0  3  0  0  0  0  0  0
  -22.6260  -29.4670   19.2710 C   0  0  0  0  0  2  0  0  0  0  0  0
  -24.1450  -30.3610   21.1000 N   0  0  0  0  0  0  0  0  0  0  0  0
  -23.5020  -30.8560   23.2150 O   0  0  0  0  0  0  0  0  0  0  0  0
  -22.5050  -28.4700   21.5740 C   0  0  0  0  0  0  0  0  0  0  0  0
  -21.2240  -28.0700   21.5930 N   0  0  0  0  0  0  0  0  0  0  0  0
  -23.4080  -27.8390   22.1290 O   0  0  0  0  0  0  0  0  0  0  0  0
  -20.5430  -28.6340   21.1050 H   0  0  0  0  0  0  0  0  0  0  0  0
  -18.2670  -26.0500   22.0800 C   0  0  0  0  0  0  0  0  0  0  0  0
  -20.7140  -26.8680   22.2460 C   0  0  0  0  0  3  0  0  0  0  0  0
  -21.0860  -25.6020   21.4400 C   0  0  0  0  0  2  0  0  0  0  0  0
  -19.9970  -25.1710   20.4520 C   0  0  0  0  0  2  0  0  0  0  0  0
  -18.6860  -24.8890   21.1950 C   0  0  0  0  0  2  0  0  0  0  0  0
  -19.2180  -26.9890   22.5610 C   0  0  0  0  0  0  0  0  0  0  0  0
  -18.7720  -28.0670   23.3530 C   0  0  0  0  0  3  0  0  0  0  0  0
  -17.4110  -28.2150   23.6760 C   0  0  0  0  0  3  0  0  0  0  0  0
  -16.4770  -27.2750   23.2120 C   0  0  0  0  0  3  0  0  0  0  0  0
  -16.9050  -26.1940   22.4180 C   0  0  0  0  0  3  0  0  0  0  0  0
  -25.7750  -31.4540   22.7390 C   0  0  0  0  0  3  0  0  0  0  0  0
  -26.6760  -30.4550   23.5660 C   0  0  1  0  0  0  0  0  0  0  0  0
  -25.9510  -29.8320   24.7810 C   0  0  0  0  0  1  0  0  0  0  0  0
  -27.1670  -29.2940   22.6680 C   0  0  0  0  0  1  0  0  0  0  0  0
  -27.9390  -31.1840   24.0810 C   0  0  0  0  0  1  0  0  0  0  0  0
  -25.5260  -32.6850   23.4980 N   0  0  0  0  0  0  0  0  0  0  0  0
  -25.6820  -33.9240   23.0110 C   0  0  0  0  0  0  0  0  0  0  0  0
  -26.1280  -34.1490   21.8810 O   0  0  0  0  0  0  0  0  0  0  0  0
  -25.1200  -32.5800   24.4150 H   0  0  0  0  0  0  0  0  0  0  0  0
  -23.9150  -35.6570   23.4710 C   0  0  0  0  0  1  0  0  0  0  0  0
  -25.2770  -35.1010   23.9180 C   0  0  0  0  0  3  0  0  0  0  0  0
  -27.5230  -35.8200   24.6070 C   0  0  0  0  0  1  0  0  0  0  0  0
  -26.2760  -36.1930   23.9460 N   0  0  0  0  0  0  0  0  0  0  0  0
  -25.9000  -37.0060   24.4250 H   0  0  0  0  0  0  0  0  0  0  0  0
  1  2  1  0
  1  3  1  0
  2  5  1  0
  3  6  1  0
  4  1  2  0
  8  7  1  0
  9 10  1  0
 10  7  2  0
 10  2  1  0
 11  8  2  0
 12  9  2  0
 12 11  1  0
 13 19  1  0
 14 19  1  0
 15 16  1  0
 15 14  1  0
 17 16  1  0
 17 26  1  0
 17 18  1  0
 19 18  1  0
 20 13  2  0
 21 13  1  0
 21 11  1  0
 22 21  1  0
 23 24  2  0
 24 43  1  0
 25 24  1  0
 25 28  1  0
 26 27  1  0
 26 23  1  0
 27 25  2  0
 28 29  1  0
 29 30  2  0
 31 34  1  0
 31 30  1  0
 32 31  2  0
 33 32  1  0
 33 28  2  0
 34 35  1  0
 35 36  1  0
 36 37  2  0
 38 37  1  0
 38 42  1  0
 39 38  2  0
 40 35  2  0
 40 39  1  0
 41 40  1  0
 43 44  1  0
 44 47  1  0
 44 46  1  0
 45 43  2  0
 48 23  1  0
 48 49  1  0
 50 48  1  0
 51 52  1  0
 52 12  1  0
 53  3  1  0
 53 54  1  0
 55 54  1  0
 56 55  1  0
 57 56  1  0
 58 57  1  0
 59 58  1  0
 60 62  1  0
 60 59  1  0
 61 72  2  0
 62 67  1  0
 63 71  1  0
 63 73  1  0
 64 66  1  0
 64 70  1  0
 65 71  1  0
 66 65  1  0
 67 66  2  0
 68 62  2  0
 68 69  1  0
 69 64  2  0
 70 63  1  0
 71 61  1  0
 73 74  1  0
 73 75  2  0
 76 74  1  0
 77 86  2  0
 77 82  1  0
 78 74  1  0
 78 82  1  0
 79 78  1  0
 80 81  1  0
 80 79  1  0
 81 77  1  0
 82 83  2  0
 83 84  1  0
 85 84  2  0
 86 85  1  0
 87 61  1  0
 87 92  1  0
 87 88  1  0
 88 91  1  1
 88 89  1  0
 90 88  1  0
 92 95  1  0
 93 92  1  0
 93 97  1  0
 94 93  2  0
 97 96  1  0
 97 99  1  0
 99100  1  0
 99 98  1  0
M  ISO  4  13 100  21 100  59 101  60 101
M  END
>  <TORSDO>  (73) 
F 25

>  <SCORE>  (73) 
-7.577

>  <name>  (73) 
73

>  <ligand_id>  (73) 
73

>  <original_smiles>  (73) 
[H]c1c([H])c([H])c2c(c1[H])C([H])([H])C([H])([H])C([H])([H])C2([H])N([H])C(=O)C1([H])N(C(=O)C([H])(N([H])C(=O)C([H])(N([H])C([H])([H])[H])C([H])([H])[H])C(C([H])([H])[H])(C([H])([H])[H])C([H])([H])[H])C([H])([H])c2c([H])c(OC([H])([H])C([H])([H])C([H])([H])C([H])([H])C([H])([H])C([H])([H])C([H])([H])N([H])C(=O)N([H])c3c([H])c([H])c(N([H])C(=O)N4C([H])([H])C([H])([H])C([H])([H])C([H])(n5nc(-c6c([H])c([H])c(Oc7c([H])c([H])c(F)c([H])c7F)c([H])c6[H])c(C(=O)N([H])[H])c5N([H])[H])C4([H])[H])c(OC([H])([H])[H])c3[H])c([H])c([H])c2C1([H])[H]

>  <smiles>  (73) 
[H]c1c([H])c([H])c2c(c1[H])C([H])([H])C([H])([H])C([H])([H])C2([H])N([H])C(=O)C1([H])N(C(=O)C([H])(N([H])C(=O)C([H])(N([H])C([H])([H])[H])C([H])([H])[H])C(C([H])([H])[H])(C([H])([H])[H])C([H])([H])[H])C([H])([H])c2c([H])c(OC([H])([H])C([H])([H])C([H])([H])C([H])([H])C([H])([H])C([H])([H])C([H])([H])N([H])C(=O)N([H])c3c([H])c([H])c(N([H])C(=O)N4C([H])([H])C([H])([H])C([H])([H])C([H])(n5nc(-c6c([H])c([H])c(Oc7c([H])c([H])c(F)c([H])c7F)c([H])c6[H])c(C(=O)N([H])[H])c5N([H])[H])C4([H])[H])c(OC([H])([H])[H])c3[H])c([H])c([H])c2C1([H])[H]

$$$$
74:0:0
     RDKit          3D

111118  0  0  1  0  0  0  0  0999 V2000
  -31.9840  -19.8880   22.0860 C   0  0  0  0  0  2  0  0  0  0  0  0
  -29.9130  -19.1740   20.9760 C   0  0  0  0  0  0  0  0  0  0  0  0
  -30.6910  -19.1690   22.0940 N   0  0  0  0  0  0  0  0  0  0  0  0
  -30.2040  -19.8610   19.9910 O   0  0  0  0  0  0  0  0  0  0  0  0
  -30.2590  -18.6190   23.4020 C   0  0  0  0  0  3  0  0  0  0  0  0
  -30.1320  -19.7030   24.5050 C   0  0  0  0  0  2  0  0  0  0  0  0
  -28.7220  -19.8340   25.1160 C   0  0  0  0  0  2  0  0  0  0  0  0
  -28.7590  -20.2780   26.5890 C   0  0  0  0  0  2  0  0  0  0  0  0
  -27.8460  -19.4510   27.5160 C   0  0  0  0  0  2  0  0  0  0  0  0
  -26.4190  -19.7600   27.3270 N   0  0  0  0  0  4  0  0  0  0  0  0
  -26.2390  -20.7320   27.5020 H   0  0  0  0  0  0  0  0  0  0  0  0
  -25.8680  -19.2240   27.9740 H   0  0  0  0  0  0  0  0  0  0  0  0
  -26.1160  -19.5320   26.3990 H   0  0  0  0  0  0  0  0  0  0  0  0
  -31.1210  -17.4070   23.8170 C   0  0  0  0  0  2  0  0  0  0  0  0
  -30.3300  -16.4270   24.4660 O   0  0  0  0  0  0  0  0  0  0  0  0
  -30.0240  -16.7940   25.2900 H   0  0  0  0  0  0  0  0  0  0  0  0
  -28.6510  -18.2870   20.8960 C   0  0  0  0  0  2  0  0  0  0  0  0
  -28.4970  -17.5600   19.5400 C   0  0  0  0  0  2  0  0  0  0  0  0
  -29.0070  -15.2060   18.8720 C   0  0  0  0  0  0  0  0  0  0  0  0
  -29.1720  -12.8190   18.2710 C   0  0  0  0  0  2  0  0  0  0  0  0
  -28.0780  -12.4020   17.2690 C   0  0  0  0  0  2  0  0  0  0  0  0
  -26.7810  -12.0140   18.0050 C   0  0  0  0  0  2  0  0  0  0  0  0
  -26.3500  -13.0750   19.0510 C   0  0  0  0  0  3  0  0  0  0  0  0
  -27.5400  -13.4610   19.9580 C   0  0  0  0  0  2  0  0  0  0  0  0
  -28.6550  -13.9160   19.1020 N   0  0  0  0  0  0  0  0  0  0  0  0
  -29.8010  -15.5470   17.9900 O   0  0  0  0  0  0  0  0  0  0  0  0
  -28.4320  -16.1040   19.6790 N   0  0  0  0  0  0  0  0  0  0  0  0
  -27.8070  -15.7320   20.3800 H   0  0  0  0  0  0  0  0  0  0  0  0
  -24.1500  -13.3450   20.3680 C   0  0  0  0  0  0  0  0  0  0  0  0
  -23.3120  -12.4280   20.9470 C   0  0  0  0  0  0  0  0  0  0  0  0
  -23.9090  -11.1500   20.7210 C   0  0  0  0  0  0  0  0  0  0  0  0
  -25.2020  -12.6160   19.8340 N   0  0  0  0  0  0  0  0  0  0  0  0
  -25.0720  -11.2900   20.0990 N   0  0  0  0  0  0  0  0  0  0  0  0
  -23.4160   -9.7990   21.0130 C   0  0  0  0  0  0  0  0  0  0  0  0
  -23.9900   -9.0060   22.0320 C   0  0  0  0  0  3  0  0  0  0  0  0
  -23.4860   -7.7170   22.3030 C   0  0  0  0  0  3  0  0  0  0  0  0
  -22.3980   -7.2060   21.5550 C   0  0  0  0  0  0  0  0  0  0  0  0
  -21.8450   -7.9910   20.5270 C   0  0  0  0  0  3  0  0  0  0  0  0
  -22.3500   -9.2730   20.2530 C   0  0  0  0  0  3  0  0  0  0  0  0
  -21.8610   -5.9540   21.7310 O   0  0  0  0  0  0  0  0  0  0  0  0
  -21.7030   -5.4060   22.9790 C   0  0  0  0  0  0  0  0  0  0  0  0
  -20.8640   -5.9930   23.9500 C   0  0  0  0  0  3  0  0  0  0  0  0
  -20.6770   -5.3610   25.1950 C   0  0  0  0  0  3  0  0  0  0  0  0
  -21.3230   -4.1410   25.4680 C   0  0  0  0  0  0  0  0  0  0  0  0
  -22.1550   -3.5500   24.5000 C   0  0  0  0  0  3  0  0  0  0  0  0
  -22.3440   -4.1820   23.2590 C   0  0  0  0  0  0  0  0  0  0  0  0
  -23.1300   -3.5990   22.3210 F   0  0  0  0  0  0  0  0  0  0  0  0
  -21.1390   -3.5280   26.6610 F   0  0  0  0  0  0  0  0  0  0  0  0
  -21.9830  -12.7090   21.5880 C   0  0  0  0  0  0  0  0  0  0  0  0
  -21.5910  -11.9040   22.5690 N   0  0  0  0  0  0  0  0  0  0  0  0
  -21.3050  -13.6800   21.2550 O   0  0  0  0  0  0  0  0  0  0  0  0
  -22.1560  -11.1180   22.8580 H   0  0  0  0  0  0  0  0  0  0  0  0
  -20.7120  -12.0760   23.0360 H   0  0  0  0  0  0  0  0  0  0  0  0
  -24.0990  -14.7290   20.2350 N   0  0  0  0  0  0  0  0  0  0  0  0
  -23.3220  -15.2830   20.5770 H   0  0  0  0  0  0  0  0  0  0  0  0
  -24.7870  -15.2790   19.7340 H   0  0  0  0  0  0  0  0  0  0  0  0
  -32.9560  -19.3930   20.9870 C   0  0  0  0  0  2  0  0  0  0  0  0
  -33.8330  -20.5280   20.4220 C   0  0  0  0  0  2  0  0  0  0  0  0
  -34.5640  -20.1500   19.1180 C   0  0  0  0  0  2  0  0  0  0  0  0
  -35.5180  -21.2590   18.6140 C   0  0  0  0  0  2  0  0  0  0  0  0
  -34.1330  -22.1920   16.7500 C   0  0  0  0  0  0  0  0  0  0  0  0
  -35.2680  -21.6660   17.2300 N   0  0  0  0  0  0  0  0  0  0  0  0
  -33.1100  -22.2980   17.4300 O   0  0  0  0  0  0  0  0  0  0  0  0
  -36.0630  -21.6380   16.6020 H   0  0  0  0  0  0  0  0  0  0  0  0
  -34.1620  -22.6670   15.2890 C   0  0  0  0  0  2  0  0  0  0  0  0
  -32.3790  -24.1430   14.4550 C   0  0  0  0  0  0  0  0  0  0  0  0
  -34.3500  -25.1270   15.6480 C   0  0  0  0  0  1  0  0  0  0  0  0
  -33.5760  -24.0060   15.0820 N   0  0  0  0  0  0  0  0  0  0  0  0
  -31.7070  -23.1720   14.0920 O   0  0  0  0  0  0  0  0  0  0  0  0
  -31.8600  -25.5530   14.1400 C   0  0  0  0  0  2  0  0  0  0  0  0
  -30.8120  -25.5140   13.1470 O   0  0  0  0  0  0  0  0  0  0  0  0
  -25.4090  -26.7050   17.5960 C   0  0  0  0  0  0  0  0  0  0  0  0
  -29.6610  -26.2240   13.4310 C   0  0  0  0  0  0  0  0  0  0  0  0
  -25.2040  -27.7770   15.3690 C   0  0  0  0  0  3  0  0  0  0  0  0
  -27.3080  -27.7210   13.9260 C   0  0  0  0  0  0  0  0  0  0  0  0
  -27.4930  -27.3340   16.3950 C   0  0  0  0  0  2  0  0  0  0  0  0
  -28.0130  -27.1430   14.9880 C   0  0  0  0  0  0  0  0  0  0  0  0
  -29.1780  -26.4020   14.7500 C   0  0  0  0  0  3  0  0  0  0  0  0
  -28.9370  -26.7980   12.3650 C   0  0  0  0  0  3  0  0  0  0  0  0
  -27.7640  -27.5450   12.6040 C   0  0  0  0  0  3  0  0  0  0  0  0
  -26.0680  -28.5050   14.2990 C   0  0  0  0  0  2  0  0  0  0  0  0
  -26.0230  -27.2190   16.4940 N   0  0  0  0  0  0  0  0  0  0  0  0
  -24.1760  -26.7450   17.7110 O   0  0  0  0  0  0  0  0  0  0  0  0
  -24.3380  -26.7150   14.6570 C   0  0  0  0  0  0  0  0  0  0  0  0
  -23.2980  -27.1750   13.9440 N   0  0  0  0  0  0  0  0  0  0  0  0
  -24.6240  -25.5160   14.7320 O   0  0  0  0  0  0  0  0  0  0  0  0
  -23.1250  -28.1720   13.9490 H   0  0  0  0  0  0  0  0  0  0  0  0
  -20.4630  -27.3570   11.7200 C   0  0  0  0  0  0  0  0  0  0  0  0
  -22.3700  -26.3660   13.1570 C   0  0  0  0  0  3  0  0  0  0  0  0
  -23.0100  -25.9250   11.8210 C   0  0  0  0  0  2  0  0  0  0  0  0
  -22.7060  -26.8780   10.6600 C   0  0  0  0  0  2  0  0  0  0  0  0
  -21.1980  -27.0050   10.4400 C   0  0  0  0  0  2  0  0  0  0  0  0
  -21.0190  -27.0700   12.9960 C   0  0  0  0  0  0  0  0  0  0  0  0
  -20.3080  -27.4510   14.1530 C   0  0  0  0  0  3  0  0  0  0  0  0
  -19.0620  -28.1030   14.0510 C   0  0  0  0  0  3  0  0  0  0  0  0
  -18.5100  -28.3700   12.7880 C   0  0  0  0  0  3  0  0  0  0  0  0
  -19.2060  -27.9980   11.6250 C   0  0  0  0  0  3  0  0  0  0  0  0
  -26.2160  -26.0770   18.7750 C   0  0  0  0  0  3  0  0  0  0  0  0
  -26.2510  -24.5020   18.7350 C   0  0  1  0  0  0  0  0  0  0  0  0
  -24.8490  -23.8580   18.6220 C   0  0  0  0  0  1  0  0  0  0  0  0
  -27.1130  -24.0120   17.5470 C   0  0  0  0  0  1  0  0  0  0  0  0
  -26.9230  -23.9600   20.0180 C   0  0  0  0  0  1  0  0  0  0  0  0
  -25.6130  -26.5540   20.0250 N   0  0  0  0  0  0  0  0  0  0  0  0
  -26.1600  -27.4720   20.8310 C   0  0  0  0  0  0  0  0  0  0  0  0
  -27.2770  -27.9600   20.6270 O   0  0  0  0  0  0  0  0  0  0  0  0
  -24.6690  -26.2520   20.2200 H   0  0  0  0  0  0  0  0  0  0  0  0
  -24.7230  -29.2970   21.7920 C   0  0  0  0  0  1  0  0  0  0  0  0
  -25.3440  -27.9180   22.0610 C   0  0  0  0  0  3  0  0  0  0  0  0
  -26.5230  -26.6440   23.7970 C   0  0  0  0  0  1  0  0  0  0  0  0
  -26.1360  -27.9640   23.3090 N   0  0  0  0  0  0  0  0  0  0  0  0
  -25.6190  -28.4390   24.0430 H   0  0  0  0  0  0  0  0  0  0  0  0
  1  3  1  0
  2  3  1  0
  3  5  1  0
  4  2  2  0
  5 14  1  0
  5  6  1  0
  6  7  1  0
  7  8  1  0
  8  9  1  0
 10 11  1  0
 10  9  1  0
 10 12  1  0
 13 10  1  0
 14 15  1  0
 15 16  1  0
 17  2  1  0
 18 27  1  0
 18 17  1  0
 19 25  1  0
 19 27  1  0
 20 25  1  0
 21 22  1  0
 21 20  1  0
 23 22  1  0
 23 32  1  0
 23 24  1  0
 25 24  1  0
 26 19  2  0
 27 28  1  0
 29 30  2  0
 30 49  1  0
 31 30  1  0
 31 34  1  0
 32 33  1  0
 32 29  1  0
 33 31  2  0
 34 35  1  0
 35 36  2  0
 37 40  1  0
 37 36  1  0
 38 37  2  0
 39 38  1  0
 39 34  2  0
 40 41  1  0
 41 46  2  0
 41 42  1  0
 42 43  2  0
 43 44  1  0
 44 48  1  0
 45 44  2  0
 46 45  1  0
 47 46  1  0
 49 50  1  0
 50 52  1  0
 50 53  1  0
 51 49  2  0
 54 29  1  0
 54 55  1  0
 56 54  1  0
 57  1  1  0
 58 57  1  0
 59 58  1  0
 60 59  1  0
 61 62  1  0
 61 63  2  0
 62 60  1  0
 64 62  1  0
 65 61  1  0
 66 68  1  0
 68 65  1  0
 68 67  1  0
 69 66  2  0
 70 66  1  0
 71 73  1  0
 71 70  1  0
 72 83  2  0
 73 78  1  0
 74 84  1  0
 74 82  1  0
 75 81  1  0
 75 77  1  0
 76 82  1  0
 77 76  1  0
 78 77  2  0
 79 80  1  0
 79 73  2  0
 80 75  2  0
 81 74  1  0
 82 72  1  0
 84 86  2  0
 85 87  1  0
 85 84  1  0
 88 93  1  0
 89 85  1  0
 90 89  1  0
 91 90  1  0
 92 91  1  0
 92 88  1  0
 93 89  1  0
 93 94  2  0
 95 94  1  0
 96 95  2  0
 97 88  2  0
 97 96  1  0
 98 72  1  0
 98103  1  0
 99 98  1  0
 99102  1  1
100 99  1  0
101 99  1  0
103106  1  0
103104  1  0
104108  1  0
105104  2  0
108107  1  0
108110  1  0
110109  1  0
110111  1  0
M  ISO  4  19 100  27 100  70 101  71 101
M  END
>  <TORSDO>  (74) 
F 35

>  <SCORE>  (74) 
10.457

>  <name>  (74) 
74

>  <ligand_id>  (74) 
74

>  <original_smiles>  (74) 
[H]OC([H])([H])C([H])(N(C(=O)C([H])([H])C([H])([H])N([H])C(=O)N1C([H])([H])C([H])([H])C([H])([H])C([H])(n2nc(-c3c([H])c([H])c(Oc4c([H])c([H])c(F)c([H])c4F)c([H])c3[H])c(C(=O)N([H])[H])c2N([H])[H])C1([H])[H])C([H])([H])C([H])([H])C([H])([H])C([H])([H])C([H])([H])N([H])C(=O)C([H])([H])N(C(=O)C([H])([H])Oc1c([H])c([H])c2c(c1[H])C([H])([H])N(C(=O)C([H])(N([H])C(=O)C([H])(N([H])C([H])([H])[H])C([H])([H])[H])C(C([H])([H])[H])(C([H])([H])[H])C([H])([H])[H])C([H])(C(=O)N([H])C1([H])c3c([H])c([H])c([H])c([H])c3C([H])([H])C([H])([H])C1([H])[H])C2([H])[H])C([H])([H])[H])C([H])([H])C([H])([H])C([H])([H])C([H])([H])[N+]([H])([H])[H]

>  <smiles>  (74) 
[H]OC([H])([H])C([H])(N(C(=O)C([H])([H])C([H])([H])N([H])C(=O)N1C([H])([H])C([H])([H])C([H])([H])C([H])(n2nc(-c3c([H])c([H])c(Oc4c([H])c([H])c(F)c([H])c4F)c([H])c3[H])c(C(=O)N([H])[H])c2N([H])[H])C1([H])[H])C([H])([H])C([H])([H])C([H])([H])C([H])([H])C([H])([H])N([H])C(=O)C([H])([H])N(C(=O)C([H])([H])Oc1c([H])c([H])c2c(c1[H])C([H])([H])N(C(=O)C([H])(N([H])C(=O)C([H])(N([H])C([H])([H])[H])C([H])([H])[H])C(C([H])([H])[H])(C([H])([H])[H])C([H])([H])[H])C([H])(C(=O)N([H])C1([H])c3c([H])c([H])c([H])c([H])c3C([H])([H])C([H])([H])C1([H])[H])C2([H])[H])C([H])([H])[H])C([H])([H])C([H])([H])C([H])([H])C([H])([H])[N+]([H])([H])[H]

$$$$
75:0:0
     RDKit          3D

128136  0  0  1  0  0  0  0  0999 V2000
  -29.7360  -21.9500   12.8370 C   0  0  0  0  0  0  0  0  0  0  0  0
  -29.2060  -20.7230   12.7900 N   0  0  0  0  0  0  0  0  0  0  0  0
  -30.9500  -22.1540   12.7820 O   0  0  0  0  0  0  0  0  0  0  0  0
  -28.1980  -20.6500   12.8070 H   0  0  0  0  0  0  0  0  0  0  0  0
  -29.9550  -19.4730   12.7190 C   0  0  0  0  0  2  0  0  0  0  0  0
  -30.0750  -18.8020   14.0970 C   0  0  0  0  0  2  0  0  0  0  0  0
  -30.7900  -19.6550   15.1600 C   0  0  0  0  0  2  0  0  0  0  0  0
  -31.0380  -18.8600   16.4440 C   0  0  0  0  0  2  0  0  0  0  0  0
  -31.8900  -19.6070   17.4760 C   0  0  0  0  0  2  0  0  0  0  0  0
  -31.9790  -18.7730   18.7580 C   0  0  0  0  0  2  0  0  0  0  0  0
  -32.8140  -19.3920   19.8860 C   0  0  0  0  0  2  0  0  0  0  0  0
  -32.1660  -20.6540   20.4970 C   0  0  0  0  0  2  0  0  0  0  0  0
  -31.6810  -19.8560   22.8140 C   0  0  0  0  0  0  0  0  0  0  0  0
  -32.3180  -20.7080   21.9630 N   0  0  0  0  0  0  0  0  0  0  0  0
  -31.9570  -19.7880   24.0150 O   0  0  0  0  0  0  0  0  0  0  0  0
  -30.5460  -18.9450   22.3120 C   0  0  0  0  0  2  0  0  0  0  0  0
  -30.8430  -17.4360   22.4420 C   0  0  0  0  0  2  0  0  0  0  0  0
  -30.0640  -16.6540   21.3770 C   0  0  0  0  0  2  0  0  0  0  0  0
  -30.7180  -14.3760   20.6850 C   0  0  0  0  0  0  0  0  0  0  0  0
  -30.4270  -12.2880   19.4070 C   0  0  0  0  0  2  0  0  0  0  0  0
  -29.4980  -12.5500   18.2050 C   0  0  0  0  0  2  0  0  0  0  0  0
  -28.0140  -12.4080   18.6040 C   0  0  0  0  0  2  0  0  0  0  0  0
  -27.6690  -13.2000   19.8930 C   0  0  0  0  0  3  0  0  0  0  0  0
  -28.7020  -12.9010   21.0030 C   0  0  0  0  0  2  0  0  0  0  0  0
  -30.0490  -13.2100   20.4850 N   0  0  0  0  0  0  0  0  0  0  0  0
  -31.7490  -14.6880   20.0820 O   0  0  0  0  0  0  0  0  0  0  0  0
  -30.1040  -15.2070   21.5380 N   0  0  0  0  0  0  0  0  0  0  0  0
  -29.3300  -14.8000   22.0420 H   0  0  0  0  0  0  0  0  0  0  0  0
  -25.2580  -13.8120   20.5660 C   0  0  0  0  0  0  0  0  0  0  0  0
  -24.1810  -13.0430   20.9170 C   0  0  0  0  0  0  0  0  0  0  0  0
  -24.6360  -11.6910   20.8710 C   0  0  0  0  0  0  0  0  0  0  0  0
  -26.3030  -12.9290   20.3390 N   0  0  0  0  0  0  0  0  0  0  0  0
  -25.9280  -11.6450   20.5710 N   0  0  0  0  0  0  0  0  0  0  0  0
  -23.9020  -10.4310   21.0370 C   0  0  0  0  0  0  0  0  0  0  0  0
  -24.3590   -9.4230   21.9150 C   0  0  0  0  0  3  0  0  0  0  0  0
  -23.6330   -8.2240   22.0710 C   0  0  0  0  0  3  0  0  0  0  0  0
  -22.4290   -8.0260   21.3530 C   0  0  0  0  0  0  0  0  0  0  0  0
  -21.9900   -9.0210   20.4610 C   0  0  0  0  0  3  0  0  0  0  0  0
  -22.7190  -10.2120   20.3020 C   0  0  0  0  0  3  0  0  0  0  0  0
  -21.6660   -6.8860   21.4270 O   0  0  0  0  0  0  0  0  0  0  0  0
  -21.6870   -6.0720   22.5300 C   0  0  0  0  0  0  0  0  0  0  0  0
  -21.4010   -6.5620   23.8240 C   0  0  0  0  0  3  0  0  0  0  0  0
  -21.3660   -5.6770   24.9210 C   0  0  0  0  0  3  0  0  0  0  0  0
  -21.6060   -4.3030   24.7240 C   0  0  0  0  0  0  0  0  0  0  0  0
  -21.8830   -3.8120   23.4350 C   0  0  0  0  0  3  0  0  0  0  0  0
  -21.9200   -4.6940   22.3420 C   0  0  0  0  0  0  0  0  0  0  0  0
  -22.1660   -4.2140   21.0980 F   0  0  0  0  0  0  0  0  0  0  0  0
  -21.5660   -3.4520   25.7750 F   0  0  0  0  0  0  0  0  0  0  0  0
  -22.7840  -13.5240   21.1870 C   0  0  0  0  0  0  0  0  0  0  0  0
  -22.0460  -12.8240   22.0440 N   0  0  0  0  0  0  0  0  0  0  0  0
  -22.3550  -14.5560   20.6740 O   0  0  0  0  0  0  0  0  0  0  0  0
  -22.4050  -11.9940   22.4910 H   0  0  0  0  0  0  0  0  0  0  0  0
  -21.1020  -13.1200   22.2490 H   0  0  0  0  0  0  0  0  0  0  0  0
  -25.4340  -15.1830   20.4090 N   0  0  0  0  0  0  0  0  0  0  0  0
  -24.6730  -15.8440   20.5210 H   0  0  0  0  0  0  0  0  0  0  0  0
  -26.3000  -15.6180   20.1180 H   0  0  0  0  0  0  0  0  0  0  0  0
  -33.3130  -21.6800   22.4640 C   0  0  0  0  0  2  0  0  0  0  0  0
  -32.8120  -25.7510   20.9410 C   0  0  0  0  0  3  0  0  0  0  0  0
  -33.8950  -24.9710   20.5110 C   0  0  0  0  0  3  0  0  0  0  0  0
  -31.9120  -25.2310   21.8840 C   0  0  0  0  0  3  0  0  0  0  0  0
  -34.0820  -23.6610   20.9990 C   0  0  0  0  0  0  0  0  0  0  0  0
  -32.0670  -23.9190   22.3770 C   0  0  0  0  0  0  0  0  0  0  0  0
  -33.1550  -23.1140   21.9350 C   0  0  0  0  0  0  0  0  0  0  0  0
  -35.2800  -22.8790   20.4710 C   0  0  0  0  0  1  0  0  0  0  0  0
  -31.0450  -23.4070   23.3800 C   0  0  0  0  0  1  0  0  0  0  0  0
  -28.7400  -23.1060   12.9590 C   0  0  0  0  0  2  0  0  0  0  0  0
  -29.3640  -24.4610   13.3560 C   0  0  0  0  0  2  0  0  0  0  0  0
  -29.9000  -24.5530   14.8010 C   0  0  0  0  0  2  0  0  0  0  0  0
  -28.7960  -24.4880   15.8800 C   0  0  0  0  0  2  0  0  0  0  0  0
  -29.3190  -24.6630   17.3190 C   0  0  0  0  0  0  0  0  0  0  0  0
  -28.5450  -24.2710   18.3650 N   0  0  0  0  0  0  0  0  0  0  0  0
  -30.4420  -25.1520   17.4780 O   0  0  0  0  0  0  0  0  0  0  0  0
  -27.1970  -23.6990   18.2150 C   0  0  0  0  0  2  0  0  0  0  0  0
  -27.1850  -22.1710   18.0540 C   0  0  0  0  0  2  0  0  0  0  0  0
  -25.7400  -21.6490   17.9720 C   0  0  0  0  0  2  0  0  0  0  0  0
  -25.6310  -20.1190   17.9880 C   0  0  0  0  0  2  0  0  0  0  0  0
  -25.4490  -18.6270   15.9620 C   0  0  0  0  0  0  0  0  0  0  0  0
  -26.0060  -18.2260   14.8250 N   0  0  0  0  0  4  0  0  0  0  0  0
  -24.2750  -18.1170   16.3250 N   0  0  0  0  0  0  0  0  0  0  0  0
  -26.0820  -19.5380   16.7130 N   0  0  0  0  0  0  0  0  0  0  0  0
  -25.5710  -17.5430   14.2200 H   0  0  0  0  0  0  0  0  0  0  0  0
  -26.8860  -18.6040   14.5120 H   0  0  0  0  0  0  0  0  0  0  0  0
  -23.7870  -17.4330   15.7660 H   0  0  0  0  0  0  0  0  0  0  0  0
  -23.8360  -18.4010   17.1880 H   0  0  0  0  0  0  0  0  0  0  0  0
  -27.0000  -19.8370   16.4210 H   0  0  0  0  0  0  0  0  0  0  0  0
  -29.0290  -24.3580   19.7560 C   0  0  0  0  0  2  0  0  0  0  0  0
  -28.3110  -25.4240   20.6080 C   0  0  0  0  0  2  0  0  0  0  0  0
  -28.4040  -26.7410   20.0580 O   0  0  0  0  0  0  0  0  0  0  0  0
  -24.6140  -31.8690   23.2140 C   0  0  0  0  0  0  0  0  0  0  0  0
  -27.2350  -27.4650   20.0840 C   0  0  0  0  0  0  0  0  0  0  0  0
  -23.4000  -30.4970   21.5550 C   0  0  0  0  0  3  0  0  0  0  0  0
  -24.8450  -28.9690   20.1170 C   0  0  0  0  0  0  0  0  0  0  0  0
  -25.9290  -30.8440   21.3630 C   0  0  0  0  0  2  0  0  0  0  0  0
  -26.0040  -29.4820   20.7080 C   0  0  0  0  0  0  0  0  0  0  0  0
  -27.2060  -28.7390   20.6880 C   0  0  0  0  0  3  0  0  0  0  0  0
  -26.0610  -26.9680   19.4790 C   0  0  0  0  0  3  0  0  0  0  0  0
  -24.8640  -27.7090   19.4970 C   0  0  0  0  0  3  0  0  0  0  0  0
  -23.6050  -29.8310   20.1690 C   0  0  0  0  0  2  0  0  0  0  0  0
  -24.6660  -31.0840   22.1020 N   0  0  0  0  0  0  0  0  0  0  0  0
  -23.5340  -32.1400   23.7580 O   0  0  0  0  0  0  0  0  0  0  0  0
  -22.7400  -29.4680   22.5020 C   0  0  0  0  0  0  0  0  0  0  0  0
  -21.4120  -29.3020   22.3750 N   0  0  0  0  0  0  0  0  0  0  0  0
  -23.4180  -28.8220   23.3050 O   0  0  0  0  0  0  0  0  0  0  0  0
  -20.9280  -29.8740   21.6980 H   0  0  0  0  0  0  0  0  0  0  0  0
  -18.0270  -28.1380   22.8510 C   0  0  0  0  0  0  0  0  0  0  0  0
  -20.5860  -28.3650   23.1340 C   0  0  0  0  0  3  0  0  0  0  0  0
  -20.6760  -26.9410   22.5410 C   0  0  0  0  0  2  0  0  0  0  0  0
  -19.5740  -26.6390   21.5220 C   0  0  0  0  0  2  0  0  0  0  0  0
  -18.1910  -26.7930   22.1630 C   0  0  0  0  0  2  0  0  0  0  0  0
  -19.1520  -28.8840   23.2910 C   0  0  0  0  0  0  0  0  0  0  0  0
  -18.9440  -30.1450   23.8930 C   0  0  0  0  0  3  0  0  0  0  0  0
  -17.6440  -30.6580   24.0580 C   0  0  0  0  0  3  0  0  0  0  0  0
  -16.5340  -29.9090   23.6330 C   0  0  0  0  0  3  0  0  0  0  0  0
  -16.7260  -28.6500   23.0350 C   0  0  0  0  0  3  0  0  0  0  0  0
  -25.9040  -32.4840   23.8420 C   0  0  0  0  0  3  0  0  0  0  0  0
  -26.4480  -31.6600   25.0730 C   0  0  1  0  0  0  0  0  0  0  0  0
  -25.3750  -31.3680   26.1490 C   0  0  0  0  0  1  0  0  0  0  0  0
  -27.0300  -30.3060   24.6090 C   0  0  0  0  0  1  0  0  0  0  0  0
  -27.6060  -32.4310   25.7470 C   0  0  0  0  0  1  0  0  0  0  0  0
  -25.5900  -33.8630   24.2350 N   0  0  0  0  0  0  0  0  0  0  0  0
  -25.9040  -34.9490   23.5150 C   0  0  0  0  0  0  0  0  0  0  0  0
  -26.5570  -34.8930   22.4710 O   0  0  0  0  0  0  0  0  0  0  0  0
  -25.0120  -33.9800   25.0560 H   0  0  0  0  0  0  0  0  0  0  0  0
  -24.1490  -36.7330   23.2640 C   0  0  0  0  0  1  0  0  0  0  0  0
  -25.4110  -36.3130   24.0360 C   0  0  0  0  0  3  0  0  0  0  0  0
  -27.5590  -37.1820   24.8470 C   0  0  0  0  0  1  0  0  0  0  0  0
  -26.4290  -37.3800   23.9420 N   0  0  0  0  0  0  0  0  0  0  0  0
  -26.0190  -38.2890   24.1400 H   0  0  0  0  0  0  0  0  0  0  0  0
  1 66  1  0
  2  4  1  0
  2  1  1  0
  3  1  2  0
  5  2  1  0
  5  6  1  0
  6  7  1  0
  7  8  1  0
  8  9  1  0
  9 10  1  0
 10 11  1  0
 11 12  1  0
 12 14  1  0
 13 15  2  0
 14 57  1  0
 14 13  1  0
 16 17  1  0
 16 13  1  0
 18 27  1  0
 18 17  1  0
 19 27  1  0
 20 25  1  0
 21 22  1  0
 21 20  1  0
 23 22  1  0
 23 32  1  0
 23 24  1  0
 25 19  1  0
 25 24  1  0
 26 19  2  0
 27 28  1  0
 29 30  2  0
 30 49  1  0
 31 30  1  0
 31 34  1  0
 32 29  1  0
 32 33  1  0
 33 31  2  0
 34 35  1  0
 35 36  2  0
 37 40  1  0
 37 36  1  0
 38 37  2  0
 39 38  1  0
 39 34  2  0
 40 41  1  0
 41 42  1  0
 42 43  2  0
 44 43  1  0
 44 48  1  0
 45 44  2  0
 46 41  2  0
 46 45  1  0
 47 46  1  0
 49 50  1  0
 50 53  1  0
 50 52  1  0
 51 49  2  0
 54 55  1  0
 54 29  1  0
 56 54  1  0
 58 60  1  0
 59 58  2  0
 59 61  1  0
 60 62  2  0
 61 63  2  0
 62 65  1  0
 63 62  1  0
 63 57  1  0
 64 61  1  0
 66 67  1  0
 67 68  1  0
 68 69  1  0
 69 70  1  0
 70 72  2  0
 70 71  1  0
 71 86  1  0
 73 71  1  0
 74 73  1  0
 75 76  1  0
 75 74  1  0
 77 79  1  0
 77 80  1  0
 78 77  2  0
 79 84  1  0
 80 76  1  0
 81 78  1  0
 82 78  1  0
 83 79  1  0
 85 80  1  0
 86 87  1  0
 88 90  1  0
 88 87  1  0
 89100  2  0
 90 95  1  0
 91 99  1  0
 91101  1  0
 92 98  1  0
 92 94  1  0
 93 99  1  0
 94 93  1  0
 95 94  2  0
 96 97  1  0
 96 90  2  0
 97 92  2  0
 98 91  1  0
 99 89  1  0
101103  2  0
102101  1  0
104102  1  0
105114  2  0
105110  1  0
106102  1  0
106110  1  0
107106  1  0
108109  1  0
108107  1  0
109105  1  0
110111  2  0
111112  1  0
113112  2  0
114113  1  0
115 89  1  0
115120  1  0
115116  1  0
116119  1  1
116117  1  0
118116  1  0
120123  1  0
121125  1  0
121120  1  0
122121  2  0
125124  1  0
127125  1  0
127128  1  0
127126  1  0
M  ISO  4  19 100  27 100  87 101  88 101
M  END
>  <TORSDO>  (75) 
F 42

>  <SCORE>  (75) 
3.197

>  <name>  (75) 
75

>  <ligand_id>  (75) 
75

>  <original_smiles>  (75) 
[H]c1c([H])c(C([H])([H])[H])c(C([H])([H])N(C(=O)C([H])([H])C([H])([H])C([H])([H])N([H])C(=O)N2C([H])([H])C([H])([H])C([H])([H])C([H])(n3nc(-c4c([H])c([H])c(Oc5c([H])c([H])c(F)c([H])c5F)c([H])c4[H])c(C(=O)N([H])[H])c3N([H])[H])C2([H])[H])C([H])([H])C([H])([H])C([H])([H])C([H])([H])C([H])([H])C([H])([H])C([H])([H])C([H])([H])N([H])C(=O)C([H])([H])C([H])([H])C([H])([H])C([H])([H])C(=O)N(C([H])([H])C([H])([H])Oc2c([H])c([H])c3c(c2[H])C([H])([H])N(C(=O)C([H])(N([H])C(=O)C([H])(N([H])C([H])([H])[H])C([H])([H])[H])C(C([H])([H])[H])(C([H])([H])[H])C([H])([H])[H])C([H])(C(=O)N([H])C2([H])c4c([H])c([H])c([H])c([H])c4C([H])([H])C([H])([H])C2([H])[H])C3([H])[H])C([H])([H])C([H])([H])C([H])([H])C([H])([H])N([H])C(N([H])[H])=[N+]([H])[H])c(C([H])([H])[H])c1[H]

>  <smiles>  (75) 
[H]c1c([H])c(C([H])([H])[H])c(C([H])([H])N(C(=O)C([H])([H])C([H])([H])C([H])([H])N([H])C(=O)N2C([H])([H])C([H])([H])C([H])([H])C([H])(n3nc(-c4c([H])c([H])c(Oc5c([H])c([H])c(F)c([H])c5F)c([H])c4[H])c(C(=O)N([H])[H])c3N([H])[H])C2([H])[H])C([H])([H])C([H])([H])C([H])([H])C([H])([H])C([H])([H])C([H])([H])C([H])([H])C([H])([H])N([H])C(=O)C([H])([H])C([H])([H])C([H])([H])C([H])([H])C(=O)N(C([H])([H])C([H])([H])Oc2c([H])c([H])c3c(c2[H])C([H])([H])N(C(=O)C([H])(N([H])C(=O)C([H])(N([H])C([H])([H])[H])C([H])([H])[H])C(C([H])([H])[H])(C([H])([H])[H])C([H])([H])[H])C([H])(C(=O)N([H])C2([H])c4c([H])c([H])c([H])c([H])c4C([H])([H])C([H])([H])C2([H])[H])C3([H])[H])C([H])([H])C([H])([H])C([H])([H])C([H])([H])N([H])C(N([H])[H])=[N+]([H])[H])c(C([H])([H])[H])c1[H]

$$$$
76:0:0
     RDKit          3D

107116  0  0  1  0  0  0  0  0999 V2000
  -28.2000  -21.2560   22.3280 C   0  0  0  0  0  3  0  0  0  0  0  0
  -28.5900  -21.2420   19.9180 C   0  0  0  0  0  3  0  0  0  0  0  0
  -27.7050  -22.5700   22.2390 C   0  0  0  0  0  3  0  0  0  0  0  0
  -28.0880  -22.5510   19.8290 C   0  0  0  0  0  3  0  0  0  0  0  0
  -28.7340  -20.6300   21.1800 C   0  0  0  0  0  0  0  0  0  0  0  0
  -27.7480  -23.2500   21.0070 C   0  0  0  0  0  0  0  0  0  0  0  0
  -28.1770  -25.5520   20.2670 C   0  0  0  0  0  0  0  0  0  0  0  0
  -27.5040  -24.6390   20.9920 N   0  0  0  0  0  0  0  0  0  0  0  0
  -28.0770  -26.7420   20.5570 O   0  0  0  0  0  0  0  0  0  0  0  0
  -26.9910  -25.0150   21.7760 H   0  0  0  0  0  0  0  0  0  0  0  0
  -29.1180  -25.1180   19.1160 C   0  0  0  0  0  2  0  0  0  0  0  0
  -30.5450  -25.7030   19.1150 C   0  0  0  0  0  2  0  0  0  0  0  0
  -30.7320  -27.1010   18.5050 C   0  0  0  0  0  2  0  0  0  0  0  0
  -29.9410  -27.2780   17.3220 O   0  0  0  0  0  0  0  0  0  0  0  0
  -25.1140  -28.0520   22.4090 C   0  0  0  0  0  0  0  0  0  0  0  0
  -28.6190  -27.5060   17.6030 C   0  0  0  0  0  0  0  0  0  0  0  0
  -24.2180  -27.5770   20.1500 C   0  0  0  0  0  3  0  0  0  0  0  0
  -25.8900  -27.7830   18.2370 C   0  0  0  0  0  0  0  0  0  0  0  0
  -26.4230  -28.8350   20.4460 C   0  0  0  0  0  2  0  0  0  0  0  0
  -26.8660  -28.2360   19.1310 C   0  0  0  0  0  0  0  0  0  0  0  0
  -28.2310  -28.1200   18.8120 C   0  0  0  0  0  3  0  0  0  0  0  0
  -27.6340  -27.0740   16.6930 C   0  0  0  0  0  3  0  0  0  0  0  0
  -26.2680  -27.2050   17.0100 C   0  0  0  0  0  3  0  0  0  0  0  0
  -24.4490  -27.9560   18.6620 C   0  0  0  0  0  2  0  0  0  0  0  0
  -25.2740  -28.1330   21.0590 N   0  0  0  0  0  0  0  0  0  0  0  0
  -24.0850  -27.5710   22.9020 O   0  0  0  0  0  0  0  0  0  0  0  0
  -24.0730  -26.0430   20.2520 C   0  0  0  0  0  0  0  0  0  0  0  0
  -23.1420  -25.4780   19.4660 N   0  0  0  0  0  0  0  0  0  0  0  0
  -24.7960  -25.3840   21.0030 O   0  0  0  0  0  0  0  0  0  0  0  0
  -22.5510  -26.0910   18.9230 H   0  0  0  0  0  0  0  0  0  0  0  0
  -21.4030  -23.0130   17.4740 C   0  0  0  0  0  0  0  0  0  0  0  0
  -22.8530  -24.0500   19.3470 C   0  0  0  0  0  3  0  0  0  0  0  0
  -24.0370  -23.2840   18.7130 C   0  0  0  0  0  2  0  0  0  0  0  0
  -23.9130  -23.1290   17.1920 C   0  0  0  0  0  2  0  0  0  0  0  0
  -22.6260  -22.3850   16.8310 C   0  0  0  0  0  2  0  0  0  0  0  0
  -21.5120  -23.8090   18.6450 C   0  0  0  0  0  0  0  0  0  0  0  0
  -20.3490  -24.3990   19.1830 C   0  0  0  0  0  3  0  0  0  0  0  0
  -19.0950  -24.2070   18.5710 C   0  0  0  0  0  3  0  0  0  0  0  0
  -18.9910  -23.4070   17.4210 C   0  0  0  0  0  3  0  0  0  0  0  0
  -20.1410  -22.8070   16.8790 C   0  0  0  0  0  3  0  0  0  0  0  0
  -26.1960  -28.5870   23.4020 C   0  0  0  0  0  3  0  0  0  0  0  0
  -26.5640  -27.5530   24.5320 C   0  0  1  0  0  0  0  0  0  0  0  0
  -25.3300  -26.9060   25.2030 C   0  0  0  0  0  1  0  0  0  0  0  0
  -27.4520  -26.4220   23.9640 C   0  0  0  0  0  1  0  0  0  0  0  0
  -27.3940  -28.2540   25.6350 C   0  0  0  0  0  1  0  0  0  0  0  0
  -25.6840  -29.8360   23.9830 N   0  0  0  0  0  0  0  0  0  0  0  0
  -26.1200  -31.0600   23.6570 C   0  0  0  0  0  0  0  0  0  0  0  0
  -27.0610  -31.2500   22.8810 O   0  0  0  0  0  0  0  0  0  0  0  0
  -24.8850  -29.7580   24.5950 H   0  0  0  0  0  0  0  0  0  0  0  0
  -24.4380  -32.8930   23.2750 C   0  0  0  0  0  1  0  0  0  0  0  0
  -25.3980  -32.2640   24.2980 C   0  0  0  0  0  3  0  0  0  0  0  0
  -27.1720  -32.8250   25.9030 C   0  0  0  0  0  1  0  0  0  0  0  0
  -26.3190  -33.2990   24.8150 N   0  0  0  0  0  0  0  0  0  0  0  0
  -25.8000  -34.1080   25.1490 H   0  0  0  0  0  0  0  0  0  0  0  0
  -30.8650  -19.4740   21.1510 C   0  0  0  0  0  0  0  0  0  0  0  0
  -29.5260  -19.4610   21.2440 N   0  0  0  0  0  0  0  0  0  0  0  0
  -31.6230  -20.1760   21.8220 O   0  0  0  0  0  0  0  0  0  0  0  0
  -29.1080  -18.6580   20.7970 H   0  0  0  0  0  0  0  0  0  0  0  0
  -31.9970  -17.9330   17.8700 C   0  0  0  0  0  3  0  0  0  0  0  0
  -31.9840  -16.5680   18.1860 C   0  0  0  0  0  3  0  0  0  0  0  0
  -31.3890  -18.4720   20.1710 C   0  0  0  0  0  0  0  0  0  0  0  0
  -31.6780  -18.9020   18.8430 C   0  0  0  0  0  0  0  0  0  0  0  0
  -31.4660  -17.0950   20.5200 C   0  0  0  0  0  0  0  0  0  0  0  0
  -31.6990  -16.1360   19.5020 C   0  0  0  0  0  0  0  0  0  0  0  0
  -31.2440  -16.6390   21.9670 C   0  0  0  0  0  1  0  0  0  0  0  0
  -31.7700  -13.6900   19.0660 C   0  0  0  0  0  0  0  0  0  0  0  0
  -31.2600  -11.2830   18.9050 C   0  0  0  0  0  2  0  0  0  0  0  0
  -30.2530  -10.9710   17.7830 C   0  0  0  0  0  2  0  0  0  0  0  0
  -28.8090  -11.0990   18.3040 C   0  0  0  0  0  2  0  0  0  0  0  0
  -28.5680  -12.4480   19.0290 C   0  0  0  0  0  3  0  0  0  0  0  0
  -29.6740  -12.7230   20.0730 C   0  0  0  0  0  2  0  0  0  0  0  0
  -30.9970  -12.6320   19.4180 N   0  0  0  0  0  0  0  0  0  0  0  0
  -32.6700  -13.6190   18.2240 O   0  0  0  0  0  0  0  0  0  0  0  0
  -31.5850  -14.7640   19.8460 N   0  0  0  0  0  0  0  0  0  0  0  0
  -30.9570  -14.5720   20.6110 H   0  0  0  0  0  0  0  0  0  0  0  0
  -26.4360  -13.5900   19.9220 C   0  0  0  0  0  0  0  0  0  0  0  0
  -25.2670  -13.0840   20.4190 C   0  0  0  0  0  0  0  0  0  0  0  0
  -25.4190  -11.6630   20.4130 C   0  0  0  0  0  0  0  0  0  0  0  0
  -27.2380  -12.4960   19.6350 N   0  0  0  0  0  0  0  0  0  0  0  0
  -26.6320  -11.3320   19.9880 N   0  0  0  0  0  0  0  0  0  0  0  0
  -24.4590  -10.5980   20.7320 C   0  0  0  0  0  0  0  0  0  0  0  0
  -24.8030   -9.5290   21.5880 C   0  0  0  0  0  3  0  0  0  0  0  0
  -23.8600   -8.5230   21.8920 C   0  0  0  0  0  3  0  0  0  0  0  0
  -22.5580   -8.5820   21.3400 C   0  0  0  0  0  0  0  0  0  0  0  0
  -22.2290   -9.6350   20.4700 C   0  0  0  0  0  3  0  0  0  0  0  0
  -23.1700  -10.6320   20.1650 C   0  0  0  0  0  3  0  0  0  0  0  0
  -21.5840   -7.6360   21.5580 O   0  0  0  0  0  0  0  0  0  0  0  0
  -21.4900   -6.9610   22.7480 C   0  0  0  0  0  0  0  0  0  0  0  0
  -21.4390   -7.6360   23.9870 C   0  0  0  0  0  3  0  0  0  0  0  0
  -21.2740   -6.9060   25.1810 C   0  0  0  0  0  3  0  0  0  0  0  0
  -21.1470   -5.5030   25.1370 C   0  0  0  0  0  0  0  0  0  0  0  0
  -21.1930   -4.8300   23.9040 C   0  0  0  0  0  3  0  0  0  0  0  0
  -21.3610   -5.5570   22.7130 C   0  0  0  0  0  0  0  0  0  0  0  0
  -21.3820   -4.9050   21.5260 F   0  0  0  0  0  0  0  0  0  0  0  0
  -20.9800   -4.8020   26.2830 F   0  0  0  0  0  0  0  0  0  0  0  0
  -24.0390  -13.8620   20.7960 C   0  0  0  0  0  0  0  0  0  0  0  0
  -23.2850  -13.3850   21.7790 N   0  0  0  0  0  0  0  0  0  0  0  0
  -23.7680  -14.9300   20.2490 O   0  0  0  0  0  0  0  0  0  0  0  0
  -23.5180  -12.5180   22.2420 H   0  0  0  0  0  0  0  0  0  0  0  0
  -22.4590  -13.8920   22.0710 H   0  0  0  0  0  0  0  0  0  0  0  0
  -26.8780  -14.8870   19.6700 N   0  0  0  0  0  0  0  0  0  0  0  0
  -26.2880  -15.6960   19.8290 H   0  0  0  0  0  0  0  0  0  0  0  0
  -27.7660  -15.1180   19.2430 H   0  0  0  0  0  0  0  0  0  0  0  0
  -31.6160  -20.3790   18.4280 C   0  0  1  0  0  0  0  0  0  0  0  0
  -31.9760  -20.5460   17.1540 F   0  0  0  0  0  0  0  0  0  0  0  0
  -30.3800  -20.8620   18.5520 F   0  0  0  0  0  0  0  0  0  0  0  0
  -32.4470  -21.1130   19.1670 F   0  0  0  0  0  0  0  0  0  0  0  0
  2  5  1  0
  3  1  1  0
  4  2  2  0
  4  6  1  0
  5 56  1  0
  5  1  2  0
  6  3  2  0
  7  9  2  0
  7  8  1  0
  8  6  1  0
  8 10  1  0
 11  7  1  0
 12 11  1  0
 13 12  1  0
 14 16  1  0
 14 13  1  0
 15 26  2  0
 16 21  1  0
 17 27  1  0
 17 25  1  0
 18 24  1  0
 18 20  1  0
 19 25  1  0
 20 19  1  0
 21 20  2  0
 22 23  1  0
 22 16  2  0
 23 18  2  0
 24 17  1  0
 25 15  1  0
 27 29  2  0
 28 27  1  0
 30 28  1  0
 31 36  1  0
 32 28  1  0
 33 32  1  0
 34 33  1  0
 35 34  1  0
 35 31  1  0
 36 37  2  0
 36 32  1  0
 38 37  1  0
 39 38  2  0
 40 39  1  0
 40 31  2  0
 41 15  1  0
 41 46  1  0
 41 42  1  0
 42 43  1  1
 42 45  1  0
 44 42  1  0
 46 49  1  0
 47 46  1  0
 47 51  1  0
 48 47  2  0
 51 50  1  0
 51 53  1  0
 53 54  1  0
 53 52  1  0
 55 56  1  0
 55 57  2  0
 58 56  1  0
 59 60  2  0
 59 62  1  0
 60 64  1  0
 61 63  1  0
 61 55  1  0
 62 61  2  0
 63 65  1  0
 64 74  1  0
 64 63  2  0
 66 72  1  0
 66 74  1  0
 67 72  1  0
 68 69  1  0
 68 67  1  0
 70 69  1  0
 70 79  1  0
 70 71  1  0
 72 71  1  0
 73 66  2  0
 74 75  1  0
 76 77  2  0
 77 96  1  0
 78 77  1  0
 78 81  1  0
 79 76  1  0
 79 80  1  0
 80 78  2  0
 81 82  1  0
 82 83  2  0
 84 87  1  0
 84 83  1  0
 85 84  2  0
 86 85  1  0
 86 81  2  0
 87 88  1  0
 88 89  1  0
 89 90  2  0
 91 90  1  0
 91 95  1  0
 92 91  2  0
 93 88  2  0
 93 92  1  0
 94 93  1  0
 96 97  1  0
 97100  1  0
 97 99  1  0
 98 96  2  0
101102  1  0
101 76  1  0
103101  1  0
104106  1  6
104 62  1  0
104107  1  0
105104  1  0
M  ISO  4  13 101  14 101  66 100  74 100
M  END
>  <TORSDO>  (76) 
F 23

>  <SCORE>  (76) 
-7.011

>  <name>  (76) 
76

>  <ligand_id>  (76) 
76

>  <original_smiles>  (76) 
[H]c1c([H])c([H])c2c(c1[H])C([H])([H])C([H])([H])C([H])([H])C2([H])N([H])C(=O)C1([H])N(C(=O)C([H])(N([H])C(=O)C([H])(N([H])C([H])([H])[H])C([H])([H])[H])C(C([H])([H])[H])(C([H])([H])[H])C([H])([H])[H])C([H])([H])c2c([H])c(OC([H])([H])C([H])([H])C([H])([H])C(=O)N([H])c3c([H])c([H])c(N([H])C(=O)c4c(C([H])([H])[H])c(N([H])C(=O)N5C([H])([H])C([H])([H])C([H])([H])C([H])(n6nc(-c7c([H])c([H])c(Oc8c([H])c([H])c(F)c([H])c8F)c([H])c7[H])c(C(=O)N([H])[H])c6N([H])[H])C5([H])[H])c([H])c([H])c4C(F)(F)F)c([H])c3[H])c([H])c([H])c2C1([H])[H]

>  <smiles>  (76) 
[H]c1c([H])c([H])c2c(c1[H])C([H])([H])C([H])([H])C([H])([H])C2([H])N([H])C(=O)C1([H])N(C(=O)C([H])(N([H])C(=O)C([H])(N([H])C([H])([H])[H])C([H])([H])[H])C(C([H])([H])[H])(C([H])([H])[H])C([H])([H])[H])C([H])([H])c2c([H])c(OC([H])([H])C([H])([H])C([H])([H])C(=O)N([H])c3c([H])c([H])c(N([H])C(=O)c4c(C([H])([H])[H])c(N([H])C(=O)N5C([H])([H])C([H])([H])C([H])([H])C([H])(n6nc(-c7c([H])c([H])c(Oc8c([H])c([H])c(F)c([H])c8F)c([H])c7[H])c(C(=O)N([H])[H])c6N([H])[H])C5([H])[H])c([H])c([H])c4C(F)(F)F)c([H])c3[H])c([H])c([H])c2C1([H])[H]

$$$$
77:0:0
     RDKit          3D

 99107  0  0  1  0  0  0  0  0999 V2000
  -25.4390  -19.0970   20.5620 C   0  0  0  0  0  0  0  0  0  0  0  0
  -24.3760  -18.0360   20.3710 N   0  0  0  0  0  0  0  0  0  0  0  0
  -26.5480  -18.6810   20.9020 O   0  0  0  0  0  0  0  0  0  0  0  0
  -23.8710  -15.3790   19.2730 C   0  0  0  0  0  2  0  0  0  0  0  0
  -24.3460  -13.7240   19.0540 C   0  0  0  0  0  3  0  0  0  0  0  0
  -25.5600  -14.5110   22.6490 C   0  0  0  0  0  3  0  0  0  0  0  0
  -24.8470  -15.8920   22.0710 C   0  0  0  0  0  0  0  0  0  0  0  0
  -24.2440  -16.4040   20.6030 C   0  0  0  0  0  3  0  0  0  0  0  0
  -25.8170  -13.1050   21.7750 C   0  0  0  0  0  2  0  0  0  0  0  0
  -25.0080  -16.9980   23.1050 C   0  0  0  0  0  1  0  0  0  0  0  0
  -26.8230  -12.1950   22.1630 O   0  0  0  0  0  0  0  0  0  0  0  0
  -27.8960  -12.7670   22.9860 C   0  0  0  0  0  2  0  0  0  0  0  0
  -29.3640  -12.1800   23.0040 C   0  0  0  0  0  2  0  0  0  0  0  0
  -30.5770  -12.4300   21.9870 C   0  0  0  0  0  2  0  0  0  0  0  0
  -30.7360  -13.4330   19.6560 C   0  0  0  0  0  0  0  0  0  0  0  0
  -30.3120  -11.4840   18.1350 C   0  0  0  0  0  2  0  0  0  0  0  0
  -29.2490  -11.5410   17.0160 C   0  0  0  0  0  2  0  0  0  0  0  0
  -27.8330  -11.3810   17.5700 C   0  0  0  0  0  2  0  0  0  0  0  0
  -27.7360  -12.3910   18.6790 C   0  0  0  0  0  3  0  0  0  0  0  0
  -28.6910  -12.1920   19.7860 C   0  0  0  0  0  2  0  0  0  0  0  0
  -29.9950  -12.4010   19.2330 N   0  0  0  0  0  0  0  0  0  0  0  0
  -31.4870  -14.0620   18.8980 O   0  0  0  0  0  0  0  0  0  0  0  0
  -30.6770  -13.5830   21.0140 N   0  0  0  0  0  0  0  0  0  0  0  0
  -31.1650  -14.3980   21.3530 H   0  0  0  0  0  0  0  0  0  0  0  0
  -25.8290  -13.8910   19.7820 C   0  0  0  0  0  3  0  0  0  0  0  0
  -23.8560  -12.9840   20.6900 C   0  0  0  0  0  3  0  0  0  0  0  0
  -24.2710  -11.2600   20.3920 C   0  0  0  0  0  0  0  0  0  0  0  0
  -26.5390  -12.4290   19.3050 N   0  0  0  0  0  0  0  0  0  0  0  0
  -25.6820  -11.0770   19.6620 N   0  0  0  0  0  0  0  0  0  0  0  0
  -23.6790   -9.9220   20.7210 C   0  0  0  0  0  0  0  0  0  0  0  0
  -24.3180   -8.9680   21.5720 C   0  0  0  0  0  3  0  0  0  0  0  0
  -23.7020   -7.7240   21.8840 C   0  0  0  0  0  3  0  0  0  0  0  0
  -22.4430   -7.4020   21.3230 C   0  0  0  0  0  0  0  0  0  0  0  0
  -21.8600   -8.3110   20.4180 C   0  0  0  0  0  3  0  0  0  0  0  0
  -22.4710   -9.5420   20.1180 C   0  0  0  0  0  3  0  0  0  0  0  0
  -21.7530   -6.2290   21.5440 O   0  0  0  0  0  0  0  0  0  0  0  0
  -21.8770   -5.5000   22.7030 C   0  0  0  0  0  0  0  0  0  0  0  0
  -21.7030   -6.0790   23.9800 C   0  0  0  0  0  3  0  0  0  0  0  0
  -21.7720   -5.2740   25.1360 C   0  0  0  0  0  3  0  0  0  0  0  0
  -22.0060   -3.8900   25.0190 C   0  0  0  0  0  0  0  0  0  0  0  0
  -22.1630   -3.3080   23.7500 C   0  0  0  0  0  3  0  0  0  0  0  0
  -22.0920   -4.1100   22.5970 C   0  0  0  0  0  0  0  0  0  0  0  0
  -22.2140   -3.5370   21.3750 F   0  0  0  0  0  0  0  0  0  0  0  0
  -22.0740   -3.1150   26.1280 F   0  0  0  0  0  0  0  0  0  0  0  0
  -22.4410  -13.2360   21.0110 C   0  0  0  0  0  0  0  0  0  0  0  0
  -21.9290  -12.3760   21.8800 N   0  0  0  0  0  0  0  0  0  0  0  0
  -21.7640  -14.0410   20.4020 O   0  0  0  0  0  0  0  0  0  0  0  0
  -22.5180  -11.6960   22.3410 H   0  0  0  0  0  0  0  0  0  0  0  0
  -20.9480  -12.4240   22.1120 H   0  0  0  0  0  0  0  0  0  0  0  0
  -26.5400  -15.0010   19.3940 N   0  0  0  0  0  0  0  0  0  0  0  0
  -26.2640  -15.9440   19.6460 H   0  0  0  0  0  0  0  0  0  0  0  0
  -27.4340  -14.9670   18.9300 H   0  0  0  0  0  0  0  0  0  0  0  0
  -23.1290  -18.5570   19.8100 C   0  0  0  0  0  2  0  0  0  0  0  0
  -20.6180  -18.1500   20.1150 C   0  0  0  0  0  1  0  0  0  0  0  0
  -21.9620  -18.3850   20.8070 C   0  0  0  0  0  2  0  0  0  0  0  0
  -25.4440  -20.8700   20.3600 C   0  0  0  0  0  2  0  0  0  0  0  0
  -26.6600  -22.2240   20.6170 C   0  0  0  0  0  3  0  0  0  0  0  0
  -26.6770  -24.0210   20.2770 C   0  0  0  0  0  3  0  0  0  0  0  0
  -27.6210  -25.4090   20.4820 O   0  0  0  0  0  0  0  0  0  0  0  0
  -24.9180  -31.8190   23.2270 C   0  0  0  0  0  0  0  0  0  0  0  0
  -27.0640  -26.7630   20.2890 C   0  0  0  0  0  0  0  0  0  0  0  0
  -23.7290  -30.4990   21.5420 C   0  0  0  0  0  3  0  0  0  0  0  0
  -25.1220  -28.9080   20.1050 C   0  0  0  0  0  0  0  0  0  0  0  0
  -26.3110  -30.5580   21.5120 C   0  0  0  0  0  2  0  0  0  0  0  0
  -26.2960  -29.1630   20.8240 C   0  0  0  0  0  0  0  0  0  0  0  0
  -27.2930  -28.0910   20.9120 C   0  0  0  0  0  3  0  0  0  0  0  0
  -25.9800  -26.7430   19.4120 C   0  0  0  0  0  3  0  0  0  0  0  0
  -25.0080  -27.7400   19.3580 C   0  0  0  0  0  3  0  0  0  0  0  0
  -23.9710  -29.8920   20.1410 C   0  0  0  0  0  2  0  0  0  0  0  0
  -25.0100  -30.9890   22.1410 N   0  0  0  0  0  0  0  0  0  0  0  0
  -23.8210  -32.1440   23.7080 O   0  0  0  0  0  0  0  0  0  0  0  0
  -22.9790  -29.4860   22.4510 C   0  0  0  0  0  0  0  0  0  0  0  0
  -21.6480  -29.3730   22.2850 N   0  0  0  0  0  0  0  0  0  0  0  0
  -23.5930  -28.8160   23.2860 O   0  0  0  0  0  0  0  0  0  0  0  0
  -21.2070  -29.9610   21.5920 H   0  0  0  0  0  0  0  0  0  0  0  0
  -18.2070  -28.2860   22.6620 C   0  0  0  0  0  0  0  0  0  0  0  0
  -20.7650  -28.4630   23.0220 C   0  0  0  0  0  3  0  0  0  0  0  0
  -20.8390  -27.0290   22.4460 C   0  0  0  0  0  2  0  0  0  0  0  0
  -19.7630  -26.7490   21.3920 C   0  0  0  0  0  2  0  0  0  0  0  0
  -18.3650  -26.9360   21.9870 C   0  0  0  0  0  2  0  0  0  0  0  0
  -19.3340  -29.0110   23.1360 C   0  0  0  0  0  0  0  0  0  0  0  0
  -19.1320  -30.2750   23.7330 C   0  0  0  0  0  3  0  0  0  0  0  0
  -17.8360  -30.8130   23.8570 C   0  0  0  0  0  3  0  0  0  0  0  0
  -16.7240  -30.0850   23.3980 C   0  0  0  0  0  3  0  0  0  0  0  0
  -16.9120  -28.8230   22.8050 C   0  0  0  0  0  3  0  0  0  0  0  0
  -26.1870  -32.4090   23.9070 C   0  0  0  0  0  3  0  0  0  0  0  0
  -26.6470  -31.5920   25.1780 C   0  0  1  0  0  0  0  0  0  0  0  0
  -25.5190  -31.3470   26.2080 C   0  0  0  0  0  1  0  0  0  0  0  0
  -27.2110  -30.2120   24.7760 C   0  0  0  0  0  1  0  0  0  0  0  0
  -27.7940  -32.3430   25.8940 C   0  0  0  0  0  1  0  0  0  0  0  0
  -25.8820  -33.8020   24.2850 N   0  0  0  0  0  0  0  0  0  0  0  0
  -26.2420  -34.8850   23.5820 C   0  0  0  0  0  0  0  0  0  0  0  0
  -26.9300  -34.8160   22.5630 O   0  0  0  0  0  0  0  0  0  0  0  0
  -25.2690  -33.9300   25.0770 H   0  0  0  0  0  0  0  0  0  0  0  0
  -24.5390  -36.7170   23.2900 C   0  0  0  0  0  1  0  0  0  0  0  0
  -25.7650  -36.2600   24.0950 C   0  0  0  0  0  3  0  0  0  0  0  0
  -27.9050  -37.0790   24.9800 C   0  0  0  0  0  1  0  0  0  0  0  0
  -26.8110  -37.3060   24.0400 N   0  0  0  0  0  0  0  0  0  0  0  0
  -26.4130  -38.2210   24.2330 H   0  0  0  0  0  0  0  0  0  0  0  0
  1  3  2  0
  2  1  1  0
  4  8  1  0
  5  4  1  0
  5 25  1  0
  5 26  1  0
  7  6  2  0
  7 10  1  0
  8  2  1  0
  8  7  1  0
  9 11  1  0
  9  6  1  0
 11 12  1  0
 12 13  1  0
 14 13  1  0
 15 23  1  0
 16 21  1  0
 17 18  1  0
 17 16  1  0
 19 18  1  0
 19 28  1  0
 19 20  1  0
 21 15  1  0
 21 20  1  0
 22 15  2  0
 23 24  1  0
 23 14  1  0
 25 50  1  0
 26 45  1  0
 27 26  1  0
 27 30  1  0
 28 29  1  0
 28 25  1  0
 29 27  2  0
 30 31  1  0
 31 32  2  0
 33 36  1  0
 33 32  1  0
 34 33  2  0
 35 34  1  0
 35 30  2  0
 36 37  1  0
 37 38  1  0
 38 39  2  0
 40 39  1  0
 40 44  1  0
 41 40  2  0
 42 37  2  0
 42 41  1  0
 43 42  1  0
 45 46  1  0
 46 49  1  0
 46 48  1  0
 47 45  2  0
 50 51  1  0
 52 50  1  0
 53  2  1  0
 53 55  1  0
 54 55  1  0
 56  1  1  0
 56 57  1  0
 58 59  1  0
 58 57  2  0
 60 71  2  0
 61 59  1  0
 61 66  1  0
 62 70  1  0
 62 72  1  0
 63 69  1  0
 63 65  1  0
 64 70  1  0
 65 66  2  0
 65 64  1  0
 67 61  2  0
 68 67  1  0
 68 63  2  0
 69 62  1  0
 70 60  1  0
 72 74  2  0
 73 72  1  0
 75 73  1  0
 76 85  2  0
 76 81  1  0
 77 73  1  0
 77 81  1  0
 78 77  1  0
 79 80  1  0
 79 78  1  0
 80 76  1  0
 81 82  2  0
 82 83  1  0
 84 83  2  0
 85 84  1  0
 86 60  1  0
 86 91  1  0
 86 87  1  0
 87 90  1  1
 87 88  1  0
 89 87  1  0
 91 94  1  0
 92 96  1  0
 92 91  1  0
 93 92  2  0
 96 95  1  0
 98 96  1  0
 98 99  1  0
 98 97  1  0
M  ISO  4  15 100  23 100  58 101  59 101
M  END
>  <TORSDO>  (77) 
F 26

>  <SCORE>  (77) 
35.198

>  <name>  (77) 
77

>  <ligand_id>  (77) 
77

>  <original_smiles>  (77) 
[H]c1c([H])c([H])c2c(c1[H])C([H])([H])C([H])([H])C([H])([H])C2([H])N([H])C(=O)C1([H])N(C(=O)C([H])(N([H])C(=O)C([H])(N([H])C([H])([H])[H])C([H])([H])[H])C(C([H])([H])[H])(C([H])([H])[H])C([H])([H])[H])C([H])([H])c2c([H])c(OC([H])([H])C([H])([H])C([H])([H])C(=O)N(c3c([H])c([H])c(OC([H])([H])C([H])([H])C([H])([H])N([H])C(=O)N4C([H])([H])C([H])([H])C([H])([H])C([H])(n5nc(-c6c([H])c([H])c(Oc7c([H])c([H])c(F)c([H])c7F)c([H])c6[H])c(C(=O)N([H])[H])c5N([H])[H])C4([H])[H])c([H])c3C([H])([H])[H])C([H])([H])C([H])([H])C([H])([H])[H])c([H])c([H])c2C1([H])[H]

>  <smiles>  (77) 
[H]c1c([H])c([H])c2c(c1[H])C([H])([H])C([H])([H])C([H])([H])C2([H])N([H])C(=O)C1([H])N(C(=O)C([H])(N([H])C(=O)C([H])(N([H])C([H])([H])[H])C([H])([H])[H])C(C([H])([H])[H])(C([H])([H])[H])C([H])([H])[H])C([H])([H])c2c([H])c(OC([H])([H])C([H])([H])C([H])([H])C(=O)N(c3c([H])c([H])c(OC([H])([H])C([H])([H])C([H])([H])N([H])C(=O)N4C([H])([H])C([H])([H])C([H])([H])C([H])(n5nc(-c6c([H])c([H])c(Oc7c([H])c([H])c(F)c([H])c7F)c([H])c6[H])c(C(=O)N([H])[H])c5N([H])[H])C4([H])[H])c([H])c3C([H])([H])[H])C([H])([H])C([H])([H])C([H])([H])[H])c([H])c([H])c2C1([H])[H]

$$$$
78:0:0
     RDKit          3D

106114  0  0  1  0  0  0  0  0999 V2000
  -24.3670  -30.2430   19.3460 C   0  0  0  0  0  2  0  0  0  0  0  0
  -23.0410  -29.5560   20.4730 C   0  0  0  0  0  2  0  0  0  0  0  0
  -22.1600  -27.9660   21.0790 C   0  0  0  0  0  2  0  0  0  0  0  0
  -23.6720  -25.4240   22.3200 C   0  0  0  0  0  0  0  0  0  0  0  0
  -22.5280  -26.3520   21.7960 N   0  0  0  0  0  0  0  0  0  0  0  0
  -23.3190  -24.2570   22.5280 O   0  0  0  0  0  0  0  0  0  0  0  0
  -21.2060  -25.7290   22.2090 C   0  0  0  0  0  2  0  0  0  0  0  0
  -19.9040  -26.1120   21.4410 C   0  0  0  0  0  2  0  0  0  0  0  0
  -18.0320  -25.1310   20.0530 C   0  0  0  0  0  1  0  0  0  0  0  0
  -17.8450  -25.1060   22.5830 C   0  0  0  0  0  1  0  0  0  0  0  0
  -18.8070  -25.0300   21.3840 C   0  0  0  0  0  3  0  0  0  0  0  0
  -25.4690  -25.5920   22.6680 C   0  0  0  0  0  3  0  0  0  0  0  0
  -27.1450  -24.8760   22.6870 C   0  0  0  0  0  3  0  0  0  0  0  0
  -28.7170  -25.2690   23.0100 O   0  0  0  0  0  0  0  0  0  0  0  0
  -25.7400  -29.5890   22.6580 C   0  0  0  0  0  0  0  0  0  0  0  0
  -29.6380  -25.7070   22.1010 C   0  0  0  0  0  3  0  0  0  0  0  0
  -26.1500  -27.7930   20.2810 C   0  0  0  0  0  3  0  0  0  0  0  0
  -28.2500  -26.9700   20.2690 C   0  0  0  0  0  0  0  0  0  0  0  0
  -27.8640  -28.7950   22.0660 C   0  0  0  0  0  2  0  0  0  0  0  0
  -28.6180  -27.6540   21.4620 C   0  0  0  0  0  0  0  0  0  0  0  0
  -29.5870  -27.0720   22.2620 C   0  0  0  0  0  2  0  0  0  0  0  0
  -29.5200  -25.0870   20.8590 C   0  0  0  0  0  3  0  0  0  0  0  0
  -28.7370  -25.7200   19.9300 C   0  0  0  0  0  3  0  0  0  0  0  0
  -27.2130  -27.3910   19.3920 C   0  0  0  0  0  2  0  0  0  0  0  0
  -26.4690  -28.7960   21.6650 N   0  0  0  0  0  0  0  0  0  0  0  0
  -24.7130  -30.2230   22.4240 O   0  0  0  0  0  0  0  0  0  0  0  0
  -25.1710  -26.5980   19.9490 C   0  0  0  0  0  0  0  0  0  0  0  0
  -24.5460  -26.5090   18.7680 N   0  0  0  0  0  0  0  0  0  0  0  0
  -24.8680  -25.8100   20.8260 O   0  0  0  0  0  0  0  0  0  0  0  0
  -24.7540  -27.1630   18.0270 H   0  0  0  0  0  0  0  0  0  0  0  0
  -23.1710  -24.3600   16.3620 C   0  0  0  0  0  0  0  0  0  0  0  0
  -23.4550  -25.5870   18.5780 C   0  0  0  0  0  3  0  0  0  0  0  0
  -23.8500  -24.2040   19.1510 C   0  0  0  0  0  2  0  0  0  0  0  0
  -24.7040  -23.4320   18.1620 C   0  0  0  0  0  2  0  0  0  0  0  0
  -23.8310  -23.1240   16.9440 C   0  0  0  0  0  2  0  0  0  0  0  0
  -23.0250  -25.5440   17.1160 C   0  0  0  0  0  0  0  0  0  0  0  0
  -22.4680  -26.6740   16.4930 C   0  0  0  0  0  3  0  0  0  0  0  0
  -22.0100  -26.6350   15.1670 C   0  0  0  0  0  3  0  0  0  0  0  0
  -22.1440  -25.4500   14.4270 C   0  0  0  0  0  3  0  0  0  0  0  0
  -22.7140  -24.3150   15.0310 C   0  0  0  0  0  3  0  0  0  0  0  0
  -25.9670  -29.8360   24.2170 C   0  0  0  0  0  3  0  0  0  0  0  0
  -25.9120  -31.3170   24.4460 N   0  0  0  0  0  0  0  0  0  0  0  0
  -26.9720  -32.1230   24.4310 C   0  0  0  0  0  0  0  0  0  0  0  0
  -28.1130  -31.6730   24.4990 O   0  0  0  0  0  0  0  0  0  0  0  0
  -24.9980  -31.7400   24.3780 H   0  0  0  0  0  0  0  0  0  0  0  0
  -27.1770  -34.2090   23.0090 C   0  0  0  0  0  1  0  0  0  0  0  0
  -26.7360  -33.6420   24.3720 C   0  0  0  0  0  3  0  0  0  0  0  0
  -26.9730  -34.0060   26.7880 C   0  0  0  0  0  1  0  0  0  0  0  0
  -27.4440  -34.3580   25.4510 N   0  0  0  0  0  0  0  0  0  0  0  0
  -27.3680  -35.3620   25.3220 H   0  0  0  0  0  0  0  0  0  0  0  0
  -24.9350  -29.2490   25.2900 C   0  0  1  0  0  0  0  0  0  0  0  0
  -23.4310  -29.5830   25.0470 C   0  0  0  0  0  1  0  0  0  0  0  0
  -25.1700  -27.7440   25.6070 C   0  0  0  0  0  1  0  0  0  0  0  0
  -25.2440  -29.9020   26.6630 C   0  0  0  0  0  1  0  0  0  0  0  0
  -25.2200  -30.1870   17.6920 C   0  0  0  0  0  2  0  0  0  0  0  0
  -26.7020  -29.4930   16.8810 C   0  0  0  0  0  2  0  0  0  0  0  0
  -27.1340  -28.0360   15.9180 C   0  0  0  0  0  2  0  0  0  0  0  0
  -28.4710  -26.8460   16.0610 C   0  0  0  0  0  2  0  0  0  0  0  0
  -28.7150  -25.0970   15.8100 C   0  0  0  0  0  2  0  0  0  0  0  0
  -28.7390  -23.5240   16.6420 C   0  0  0  0  0  2  0  0  0  0  0  0
  -29.7250  -22.5770   17.5000 O   0  0  0  0  0  0  0  0  0  0  0  0
  -31.2890  -19.3170   16.2080 C   0  0  0  0  0  3  0  0  0  0  0  0
  -31.3330  -18.3900   17.2750 C   0  0  0  0  0  3  0  0  0  0  0  0
  -30.1620  -20.0590   18.5760 C   0  0  0  0  0  3  0  0  0  0  0  0
  -30.7050  -20.6130   16.2780 C   0  0  0  0  0  0  0  0  0  0  0  0
  -30.7630  -18.6510   18.5350 C   0  0  0  0  0  0  0  0  0  0  0  0
  -30.1040  -21.1110   17.4650 C   0  0  0  0  0  0  0  0  0  0  0  0
  -30.8260  -21.4970   15.0490 C   0  0  0  0  0  1  0  0  0  0  0  0
  -31.6070  -16.2460   19.7910 C   0  0  0  0  0  0  0  0  0  0  0  0
  -31.6390  -13.7280   19.4380 C   0  0  0  0  0  2  0  0  0  0  0  0
  -30.8040  -13.4290   18.1710 C   0  0  0  0  0  2  0  0  0  0  0  0
  -29.3070  -13.2970   18.5150 C   0  0  0  0  0  2  0  0  0  0  0  0
  -28.8200  -14.3960   19.4950 C   0  0  0  0  0  3  0  0  0  0  0  0
  -29.7910  -14.6190   20.6670 C   0  0  0  0  0  2  0  0  0  0  0  0
  -31.0770  -14.9700   20.0560 N   0  0  0  0  0  0  0  0  0  0  0  0
  -32.8380  -16.2650   19.6630 O   0  0  0  0  0  0  0  0  0  0  0  0
  -30.7750  -17.4290   19.5480 N   0  0  0  0  0  0  0  0  0  0  0  0
  -29.8980  -17.3410   20.0400 H   0  0  0  0  0  0  0  0  0  0  0  0
  -26.4640  -15.1240   20.1420 C   0  0  0  0  0  0  0  0  0  0  0  0
  -25.3340  -14.4180   20.4630 C   0  0  0  0  0  0  0  0  0  0  0  0
  -25.7120  -13.0420   20.4480 C   0  0  0  0  0  0  0  0  0  0  0  0
  -27.4530  -14.1780   19.9450 N   0  0  0  0  0  0  0  0  0  0  0  0
  -27.0110  -12.9210   20.2010 N   0  0  0  0  0  0  0  0  0  0  0  0
  -24.8950  -11.8300   20.5960 C   0  0  0  0  0  0  0  0  0  0  0  0
  -25.1900  -10.8530   21.5730 C   0  0  0  0  0  3  0  0  0  0  0  0
  -24.3740   -9.7090   21.7080 C   0  0  0  0  0  3  0  0  0  0  0  0
  -23.2510   -9.5340   20.8650 C   0  0  0  0  0  0  0  0  0  0  0  0
  -22.9760  -10.4990   19.8800 C   0  0  0  0  0  3  0  0  0  0  0  0
  -23.7920  -11.6340   19.7440 C   0  0  0  0  0  3  0  0  0  0  0  0
  -22.4180   -8.4420   20.9060 O   0  0  0  0  0  0  0  0  0  0  0  0
  -22.1450   -7.7910   22.0830 C   0  0  0  0  0  0  0  0  0  0  0  0
  -21.6160   -8.4670   23.2040 C   0  0  0  0  0  3  0  0  0  0  0  0
  -21.2830   -7.7470   24.3680 C   0  0  0  0  0  3  0  0  0  0  0  0
  -21.4720   -6.3520   24.4120 C   0  0  0  0  0  0  0  0  0  0  0  0
  -21.9920   -5.6760   23.2940 C   0  0  0  0  0  3  0  0  0  0  0  0
  -22.3250   -6.3940   22.1310 C   0  0  0  0  0  0  0  0  0  0  0  0
  -22.8060   -5.7350   21.0500 F   0  0  0  0  0  0  0  0  0  0  0  0
  -21.1470   -5.6580   25.5270 F   0  0  0  0  0  0  0  0  0  0  0  0
  -23.9620  -14.9910   20.6570 C   0  0  0  0  0  0  0  0  0  0  0  0
  -23.1550  -14.3600   21.5040 N   0  0  0  0  0  0  0  0  0  0  0  0
  -23.6150  -16.0300   20.1000 O   0  0  0  0  0  0  0  0  0  0  0  0
  -23.4500  -13.5200   21.9770 H   0  0  0  0  0  0  0  0  0  0  0  0
  -22.2310  -14.7270   21.6820 H   0  0  0  0  0  0  0  0  0  0  0  0
  -26.7210  -16.4800   19.9730 N   0  0  0  0  0  0  0  0  0  0  0  0
  -25.9820  -17.1730   20.0340 H   0  0  0  0  0  0  0  0  0  0  0  0
  -27.5850  -16.8590   19.5990 H   0  0  0  0  0  0  0  0  0  0  0  0
  1  2  1  0
  2  3  1  0
  3  5  1  0
  4  6  2  0
  4 12  1  0
  5  7  1  0
  5  4  1  0
  8  7  1  0
  9 11  1  0
 11  8  1  0
 11 10  1  0
 12 13  2  0
 13 14  1  0
 16 21  1  0
 16 14  1  0
 17 27  1  0
 17 25  1  0
 18 20  2  0
 20 19  1  0
 20 21  1  0
 22 16  1  0
 23 18  1  0
 23 22  2  0
 24 18  1  0
 24 17  1  0
 25 19  1  0
 25 15  1  0
 26 15  2  0
 27 29  2  0
 28 27  1  0
 30 28  1  0
 31 35  1  0
 31 36  1  0
 32 28  1  0
 32 33  1  0
 34 33  1  0
 35 34  1  0
 36 32  1  0
 37 36  2  0
 38 37  1  0
 39 40  1  0
 39 38  2  0
 40 31  2  0
 41 15  1  0
 41 42  1  0
 41 51  1  0
 43 42  1  0
 43 44  2  0
 45 42  1  0
 47 46  1  0
 47 43  1  0
 47 49  1  0
 49 48  1  0
 50 49  1  0
 51 53  1  1
 51 54  1  0
 52 51  1  0
 55  1  1  0
 56 55  1  0
 57 58  1  0
 57 56  1  0
 59 58  1  0
 59 60  1  0
 60 61  1  0
 62 65  2  0
 62 63  1  0
 63 66  2  0
 65 67  1  0
 66 64  1  0
 66 77  1  0
 67 61  1  0
 67 64  2  0
 68 65  1  0
 69 75  1  0
 70 75  1  0
 71 72  1  0
 71 70  1  0
 73 72  1  0
 73 82  1  0
 73 74  1  0
 75 74  1  0
 76 69  2  0
 77 69  1  0
 77 78  1  0
 79 80  2  0
 80 99  1  0
 81 80  1  0
 81 84  1  0
 82 79  1  0
 82 83  1  0
 83 81  2  0
 84 85  1  0
 85 86  2  0
 87 90  1  0
 87 86  1  0
 88 87  2  0
 89 88  1  0
 89 84  2  0
 90 91  1  0
 91 96  2  0
 91 92  1  0
 92 93  2  0
 93 94  1  0
 94 98  1  0
 95 94  2  0
 96 95  1  0
 97 96  1  0
 99100  1  0
100103  1  0
100102  1  0
101 99  2  0
104105  1  0
104 79  1  0
106104  1  0
M  ISO  4  13 101  14 101  69 100  77 100
M  END
>  <TORSDO>  (78) 
F 32

>  <SCORE>  (78) 
-6.735

>  <name>  (78) 
78

>  <ligand_id>  (78) 
78

>  <original_smiles>  (78) 
[H]c1c([H])c([H])c2c(c1[H])C([H])([H])C([H])([H])C([H])([H])C2([H])N([H])C(=O)C1([H])N(C(=O)C([H])(N([H])C(=O)C([H])(N([H])C([H])([H])[H])C([H])([H])[H])C(C([H])([H])[H])(C([H])([H])[H])C([H])([H])[H])C([H])([H])c2c([H])c(OC([H])([H])C([H])([H])C(=O)N(C([H])([H])C([H])([H])C([H])([H])C([H])([H])C([H])([H])C([H])([H])C([H])([H])C([H])([H])C([H])([H])Oc3c([H])c(N([H])C(=O)N4C([H])([H])C([H])([H])C([H])([H])C([H])(n5nc(-c6c([H])c([H])c(Oc7c([H])c([H])c(F)c([H])c7F)c([H])c6[H])c(C(=O)N([H])[H])c5N([H])[H])C4([H])[H])c([H])c([H])c3C([H])([H])[H])C([H])([H])C([H])([H])C([H])(C([H])([H])[H])C([H])([H])[H])c([H])c([H])c2C1([H])[H]

>  <smiles>  (78) 
[H]c1c([H])c([H])c2c(c1[H])C([H])([H])C([H])([H])C([H])([H])C2([H])N([H])C(=O)C1([H])N(C(=O)C([H])(N([H])C(=O)C([H])(N([H])C([H])([H])[H])C([H])([H])[H])C(C([H])([H])[H])(C([H])([H])[H])C([H])([H])[H])C([H])([H])c2c([H])c(OC([H])([H])C([H])([H])C(=O)N(C([H])([H])C([H])([H])C([H])([H])C([H])([H])C([H])([H])C([H])([H])C([H])([H])C([H])([H])C([H])([H])Oc3c([H])c(N([H])C(=O)N4C([H])([H])C([H])([H])C([H])([H])C([H])(n5nc(-c6c([H])c([H])c(Oc7c([H])c([H])c(F)c([H])c7F)c([H])c6[H])c(C(=O)N([H])[H])c5N([H])[H])C4([H])[H])c([H])c([H])c3C([H])([H])[H])C([H])([H])C([H])([H])C([H])(C([H])([H])[H])C([H])([H])[H])c([H])c([H])c2C1([H])[H]

$$$$
79:0:0
     RDKit          3D

 92101  0  0  1  0  0  0  0  0999 V2000
  -31.3820  -19.3470   19.9550 C   0  0  0  0  0  2  0  0  0  0  0  0
  -31.2640  -17.9300   20.0540 C   0  0  0  0  0  3  0  0  0  0  0  0
  -28.9190  -18.1930   20.5370 C   0  0  0  0  0  3  0  0  0  0  0  0
  -30.2780  -20.2200   20.1460 C   0  0  0  0  0  0  0  0  0  0  0  0
  -29.0380  -19.6230   20.4320 C   0  0  0  0  0  0  0  0  0  0  0  0
  -30.0260  -17.2980   20.3550 C   0  0  0  0  0  0  0  0  0  0  0  0
  -29.3640  -24.0540   20.0500 C   0  0  0  0  0  0  0  0  0  0  0  0
  -27.8630  -20.5720   20.6650 C   0  0  0  0  0  3  0  0  0  0  0  0
  -30.4420  -21.7740   20.0810 C   0  0  0  0  0  3  0  0  0  0  0  0
  -27.9500  -21.9410   19.9120 C   0  0  0  0  0  3  0  0  0  0  0  0
  -29.2310  -22.6670   20.0550 N   0  0  0  0  0  0  0  0  0  0  0  0
  -30.4690  -24.5710   20.2490 O   0  0  0  0  0  0  0  0  0  0  0  0
  -30.6170  -14.7490   20.1380 C   0  0  0  0  0  0  0  0  0  0  0  0
  -30.3510  -12.5070   19.0840 C   0  0  0  0  0  2  0  0  0  0  0  0
  -29.3640  -12.6390   17.9030 C   0  0  0  0  0  2  0  0  0  0  0  0
  -27.9100  -12.4780   18.3870 C   0  0  0  0  0  2  0  0  0  0  0  0
  -27.5990  -13.3380   19.6420 C   0  0  0  0  0  3  0  0  0  0  0  0
  -28.7000  -13.1900   20.7170 C   0  0  0  0  0  2  0  0  0  0  0  0
  -29.9840  -13.5310   20.0870 N   0  0  0  0  0  0  0  0  0  0  0  0
  -31.7770  -14.8650   19.7340 O   0  0  0  0  0  0  0  0  0  0  0  0
  -29.8400  -15.8370   20.4790 N   0  0  0  0  0  0  0  0  0  0  0  0
  -28.9230  -15.5630   20.7950 H   0  0  0  0  0  0  0  0  0  0  0  0
  -25.2400  -13.9420   20.4570 C   0  0  0  0  0  0  0  0  0  0  0  0
  -24.1830  -13.1710   20.8590 C   0  0  0  0  0  0  0  0  0  0  0  0
  -24.6360  -11.8170   20.7990 C   0  0  0  0  0  0  0  0  0  0  0  0
  -26.2700  -13.0580   20.1770 N   0  0  0  0  0  0  0  0  0  0  0  0
  -25.9140  -11.7750   20.4440 N   0  0  0  0  0  0  0  0  0  0  0  0
  -23.9090  -10.5570   21.0040 C   0  0  0  0  0  0  0  0  0  0  0  0
  -24.3620   -9.5840   21.9220 C   0  0  0  0  0  3  0  0  0  0  0  0
  -23.6350   -8.3900   22.1160 C   0  0  0  0  0  3  0  0  0  0  0  0
  -22.4430   -8.1590   21.3900 C   0  0  0  0  0  0  0  0  0  0  0  0
  -22.0090   -9.1210   20.4610 C   0  0  0  0  0  3  0  0  0  0  0  0
  -22.7350  -10.3070   20.2650 C   0  0  0  0  0  3  0  0  0  0  0  0
  -21.6860   -7.0180   21.4930 O   0  0  0  0  0  0  0  0  0  0  0  0
  -21.6520   -6.2770   22.6480 C   0  0  0  0  0  0  0  0  0  0  0  0
  -21.2220   -6.8290   23.8740 C   0  0  0  0  0  3  0  0  0  0  0  0
  -21.1370   -6.0140   25.0200 C   0  0  0  0  0  3  0  0  0  0  0  0
  -21.4730   -4.6500   24.9420 C   0  0  0  0  0  0  0  0  0  0  0  0
  -21.8960   -4.0970   23.7200 C   0  0  0  0  0  3  0  0  0  0  0  0
  -21.9820   -4.9090   22.5760 C   0  0  0  0  0  0  0  0  0  0  0  0
  -22.3710   -4.3670   21.3960 F   0  0  0  0  0  0  0  0  0  0  0  0
  -21.3840   -3.8650   26.0410 F   0  0  0  0  0  0  0  0  0  0  0  0
  -22.7990  -13.6530   21.1880 C   0  0  0  0  0  0  0  0  0  0  0  0
  -22.1000  -12.9540   22.0740 N   0  0  0  0  0  0  0  0  0  0  0  0
  -22.3490  -14.6870   20.6930 O   0  0  0  0  0  0  0  0  0  0  0  0
  -22.4790  -12.1170   22.4930 H   0  0  0  0  0  0  0  0  0  0  0  0
  -21.1740  -13.2590   22.3380 H   0  0  0  0  0  0  0  0  0  0  0  0
  -25.4050  -15.3130   20.2830 N   0  0  0  0  0  0  0  0  0  0  0  0
  -24.6400  -15.9650   20.4150 H   0  0  0  0  0  0  0  0  0  0  0  0
  -26.2270  -15.7450   19.8830 H   0  0  0  0  0  0  0  0  0  0  0  0
  -28.1650  -25.0420   19.7300 C   0  0  0  0  0  2  0  0  0  0  0  0
  -28.3970  -26.5020   19.9510 O   0  0  0  0  0  0  0  0  0  0  0  0
  -24.6150  -31.7770   23.1600 C   0  0  0  0  0  0  0  0  0  0  0  0
  -27.2730  -27.3520   19.9360 C   0  0  0  0  0  0  0  0  0  0  0  0
  -23.4260  -30.4290   21.4710 C   0  0  0  0  0  3  0  0  0  0  0  0
  -24.8910  -28.9490   19.9910 C   0  0  0  0  0  0  0  0  0  0  0  0
  -25.9640  -30.7760   21.3000 C   0  0  0  0  0  2  0  0  0  0  0  0
  -26.0590  -29.4230   20.6020 C   0  0  0  0  0  0  0  0  0  0  0  0
  -27.2520  -28.6390   20.5650 C   0  0  0  0  0  3  0  0  0  0  0  0
  -26.0760  -26.9370   19.3040 C   0  0  0  0  0  3  0  0  0  0  0  0
  -24.9040  -27.7110   19.3330 C   0  0  0  0  0  3  0  0  0  0  0  0
  -23.6470  -29.8080   20.0670 C   0  0  0  0  0  2  0  0  0  0  0  0
  -24.6880  -31.0090   22.0340 N   0  0  0  0  0  0  0  0  0  0  0  0
  -23.5290  -32.0240   23.7040 O   0  0  0  0  0  0  0  0  0  0  0  0
  -22.7740  -29.3690   22.3920 C   0  0  0  0  0  0  0  0  0  0  0  0
  -21.4450  -29.2030   22.2800 N   0  0  0  0  0  0  0  0  0  0  0  0
  -23.4640  -28.7020   23.1670 O   0  0  0  0  0  0  0  0  0  0  0  0
  -20.9460  -29.7950   21.6300 H   0  0  0  0  0  0  0  0  0  0  0  0
  -18.0630  -28.0360   22.8170 C   0  0  0  0  0  0  0  0  0  0  0  0
  -20.6330  -28.2340   23.0200 C   0  0  0  0  0  3  0  0  0  0  0  0
  -20.6910  -26.8370   22.3580 C   0  0  0  0  0  2  0  0  0  0  0  0
  -19.5520  -26.5960   21.3620 C   0  0  0  0  0  2  0  0  0  0  0  0
  -18.1930  -26.7270   22.0570 C   0  0  0  0  0  2  0  0  0  0  0  0
  -19.2090  -28.7510   23.2560 C   0  0  0  0  0  0  0  0  0  0  0  0
  -19.0320  -29.9810   23.9260 C   0  0  0  0  0  3  0  0  0  0  0  0
  -17.7430  -30.4950   24.1630 C   0  0  0  0  0  3  0  0  0  0  0  0
  -16.6120  -29.7740   23.7400 C   0  0  0  0  0  3  0  0  0  0  0  0
  -16.7730  -28.5460   23.0730 C   0  0  0  0  0  3  0  0  0  0  0  0
  -25.8920  -32.4000   23.8040 C   0  0  0  0  0  3  0  0  0  0  0  0
  -25.5750  -33.7900   24.1660 N   0  0  0  0  0  0  0  0  0  0  0  0
  -25.8820  -34.8590   23.4190 C   0  0  0  0  0  0  0  0  0  0  0  0
  -26.5320  -34.7810   22.3720 O   0  0  0  0  0  0  0  0  0  0  0  0
  -24.9960  -33.9250   24.9820 H   0  0  0  0  0  0  0  0  0  0  0  0
  -24.1190  -36.6300   23.1450 C   0  0  0  0  0  1  0  0  0  0  0  0
  -25.3920  -36.2340   23.9100 C   0  0  0  0  0  3  0  0  0  0  0  0
  -27.5350  -37.1440   24.6880 C   0  0  0  0  0  1  0  0  0  0  0  0
  -26.4060  -37.3040   23.7770 N   0  0  0  0  0  0  0  0  0  0  0  0
  -25.9900  -38.2160   23.9440 H   0  0  0  0  0  0  0  0  0  0  0  0
  -26.4020  -31.6020   25.0670 C   0  0  1  0  0  0  0  0  0  0  0  0
  -25.3030  -31.3380   26.1210 C   0  0  0  0  0  1  0  0  0  0  0  0
  -26.9930  -30.2360   24.6470 C   0  0  0  0  0  1  0  0  0  0  0  0
  -27.5460  -32.3860   25.7540 C   0  0  0  0  0  1  0  0  0  0  0  0
  1  2  1  0
  1  4  1  0
  2  6  2  0
  4  5  1  0
  5  3  2  0
  5  8  1  0
  6 21  1  0
  6  3  1  0
  7 11  1  0
  7 12  2  0
  9  4  2  0
 10 11  1  0
 10  8  2  0
 11  9  1  0
 13 21  1  0
 14 19  1  0
 15 16  1  0
 15 14  1  0
 17 16  1  0
 17 26  1  0
 17 18  1  0
 19 13  1  0
 19 18  1  0
 20 13  2  0
 21 22  1  0
 23 24  2  0
 24 43  1  0
 25 24  1  0
 25 28  1  0
 26 27  1  0
 26 23  1  0
 27 25  2  0
 28 29  1  0
 29 30  2  0
 31 34  1  0
 31 30  1  0
 32 31  2  0
 33 32  1  0
 33 28  2  0
 34 35  1  0
 35 36  1  0
 36 37  2  0
 38 37  1  0
 38 42  1  0
 39 38  2  0
 40 35  2  0
 40 39  1  0
 41 40  1  0
 43 44  1  0
 44 47  1  0
 44 46  1  0
 45 43  2  0
 48 49  1  0
 48 23  1  0
 50 48  1  0
 51 52  1  0
 51  7  1  0
 53 64  2  0
 54 52  1  0
 54 59  1  0
 55 63  1  0
 55 65  1  0
 56 62  1  0
 56 58  1  0
 57 63  1  0
 58 57  1  0
 59 58  2  0
 60 61  1  0
 60 54  2  0
 61 56  2  0
 62 55  1  0
 63 53  1  0
 65 67  2  0
 66 65  1  0
 68 66  1  0
 69 78  2  0
 69 74  1  0
 70 66  1  0
 70 74  1  0
 71 70  1  0
 72 73  1  0
 72 71  1  0
 73 69  1  0
 74 75  2  0
 75 76  1  0
 77 76  2  0
 78 77  1  0
 79 53  1  0
 79 80  1  0
 79 89  1  0
 80 83  1  0
 81 85  1  0
 81 80  1  0
 82 81  2  0
 85 84  1  0
 87 85  1  0
 87 88  1  0
 87 86  1  0
 89 92  1  1
 89 90  1  0
 91 89  1  0
M  ISO  4  13 100  21 100  51 101  52 101
M  END
>  <TORSDO>  (79) 
F 17

>  <SCORE>  (79) 
-14.995

>  <name>  (79) 
79

>  <ligand_id>  (79) 
79

>  <original_smiles>  (79) 
[H]c1c([H])c([H])c2c(c1[H])C([H])([H])C([H])([H])C([H])([H])C2([H])N([H])C(=O)C1([H])N(C(=O)C([H])(N([H])C(=O)C([H])(N([H])C([H])([H])[H])C([H])([H])[H])C(C([H])([H])[H])(C([H])([H])[H])C([H])([H])[H])C([H])([H])c2c([H])c(OC([H])([H])C(=O)N3C([H])([H])c4c([H])c([H])c(N([H])C(=O)N5C([H])([H])C([H])([H])C([H])([H])C([H])(n6nc(-c7c([H])c([H])c(Oc8c([H])c([H])c(F)c([H])c8F)c([H])c7[H])c(C(=O)N([H])[H])c6N([H])[H])C5([H])[H])c([H])c4C([H])([H])C3([H])[H])c([H])c([H])c2C1([H])[H]

>  <smiles>  (79) 
[H]c1c([H])c([H])c2c(c1[H])C([H])([H])C([H])([H])C([H])([H])C2([H])N([H])C(=O)C1([H])N(C(=O)C([H])(N([H])C(=O)C([H])(N([H])C([H])([H])[H])C([H])([H])[H])C(C([H])([H])[H])(C([H])([H])[H])C([H])([H])[H])C([H])([H])c2c([H])c(OC([H])([H])C(=O)N3C([H])([H])c4c([H])c([H])c(N([H])C(=O)N5C([H])([H])C([H])([H])C([H])([H])C([H])(n6nc(-c7c([H])c([H])c(Oc8c([H])c([H])c(F)c([H])c8F)c([H])c7[H])c(C(=O)N([H])[H])c6N([H])[H])C5([H])[H])c([H])c4C([H])([H])C3([H])[H])c([H])c([H])c2C1([H])[H]

$$$$
80:0:0
     RDKit          3D

108112  0  0  1  0  0  0  0  0999 V2000
  -18.9870  -16.8160   22.8210 C   0  0  0  0  0  2  0  0  0  0  0  0
  -19.5780  -15.5860   22.0490 C   0  0  0  0  0  2  0  0  0  0  0  0
  -18.6740  -14.3400   21.6980 C   0  0  0  0  0  2  0  0  0  0  0  0
  -19.5750  -14.3640   19.3200 C   0  0  0  0  0  0  0  0  0  0  0  0
  -17.7920  -12.7450   19.9450 C   0  0  0  0  0  1  0  0  0  0  0  0
  -18.8090  -13.7860   20.3020 N   0  0  0  0  0  0  0  0  0  0  0  0
  -19.5210  -15.5590   19.0260 O   0  0  0  0  0  0  0  0  0  0  0  0
  -20.6800  -13.5200   18.6580 C   0  0  0  0  0  2  0  0  0  0  0  0
  -21.8070  -14.2590   17.7810 C   0  0  0  0  0  2  0  0  0  0  0  0
  -22.8580  -15.4270   18.1820 C   0  0  0  0  0  2  0  0  0  0  0  0
  -24.2610  -15.0780   17.8920 O   0  0  0  0  0  0  0  0  0  0  0  0
  -26.3660  -17.9290   19.1310 C   0  0  0  0  0  3  0  0  0  0  0  0
  -27.6550  -17.3100   19.2670 C   0  0  0  0  0  3  0  0  0  0  0  0
  -25.2430  -17.2390   18.6480 C   0  0  0  0  0  3  0  0  0  0  0  0
  -26.7010  -15.3230   18.3700 C   0  0  0  0  0  3  0  0  0  0  0  0
  -27.8870  -15.9390   18.9740 C   0  0  0  0  0  0  0  0  0  0  0  0
  -25.3750  -15.8960   18.2600 C   0  0  0  0  0  0  0  0  0  0  0  0
  -30.2370  -14.7630   19.8920 C   0  0  0  0  0  0  0  0  0  0  0  0
  -30.4860  -12.3710   19.5430 C   0  0  0  0  0  2  0  0  0  0  0  0
  -29.6310  -12.0930   18.3040 C   0  0  0  0  0  2  0  0  0  0  0  0
  -28.1230  -12.3710   18.5420 C   0  0  0  0  0  2  0  0  0  0  0  0
  -27.6920  -12.6740   20.0440 C   0  0  0  0  0  3  0  0  0  0  0  0
  -28.6880  -13.2880   21.0110 C   0  0  0  0  0  2  0  0  0  0  0  0
  -29.8820  -13.5160   20.2460 N   0  0  0  0  0  0  0  0  0  0  0  0
  -31.4500  -15.0390   19.9560 O   0  0  0  0  0  0  0  0  0  0  0  0
  -29.3450  -15.4750   19.0630 N   0  0  0  0  0  0  0  0  0  0  0  0
  -29.8970  -16.1610   18.5870 H   0  0  0  0  0  0  0  0  0  0  0  0
  -25.2710  -13.6800   20.7760 C   0  0  0  0  0  0  0  0  0  0  0  0
  -24.1250  -12.9730   21.0170 C   0  0  0  0  0  0  0  0  0  0  0  0
  -24.5080  -11.6300   20.8680 C   0  0  0  0  0  0  0  0  0  0  0  0
  -26.2560  -12.7450   20.4080 N   0  0  0  0  0  0  0  0  0  0  0  0
  -25.7640  -11.5140   20.5260 N   0  0  0  0  0  0  0  0  0  0  0  0
  -23.7850  -10.4150   21.0370 C   0  0  0  0  0  0  0  0  0  0  0  0
  -24.2140   -9.4890   21.9950 C   0  0  0  0  0  3  0  0  0  0  0  0
  -23.5200   -8.2820   22.1380 C   0  0  0  0  0  3  0  0  0  0  0  0
  -22.3700   -8.0310   21.3600 C   0  0  0  0  0  0  0  0  0  0  0  0
  -21.9440   -8.9780   20.4110 C   0  0  0  0  0  3  0  0  0  0  0  0
  -22.6680  -10.1580   20.2330 C   0  0  0  0  0  3  0  0  0  0  0  0
  -21.6160   -6.8960   21.4430 O   0  0  0  0  0  0  0  0  0  0  0  0
  -21.6630   -6.0840   22.5490 C   0  0  0  0  0  0  0  0  0  0  0  0
  -21.3670   -6.5700   23.8380 C   0  0  0  0  0  3  0  0  0  0  0  0
  -21.3500   -5.6930   24.9330 C   0  0  0  0  0  3  0  0  0  0  0  0
  -21.6060   -4.3220   24.7420 C   0  0  0  0  0  0  0  0  0  0  0  0
  -21.8820   -3.8310   23.4520 C   0  0  0  0  0  3  0  0  0  0  0  0
  -21.9090   -4.7100   22.3560 C   0  0  0  0  0  0  0  0  0  0  0  0
  -22.1620   -4.2260   21.1180 F   0  0  0  0  0  0  0  0  0  0  0  0
  -21.5580   -3.4740   25.7940 F   0  0  0  0  0  0  0  0  0  0  0  0
  -22.7500  -13.5130   21.3390 C   0  0  0  0  0  0  0  0  0  0  0  0
  -21.7990  -12.7870   21.9280 N   0  0  0  0  0  0  0  0  0  0  0  0
  -22.4650  -14.6670   21.0690 O   0  0  0  0  0  0  0  0  0  0  0  0
  -21.7940  -11.8190   22.1730 H   0  0  0  0  0  0  0  0  0  0  0  0
  -20.9340  -13.3070   22.0410 H   0  0  0  0  0  0  0  0  0  0  0  0
  -25.5140  -15.0320   20.9260 N   0  0  0  0  0  0  0  0  0  0  0  0
  -24.8510  -15.7440   21.2550 H   0  0  0  0  0  0  0  0  0  0  0  0
  -26.3530  -15.4230   20.5220 H   0  0  0  0  0  0  0  0  0  0  0  0
  -19.8660  -18.1460   22.7180 C   0  0  0  0  0  3  0  0  0  0  0  0
  -19.2780  -19.5630   23.1400 C   0  0  0  0  0  3  0  0  0  0  0  0
  -20.2250  -20.8210   22.9910 C   0  0  0  0  0  2  0  0  0  0  0  0
  -19.5370  -22.1460   23.5240 C   0  0  0  0  0  2  0  0  0  0  0  0
  -20.2850  -23.5380   23.7340 C   0  0  0  0  0  2  0  0  0  0  0  0
  -19.2670  -24.8240   23.8170 C   0  0  0  0  0  2  0  0  0  0  0  0
  -19.4970  -26.4710   23.4290 C   0  0  0  0  0  1  0  0  0  0  0  0
  -21.9810  -27.4530   20.6610 C   0  0  0  0  0  0  0  0  0  0  0  0
  -20.6300  -27.5790   21.4970 N   0  0  0  0  0  2  0  0  0  0  0  0
  -21.8090  -28.0060   19.5870 O   0  0  0  0  0  0  0  0  0  0  0  0
  -20.0700  -28.3330   21.1040 H   0  0  0  0  0  0  0  0  0  0  0  0
  -23.6000  -26.5350   20.7010 C   0  0  0  0  0  2  0  0  0  0  0  0
  -25.3110  -26.7820   21.0230 O   0  0  0  0  0  0  0  0  0  0  0  0
  -24.6450  -31.9380   23.2600 C   0  0  0  0  0  0  0  0  0  0  0  0
  -26.4320  -27.2350   20.2810 C   0  0  0  0  0  3  0  0  0  0  0  0
  -23.4580  -30.5910   21.6410 C   0  0  0  0  0  3  0  0  0  0  0  0
  -24.8210  -29.2720   19.9100 C   0  0  0  0  0  3  0  0  0  0  0  0
  -25.9790  -30.8120   21.4660 C   0  0  0  0  0  2  0  0  0  0  0  0
  -25.9350  -29.4870   20.7370 C   0  0  0  0  0  3  0  0  0  0  0  0
  -26.8960  -28.4610   20.8200 C   0  0  0  0  0  2  0  0  0  0  0  0
  -25.9030  -27.2880   19.0140 C   0  0  0  0  0  2  0  0  0  0  0  0
  -24.8960  -28.2530   18.9330 C   0  0  0  0  0  2  0  0  0  0  0  0
  -23.6590  -30.2120   20.1440 C   0  0  0  0  0  2  0  0  0  0  0  0
  -24.7140  -31.1610   22.1540 N   0  0  0  0  0  0  0  0  0  0  0  0
  -23.5700  -32.2230   23.7930 O   0  0  0  0  0  0  0  0  0  0  0  0
  -23.0200  -29.4880   22.6620 C   0  0  0  0  0  0  0  0  0  0  0  0
  -21.7590  -29.3930   22.9660 N   0  0  0  0  0  0  0  0  0  0  0  0
  -23.8180  -28.7470   23.2180 O   0  0  0  0  0  0  0  0  0  0  0  0
  -21.1490  -30.0860   22.5790 H   0  0  0  0  0  0  0  0  0  0  0  0
  -18.3150  -28.2000   22.2540 C   0  0  0  0  0  0  0  0  0  0  0  0
  -21.1180  -28.2240   23.6350 C   0  0  0  0  0  2  0  0  0  0  0  0
  -21.6710  -26.2570   23.0050 C   0  0  0  0  0 15  0  0  0  0  0  0
  -20.1970  -25.3850   21.5120 C   0  0  0  0  0 15  0  0  0  0  0  0
  -18.5040  -26.5600   21.3110 C   0  0  0  0  0  1  0  0  0  0  0  0
  -19.4130  -28.8790   23.2280 C   0  0  0  0  0  0  0  0  0  0  0  0
  -18.9960  -30.0150   23.9800 C   0  0  0  0  0  3  0  0  0  0  0  0
  -17.6630  -30.4780   24.0160 C   0  0  0  0  0  3  0  0  0  0  0  0
  -16.6530  -29.7620   23.3340 C   0  0  0  0  0  3  0  0  0  0  0  0
  -16.9900  -28.6450   22.5170 C   0  0  0  0  0  3  0  0  0  0  0  0
  -25.9480  -32.5030   23.8810 C   0  0  0  0  0  3  0  0  0  0  0  0
  -26.4660  -31.6520   25.0980 C   0  0  1  0  0  0  0  0  0  0  0  0
  -25.3900  -31.3820   26.1720 C   0  0  0  0  0  1  0  0  0  0  0  0
  -27.0470  -30.2890   24.6340 C   0  0  0  0  0  1  0  0  0  0  0  0
  -27.6060  -32.4290   25.7810 C   0  0  0  0  0  1  0  0  0  0  0  0
  -25.6530  -33.8800   24.2660 N   0  0  0  0  0  0  0  0  0  0  0  0
  -25.9220  -34.9500   23.5050 C   0  0  0  0  0  0  0  0  0  0  0  0
  -26.5520  -34.8880   22.4420 O   0  0  0  0  0  0  0  0  0  0  0  0
  -25.0840  -34.0060   25.0910 H   0  0  0  0  0  0  0  0  0  0  0  0
  -24.1530  -36.7290   23.2550 C   0  0  0  0  0  1  0  0  0  0  0  0
  -25.4180  -36.3080   24.0200 C   0  0  0  0  0  3  0  0  0  0  0  0
  -27.5540  -37.1850   24.8420 C   0  0  0  0  0  1  0  0  0  0  0  0
  -26.4300  -37.3790   23.9300 N   0  0  0  0  0  0  0  0  0  0  0  0
  -25.9980  -38.2710   24.1500 H   0  0  0  0  0  0  0  0  0  0  0  0
  2  1  1  0
  3  2  1  0
  4  6  1  0
  5  6  1  0
  6  3  1  0
  7  4  2  0
  8  4  1  0
  9 10  1  0
  9  8  1  0
 11 10  1  0
 11 17  1  0
 12 13  1  0
 14 12  2  0
 15 16  1  0
 16 26  1  0
 16 13  2  0
 17 15  2  0
 17 14  1  0
 18 25  2  0
 18 24  1  0
 19 24  1  0
 20 21  1  0
 20 19  1  0
 22 21  1  0
 22 31  1  0
 22 23  1  0
 24 23  1  0
 26 18  1  0
 27 26  1  0
 28 53  1  0
 28 29  2  0
 29 48  1  0
 30 29  1  0
 30 33  1  0
 31 32  1  0
 31 28  1  0
 32 30  2  0
 33 34  1  0
 34 35  2  0
 36 39  1  0
 36 35  1  0
 37 36  2  0
 38 37  1  0
 38 33  2  0
 39 40  1  0
 40 41  1  0
 41 42  2  0
 43 42  1  0
 43 47  1  0
 44 43  2  0
 45 40  2  0
 45 44  1  0
 46 45  1  0
 48 49  1  0
 49 52  1  0
 49 51  1  0
 50 48  2  0
 53 54  1  0
 55 53  1  0
 56  1  1  0
 56 57  2  0
 58 57  1  0
 58 59  1  0
 59 60  1  0
 60 61  1  0
 62 61  1  0
 63 67  1  0
 63 64  1  0
 65 63  2  0
 66 64  1  0
 67 68  1  0
 69 80  2  0
 70 75  1  0
 70 68  1  0
 71 79  1  0
 71 81  1  0
 72 77  1  0
 72 78  1  0
 72 74  1  0
 73 79  1  0
 74 75  1  0
 74 73  1  0
 76 70  1  0
 77 76  1  0
 78 71  1  0
 79 69  1  0
 81 82  1  0
 81 83  2  0
 82 86  1  0
 84 82  1  0
 85 94  2  0
 85 90  1  0
 89 85  1  0
 90 86  1  0
 90 91  2  0
 91 92  1  0
 93 92  2  0
 94 93  1  0
 95 69  1  0
 95100  1  0
 95 96  1  0
 96 99  1  1
 96 97  1  0
 98 96  1  0
100103  1  0
101105  1  0
101100  1  0
102101  2  0
105104  1  0
107105  1  0
107108  1  0
107106  1  0
M  ISO  4  18 100  26 100  67 101  68 101
M  END
>  <TORSDO>  (80) 
F 33

>  <SCORE>  (80) 
65.537

>  <name>  (80) 
80

>  <ligand_id>  (80) 
80

>  <original_smiles>  (80) 
[H]c1c([H])c(OC([H])([H])C([H])([H])C([H])([H])C(=O)N(C([H])([H])[H])C([H])([H])C([H])([H])C([H])([H])C([H])([H])C([H])([H])C([H])([H])C([H])([H])C([H])([H])C([H])([H])C([H])([H])N([H])C(=O)C([H])([H])Oc2c([H])c([H])c3c(c2[H])C([H])([H])N(C(=O)C([H])(N([H])C(=O)C([H])(N([H])C([H])([H])[H])C([H])([H])[H])C(C([H])([H])[H])(C([H])([H])[H])C([H])([H])[H])C([H])(C(=O)N([H])C2([H])c4c([H])c([H])c([H])c([H])c4C([H])([H])C([H])([H])C2([H])[H])C3([H])[H])c([H])c(N([H])C(=O)N2C([H])([H])C([H])([H])C([H])([H])C([H])(n3nc(-c4c([H])c([H])c(Oc5c([H])c([H])c(F)c([H])c5F)c([H])c4[H])c(C(=O)N([H])[H])c3N([H])[H])C2([H])[H])c1[H]

>  <smiles>  (80) 
[H]c1c([H])c(OC([H])([H])C([H])([H])C([H])([H])C(=O)N(C([H])([H])[H])C([H])([H])C([H])([H])C([H])([H])C([H])([H])C([H])([H])C([H])([H])C([H])([H])C([H])([H])C([H])([H])C([H])([H])N([H])C(=O)C([H])([H])Oc2c([H])c([H])c3c(c2[H])C([H])([H])N(C(=O)C([H])(N([H])C(=O)C([H])(N([H])C([H])([H])[H])C([H])([H])[H])C(C([H])([H])[H])(C([H])([H])[H])C([H])([H])[H])C([H])(C(=O)N([H])C2([H])c4c([H])c([H])c([H])c([H])c4C([H])([H])C([H])([H])C2([H])[H])C3([H])[H])c([H])c(N([H])C(=O)N2C([H])([H])C([H])([H])C([H])([H])C([H])(n3nc(-c4c([H])c([H])c(Oc5c([H])c([H])c(F)c([H])c5F)c([H])c4[H])c(C(=O)N([H])[H])c3N([H])[H])C2([H])[H])c1[H]

$$$$
82:0:0
     RDKit          3D

 89 97  0  0  1  0  0  0  0  0999 V2000
  -27.7320  -21.0020   20.2730 C   0  0  0  0  0  3  0  0  0  0  0  0
  -29.8660  -21.5350   20.1960 C   0  0  0  0  0  3  0  0  0  0  0  0
  -28.0670  -19.5100   20.2430 C   0  0  0  0  0  0  0  0  0  0  0  0
  -30.2390  -20.0230   20.1630 C   0  0  0  0  0  0  0  0  0  0  0  0
  -28.5430  -22.2520   20.2490 C   0  0  0  0  0  0  0  0  0  0  0  0
  -29.3710  -18.7900   20.1830 C   0  0  0  0  0  0  0  0  0  0  0  0
  -26.8510  -18.5980   20.2750 C   0  0  0  0  0  1  0  0  0  0  0  0
  -31.7310  -19.7440   20.0960 C   0  0  0  0  0  1  0  0  0  0  0  0
  -30.3860  -15.7440   19.9710 C   0  0  0  0  0  0  0  0  0  0  0  0
  -30.4930  -13.2150   19.0730 C   0  0  0  0  0  2  0  0  0  0  0  0
  -29.5310  -12.8080   17.9190 C   0  0  0  0  0  2  0  0  0  0  0  0
  -28.1420  -12.4240   18.4510 C   0  0  0  0  0  2  0  0  0  0  0  0
  -27.6870  -13.3920   19.5640 C   0  0  0  0  0  3  0  0  0  0  0  0
  -28.7820  -13.6930   20.6160 C   0  0  0  0  0  2  0  0  0  0  0  0
  -29.8990  -14.3600   19.9060 N   0  0  0  0  0  0  0  0  0  0  0  0
  -31.6030  -15.7250   19.7030 O   0  0  0  0  0  0  0  0  0  0  0  0
  -29.5500  -17.0560   20.1530 N   0  0  0  0  0  0  0  0  0  0  0  0
  -28.6330  -16.6780   20.3360 H   0  0  0  0  0  0  0  0  0  0  0  0
  -25.3790  -13.8680   20.5070 C   0  0  0  0  0  0  0  0  0  0  0  0
  -24.3520  -13.0640   20.9110 C   0  0  0  0  0  0  0  0  0  0  0  0
  -24.8270  -11.7220   20.7860 C   0  0  0  0  0  0  0  0  0  0  0  0
  -26.4100  -13.0190   20.1550 N   0  0  0  0  0  0  0  0  0  0  0  0
  -26.0970  -11.7170   20.3890 N   0  0  0  0  0  0  0  0  0  0  0  0
  -24.1200  -10.4460   20.9640 C   0  0  0  0  0  0  0  0  0  0  0  0
  -24.5540   -9.4810   21.9000 C   0  0  0  0  0  3  0  0  0  0  0  0
  -23.8410   -8.2750   22.0690 C   0  0  0  0  0  3  0  0  0  0  0  0
  -22.6780   -8.0250   21.3020 C   0  0  0  0  0  0  0  0  0  0  0  0
  -22.2610   -8.9780   20.3570 C   0  0  0  0  0  3  0  0  0  0  0  0
  -22.9760  -10.1760   20.1860 C   0  0  0  0  0  3  0  0  0  0  0  0
  -21.9370   -6.8710   21.3810 O   0  0  0  0  0  0  0  0  0  0  0  0
  -21.7980   -6.1820   22.5600 C   0  0  0  0  0  0  0  0  0  0  0  0
  -21.2130   -6.7720   23.7010 C   0  0  0  0  0  3  0  0  0  0  0  0
  -21.0260   -6.0080   24.8700 C   0  0  0  0  0  3  0  0  0  0  0  0
  -21.4130   -4.6560   24.8980 C   0  0  0  0  0  0  0  0  0  0  0  0
  -21.9910   -4.0650   23.7610 C   0  0  0  0  0  3  0  0  0  0  0  0
  -22.1790   -4.8260   22.5940 C   0  0  0  0  0  0  0  0  0  0  0  0
  -22.7160   -4.2450   21.4940 F   0  0  0  0  0  0  0  0  0  0  0  0
  -21.2270   -3.9180   26.0180 F   0  0  0  0  0  0  0  0  0  0  0  0
  -22.9710  -13.5160   21.2860 C   0  0  0  0  0  0  0  0  0  0  0  0
  -22.3090  -12.7870   22.1760 N   0  0  0  0  0  0  0  0  0  0  0  0
  -22.4930  -14.5540   20.8270 O   0  0  0  0  0  0  0  0  0  0  0  0
  -22.7120  -11.9480   22.5650 H   0  0  0  0  0  0  0  0  0  0  0  0
  -21.3870  -13.0730   22.4740 H   0  0  0  0  0  0  0  0  0  0  0  0
  -25.5110  -15.2470   20.3720 N   0  0  0  0  0  0  0  0  0  0  0  0
  -24.7230  -15.8670   20.5300 H   0  0  0  0  0  0  0  0  0  0  0  0
  -26.2750  -15.6890   19.8820 H   0  0  0  0  0  0  0  0  0  0  0  0
  -27.8910  -23.7640   20.2700 N   0  0  0  0  0  0  0  0  0  0  0  0
  -26.8770  -23.7110   20.3170 H   0  0  0  0  0  0  0  0  0  0  0  0
  -28.2700  -25.5200   20.2560 O   0  0  0  0  0  0  0  0  0  0  0  0
  -24.7040  -31.8200   23.2000 C   0  0  0  0  0  0  0  0  0  0  0  0
  -27.2780  -26.7290   20.2430 C   0  0  0  0  0  0  0  0  0  0  0  0
  -23.5400  -30.4250   21.5430 C   0  0  0  0  0  3  0  0  0  0  0  0
  -25.0090  -28.7770   20.1490 C   0  0  0  0  0  0  0  0  0  0  0  0
  -26.1200  -30.5640   21.4600 C   0  0  0  0  0  2  0  0  0  0  0  0
  -26.1940  -29.1270   20.8080 C   0  0  0  0  0  0  0  0  0  0  0  0
  -27.3090  -28.1310   20.8260 C   0  0  0  0  0  3  0  0  0  0  0  0
  -26.0650  -26.6020   19.5190 C   0  0  0  0  0  3  0  0  0  0  0  0
  -24.9850  -27.5380   19.4830 C   0  0  0  0  0  3  0  0  0  0  0  0
  -23.8010  -29.7290   20.1760 C   0  0  0  0  0  2  0  0  0  0  0  0
  -24.8120  -30.9700   22.1200 N   0  0  0  0  0  0  0  0  0  0  0  0
  -23.6040  -32.1200   23.6950 O   0  0  0  0  0  0  0  0  0  0  0  0
  -22.8100  -29.4460   22.5030 C   0  0  0  0  0  0  0  0  0  0  0  0
  -21.4790  -29.2950   22.3620 N   0  0  0  0  0  0  0  0  0  0  0  0
  -23.4550  -28.8190   23.3480 O   0  0  0  0  0  0  0  0  0  0  0  0
  -21.0100  -29.8480   21.6580 H   0  0  0  0  0  0  0  0  0  0  0  0
  -18.0770  -28.1180   22.8670 C   0  0  0  0  0  0  0  0  0  0  0  0
  -20.6420  -28.3580   23.1230 C   0  0  0  0  0  3  0  0  0  0  0  0
  -20.7230  -26.9330   22.5280 C   0  0  0  0  0  2  0  0  0  0  0  0
  -19.6160  -26.6380   21.5100 C   0  0  0  0  0  2  0  0  0  0  0  0
  -18.2400  -26.7810   22.1640 C   0  0  0  0  0  2  0  0  0  0  0  0
  -19.2050  -28.8650   23.3040 C   0  0  0  0  0  0  0  0  0  0  0  0
  -18.9950  -30.1140   23.9300 C   0  0  0  0  0  3  0  0  0  0  0  0
  -17.6940  -30.6150   24.1210 C   0  0  0  0  0  3  0  0  0  0  0  0
  -16.5820  -29.8670   23.6950 C   0  0  0  0  0  3  0  0  0  0  0  0
  -16.7750  -28.6200   23.0750 C   0  0  0  0  0  3  0  0  0  0  0  0
  -25.9580  -32.4700   23.8600 C   0  0  0  0  0  3  0  0  0  0  0  0
  -25.6290  -33.8710   24.1940 N   0  0  0  0  0  0  0  0  0  0  0  0
  -25.9400  -34.9370   23.4430 C   0  0  0  0  0  0  0  0  0  0  0  0
  -26.5890  -34.8460   22.3990 O   0  0  0  0  0  0  0  0  0  0  0  0
  -25.0440  -34.0120   25.0040 H   0  0  0  0  0  0  0  0  0  0  0  0
  -24.1780  -36.7200   23.1680 C   0  0  0  0  0  1  0  0  0  0  0  0
  -25.4580  -36.3240   23.9230 C   0  0  0  0  0  3  0  0  0  0  0  0
  -27.6080  -37.2490   24.6710 C   0  0  0  0  0  1  0  0  0  0  0  0
  -26.4720  -37.3900   23.7640 N   0  0  0  0  0  0  0  0  0  0  0  0
  -26.0590  -38.3070   23.9140 H   0  0  0  0  0  0  0  0  0  0  0  0
  -26.4370  -31.7090   25.1580 C   0  0  1  0  0  0  0  0  0  0  0  0
  -25.3160  -31.4810   26.2000 C   0  0  0  0  0  1  0  0  0  0  0  0
  -27.0290  -30.3260   24.8060 C   0  0  0  0  0  1  0  0  0  0  0  0
  -27.5710  -32.5050   25.8450 C   0  0  0  0  0  1  0  0  0  0  0  0
  2  5  2  0
  3  1  2  0
  3  7  1  0
  4  6  2  0
  4  2  1  0
  5 47  1  0
  5  1  1  0
  6  3  1  0
  8  4  1  0
  9 17  1  0
 10 15  1  0
 11 12  1  0
 11 10  1  0
 13 12  1  0
 13 22  1  0
 13 14  1  0
 15  9  1  0
 15 14  1  0
 16  9  2  0
 17  6  1  0
 17 18  1  0
 19 20  2  0
 20 39  1  0
 21 20  1  0
 21 24  1  0
 22 23  1  0
 22 19  1  0
 23 21  2  0
 24 25  1  0
 25 26  2  0
 27 30  1  0
 27 26  1  0
 28 27  2  0
 29 28  1  0
 29 24  2  0
 30 31  1  0
 31 36  2  0
 31 32  1  0
 32 33  2  0
 33 34  1  0
 34 38  1  0
 35 34  2  0
 36 35  1  0
 37 36  1  0
 39 40  1  0
 40 43  1  0
 40 42  1  0
 41 39  2  0
 44 19  1  0
 44 45  1  0
 46 44  1  0
 47 48  1  0
 49 47  1  0
 50 61  2  0
 51 49  1  0
 51 56  1  0
 52 60  1  0
 52 62  1  0
 53 59  1  0
 53 55  1  0
 54 60  1  0
 55 56  2  0
 55 54  1  0
 57 51  2  0
 58 57  1  0
 58 53  2  0
 59 52  1  0
 60 50  1  0
 62 64  2  0
 63 62  1  0
 65 63  1  0
 66 75  2  0
 66 71  1  0
 67 63  1  0
 67 71  1  0
 68 67  1  0
 69 70  1  0
 69 68  1  0
 70 66  1  0
 71 72  2  0
 72 73  1  0
 74 73  2  0
 75 74  1  0
 76 50  1  0
 76 77  1  0
 76 86  1  0
 77 80  1  0
 78 82  1  0
 78 77  1  0
 79 78  2  0
 82 81  1  0
 84 85  1  0
 84 82  1  0
 84 83  1  0
 86 89  1  1
 86 87  1  0
 88 86  1  0
M  ISO  4   9 100  17 100  47 101  49 101
M  END
>  <TORSDO>  (81) 
F 17

>  <SCORE>  (81) 
-15.671

>  <name>  (81) 
82

>  <ligand_id>  (81) 
82

>  <original_smiles>  (81) 
[H]c1c([H])c([H])c2c(c1[H])C([H])([H])C([H])([H])C([H])([H])C2([H])N([H])C(=O)C1([H])N(C(=O)C([H])(N([H])C(=O)C([H])(N([H])C([H])([H])[H])C([H])([H])[H])C(C([H])([H])[H])(C([H])([H])[H])C([H])([H])[H])C([H])([H])c2c([H])c(ON([H])c3c([H])c(C([H])([H])[H])c(N([H])C(=O)N4C([H])([H])C([H])([H])C([H])([H])C([H])(n5nc(-c6c([H])c([H])c(Oc7c([H])c([H])c(F)c([H])c7F)c([H])c6[H])c(C(=O)N([H])[H])c5N([H])[H])C4([H])[H])c(C([H])([H])[H])c3[H])c([H])c([H])c2C1([H])[H]

>  <smiles>  (81) 
[H]c1c([H])c([H])c2c(c1[H])C([H])([H])C([H])([H])C([H])([H])C2([H])N([H])C(=O)C1([H])N(C(=O)C([H])(N([H])C(=O)C([H])(N([H])C([H])([H])[H])C([H])([H])[H])C(C([H])([H])[H])(C([H])([H])[H])C([H])([H])[H])C([H])([H])c2c([H])c(ON([H])c3c([H])c(C([H])([H])[H])c(N([H])C(=O)N4C([H])([H])C([H])([H])C([H])([H])C([H])(n5nc(-c6c([H])c([H])c(Oc7c([H])c([H])c(F)c([H])c7F)c([H])c6[H])c(C(=O)N([H])[H])c5N([H])[H])C4([H])[H])c(C([H])([H])[H])c3[H])c([H])c([H])c2C1([H])[H]

$$$$
83:0:0
     RDKit          3D

108116  0  0  1  0  0  0  0  0999 V2000
  -33.6370  -23.7360   18.1010 C   0  0  0  0  0  0  0  0  0  0  0  0
  -33.8690  -25.0470   17.9780 N   0  0  0  0  0  0  0  0  0  0  0  0
  -34.4970  -22.9450   18.4930 O   0  0  0  0  0  0  0  0  0  0  0  0
  -33.1190  -25.6190   17.6100 H   0  0  0  0  0  0  0  0  0  0  0  0
  -35.0260  -25.7540   18.5220 C   0  0  0  0  0  2  0  0  0  0  0  0
  -34.8020  -26.1320   20.0010 C   0  0  0  0  0  2  0  0  0  0  0  0
  -33.4540  -26.8310   20.2530 C   0  0  0  0  0  2  0  0  0  0  0  0
  -33.1670  -27.1080   21.7400 C   0  0  0  0  0  2  0  0  0  0  0  0
  -31.7030  -27.5190   22.0140 C   0  0  0  0  0  2  0  0  0  0  0  0
  -30.7170  -26.3740   21.7630 C   0  0  0  0  0  0  0  0  0  0  0  0
  -30.0140  -26.4160   20.6250 N   0  0  0  0  0  0  0  0  0  0  0  0
  -30.6330  -25.4480   22.5710 O   0  0  0  0  0  0  0  0  0  0  0  0
  -30.1100  -27.2360   20.0400 H   0  0  0  0  0  0  0  0  0  0  0  0
  -29.2500  -25.3090   20.0560 C   0  0  0  0  0  2  0  0  0  0  0  0
  -27.8240  -25.7300   19.6800 C   0  0  0  0  0  2  0  0  0  0  0  0
  -27.8190  -26.9640   18.9600 O   0  0  0  0  0  0  0  0  0  0  0  0
  -24.4610  -31.6960   23.0220 C   0  0  0  0  0  0  0  0  0  0  0  0
  -26.6670  -27.6840   19.1550 C   0  0  0  0  0  0  0  0  0  0  0  0
  -23.0470  -30.4970   21.3830 C   0  0  0  0  0  3  0  0  0  0  0  0
  -24.3010  -29.1440   19.6250 C   0  0  0  0  0  0  0  0  0  0  0  0
  -25.5310  -30.8930   20.9230 C   0  0  0  0  0  2  0  0  0  0  0  0
  -25.5250  -29.6110   20.1210 C   0  0  0  0  0  0  0  0  0  0  0  0
  -26.7130  -28.8920   19.8780 C   0  0  0  0  0  3  0  0  0  0  0  0
  -25.4310  -27.2200   18.6580 C   0  0  0  0  0  3  0  0  0  0  0  0
  -24.2460  -27.9450   18.8920 C   0  0  0  0  0  3  0  0  0  0  0  0
  -23.0780  -29.9830   19.9190 C   0  0  0  0  0  2  0  0  0  0  0  0
  -24.3720  -31.0350   21.8340 N   0  0  0  0  0  0  0  0  0  0  0  0
  -23.4560  -31.9020   23.7180 O   0  0  0  0  0  0  0  0  0  0  0  0
  -22.5050  -29.3690   22.2890 C   0  0  0  0  0  0  0  0  0  0  0  0
  -21.1810  -29.1470   22.2400 N   0  0  0  0  0  0  0  0  0  0  0  0
  -23.2680  -28.6990   22.9920 O   0  0  0  0  0  0  0  0  0  0  0  0
  -20.6230  -29.7430   21.6450 H   0  0  0  0  0  0  0  0  0  0  0  0
  -17.9120  -27.7040   22.7630 C   0  0  0  0  0  0  0  0  0  0  0  0
  -20.4560  -28.1120   22.9750 C   0  0  0  0  0  3  0  0  0  0  0  0
  -20.6310  -26.7290   22.3090 C   0  0  0  0  0  2  0  0  0  0  0  0
  -19.5180  -26.3950   21.3090 C   0  0  0  0  0  2  0  0  0  0  0  0
  -18.1530  -26.4120   22.0010 C   0  0  0  0  0  2  0  0  0  0  0  0
  -18.9940  -28.5100   23.2060 C   0  0  0  0  0  0  0  0  0  0  0  0
  -18.7140  -29.7220   23.8760 C   0  0  0  0  0  3  0  0  0  0  0  0
  -17.3860  -30.1250   24.1120 C   0  0  0  0  0  3  0  0  0  0  0  0
  -16.3200  -29.3130   23.6860 C   0  0  0  0  0  3  0  0  0  0  0  0
  -16.5840  -28.1060   23.0150 C   0  0  0  0  0  3  0  0  0  0  0  0
  -25.8220  -32.2490   23.5530 C   0  0  0  0  0  3  0  0  0  0  0  0
  -25.5840  -33.6130   24.0390 N   0  0  0  0  0  0  0  0  0  0  0  0
  -25.8910  -34.7250   23.3580 C   0  0  0  0  0  0  0  0  0  0  0  0
  -26.4770  -34.7070   22.2730 O   0  0  0  0  0  0  0  0  0  0  0  0
  -25.0520  -33.7050   24.8930 H   0  0  0  0  0  0  0  0  0  0  0  0
  -24.1940  -36.5810   23.3200 C   0  0  0  0  0  1  0  0  0  0  0  0
  -25.4840  -36.0740   23.9830 C   0  0  0  0  0  3  0  0  0  0  0  0
  -27.7100  -36.8220   24.7010 C   0  0  0  0  0  1  0  0  0  0  0  0
  -26.5340  -37.1100   23.8840 N   0  0  0  0  0  0  0  0  0  0  0  0
  -26.1710  -38.0190   24.1580 H   0  0  0  0  0  0  0  0  0  0  0  0
  -26.4570  -31.3550   24.6860 C   0  0  1  0  0  0  0  0  0  0  0  0
  -25.4860  -31.0390   25.8470 C   0  0  0  0  0  1  0  0  0  0  0  0
  -26.9550  -30.0100   24.1040 C   0  0  0  0  0  1  0  0  0  0  0  0
  -27.6960  -32.0650   25.2800 C   0  0  0  0  0  1  0  0  0  0  0  0
  -32.2160  -23.2700   17.7760 C   0  0  0  0  0  2  0  0  0  0  0  0
  -32.1280  -21.8730   17.1310 C   0  0  0  0  0  2  0  0  0  0  0  0
  -32.2630  -20.6960   18.1110 C   0  0  0  0  0  2  0  0  0  0  0  0
  -31.1980  -20.7370   19.0660 O   0  0  0  0  0  0  0  0  0  0  0  0
  -30.4550  -18.4770   18.7530 C   0  0  0  0  0  3  0  0  0  0  0  0
  -30.4360  -18.0350   21.5090 C   0  0  0  0  0  3  0  0  0  0  0  0
  -30.1210  -17.2040   19.2430 C   0  0  0  0  0  0  0  0  0  0  0  0
  -30.1590  -16.9580   20.6380 C   0  0  0  0  0  0  0  0  0  0  0  0
  -30.8160  -19.5330   19.6140 C   0  0  0  0  0  0  0  0  0  0  0  0
  -30.7420  -19.3280   21.0230 C   0  0  0  0  0  0  0  0  0  0  0  0
  -29.7420  -16.1380   18.2350 C   0  0  0  0  0  1  0  0  0  0  0  0
  -30.6990  -14.6090   21.0390 C   0  0  0  0  0  0  0  0  0  0  0  0
  -30.5800  -12.3300   20.1400 C   0  0  0  0  0  2  0  0  0  0  0  0
  -29.7760  -12.3730   18.8240 C   0  0  0  0  0  2  0  0  0  0  0  0
  -28.2630  -12.2610   19.0930 C   0  0  0  0  0  2  0  0  0  0  0  0
  -27.7710  -13.2060   20.2240 C   0  0  0  0  0  3  0  0  0  0  0  0
  -28.7000  -13.1340   21.4570 C   0  0  0  0  0  2  0  0  0  0  0  0
  -30.0740  -13.4050   21.0050 N   0  0  0  0  0  0  0  0  0  0  0  0
  -31.8940  -14.7590   20.7670 O   0  0  0  0  0  0  0  0  0  0  0  0
  -29.8840  -15.6690   21.1780 N   0  0  0  0  0  0  0  0  0  0  0  0
  -28.9280  -15.4710   21.4330 H   0  0  0  0  0  0  0  0  0  0  0  0
  -25.3120  -13.8240   20.6610 C   0  0  0  0  0  0  0  0  0  0  0  0
  -24.2150  -13.0550   20.9450 C   0  0  0  0  0  0  0  0  0  0  0  0
  -24.6830  -11.7070   21.0080 C   0  0  0  0  0  0  0  0  0  0  0  0
  -26.3770  -12.9420   20.5720 N   0  0  0  0  0  0  0  0  0  0  0  0
  -25.9980  -11.6680   20.8400 N   0  0  0  0  0  0  0  0  0  0  0  0
  -23.9490  -10.4450   21.1630 C   0  0  0  0  0  0  0  0  0  0  0  0
  -24.3250   -9.4880   22.1310 C   0  0  0  0  0  3  0  0  0  0  0  0
  -23.5920   -8.2900   22.2730 C   0  0  0  0  0  3  0  0  0  0  0  0
  -22.4710   -8.0410   21.4460 C   0  0  0  0  0  0  0  0  0  0  0  0
  -22.1160   -8.9860   20.4680 C   0  0  0  0  0  3  0  0  0  0  0  0
  -22.8490  -10.1770   20.3230 C   0  0  0  0  0  3  0  0  0  0  0  0
  -21.7160   -6.8960   21.4980 O   0  0  0  0  0  0  0  0  0  0  0  0
  -21.6260   -6.1420   22.6400 C   0  0  0  0  0  0  0  0  0  0  0  0
  -21.1770   -6.6900   23.8610 C   0  0  0  0  0  3  0  0  0  0  0  0
  -21.0330   -5.8630   24.9930 C   0  0  0  0  0  3  0  0  0  0  0  0
  -21.3300   -4.4890   24.9050 C   0  0  0  0  0  0  0  0  0  0  0  0
  -21.7740   -3.9410   23.6890 C   0  0  0  0  0  3  0  0  0  0  0  0
  -21.9190   -4.7650   22.5590 C   0  0  0  0  0  0  0  0  0  0  0  0
  -22.3250   -4.2260   21.3830 F   0  0  0  0  0  0  0  0  0  0  0  0
  -21.1860   -3.6940   25.9900 F   0  0  0  0  0  0  0  0  0  0  0  0
  -22.7940  -13.5280   21.0570 C   0  0  0  0  0  0  0  0  0  0  0  0
  -21.9880  -12.8610   21.8750 N   0  0  0  0  0  0  0  0  0  0  0  0
  -22.4040  -14.5280   20.4540 O   0  0  0  0  0  0  0  0  0  0  0  0
  -22.3150  -12.0550   22.3880 H   0  0  0  0  0  0  0  0  0  0  0  0
  -21.0310  -13.1600   21.9920 H   0  0  0  0  0  0  0  0  0  0  0  0
  -25.4850  -15.1890   20.4520 N   0  0  0  0  0  0  0  0  0  0  0  0
  -24.7010  -15.8340   20.4450 H   0  0  0  0  0  0  0  0  0  0  0  0
  -26.3570  -15.6260   20.1870 H   0  0  0  0  0  0  0  0  0  0  0  0
  -30.9730  -20.2830   21.9950 O   0  0  0  0  0  0  0  0  0  0  0  0
  -32.2050  -22.3170   21.4850 C   0  0  0  0  0  1  0  0  0  0  0  0
  -30.8310  -21.6720   21.7030 C   0  0  0  0  0  2  0  0  0  0  0  0
  1  3  2  0
  2  1  1  0
  2  5  1  0
  4  2  1  0
  5  6  1  0
  6  7  1  0
  7  8  1  0
  8  9  1  0
 10  9  1  0
 10 12  2  0
 11 10  1  0
 13 11  1  0
 14 11  1  0
 15 14  1  0
 16 18  1  0
 16 15  1  0
 17 28  2  0
 18 23  1  0
 19 27  1  0
 19 29  1  0
 20 26  1  0
 20 22  1  0
 21 27  1  0
 22 21  1  0
 23 22  2  0
 24 25  1  0
 24 18  2  0
 25 20  2  0
 26 19  1  0
 27 17  1  0
 29 31  2  0
 30 29  1  0
 32 30  1  0
 33 42  2  0
 33 38  1  0
 34 30  1  0
 34 38  1  0
 35 34  1  0
 36 37  1  0
 36 35  1  0
 37 33  1  0
 38 39  2  0
 39 40  1  0
 41 40  2  0
 42 41  1  0
 43 17  1  0
 43 44  1  0
 43 53  1  0
 44 47  1  0
 45 49  1  0
 45 44  1  0
 46 45  2  0
 49 48  1  0
 51 49  1  0
 51 52  1  0
 51 50  1  0
 53 56  1  1
 53 54  1  0
 55 53  1  0
 57  1  1  0
 58 57  1  0
 58 59  1  0
 59 60  1  0
 60 65  1  0
 61 63  2  0
 61 65  1  0
 63 64  1  0
 64 76  1  0
 64 62  2  0
 65 66  2  0
 66 62  1  0
 66106  1  0
 67 63  1  0
 68 76  1  0
 69 74  1  0
 70 71  1  0
 70 69  1  0
 72 71  1  0
 72 81  1  0
 72 73  1  0
 74 68  1  0
 74 73  1  0
 75 68  2  0
 76 77  1  0
 78 79  2  0
 79 80  1  0
 79 98  1  0
 80 83  1  0
 81 78  1  0
 81 82  1  0
 82 80  2  0
 83 84  1  0
 84 85  2  0
 86 89  1  0
 86 85  1  0
 87 86  2  0
 88 87  1  0
 88 83  2  0
 89 90  1  0
 90 91  1  0
 91 92  2  0
 93 92  1  0
 93 97  1  0
 94 93  2  0
 95 90  2  0
 95 94  1  0
 96 95  1  0
 98 99  1  0
 99102  1  0
 99101  1  0
100 98  2  0
103 78  1  0
104103  1  0
105103  1  0
107108  1  0
108106  1  0
M  ISO  4  15 101  16 101  68 100  76 100
M  END
>  <TORSDO>  (82) 
F 31

>  <SCORE>  (82) 
-9.193

>  <name>  (82) 
83

>  <ligand_id>  (82) 
83

>  <original_smiles>  (82) 
[H]c1c([H])c([H])c2c(c1[H])C([H])([H])C([H])([H])C([H])([H])C2([H])N([H])C(=O)C1([H])N(C(=O)C([H])(N([H])C(=O)C([H])(N([H])C([H])([H])[H])C([H])([H])[H])C(C([H])([H])[H])(C([H])([H])[H])C([H])([H])[H])C([H])([H])c2c([H])c(OC([H])([H])C([H])([H])N([H])C(=O)C([H])([H])C([H])([H])C([H])([H])C([H])([H])C([H])([H])N([H])C(=O)C([H])([H])C([H])([H])C([H])([H])Oc3c([H])c(C([H])([H])[H])c(N([H])C(=O)N4C([H])([H])C([H])([H])C([H])([H])C([H])(n5nc(-c6c([H])c([H])c(Oc7c([H])c([H])c(F)c([H])c7F)c([H])c6[H])c(C(=O)N([H])[H])c5N([H])[H])C4([H])[H])c([H])c3OC([H])([H])C([H])([H])[H])c([H])c([H])c2C1([H])[H]

>  <smiles>  (82) 
[H]c1c([H])c([H])c2c(c1[H])C([H])([H])C([H])([H])C([H])([H])C2([H])N([H])C(=O)C1([H])N(C(=O)C([H])(N([H])C(=O)C([H])(N([H])C([H])([H])[H])C([H])([H])[H])C(C([H])([H])[H])(C([H])([H])[H])C([H])([H])[H])C([H])([H])c2c([H])c(OC([H])([H])C([H])([H])N([H])C(=O)C([H])([H])C([H])([H])C([H])([H])C([H])([H])C([H])([H])N([H])C(=O)C([H])([H])C([H])([H])C([H])([H])Oc3c([H])c(C([H])([H])[H])c(N([H])C(=O)N4C([H])([H])C([H])([H])C([H])([H])C([H])(n5nc(-c6c([H])c([H])c(Oc7c([H])c([H])c(F)c([H])c7F)c([H])c6[H])c(C(=O)N([H])[H])c5N([H])[H])C4([H])[H])c([H])c3OC([H])([H])C([H])([H])[H])c([H])c([H])c2C1([H])[H]

$$$$
84:0:0
     RDKit          3D

 90 98  0  0  1  0  0  0  0  0999 V2000
  -29.6470  -22.0000   20.6810 C   0  0  0  0  0  2  0  0  0  0  0  0
  -28.8430  -23.3070   20.4230 C   0  0  0  0  0  2  0  0  0  0  0  0
  -29.4090  -24.5650   21.1330 C   0  0  0  0  0  2  0  0  0  0  0  0
  -28.4280  -25.7610   21.2880 C   0  0  0  0  0  2  0  0  0  0  0  0
  -28.3950  -26.6750   20.1820 O   0  0  0  0  0  0  0  0  0  0  0  0
  -24.6030  -31.8870   23.2550 C   0  0  0  0  0  0  0  0  0  0  0  0
  -27.2580  -27.4510   20.1750 C   0  0  0  0  0  0  0  0  0  0  0  0
  -23.4000  -30.4840   21.6100 C   0  0  0  0  0  3  0  0  0  0  0  0
  -24.8610  -28.9510   20.1840 C   0  0  0  0  0  0  0  0  0  0  0  0
  -25.9260  -30.8480   21.4150 C   0  0  0  0  0  2  0  0  0  0  0  0
  -26.0170  -29.4770   20.7750 C   0  0  0  0  0  0  0  0  0  0  0  0
  -27.2210  -28.7340   20.7710 C   0  0  0  0  0  3  0  0  0  0  0  0
  -26.0900  -26.9400   19.5750 C   0  0  0  0  0  3  0  0  0  0  0  0
  -24.8920  -27.6800   19.5810 C   0  0  0  0  0  3  0  0  0  0  0  0
  -23.6130  -29.8050   20.2300 C   0  0  0  0  0  2  0  0  0  0  0  0
  -24.6610  -31.0880   22.1520 N   0  0  0  0  0  0  0  0  0  0  0  0
  -23.5210  -32.1570   23.7950 O   0  0  0  0  0  0  0  0  0  0  0  0
  -22.7500  -29.4620   22.5700 C   0  0  0  0  0  0  0  0  0  0  0  0
  -21.4250  -29.2810   22.4440 N   0  0  0  0  0  0  0  0  0  0  0  0
  -23.4330  -28.8350   23.3830 O   0  0  0  0  0  0  0  0  0  0  0  0
  -20.9340  -29.8390   21.7590 H   0  0  0  0  0  0  0  0  0  0  0  0
  -18.0480  -28.0940   22.9460 C   0  0  0  0  0  0  0  0  0  0  0  0
  -20.6080  -28.3420   23.2120 C   0  0  0  0  0  3  0  0  0  0  0  0
  -20.7040  -26.9130   22.6290 C   0  0  0  0  0  2  0  0  0  0  0  0
  -19.5980  -26.5980   21.6170 C   0  0  0  0  0  2  0  0  0  0  0  0
  -18.2190  -26.7450   22.2650 C   0  0  0  0  0  2  0  0  0  0  0  0
  -19.1710  -28.8500   23.3770 C   0  0  0  0  0  0  0  0  0  0  0  0
  -18.9580  -30.1110   23.9730 C   0  0  0  0  0  3  0  0  0  0  0  0
  -17.6550  -30.6170   24.1430 C   0  0  0  0  0  3  0  0  0  0  0  0
  -16.5470  -29.8580   23.7300 C   0  0  0  0  0  3  0  0  0  0  0  0
  -16.7450  -28.5970   23.1380 C   0  0  0  0  0  3  0  0  0  0  0  0
  -25.8880  -32.5190   23.8760 C   0  0  0  0  0  3  0  0  0  0  0  0
  -25.5820  -33.9190   24.1980 N   0  0  0  0  0  0  0  0  0  0  0  0
  -25.9200  -34.9670   23.4350 C   0  0  0  0  0  0  0  0  0  0  0  0
  -26.5950  -34.8560   22.4080 O   0  0  0  0  0  0  0  0  0  0  0  0
  -24.9840  -34.0790   24.9950 H   0  0  0  0  0  0  0  0  0  0  0  0
  -24.1980  -36.7610   23.0600 C   0  0  0  0  0  1  0  0  0  0  0  0
  -25.4320  -36.3580   23.8820 C   0  0  0  0  0  3  0  0  0  0  0  0
  -27.5650  -37.2390   24.7230 C   0  0  0  0  0  1  0  0  0  0  0  0
  -26.4680  -37.4080   23.7730 N   0  0  0  0  0  0  0  0  0  0  0  0
  -26.0630  -38.3290   23.9180 H   0  0  0  0  0  0  0  0  0  0  0  0
  -26.4030  -31.7510   25.1540 C   0  0  1  0  0  0  0  0  0  0  0  0
  -25.3110  -31.5170   26.2230 C   0  0  0  0  0  1  0  0  0  0  0  0
  -26.9860  -30.3720   24.7650 C   0  0  0  0  0  1  0  0  0  0  0  0
  -27.5550  -32.5450   25.8150 C   0  0  0  0  0  1  0  0  0  0  0  0
  -29.0300  -20.9170   19.9790 O   0  0  0  0  0  0  0  0  0  0  0  0
  -28.8060  -17.2360   19.9120 C   0  0  0  0  0  3  0  0  0  0  0  0
  -30.6640  -17.8150   21.3650 C   0  0  0  0  0  3  0  0  0  0  0  0
  -28.5840  -18.6040   19.6560 C   0  0  0  0  0  3  0  0  0  0  0  0
  -30.4340  -19.1910   21.1090 C   0  0  0  0  0  3  0  0  0  0  0  0
  -29.8440  -16.8240   20.7750 C   0  0  0  0  0  0  0  0  0  0  0  0
  -29.3730  -19.6040   20.2610 C   0  0  0  0  0  0  0  0  0  0  0  0
  -30.6440  -14.5020   20.4870 C   0  0  0  0  0  0  0  0  0  0  0  0
  -30.3760  -12.3470   19.3070 C   0  0  0  0  0  2  0  0  0  0  0  0
  -29.4250  -12.5620   18.1100 C   0  0  0  0  0  2  0  0  0  0  0  0
  -27.9510  -12.4190   18.5390 C   0  0  0  0  0  2  0  0  0  0  0  0
  -27.6180  -13.2380   19.8150 C   0  0  0  0  0  3  0  0  0  0  0  0
  -28.6750  -12.9850   20.9140 C   0  0  0  0  0  2  0  0  0  0  0  0
  -30.0010  -13.3070   20.3570 N   0  0  0  0  0  0  0  0  0  0  0  0
  -31.7510  -14.7300   19.9870 O   0  0  0  0  0  0  0  0  0  0  0  0
  -29.9400  -15.4470   21.1360 N   0  0  0  0  0  0  0  0  0  0  0  0
  -29.0990  -15.0650   21.5410 H   0  0  0  0  0  0  0  0  0  0  0  0
  -25.2150  -13.8540   20.5080 C   0  0  0  0  0  0  0  0  0  0  0  0
  -24.1460  -13.0850   20.8810 C   0  0  0  0  0  0  0  0  0  0  0  0
  -24.6070  -11.7330   20.8590 C   0  0  0  0  0  0  0  0  0  0  0  0
  -26.2620  -12.9700   20.2890 N   0  0  0  0  0  0  0  0  0  0  0  0
  -25.8970  -11.6900   20.5550 N   0  0  0  0  0  0  0  0  0  0  0  0
  -23.8800  -10.4720   21.0550 C   0  0  0  0  0  0  0  0  0  0  0  0
  -24.3150   -9.5080   21.9910 C   0  0  0  0  0  3  0  0  0  0  0  0
  -23.5900   -8.3120   22.1750 C   0  0  0  0  0  3  0  0  0  0  0  0
  -22.4170   -8.0700   21.4220 C   0  0  0  0  0  0  0  0  0  0  0  0
  -22.0000   -9.0230   20.4760 C   0  0  0  0  0  3  0  0  0  0  0  0
  -22.7250  -10.2120   20.2900 C   0  0  0  0  0  3  0  0  0  0  0  0
  -21.6630   -6.9250   21.5150 O   0  0  0  0  0  0  0  0  0  0  0  0
  -21.6230   -6.1820   22.6680 C   0  0  0  0  0  0  0  0  0  0  0  0
  -21.2060   -6.7360   23.8980 C   0  0  0  0  0  3  0  0  0  0  0  0
  -21.1130   -5.9190   25.0420 C   0  0  0  0  0  3  0  0  0  0  0  0
  -21.4270   -4.5480   24.9580 C   0  0  0  0  0  0  0  0  0  0  0  0
  -21.8360   -3.9950   23.7320 C   0  0  0  0  0  3  0  0  0  0  0  0
  -21.9310   -4.8090   22.5890 C   0  0  0  0  0  0  0  0  0  0  0  0
  -22.3070   -4.2660   21.4070 F   0  0  0  0  0  0  0  0  0  0  0  0
  -21.3300   -3.7620   26.0540 F   0  0  0  0  0  0  0  0  0  0  0  0
  -22.7480  -13.5650   21.1490 C   0  0  0  0  0  0  0  0  0  0  0  0
  -22.0180  -12.8730   22.0170 N   0  0  0  0  0  0  0  0  0  0  0  0
  -22.3110  -14.5880   20.6230 O   0  0  0  0  0  0  0  0  0  0  0  0
  -22.3840  -12.0450   22.4640 H   0  0  0  0  0  0  0  0  0  0  0  0
  -21.0810  -13.1780   22.2390 H   0  0  0  0  0  0  0  0  0  0  0  0
  -25.3780  -15.2240   20.3220 N   0  0  0  0  0  0  0  0  0  0  0  0
  -24.6070  -15.8740   20.4240 H   0  0  0  0  0  0  0  0  0  0  0  0
  -26.2270  -15.6660   19.9960 H   0  0  0  0  0  0  0  0  0  0  0  0
  2  1  1  0
  2  3  1  0
  3  4  1  0
  5  4  1  0
  6 17  2  0
  7  5  1  0
  7 12  1  0
  8 16  1  0
  8 18  1  0
  9 15  1  0
  9 11  1  0
 10 16  1  0
 11 10  1  0
 12 11  2  0
 13 14  1  0
 13  7  2  0
 14  9  2  0
 15  8  1  0
 16  6  1  0
 18 20  2  0
 19 18  1  0
 21 19  1  0
 22 31  2  0
 22 27  1  0
 23 19  1  0
 23 27  1  0
 24 23  1  0
 25 26  1  0
 25 24  1  0
 26 22  1  0
 27 28  2  0
 28 29  1  0
 30 29  2  0
 31 30  1  0
 32  6  1  0
 32 33  1  0
 32 42  1  0
 33 36  1  0
 34 38  1  0
 34 33  1  0
 35 34  2  0
 38 37  1  0
 40 38  1  0
 40 41  1  0
 40 39  1  0
 42 45  1  1
 42 43  1  0
 44 42  1  0
 46 52  1  0
 46  1  1  0
 47 51  1  0
 49 47  2  0
 49 52  1  0
 50 48  1  0
 51 61  1  0
 51 48  2  0
 52 50  2  0
 53 61  1  0
 54 59  1  0
 55 56  1  0
 55 54  1  0
 57 56  1  0
 57 66  1  0
 57 58  1  0
 59 53  1  0
 59 58  1  0
 60 53  2  0
 61 62  1  0
 63 64  2  0
 64 83  1  0
 65 64  1  0
 65 68  1  0
 66 63  1  0
 66 67  1  0
 67 65  2  0
 68 69  1  0
 69 70  2  0
 71 74  1  0
 71 70  1  0
 72 71  2  0
 73 72  1  0
 73 68  2  0
 74 75  1  0
 75 76  1  0
 76 77  2  0
 78 77  1  0
 78 82  1  0
 79 78  2  0
 80 75  2  0
 80 79  1  0
 81 80  1  0
 83 84  1  0
 84 87  1  0
 84 86  1  0
 85 83  2  0
 88 89  1  0
 88 63  1  0
 90 88  1  0
M  ISO  4   4 101   5 101  53 100  61 100
M  END
>  <TORSDO>  (83) 
F 21

>  <SCORE>  (83) 
-13.693

>  <name>  (83) 
84

>  <ligand_id>  (83) 
84

>  <original_smiles>  (83) 
[H]c1c([H])c([H])c2c(c1[H])C([H])([H])C([H])([H])C([H])([H])C2([H])N([H])C(=O)C1([H])N(C(=O)C([H])(N([H])C(=O)C([H])(N([H])C([H])([H])[H])C([H])([H])[H])C(C([H])([H])[H])(C([H])([H])[H])C([H])([H])[H])C([H])([H])c2c([H])c(OC([H])([H])C([H])([H])C([H])([H])C([H])([H])Oc3c([H])c([H])c(N([H])C(=O)N4C([H])([H])C([H])([H])C([H])([H])C([H])(n5nc(-c6c([H])c([H])c(Oc7c([H])c([H])c(F)c([H])c7F)c([H])c6[H])c(C(=O)N([H])[H])c5N([H])[H])C4([H])[H])c([H])c3[H])c([H])c([H])c2C1([H])[H]

>  <smiles>  (83) 
[H]c1c([H])c([H])c2c(c1[H])C([H])([H])C([H])([H])C([H])([H])C2([H])N([H])C(=O)C1([H])N(C(=O)C([H])(N([H])C(=O)C([H])(N([H])C([H])([H])[H])C([H])([H])[H])C(C([H])([H])[H])(C([H])([H])[H])C([H])([H])[H])C([H])([H])c2c([H])c(OC([H])([H])C([H])([H])C([H])([H])C([H])([H])Oc3c([H])c([H])c(N([H])C(=O)N4C([H])([H])C([H])([H])C([H])([H])C([H])(n5nc(-c6c([H])c([H])c(Oc7c([H])c([H])c(F)c([H])c7F)c([H])c6[H])c(C(=O)N([H])[H])c5N([H])[H])C4([H])[H])c([H])c3[H])c([H])c([H])c2C1([H])[H]

$$$$
85:0:0
     RDKit          3D

 91 99  0  0  1  0  0  0  0  0999 V2000
  -28.9200  -23.4070   20.2880 C   0  0  0  0  0  0  0  0  0  0  0  0
  -28.4800  -22.0730   20.1000 N   0  0  0  0  0  0  0  0  0  0  0  0
  -30.0660  -23.6340   20.6870 O   0  0  0  0  0  0  0  0  0  0  0  0
  -27.5130  -22.1050   19.8010 H   0  0  0  0  0  0  0  0  0  0  0  0
  -30.2820  -20.0580   20.4200 C   0  0  0  0  0  3  0  0  0  0  0  0
  -30.5710  -18.6180   20.4870 C   0  0  0  0  0  3  0  0  0  0  0  0
  -27.9980  -19.5700   20.1140 C   0  0  0  0  0  3  0  0  0  0  0  0
  -28.9640  -20.6200   20.2310 C   0  0  0  0  0  0  0  0  0  0  0  0
  -29.5680  -17.5840   20.3820 C   0  0  0  0  0  0  0  0  0  0  0  0
  -28.2750  -18.1570   20.1900 C   0  0  0  0  0  0  0  0  0  0  0  0
  -27.2350  -17.2980   20.0710 F   0  0  0  0  0  0  0  0  0  0  0  0
  -30.5100  -14.9630   20.3310 C   0  0  0  0  0  0  0  0  0  0  0  0
  -30.4250  -12.6170   19.3750 C   0  0  0  0  0  2  0  0  0  0  0  0
  -29.4820  -12.5960   18.1490 C   0  0  0  0  0  2  0  0  0  0  0  0
  -28.0160  -12.3860   18.5800 C   0  0  0  0  0  2  0  0  0  0  0  0
  -27.6140  -13.2920   19.7720 C   0  0  0  0  0  3  0  0  0  0  0  0
  -28.6750  -13.2690   20.8940 C   0  0  0  0  0  2  0  0  0  0  0  0
  -29.9520  -13.6870   20.2940 N   0  0  0  0  0  0  0  0  0  0  0  0
  -31.7030  -15.0880   20.0360 O   0  0  0  0  0  0  0  0  0  0  0  0
  -29.6350  -16.0570   20.5100 N   0  0  0  0  0  0  0  0  0  0  0  0
  -28.7070  -15.6950   20.6650 H   0  0  0  0  0  0  0  0  0  0  0  0
  -25.2220  -13.8590   20.5000 C   0  0  0  0  0  0  0  0  0  0  0  0
  -24.1620  -13.0780   20.8700 C   0  0  0  0  0  0  0  0  0  0  0  0
  -24.6370  -11.7310   20.8440 C   0  0  0  0  0  0  0  0  0  0  0  0
  -26.2750  -12.9890   20.2680 N   0  0  0  0  0  0  0  0  0  0  0  0
  -25.9300  -11.7020   20.5400 N   0  0  0  0  0  0  0  0  0  0  0  0
  -23.9190  -10.4650   21.0370 C   0  0  0  0  0  0  0  0  0  0  0  0
  -24.3550   -9.5000   21.9720 C   0  0  0  0  0  3  0  0  0  0  0  0
  -23.6330   -8.3010   22.1520 C   0  0  0  0  0  3  0  0  0  0  0  0
  -22.4600   -8.0580   21.3990 C   0  0  0  0  0  0  0  0  0  0  0  0
  -22.0410   -9.0120   20.4550 C   0  0  0  0  0  3  0  0  0  0  0  0
  -22.7640  -10.2020   20.2720 C   0  0  0  0  0  3  0  0  0  0  0  0
  -21.7110   -6.9100   21.4890 O   0  0  0  0  0  0  0  0  0  0  0  0
  -21.6710   -6.1640   22.6410 C   0  0  0  0  0  0  0  0  0  0  0  0
  -21.2450   -6.7130   23.8690 C   0  0  0  0  0  3  0  0  0  0  0  0
  -21.1540   -5.8950   25.0120 C   0  0  0  0  0  3  0  0  0  0  0  0
  -21.4780   -4.5270   24.9270 C   0  0  0  0  0  0  0  0  0  0  0  0
  -21.8960   -3.9770   23.7040 C   0  0  0  0  0  3  0  0  0  0  0  0
  -21.9900   -4.7940   22.5620 C   0  0  0  0  0  0  0  0  0  0  0  0
  -22.3740   -4.2540   21.3800 F   0  0  0  0  0  0  0  0  0  0  0  0
  -21.3820   -3.7390   26.0230 F   0  0  0  0  0  0  0  0  0  0  0  0
  -22.7610  -13.5480   21.1340 C   0  0  0  0  0  0  0  0  0  0  0  0
  -22.0370  -12.8550   22.0060 N   0  0  0  0  0  0  0  0  0  0  0  0
  -22.3180  -14.5670   20.6060 O   0  0  0  0  0  0  0  0  0  0  0  0
  -22.4090  -12.0330   22.4580 H   0  0  0  0  0  0  0  0  0  0  0  0
  -21.0980  -13.1540   22.2280 H   0  0  0  0  0  0  0  0  0  0  0  0
  -25.3610  -15.2300   20.3230 N   0  0  0  0  0  0  0  0  0  0  0  0
  -24.5760  -15.8570   20.4490 H   0  0  0  0  0  0  0  0  0  0  0  0
  -26.2010  -15.7250   20.0400 H   0  0  0  0  0  0  0  0  0  0  0  0
  -27.9180  -24.6900   19.9720 C   0  0  0  0  0  2  0  0  0  0  0  0
  -28.2470  -26.1880   20.2400 O   0  0  0  0  0  0  0  0  0  0  0  0
  -24.6450  -31.8880   23.2390 C   0  0  0  0  0  0  0  0  0  0  0  0
  -27.1970  -27.1790   20.1790 C   0  0  0  0  0  0  0  0  0  0  0  0
  -23.4310  -30.4950   21.6090 C   0  0  0  0  0  3  0  0  0  0  0  0
  -24.8660  -28.9240   20.1720 C   0  0  0  0  0  0  0  0  0  0  0  0
  -25.9850  -30.7580   21.4260 C   0  0  0  0  0  2  0  0  0  0  0  0
  -26.0520  -29.3670   20.7720 C   0  0  0  0  0  0  0  0  0  0  0  0
  -27.2170  -28.5100   20.7610 C   0  0  0  0  0  3  0  0  0  0  0  0
  -25.9820  -26.8410   19.5390 C   0  0  0  0  0  3  0  0  0  0  0  0
  -24.8440  -27.6730   19.5410 C   0  0  0  0  0  3  0  0  0  0  0  0
  -23.6400  -29.8210   20.2290 C   0  0  0  0  0  2  0  0  0  0  0  0
  -24.7070  -31.0690   22.1470 N   0  0  0  0  0  0  0  0  0  0  0  0
  -23.5630  -32.1750   23.7740 O   0  0  0  0  0  0  0  0  0  0  0  0
  -22.7580  -29.4880   22.5750 C   0  0  0  0  0  0  0  0  0  0  0  0
  -21.4290  -29.3160   22.4540 N   0  0  0  0  0  0  0  0  0  0  0  0
  -23.4330  -28.8630   23.3970 O   0  0  0  0  0  0  0  0  0  0  0  0
  -20.9400  -29.8710   21.7670 H   0  0  0  0  0  0  0  0  0  0  0  0
  -18.0510  -28.1080   22.9660 C   0  0  0  0  0  0  0  0  0  0  0  0
  -20.6090  -28.3810   23.2310 C   0  0  0  0  0  3  0  0  0  0  0  0
  -20.7160  -26.9450   22.6660 C   0  0  0  0  0  2  0  0  0  0  0  0
  -19.6140  -26.6120   21.6540 C   0  0  0  0  0  2  0  0  0  0  0  0
  -18.2330  -26.7560   22.2980 C   0  0  0  0  0  2  0  0  0  0  0  0
  -19.1680  -28.8790   23.3910 C   0  0  0  0  0  0  0  0  0  0  0  0
  -18.9420  -30.1420   23.9770 C   0  0  0  0  0  3  0  0  0  0  0  0
  -17.6350  -30.6370   24.1430 C   0  0  0  0  0  3  0  0  0  0  0  0
  -16.5340  -29.8650   23.7330 C   0  0  0  0  0  3  0  0  0  0  0  0
  -16.7440  -28.6030   23.1500 C   0  0  0  0  0  3  0  0  0  0  0  0
  -25.9280  -32.5210   23.8570 C   0  0  0  0  0  3  0  0  0  0  0  0
  -25.6200  -33.9190   24.1960 N   0  0  0  0  0  0  0  0  0  0  0  0
  -25.9220  -34.9760   23.4320 C   0  0  0  0  0  0  0  0  0  0  0  0
  -26.5590  -34.8760   22.3780 O   0  0  0  0  0  0  0  0  0  0  0  0
  -25.0490  -34.0690   25.0160 H   0  0  0  0  0  0  0  0  0  0  0  0
  -24.1640  -36.7560   23.1570 C   0  0  0  0  0  1  0  0  0  0  0  0
  -25.4470  -36.3620   23.9080 C   0  0  0  0  0  3  0  0  0  0  0  0
  -27.6110  -37.2720   24.6310 C   0  0  0  0  0  1  0  0  0  0  0  0
  -26.4650  -37.4240   23.7400 N   0  0  0  0  0  0  0  0  0  0  0  0
  -26.0570  -38.3420   23.8980 H   0  0  0  0  0  0  0  0  0  0  0  0
  -26.4490  -31.7490   25.1330 C   0  0  1  0  0  0  0  0  0  0  0  0
  -25.3590  -31.5150   26.2060 C   0  0  0  0  0  1  0  0  0  0  0  0
  -27.0240  -30.3670   24.7420 C   0  0  0  0  0  1  0  0  0  0  0  0
  -27.6050  -32.5390   25.7870 C   0  0  0  0  0  1  0  0  0  0  0  0
  1  3  2  0
  2  8  1  0
  2  1  1  0
  4  2  1  0
  5  6  1  0
  7 10  2  0
  7  8  1  0
  8  5  2  0
  9  6  2  0
  9 20  1  0
 10  9  1  0
 11 10  1  0
 12 20  1  0
 13 18  1  0
 14 15  1  0
 14 13  1  0
 16 15  1  0
 16 25  1  0
 16 17  1  0
 18 12  1  0
 18 17  1  0
 19 12  2  0
 20 21  1  0
 22 23  2  0
 23 42  1  0
 24 23  1  0
 24 27  1  0
 25 22  1  0
 25 26  1  0
 26 24  2  0
 27 28  1  0
 28 29  2  0
 30 33  1  0
 30 29  1  0
 31 30  2  0
 32 31  1  0
 32 27  2  0
 33 34  1  0
 34 35  1  0
 35 36  2  0
 37 36  1  0
 37 41  1  0
 38 37  2  0
 39 34  2  0
 39 38  1  0
 40 39  1  0
 42 43  1  0
 43 46  1  0
 43 45  1  0
 44 42  2  0
 47 48  1  0
 47 22  1  0
 49 47  1  0
 50 51  1  0
 50  1  1  0
 52 63  2  0
 53 51  1  0
 53 58  1  0
 54 62  1  0
 54 64  1  0
 55 61  1  0
 55 57  1  0
 56 62  1  0
 57 56  1  0
 58 57  2  0
 59 60  1  0
 59 53  2  0
 60 55  2  0
 61 54  1  0
 62 52  1  0
 64 66  2  0
 65 64  1  0
 67 65  1  0
 68 77  2  0
 68 73  1  0
 69 65  1  0
 69 73  1  0
 70 69  1  0
 71 72  1  0
 71 70  1  0
 72 68  1  0
 73 74  2  0
 74 75  1  0
 76 75  2  0
 77 76  1  0
 78 52  1  0
 78 79  1  0
 78 88  1  0
 79 82  1  0
 80 84  1  0
 80 79  1  0
 81 80  2  0
 84 83  1  0
 86 87  1  0
 86 84  1  0
 86 85  1  0
 88 91  1  1
 88 89  1  0
 90 88  1  0
M  ISO  4  12 100  20 100  50 101  51 101
M  END
>  <TORSDO>  (84) 
F 18

>  <SCORE>  (84) 
-14.879

>  <name>  (84) 
85

>  <ligand_id>  (84) 
85

>  <original_smiles>  (84) 
[H]c1c([H])c([H])c2c(c1[H])C([H])([H])C([H])([H])C([H])([H])C2([H])N([H])C(=O)C1([H])N(C(=O)C([H])(N([H])C(=O)C([H])(N([H])C([H])([H])[H])C([H])([H])[H])C(C([H])([H])[H])(C([H])([H])[H])C([H])([H])[H])C([H])([H])c2c([H])c(OC([H])([H])C(=O)N([H])c3c([H])c([H])c(N([H])C(=O)N4C([H])([H])C([H])([H])C([H])([H])C([H])(n5nc(-c6c([H])c([H])c(Oc7c([H])c([H])c(F)c([H])c7F)c([H])c6[H])c(C(=O)N([H])[H])c5N([H])[H])C4([H])[H])c(F)c3[H])c([H])c([H])c2C1([H])[H]

>  <smiles>  (84) 
[H]c1c([H])c([H])c2c(c1[H])C([H])([H])C([H])([H])C([H])([H])C2([H])N([H])C(=O)C1([H])N(C(=O)C([H])(N([H])C(=O)C([H])(N([H])C([H])([H])[H])C([H])([H])[H])C(C([H])([H])[H])(C([H])([H])[H])C([H])([H])[H])C([H])([H])c2c([H])c(OC([H])([H])C(=O)N([H])c3c([H])c([H])c(N([H])C(=O)N4C([H])([H])C([H])([H])C([H])([H])C([H])(n5nc(-c6c([H])c([H])c(Oc7c([H])c([H])c(F)c([H])c7F)c([H])c6[H])c(C(=O)N([H])[H])c5N([H])[H])C4([H])[H])c(F)c3[H])c([H])c([H])c2C1([H])[H]

$$$$
86:0:0
     RDKit          3D

108116  0  0  1  0  0  0  0  0999 V2000
  -32.4580  -14.7900   22.6490 C   0  0  0  0  0  0  0  0  0  0  0  0
  -31.3470  -16.6060   21.3070 C   0  0  0  0  0  0  0  0  0  0  0  0
  -32.1740  -15.4640   21.5170 N   0  0  0  0  0  0  0  0  0  0  0  0
  -31.9070  -15.0550   23.8380 N   0  0  0  0  0  4  0  0  0  0  0  0
  -30.7320  -17.1660   22.2190 O   0  0  0  0  0  0  0  0  0  0  0  0
  -32.6990  -15.0730   20.7540 H   0  0  0  0  0  0  0  0  0  0  0  0
  -32.1390  -14.4940   24.6460 H   0  0  0  0  0  0  0  0  0  0  0  0
  -31.2330  -15.8020   23.9280 H   0  0  0  0  0  0  0  0  0  0  0  0
  -33.1820  -12.4170   22.5330 C   0  0  0  0  0  3  0  0  0  0  0  0
  -34.8160  -14.1900   22.1450 C   0  0  0  0  0  3  0  0  0  0  0  0
  -34.0790  -11.4670   22.0120 C   0  0  0  0  0  3  0  0  0  0  0  0
  -35.7110  -13.2320   21.6210 C   0  0  0  0  0  3  0  0  0  0  0  0
  -33.5120  -13.7880   22.5110 C   0  0  0  0  0  0  0  0  0  0  0  0
  -35.3060  -11.8890   21.4580 C   0  0  0  0  0  0  0  0  0  0  0  0
  -36.4780   -9.7530   21.1880 C   0  0  0  0  0  1  0  0  0  0  0  0
  -36.0540  -11.0380   20.6300 N   0  0  0  0  0  0  0  0  0  0  0  0
  -35.7750  -11.0620   19.1830 C   0  0  0  0  0  2  0  0  0  0  0  0
  -35.2290  -12.3780   18.5570 C   0  0  0  0  0  2  0  0  0  0  0  0
  -32.9520  -13.2710   18.1540 C   0  0  0  0  0  0  0  0  0  0  0  0
  -31.3970  -11.7960   17.0610 C   0  0  0  0  0  2  0  0  0  0  0  0
  -30.2300  -12.4190   16.2970 C   0  0  0  0  0  2  0  0  0  0  0  0
  -29.0350  -12.6050   17.2340 C   0  0  0  0  0  2  0  0  0  0  0  0
  -29.4140  -13.3970   18.5090 C   0  0  0  0  0  3  0  0  0  0  0  0
  -30.6920  -12.8270   19.1960 C   0  0  0  0  0  2  0  0  0  0  0  0
  -31.7660  -12.6420   18.2000 N   0  0  0  0  0  0  0  0  0  0  0  0
  -33.3720  -13.8920   17.1740 O   0  0  0  0  0  0  0  0  0  0  0  0
  -33.8370  -12.6540   18.9530 N   0  0  0  0  0  0  0  0  0  0  0  0
  -33.4440  -12.0570   19.6680 H   0  0  0  0  0  0  0  0  0  0  0  0
  -27.7750  -14.5570   20.1360 C   0  0  0  0  0  0  0  0  0  0  0  0
  -26.6370  -14.1150   20.7580 C   0  0  0  0  0  0  0  0  0  0  0  0
  -26.4630  -12.7560   20.3530 C   0  0  0  0  0  0  0  0  0  0  0  0
  -28.2600  -13.4730   19.4180 N   0  0  0  0  0  0  0  0  0  0  0  0
  -27.4840  -12.3710   19.5960 N   0  0  0  0  0  0  0  0  0  0  0  0
  -25.3690  -11.8120   20.6220 C   0  0  0  0  0  0  0  0  0  0  0  0
  -25.6250  -10.4800   21.0140 C   0  0  0  0  0  3  0  0  0  0  0  0
  -24.5580   -9.5980   21.2860 C   0  0  0  0  0  3  0  0  0  0  0  0
  -23.2210  -10.0390   21.1700 C   0  0  0  0  0  0  0  0  0  0  0  0
  -22.9730  -11.3590   20.7570 C   0  0  0  0  0  3  0  0  0  0  0  0
  -24.0340  -12.2360   20.4820 C   0  0  0  0  0  3  0  0  0  0  0  0
  -22.1210   -9.2440   21.3840 O   0  0  0  0  0  0  0  0  0  0  0  0
  -22.1890   -8.1090   22.1520 C   0  0  0  0  0  0  0  0  0  0  0  0
  -22.5760   -8.1580   23.5100 C   0  0  0  0  0  3  0  0  0  0  0  0
  -22.5650   -6.9830   24.2880 C   0  0  0  0  0  3  0  0  0  0  0  0
  -22.1670   -5.7610   23.7120 C   0  0  0  0  0  0  0  0  0  0  0  0
  -21.7810   -5.7120   22.3600 C   0  0  0  0  0  3  0  0  0  0  0  0
  -21.7860   -6.8830   21.5850 C   0  0  0  0  0  0  0  0  0  0  0  0
  -21.3920   -6.8350   20.2890 F   0  0  0  0  0  0  0  0  0  0  0  0
  -22.1530   -4.6350   24.4610 F   0  0  0  0  0  0  0  0  0  0  0  0
  -25.7020  -14.9300   21.6050 C   0  0  0  0  0  0  0  0  0  0  0  0
  -25.1040  -14.3100   22.6150 N   0  0  0  0  0  0  0  0  0  0  0  0
  -25.5350  -16.1330   21.4030 O   0  0  0  0  0  0  0  0  0  0  0  0
  -25.2640  -13.3280   22.7920 H   0  0  0  0  0  0  0  0  0  0  0  0
  -24.4750  -14.8200   23.2190 H   0  0  0  0  0  0  0  0  0  0  0  0
  -28.4300  -15.7840   20.1020 N   0  0  0  0  0  0  0  0  0  0  0  0
  -28.0850  -16.6060   20.5870 H   0  0  0  0  0  0  0  0  0  0  0  0
  -29.2550  -15.9790   19.5490 H   0  0  0  0  0  0  0  0  0  0  0  0
  -31.3670  -17.1140   19.8570 C   0  0  0  0  0  2  0  0  0  0  0  0
  -30.7490  -19.0020   18.2620 C   0  0  0  0  0  1  0  0  0  0  0  0
  -31.2220  -18.6480   19.6890 C   0  0  0  0  0  3  0  0  0  0  0  0
  -32.4820  -19.3680   19.9980 N   0  0  0  0  0  4  0  0  0  0  0  0
  -32.8390  -19.0660   20.8900 H   0  0  0  0  0  0  0  0  0  0  0  0
  -33.1730  -19.1400   19.3020 H   0  0  0  0  0  0  0  0  0  0  0  0
  -32.3380  -20.8330   20.0900 C   0  0  0  0  0  2  0  0  0  0  0  0
  -33.3540  -21.5530   19.1920 C   0  0  0  0  0  2  0  0  0  0  0  0
  -33.1990  -23.0800   19.2260 C   0  0  0  0  0  2  0  0  0  0  0  0
  -33.2660  -23.6800   17.8160 C   0  0  0  0  0  2  0  0  0  0  0  0
  -33.1140  -25.2020   17.7880 C   0  0  0  0  0  2  0  0  0  0  0  0
  -32.3680  -25.5430   16.6230 O   0  0  0  0  0  0  0  0  0  0  0  0
  -27.1890  -26.4600   21.3720 C   0  0  0  0  0  0  0  0  0  0  0  0
  -31.0190  -25.5890   16.8510 C   0  0  0  0  0  0  0  0  0  0  0  0
  -26.4900  -25.5490   19.1760 C   0  0  0  0  0  3  0  0  0  0  0  0
  -28.2480  -25.6380   17.3330 C   0  0  0  0  0  0  0  0  0  0  0  0
  -28.5350  -27.0650   19.3680 C   0  0  0  0  0  2  0  0  0  0  0  0
  -29.1210  -26.3170   18.1920 C   0  0  0  0  0  0  0  0  0  0  0  0
  -30.5110  -26.2950   17.9580 C   0  0  0  0  0  3  0  0  0  0  0  0
  -30.1390  -24.9140   15.9830 C   0  0  0  0  0  3  0  0  0  0  0  0
  -28.7520  -24.9300   16.2250 C   0  0  0  0  0  3  0  0  0  0  0  0
  -26.7750  -25.7200   17.6590 C   0  0  0  0  0  2  0  0  0  0  0  0
  -27.4230  -26.3490   20.0340 N   0  0  0  0  0  0  0  0  0  0  0  0
  -26.1910  -25.9420   21.8910 O   0  0  0  0  0  0  0  0  0  0  0  0
  -26.4960  -24.0400   19.5130 C   0  0  0  0  0  0  0  0  0  0  0  0
  -25.8490  -23.2340   18.6560 N   0  0  0  0  0  0  0  0  0  0  0  0
  -27.0940  -23.6160   20.5060 O   0  0  0  0  0  0  0  0  0  0  0  0
  -25.3790  -23.6620   17.8700 H   0  0  0  0  0  0  0  0  0  0  0  0
  -25.3830  -20.2230   16.7190 C   0  0  0  0  0  0  0  0  0  0  0  0
  -25.7560  -21.7770   18.7490 C   0  0  0  0  0  3  0  0  0  0  0  0
  -27.1590  -21.1350   18.8530 C   0  0  0  0  0  2  0  0  0  0  0  0
  -27.7360  -20.7270   17.4940 C   0  0  0  0  0  2  0  0  0  0  0  0
  -26.8130  -19.7210   16.8010 C   0  0  0  0  0  2  0  0  0  0  0  0
  -24.8890  -21.1980   17.6250 C   0  0  0  0  0  0  0  0  0  0  0  0
  -23.5610  -21.6530   17.4870 C   0  0  0  0  0  3  0  0  0  0  0  0
  -22.7290  -21.1500   16.4660 C   0  0  0  0  0  3  0  0  0  0  0  0
  -23.2190  -20.1740   15.5810 C   0  0  0  0  0  3  0  0  0  0  0  0
  -24.5400  -19.7090   15.7100 C   0  0  0  0  0  3  0  0  0  0  0  0
  -28.1490  -27.2570   22.3100 C   0  0  0  0  0  3  0  0  0  0  0  0
  -27.3730  -28.3470   22.9130 N   0  0  0  0  0  0  0  0  0  0  0  0
  -27.5370  -29.6440   22.6260 C   0  0  0  0  0  0  0  0  0  0  0  0
  -28.4190  -30.0570   21.8670 O   0  0  0  0  0  0  0  0  0  0  0  0
  -26.6000  -28.0780   23.5030 H   0  0  0  0  0  0  0  0  0  0  0  0
  -25.5510  -31.1380   22.2450 C   0  0  0  0  0  1  0  0  0  0  0  0
  -26.5680  -30.6440   23.2850 C   0  0  0  0  0  3  0  0  0  0  0  0
  -28.0200  -31.4510   25.0930 C   0  0  0  0  0  1  0  0  0  0  0  0
  -27.2500  -31.8020   23.9030 N   0  0  0  0  0  0  0  0  0  0  0  0
  -26.5790  -32.5210   24.1600 H   0  0  0  0  0  0  0  0  0  0  0  0
  -28.8190  -26.3600   23.4220 C   0  0  1  0  0  0  0  0  0  0  0  0
  -27.8060  -25.5370   24.2510 C   0  0  0  0  0  1  0  0  0  0  0  0
  -29.8280  -25.3730   22.7920 C   0  0  0  0  0  1  0  0  0  0  0  0
  -29.6220  -27.2530   24.4000 C   0  0  0  0  0  1  0  0  0  0  0  0
  1  4  2  0
  2  3  1  0
  2  5  2  0
  3  1  1  0
  4  8  1  0
  4  7  1  0
  6  3  1  0
 10 13  2  0
 11  9  2  0
 12 10  1  0
 13  9  1  0
 13  1  1  0
 14 12  2  0
 14 11  1  0
 16 15  1  0
 16 14  1  0
 17 16  1  0
 18 27  1  0
 18 17  1  0
 19 25  1  0
 19 27  1  0
 20 25  1  0
 21 20  1  0
 21 22  1  0
 23 22  1  0
 23 24  1  0
 23 32  1  0
 25 24  1  0
 26 19  2  0
 27 28  1  0
 29 30  2  0
 30 49  1  0
 31 34  1  0
 31 30  1  0
 32 33  1  0
 32 29  1  0
 33 31  2  0
 34 35  1  0
 35 36  2  0
 37 36  1  0
 37 40  1  0
 38 37  2  0
 39 34  2  0
 39 38  1  0
 40 41  1  0
 41 42  1  0
 42 43  2  0
 44 43  1  0
 44 48  1  0
 45 44  2  0
 46 41  2  0
 46 45  1  0
 47 46  1  0
 49 50  1  0
 50 52  1  0
 50 53  1  0
 51 49  2  0
 54 29  1  0
 54 55  1  0
 56 54  1  0
 57  2  1  0
 59 58  1  0
 59 57  1  0
 59 60  1  0
 60 63  1  0
 60 61  1  0
 62 60  1  0
 64 65  1  0
 64 63  1  0
 66 65  1  0
 67 66  1  0
 68 70  1  0
 68 67  1  0
 69 80  2  0
 70 75  1  0
 71 81  1  0
 71 79  1  0
 72 78  1  0
 72 74  1  0
 73 79  1  0
 74 73  1  0
 75 74  2  0
 76 77  1  0
 76 70  2  0
 77 72  2  0
 78 71  1  0
 79 69  1  0
 81 83  2  0
 82 81  1  0
 84 82  1  0
 85 89  1  0
 85 90  1  0
 86 82  1  0
 86 87  1  0
 88 87  1  0
 89 88  1  0
 90 86  1  0
 91 90  2  0
 92 91  1  0
 93 94  1  0
 93 92  2  0
 94 85  2  0
 95 69  1  0
 95 96  1  0
 95105  1  0
 96 99  1  0
 97 96  1  0
 97101  1  0
 98 97  2  0
101100  1  0
101103  1  0
103104  1  0
103102  1  0
105106  1  1
105108  1  0
107105  1  0
M  ISO  4  19 100  27 100  67 101  68 101
M  END
>  <TORSDO>  (85) 
F 28

>  <SCORE>  (85) 
11.214

>  <name>  (85) 
86

>  <ligand_id>  (85) 
86

>  <original_smiles>  (85) 
[H]c1c([H])c([H])c2c(c1[H])C([H])([H])C([H])([H])C([H])([H])C2([H])N([H])C(=O)C1([H])N(C(=O)C([H])(N([H])C(=O)C([H])(N([H])C([H])([H])[H])C([H])([H])[H])C(C([H])([H])[H])(C([H])([H])[H])C([H])([H])[H])C([H])([H])c2c([H])c(OC([H])([H])C([H])([H])C([H])([H])C([H])([H])C([H])([H])[N+]([H])([H])C([H])(C([H])([H])[H])C([H])([H])C(=O)N([H])C(c3c([H])c([H])c(N(C([H])([H])[H])C([H])([H])C([H])([H])N([H])C(=O)N4C([H])([H])C([H])([H])C([H])([H])C([H])(n5nc(-c6c([H])c([H])c(Oc7c([H])c([H])c(F)c([H])c7F)c([H])c6[H])c(C(=O)N([H])[H])c5N([H])[H])C4([H])[H])c([H])c3[H])=[N+]([H])[H])c([H])c([H])c2C1([H])[H]

>  <smiles>  (85) 
[H]c1c([H])c([H])c2c(c1[H])C([H])([H])C([H])([H])C([H])([H])C2([H])N([H])C(=O)C1([H])N(C(=O)C([H])(N([H])C(=O)C([H])(N([H])C([H])([H])[H])C([H])([H])[H])C(C([H])([H])[H])(C([H])([H])[H])C([H])([H])[H])C([H])([H])c2c([H])c(OC([H])([H])C([H])([H])C([H])([H])C([H])([H])C([H])([H])[N+]([H])([H])C([H])(C([H])([H])[H])C([H])([H])C(=O)N([H])C(c3c([H])c([H])c(N(C([H])([H])[H])C([H])([H])C([H])([H])N([H])C(=O)N4C([H])([H])C([H])([H])C([H])([H])C([H])(n5nc(-c6c([H])c([H])c(Oc7c([H])c([H])c(F)c([H])c7F)c([H])c6[H])c(C(=O)N([H])[H])c5N([H])[H])C4([H])[H])c([H])c3[H])=[N+]([H])[H])c([H])c([H])c2C1([H])[H]

$$$$
87:0:0
     RDKit          3D

105114  0  0  1  0  0  0  0  0999 V2000
  -31.3410  -22.3000   21.0220 C   0  0  0  0  0  3  0  0  0  0  0  0
  -30.6920  -23.3950   21.6210 C   0  0  0  0  0  3  0  0  0  0  0  0
  -30.9610  -20.9750   23.0300 C   0  0  0  0  0  3  0  0  0  0  0  0
  -31.4370  -21.0710   21.7040 C   0  0  0  0  0  0  0  0  0  0  0  0
  -30.1420  -23.2840   22.9220 C   0  0  0  0  0  0  0  0  0  0  0  0
  -30.3180  -22.0740   23.6310 C   0  0  0  0  0  0  0  0  0  0  0  0
  -29.8390  -21.9570   24.8940 F   0  0  0  0  0  0  0  0  0  0  0  0
  -31.4850  -19.4180   19.9230 C   0  0  0  0  0  0  0  0  0  0  0  0
  -32.0140  -19.9710   21.0230 N   0  0  0  0  0  0  0  0  0  0  0  0
  -32.4170  -18.8560   19.1420 N   0  0  0  0  0  0  0  0  0  0  0  0
  -30.2750  -19.4070   19.6830 O   0  0  0  0  0  0  0  0  0  0  0  0
  -33.0140  -19.8790   21.1180 H   0  0  0  0  0  0  0  0  0  0  0  0
  -33.3440  -18.8320   19.5360 H   0  0  0  0  0  0  0  0  0  0  0  0
  -31.3220  -17.9900   15.6310 C   0  0  0  0  0  3  0  0  0  0  0  0
  -31.2900  -18.1380   17.0340 C   0  0  0  0  0  3  0  0  0  0  0  0
  -33.5430  -18.9760   15.5850 C   0  0  0  0  0  3  0  0  0  0  0  0
  -32.4550  -18.4000   14.9020 C   0  0  0  0  0  0  0  0  0  0  0  0
  -33.5200  -19.1290   16.9870 C   0  0  0  0  0  0  0  0  0  0  0  0
  -32.3860  -18.7110   17.7260 C   0  0  0  0  0  0  0  0  0  0  0  0
  -34.7420  -19.7290   17.6670 C   0  0  0  0  0  1  0  0  0  0  0  0
  -32.5730  -18.1290   13.4100 C   0  0  0  0  0  2  0  0  0  0  0  0
  -32.4450  -19.8160   11.6210 C   0  0  0  0  0  0  0  0  0  0  0  0
  -32.6710  -19.7260    9.1750 C   0  0  0  0  0  2  0  0  0  0  0  0
  -32.4240  -21.0340    8.4120 C   0  0  0  0  0  2  0  0  0  0  0  0
  -30.9270  -21.1940    8.1080 C   0  0  0  0  0  2  0  0  0  0  0  0
  -30.0490  -21.0240    9.3740 C   0  0  0  0  0  3  0  0  0  0  0  0
  -30.4160  -19.7350   10.1450 C   0  0  0  0  0  2  0  0  0  0  0  0
  -31.8650  -19.7240   10.4030 N   0  0  0  0  0  0  0  0  0  0  0  0
  -33.5810  -20.2660   11.8070 O   0  0  0  0  0  0  0  0  0  0  0  0
  -31.8390  -19.0340   12.5260 N   0  0  0  0  0  0  0  0  0  0  0  0
  -30.9130  -18.7280   12.2660 H   0  0  0  0  0  0  0  0  0  0  0  0
  -27.6700  -22.0090    9.3810 C   0  0  0  0  0  0  0  0  0  0  0  0
  -26.5180  -21.6220    8.7510 C   0  0  0  0  0  0  0  0  0  0  0  0
  -26.8420  -20.4310    8.0320 C   0  0  0  0  0  0  0  0  0  0  0  0
  -28.6270  -21.0660    9.0380 N   0  0  0  0  0  0  0  0  0  0  0  0
  -28.1020  -20.0820    8.2620 N   0  0  0  0  0  0  0  0  0  0  0  0
  -26.0440  -19.6330    7.0920 C   0  0  0  0  0  0  0  0  0  0  0  0
  -25.6440  -18.3140    7.3960 C   0  0  0  0  0  3  0  0  0  0  0  0
  -24.8610  -17.5740    6.4840 C   0  0  0  0  0  3  0  0  0  0  0  0
  -24.4660  -18.1540    5.2560 C   0  0  0  0  0  0  0  0  0  0  0  0
  -24.8840  -19.4610    4.9480 C   0  0  0  0  0  3  0  0  0  0  0  0
  -25.6680  -20.1940    5.8550 C   0  0  0  0  0  3  0  0  0  0  0  0
  -23.7260  -17.5020    4.2980 O   0  0  0  0  0  0  0  0  0  0  0  0
  -22.8240  -16.5240    4.6270 C   0  0  0  0  0  0  0  0  0  0  0  0
  -21.5880  -16.8270    5.2380 C   0  0  0  0  0  3  0  0  0  0  0  0
  -20.6590  -15.7980    5.4960 C   0  0  0  0  0  3  0  0  0  0  0  0
  -20.9600  -14.4720    5.1360 C   0  0  0  0  0  0  0  0  0  0  0  0
  -22.1880  -14.1690    4.5230 C   0  0  0  0  0  3  0  0  0  0  0  0
  -23.1150  -15.1940    4.2660 C   0  0  0  0  0  0  0  0  0  0  0  0
  -24.2880  -14.9000    3.6550 F   0  0  0  0  0  0  0  0  0  0  0  0
  -20.0650  -13.4850    5.3760 F   0  0  0  0  0  0  0  0  0  0  0  0
  -25.2120  -22.3630    8.7400 C   0  0  0  0  0  0  0  0  0  0  0  0
  -24.1020  -21.6500    8.8900 N   0  0  0  0  0  0  0  0  0  0  0  0
  -25.1730  -23.5890    8.6460 O   0  0  0  0  0  0  0  0  0  0  0  0
  -24.1350  -20.6450    8.9890 H   0  0  0  0  0  0  0  0  0  0  0  0
  -23.2050  -22.1140    8.9110 H   0  0  0  0  0  0  0  0  0  0  0  0
  -27.9900  -23.0910   10.1960 N   0  0  0  0  0  0  0  0  0  0  0  0
  -27.3210  -23.8180   10.4230 H   0  0  0  0  0  0  0  0  0  0  0  0
  -28.9110  -23.2680   10.5790 H   0  0  0  0  0  0  0  0  0  0  0  0
  -29.4350  -24.2900   23.5460 O   0  0  0  0  0  0  0  0  0  0  0  0
  -28.9430  -25.3840   22.7720 C   0  0  0  0  0  2  0  0  0  0  0  0
  -28.3280  -24.9170   21.4360 C   0  0  0  0  0  2  0  0  0  0  0  0
  -27.9660  -26.0780   20.4920 C   0  0  0  0  0  2  0  0  0  0  0  0
  -27.4400  -25.5980   19.1200 C   0  0  0  0  0  2  0  0  0  0  0  0
  -27.0910  -26.6680   18.2360 O   0  0  0  0  0  0  0  0  0  0  0  0
  -25.3570  -30.8570   23.6840 C   0  0  0  0  0  0  0  0  0  0  0  0
  -26.1920  -27.5620   18.7580 C   0  0  0  0  0  0  0  0  0  0  0  0
  -23.5840  -30.5160   21.9860 C   0  0  0  0  0  3  0  0  0  0  0  0
  -24.3290  -29.3920   19.8220 C   0  0  0  0  0  0  0  0  0  0  0  0
  -26.0510  -30.3940   21.3400 C   0  0  0  0  0  2  0  0  0  0  0  0
  -25.6570  -29.4030   20.2690 C   0  0  0  0  0  0  0  0  0  0  0  0
  -26.5940  -28.4980   19.7320 C   0  0  0  0  0  3  0  0  0  0  0  0
  -24.8560  -27.5610   18.3060 C   0  0  0  0  0  3  0  0  0  0  0  0
  -23.9210  -28.4730   18.8350 C   0  0  0  0  0  3  0  0  0  0  0  0
  -23.3960  -30.4040   20.4480 C   0  0  0  0  0  2  0  0  0  0  0  0
  -25.0270  -30.5730   22.3920 N   0  0  0  0  0  0  0  0  0  0  0  0
  -24.4860  -31.1170   24.5240 O   0  0  0  0  0  0  0  0  0  0  0  0
  -22.8030  -29.3670   22.6610 C   0  0  0  0  0  0  0  0  0  0  0  0
  -21.4750  -29.3520   22.4680 N   0  0  0  0  0  0  0  0  0  0  0  0
  -23.3910  -28.5010   23.3160 O   0  0  0  0  0  0  0  0  0  0  0  0
  -21.0650  -30.1010   21.9260 H   0  0  0  0  0  0  0  0  0  0  0  0
  -17.9840  -28.4440   22.6270 C   0  0  0  0  0  0  0  0  0  0  0  0
  -20.5430  -28.3460   22.9740 C   0  0  0  0  0  3  0  0  0  0  0  0
  -20.5180  -27.1020   22.0570 C   0  0  0  0  0  2  0  0  0  0  0  0
  -19.4250  -27.1640   20.9840 C   0  0  0  0  0  2  0  0  0  0  0  0
  -18.0430  -27.2960   21.6340 C   0  0  0  0  0  2  0  0  0  0  0  0
  -19.1600  -28.9480   23.2430 C   0  0  0  0  0  0  0  0  0  0  0  0
  -19.0530  -30.0390   24.1320 C   0  0  0  0  0  3  0  0  0  0  0  0
  -17.8030  -30.6260   24.4070 C   0  0  0  0  0  3  0  0  0  0  0  0
  -16.6410  -30.1130   23.8070 C   0  0  0  0  0  3  0  0  0  0  0  0
  -16.7310  -29.0220   22.9250 C   0  0  0  0  0  3  0  0  0  0  0  0
  -26.8440  -30.8960   24.1610 C   0  0  0  0  0  3  0  0  0  0  0  0
  -27.0440  -32.1550   24.8890 N   0  0  0  0  0  0  0  0  0  0  0  0
  -27.7610  -33.1910   24.4310 C   0  0  0  0  0  0  0  0  0  0  0  0
  -28.3880  -33.1560   23.3680 O   0  0  0  0  0  0  0  0  0  0  0  0
  -26.5190  -32.2740   25.7420 H   0  0  0  0  0  0  0  0  0  0  0  0
  -26.9680  -35.5710   24.5880 C   0  0  0  0  0  1  0  0  0  0  0  0
  -27.7840  -34.4700   25.2870 C   0  0  0  0  0  3  0  0  0  0  0  0
  -29.8810  -34.1290   26.5200 C   0  0  0  0  0  1  0  0  0  0  0  0
  -29.1500  -34.9640   25.5710 N   0  0  0  0  0  0  0  0  0  0  0  0
  -29.1190  -35.9090   25.9430 H   0  0  0  0  0  0  0  0  0  0  0  0
  -27.2440  -29.6600   25.0560 C   0  0  1  0  0  0  0  0  0  0  0  0
  -26.5700  -29.6610   26.4480 C   0  0  0  0  0  1  0  0  0  0  0  0
  -26.8730  -28.3330   24.3500 C   0  0  0  0  0  1  0  0  0  0  0  0
  -28.7750  -29.6400   25.2720 C   0  0  0  0  0  1  0  0  0  0  0  0
  1  2  2  0
  1  4  1  0
  2  5  1  0
  3  6  1  0
  4  3  2  0
  5 60  1  0
  5  6  2  0
  6  7  1  0
  8  9  1  0
  9 12  1  0
  9  4  1  0
 10 13  1  0
 10  8  1  0
 11  8  2  0
 14 15  1  0
 15 19  2  0
 16 18  2  0
 17 16  1  0
 17 14  2  0
 18 20  1  0
 18 19  1  0
 19 10  1  0
 21 17  1  0
 22 29  2  0
 22 30  1  0
 23 28  1  0
 24 23  1  0
 25 24  1  0
 26 25  1  0
 26 27  1  0
 27 28  1  0
 28 22  1  0
 30 21  1  0
 31 30  1  0
 32 57  1  0
 33 32  2  0
 34 36  2  0
 34 33  1  0
 35 26  1  0
 35 32  1  0
 36 35  1  0
 37 38  1  0
 37 34  1  0
 39 38  2  0
 40 39  1  0
 41 40  2  0
 41 42  1  0
 42 37  2  0
 43 44  1  0
 43 40  1  0
 44 45  1  0
 45 46  2  0
 47 51  1  0
 47 46  1  0
 48 47  2  0
 49 48  1  0
 49 44  2  0
 50 49  1  0
 52 33  1  0
 52 53  1  0
 53 56  1  0
 53 55  1  0
 54 52  2  0
 57 58  1  0
 57 59  1  0
 61 60  1  0
 62 61  1  0
 63 62  1  0
 64 63  1  0
 65 67  1  0
 65 64  1  0
 66 77  2  0
 67 72  1  0
 68 76  1  0
 68 78  1  0
 69 71  1  0
 69 75  1  0
 70 76  1  0
 71 70  1  0
 72 71  2  0
 73 67  2  0
 73 74  1  0
 74 69  2  0
 75 68  1  0
 76 66  1  0
 78 80  2  0
 79 78  1  0
 81 79  1  0
 82 91  2  0
 82 87  1  0
 83 79  1  0
 83 87  1  0
 84 83  1  0
 85 86  1  0
 85 84  1  0
 86 82  1  0
 87 88  2  0
 88 89  1  0
 90 89  2  0
 91 90  1  0
 92 66  1  0
 92 93  1  0
 92102  1  0
 93 96  1  0
 94 93  1  0
 94 98  1  0
 95 94  2  0
 98 97  1  0
 98100  1  0
100101  1  0
100 99  1  0
102105  1  1
102103  1  0
104102  1  0
M  ISO  4  22 100  30 100  64 101  65 101
M  END
>  <TORSDO>  (86) 
F 24

>  <SCORE>  (86) 
-7.383

>  <name>  (86) 
87

>  <ligand_id>  (86) 
87

>  <original_smiles>  (86) 
[H]c1c([H])c([H])c2c(c1[H])C([H])([H])C([H])([H])C([H])([H])C2([H])N([H])C(=O)C1([H])N(C(=O)C([H])(N([H])C(=O)C([H])(N([H])C([H])([H])[H])C([H])([H])[H])C(C([H])([H])[H])(C([H])([H])[H])C([H])([H])[H])C([H])([H])c2c([H])c(OC([H])([H])C([H])([H])C([H])([H])C([H])([H])Oc3c([H])c([H])c(N([H])C(=O)N([H])c4c([H])c([H])c(C([H])([H])N([H])C(=O)N5C([H])([H])C([H])([H])C([H])([H])C([H])(n6nc(-c7c([H])c([H])c(Oc8c([H])c([H])c(F)c([H])c8F)c([H])c7[H])c(C(=O)N([H])[H])c6N([H])[H])C5([H])[H])c([H])c4C([H])([H])[H])c([H])c3F)c([H])c([H])c2C1([H])[H]

>  <smiles>  (86) 
[H]c1c([H])c([H])c2c(c1[H])C([H])([H])C([H])([H])C([H])([H])C2([H])N([H])C(=O)C1([H])N(C(=O)C([H])(N([H])C(=O)C([H])(N([H])C([H])([H])[H])C([H])([H])[H])C(C([H])([H])[H])(C([H])([H])[H])C([H])([H])[H])C([H])([H])c2c([H])c(OC([H])([H])C([H])([H])C([H])([H])C([H])([H])Oc3c([H])c([H])c(N([H])C(=O)N([H])c4c([H])c([H])c(C([H])([H])N([H])C(=O)N5C([H])([H])C([H])([H])C([H])([H])C([H])(n6nc(-c7c([H])c([H])c(Oc8c([H])c([H])c(F)c([H])c8F)c([H])c7[H])c(C(=O)N([H])[H])c6N([H])[H])C5([H])[H])c([H])c4C([H])([H])[H])c([H])c3F)c([H])c([H])c2C1([H])[H]

$$$$
88:0:0
     RDKit          3D

 93101  0  0  1  0  0  0  0  0999 V2000
  -31.7720  -22.0850   22.5750 C   0  0  0  0  0  2  0  0  0  0  0  0
  -32.1480  -23.0430   21.4310 C   0  0  0  0  0  2  0  0  0  0  0  0
  -31.2750  -24.3050   21.3630 C   0  0  0  0  0  2  0  0  0  0  0  0
  -29.8620  -24.0390   20.8040 C   0  0  0  0  0  2  0  0  0  0  0  0
  -29.2800  -25.2520   20.0710 C   0  0  0  0  0  2  0  0  0  0  0  0
  -27.7980  -25.0980   19.6990 C   0  0  0  0  0  2  0  0  0  0  0  0
  -27.5090  -26.1750   18.8280 O   0  0  0  0  0  0  0  0  0  0  0  0
  -24.6780  -31.2760   22.8920 C   0  0  0  0  0  0  0  0  0  0  0  0
  -26.4170  -26.9410   19.1320 C   0  0  0  0  0  0  0  0  0  0  0  0
  -23.1390  -30.2140   21.2690 C   0  0  0  0  0  3  0  0  0  0  0  0
  -24.2320  -28.6610   19.5670 C   0  0  0  0  0  0  0  0  0  0  0  0
  -25.6530  -30.2980   20.8200 C   0  0  0  0  0  2  0  0  0  0  0  0
  -25.4980  -28.9980   20.0620 C   0  0  0  0  0  0  0  0  0  0  0  0
  -26.5950  -28.1440   19.8410 C   0  0  0  0  0  3  0  0  0  0  0  0
  -25.1390  -26.5920   18.6540 C   0  0  0  0  0  3  0  0  0  0  0  0
  -24.0410  -27.4540   18.8670 C   0  0  0  0  0  3  0  0  0  0  0  0
  -23.1180  -29.6500   19.8220 C   0  0  0  0  0  2  0  0  0  0  0  0
  -24.5160  -30.6020   21.7190 N   0  0  0  0  0  0  0  0  0  0  0  0
  -23.7010  -31.6190   23.5740 O   0  0  0  0  0  0  0  0  0  0  0  0
  -22.4580  -29.1870   22.2000 C   0  0  0  0  0  0  0  0  0  0  0  0
  -21.1160  -29.1520   22.1700 N   0  0  0  0  0  0  0  0  0  0  0  0
  -23.1310  -28.4250   22.9010 O   0  0  0  0  0  0  0  0  0  0  0  0
  -20.6370  -29.8140   21.5730 H   0  0  0  0  0  0  0  0  0  0  0  0
  -17.6830  -28.2240   22.7920 C   0  0  0  0  0  0  0  0  0  0  0  0
  -20.2640  -28.2390   22.9290 C   0  0  0  0  0  3  0  0  0  0  0  0
  -20.2070  -26.8460   22.2590 C   0  0  0  0  0  2  0  0  0  0  0  0
  -19.0280  -26.6890   21.2940 C   0  0  0  0  0  2  0  0  0  0  0  0
  -17.7000  -26.9130   22.0250 C   0  0  0  0  0  2  0  0  0  0  0  0
  -18.8870  -28.8540   23.2010 C   0  0  0  0  0  0  0  0  0  0  0  0
  -18.8160  -30.0910   23.8790 C   0  0  0  0  0  3  0  0  0  0  0  0
  -17.5740  -30.6930   24.1510 C   0  0  0  0  0  3  0  0  0  0  0  0
  -16.3840  -30.0570   23.7560 C   0  0  0  0  0  3  0  0  0  0  0  0
  -16.4410  -28.8250   23.0810 C   0  0  0  0  0  3  0  0  0  0  0  0
  -26.0920  -31.6730   23.4210 C   0  0  0  0  0  3  0  0  0  0  0  0
  -25.9890  -33.0290   23.9750 N   0  0  0  0  0  0  0  0  0  0  0  0
  -26.4110  -34.1380   23.3520 C   0  0  0  0  0  0  0  0  0  0  0  0
  -26.9990  -34.1150   22.2670 O   0  0  0  0  0  0  0  0  0  0  0  0
  -25.4630  -33.1310   24.8320 H   0  0  0  0  0  0  0  0  0  0  0  0
  -24.9090  -36.1530   23.4070 C   0  0  0  0  0  1  0  0  0  0  0  0
  -26.1390  -35.4860   24.0450 C   0  0  0  0  0  3  0  0  0  0  0  0
  -28.4200  -35.9780   24.8130 C   0  0  0  0  0  1  0  0  0  0  0  0
  -27.2900  -36.4150   23.9960 N   0  0  0  0  0  0  0  0  0  0  0  0
  -27.0160  -37.3440   24.3040 H   0  0  0  0  0  0  0  0  0  0  0  0
  -26.6570  -30.6700   24.5000 C   0  0  1  0  0  0  0  0  0  0  0  0
  -25.6740  -30.3900   25.6600 C   0  0  0  0  0  1  0  0  0  0  0  0
  -27.0170  -29.3150   23.8470 C   0  0  0  0  0  1  0  0  0  0  0  0
  -27.9630  -31.2330   25.1070 C   0  0  0  0  0  1  0  0  0  0  0  0
  -32.2660  -20.6550   22.3310 C   0  0  0  0  0  2  0  0  0  0  0  0
  -31.4470  -19.7840   23.1040 O   0  0  0  0  0  0  0  0  0  0  0  0
  -29.6900  -16.6010   22.5400 C   0  0  0  0  0  3  0  0  0  0  0  0
  -31.5220  -16.7500   20.9430 C   0  0  0  0  0  3  0  0  0  0  0  0
  -30.0700  -17.8390   23.0900 C   0  0  0  0  0  3  0  0  0  0  0  0
  -31.8940  -17.9930   21.4890 C   0  0  0  0  0  3  0  0  0  0  0  0
  -30.3980  -16.0540   21.4480 C   0  0  0  0  0  0  0  0  0  0  0  0
  -31.1560  -18.5570   22.5550 C   0  0  0  0  0  0  0  0  0  0  0  0
  -30.2580  -14.1680   19.8020 C   0  0  0  0  0  0  0  0  0  0  0  0
  -29.8380  -12.1340   18.4630 C   0  0  0  0  0  2  0  0  0  0  0  0
  -28.7420  -12.3600   17.4050 C   0  0  0  0  0  2  0  0  0  0  0  0
  -27.3420  -12.1240   18.0020 C   0  0  0  0  0  2  0  0  0  0  0  0
  -27.1320  -12.8850   19.3370 C   0  0  0  0  0  3  0  0  0  0  0  0
  -28.3160  -12.6310   20.2950 C   0  0  0  0  0  2  0  0  0  0  0  0
  -29.5670  -13.0140   19.6100 N   0  0  0  0  0  0  0  0  0  0  0  0
  -31.1350  -14.5580   19.0230 O   0  0  0  0  0  0  0  0  0  0  0  0
  -29.9480  -14.8020   20.9440 N   0  0  0  0  0  0  0  0  0  0  0  0
  -29.2090  -14.3580   21.4670 H   0  0  0  0  0  0  0  0  0  0  0  0
  -24.7880  -13.3530   20.3020 C   0  0  0  0  0  0  0  0  0  0  0  0
  -23.8150  -12.5190   20.7840 C   0  0  0  0  0  0  0  0  0  0  0  0
  -24.3480  -11.1970   20.6930 C   0  0  0  0  0  0  0  0  0  0  0  0
  -25.8540  -12.5360   19.9550 N   0  0  0  0  0  0  0  0  0  0  0  0
  -25.5960  -11.2330   20.2420 N   0  0  0  0  0  0  0  0  0  0  0  0
  -23.7240   -9.8930   20.9550 C   0  0  0  0  0  0  0  0  0  0  0  0
  -24.2470   -9.0060   21.9220 C   0  0  0  0  0  3  0  0  0  0  0  0
  -23.6200   -7.7660   22.1680 C   0  0  0  0  0  3  0  0  0  0  0  0
  -22.4570   -7.4030   21.4480 C   0  0  0  0  0  0  0  0  0  0  0  0
  -21.9540   -8.2800   20.4710 C   0  0  0  0  0  3  0  0  0  0  0  0
  -22.5830   -9.5110   20.2230 C   0  0  0  0  0  3  0  0  0  0  0  0
  -21.7970   -6.2080   21.6020 O   0  0  0  0  0  0  0  0  0  0  0  0
  -21.7560   -5.5580   22.8100 C   0  0  0  0  0  0  0  0  0  0  0  0
  -21.2410   -6.1740   23.9710 C   0  0  0  0  0  3  0  0  0  0  0  0
  -21.1530   -5.4460   25.1750 C   0  0  0  0  0  3  0  0  0  0  0  0
  -21.5730   -4.1030   25.2170 C   0  0  0  0  0  0  0  0  0  0  0  0
  -22.0800   -3.4860   24.0610 C   0  0  0  0  0  3  0  0  0  0  0  0
  -22.1690   -4.2110   22.8590 C   0  0  0  0  0  0  0  0  0  0  0  0
  -22.6390   -3.6060   21.7420 F   0  0  0  0  0  0  0  0  0  0  0  0
  -21.4820   -3.4010   26.3710 F   0  0  0  0  0  0  0  0  0  0  0  0
  -22.4300  -12.9110   21.2130 C   0  0  0  0  0  0  0  0  0  0  0  0
  -21.8560  -12.1890   22.1700 N   0  0  0  0  0  0  0  0  0  0  0  0
  -21.8660  -13.8940   20.7350 O   0  0  0  0  0  0  0  0  0  0  0  0
  -22.3270  -11.3950   22.5790 H   0  0  0  0  0  0  0  0  0  0  0  0
  -20.9320  -12.4340   22.4970 H   0  0  0  0  0  0  0  0  0  0  0  0
  -24.8520  -14.7310   20.1150 N   0  0  0  0  0  0  0  0  0  0  0  0
  -24.0690  -15.3440   20.3150 H   0  0  0  0  0  0  0  0  0  0  0  0
  -25.6400  -15.2150   19.7030 H   0  0  0  0  0  0  0  0  0  0  0  0
  2  1  1  0
  3  2  1  0
  4  3  1  0
  5  4  1  0
  6  5  1  0
  7  9  1  0
  7  6  1  0
  8 19  2  0
  9 14  1  0
 10 18  1  0
 10 20  1  0
 11 17  1  0
 11 13  1  0
 12 18  1  0
 13 12  1  0
 14 13  2  0
 15 16  1  0
 15  9  2  0
 16 11  2  0
 17 10  1  0
 18  8  1  0
 20 22  2  0
 21 20  1  0
 23 21  1  0
 24 33  2  0
 24 29  1  0
 25 21  1  0
 25 29  1  0
 26 25  1  0
 27 28  1  0
 27 26  1  0
 28 24  1  0
 29 30  2  0
 30 31  1  0
 32 31  2  0
 33 32  1  0
 34  8  1  0
 34 35  1  0
 34 44  1  0
 35 38  1  0
 36 35  1  0
 36 40  1  0
 37 36  2  0
 40 39  1  0
 42 40  1  0
 42 43  1  0
 42 41  1  0
 44 47  1  1
 44 45  1  0
 46 44  1  0
 48  1  1  0
 48 49  1  0
 50 52  1  0
 51 54  1  0
 51 53  2  0
 53 55  1  0
 54 50  2  0
 55 52  2  0
 55 49  1  0
 56 64  1  0
 57 62  1  0
 58 59  1  0
 58 57  1  0
 60 59  1  0
 60 69  1  0
 60 61  1  0
 62 56  1  0
 62 61  1  0
 63 56  2  0
 64 54  1  0
 64 65  1  0
 66 67  2  0
 67 86  1  0
 68 67  1  0
 68 71  1  0
 69 70  1  0
 69 66  1  0
 70 68  2  0
 71 72  1  0
 72 73  2  0
 74 77  1  0
 74 73  1  0
 75 74  2  0
 76 75  1  0
 76 71  2  0
 77 78  1  0
 78 83  2  0
 78 79  1  0
 79 80  2  0
 80 81  1  0
 81 85  1  0
 82 81  2  0
 83 82  1  0
 84 83  1  0
 86 87  1  0
 87 90  1  0
 87 89  1  0
 88 86  2  0
 91 66  1  0
 91 92  1  0
 93 91  1  0
M  ISO  4   6 101   7 101  56 100  64 100
M  END
>  <TORSDO>  (87) 
F 24

>  <SCORE>  (87) 
-6.551

>  <name>  (87) 
88

>  <ligand_id>  (87) 
88

>  <original_smiles>  (87) 
[H]c1c([H])c([H])c2c(c1[H])C([H])([H])C([H])([H])C([H])([H])C2([H])N([H])C(=O)C1([H])N(C(=O)C([H])(N([H])C(=O)C([H])(N([H])C([H])([H])[H])C([H])([H])[H])C(C([H])([H])[H])(C([H])([H])[H])C([H])([H])[H])C([H])([H])c2c([H])c(OC([H])([H])C([H])([H])C([H])([H])C([H])([H])C([H])([H])C([H])([H])C([H])([H])Oc3c([H])c([H])c(N([H])C(=O)N4C([H])([H])C([H])([H])C([H])([H])C([H])(n5nc(-c6c([H])c([H])c(Oc7c([H])c([H])c(F)c([H])c7F)c([H])c6[H])c(C(=O)N([H])[H])c5N([H])[H])C4([H])[H])c([H])c3[H])c([H])c([H])c2C1([H])[H]

>  <smiles>  (87) 
[H]c1c([H])c([H])c2c(c1[H])C([H])([H])C([H])([H])C([H])([H])C2([H])N([H])C(=O)C1([H])N(C(=O)C([H])(N([H])C(=O)C([H])(N([H])C([H])([H])[H])C([H])([H])[H])C(C([H])([H])[H])(C([H])([H])[H])C([H])([H])[H])C([H])([H])c2c([H])c(OC([H])([H])C([H])([H])C([H])([H])C([H])([H])C([H])([H])C([H])([H])C([H])([H])Oc3c([H])c([H])c(N([H])C(=O)N4C([H])([H])C([H])([H])C([H])([H])C([H])(n5nc(-c6c([H])c([H])c(Oc7c([H])c([H])c(F)c([H])c7F)c([H])c6[H])c(C(=O)N([H])[H])c5N([H])[H])C4([H])[H])c([H])c3[H])c([H])c([H])c2C1([H])[H]

$$$$
89:0:0
     RDKit          3D

106114  0  0  1  0  0  0  0  0999 V2000
  -34.1100  -20.4440   26.4400 C   0  0  0  0  0  2  0  0  0  0  0  0
  -33.9440  -19.2650   25.4770 C   0  0  0  0  0  0  0  0  0  0  0  0
  -32.6770  -18.8960   25.2210 N   0  0  0  0  0  0  0  0  0  0  0  0
  -34.9460  -18.7320   24.9990 O   0  0  0  0  0  0  0  0  0  0  0  0
  -31.9840  -19.4440   25.7110 H   0  0  0  0  0  0  0  0  0  0  0  0
  -32.9530  -17.0040   23.5930 C   0  0  0  0  0  3  0  0  0  0  0  0
  -32.3490  -16.0690   22.7330 C   0  0  0  0  0  3  0  0  0  0  0  0
  -30.7600  -17.8850   24.1600 C   0  0  0  0  0  3  0  0  0  0  0  0
  -30.1390  -16.9480   23.3050 C   0  0  0  0  0  0  0  0  0  0  0  0
  -32.1600  -17.9230   24.3190 C   0  0  0  0  0  0  0  0  0  0  0  0
  -30.9430  -16.0300   22.5780 C   0  0  0  0  0  0  0  0  0  0  0  0
  -30.7740  -14.3360   20.7360 C   0  0  0  0  0  0  0  0  0  0  0  0
  -30.4200  -12.3020   19.3780 C   0  0  0  0  0  2  0  0  0  0  0  0
  -29.4800  -12.5420   18.1830 C   0  0  0  0  0  2  0  0  0  0  0  0
  -28.0060  -12.3890   18.6030 C   0  0  0  0  0  2  0  0  0  0  0  0
  -27.6660  -13.1990   19.8810 C   0  0  0  0  0  3  0  0  0  0  0  0
  -28.7010  -12.9180   20.9880 C   0  0  0  0  0  2  0  0  0  0  0  0
  -30.0440  -13.2260   20.4550 N   0  0  0  0  0  0  0  0  0  0  0  0
  -31.7810  -14.6650   20.0980 O   0  0  0  0  0  0  0  0  0  0  0  0
  -30.3120  -15.0300   21.7860 N   0  0  0  0  0  0  0  0  0  0  0  0
  -29.4000  -14.7390   22.1060 H   0  0  0  0  0  0  0  0  0  0  0  0
  -25.2610  -13.8150   20.5670 C   0  0  0  0  0  0  0  0  0  0  0  0
  -24.1840  -13.0440   20.9150 C   0  0  0  0  0  0  0  0  0  0  0  0
  -24.6390  -11.6900   20.8720 C   0  0  0  0  0  0  0  0  0  0  0  0
  -26.3040  -12.9300   20.3380 N   0  0  0  0  0  0  0  0  0  0  0  0
  -25.9310  -11.6470   20.5750 N   0  0  0  0  0  0  0  0  0  0  0  0
  -23.9050  -10.4290   21.0400 C   0  0  0  0  0  0  0  0  0  0  0  0
  -24.3610   -9.4210   21.9180 C   0  0  0  0  0  3  0  0  0  0  0  0
  -23.6290   -8.2250   22.0760 C   0  0  0  0  0  3  0  0  0  0  0  0
  -22.4270   -8.0280   21.3550 C   0  0  0  0  0  0  0  0  0  0  0  0
  -21.9900   -9.0250   20.4650 C   0  0  0  0  0  3  0  0  0  0  0  0
  -22.7230  -10.2130   20.3050 C   0  0  0  0  0  3  0  0  0  0  0  0
  -21.6640   -6.8870   21.4240 O   0  0  0  0  0  0  0  0  0  0  0  0
  -21.6850   -6.0730   22.5280 C   0  0  0  0  0  0  0  0  0  0  0  0
  -21.4010   -6.5640   23.8210 C   0  0  0  0  0  3  0  0  0  0  0  0
  -21.3660   -5.6790   24.9170 C   0  0  0  0  0  3  0  0  0  0  0  0
  -21.6050   -4.3060   24.7220 C   0  0  0  0  0  0  0  0  0  0  0  0
  -21.8820   -3.8150   23.4340 C   0  0  0  0  0  3  0  0  0  0  0  0
  -21.9190   -4.6960   22.3400 C   0  0  0  0  0  0  0  0  0  0  0  0
  -22.1660   -4.2150   21.0980 F   0  0  0  0  0  0  0  0  0  0  0  0
  -21.5630   -3.4540   25.7740 F   0  0  0  0  0  0  0  0  0  0  0  0
  -22.7870  -13.5250   21.1830 C   0  0  0  0  0  0  0  0  0  0  0  0
  -22.0510  -12.8240   22.0380 N   0  0  0  0  0  0  0  0  0  0  0  0
  -22.3560  -14.5570   20.6700 O   0  0  0  0  0  0  0  0  0  0  0  0
  -22.4120  -11.9880   22.4750 H   0  0  0  0  0  0  0  0  0  0  0  0
  -21.1140  -13.1270   22.2600 H   0  0  0  0  0  0  0  0  0  0  0  0
  -25.4350  -15.1860   20.4090 N   0  0  0  0  0  0  0  0  0  0  0  0
  -24.6790  -15.8480   20.5370 H   0  0  0  0  0  0  0  0  0  0  0  0
  -26.3070  -15.6280   20.1450 H   0  0  0  0  0  0  0  0  0  0  0  0
  -28.6140  -16.9520   23.1740 C   0  0  1  0  0  0  0  0  0  0  0  0
  -28.0350  -17.7960   24.0300 F   0  0  0  0  0  0  0  0  0  0  0  0
  -28.2710  -17.3170   21.9390 F   0  0  0  0  0  0  0  0  0  0  0  0
  -28.1240  -15.7330   23.4090 F   0  0  0  0  0  0  0  0  0  0  0  0
  -33.6170  -21.7880   25.8620 C   0  0  0  0  0  2  0  0  0  0  0  0
  -34.2610  -22.1830   24.5210 C   0  0  0  0  0  2  0  0  0  0  0  0
  -33.7460  -23.5260   23.9890 C   0  0  0  0  0  2  0  0  0  0  0  0
  -34.1080  -23.7240   22.5120 C   0  0  0  0  0  2  0  0  0  0  0  0
  -33.6040  -25.0580   21.9480 C   0  0  0  0  0  2  0  0  0  0  0  0
  -33.7030  -25.1020   20.4140 C   0  0  0  0  0  2  0  0  0  0  0  0
  -33.3380  -26.4630   19.7960 C   0  0  0  0  0  2  0  0  0  0  0  0
  -30.8410  -26.5760   19.8190 C   0  0  0  0  0  0  0  0  0  0  0  0
  -32.0460  -26.9710   20.2480 N   0  0  0  0  0  0  0  0  0  0  0  0
  -30.6890  -25.6560   19.0090 O   0  0  0  0  0  0  0  0  0  0  0  0
  -32.0640  -27.7350   20.9130 H   0  0  0  0  0  0  0  0  0  0  0  0
  -29.6450  -27.3630   20.3640 C   0  0  0  0  0  2  0  0  0  0  0  0
  -28.4150  -26.7350   19.9970 O   0  0  0  0  0  0  0  0  0  0  0  0
  -24.6060  -31.8710   23.2130 C   0  0  0  0  0  0  0  0  0  0  0  0
  -27.2630  -27.4870   20.0900 C   0  0  0  0  0  0  0  0  0  0  0  0
  -23.3940  -30.4920   21.5510 C   0  0  0  0  0  3  0  0  0  0  0  0
  -24.8460  -28.9580   20.1200 C   0  0  0  0  0  0  0  0  0  0  0  0
  -25.9120  -30.8520   21.3580 C   0  0  0  0  0  2  0  0  0  0  0  0
  -25.9950  -29.4860   20.7170 C   0  0  0  0  0  0  0  0  0  0  0  0
  -27.1980  -28.7560   20.7150 C   0  0  0  0  0  3  0  0  0  0  0  0
  -26.0920  -26.9580   19.5080 C   0  0  0  0  0  3  0  0  0  0  0  0
  -24.8840  -27.6860   19.5180 C   0  0  0  0  0  3  0  0  0  0  0  0
  -23.6030  -29.8170   20.1670 C   0  0  0  0  0  2  0  0  0  0  0  0
  -24.6550  -31.0850   22.1010 N   0  0  0  0  0  0  0  0  0  0  0  0
  -23.5270  -32.1440   23.7550 O   0  0  0  0  0  0  0  0  0  0  0  0
  -22.7370  -29.4670   22.5010 C   0  0  0  0  0  0  0  0  0  0  0  0
  -21.4100  -29.3020   22.3750 N   0  0  0  0  0  0  0  0  0  0  0  0
  -23.4170  -28.8210   23.3030 O   0  0  0  0  0  0  0  0  0  0  0  0
  -20.9240  -29.8760   21.7010 H   0  0  0  0  0  0  0  0  0  0  0  0
  -18.0270  -28.1370   22.8500 C   0  0  0  0  0  0  0  0  0  0  0  0
  -20.5850  -28.3640   23.1330 C   0  0  0  0  0  3  0  0  0  0  0  0
  -20.6750  -26.9380   22.5410 C   0  0  0  0  0  2  0  0  0  0  0  0
  -19.5740  -26.6380   21.5210 C   0  0  0  0  0  2  0  0  0  0  0  0
  -18.1910  -26.7910   22.1620 C   0  0  0  0  0  2  0  0  0  0  0  0
  -19.1520  -28.8820   23.2920 C   0  0  0  0  0  0  0  0  0  0  0  0
  -18.9450  -30.1430   23.8920 C   0  0  0  0  0  3  0  0  0  0  0  0
  -17.6460  -30.6580   24.0580 C   0  0  0  0  0  3  0  0  0  0  0  0
  -16.5350  -29.9080   23.6340 C   0  0  0  0  0  3  0  0  0  0  0  0
  -16.7260  -28.6510   23.0340 C   0  0  0  0  0  3  0  0  0  0  0  0
  -25.8980  -32.4850   23.8410 C   0  0  0  0  0  3  0  0  0  0  0  0
  -26.4420  -31.6620   25.0720 C   0  0  1  0  0  0  0  0  0  0  0  0
  -25.3710  -31.3720   26.1490 C   0  0  0  0  0  1  0  0  0  0  0  0
  -27.0240  -30.3070   24.6040 C   0  0  0  0  0  1  0  0  0  0  0  0
  -27.6000  -32.4330   25.7470 C   0  0  0  0  0  1  0  0  0  0  0  0
  -25.5850  -33.8640   24.2340 N   0  0  0  0  0  0  0  0  0  0  0  0
  -25.9010  -34.9490   23.5140 C   0  0  0  0  0  0  0  0  0  0  0  0
  -26.5590  -34.8930   22.4710 O   0  0  0  0  0  0  0  0  0  0  0  0
  -24.9960  -33.9820   25.0460 H   0  0  0  0  0  0  0  0  0  0  0  0
  -24.1480  -36.7340   23.2640 C   0  0  0  0  0  1  0  0  0  0  0  0
  -25.4100  -36.3130   24.0340 C   0  0  0  0  0  3  0  0  0  0  0  0
  -27.5580  -37.1810   24.8460 C   0  0  0  0  0  1  0  0  0  0  0  0
  -26.4280  -37.3810   23.9420 N   0  0  0  0  0  0  0  0  0  0  0  0
  -26.0180  -38.2880   24.1440 H   0  0  0  0  0  0  0  0  0  0  0  0
  2  1  1  0
  3  2  1  0
  3  5  1  0
  4  2  2  0
  6 10  1  0
  7  6  2  0
  8 10  2  0
  9  8  1  0
 10  3  1  0
 11  7  1  0
 11  9  2  0
 12 20  1  0
 13 18  1  0
 14 15  1  0
 14 13  1  0
 16 15  1  0
 16 25  1  0
 16 17  1  0
 18 12  1  0
 18 17  1  0
 19 12  2  0
 20 21  1  0
 20 11  1  0
 22 23  2  0
 23 42  1  0
 24 23  1  0
 24 27  1  0
 25 22  1  0
 25 26  1  0
 26 24  2  0
 27 28  1  0
 28 29  2  0
 30 33  1  0
 30 29  1  0
 31 30  2  0
 32 31  1  0
 32 27  2  0
 33 34  1  0
 34 35  1  0
 35 36  2  0
 37 36  1  0
 37 41  1  0
 38 37  2  0
 39 34  2  0
 39 38  1  0
 40 39  1  0
 42 43  1  0
 43 46  1  0
 43 45  1  0
 44 42  2  0
 47 48  1  0
 47 22  1  0
 49 47  1  0
 50  9  1  0
 50 53  1  1
 50 51  1  0
 52 50  1  0
 54  1  1  0
 55 54  1  0
 56 55  1  0
 57 56  1  0
 58 57  1  0
 59 58  1  0
 60 62  1  0
 60 59  1  0
 61 62  1  0
 61 65  1  0
 62 64  1  0
 63 61  2  0
 66 68  1  0
 66 65  1  0
 67 78  2  0
 68 73  1  0
 69 77  1  0
 69 79  1  0
 70 76  1  0
 70 72  1  0
 71 77  1  0
 72 71  1  0
 73 72  2  0
 74 75  1  0
 74 68  2  0
 75 70  2  0
 76 69  1  0
 77 67  1  0
 79 81  2  0
 80 79  1  0
 82 80  1  0
 83 92  2  0
 83 88  1  0
 84 80  1  0
 84 88  1  0
 85 84  1  0
 86 87  1  0
 86 85  1  0
 87 83  1  0
 88 89  2  0
 89 90  1  0
 91 90  2  0
 92 91  1  0
 93 67  1  0
 93 98  1  0
 93 94  1  0
 94 97  1  1
 94 95  1  0
 96 94  1  0
 98101  1  0
 99103  1  0
 99 98  1  0
100 99  2  0
103102  1  0
105103  1  0
105106  1  0
105104  1  0
M  ISO  4  12 100  20 100  65 101  66 101
M  END
>  <TORSDO>  (88) 
F 28

>  <SCORE>  (88) 
60.281

>  <name>  (88) 
89

>  <ligand_id>  (88) 
89

>  <original_smiles>  (88) 
[H]c1c([H])c([H])c2c(c1[H])C([H])([H])C([H])([H])C([H])([H])C2([H])N([H])C(=O)C1([H])N(C(=O)C([H])(N([H])C(=O)C([H])(N([H])C([H])([H])[H])C([H])([H])[H])C(C([H])([H])[H])(C([H])([H])[H])C([H])([H])[H])C([H])([H])c2c([H])c(OC([H])([H])C(=O)N([H])C([H])([H])C([H])([H])C([H])([H])C([H])([H])C([H])([H])C([H])([H])C([H])([H])C([H])([H])C(=O)N([H])c3c([H])c([H])c(N([H])C(=O)N4C([H])([H])C([H])([H])C([H])([H])C([H])(n5nc(-c6c([H])c([H])c(Oc7c([H])c([H])c(F)c([H])c7F)c([H])c6[H])c(C(=O)N([H])[H])c5N([H])[H])C4([H])[H])c(C(F)(F)F)c3[H])c([H])c([H])c2C1([H])[H]

>  <smiles>  (88) 
[H]c1c([H])c([H])c2c(c1[H])C([H])([H])C([H])([H])C([H])([H])C2([H])N([H])C(=O)C1([H])N(C(=O)C([H])(N([H])C(=O)C([H])(N([H])C([H])([H])[H])C([H])([H])[H])C(C([H])([H])[H])(C([H])([H])[H])C([H])([H])[H])C([H])([H])c2c([H])c(OC([H])([H])C(=O)N([H])C([H])([H])C([H])([H])C([H])([H])C([H])([H])C([H])([H])C([H])([H])C([H])([H])C([H])([H])C(=O)N([H])c3c([H])c([H])c(N([H])C(=O)N4C([H])([H])C([H])([H])C([H])([H])C([H])(n5nc(-c6c([H])c([H])c(Oc7c([H])c([H])c(F)c([H])c7F)c([H])c6[H])c(C(=O)N([H])[H])c5N([H])[H])C4([H])[H])c(C(F)(F)F)c3[H])c([H])c([H])c2C1([H])[H]

$$$$
90:0:0
     RDKit          3D

 97105  0  0  1  0  0  0  0  0999 V2000
  -32.9880  -24.2030   19.0330 C   0  0  0  0  0  2  0  0  0  0  0  0
  -31.9370  -26.3050   18.2450 C   0  0  0  0  0  0  0  0  0  0  0  0
  -32.6100  -25.6050   19.1620 N   0  0  0  0  0  0  0  0  0  0  0  0
  -31.8140  -25.9310   17.0770 O   0  0  0  0  0  0  0  0  0  0  0  0
  -32.7380  -26.0310   20.0720 H   0  0  0  0  0  0  0  0  0  0  0  0
  -31.2200  -27.5640   18.7340 C   0  0  0  0  0  2  0  0  0  0  0  0
  -29.7480  -27.6090   18.2660 C   0  0  0  0  0  2  0  0  0  0  0  0
  -28.8620  -26.4480   18.7820 C   0  0  0  0  0  2  0  0  0  0  0  0
  -28.3880  -26.7210   20.0990 O   0  0  0  0  0  0  0  0  0  0  0  0
  -24.6030  -31.8720   23.2140 C   0  0  0  0  0  0  0  0  0  0  0  0
  -27.2040  -27.4130   20.1510 C   0  0  0  0  0  0  0  0  0  0  0  0
  -23.3750  -30.4640   21.5920 C   0  0  0  0  0  3  0  0  0  0  0  0
  -24.8060  -28.8940   20.1850 C   0  0  0  0  0  0  0  0  0  0  0  0
  -25.8980  -30.8070   21.3700 C   0  0  0  0  0  2  0  0  0  0  0  0
  -25.9690  -29.4270   20.7570 C   0  0  0  0  0  0  0  0  0  0  0  0
  -27.1690  -28.6880   20.7460 C   0  0  0  0  0  3  0  0  0  0  0  0
  -26.0180  -26.8670   19.6130 C   0  0  0  0  0  3  0  0  0  0  0  0
  -24.8230  -27.6050   19.6180 C   0  0  0  0  0  3  0  0  0  0  0  0
  -23.5720  -29.7650   20.2200 C   0  0  0  0  0  2  0  0  0  0  0  0
  -24.6460  -31.0610   22.1190 N   0  0  0  0  0  0  0  0  0  0  0  0
  -23.5280  -32.1580   23.7560 O   0  0  0  0  0  0  0  0  0  0  0  0
  -22.7180  -29.4610   22.5670 C   0  0  0  0  0  0  0  0  0  0  0  0
  -21.3900  -29.2970   22.4510 N   0  0  0  0  0  0  0  0  0  0  0  0
  -23.3980  -28.8320   23.3810 O   0  0  0  0  0  0  0  0  0  0  0  0
  -20.9010  -29.8570   21.7660 H   0  0  0  0  0  0  0  0  0  0  0  0
  -18.0060  -28.1490   22.9830 C   0  0  0  0  0  0  0  0  0  0  0  0
  -20.5670  -28.3780   23.2360 C   0  0  0  0  0  3  0  0  0  0  0  0
  -20.6480  -26.9390   22.6770 C   0  0  0  0  0  2  0  0  0  0  0  0
  -19.5370  -26.6200   21.6710 C   0  0  0  0  0  2  0  0  0  0  0  0
  -18.1610  -26.7910   22.3210 C   0  0  0  0  0  2  0  0  0  0  0  0
  -19.1380  -28.9020   23.3980 C   0  0  0  0  0  0  0  0  0  0  0  0
  -18.9380  -30.1740   23.9770 C   0  0  0  0  0  3  0  0  0  0  0  0
  -17.6410  -30.6960   24.1430 C   0  0  0  0  0  3  0  0  0  0  0  0
  -16.5260  -29.9400   23.7440 C   0  0  0  0  0  3  0  0  0  0  0  0
  -16.7080  -28.6700   23.1700 C   0  0  0  0  0  3  0  0  0  0  0  0
  -25.8980  -32.4970   23.8200 C   0  0  0  0  0  3  0  0  0  0  0  0
  -26.4380  -31.7120   25.0770 C   0  0  1  0  0  0  0  0  0  0  0  0
  -25.3660  -31.4630   26.1630 C   0  0  0  0  0  1  0  0  0  0  0  0
  -27.0110  -30.3400   24.6540 C   0  0  0  0  0  1  0  0  0  0  0  0
  -27.6020  -32.4970   25.7290 C   0  0  0  0  0  1  0  0  0  0  0  0
  -25.5950  -33.8910   24.1680 N   0  0  0  0  0  0  0  0  0  0  0  0
  -25.9150  -34.9510   23.4150 C   0  0  0  0  0  0  0  0  0  0  0  0
  -26.5680  -34.8560   22.3720 O   0  0  0  0  0  0  0  0  0  0  0  0
  -25.0120  -34.0350   24.9800 H   0  0  0  0  0  0  0  0  0  0  0  0
  -24.1770  -36.7460   23.1050 C   0  0  0  0  0  1  0  0  0  0  0  0
  -25.4340  -36.3350   23.8910 C   0  0  0  0  0  3  0  0  0  0  0  0
  -27.5850  -37.2130   24.6850 C   0  0  0  0  0  1  0  0  0  0  0  0
  -26.4610  -37.3900   23.7690 N   0  0  0  0  0  0  0  0  0  0  0  0
  -26.0580  -38.3090   23.9350 H   0  0  0  0  0  0  0  0  0  0  0  0
  -32.0150  -23.3230   19.8370 C   0  0  0  0  0  2  0  0  0  0  0  0
  -32.3560  -21.8300   19.7270 C   0  0  0  0  0  2  0  0  0  0  0  0
  -31.6860  -20.9750   20.8110 C   0  0  0  0  0  2  0  0  0  0  0  0
  -31.8740  -19.5980   20.4940 O   0  0  0  0  0  0  0  0  0  0  0  0
  -30.7100  -17.9190   23.6250 C   0  0  0  0  0  3  0  0  0  0  0  0
  -30.5720  -16.6020   23.1520 C   0  0  0  0  0  3  0  0  0  0  0  0
  -31.1380  -18.9400   22.7580 C   0  0  0  0  0  3  0  0  0  0  0  0
  -31.3120  -17.3240   20.9440 C   0  0  0  0  0  3  0  0  0  0  0  0
  -30.8640  -16.2940   21.8100 C   0  0  0  0  0  0  0  0  0  0  0  0
  -31.4480  -18.6520   21.4040 C   0  0  0  0  0  0  0  0  0  0  0  0
  -30.9770  -14.2990   20.2940 C   0  0  0  0  0  0  0  0  0  0  0  0
  -30.4920  -12.3110   18.9130 C   0  0  0  0  0  2  0  0  0  0  0  0
  -29.5160  -12.6600   17.7730 C   0  0  0  0  0  2  0  0  0  0  0  0
  -28.0560  -12.5480   18.2520 C   0  0  0  0  0  2  0  0  0  0  0  0
  -27.8060  -13.3100   19.5800 C   0  0  0  0  0  3  0  0  0  0  0  0
  -28.8800  -12.9440   20.6260 C   0  0  0  0  0  2  0  0  0  0  0  0
  -30.2160  -13.2040   20.0470 N   0  0  0  0  0  0  0  0  0  0  0  0
  -31.9660  -14.6080   19.6180 O   0  0  0  0  0  0  0  0  0  0  0  0
  -30.6160  -14.9590   21.4020 N   0  0  0  0  0  0  0  0  0  0  0  0
  -29.9240  -14.4660   21.9460 H   0  0  0  0  0  0  0  0  0  0  0  0
  -25.4500  -13.9870   20.3710 C   0  0  0  0  0  0  0  0  0  0  0  0
  -24.3690  -13.2430   20.7660 C   0  0  0  0  0  0  0  0  0  0  0  0
  -24.7810  -11.8780   20.6920 C   0  0  0  0  0  0  0  0  0  0  0  0
  -26.4570  -13.0750   20.0920 N   0  0  0  0  0  0  0  0  0  0  0  0
  -26.0590  -11.8000   20.3400 N   0  0  0  0  0  0  0  0  0  0  0  0
  -24.0170  -10.6380   20.8790 C   0  0  0  0  0  0  0  0  0  0  0  0
  -24.4540   -9.6310   21.7660 C   0  0  0  0  0  3  0  0  0  0  0  0
  -23.6960   -8.4530   21.9420 C   0  0  0  0  0  3  0  0  0  0  0  0
  -22.4850   -8.2770   21.2310 C   0  0  0  0  0  0  0  0  0  0  0  0
  -22.0660   -9.2730   20.3310 C   0  0  0  0  0  3  0  0  0  0  0  0
  -22.8250  -10.4420   20.1530 C   0  0  0  0  0  3  0  0  0  0  0  0
  -21.6960   -7.1560   21.3200 O   0  0  0  0  0  0  0  0  0  0  0  0
  -21.6760   -6.3770   22.4490 C   0  0  0  0  0  0  0  0  0  0  0  0
  -21.3600   -6.9100   23.7180 C   0  0  0  0  0  3  0  0  0  0  0  0
  -21.2820   -6.0600   24.8400 C   0  0  0  0  0  3  0  0  0  0  0  0
  -21.5110   -4.6780   24.6940 C   0  0  0  0  0  0  0  0  0  0  0  0
  -21.8210   -4.1440   23.4320 C   0  0  0  0  0  3  0  0  0  0  0  0
  -21.9000   -4.9910   22.3120 C   0  0  0  0  0  0  0  0  0  0  0  0
  -22.1770   -4.4680   21.0930 F   0  0  0  0  0  0  0  0  0  0  0  0
  -21.4300   -3.8600   25.7710 F   0  0  0  0  0  0  0  0  0  0  0  0
  -22.9990  -13.7620   21.0940 C   0  0  0  0  0  0  0  0  0  0  0  0
  -22.2780  -13.0830   21.9800 N   0  0  0  0  0  0  0  0  0  0  0  0
  -22.5730  -14.8040   20.5980 O   0  0  0  0  0  0  0  0  0  0  0  0
  -22.6300  -12.2390   22.4070 H   0  0  0  0  0  0  0  0  0  0  0  0
  -21.3570  -13.4120   22.2310 H   0  0  0  0  0  0  0  0  0  0  0  0
  -25.6560  -15.3540   20.2060 N   0  0  0  0  0  0  0  0  0  0  0  0
  -24.9190  -16.0360   20.3440 H   0  0  0  0  0  0  0  0  0  0  0  0
  -26.5080  -15.7620   19.8400 H   0  0  0  0  0  0  0  0  0  0  0  0
  1  3  1  0
  1 50  1  0
  2  6  1  0
  2  3  1  0
  3  5  1  0
  4  2  2  0
  7  6  1  0
  7  8  1  0
  8  9  1  0
  9 11  1  0
 10 21  2  0
 11 16  1  0
 12 20  1  0
 12 22  1  0
 13 19  1  0
 13 15  1  0
 14 20  1  0
 15 14  1  0
 16 15  2  0
 17 18  1  0
 17 11  2  0
 18 13  2  0
 19 12  1  0
 20 10  1  0
 22 24  2  0
 23 22  1  0
 25 23  1  0
 26 35  2  0
 26 31  1  0
 27 23  1  0
 27 31  1  0
 28 27  1  0
 29 30  1  0
 29 28  1  0
 30 26  1  0
 31 32  2  0
 32 33  1  0
 34 33  2  0
 35 34  1  0
 36 10  1  0
 36 41  1  0
 36 37  1  0
 37 40  1  1
 37 38  1  0
 39 37  1  0
 41 44  1  0
 42 46  1  0
 42 41  1  0
 43 42  2  0
 46 45  1  0
 48 46  1  0
 48 49  1  0
 48 47  1  0
 51 50  1  0
 51 52  1  0
 53 52  1  0
 53 59  1  0
 55 54  1  0
 56 54  2  0
 57 59  2  0
 57 58  1  0
 58 55  2  0
 59 56  1  0
 60 68  1  0
 61 66  1  0
 62 63  1  0
 62 61  1  0
 64 63  1  0
 64 73  1  0
 64 65  1  0
 66 60  1  0
 66 65  1  0
 67 60  2  0
 68 58  1  0
 68 69  1  0
 70 71  2  0
 71 90  1  0
 72 71  1  0
 72 75  1  0
 73 74  1  0
 73 70  1  0
 74 72  2  0
 75 76  1  0
 76 77  2  0
 78 81  1  0
 78 77  1  0
 79 78  2  0
 80 79  1  0
 80 75  2  0
 81 82  1  0
 82 83  1  0
 83 84  2  0
 85 84  1  0
 85 89  1  0
 86 85  2  0
 87 82  2  0
 87 86  1  0
 88 87  1  0
 90 91  1  0
 91 94  1  0
 91 93  1  0
 92 90  2  0
 95 96  1  0
 95 70  1  0
 97 95  1  0
M  ISO  4   8 101   9 101  60 100  68 100
M  END
>  <TORSDO>  (89) 
F 25

>  <SCORE>  (89) 
-10.947

>  <name>  (89) 
90

>  <ligand_id>  (89) 
90

>  <original_smiles>  (89) 
[H]c1c([H])c(OC([H])([H])C([H])([H])C([H])([H])C([H])([H])N([H])C(=O)C([H])([H])C([H])([H])C([H])([H])Oc2c([H])c([H])c3c(c2[H])C([H])([H])N(C(=O)C([H])(N([H])C(=O)C([H])(N([H])C([H])([H])[H])C([H])([H])[H])C(C([H])([H])[H])(C([H])([H])[H])C([H])([H])[H])C([H])(C(=O)N([H])C2([H])c4c([H])c([H])c([H])c([H])c4C([H])([H])C([H])([H])C2([H])[H])C3([H])[H])c([H])c(N([H])C(=O)N2C([H])([H])C([H])([H])C([H])([H])C([H])(n3nc(-c4c([H])c([H])c(Oc5c([H])c([H])c(F)c([H])c5F)c([H])c4[H])c(C(=O)N([H])[H])c3N([H])[H])C2([H])[H])c1[H]

>  <smiles>  (89) 
[H]c1c([H])c(OC([H])([H])C([H])([H])C([H])([H])C([H])([H])N([H])C(=O)C([H])([H])C([H])([H])C([H])([H])Oc2c([H])c([H])c3c(c2[H])C([H])([H])N(C(=O)C([H])(N([H])C(=O)C([H])(N([H])C([H])([H])[H])C([H])([H])[H])C(C([H])([H])[H])(C([H])([H])[H])C([H])([H])[H])C([H])(C(=O)N([H])C2([H])c4c([H])c([H])c([H])c([H])c4C([H])([H])C([H])([H])C2([H])[H])C3([H])[H])c([H])c(N([H])C(=O)N2C([H])([H])C([H])([H])C([H])([H])C([H])(n3nc(-c4c([H])c([H])c(Oc5c([H])c([H])c(F)c([H])c5F)c([H])c4[H])c(C(=O)N([H])[H])c3N([H])[H])C2([H])[H])c1[H]

$$$$
91:0:0
     RDKit          3D

108114  0  0  1  0  0  0  0  0999 V2000
  -29.0570  -19.1110   17.8920 C   0  0  0  0  0  3  0  0  0  0  0  0
  -29.1150  -21.4850   18.8030 C   0  0  0  0  0  0  0  0  0  0  0  0
  -28.5660  -20.2410   18.7320 N   0  0  0  0  0  0  0  0  0  0  0  0
  -30.1110  -21.7850   18.1460 O   0  0  0  0  0  0  0  0  0  0  0  0
  -27.7920  -20.0340   19.3470 H   0  0  0  0  0  0  0  0  0  0  0  0
  -28.5120  -22.5460   19.7660 C   0  0  0  0  0  2  0  0  0  0  0  0
  -28.6880  -24.0620   19.3600 C   0  0  0  0  0  3  0  0  0  0  0  0
  -28.2890  -25.0980   20.4690 C   0  0  0  0  0  3  0  0  0  0  0  0
  -28.5130  -26.5240   20.1990 O   0  0  0  0  0  0  0  0  0  0  0  0
  -24.6100  -31.8140   23.1680 C   0  0  0  0  0  0  0  0  0  0  0  0
  -27.3800  -27.3290   20.1680 C   0  0  0  0  0  0  0  0  0  0  0  0
  -23.4820  -30.3950   21.4940 C   0  0  0  0  0  3  0  0  0  0  0  0
  -24.9920  -28.8620   20.1330 C   0  0  0  0  0  0  0  0  0  0  0  0
  -26.0220  -30.7590   21.3860 C   0  0  0  0  0  2  0  0  0  0  0  0
  -26.1380  -29.3850   20.7430 C   0  0  0  0  0  0  0  0  0  0  0  0
  -27.3450  -28.6290   20.7470 C   0  0  0  0  0  3  0  0  0  0  0  0
  -26.2080  -26.8500   19.5400 C   0  0  0  0  0  3  0  0  0  0  0  0
  -25.0180  -27.5920   19.5380 C   0  0  0  0  0  3  0  0  0  0  0  0
  -23.7490  -29.7190   20.1290 C   0  0  0  0  0  2  0  0  0  0  0  0
  -24.7230  -31.0070   22.0730 N   0  0  0  0  0  0  0  0  0  0  0  0
  -23.5040  -32.0730   23.6640 O   0  0  0  0  0  0  0  0  0  0  0  0
  -22.8090  -29.3640   22.4310 C   0  0  0  0  0  0  0  0  0  0  0  0
  -21.4850  -29.1880   22.2820 N   0  0  0  0  0  0  0  0  0  0  0  0
  -23.4740  -28.7300   23.2550 O   0  0  0  0  0  0  0  0  0  0  0  0
  -21.0070  -29.7540   21.5950 H   0  0  0  0  0  0  0  0  0  0  0  0
  -18.0950  -28.0190   22.7480 C   0  0  0  0  0  0  0  0  0  0  0  0
  -20.6550  -28.2440   23.0310 C   0  0  0  0  0  3  0  0  0  0  0  0
  -20.7400  -26.8210   22.4300 C   0  0  0  0  0  2  0  0  0  0  0  0
  -19.6370  -26.5290   21.4060 C   0  0  0  0  0  2  0  0  0  0  0  0
  -18.2560  -26.6810   22.0490 C   0  0  0  0  0  2  0  0  0  0  0  0
  -19.2210  -28.7600   23.1950 C   0  0  0  0  0  0  0  0  0  0  0  0
  -19.0140  -30.0150   23.8080 C   0  0  0  0  0  3  0  0  0  0  0  0
  -17.7130  -30.5280   23.9750 C   0  0  0  0  0  3  0  0  0  0  0  0
  -16.6030  -29.7840   23.5410 C   0  0  0  0  0  3  0  0  0  0  0  0
  -16.7940  -28.5300   22.9350 C   0  0  0  0  0  3  0  0  0  0  0  0
  -25.8570  -32.4700   23.8330 C   0  0  0  0  0  3  0  0  0  0  0  0
  -25.5020  -33.8550   24.1700 N   0  0  0  0  0  0  0  0  0  0  0  0
  -25.8360  -34.9270   23.4400 C   0  0  0  0  0  0  0  0  0  0  0  0
  -26.5430  -34.8530   22.4310 O   0  0  0  0  0  0  0  0  0  0  0  0
  -24.8700  -33.9850   24.9490 H   0  0  0  0  0  0  0  0  0  0  0  0
  -24.0750  -36.6810   23.0560 C   0  0  0  0  0  1  0  0  0  0  0  0
  -25.3010  -36.2970   23.9000 C   0  0  0  0  0  3  0  0  0  0  0  0
  -27.3900  -37.2190   24.8030 C   0  0  0  0  0  1  0  0  0  0  0  0
  -26.3110  -37.3750   23.8300 N   0  0  0  0  0  0  0  0  0  0  0  0
  -25.8810  -38.2840   23.9760 H   0  0  0  0  0  0  0  0  0  0  0  0
  -26.3580  -31.6960   25.1130 C   0  0  1  0  0  0  0  0  0  0  0  0
  -25.2390  -31.4150   26.1430 C   0  0  0  0  0  1  0  0  0  0  0  0
  -26.9860  -30.3410   24.7160 C   0  0  0  0  0  1  0  0  0  0  0  0
  -27.4720  -32.5080   25.8140 C   0  0  0  0  0  1  0  0  0  0  0  0
  -28.3380  -19.2710   16.5260 C   0  0  0  0  0  2  0  0  0  0  0  0
  -28.9230  -18.5030   15.3260 C   0  0  0  0  0  2  0  0  0  0  0  0
  -30.0240  -19.2450   14.5550 C   0  0  0  0  0  2  0  0  0  0  0  0
  -31.2990  -19.4970   15.3710 C   0  0  0  0  0  2  0  0  0  0  0  0
  -32.4620  -19.9480   14.4820 C   0  0  0  0  0  2  0  0  0  0  0  0
  -33.6650  -20.5210   15.2650 C   0  0  0  0  0  2  0  0  0  0  0  0
  -34.9350  -21.0170   13.1860 C   0  0  0  0  0  1  0  0  0  0  0  0
  -33.7380  -22.8290   14.3760 C   0  0  0  0  0  1  0  0  0  0  0  0
  -34.4370  -21.5240   14.4880 N   0  0  1  0  0  4  0  0  0  0  0  0
  -35.2610  -21.7140   15.0410 H   0  0  0  0  0  0  0  0  0  0  0  0
  -28.8490  -17.6690   18.5340 C   0  0  0  0  0  2  0  0  0  0  0  0
  -30.0380  -17.0950   19.2110 N   0  0  0  0  0  0  0  0  0  0  0  0
  -30.8910  -14.1420   22.0630 C   0  0  0  0  0  2  0  0  0  0  0  0
  -30.0770  -12.3610   19.8240 C   0  0  0  0  0  1  0  0  0  0  0  0
  -30.7030  -15.5360   21.2100 C   0  0  0  0  0  3  0  0  0  0  0  0
  -29.7960  -14.3070   18.7080 C   0  0  0  0  0  1  0  0  0  0  0  0
  -30.8050  -12.6300   21.3720 C   0  0  0  0  0  3  0  0  0  0  0  0
  -30.1710  -15.7150   19.6330 C   0  0  0  0  0  0  0  0  0  0  0  0
  -32.6480  -13.3940   20.2190 C   0  0  0  0  0  0  0  0  0  0  0  0
  -31.7380  -12.4690   18.2220 C   0  0  0  0  0  3  0  0  0  0  0  0
  -30.2240  -11.6750   17.4610 C   0  0  0  0  0  3  0  0  0  0  0  0
  -28.4720  -11.7300   18.0800 C   0  0  0  0  0  2  0  0  0  0  0  0
  -27.8330  -12.8790   19.3670 C   0  0  0  0  0  3  0  0  0  0  0  0
  -28.9150  -13.8400   20.5450 C   0  0  0  0  0  1  0  0  0  0  0  0
  -31.6220  -13.6260   19.5710 N   0  0  0  0  0  2  0  0  0  0  0  0
  -33.6590  -13.9250   19.8200 O   0  0  0  0  0  0  0  0  0  0  0  0
  -32.2450  -12.5620   21.2110 N   0  0  0  0  0  0  0  0  0  0  0  0
  -32.8670  -12.3290   21.9730 H   0  0  0  0  0  0  0  0  0  0  0  0
  -25.9010  -13.7280   20.3750 C   0  0  0  0  0  0  0  0  0  0  0  0
  -24.8280  -13.0660   20.8230 C   0  0  0  0  0  0  0  0  0  0  0  0
  -25.1400  -11.6700   20.7230 C   0  0  0  0  0  0  0  0  0  0  0  0
  -26.6910  -12.6950   19.9730 N   0  0  0  0  0  0  0  0  0  0  0  0
  -26.3440  -11.4570   20.2670 N   0  0  0  0  0  0  0  0  0  0  0  0
  -24.3330  -10.5010   20.9240 C   0  0  0  0  0  0  0  0  0  0  0  0
  -24.7210   -9.4910   21.8240 C   0  0  0  0  0  3  0  0  0  0  0  0
  -23.8830   -8.3790   22.0160 C   0  0  0  0  0  3  0  0  0  0  0  0
  -22.6660   -8.2850   21.3010 C   0  0  0  0  0  0  0  0  0  0  0  0
  -22.3210   -9.2760   20.3690 C   0  0  0  0  0  3  0  0  0  0  0  0
  -23.1570  -10.3790   20.1710 C   0  0  0  0  0  3  0  0  0  0  0  0
  -21.7870   -7.2440   21.4220 O   0  0  0  0  0  0  0  0  0  0  0  0
  -21.6830   -6.5440   22.5930 C   0  0  0  0  0  0  0  0  0  0  0  0
  -21.3310   -7.1640   23.8120 C   0  0  0  0  0  3  0  0  0  0  0  0
  -21.1640   -6.3830   24.9720 C   0  0  0  0  0  3  0  0  0  0  0  0
  -21.3450   -4.9880   24.9140 C   0  0  0  0  0  0  0  0  0  0  0  0
  -21.6960   -4.3720   23.6980 C   0  0  0  0  0  3  0  0  0  0  0  0
  -21.8630   -5.1510   22.5420 C   0  0  0  0  0  0  0  0  0  0  0  0
  -22.1850   -4.5550   21.3680 F   0  0  0  0  0  0  0  0  0  0  0  0
  -21.1720   -4.2350   26.0240 F   0  0  0  0  0  0  0  0  0  0  0  0
  -23.5520  -13.7180   21.1870 C   0  0  0  0  0  0  0  0  0  0  0  0
  -22.8250  -13.1110   22.1090 N   0  0  0  0  0  0  0  0  0  0  0  0
  -23.2370  -14.8040   20.6990 O   0  0  0  0  0  0  0  0  0  0  0  0
  -23.1240  -12.2450   22.5300 H   0  0  0  0  0  0  0  0  0  0  0  0
  -21.9510  -13.5170   22.4100 H   0  0  0  0  0  0  0  0  0  0  0  0
  -26.2400  -15.0810   20.2210 N   0  0  0  0  0  0  0  0  0  0  0  0
  -25.5750  -15.8090   20.4570 H   0  0  0  0  0  0  0  0  0  0  0  0
  -27.1040  -15.4280   19.8280 H   0  0  0  0  0  0  0  0  0  0  0  0
  -30.8430  -18.0850   19.9570 C   0  0  0  0  0  2  0  0  0  0  0  0
  -31.3050  -18.2710   22.4390 C   0  0  0  0  0  2  0  0  0  0  0  0
  -30.4380  -18.2200   21.4170 C   0  0  0  0  0  3  0  0  0  0  0  0
  1 50  1  0
  1 60  1  0
  1  3  1  0
  2  6  1  0
  3  2  1  0
  3  5  1  0
  4  2  2  0
  7  6  1  0
  7  8  2  0
  9  8  1  0
 10 21  2  0
 11  9  1  0
 11 16  1  0
 12 20  1  0
 12 22  1  0
 13 15  1  0
 14 20  1  0
 15 16  2  0
 15 14  1  0
 17 11  2  0
 18 17  1  0
 18 13  2  0
 19 13  1  0
 19 12  1  0
 20 10  1  0
 22 24  2  0
 23 22  1  0
 25 23  1  0
 26 35  2  0
 26 31  1  0
 27 23  1  0
 27 31  1  0
 28 27  1  0
 29 30  1  0
 29 28  1  0
 30 26  1  0
 31 32  2  0
 32 33  1  0
 34 33  2  0
 35 34  1  0
 36 10  1  0
 36 37  1  0
 36 46  1  0
 37 40  1  0
 38 42  1  0
 38 37  1  0
 39 38  2  0
 42 41  1  0
 44 42  1  0
 44 45  1  0
 44 43  1  0
 46 49  1  1
 46 47  1  0
 48 46  1  0
 51 50  1  0
 52 51  1  0
 52 53  1  0
 54 55  1  0
 54 53  1  0
 56 58  1  0
 57 58  1  0
 58 59  1  1
 58 55  1  0
 60 61  1  0
 61 67  1  0
 61106  1  0
 64 62  1  0
 65 67  1  0
 66 63  1  0
 66 62  1  0
 67 64  2  0
 68 76  1  0
 69 74  1  0
 70 71  1  0
 70 69  2  0
 71 72  1  0
 72 81  1  0
 72 73  1  0
 74 68  1  0
 75 68  2  0
 76 66  1  0
 76 77  1  0
 78 79  2  0
 79 98  1  0
 80 79  1  0
 80 83  1  0
 81 82  1  0
 81 78  1  0
 82 80  2  0
 83 84  1  0
 84 85  2  0
 86 89  1  0
 86 85  1  0
 87 86  2  0
 88 87  1  0
 88 83  2  0
 89 90  1  0
 90 91  1  0
 91 92  2  0
 93 92  1  0
 93 97  1  0
 94 93  2  0
 95 90  2  0
 95 94  1  0
 96 95  1  0
 98 99  1  0
 99102  1  0
 99101  1  0
100 98  2  0
103 78  1  0
103104  1  0
105103  1  0
106108  1  0
108107  2  0
M  ISO  4   8 101   9 101  68 100  76 100
M  END
>  <TORSDO>  (90) 
F 32

>  <SCORE>  (90) 
-9.720

>  <name>  (90) 
91

>  <ligand_id>  (90) 
91

>  <original_smiles>  (90) 
[H]C([H])=C([H])C([H])([H])N(c1c([H])c([H])c(N([H])C(=O)N2C([H])([H])C([H])([H])C([H])([H])C([H])(n3nc(-c4c([H])c([H])c(Oc5c([H])c([H])c(F)c([H])c5F)c([H])c4[H])c(C(=O)N([H])[H])c3N([H])[H])C2([H])[H])c([H])c1[H])C([H])([H])C([H])(N([H])C(=O)C([H])([H])C([H])([H])C([H])([H])Oc1c([H])c([H])c2c(c1[H])C([H])([H])N(C(=O)C([H])(N([H])C(=O)C([H])(N([H])C([H])([H])[H])C([H])([H])[H])C(C([H])([H])[H])(C([H])([H])[H])C([H])([H])[H])C([H])(C(=O)N([H])C1([H])c3c([H])c([H])c([H])c([H])c3C([H])([H])C([H])([H])C1([H])[H])C2([H])[H])C([H])([H])C([H])([H])C([H])([H])C([H])([H])C([H])([H])C([H])([H])[N+]([H])(C([H])([H])[H])C([H])([H])[H]

>  <smiles>  (90) 
[H]C([H])=C([H])C([H])([H])N(c1c([H])c([H])c(N([H])C(=O)N2C([H])([H])C([H])([H])C([H])([H])C([H])(n3nc(-c4c([H])c([H])c(Oc5c([H])c([H])c(F)c([H])c5F)c([H])c4[H])c(C(=O)N([H])[H])c3N([H])[H])C2([H])[H])c([H])c1[H])C([H])([H])C([H])(N([H])C(=O)C([H])([H])C([H])([H])C([H])([H])Oc1c([H])c([H])c2c(c1[H])C([H])([H])N(C(=O)C([H])(N([H])C(=O)C([H])(N([H])C([H])([H])[H])C([H])([H])[H])C(C([H])([H])[H])(C([H])([H])[H])C([H])([H])[H])C([H])(C(=O)N([H])C1([H])c3c([H])c([H])c([H])c([H])c3C([H])([H])C([H])([H])C1([H])[H])C2([H])[H])C([H])([H])C([H])([H])C([H])([H])C([H])([H])C([H])([H])C([H])([H])[N+]([H])(C([H])([H])[H])C([H])([H])[H]

$$$$
92:0:0
     RDKit          3D

109118  0  0  1  0  0  0  0  0999 V2000
  -26.0780  -25.8690   22.5750 C   0  0  0  0  0  0  0  0  0  0  0  0
  -25.3370  -25.3270   21.5230 N   0  0  0  0  0  0  0  0  0  0  0  0
  -25.6240  -26.7100   23.3550 O   0  0  0  0  0  0  0  0  0  0  0  0
  -24.3250  -28.0350   21.2350 C   0  0  0  0  0  2  0  0  0  0  0  0
  -23.2460  -29.6550   20.1570 C   0  0  0  0  0  2  0  0  0  0  0  0
  -24.0700  -26.4730   21.1390 C   0  0  0  0  0  0  0  0  0  0  0  0
  -21.8570  -29.0260   19.5800 C   0  0  0  0  0  0  0  0  0  0  0  0
  -22.6280  -26.3220   20.4770 C   0  0  0  0  0  0  0  0  0  0  0  0
  -21.6160  -27.4390   19.8120 C   0  0  0  0  0  0  0  0  0  0  0  0
  -20.9320  -29.7930   18.9600 F   0  0  0  0  0  0  0  0  0  0  0  0
  -22.3680  -25.0470   20.0950 F   0  0  0  0  0  0  0  0  0  0  0  0
  -20.5250  -27.0130   19.1700 F   0  0  0  0  0  0  0  0  0  0  0  0
  -26.0790  -23.8260   20.8630 C   0  0  0  0  0  2  0  0  0  0  0  0
  -29.2690  -22.0020   22.8960 C   0  0  0  0  0  3  0  0  0  0  0  0
  -29.6650  -20.7280   22.3840 C   0  0  0  0  0  3  0  0  0  0  0  0
  -28.2390  -22.8460   22.3870 C   0  0  0  0  0  3  0  0  0  0  0  0
  -27.9640  -21.1420   20.7360 C   0  0  0  0  0  3  0  0  0  0  0  0
  -29.0940  -20.1060   21.2390 C   0  0  0  0  0  0  0  0  0  0  0  0
  -27.4270  -22.5670   21.2530 C   0  0  0  0  0  0  0  0  0  0  0  0
  -29.9040  -18.5280   20.6380 C   0  0  0  0  0  2  0  0  0  0  0  0
  -31.1900  -15.6350   20.9740 C   0  0  0  0  0  0  0  0  0  0  0  0
  -31.6500  -13.0750   20.3650 C   0  0  0  0  0  2  0  0  0  0  0  0
  -30.9600  -12.5990   19.0550 C   0  0  0  0  0  2  0  0  0  0  0  0
  -29.4770  -12.2620   19.3140 C   0  0  0  0  0  2  0  0  0  0  0  0
  -28.8190  -13.3490   20.1900 C   0  0  0  0  0  3  0  0  0  0  0  0
  -29.6270  -13.6490   21.4580 C   0  0  0  0  0  2  0  0  0  0  0  0
  -30.8680  -14.2350   20.9840 N   0  0  0  0  0  0  0  0  0  0  0  0
  -32.4260  -15.7330   20.7900 O   0  0  0  0  0  0  0  0  0  0  0  0
  -30.1870  -16.8290   21.0530 N   0  0  0  0  0  0  0  0  0  0  0  0
  -29.3270  -16.4640   21.4380 H   0  0  0  0  0  0  0  0  0  0  0  0
  -26.4330  -14.0100   20.7360 C   0  0  0  0  0  0  0  0  0  0  0  0
  -25.3150  -13.2740   20.9970 C   0  0  0  0  0  0  0  0  0  0  0  0
  -25.7210  -11.9050   20.9720 C   0  0  0  0  0  0  0  0  0  0  0  0
  -27.4400  -13.0860   20.5380 N   0  0  0  0  0  0  0  0  0  0  0  0
  -27.0260  -11.8130   20.7580 N   0  0  0  0  0  0  0  0  0  0  0  0
  -24.9230  -10.6780   21.0630 C   0  0  0  0  0  0  0  0  0  0  0  0
  -25.1700   -9.7070   22.0590 C   0  0  0  0  0  3  0  0  0  0  0  0
  -24.3720   -8.5460   22.1360 C   0  0  0  0  0  3  0  0  0  0  0  0
  -23.3170   -8.3480   21.2120 C   0  0  0  0  0  0  0  0  0  0  0  0
  -23.0980   -9.3030   20.2040 C   0  0  0  0  0  3  0  0  0  0  0  0
  -23.8960  -10.4540   20.1250 C   0  0  0  0  0  3  0  0  0  0  0  0
  -22.5060   -7.2370   21.1960 O   0  0  0  0  0  0  0  0  0  0  0  0
  -22.1510   -6.5870   22.3520 C   0  0  0  0  0  0  0  0  0  0  0  0
  -21.5270   -7.2620   23.4250 C   0  0  0  0  0  3  0  0  0  0  0  0
  -21.1160   -6.5400   24.5640 C   0  0  0  0  0  3  0  0  0  0  0  0
  -21.3160   -5.1490   24.6300 C   0  0  0  0  0  0  0  0  0  0  0  0
  -21.9300   -4.4780   23.5610 C   0  0  0  0  0  3  0  0  0  0  0  0
  -22.3450   -5.1930   22.4250 C   0  0  0  0  0  0  0  0  0  0  0  0
  -22.9180   -4.5400   21.3850 F   0  0  0  0  0  0  0  0  0  0  0  0
  -20.9120   -4.4550   25.7170 F   0  0  0  0  0  0  0  0  0  0  0  0
  -23.9240  -13.8140   21.1500 C   0  0  0  0  0  0  0  0  0  0  0  0
  -23.0980  -13.1710   21.9690 N   0  0  0  0  0  0  0  0  0  0  0  0
  -23.5770  -14.8500   20.5800 O   0  0  0  0  0  0  0  0  0  0  0  0
  -23.3840  -12.3400   22.4680 H   0  0  0  0  0  0  0  0  0  0  0  0
  -22.1560  -13.5190   22.0980 H   0  0  0  0  0  0  0  0  0  0  0  0
  -26.6650  -15.3790   20.6190 N   0  0  0  0  0  0  0  0  0  0  0  0
  -25.8780  -16.0160   20.6010 H   0  0  0  0  0  0  0  0  0  0  0  0
  -27.5210  -15.8160   20.3120 H   0  0  0  0  0  0  0  0  0  0  0  0
  -27.5060  -25.4240   22.9710 C   0  0  0  0  0  2  0  0  0  0  0  0
  -28.7100  -26.2840   22.6950 N   0  0  1  0  0  4  0  0  0  0  0  0
  -28.6350  -26.5780   21.7220 H   0  0  0  0  0  0  0  0  0  0  0  0
  -28.8220  -27.5780   23.4570 C   0  0  0  0  0  2  0  0  0  0  0  0
  -30.4240  -29.5900   24.1380 C   0  0  0  0  0  1  0  0  0  0  0  0
  -30.2560  -28.2170   23.4580 C   0  0  0  0  0  2  0  0  0  0  0  0
  -29.9410  -25.4040   22.7120 C   0  0  0  0  0  3  0  0  0  0  0  0
  -30.7880  -25.3120   21.3930 C   0  0  0  0  0  3  0  0  0  0  0  0
  -30.6950  -25.7430   19.8850 C   0  0  0  0  0  2  0  0  0  0  0  0
  -30.3130  -27.2060   19.6350 C   0  0  0  0  0  2  0  0  0  0  0  0
  -29.2720  -27.4000   20.5660 O   0  0  0  0  0  0  0  0  0  0  0  0
  -24.9130  -31.9820   23.6030 C   0  0  0  0  0  0  0  0  0  0  0  0
  -28.1890  -28.0480   20.1570 C   0  0  0  0  0  0  0  0  0  0  0  0
  -23.6060  -29.9770   22.3100 C   0  0  0  0  0  2  0  0  0  0  0  0
  -25.9890  -29.1870   19.1790 C   0  0  0  0  0  0  0  0  0  0  0  0
  -26.4210  -31.1200   21.6160 C   0  0  0  0  0  2  0  0  0  0  0  0
  -26.8610  -30.1110   20.1750 C   0  0  0  0  0  0  0  0  0  0  0  0
  -28.0230  -29.3970   20.5250 C   0  0  0  0  0  3  0  0  0  0  0  0
  -27.3200  -27.2910   19.3890 C   0  0  0  0  0  3  0  0  0  0  0  0
  -26.3410  -27.9460   18.7440 C   0  0  0  0  0  3  0  0  0  0  0  0
  -24.4070  -28.6220   19.4320 C   0  0  0  0  0  3  0  0  0  0  0  0
  -25.0170  -31.0250   22.6460 N   0  0  0  0  0  0  0  0  0  0  0  0
  -23.8200  -32.2460   24.1150 O   0  0  0  0  0  0  0  0  0  0  0  0
  -23.0500  -29.2920   23.4020 C   0  0  0  0  0  0  0  0  0  0  0  0
  -21.7780  -29.0610   23.1450 N   0  0  0  0  0  0  0  0  0  0  0  0
  -23.7680  -28.8460   24.2680 O   0  0  0  0  0  0  0  0  0  0  0  0
  -21.3600  -29.4880   22.3280 H   0  0  0  0  0  0  0  0  0  0  0  0
  -18.5960  -27.6000   23.1290 C   0  0  0  0  0  0  0  0  0  0  0  0
  -21.0060  -28.0600   23.7590 C   0  0  0  0  0  3  0  0  0  0  0  0
  -21.3090  -26.6310   23.2680 C   0  0  0  0  0  2  0  0  0  0  0  0
  -20.4070  -26.1090   22.1280 C   0  0  0  0  0  2  0  0  0  0  0  0
  -18.9430  -26.2480   22.5270 C   0  0  0  0  0  2  0  0  0  0  0  0
  -19.5730  -28.4740   23.6510 C   0  0  0  0  0  0  0  0  0  0  0  0
  -19.2110  -29.7420   24.1580 C   0  0  0  0  0  3  0  0  0  0  0  0
  -17.8590  -30.1170   24.2030 C   0  0  0  0  0  3  0  0  0  0  0  0
  -16.8760  -29.2180   23.7510 C   0  0  0  0  0  3  0  0  0  0  0  0
  -17.2460  -27.9750   23.2070 C   0  0  0  0  0  3  0  0  0  0  0  0
  -26.1670  -32.7470   24.1240 C   0  0  0  0  0  3  0  0  0  0  0  0
  -25.8120  -34.1510   24.4010 N   0  0  0  0  0  0  0  0  0  0  0  0
  -26.1080  -35.2000   23.6220 C   0  0  0  0  0  0  0  0  0  0  0  0
  -26.7820  -35.1030   22.5940 O   0  0  0  0  0  0  0  0  0  0  0  0
  -25.2470  -34.3210   25.2220 H   0  0  0  0  0  0  0  0  0  0  0  0
  -24.3050  -36.9120   23.2440 C   0  0  0  0  0  1  0  0  0  0  0  0
  -25.5680  -36.5800   24.0540 C   0  0  0  0  0  3  0  0  0  0  0  0
  -27.6730  -37.5730   24.8430 C   0  0  0  0  0  1  0  0  0  0  0  0
  -26.5520  -37.6740   23.9110 N   0  0  0  0  0  0  0  0  0  0  0  0
  -26.1070  -38.5780   24.0530 H   0  0  0  0  0  0  0  0  0  0  0  0
  -26.7400  -32.0650   25.4270 C   0  0  1  0  0  0  0  0  0  0  0  0
  -25.6510  -31.7660   26.4890 C   0  0  0  0  0  1  0  0  0  0  0  0
  -27.4490  -30.7280   25.1000 C   0  0  0  0  0  1  0  0  0  0  0  0
  -27.8050  -32.9750   26.0810 C   0  0  0  0  0  1  0  0  0  0  0  0
  1 59  1  0
  1  3  2  0
  2  1  1  0
  6  4  1  0
  6  2  1  0
  7  9  2  0
  7  5  1  0
  8  6  2  0
  9  8  1  0
 10  7  1  0
 11  8  1  0
 12  9  1  0
 13 19  1  0
 13  2  1  0
 15 14  2  0
 16 14  1  0
 17 18  2  0
 17 19  1  0
 18 15  1  0
 19 16  2  0
 20 29  1  0
 20 18  1  0
 21 27  1  0
 21 29  1  0
 22 27  1  0
 23 24  1  0
 23 22  1  0
 25 24  1  0
 25 34  1  0
 25 26  1  0
 27 26  1  0
 28 21  2  0
 29 30  1  0
 31 32  2  0
 32 51  1  0
 33 32  1  0
 33 36  1  0
 34 31  1  0
 34 35  1  0
 35 33  2  0
 36 37  1  0
 37 38  2  0
 39 38  1  0
 40 39  2  0
 41 40  1  0
 41 36  2  0
 42 39  1  0
 42 43  1  0
 43 48  2  0
 43 44  1  0
 44 45  2  0
 45 46  1  0
 46 50  1  0
 47 46  2  0
 48 47  1  0
 49 48  1  0
 51 52  1  0
 52 55  1  0
 52 54  1  0
 53 51  2  0
 56 31  1  0
 57 56  1  0
 58 56  1  0
 60 65  1  0
 60 59  1  0
 60 62  1  0
 60 61  1  6
 62 64  1  0
 64 63  1  0
 66 65  2  0
 67 66  1  0
 68 67  1  0
 68 69  1  0
 70 81  2  0
 71 76  1  0
 71 69  1  0
 72 80  1  0
 72 82  1  0
 73 79  1  0
 73 75  1  0
 74 80  1  0
 75 76  2  0
 75 74  1  0
 77 71  2  0
 78 73  2  0
 78 77  1  0
 79  5  1  0
 79  4  1  0
 80 70  1  0
 82 84  2  0
 83 82  1  0
 85 83  1  0
 86 95  2  0
 86 91  1  0
 87 83  1  0
 88 87  1  0
 89 90  1  0
 89 88  1  0
 90 86  1  0
 91 87  1  0
 91 92  2  0
 92 93  1  0
 94 93  2  0
 95 94  1  0
 96 70  1  0
 96 97  1  0
 96106  1  0
 97100  1  0
 98102  1  0
 98 97  1  0
 99 98  2  0
102101  1  0
104105  1  0
104102  1  0
104103  1  0
106109  1  1
106107  1  0
108106  1  0
M  ISO  4  21 100  29 100  68 101  69 101
M  END
>  <TORSDO>  (91) 
F 28

>  <SCORE>  (91) 
-6.114

>  <name>  (91) 
92

>  <ligand_id>  (91) 
92

>  <original_smiles>  (91) 
[H]c1c([H])c(C([H])([H])N([H])C(=O)N2C([H])([H])C([H])([H])C([H])([H])C([H])(n3nc(-c4c([H])c([H])c(Oc5c([H])c([H])c(F)c([H])c5F)c([H])c4[H])c(C(=O)N([H])[H])c3N([H])[H])C2([H])[H])c([H])c(C([H])([H])N(C(=O)C([H])([H])[N+]([H])(C([H])([H])C([H])([H])C([H])([H])[H])C([H])([H])C([H])([H])C([H])([H])C([H])([H])Oc2c([H])c([H])c3c(c2[H])C([H])([H])N(C(=O)C([H])(N([H])C(=O)C([H])(N([H])C([H])([H])[H])C([H])([H])[H])C(C([H])([H])[H])(C([H])([H])[H])C([H])([H])[H])C([H])(C(=O)N([H])C2([H])c4c([H])c([H])c([H])c([H])c4C([H])([H])C([H])([H])C2([H])[H])C3([H])[H])c2c([H])c([H])c(F)c(F)c2F)c1[H]

>  <smiles>  (91) 
[H]c1c([H])c(C([H])([H])N([H])C(=O)N2C([H])([H])C([H])([H])C([H])([H])C([H])(n3nc(-c4c([H])c([H])c(Oc5c([H])c([H])c(F)c([H])c5F)c([H])c4[H])c(C(=O)N([H])[H])c3N([H])[H])C2([H])[H])c([H])c(C([H])([H])N(C(=O)C([H])([H])[N+]([H])(C([H])([H])C([H])([H])C([H])([H])[H])C([H])([H])C([H])([H])C([H])([H])C([H])([H])Oc2c([H])c([H])c3c(c2[H])C([H])([H])N(C(=O)C([H])(N([H])C(=O)C([H])(N([H])C([H])([H])[H])C([H])([H])[H])C(C([H])([H])[H])(C([H])([H])[H])C([H])([H])[H])C([H])(C(=O)N([H])C2([H])c4c([H])c([H])c([H])c([H])c4C([H])([H])C([H])([H])C2([H])[H])C3([H])[H])c2c([H])c([H])c(F)c(F)c2F)c1[H]

$$$$
93:0:0
     RDKit          3D

108114  0  0  1  0  0  0  0  0999 V2000
  -31.7160  -23.3920   18.3020 C   0  0  0  0  0  2  0  0  0  0  0  0
  -33.3850  -23.2140   16.4350 C   0  0  0  0  0  0  0  0  0  0  0  0
  -32.8200  -23.9040   17.4590 N   0  0  0  0  0  0  0  0  0  0  0  0
  -34.2210  -23.7250   15.6800 O   0  0  0  0  0  0  0  0  0  0  0  0
  -33.3390  -25.2390   17.8170 C   0  0  0  0  0  2  0  0  0  0  0  0
  -32.5800  -26.0070   18.9320 C   0  0  0  0  0  2  0  0  0  0  0  0
  -32.4400  -27.5430   18.8280 C   0  0  0  0  0  2  0  0  0  0  0  0
  -33.5120  -28.0300   18.0320 O   0  0  0  0  0  0  0  0  0  0  0  0
  -36.5850  -34.4200   19.1520 C   0  0  0  0  0  0  0  0  0  0  0  0
  -34.4590  -28.8160   18.6470 C   0  0  0  0  0  0  0  0  0  0  0  0
  -37.7150  -32.4600   20.1550 C   0  0  0  0  0  3  0  0  0  0  0  0
  -36.4040  -30.2750   20.0820 C   0  0  0  0  0  0  0  0  0  0  0  0
  -35.1950  -32.4340   19.7220 C   0  0  0  0  0  2  0  0  0  0  0  0
  -35.3070  -30.9380   19.5180 C   0  0  0  0  0  0  0  0  0  0  0  0
  -34.3350  -30.2180   18.7930 C   0  0  0  0  0  3  0  0  0  0  0  0
  -35.5680  -28.1640   19.2170 C   0  0  0  0  0  3  0  0  0  0  0  0
  -36.5470  -28.8830   19.9260 C   0  0  0  0  0  3  0  0  0  0  0  0
  -37.3880  -31.1170   20.8600 C   0  0  0  0  0  2  0  0  0  0  0  0
  -36.4920  -33.1460   19.6280 N   0  0  0  0  0  0  0  0  0  0  0  0
  -37.6580  -35.0390   19.1840 O   0  0  0  0  0  0  0  0  0  0  0  0
  -38.7840  -32.1960   19.0720 C   0  0  0  0  0  0  0  0  0  0  0  0
  -39.6510  -31.2000   19.3180 N   0  0  0  0  0  0  0  0  0  0  0  0
  -38.8040  -32.8540   18.0290 O   0  0  0  0  0  0  0  0  0  0  0  0
  -39.5720  -30.7090   20.1970 H   0  0  0  0  0  0  0  0  0  0  0  0
  -41.7870  -28.3980   18.5240 C   0  0  0  0  0  0  0  0  0  0  0  0
  -40.7160  -30.7490   18.4240 C   0  0  0  0  0  3  0  0  0  0  0  0
  -40.1430  -30.3190   17.0540 C   0  0  0  0  0  2  0  0  0  0  0  0
  -39.8320  -28.8220   16.9730 C   0  0  0  0  0  2  0  0  0  0  0  0
  -41.0960  -27.9940   17.2330 C   0  0  0  0  0  2  0  0  0  0  0  0
  -41.5960  -29.6860   19.0920 C   0  0  0  0  0  0  0  0  0  0  0  0
  -42.2350  -29.9990   20.3110 C   0  0  0  0  0  3  0  0  0  0  0  0
  -43.0520  -29.0530   20.9590 C   0  0  0  0  0  3  0  0  0  0  0  0
  -43.2500  -27.7860   20.3840 C   0  0  0  0  0  3  0  0  0  0  0  0
  -42.6220  -27.4620   19.1690 C   0  0  0  0  0  3  0  0  0  0  0  0
  -35.3470  -35.1660   18.5640 C   0  0  0  0  0  3  0  0  0  0  0  0
  -35.6200  -36.6070   18.6420 N   0  0  0  0  0  0  0  0  0  0  0  0
  -34.8360  -37.4960   19.2660 C   0  0  0  0  0  0  0  0  0  0  0  0
  -33.7550  -37.1920   19.7780 O   0  0  0  0  0  0  0  0  0  0  0  0
  -36.5140  -36.9190   18.2930 H   0  0  0  0  0  0  0  0  0  0  0  0
  -35.6080  -39.3390   20.7920 C   0  0  0  0  0  1  0  0  0  0  0  0
  -35.3280  -38.9530   19.3310 C   0  0  0  0  0  3  0  0  0  0  0  0
  -34.2920  -39.8160   17.2790 C   0  0  0  0  0  1  0  0  0  0  0  0
  -34.3840  -39.9220   18.7340 N   0  0  0  0  0  0  0  0  0  0  0  0
  -34.6510  -40.8750   18.9660 H   0  0  0  0  0  0  0  0  0  0  0  0
  -35.0090  -34.7380   17.0840 C   0  0  1  0  0  0  0  0  0  0  0  0
  -36.2400  -34.7170   16.1490 C   0  0  0  0  0  1  0  0  0  0  0  0
  -34.3660  -33.3310   17.0550 C   0  0  0  0  0  1  0  0  0  0  0  0
  -33.9670  -35.7120   16.4830 C   0  0  0  0  0  1  0  0  0  0  0  0
  -33.0470  -21.7270   16.2340 C   0  0  0  0  0  2  0  0  0  0  0  0
  -33.9380  -21.0550   15.1540 C   0  0  0  0  0  2  0  0  0  0  0  0
  -34.3580  -19.6060   15.4650 C   0  0  0  0  0  2  0  0  0  0  0  0
  -35.5990  -18.0480   16.8940 C   0  0  0  0  0  1  0  0  0  0  0  0
  -36.5220  -20.2810   16.5160 C   0  0  0  0  0  1  0  0  0  0  0  0
  -35.2850  -19.4690   16.6230 N   0  0  1  0  0  4  0  0  0  0  0  0
  -34.7970  -19.7980   17.4430 H   0  0  0  0  0  0  0  0  0  0  0  0
  -31.6250  -24.0000   19.7300 C   0  0  0  0  0  2  0  0  0  0  0  0
  -30.2230  -23.8100   20.3690 C   0  0  0  0  0  2  0  0  0  0  0  0
  -29.3140  -22.8000   19.6130 C   0  0  0  0  0  2  0  0  0  0  0  0
  -27.7770  -22.9540   19.8330 C   0  0  0  0  0  2  0  0  0  0  0  0
  -27.1320  -24.1860   19.1240 C   0  0  0  0  0  2  0  0  0  0  0  0
  -26.3060  -23.8600   17.8450 C   0  0  0  0  0  2  0  0  0  0  0  0
  -26.2900  -22.4590   17.4920 O   0  0  0  0  0  0  0  0  0  0  0  0
  -30.0570  -19.9950   17.9480 C   0  0  0  0  0  1  0  0  0  0  0  0
  -27.7750  -18.6810   17.6740 C   0  0  0  0  0  2  0  0  0  0  0  0
  -28.9890  -21.7980   17.7170 C   0  0  0  0  0  2  0  0  0  0  0  0
  -26.8250  -19.9900   17.6160 C   0  0  0  0  0  0  0  0  0  0  0  0
  -29.3790  -18.6650   17.6930 C   0  0  0  0  0  3  0  0  0  0  0  0
  -27.3370  -21.5340   17.6040 C   0  0  0  0  0  0  0  0  0  0  0  0
  -29.2990  -23.2570   17.2360 C   0  0  0  0  0  1  0  0  0  0  0  0
  -25.3240  -19.7580   17.6470 C   0  0  0  0  0  1  0  0  0  0  0  0
  -31.5050  -17.8210   16.3540 C   0  0  0  0  0  0  0  0  0  0  0  0
  -31.6530  -18.5270   18.2580 C   0  0  0  0  0  1  0  0  0  0  0  0
  -29.1080  -18.1230   20.1850 C   0  0  0  0  0  1  0  0  0  0  0  0
  -28.8750  -16.2110   20.1910 C   0  0  0  0  0  3  0  0  0  0  0  0
  -30.0000  -15.0740   19.1540 C   0  0  0  0  0  0  0  0  0  0  0  0
  -31.2190  -15.4980   17.7530 C   0  0  0  0  0  2  0  0  0  0  0  0
  -31.8790  -17.0750   17.3910 N   0  0  0  0  0  0  0  0  0  0  0  0
  -32.4720  -18.4150   15.8670 O   0  0  0  0  0  0  0  0  0  0  0  0
  -30.1680  -18.4150   16.3930 N   0  0  0  0  0  0  0  0  0  0  0  0
  -30.0030  -19.0940   15.6600 H   0  0  0  0  0  0  0  0  0  0  0  0
  -30.2090  -12.6850   18.6080 C   0  0  0  0  0  0  0  0  0  0  0  0
  -29.4660  -11.6570   19.0730 C   0  0  0  0  0  0  0  0  0  0  0  0
  -28.3330  -12.2420   19.7250 C   0  0  0  0  0  0  0  0  0  0  0  0
  -29.5070  -13.7920   19.0290 N   0  0  0  0  0  0  0  0  0  0  0  0
  -28.3380  -13.5520   19.6190 N   0  0  0  0  0  0  0  0  0  0  0  0
  -27.2650  -11.6560   20.5090 C   0  0  0  0  0  0  0  0  0  0  0  0
  -26.0160  -11.3790   19.9190 C   0  0  0  0  0  3  0  0  0  0  0  0
  -25.0000  -10.7690   20.6810 C   0  0  0  0  0  3  0  0  0  0  0  0
  -25.2410  -10.4330   22.0330 C   0  0  0  0  0  0  0  0  0  0  0  0
  -26.4770  -10.7530   22.6200 C   0  0  0  0  0  3  0  0  0  0  0  0
  -27.4840  -11.3660   21.8660 C   0  0  0  0  0  3  0  0  0  0  0  0
  -24.3150   -9.8360   22.8480 O   0  0  0  0  0  0  0  0  0  0  0  0
  -23.5840   -8.7610   22.4220 C   0  0  0  0  0  0  0  0  0  0  0  0
  -24.1850   -7.5280   22.0830 C   0  0  0  0  0  3  0  0  0  0  0  0
  -23.3820   -6.4320   21.7140 C   0  0  0  0  0  3  0  0  0  0  0  0
  -21.9810   -6.5590   21.7020 C   0  0  0  0  0  0  0  0  0  0  0  0
  -21.3800   -7.7830   22.0440 C   0  0  0  0  0  3  0  0  0  0  0  0
  -22.1800   -8.8800   22.4060 C   0  0  0  0  0  0  0  0  0  0  0  0
  -21.5970  -10.0530   22.7530 F   0  0  0  0  0  0  0  0  0  0  0  0
  -21.2060   -5.5010   21.3630 F   0  0  0  0  0  0  0  0  0  0  0  0
  -29.8530  -10.2180   19.0230 C   0  0  0  0  0  0  0  0  0  0  0  0
  -28.8650   -9.3430   18.9200 N   0  0  0  0  0  0  0  0  0  0  0  0
  -31.0350   -9.8720   19.0190 O   0  0  0  0  0  0  0  0  0  0  0  0
  -27.9010   -9.6420   18.8790 H   0  0  0  0  0  0  0  0  0  0  0  0
  -29.0740   -8.3570   18.8700 H   0  0  0  0  0  0  0  0  0  0  0  0
  -31.4400  -12.7770   17.9540 N   0  0  0  0  0  0  0  0  0  0  0  0
  -31.9680  -11.9440   17.7160 H   0  0  0  0  0  0  0  0  0  0  0  0
  -31.9090  -13.6330   17.6940 H   0  0  0  0  0  0  0  0  0  0  0  0
  1 56  1  0
  2  3  1  0
  3  5  1  0
  3  1  1  0
  4  2  2  0
  5  6  1  0
  7  6  1  0
  8 10  1  0
  8  7  1  0
  9 20  2  0
  9 19  1  0
 10 15  2  0
 10 16  1  0
 11 21  1  0
 11 18  1  0
 12 18  1  0
 14 13  1  0
 14 12  2  0
 15 14  1  0
 16 17  2  0
 17 12  1  0
 19 13  1  0
 19 11  1  0
 21 22  1  0
 22 24  1  0
 23 21  2  0
 25 30  2  0
 25 34  1  0
 26 30  1  0
 26 22  1  0
 27 26  1  0
 28 27  1  0
 28 29  1  0
 29 25  1  0
 30 31  1  0
 31 32  2  0
 33 32  1  0
 34 33  2  0
 35 36  1  0
 35  9  1  0
 36 37  1  0
 37 41  1  0
 37 38  2  0
 39 36  1  0
 41 40  1  0
 42 43  1  0
 43 44  1  0
 43 41  1  0
 45 35  1  0
 45 46  1  6
 47 45  1  0
 48 45  1  0
 49  2  1  0
 50 51  1  0
 50 49  1  0
 51 54  1  0
 53 54  1  0
 54 52  1  0
 54 55  1  1
 56 57  1  0
 58 59  1  0
 58 57  1  0
 60 59  1  0
 61 60  1  0
 62 68  1  0
 62 61  1  0
 64 67  1  0
 66 70  1  0
 66 64  1  0
 67 63  1  0
 68 66  2  0
 68 65  1  0
 69 65  1  0
 71 79  1  0
 71 77  1  0
 73 74  1  0
 75 74  2  0
 76 75  1  0
 77 76  1  0
 77 72  1  0
 78 71  2  0
 79 67  1  0
 80 79  1  0
 81 84  1  0
 81 82  2  0
 82 83  1  0
 83 86  1  0
 84 75  1  0
 84 85  1  0
 85 83  2  0
 86 91  1  0
 87 86  2  0
 87 88  1  0
 88 89  2  0
 89 90  1  0
 89 92  1  0
 91 90  2  0
 93 92  1  0
 94 93  2  0
 95 94  1  0
 96 95  2  0
 96 97  1  0
 97 98  2  0
 98 93  1  0
 98 99  1  0
100 96  1  0
101 82  1  0
102101  1  0
103101  2  0
104102  1  0
105102  1  0
106 81  1  0
107106  1  0
108106  1  0
M  ISO  4   7 101   8 101  71 100  79 100
M  END
>  <TORSDO>  (92) 
F 32

>  <SCORE>  (92) 
-1.729

>  <name>  (92) 
93

>  <ligand_id>  (92) 
93

>  <original_smiles>  (92) 
[H]c1c([H])c([H])c2c(c1[H])C([H])([H])C([H])([H])C([H])([H])C2([H])N([H])C(=O)C1([H])N(C(=O)C([H])(N([H])C(=O)C([H])(N([H])C([H])([H])[H])C([H])([H])[H])C(C([H])([H])[H])(C([H])([H])[H])C([H])([H])[H])C([H])([H])c2c([H])c(OC([H])([H])C([H])([H])C([H])([H])N(C(=O)C([H])([H])C([H])([H])C([H])([H])[N+]([H])(C([H])([H])[H])C([H])([H])[H])C([H])([H])C([H])([H])C([H])([H])C([H])([H])C([H])([H])C([H])([H])C([H])([H])Oc3c(C([H])([H])[H])c([H])c(N([H])C(=O)N4C([H])([H])C([H])([H])C([H])([H])C([H])(n5nc(-c6c([H])c([H])c(Oc7c([H])c([H])c(F)c([H])c7F)c([H])c6[H])c(C(=O)N([H])[H])c5N([H])[H])C4([H])[H])c([H])c3C([H])([H])[H])c([H])c([H])c2C1([H])[H]

>  <smiles>  (92) 
[H]c1c([H])c([H])c2c(c1[H])C([H])([H])C([H])([H])C([H])([H])C2([H])N([H])C(=O)C1([H])N(C(=O)C([H])(N([H])C(=O)C([H])(N([H])C([H])([H])[H])C([H])([H])[H])C(C([H])([H])[H])(C([H])([H])[H])C([H])([H])[H])C([H])([H])c2c([H])c(OC([H])([H])C([H])([H])C([H])([H])N(C(=O)C([H])([H])C([H])([H])C([H])([H])[N+]([H])(C([H])([H])[H])C([H])([H])[H])C([H])([H])C([H])([H])C([H])([H])C([H])([H])C([H])([H])C([H])([H])C([H])([H])Oc3c(C([H])([H])[H])c([H])c(N([H])C(=O)N4C([H])([H])C([H])([H])C([H])([H])C([H])(n5nc(-c6c([H])c([H])c(Oc7c([H])c([H])c(F)c([H])c7F)c([H])c6[H])c(C(=O)N([H])[H])c5N([H])[H])C4([H])[H])c([H])c3C([H])([H])[H])c([H])c([H])c2C1([H])[H]

$$$$
94:0:0
     RDKit          3D

100108  0  0  1  0  0  0  0  0999 V2000
  -32.5890  -23.4360   17.9590 C   0  0  0  0  0  2  0  0  0  0  0  0
  -31.4270  -23.8280   17.0220 C   0  0  0  0  0  2  0  0  0  0  0  0
  -30.9980  -25.2960   17.1880 C   0  0  0  0  0  2  0  0  0  0  0  0
  -30.5130  -25.5260   18.5680 N   0  0  0  0  0  4  0  0  0  0  0  0
  -31.0980  -24.9550   19.1560 H   0  0  0  0  0  0  0  0  0  0  0  0
  -29.5680  -25.1830   18.6660 H   0  0  0  0  0  0  0  0  0  0  0  0
  -31.0920  -26.9020   20.5440 C   0  0  0  0  0  1  0  0  0  0  0  0
  -30.6000  -26.9110   19.0870 C   0  0  0  0  0  3  0  0  0  0  0  0
  -29.2540  -27.6420   18.9510 C   0  0  0  0  0  2  0  0  0  0  0  0
  -28.2760  -26.9730   19.7480 O   0  0  0  0  0  0  0  0  0  0  0  0
  -24.5020  -31.9370   23.2180 C   0  0  0  0  0  0  0  0  0  0  0  0
  -27.1060  -27.6760   19.8840 C   0  0  0  0  0  0  0  0  0  0  0  0
  -23.2590  -30.5820   21.5600 C   0  0  0  0  0  3  0  0  0  0  0  0
  -24.6850  -29.1090   20.0470 C   0  0  0  0  0  0  0  0  0  0  0  0
  -25.7690  -30.9850   21.2980 C   0  0  0  0  0  2  0  0  0  0  0  0
  -25.8510  -29.6380   20.6150 C   0  0  0  0  0  0  0  0  0  0  0  0
  -27.0640  -28.9240   20.5420 C   0  0  0  0  0  3  0  0  0  0  0  0
  -25.9220  -27.1350   19.3430 C   0  0  0  0  0  3  0  0  0  0  0  0
  -24.7120  -27.8510   19.4160 C   0  0  0  0  0  3  0  0  0  0  0  0
  -23.4340  -29.9500   20.1540 C   0  0  0  0  0  2  0  0  0  0  0  0
  -24.5300  -31.1800   22.0850 N   0  0  0  0  0  0  0  0  0  0  0  0
  -23.4360  -32.1790   23.8000 O   0  0  0  0  0  0  0  0  0  0  0  0
  -22.6480  -29.5210   22.5020 C   0  0  0  0  0  0  0  0  0  0  0  0
  -21.3260  -29.3110   22.3870 N   0  0  0  0  0  0  0  0  0  0  0  0
  -23.3580  -28.8900   23.2900 O   0  0  0  0  0  0  0  0  0  0  0  0
  -20.8150  -29.8740   21.7220 H   0  0  0  0  0  0  0  0  0  0  0  0
  -17.9900  -28.0180   22.8790 C   0  0  0  0  0  0  0  0  0  0  0  0
  -20.5420  -28.3350   23.1410 C   0  0  0  0  0  3  0  0  0  0  0  0
  -20.6770  -26.9210   22.5320 C   0  0  0  0  0  2  0  0  0  0  0  0
  -19.5770  -26.5930   21.5180 C   0  0  0  0  0  2  0  0  0  0  0  0
  -18.1960  -26.6880   22.1730 C   0  0  0  0  0  2  0  0  0  0  0  0
  -19.0920  -28.7990   23.3190 C   0  0  0  0  0  0  0  0  0  0  0  0
  -18.8460  -30.0440   23.9370 C   0  0  0  0  0  3  0  0  0  0  0  0
  -17.5310  -30.5100   24.1200 C   0  0  0  0  0  3  0  0  0  0  0  0
  -16.4430  -29.7260   23.6990 C   0  0  0  0  0  3  0  0  0  0  0  0
  -16.6730  -28.4820   23.0830 C   0  0  0  0  0  3  0  0  0  0  0  0
  -25.8030  -32.5560   23.8200 C   0  0  0  0  0  3  0  0  0  0  0  0
  -26.3470  -31.7620   25.0710 C   0  0  1  0  0  0  0  0  0  0  0  0
  -25.2780  -31.5030   26.1570 C   0  0  0  0  0  1  0  0  0  0  0  0
  -26.9230  -30.3940   24.6380 C   0  0  0  0  0  1  0  0  0  0  0  0
  -27.5100  -32.5470   25.7240 C   0  0  0  0  0  1  0  0  0  0  0  0
  -25.5060  -33.9500   24.1760 N   0  0  0  0  0  0  0  0  0  0  0  0
  -25.8370  -35.0120   23.4280 C   0  0  0  0  0  0  0  0  0  0  0  0
  -26.4970  -34.9190   22.3890 O   0  0  0  0  0  0  0  0  0  0  0  0
  -24.9210  -34.0960   24.9860 H   0  0  0  0  0  0  0  0  0  0  0  0
  -24.1260  -36.8240   23.0970 C   0  0  0  0  0  1  0  0  0  0  0  0
  -25.3590  -36.3940   23.9090 C   0  0  0  0  0  3  0  0  0  0  0  0
  -27.4950  -37.2440   24.7700 C   0  0  0  0  0  1  0  0  0  0  0  0
  -26.4010  -37.4400   23.8230 N   0  0  0  0  0  0  0  0  0  0  0  0
  -26.0010  -38.3600   23.9850 H   0  0  0  0  0  0  0  0  0  0  0  0
  -32.4800  -21.9920   18.4660 C   0  0  0  0  0  2  0  0  0  0  0  0
  -33.3210  -21.7440   19.7300 C   0  0  0  0  0  2  0  0  0  0  0  0
  -32.9280  -20.4530   20.4570 C   0  0  0  0  0  2  0  0  0  0  0  0
  -31.5080  -20.3970   20.5650 O   0  0  0  0  0  0  0  0  0  0  0  0
  -31.0950  -17.0290   22.0290 C   0  0  0  0  0  3  0  0  0  0  0  0
  -30.1270  -18.5600   19.8790 C   0  0  0  0  0  3  0  0  0  0  0  0
  -30.2460  -16.4270   21.0700 C   0  0  0  0  0  0  0  0  0  0  0  0
  -31.0410  -19.1290   20.7880 C   0  0  0  0  0  0  0  0  0  0  0  0
  -31.4990  -18.3680   21.8840 C   0  0  0  0  0  0  0  0  0  0  0  0
  -29.7400  -17.2120   20.0070 C   0  0  0  0  0  0  0  0  0  0  0  0
  -32.3570  -18.9150   22.7800 F   0  0  0  0  0  0  0  0  0  0  0  0
  -28.9150  -16.6600   19.0850 F   0  0  0  0  0  0  0  0  0  0  0  0
  -30.0330  -14.3790   19.9100 C   0  0  0  0  0  0  0  0  0  0  0  0
  -29.6070  -12.2870   18.6860 C   0  0  0  0  0  2  0  0  0  0  0  0
  -28.5030  -12.4180   17.6240 C   0  0  0  0  0  2  0  0  0  0  0  0
  -27.1280  -12.1360   18.2510 C   0  0  0  0  0  2  0  0  0  0  0  0
  -26.8840  -12.9670   19.5370 C   0  0  0  0  0  3  0  0  0  0  0  0
  -28.0860  -12.8780   20.5040 C   0  0  0  0  0  2  0  0  0  0  0  0
  -29.3300  -13.2190   19.7900 N   0  0  0  0  0  0  0  0  0  0  0  0
  -30.7870  -14.7860   19.0190 O   0  0  0  0  0  0  0  0  0  0  0  0
  -30.4390  -14.2800   22.2980 C   0  0  0  0  0  1  0  0  0  0  0  0
  -30.0020  -15.0180   21.1040 N   0  0  0  0  0  0  0  0  0  0  0  0
  -24.5860  -13.3510   20.6370 C   0  0  0  0  0  0  0  0  0  0  0  0
  -23.6410  -12.4810   21.1110 C   0  0  0  0  0  0  0  0  0  0  0  0
  -24.1790  -11.1710   20.9220 C   0  0  0  0  0  0  0  0  0  0  0  0
  -25.6410  -12.5650   20.1940 N   0  0  0  0  0  0  0  0  0  0  0  0
  -25.4060  -11.2470   20.4230 N   0  0  0  0  0  0  0  0  0  0  0  0
  -23.5760   -9.8490   21.1340 C   0  0  0  0  0  0  0  0  0  0  0  0
  -24.1060   -8.9330   22.0720 C   0  0  0  0  0  3  0  0  0  0  0  0
  -23.4960   -7.6750   22.2670 C   0  0  0  0  0  3  0  0  0  0  0  0
  -22.3420   -7.3230   21.5280 C   0  0  0  0  0  0  0  0  0  0  0  0
  -21.8320   -8.2270   20.5790 C   0  0  0  0  0  3  0  0  0  0  0  0
  -22.4450   -9.4760   20.3810 C   0  0  0  0  0  3  0  0  0  0  0  0
  -21.6970   -6.1150   21.6360 O   0  0  0  0  0  0  0  0  0  0  0  0
  -21.6390   -5.4330   22.8250 C   0  0  0  0  0  0  0  0  0  0  0  0
  -21.0470   -5.9940   23.9770 C   0  0  0  0  0  3  0  0  0  0  0  0
  -20.9470   -5.2340   25.1590 C   0  0  0  0  0  3  0  0  0  0  0  0
  -21.4280   -3.9100   25.1880 C   0  0  0  0  0  0  0  0  0  0  0  0
  -22.0130   -3.3480   24.0400 C   0  0  0  0  0  3  0  0  0  0  0  0
  -22.1160   -4.1070   22.8610 C   0  0  0  0  0  0  0  0  0  0  0  0
  -22.6620   -3.5530   21.7530 F   0  0  0  0  0  0  0  0  0  0  0  0
  -21.3210   -3.1760   26.3200 F   0  0  0  0  0  0  0  0  0  0  0  0
  -22.2720  -12.8340   21.6220 C   0  0  0  0  0  0  0  0  0  0  0  0
  -21.7470  -12.0520   22.5600 N   0  0  0  0  0  0  0  0  0  0  0  0
  -21.6820  -13.8380   21.2250 O   0  0  0  0  0  0  0  0  0  0  0  0
  -22.2380  -11.2370   22.8970 H   0  0  0  0  0  0  0  0  0  0  0  0
  -20.8400  -12.2670   22.9460 H   0  0  0  0  0  0  0  0  0  0  0  0
  -24.6350  -14.7360   20.5240 N   0  0  0  0  0  0  0  0  0  0  0  0
  -23.8600  -15.3360   20.7860 H   0  0  0  0  0  0  0  0  0  0  0  0
  -25.4130  -15.2450   20.1220 H   0  0  0  0  0  0  0  0  0  0  0  0
  1 51  1  0
  2  3  1  0
  2  1  1  0
  3  4  1  0
  4  6  1  0
  4  8  1  0
  4  5  1  0
  8  7  1  0
  9  8  1  0
  9 10  1  0
 10 12  1  0
 11 22  2  0
 12 17  1  0
 13 21  1  0
 13 23  1  0
 14 20  1  0
 14 16  1  0
 15 21  1  0
 16 15  1  0
 17 16  2  0
 18 19  1  0
 18 12  2  0
 19 14  2  0
 20 13  1  0
 21 11  1  0
 23 25  2  0
 24 23  1  0
 26 24  1  0
 27 36  2  0
 27 32  1  0
 28 24  1  0
 28 32  1  0
 29 28  1  0
 30 31  1  0
 30 29  1  0
 31 27  1  0
 32 33  2  0
 33 34  1  0
 35 34  2  0
 36 35  1  0
 37 11  1  0
 37 42  1  0
 37 38  1  0
 38 41  1  1
 38 39  1  0
 40 38  1  0
 42 45  1  0
 43 47  1  0
 43 42  1  0
 44 43  2  0
 47 46  1  0
 49 47  1  0
 49 50  1  0
 49 48  1  0
 51 52  1  0
 52 53  1  0
 53 54  1  0
 54 58  1  0
 56 60  2  0
 56 58  1  0
 57 72  1  0
 57 55  2  0
 58 59  2  0
 59 55  1  0
 59 61  1  0
 60 57  1  0
 62 60  1  0
 63 72  1  0
 64 69  1  0
 65 66  1  0
 65 64  1  0
 67 66  1  0
 67 76  1  0
 67 68  1  0
 69 63  1  0
 69 68  1  0
 70 63  2  0
 72 71  1  0
 73 74  2  0
 74 93  1  0
 75 74  1  0
 75 78  1  0
 76 77  1  0
 76 73  1  0
 77 75  2  0
 78 79  1  0
 79 80  2  0
 81 84  1  0
 81 80  1  0
 82 81  2  0
 83 82  1  0
 83 78  2  0
 84 85  1  0
 85 90  2  0
 85 86  1  0
 86 87  2  0
 87 88  1  0
 88 92  1  0
 89 88  2  0
 90 89  1  0
 91 90  1  0
 93 94  1  0
 94 96  1  0
 94 97  1  0
 95 93  2  0
 98 73  1  0
 98 99  1  0
100 98  1  0
M  ISO  4   9 101  10 101  63 100  72 100
M  END
>  <TORSDO>  (93) 
F 26

>  <SCORE>  (93) 
-9.451

>  <name>  (93) 
94

>  <ligand_id>  (93) 
94

>  <original_smiles>  (93) 
[H]c1c([H])c([H])c2c(c1[H])C([H])([H])C([H])([H])C([H])([H])C2([H])N([H])C(=O)C1([H])N(C(=O)C([H])(N([H])C(=O)C([H])(N([H])C([H])([H])[H])C([H])([H])[H])C(C([H])([H])[H])(C([H])([H])[H])C([H])([H])[H])C([H])([H])c2c([H])c(OC([H])([H])C([H])(C([H])([H])[H])[N+]([H])([H])C([H])([H])C([H])([H])C([H])([H])C([H])([H])C([H])([H])C([H])([H])Oc3c([H])c(F)c(N(C(=O)N4C([H])([H])C([H])([H])C([H])([H])C([H])(n5nc(-c6c([H])c([H])c(Oc7c([H])c([H])c(F)c([H])c7F)c([H])c6[H])c(C(=O)N([H])[H])c5N([H])[H])C4([H])[H])C([H])([H])[H])c([H])c3F)c([H])c([H])c2C1([H])[H]

>  <smiles>  (93) 
[H]c1c([H])c([H])c2c(c1[H])C([H])([H])C([H])([H])C([H])([H])C2([H])N([H])C(=O)C1([H])N(C(=O)C([H])(N([H])C(=O)C([H])(N([H])C([H])([H])[H])C([H])([H])[H])C(C([H])([H])[H])(C([H])([H])[H])C([H])([H])[H])C([H])([H])c2c([H])c(OC([H])([H])C([H])(C([H])([H])[H])[N+]([H])([H])C([H])([H])C([H])([H])C([H])([H])C([H])([H])C([H])([H])C([H])([H])Oc3c([H])c(F)c(N(C(=O)N4C([H])([H])C([H])([H])C([H])([H])C([H])(n5nc(-c6c([H])c([H])c(Oc7c([H])c([H])c(F)c([H])c7F)c([H])c6[H])c(C(=O)N([H])[H])c5N([H])[H])C4([H])[H])C([H])([H])[H])c([H])c3F)c([H])c([H])c2C1([H])[H]

$$$$
95:0:0
     RDKit          3D

102110  0  0  1  0  0  0  0  0999 V2000
  -28.0970  -22.0440   17.9830 C   0  0  0  0  0  2  0  0  0  0  0  0
  -28.8530  -20.9480   17.1930 C   0  0  1  0  0  0  0  0  0  0  0  0
  -29.9910  -20.6630   17.8350 F   0  0  0  0  0  0  0  0  0  0  0  0
  -28.1240  -19.8310   17.1200 F   0  0  0  0  0  0  0  0  0  0  0  0
  -29.2130  -21.3640   15.7590 C   0  0  0  0  0  0  0  0  0  0  0  0
  -30.5110  -21.5800   15.5260 N   0  0  0  0  0  0  0  0  0  0  0  0
  -28.3620  -21.3780   14.8670 O   0  0  0  0  0  0  0  0  0  0  0  0
  -31.1040  -21.6240   16.3420 H   0  0  0  0  0  0  0  0  0  0  0  0
  -31.1650  -21.3870   14.2380 C   0  0  0  0  0  2  0  0  0  0  0  0
  -32.7000  -21.3530   14.3840 C   0  0  0  0  0  2  0  0  0  0  0  0
  -33.2390  -20.2400   15.3150 C   0  0  0  0  0  2  0  0  0  0  0  0
  -33.9140  -19.2130   14.5910 O   0  0  0  0  0  0  0  0  0  0  0  0
  -36.8960  -16.6180    8.6970 C   0  0  0  0  0  0  0  0  0  0  0  0
  -34.6070  -19.5220   13.4400 C   0  0  0  0  0  0  0  0  0  0  0  0
  -37.3090  -19.0180    9.1290 C   0  0  0  0  0  3  0  0  0  0  0  0
  -35.9270  -20.0590   10.9980 C   0  0  0  0  0  0  0  0  0  0  0  0
  -35.2010  -17.8730   10.0200 C   0  0  0  0  0  2  0  0  0  0  0  0
  -35.2280  -18.8590   11.1670 C   0  0  0  0  0  0  0  0  0  0  0  0
  -34.5720  -18.5870   12.3850 C   0  0  0  0  0  3  0  0  0  0  0  0
  -35.3360  -20.7220   13.2600 C   0  0  0  0  0  3  0  0  0  0  0  0
  -35.9940  -20.9920   12.0450 C   0  0  0  0  0  3  0  0  0  0  0  0
  -36.5910  -20.2850    9.6620 C   0  0  0  0  0  2  0  0  0  0  0  0
  -36.4840  -17.7750    9.2860 N   0  0  0  0  0  0  0  0  0  0  0  0
  -37.9170  -16.5860    7.9950 O   0  0  0  0  0  0  0  0  0  0  0  0
  -38.6920  -18.9220    9.8080 C   0  0  0  0  0  0  0  0  0  0  0  0
  -39.6300  -19.7770    9.3670 N   0  0  0  0  0  0  0  0  0  0  0  0
  -38.8930  -18.1230   10.7260 O   0  0  0  0  0  0  0  0  0  0  0  0
  -39.3880  -20.3960    8.6050 H   0  0  0  0  0  0  0  0  0  0  0  0
  -42.7780  -21.4810    8.8900 C   0  0  0  0  0  0  0  0  0  0  0  0
  -40.9920  -19.9000    9.8830 C   0  0  0  0  0  3  0  0  0  0  0  0
  -41.0330  -20.8050   11.1360 C   0  0  0  0  0  2  0  0  0  0  0  0
  -41.3300  -22.2720   10.8110 C   0  0  0  0  0  2  0  0  0  0  0  0
  -42.6800  -22.3980   10.0970 C   0  0  0  0  0  2  0  0  0  0  0  0
  -41.9720  -20.3160    8.7820 C   0  0  0  0  0  0  0  0  0  0  0  0
  -42.0750  -19.5170    7.6230 C   0  0  0  0  0  3  0  0  0  0  0  0
  -42.9640  -19.8600    6.5870 C   0  0  0  0  0  3  0  0  0  0  0  0
  -43.7720  -21.0050    6.7070 C   0  0  0  0  0  3  0  0  0  0  0  0
  -43.6800  -21.8090    7.8570 C   0  0  0  0  0  3  0  0  0  0  0  0
  -36.0940  -15.2870    8.8550 C   0  0  0  0  0  3  0  0  0  0  0  0
  -36.7390  -14.2880    9.8930 C   0  0  1  0  0  0  0  0  0  0  0  0
  -38.2330  -13.9950    9.6240 C   0  0  0  0  0  1  0  0  0  0  0  0
  -36.6170  -14.8420   11.3310 C   0  0  0  0  0  1  0  0  0  0  0  0
  -35.9730  -12.9430    9.8710 C   0  0  0  0  0  1  0  0  0  0  0  0
  -36.0030  -14.6700    7.5260 N   0  0  0  0  0  0  0  0  0  0  0  0
  -34.8910  -14.6360    6.7790 C   0  0  0  0  0  0  0  0  0  0  0  0
  -33.8040  -15.0690    7.1740 O   0  0  0  0  0  0  0  0  0  0  0  0
  -36.8660  -14.3550    7.1090 H   0  0  0  0  0  0  0  0  0  0  0  0
  -35.0000  -15.1470    4.3200 C   0  0  0  0  0  1  0  0  0  0  0  0
  -35.0040  -14.0250    5.3700 C   0  0  0  0  0  3  0  0  0  0  0  0
  -34.0190  -11.8320    5.8660 C   0  0  0  0  0  1  0  0  0  0  0  0
  -33.9360  -13.0500    5.0620 N   0  0  0  0  0  0  0  0  0  0  0  0
  -33.9620  -12.7840    4.0820 H   0  0  0  0  0  0  0  0  0  0  0  0
  -26.5590  -21.9260   17.8950 C   0  0  0  0  0  2  0  0  0  0  0  0
  -25.9340  -22.6230   16.6740 C   0  0  0  0  0  2  0  0  0  0  0  0
  -26.8510  -23.6680   16.0380 C   0  0  0  0  0  2  0  0  0  0  0  0
  -26.0400  -24.6750   15.3700 N   0  0  0  0  0  0  0  0  0  0  0  0
  -26.1480  -24.6360   14.3620 H   0  0  0  0  0  0  0  0  0  0  0  0
  -23.9570  -23.8280   16.4090 C   0  0  0  0  0  3  0  0  0  0  0  0
  -22.6060  -24.0490   16.7400 C   0  0  0  0  0  3  0  0  0  0  0  0
  -22.7040  -26.2660   15.7240 C   0  0  0  0  0  3  0  0  0  0  0  0
  -24.6910  -24.8280   15.7330 C   0  0  0  0  0  0  0  0  0  0  0  0
  -24.0670  -26.0570   15.4150 C   0  0  0  0  0  0  0  0  0  0  0  0
  -21.9780  -25.2600   16.3910 C   0  0  0  0  0  0  0  0  0  0  0  0
  -20.3250  -25.5230   16.8140 Cl  0  0  0  0  0  0  0  0  0  0  0  0
  -26.2010  -27.3050   15.1880 C   0  0  0  0  0  0  0  0  0  0  0  0
  -28.0590  -28.0710   13.7660 C   0  0  0  0  0  2  0  0  0  0  0  0
  -27.5100  -28.9980   12.6600 C   0  0  0  0  0  2  0  0  0  0  0  0
  -26.9690  -28.1980   11.4550 C   0  0  0  0  0  2  0  0  0  0  0  0
  -26.0410  -27.0230   11.8680 C   0  0  0  0  0  3  0  0  0  0  0  0
  -26.6910  -26.2020   13.0010 C   0  0  0  0  0  2  0  0  0  0  0  0
  -26.9950  -27.1270   14.1070 N   0  0  0  0  0  0  0  0  0  0  0  0
  -26.5130  -27.9430   16.1960 O   0  0  0  0  0  0  0  0  0  0  0  0
  -24.9240  -27.0580   14.8980 N   0  0  0  0  0  0  0  0  0  0  0  0
  -24.7580  -27.1690   13.9120 H   0  0  0  0  0  0  0  0  0  0  0  0
  -24.6200  -26.3090    9.8420 C   0  0  0  0  0  0  0  0  0  0  0  0
  -24.7970  -25.3300    8.9040 C   0  0  0  0  0  0  0  0  0  0  0  0
  -25.9960  -24.6450    9.2720 C   0  0  0  0  0  0  0  0  0  0  0  0
  -25.6810  -26.1880   10.7270 N   0  0  0  0  0  0  0  0  0  0  0  0
  -26.4830  -25.1420   10.4030 N   0  0  0  0  0  0  0  0  0  0  0  0
  -26.7350  -23.5810    8.5840 C   0  0  0  0  0  0  0  0  0  0  0  0
  -26.6280  -22.2320    8.9890 C   0  0  0  0  0  3  0  0  0  0  0  0
  -27.3370  -21.2210    8.3060 C   0  0  0  0  0  3  0  0  0  0  0  0
  -28.1560  -21.5530    7.2010 C   0  0  0  0  0  0  0  0  0  0  0  0
  -28.2780  -22.9000    6.8170 C   0  0  0  0  0  3  0  0  0  0  0  0
  -27.5760  -23.9050    7.5010 C   0  0  0  0  0  3  0  0  0  0  0  0
  -28.9010  -20.6430    6.4910 O   0  0  0  0  0  0  0  0  0  0  0  0
  -28.3150  -19.6000    5.8220 C   0  0  0  0  0  0  0  0  0  0  0  0
  -27.3300  -19.8080    4.8300 C   0  0  0  0  0  3  0  0  0  0  0  0
  -26.8040  -18.7100    4.1210 C   0  0  0  0  0  3  0  0  0  0  0  0
  -27.2650  -17.4080    4.3930 C   0  0  0  0  0  0  0  0  0  0  0  0
  -28.2510  -17.2000    5.3750 C   0  0  0  0  0  3  0  0  0  0  0  0
  -28.7750  -18.2940    6.0860 C   0  0  0  0  0  0  0  0  0  0  0  0
  -29.7370  -18.0900    7.0160 F   0  0  0  0  0  0  0  0  0  0  0  0
  -26.7670  -16.3540    3.7050 F   0  0  0  0  0  0  0  0  0  0  0  0
  -23.9530  -25.0940    7.6840 C   0  0  0  0  0  0  0  0  0  0  0  0
  -23.8550  -23.8450    7.2410 N   0  0  0  0  0  0  0  0  0  0  0  0
  -23.3340  -26.0130    7.1470 O   0  0  0  0  0  0  0  0  0  0  0  0
  -24.3400  -23.0890    7.6980 H   0  0  0  0  0  0  0  0  0  0  0  0
  -23.2850  -23.6420    6.4330 H   0  0  0  0  0  0  0  0  0  0  0  0
  -23.6500  -27.2950    9.9990 N   0  0  0  0  0  0  0  0  0  0  0  0
  -22.8920  -27.3810    9.3350 H   0  0  0  0  0  0  0  0  0  0  0  0
  -23.4720  -27.8340   10.8470 H   0  0  0  0  0  0  0  0  0  0  0  0
  2  3  1  1
  2  1  1  0
  4  2  1  0
  5  2  1  0
  6  5  1  0
  6  8  1  0
  7  5  2  0
  9 10  1  0
  9  6  1  0
 10 11  1  0
 12 11  1  0
 13 23  1  0
 14 12  1  0
 15 23  1  0
 15 22  1  0
 15 25  1  0
 16 18  2  0
 16 21  1  0
 17 18  1  0
 18 19  1  0
 19 14  2  0
 20 14  1  0
 21 20  2  0
 22 16  1  0
 23 17  1  0
 24 13  2  0
 25 27  2  0
 26 25  1  0
 28 26  1  0
 29 33  1  0
 30 26  1  0
 30 31  1  0
 32 31  1  0
 33 32  1  0
 34 29  1  0
 34 30  1  0
 35 34  2  0
 36 37  2  0
 36 35  1  0
 37 38  1  0
 38 29  2  0
 39 13  1  0
 39 40  1  0
 40 42  1  1
 41 40  1  0
 43 40  1  0
 44 39  1  0
 45 46  2  0
 45 44  1  0
 47 44  1  0
 49 48  1  0
 49 45  1  0
 51 49  1  0
 51 50  1  0
 52 51  1  0
 53  1  1  0
 54 53  1  0
 55 54  1  0
 56 61  1  0
 56 55  1  0
 57 56  1  0
 58 59  1  0
 60 63  1  0
 61 58  2  0
 62 60  2  0
 62 61  1  0
 63 59  2  0
 63 64  1  0
 65 72  2  0
 66 71  1  0
 67 66  1  0
 68 69  1  0
 68 67  1  0
 69 78  1  0
 69 70  1  0
 70 71  1  0
 71 65  1  0
 73 65  1  0
 73 62  1  0
 74 73  1  0
 75100  1  0
 75 78  1  0
 76 77  1  0
 76 75  2  0
 77 79  2  0
 79 78  1  0
 80 81  1  0
 80 77  1  0
 82 81  2  0
 83 82  1  0
 84 83  2  0
 84 85  1  0
 85 80  2  0
 86 83  1  0
 87 92  1  0
 87 86  1  0
 88 87  2  0
 89 90  2  0
 89 88  1  0
 90 91  1  0
 91 92  2  0
 92 93  1  0
 94 90  1  0
 95 76  1  0
 96 95  1  0
 96 98  1  0
 97 95  2  0
 99 96  1  0
100102  1  0
101100  1  0
M  ISO  4  11 101  12 101  65 100  73 100
M  END
>  <TORSDO>  (94) 
F 26

>  <SCORE>  (94) 
1.885

>  <name>  (94) 
95

>  <ligand_id>  (94) 
95

>  <original_smiles>  (94) 
[H]c1c([H])c([H])c2c(c1[H])C([H])([H])C([H])([H])C([H])([H])C2([H])N([H])C(=O)C1([H])N(C(=O)C([H])(N([H])C(=O)C([H])(N([H])C([H])([H])[H])C([H])([H])[H])C(C([H])([H])[H])(C([H])([H])[H])C([H])([H])[H])C([H])([H])c2c([H])c(OC([H])([H])C([H])([H])C([H])([H])N([H])C(=O)C(F)(F)C([H])([H])C([H])([H])C([H])([H])C([H])([H])N([H])c3c([H])c([H])c(Cl)c([H])c3N([H])C(=O)N3C([H])([H])C([H])([H])C([H])([H])C([H])(n4nc(-c5c([H])c([H])c(Oc6c([H])c([H])c(F)c([H])c6F)c([H])c5[H])c(C(=O)N([H])[H])c4N([H])[H])C3([H])[H])c([H])c([H])c2C1([H])[H]

>  <smiles>  (94) 
[H]c1c([H])c([H])c2c(c1[H])C([H])([H])C([H])([H])C([H])([H])C2([H])N([H])C(=O)C1([H])N(C(=O)C([H])(N([H])C(=O)C([H])(N([H])C([H])([H])[H])C([H])([H])[H])C(C([H])([H])[H])(C([H])([H])[H])C([H])([H])[H])C([H])([H])c2c([H])c(OC([H])([H])C([H])([H])C([H])([H])N([H])C(=O)C(F)(F)C([H])([H])C([H])([H])C([H])([H])C([H])([H])N([H])c3c([H])c([H])c(Cl)c([H])c3N([H])C(=O)N3C([H])([H])C([H])([H])C([H])([H])C([H])(n4nc(-c5c([H])c([H])c(Oc6c([H])c([H])c(F)c([H])c6F)c([H])c5[H])c(C(=O)N([H])[H])c4N([H])[H])C3([H])[H])c([H])c([H])c2C1([H])[H]

$$$$
