0:0:0
     RDKit          3D

 88 95  0  0  1  0  0  0  0  0999 V2000
  -28.5450  -22.3550   20.7150 C   0  0  0  0  0  2  0  0  0  0  0  0
  -29.5120  -19.9480   20.7000 C   0  0  0  0  0  0  0  0  0  0  0  0
  -29.1320  -21.1140   20.0710 N   0  0  0  0  0  0  0  0  0  0  0  0
  -29.7580  -19.9740   21.9060 O   0  0  0  0  0  0  0  0  0  0  0  0
  -29.0350  -21.0690   19.0620 H   0  0  0  0  0  0  0  0  0  0  0  0
  -29.5920  -18.5440   19.9500 C   0  0  0  0  0  2  0  0  0  0  0  0
  -30.2570  -17.2960   20.7380 C   0  0  0  0  0  2  0  0  0  0  0  0
  -30.6490  -14.7570   20.1850 C   0  0  0  0  0  0  0  0  0  0  0  0
  -30.4480  -12.5010   19.1450 C   0  0  0  0  0  2  0  0  0  0  0  0
  -29.4820  -12.6090   17.9420 C   0  0  0  0  0  2  0  0  0  0  0  0
  -28.0170  -12.4400   18.4010 C   0  0  0  0  0  2  0  0  0  0  0  0
  -27.6740  -13.3140   19.6380 C   0  0  0  0  0  3  0  0  0  0  0  0
  -28.7530  -13.1600   20.7340 C   0  0  0  0  0  2  0  0  0  0  0  0
  -30.0350  -13.5300   20.1200 N   0  0  0  0  0  0  0  0  0  0  0  0
  -31.8280  -14.8920   19.8390 O   0  0  0  0  0  0  0  0  0  0  0  0
  -29.8550  -15.8500   20.4680 N   0  0  0  0  0  0  0  0  0  0  0  0
  -28.8910  -15.6250   20.6830 H   0  0  0  0  0  0  0  0  0  0  0  0
  -25.2960  -13.9160   20.4020 C   0  0  0  0  0  0  0  0  0  0  0  0
  -24.2360  -13.1490   20.7960 C   0  0  0  0  0  0  0  0  0  0  0  0
  -24.6940  -11.7960   20.7540 C   0  0  0  0  0  0  0  0  0  0  0  0
  -26.3330  -13.0350   20.1460 N   0  0  0  0  0  0  0  0  0  0  0  0
  -25.9770  -11.7520   20.4210 N   0  0  0  0  0  0  0  0  0  0  0  0
  -23.9650  -10.5360   20.9580 C   0  0  0  0  0  0  0  0  0  0  0  0
  -24.4100   -9.5750   21.8930 C   0  0  0  0  0  3  0  0  0  0  0  0
  -23.6900   -8.3780   22.0850 C   0  0  0  0  0  3  0  0  0  0  0  0
  -22.5070   -8.1340   21.3460 C   0  0  0  0  0  0  0  0  0  0  0  0
  -22.0800   -9.0830   20.4020 C   0  0  0  0  0  3  0  0  0  0  0  0
  -22.8010  -10.2740   20.2070 C   0  0  0  0  0  3  0  0  0  0  0  0
  -21.7570   -6.9870   21.4510 O   0  0  0  0  0  0  0  0  0  0  0  0
  -21.7190   -6.2540   22.6100 C   0  0  0  0  0  0  0  0  0  0  0  0
  -21.3020   -6.8200   23.8350 C   0  0  0  0  0  3  0  0  0  0  0  0
  -21.2130   -6.0140   24.9870 C   0  0  0  0  0  3  0  0  0  0  0  0
  -21.5260   -4.6420   24.9140 C   0  0  0  0  0  0  0  0  0  0  0  0
  -21.9390   -4.0790   23.6950 C   0  0  0  0  0  3  0  0  0  0  0  0
  -22.0320   -4.8830   22.5450 C   0  0  0  0  0  0  0  0  0  0  0  0
  -22.4070   -4.3310   21.3670 F   0  0  0  0  0  0  0  0  0  0  0  0
  -21.4330   -3.8660   26.0190 F   0  0  0  0  0  0  0  0  0  0  0  0
  -22.8440  -13.6300   21.0890 C   0  0  0  0  0  0  0  0  0  0  0  0
  -22.1290  -12.9360   21.9700 N   0  0  0  0  0  0  0  0  0  0  0  0
  -22.4000  -14.6550   20.5750 O   0  0  0  0  0  0  0  0  0  0  0  0
  -22.4990  -12.1100   22.4110 H   0  0  0  0  0  0  0  0  0  0  0  0
  -21.1950  -13.2390   22.2090 H   0  0  0  0  0  0  0  0  0  0  0  0
  -25.4630  -15.2880   20.2160 N   0  0  0  0  0  0  0  0  0  0  0  0
  -24.6920  -15.9370   20.3290 H   0  0  0  0  0  0  0  0  0  0  0  0
  -26.2790  -15.7070   19.7910 H   0  0  0  0  0  0  0  0  0  0  0  0
  -29.0380  -23.8270   20.2940 C   0  0  0  0  0  3  0  0  0  0  0  0
  -27.9320  -24.9800   20.3110 C   0  0  0  0  0  3  0  0  0  0  0  0
  -28.2680  -26.4360   20.2260 O   0  0  0  0  0  0  0  0  0  0  0  0
  -24.6080  -31.9190   23.2450 C   0  0  0  0  0  0  0  0  0  0  0  0
  -27.1820  -27.3340   20.1750 C   0  0  0  0  0  0  0  0  0  0  0  0
  -23.4010  -30.5210   21.6110 C   0  0  0  0  0  3  0  0  0  0  0  0
  -24.8390  -28.9740   20.1830 C   0  0  0  0  0  0  0  0  0  0  0  0
  -25.9380  -30.8330   21.4180 C   0  0  0  0  0  2  0  0  0  0  0  0
  -26.0160  -29.4520   20.7750 C   0  0  0  0  0  0  0  0  0  0  0  0
  -27.1930  -28.6400   20.7650 C   0  0  0  0  0  3  0  0  0  0  0  0
  -25.9830  -26.9350   19.5390 C   0  0  0  0  0  3  0  0  0  0  0  0
  -24.8240  -27.7200   19.5640 C   0  0  0  0  0  3  0  0  0  0  0  0
  -23.6100  -29.8520   20.2290 C   0  0  0  0  0  2  0  0  0  0  0  0
  -24.6700  -31.1100   22.1480 N   0  0  0  0  0  0  0  0  0  0  0  0
  -23.5220  -32.1980   23.7760 O   0  0  0  0  0  0  0  0  0  0  0  0
  -22.7390  -29.5050   22.5710 C   0  0  0  0  0  0  0  0  0  0  0  0
  -21.4160  -29.3140   22.4270 N   0  0  0  0  0  0  0  0  0  0  0  0
  -23.4140  -28.8940   23.4030 O   0  0  0  0  0  0  0  0  0  0  0  0
  -20.9380  -29.8380   21.7090 H   0  0  0  0  0  0  0  0  0  0  0  0
  -18.0510  -28.0790   22.8860 C   0  0  0  0  0  0  0  0  0  0  0  0
  -20.6000  -28.3770   23.1990 C   0  0  0  0  0  3  0  0  0  0  0  0
  -20.7370  -26.9430   22.6410 C   0  0  0  0  0  2  0  0  0  0  0  0
  -19.6560  -26.5910   21.6160 C   0  0  0  0  0  2  0  0  0  0  0  0
  -18.2600  -26.7240   22.2310 C   0  0  0  0  0  2  0  0  0  0  0  0
  -19.1510  -28.8600   23.3260 C   0  0  0  0  0  0  0  0  0  0  0  0
  -18.9020  -30.1260   23.9010 C   0  0  0  0  0  3  0  0  0  0  0  0
  -17.5890  -30.6100   24.0400 C   0  0  0  0  0  3  0  0  0  0  0  0
  -16.5020  -29.8250   23.6160 C   0  0  0  0  0  3  0  0  0  0  0  0
  -16.7330  -28.5610   23.0440 C   0  0  0  0  0  3  0  0  0  0  0  0
  -25.8900  -32.5520   23.8630 C   0  0  0  0  0  3  0  0  0  0  0  0
  -25.5790  -33.9490   24.1960 N   0  0  0  0  0  0  0  0  0  0  0  0
  -25.9110  -35.0050   23.4400 C   0  0  0  0  0  0  0  0  0  0  0  0
  -26.5820  -34.9020   22.4100 O   0  0  0  0  0  0  0  0  0  0  0  0
  -24.9830  -34.1020   24.9930 H   0  0  0  0  0  0  0  0  0  0  0  0
  -24.1810  -36.7920   23.0840 C   0  0  0  0  0  1  0  0  0  0  0  0
  -25.4200  -36.3900   23.8990 C   0  0  0  0  0  3  0  0  0  0  0  0
  -27.5500  -37.2680   24.7470 C   0  0  0  0  0  1  0  0  0  0  0  0
  -26.4530  -37.4430   23.7970 N   0  0  0  0  0  0  0  0  0  0  0  0
  -26.0470  -38.3620   23.9470 H   0  0  0  0  0  0  0  0  0  0  0  0
  -26.4030  -31.7810   25.1380 C   0  0  1  0  0  0  0  0  0  0  0  0
  -25.3040  -31.5430   26.1990 C   0  0  0  0  0  1  0  0  0  0  0  0
  -26.9880  -30.4040   24.7470 C   0  0  0  0  0  1  0  0  0  0  0  0
  -27.5530  -32.5730   25.8000 C   0  0  0  0  0  1  0  0  0  0  0  0
  2  4  2  0
  3  2  1  0
  3  1  1  0
  5  3  1  0
  6  2  1  0
  6  7  1  0
  8 16  1  0
  9 14  1  0
 10 11  1  0
 10  9  1  0
 12 11  1  0
 12 21  1  0
 12 13  1  0
 14  8  1  0
 14 13  1  0
 15  8  2  0
 16 17  1  0
 16  7  1  0
 18 19  2  0
 19 38  1  0
 20 19  1  0
 20 23  1  0
 21 18  1  0
 21 22  1  0
 22 20  2  0
 23 24  1  0
 24 25  2  0
 26 29  1  0
 26 25  1  0
 27 26  2  0
 28 27  1  0
 28 23  2  0
 29 30  1  0
 30 31  1  0
 31 32  2  0
 33 32  1  0
 33 37  1  0
 34 33  2  0
 35 30  2  0
 35 34  1  0
 36 35  1  0
 38 39  1  0
 39 42  1  0
 39 41  1  0
 40 38  2  0
 43 44  1  0
 43 18  1  0
 45 43  1  0
 46 47  2  0
 46  1  1  0
 48 47  1  0
 49 60  2  0
 50 48  1  0
 50 55  1  0
 51 59  1  0
 51 61  1  0
 52 58  1  0
 52 54  1  0
 53 59  1  0
 54 53  1  0
 55 54  2  0
 56 57  1  0
 56 50  2  0
 57 52  2  0
 58 51  1  0
 59 49  1  0
 61 63  2  0
 62 61  1  0
 64 62  1  0
 65 74  2  0
 65 70  1  0
 66 62  1  0
 66 70  1  0
 67 66  1  0
 68 69  1  0
 68 67  1  0
 69 65  1  0
 70 71  2  0
 71 72  1  0
 73 72  2  0
 74 73  1  0
 75 49  1  0
 75 76  1  0
 75 85  1  0
 76 79  1  0
 77 81  1  0
 77 76  1  0
 78 77  2  0
 81 80  1  0
 83 81  1  0
 83 84  1  0
 83 82  1  0
 85 88  1  1
 85 86  1  0
 87 85  1  0
M  ISO  4   8 100  16 100  47 101  48 101
M  END
>  <TORSDO>  (1) 
F 21

>  <SCORE>  (1) 
-13.123

>  <name>  (1) 
0

>  <ligand_id>  (1) 
0

>  <original_smiles>  (1) 
[H]c1c([H])c([H])c2c(c1[H])C([H])([H])C([H])([H])C([H])([H])C2([H])N([H])C(=O)C1([H])N(C(=O)C([H])(N([H])C(=O)C([H])(N([H])C([H])([H])[H])C([H])([H])[H])C(C([H])([H])[H])(C([H])([H])[H])C([H])([H])[H])C([H])([H])c2c([H])c(OC([H])([H])C([H])([H])C([H])([H])N([H])C(=O)C([H])([H])C([H])([H])N([H])C(=O)N3C([H])([H])C([H])([H])C([H])([H])C([H])(n4nc(-c5c([H])c([H])c(Oc6c([H])c([H])c(F)c([H])c6F)c([H])c5[H])c(C(=O)N([H])[H])c4N([H])[H])C3([H])[H])c([H])c([H])c2C1([H])[H]

>  <smiles>  (1) 
[H]c1c([H])c([H])c2c(c1[H])C([H])([H])C([H])([H])C([H])([H])C2([H])N([H])C(=O)C1([H])N(C(=O)C([H])(N([H])C(=O)C([H])(N([H])C([H])([H])[H])C([H])([H])[H])C(C([H])([H])[H])(C([H])([H])[H])C([H])([H])[H])C([H])([H])c2c([H])c(OC([H])([H])C([H])([H])C([H])([H])N([H])C(=O)C([H])([H])C([H])([H])N([H])C(=O)N3C([H])([H])C([H])([H])C([H])([H])C([H])(n4nc(-c5c([H])c([H])c(Oc6c([H])c([H])c(F)c([H])c6F)c([H])c5[H])c(C(=O)N([H])[H])c4N([H])[H])C3([H])[H])c([H])c([H])c2C1([H])[H]

$$$$
1:0:0
     RDKit          3D

 86 93  0  0  1  0  0  0  0  0999 V2000
  -28.9800  -22.4790   21.0050 C   0  0  0  0  0  2  0  0  0  0  0  0
  -29.4790  -21.1600   20.2530 C   0  0  0  0  0  2  0  0  0  0  0  0
  -29.7850  -19.8400   21.1050 C   0  0  0  0  0  2  0  0  0  0  0  0
  -29.6010  -18.3990   20.4310 C   0  0  0  0  0  3  0  0  0  0  0  0
  -30.3280  -17.1550   21.1200 C   0  0  0  0  0  3  0  0  0  0  0  0
  -30.6110  -14.6570   20.4230 C   0  0  0  0  0  0  0  0  0  0  0  0
  -30.3530  -12.4260   19.3360 C   0  0  0  0  0  2  0  0  0  0  0  0
  -29.3940  -12.5250   18.1310 C   0  0  0  0  0  2  0  0  0  0  0  0
  -27.9300  -12.3690   18.5830 C   0  0  0  0  0  2  0  0  0  0  0  0
  -27.5880  -13.2500   19.8130 C   0  0  0  0  0  3  0  0  0  0  0  0
  -28.6560  -13.1200   20.9190 C   0  0  0  0  0  2  0  0  0  0  0  0
  -29.9530  -13.4560   20.3160 N   0  0  0  0  0  0  0  0  0  0  0  0
  -31.7780  -14.7790   20.0480 O   0  0  0  0  0  0  0  0  0  0  0  0
  -29.8720  -15.7510   20.8020 N   0  0  0  0  0  0  0  0  0  0  0  0
  -28.9080  -15.5450   21.0140 H   0  0  0  0  0  0  0  0  0  0  0  0
  -25.2090  -13.8580   20.5630 C   0  0  0  0  0  0  0  0  0  0  0  0
  -24.1410  -13.0890   20.9420 C   0  0  0  0  0  0  0  0  0  0  0  0
  -24.5980  -11.7360   20.9050 C   0  0  0  0  0  0  0  0  0  0  0  0
  -26.2460  -12.9730   20.3150 N   0  0  0  0  0  0  0  0  0  0  0  0
  -25.8850  -11.6930   20.5850 N   0  0  0  0  0  0  0  0  0  0  0  0
  -23.8680  -10.4760   21.0980 C   0  0  0  0  0  0  0  0  0  0  0  0
  -24.3260   -9.4880   21.9970 C   0  0  0  0  0  3  0  0  0  0  0  0
  -23.6000   -8.2930   22.1790 C   0  0  0  0  0  3  0  0  0  0  0  0
  -22.3980   -8.0770   21.4620 C   0  0  0  0  0  0  0  0  0  0  0  0
  -21.9580   -9.0530   20.5510 C   0  0  0  0  0  3  0  0  0  0  0  0
  -22.6870  -10.2400   20.3670 C   0  0  0  0  0  3  0  0  0  0  0  0
  -21.6380   -6.9350   21.5570 O   0  0  0  0  0  0  0  0  0  0  0  0
  -21.6480   -6.1560   22.6860 C   0  0  0  0  0  0  0  0  0  0  0  0
  -21.3270   -6.6810   23.9570 C   0  0  0  0  0  3  0  0  0  0  0  0
  -21.2820   -5.8290   25.0790 C   0  0  0  0  0  3  0  0  0  0  0  0
  -21.5480   -4.4540   24.9310 C   0  0  0  0  0  0  0  0  0  0  0  0
  -21.8650   -3.9300   23.6660 C   0  0  0  0  0  3  0  0  0  0  0  0
  -21.9110   -4.7790   22.5470 C   0  0  0  0  0  0  0  0  0  0  0  0
  -22.1940   -4.2640   21.3250 F   0  0  0  0  0  0  0  0  0  0  0  0
  -21.4990   -3.6350   26.0070 F   0  0  0  0  0  0  0  0  0  0  0  0
  -22.7490  -13.5720   21.2330 C   0  0  0  0  0  0  0  0  0  0  0  0
  -22.0320  -12.8730   22.1050 N   0  0  0  0  0  0  0  0  0  0  0  0
  -22.3080  -14.6000   20.7210 O   0  0  0  0  0  0  0  0  0  0  0  0
  -22.4030  -12.0400   22.5360 H   0  0  0  0  0  0  0  0  0  0  0  0
  -21.0970  -13.1720   22.3460 H   0  0  0  0  0  0  0  0  0  0  0  0
  -25.3790  -15.2290   20.3850 N   0  0  0  0  0  0  0  0  0  0  0  0
  -24.6160  -15.8890   20.4880 H   0  0  0  0  0  0  0  0  0  0  0  0
  -26.2250  -15.6560   20.0270 H   0  0  0  0  0  0  0  0  0  0  0  0
  -29.1500  -23.9070   20.2970 C   0  0  0  0  0  3  0  0  0  0  0  0
  -28.0460  -25.0230   20.5970 C   0  0  0  0  0  3  0  0  0  0  0  0
  -28.2900  -26.4390   20.1990 O   0  0  0  0  0  0  0  0  0  0  0  0
  -24.6070  -31.8740   23.2220 C   0  0  0  0  0  0  0  0  0  0  0  0
  -27.1830  -27.3050   20.1620 C   0  0  0  0  0  0  0  0  0  0  0  0
  -23.3870  -30.4750   21.5950 C   0  0  0  0  0  3  0  0  0  0  0  0
  -24.8260  -28.9290   20.1560 C   0  0  0  0  0  0  0  0  0  0  0  0
  -25.9260  -30.7960   21.3860 C   0  0  0  0  0  2  0  0  0  0  0  0
  -26.0020  -29.4170   20.7410 C   0  0  0  0  0  0  0  0  0  0  0  0
  -27.1820  -28.6140   20.7330 C   0  0  0  0  0  3  0  0  0  0  0  0
  -25.9900  -26.8820   19.5320 C   0  0  0  0  0  3  0  0  0  0  0  0
  -24.8260  -27.6700   19.5400 C   0  0  0  0  0  3  0  0  0  0  0  0
  -23.5900  -29.8020   20.2120 C   0  0  0  0  0  2  0  0  0  0  0  0
  -24.6590  -31.0640   22.1250 N   0  0  0  0  0  0  0  0  0  0  0  0
  -23.5260  -32.1490   23.7670 O   0  0  0  0  0  0  0  0  0  0  0  0
  -22.7380  -29.4550   22.5610 C   0  0  0  0  0  0  0  0  0  0  0  0
  -21.4090  -29.2770   22.4470 N   0  0  0  0  0  0  0  0  0  0  0  0
  -23.4250  -28.8260   23.3720 O   0  0  0  0  0  0  0  0  0  0  0  0
  -20.9090  -29.8350   21.7690 H   0  0  0  0  0  0  0  0  0  0  0  0
  -18.0390  -28.0670   22.9680 C   0  0  0  0  0  0  0  0  0  0  0  0
  -20.5960  -28.3400   23.2270 C   0  0  0  0  0  3  0  0  0  0  0  0
  -20.7040  -26.9030   22.6660 C   0  0  0  0  0  2  0  0  0  0  0  0
  -19.6020  -26.5660   21.6570 C   0  0  0  0  0  2  0  0  0  0  0  0
  -18.2210  -26.7140   22.3010 C   0  0  0  0  0  2  0  0  0  0  0  0
  -19.1560  -28.8390   23.3880 C   0  0  0  0  0  0  0  0  0  0  0  0
  -18.9340  -30.1050   23.9690 C   0  0  0  0  0  3  0  0  0  0  0  0
  -17.6270  -30.6010   24.1370 C   0  0  0  0  0  3  0  0  0  0  0  0
  -16.5240  -29.8270   23.7350 C   0  0  0  0  0  3  0  0  0  0  0  0
  -16.7320  -28.5620   23.1540 C   0  0  0  0  0  3  0  0  0  0  0  0
  -25.8940  -32.5120   23.8280 C   0  0  0  0  0  3  0  0  0  0  0  0
  -26.4370  -31.7360   25.0900 C   0  0  1  0  0  0  0  0  0  0  0  0
  -25.3620  -31.4850   26.1750 C   0  0  0  0  0  1  0  0  0  0  0  0
  -27.0210  -30.3640   24.6790 C   0  0  0  0  0  1  0  0  0  0  0  0
  -27.5940  -32.5300   25.7380 C   0  0  0  0  0  1  0  0  0  0  0  0
  -25.5800  -33.9050   24.1760 N   0  0  0  0  0  0  0  0  0  0  0  0
  -25.8920  -34.9660   23.4210 C   0  0  0  0  0  0  0  0  0  0  0  0
  -26.5470  -34.8760   22.3760 O   0  0  0  0  0  0  0  0  0  0  0  0
  -25.0000  -34.0500   24.9900 H   0  0  0  0  0  0  0  0  0  0  0  0
  -24.1420  -36.7460   23.1190 C   0  0  0  0  0  1  0  0  0  0  0  0
  -25.4020  -36.3450   23.9010 C   0  0  0  0  0  3  0  0  0  0  0  0
  -27.5490  -37.2370   24.6910 C   0  0  0  0  0  1  0  0  0  0  0  0
  -26.4230  -37.4100   23.7780 N   0  0  0  0  0  0  0  0  0  0  0  0
  -26.0130  -38.3230   23.9600 H   0  0  0  0  0  0  0  0  0  0  0  0
  2  1  1  0
  2  3  1  0
  4  3  1  0
  4  5  2  0
  6 14  1  0
  7 12  1  0
  8  9  1  0
  8  7  1  0
 10  9  1  0
 10 19  1  0
 10 11  1  0
 12  6  1  0
 12 11  1  0
 13  6  2  0
 14 15  1  0
 14  5  1  0
 16 17  2  0
 17 36  1  0
 18 17  1  0
 18 21  1  0
 19 16  1  0
 19 20  1  0
 20 18  2  0
 21 22  1  0
 22 23  2  0
 24 27  1  0
 24 23  1  0
 25 24  2  0
 26 25  1  0
 26 21  2  0
 27 28  1  0
 28 29  1  0
 29 30  2  0
 31 30  1  0
 31 35  1  0
 32 31  2  0
 33 28  2  0
 33 32  1  0
 34 33  1  0
 36 37  1  0
 37 40  1  0
 37 39  1  0
 38 36  2  0
 41 42  1  0
 41 16  1  0
 43 41  1  0
 44 45  2  0
 44  1  1  0
 46 45  1  0
 47 58  2  0
 48 46  1  0
 48 53  1  0
 49 57  1  0
 49 59  1  0
 50 56  1  0
 50 52  1  0
 51 57  1  0
 52 51  1  0
 53 52  2  0
 54 55  1  0
 54 48  2  0
 55 50  2  0
 56 49  1  0
 57 47  1  0
 59 61  2  0
 60 59  1  0
 62 60  1  0
 63 72  2  0
 63 68  1  0
 64 60  1  0
 64 68  1  0
 65 64  1  0
 66 67  1  0
 66 65  1  0
 67 63  1  0
 68 69  2  0
 69 70  1  0
 71 70  2  0
 72 71  1  0
 73 47  1  0
 73 78  1  0
 73 74  1  0
 74 77  1  1
 74 75  1  0
 76 74  1  0
 78 81  1  0
 79 83  1  0
 79 78  1  0
 80 79  2  0
 83 82  1  0
 85 83  1  0
 85 86  1  0
 85 84  1  0
M  ISO  4   6 100  14 100  45 101  46 101
M  END
>  <TORSDO>  (2) 
F 22

>  <SCORE>  (2) 
-12.815

>  <name>  (2) 
1

>  <ligand_id>  (2) 
1

>  <original_smiles>  (2) 
[H]c1c([H])c([H])c2c(c1[H])C([H])([H])C([H])([H])C([H])([H])C2([H])N([H])C(=O)C1([H])N(C(=O)C([H])(N([H])C(=O)C([H])(N([H])C([H])([H])[H])C([H])([H])[H])C(C([H])([H])[H])(C([H])([H])[H])C([H])([H])[H])C([H])([H])c2c([H])c(OC([H])([H])C([H])([H])C([H])([H])C([H])([H])C([H])([H])C([H])([H])C([H])([H])N([H])C(=O)N3C([H])([H])C([H])([H])C([H])([H])C([H])(n4nc(-c5c([H])c([H])c(Oc6c([H])c([H])c(F)c([H])c6F)c([H])c5[H])c(C(=O)N([H])[H])c4N([H])[H])C3([H])[H])c([H])c([H])c2C1([H])[H]

>  <smiles>  (2) 
[H]c1c([H])c([H])c2c(c1[H])C([H])([H])C([H])([H])C([H])([H])C2([H])N([H])C(=O)C1([H])N(C(=O)C([H])(N([H])C(=O)C([H])(N([H])C([H])([H])[H])C([H])([H])[H])C(C([H])([H])[H])(C([H])([H])[H])C([H])([H])[H])C([H])([H])c2c([H])c(OC([H])([H])C([H])([H])C([H])([H])C([H])([H])C([H])([H])C([H])([H])C([H])([H])N([H])C(=O)N3C([H])([H])C([H])([H])C([H])([H])C([H])(n4nc(-c5c([H])c([H])c(Oc6c([H])c([H])c(F)c([H])c6F)c([H])c5[H])c(C(=O)N([H])[H])c4N([H])[H])C3([H])[H])c([H])c([H])c2C1([H])[H]

$$$$
2:0:0
     RDKit          3D

 90 97  0  0  1  0  0  0  0  0999 V2000
  -30.1360  -22.4860   20.1110 C   0  0  0  0  0  0  0  0  0  0  0  0
  -30.5950  -21.2550   20.4010 N   0  0  0  0  0  0  0  0  0  0  0  0
  -30.0810  -22.9200   18.9600 O   0  0  0  0  0  0  0  0  0  0  0  0
  -30.6110  -20.9840   21.3760 H   0  0  0  0  0  0  0  0  0  0  0  0
  -29.6790  -23.3510   21.2930 C   0  0  0  0  0  2  0  0  0  0  0  0
  -29.6060  -24.8740   21.0160 C   0  0  0  0  0  2  0  0  0  0  0  0
  -28.3880  -25.3450   20.1970 C   0  0  0  0  0  2  0  0  0  0  0  0
  -28.4140  -26.7730   20.1720 O   0  0  0  0  0  0  0  0  0  0  0  0
  -24.5680  -31.8730   23.2500 C   0  0  0  0  0  0  0  0  0  0  0  0
  -27.2140  -27.4500   20.1660 C   0  0  0  0  0  0  0  0  0  0  0  0
  -23.3560  -30.4720   21.6060 C   0  0  0  0  0  3  0  0  0  0  0  0
  -24.8060  -28.9320   20.1820 C   0  0  0  0  0  0  0  0  0  0  0  0
  -25.8750  -30.8430   21.3930 C   0  0  0  0  0  2  0  0  0  0  0  0
  -25.9610  -29.4690   20.7630 C   0  0  0  0  0  0  0  0  0  0  0  0
  -27.1660  -28.7330   20.7540 C   0  0  0  0  0  3  0  0  0  0  0  0
  -26.0410  -26.9220   19.5800 C   0  0  0  0  0  3  0  0  0  0  0  0
  -24.8390  -27.6570   19.5880 C   0  0  0  0  0  3  0  0  0  0  0  0
  -23.5600  -29.7860   20.2280 C   0  0  0  0  0  2  0  0  0  0  0  0
  -24.6190  -31.0770   22.1440 N   0  0  0  0  0  0  0  0  0  0  0  0
  -23.4880  -32.1440   23.7940 O   0  0  0  0  0  0  0  0  0  0  0  0
  -22.7080  -29.4530   22.5720 C   0  0  0  0  0  0  0  0  0  0  0  0
  -21.3830  -29.2730   22.4450 N   0  0  0  0  0  0  0  0  0  0  0  0
  -23.3930  -28.8280   23.3850 O   0  0  0  0  0  0  0  0  0  0  0  0
  -20.8920  -29.8330   21.7620 H   0  0  0  0  0  0  0  0  0  0  0  0
  -18.0070  -28.0860   22.9420 C   0  0  0  0  0  0  0  0  0  0  0  0
  -20.5660  -28.3350   23.2140 C   0  0  0  0  0  3  0  0  0  0  0  0
  -20.6630  -26.9040   22.6330 C   0  0  0  0  0  2  0  0  0  0  0  0
  -19.5600  -26.5900   21.6180 C   0  0  0  0  0  2  0  0  0  0  0  0
  -18.1790  -26.7380   22.2640 C   0  0  0  0  0  2  0  0  0  0  0  0
  -19.1290  -28.8420   23.3750 C   0  0  0  0  0  0  0  0  0  0  0  0
  -18.9150  -30.1070   23.9650 C   0  0  0  0  0  3  0  0  0  0  0  0
  -17.6130  -30.6130   24.1320 C   0  0  0  0  0  3  0  0  0  0  0  0
  -16.5060  -29.8520   23.7170 C   0  0  0  0  0  3  0  0  0  0  0  0
  -16.7040  -28.5930   23.1270 C   0  0  0  0  0  3  0  0  0  0  0  0
  -25.8570  -32.5020   23.8680 C   0  0  0  0  0  3  0  0  0  0  0  0
  -25.5550  -33.9010   24.1920 N   0  0  0  0  0  0  0  0  0  0  0  0
  -25.8970  -34.9490   23.4300 C   0  0  0  0  0  0  0  0  0  0  0  0
  -26.5720  -34.8380   22.4030 O   0  0  0  0  0  0  0  0  0  0  0  0
  -24.9590  -34.0630   24.9930 H   0  0  0  0  0  0  0  0  0  0  0  0
  -24.1840  -36.7490   23.0540 C   0  0  0  0  0  1  0  0  0  0  0  0
  -25.4150  -36.3420   23.8790 C   0  0  0  0  0  3  0  0  0  0  0  0
  -27.5480  -37.2130   24.7250 C   0  0  0  0  0  1  0  0  0  0  0  0
  -26.4540  -37.3890   23.7720 N   0  0  0  0  0  0  0  0  0  0  0  0
  -26.0520  -38.3110   23.9190 H   0  0  0  0  0  0  0  0  0  0  0  0
  -26.3720  -31.7310   25.1450 C   0  0  1  0  0  0  0  0  0  0  0  0
  -25.2810  -31.5040   26.2170 C   0  0  0  0  0  1  0  0  0  0  0  0
  -26.9450  -30.3510   24.7490 C   0  0  0  0  0  1  0  0  0  0  0  0
  -27.5280  -32.5210   25.8030 C   0  0  0  0  0  1  0  0  0  0  0  0
  -31.1430  -20.2970   19.4370 C   0  0  0  0  0  2  0  0  0  0  0  0
  -30.2530  -19.0490   19.2720 C   0  0  0  0  0  2  0  0  0  0  0  0
  -30.4830  -17.9220   20.3050 C   0  0  0  0  0  2  0  0  0  0  0  0
  -29.6250  -16.6900   19.9510 C   0  0  0  0  0  2  0  0  0  0  0  0
  -30.6290  -14.4790   20.3940 C   0  0  0  0  0  0  0  0  0  0  0  0
  -30.3510  -12.3130   19.2740 C   0  0  0  0  0  2  0  0  0  0  0  0
  -29.4110  -12.5530   18.0730 C   0  0  0  0  0  2  0  0  0  0  0  0
  -27.9340  -12.4220   18.4980 C   0  0  0  0  0  2  0  0  0  0  0  0
  -27.6060  -13.2420   19.7740 C   0  0  0  0  0  3  0  0  0  0  0  0
  -28.6610  -12.9880   20.8770 C   0  0  0  0  0  2  0  0  0  0  0  0
  -29.9930  -13.2820   20.3190 N   0  0  0  0  0  0  0  0  0  0  0  0
  -31.7440  -14.6930   19.9110 O   0  0  0  0  0  0  0  0  0  0  0  0
  -29.8310  -15.4910   20.7720 N   0  0  0  0  0  0  0  0  0  0  0  0
  -29.0110  -15.1910   21.2800 H   0  0  0  0  0  0  0  0  0  0  0  0
  -25.2110  -13.8580   20.4920 C   0  0  0  0  0  0  0  0  0  0  0  0
  -24.1440  -13.0880   20.8700 C   0  0  0  0  0  0  0  0  0  0  0  0
  -24.6030  -11.7360   20.8390 C   0  0  0  0  0  0  0  0  0  0  0  0
  -26.2530  -12.9740   20.2560 N   0  0  0  0  0  0  0  0  0  0  0  0
  -25.8910  -11.6930   20.5210 N   0  0  0  0  0  0  0  0  0  0  0  0
  -23.8790  -10.4740   21.0340 C   0  0  0  0  0  0  0  0  0  0  0  0
  -24.3260   -9.5050   21.9590 C   0  0  0  0  0  3  0  0  0  0  0  0
  -23.6060   -8.3050   22.1440 C   0  0  0  0  0  3  0  0  0  0  0  0
  -22.4220   -8.0690   21.4030 C   0  0  0  0  0  0  0  0  0  0  0  0
  -21.9930   -9.0270   20.4680 C   0  0  0  0  0  3  0  0  0  0  0  0
  -22.7140  -10.2190   20.2830 C   0  0  0  0  0  3  0  0  0  0  0  0
  -21.6720   -6.9230   21.4980 O   0  0  0  0  0  0  0  0  0  0  0  0
  -21.6480   -6.1680   22.6430 C   0  0  0  0  0  0  0  0  0  0  0  0
  -21.2570   -6.7120   23.8870 C   0  0  0  0  0  3  0  0  0  0  0  0
  -21.1820   -5.8840   25.0240 C   0  0  0  0  0  3  0  0  0  0  0  0
  -21.4870   -4.5140   24.9200 C   0  0  0  0  0  0  0  0  0  0  0  0
  -21.8700   -3.9700   23.6820 C   0  0  0  0  0  3  0  0  0  0  0  0
  -21.9480   -4.7950   22.5460 C   0  0  0  0  0  0  0  0  0  0  0  0
  -22.2980   -4.2620   21.3510 F   0  0  0  0  0  0  0  0  0  0  0  0
  -21.4080   -3.7170   26.0100 F   0  0  0  0  0  0  0  0  0  0  0  0
  -22.7480  -13.5660   21.1520 C   0  0  0  0  0  0  0  0  0  0  0  0
  -22.0260  -12.8740   22.0270 N   0  0  0  0  0  0  0  0  0  0  0  0
  -22.3050  -14.5910   20.6340 O   0  0  0  0  0  0  0  0  0  0  0  0
  -22.3950  -12.0450   22.4710 H   0  0  0  0  0  0  0  0  0  0  0  0
  -21.0890  -13.1750   22.2550 H   0  0  0  0  0  0  0  0  0  0  0  0
  -25.3770  -15.2300   20.3130 N   0  0  0  0  0  0  0  0  0  0  0  0
  -24.6110  -15.8870   20.4130 H   0  0  0  0  0  0  0  0  0  0  0  0
  -26.2270  -15.6630   19.9770 H   0  0  0  0  0  0  0  0  0  0  0  0
  1  2  1  0
  1  5  1  0
  2  4  1  0
  3  1  2  0
  6  5  1  0
  7  6  1  0
  8  7  1  0
  9 20  2  0
 10  8  1  0
 10 15  1  0
 11 19  1  0
 11 21  1  0
 12 18  1  0
 12 14  1  0
 13 19  1  0
 14 13  1  0
 15 14  2  0
 16 17  1  0
 16 10  2  0
 17 12  2  0
 18 11  1  0
 19  9  1  0
 21 23  2  0
 22 21  1  0
 24 22  1  0
 25 34  2  0
 25 30  1  0
 26 22  1  0
 26 30  1  0
 27 26  1  0
 28 29  1  0
 28 27  1  0
 29 25  1  0
 30 31  2  0
 31 32  1  0
 33 32  2  0
 34 33  1  0
 35  9  1  0
 35 36  1  0
 35 45  1  0
 36 39  1  0
 37 41  1  0
 37 36  1  0
 38 37  2  0
 41 40  1  0
 43 41  1  0
 43 44  1  0
 43 42  1  0
 45 48  1  1
 45 46  1  0
 47 45  1  0
 49  2  1  0
 50 49  1  0
 50 51  1  0
 52 51  1  0
 52 61  1  0
 53 61  1  0
 54 59  1  0
 55 56  1  0
 55 54  1  0
 57 56  1  0
 57 66  1  0
 57 58  1  0
 59 53  1  0
 59 58  1  0
 60 53  2  0
 61 62  1  0
 63 64  2  0
 64 83  1  0
 65 64  1  0
 65 68  1  0
 66 63  1  0
 66 67  1  0
 67 65  2  0
 68 69  1  0
 69 70  2  0
 71 74  1  0
 71 70  1  0
 72 71  2  0
 73 72  1  0
 73 68  2  0
 74 75  1  0
 75 76  1  0
 76 77  2  0
 78 77  1  0
 78 82  1  0
 79 78  2  0
 80 75  2  0
 80 79  1  0
 81 80  1  0
 83 84  1  0
 84 87  1  0
 84 86  1  0
 85 83  2  0
 88 89  1  0
 88 63  1  0
 90 88  1  0
M  ISO  4   7 101   8 101  53 100  61 100
M  END
>  <TORSDO>  (3) 
F 23

>  <SCORE>  (3) 
-12.651

>  <name>  (3) 
2

>  <ligand_id>  (3) 
2

>  <original_smiles>  (3) 
[H]c1c([H])c([H])c2c(c1[H])C([H])([H])C([H])([H])C([H])([H])C2([H])N([H])C(=O)C1([H])N(C(=O)C([H])(N([H])C(=O)C([H])(N([H])C([H])([H])[H])C([H])([H])[H])C(C([H])([H])[H])(C([H])([H])[H])C([H])([H])[H])C([H])([H])c2c([H])c(OC([H])([H])C([H])([H])C([H])([H])C(=O)N([H])C([H])([H])C([H])([H])C([H])([H])C([H])([H])N([H])C(=O)N3C([H])([H])C([H])([H])C([H])([H])C([H])(n4nc(-c5c([H])c([H])c(Oc6c([H])c([H])c(F)c([H])c6F)c([H])c5[H])c(C(=O)N([H])[H])c4N([H])[H])C3([H])[H])c([H])c([H])c2C1([H])[H]

>  <smiles>  (3) 
[H]c1c([H])c([H])c2c(c1[H])C([H])([H])C([H])([H])C([H])([H])C2([H])N([H])C(=O)C1([H])N(C(=O)C([H])(N([H])C(=O)C([H])(N([H])C([H])([H])[H])C([H])([H])[H])C(C([H])([H])[H])(C([H])([H])[H])C([H])([H])[H])C([H])([H])c2c([H])c(OC([H])([H])C([H])([H])C([H])([H])C(=O)N([H])C([H])([H])C([H])([H])C([H])([H])C([H])([H])N([H])C(=O)N3C([H])([H])C([H])([H])C([H])([H])C([H])(n4nc(-c5c([H])c([H])c(Oc6c([H])c([H])c(F)c([H])c6F)c([H])c5[H])c(C(=O)N([H])[H])c4N([H])[H])C3([H])[H])c([H])c([H])c2C1([H])[H]

$$$$
3:0:0
     RDKit          3D

 81 85  0  0  1  0  0  0  0  0999 V2000
  -28.1090  -24.6470   20.3000 O   0  0  0  0  0  1  0  0  0  0  0  0
  -24.7100  -31.7810   23.1610 C   0  0  0  0  0  0  0  0  0  0  0  0
  -27.2070  -26.1440   20.2640 C   0  0  0  0  0  0  0  0  0  0  0  0
  -23.5560  -30.3680   21.5220 C   0  0  0  0  0  3  0  0  0  0  0  0
  -25.0090  -28.5810   20.1690 C   0  0  0  0  0  0  0  0  0  0  0  0
  -26.1560  -30.3130   21.5020 C   0  0  0  0  0  2  0  0  0  0  0  0
  -26.2110  -28.8120   20.8490 C   0  0  0  0  0  0  0  0  0  0  0  0
  -27.2590  -27.6460   20.8460 C   0  0  0  0  0  3  0  0  0  0  0  0
  -25.9680  -26.2870   19.5230 C   0  0  0  0  0  3  0  0  0  0  0  0
  -24.9660  -27.3480   19.4800 C   0  0  0  0  0  3  0  0  0  0  0  0
  -23.8360  -29.6140   20.1780 C   0  0  0  0  0  2  0  0  0  0  0  0
  -24.8390  -30.8700   22.1140 N   0  0  0  0  0  0  0  0  0  0  0  0
  -23.6010  -32.1150   23.6230 O   0  0  0  0  0  0  0  0  0  0  0  0
  -22.7620  -29.4580   22.5040 C   0  0  0  0  0  0  0  0  0  0  0  0
  -21.4220  -29.3560   22.3730 N   0  0  0  0  0  0  0  0  0  0  0  0
  -23.3780  -28.8290   23.3670 O   0  0  0  0  0  0  0  0  0  0  0  0
  -20.9670  -29.9120   21.6630 H   0  0  0  0  0  0  0  0  0  0  0  0
  -17.9970  -28.2130   22.9010 C   0  0  0  0  0  0  0  0  0  0  0  0
  -20.5670  -28.4380   23.1430 C   0  0  0  0  0  3  0  0  0  0  0  0
  -20.6330  -27.0060   22.5600 C   0  0  0  0  0  2  0  0  0  0  0  0
  -19.5210  -26.7160   21.5460 C   0  0  0  0  0  2  0  0  0  0  0  0
  -18.1460  -26.8740   22.1990 C   0  0  0  0  0  2  0  0  0  0  0  0
  -19.1320  -28.9550   23.3290 C   0  0  0  0  0  0  0  0  0  0  0  0
  -18.9320  -30.2040   23.9560 C   0  0  0  0  0  3  0  0  0  0  0  0
  -17.6350  -30.7130   24.1530 C   0  0  0  0  0  3  0  0  0  0  0  0
  -16.5160  -29.9710   23.7350 C   0  0  0  0  0  3  0  0  0  0  0  0
  -16.6980  -28.7220   23.1160 C   0  0  0  0  0  3  0  0  0  0  0  0
  -25.9400  -32.4590   23.8420 C   0  0  0  0  0  3  0  0  0  0  0  0
  -25.5980  -33.8650   24.1720 N   0  0  0  0  0  0  0  0  0  0  0  0
  -25.9200  -34.9450   23.4450 C   0  0  0  0  0  0  0  0  0  0  0  0
  -26.5760  -34.8640   22.4040 O   0  0  0  0  0  0  0  0  0  0  0  0
  -25.0070  -33.9990   24.9800 H   0  0  0  0  0  0  0  0  0  0  0  0
  -24.1680  -36.7480   23.1980 C   0  0  0  0  0  1  0  0  0  0  0  0
  -25.4480  -36.3330   23.9420 C   0  0  0  0  0  3  0  0  0  0  0  0
  -27.6060  -37.2470   24.6880 C   0  0  0  0  0  1  0  0  0  0  0  0
  -26.4650  -37.3980   23.7880 N   0  0  0  0  0  0  0  0  0  0  0  0
  -26.0550  -38.3150   23.9480 H   0  0  0  0  0  0  0  0  0  0  0  0
  -26.3960  -31.7200   25.1620 C   0  0  1  0  0  0  0  0  0  0  0  0
  -25.2580  -31.5140   26.1910 C   0  0  0  0  0  1  0  0  0  0  0  0
  -26.9880  -30.3300   24.8490 C   0  0  0  0  0  1  0  0  0  0  0  0
  -27.5230  -32.5250   25.8520 C   0  0  0  0  0  1  0  0  0  0  0  0
  -28.1400  -22.5480   20.1630 C   0  0  0  0  0 15  0  0  0  0  0  0
  -29.1420  -20.4180   20.2160 C   0  0  0  0  0 15  0  0  0  0  0  0
  -29.9010  -16.6470   20.0860 C   0  0  0  0  0  0  0  0  0  0  0  0
  -30.2300  -13.8900   19.2940 C   0  0  0  0  0  2  0  0  0  0  0  0
  -29.4480  -13.0530   18.1990 C   0  0  0  0  0  2  0  0  0  0  0  0
  -28.1340  -12.4820   18.7300 C   0  0  0  0  0  2  0  0  0  0  0  0
  -27.5010  -13.5140   19.6750 C   0  0  0  0  0  3  0  0  0  0  0  0
  -28.4750  -14.2100   20.6950 C   0  0  0  0  0  2  0  0  0  0  0  0
  -29.4550  -15.1290   19.9600 N   0  0  0  0  0  0  0  0  0  0  0  0
  -31.1430  -16.3980   20.0040 O   0  0  0  0  0  0  0  0  0  0  0  0
  -29.2570  -18.3100   20.1340 N   0  0  0  0  0  2  0  0  0  0  0  0
  -30.2580  -18.4710   20.1320 H   0  0  0  0  0  0  0  0  0  0  0  0
  -25.1600  -13.9200   20.5080 C   0  0  0  0  0  0  0  0  0  0  0  0
  -24.1280  -13.1120   20.8810 C   0  0  0  0  0  0  0  0  0  0  0  0
  -24.6260  -11.7720   20.8220 C   0  0  0  0  0  0  0  0  0  0  0  0
  -26.2240  -13.0860   20.2420 N   0  0  0  0  0  0  0  0  0  0  0  0
  -25.9190  -11.7780   20.4820 N   0  0  0  0  0  0  0  0  0  0  0  0
  -23.9140  -10.4950   21.0120 C   0  0  0  0  0  0  0  0  0  0  0  0
  -24.3570   -9.5290   21.9420 C   0  0  0  0  0  3  0  0  0  0  0  0
  -23.6350   -8.3280   22.1300 C   0  0  0  0  0  3  0  0  0  0  0  0
  -22.4560   -8.0830   21.3870 C   0  0  0  0  0  0  0  0  0  0  0  0
  -22.0290   -9.0390   20.4470 C   0  0  0  0  0  3  0  0  0  0  0  0
  -22.7510  -10.2310   20.2590 C   0  0  0  0  0  3  0  0  0  0  0  0
  -21.7070   -6.9350   21.4820 O   0  0  0  0  0  0  0  0  0  0  0  0
  -21.6700   -6.1910   22.6350 C   0  0  0  0  0  0  0  0  0  0  0  0
  -21.2140   -6.7320   23.8560 C   0  0  0  0  0  3  0  0  0  0  0  0
  -21.1260   -5.9140   25.0000 C   0  0  0  0  0  3  0  0  0  0  0  0
  -21.4850   -4.5540   24.9250 C   0  0  0  0  0  0  0  0  0  0  0  0
  -21.9340   -4.0110   23.7070 C   0  0  0  0  0  3  0  0  0  0  0  0
  -22.0220   -4.8270   22.5660 C   0  0  0  0  0  0  0  0  0  0  0  0
  -22.4340   -4.2930   21.3900 F   0  0  0  0  0  0  0  0  0  0  0  0
  -21.3950   -3.7660   26.0220 F   0  0  0  0  0  0  0  0  0  0  0  0
  -22.7270  -13.5620   21.1730 C   0  0  0  0  0  0  0  0  0  0  0  0
  -22.0260  -12.8570   22.0520 N   0  0  0  0  0  0  0  0  0  0  0  0
  -22.2670  -14.5820   20.6590 O   0  0  0  0  0  0  0  0  0  0  0  0
  -22.4140  -12.0340   22.4890 H   0  0  0  0  0  0  0  0  0  0  0  0
  -21.0880  -13.1430   22.2910 H   0  0  0  0  0  0  0  0  0  0  0  0
  -25.2790  -15.2960   20.3350 N   0  0  0  0  0  0  0  0  0  0  0  0
  -24.4980  -15.9290   20.4650 H   0  0  0  0  0  0  0  0  0  0  0  0
  -26.1180  -15.7610   20.0090 H   0  0  0  0  0  0  0  0  0  0  0  0
  2 13  2  0
  3  1  1  0
  3  8  1  0
  4 12  1  0
  4 14  1  0
  5 11  1  0
  5  7  1  0
  6 12  1  0
  7  6  1  0
  8  7  2  0
  9  3  2  0
 10  9  1  0
 10  5  2  0
 11  4  1  0
 12  2  1  0
 14 16  2  0
 15 14  1  0
 17 15  1  0
 18 27  2  0
 18 23  1  0
 19 15  1  0
 19 23  1  0
 20 19  1  0
 21 22  1  0
 21 20  1  0
 22 18  1  0
 23 24  2  0
 24 25  1  0
 26 25  2  0
 27 26  1  0
 28  2  1  0
 28 29  1  0
 28 38  1  0
 29 32  1  0
 30 34  1  0
 30 29  1  0
 31 30  2  0
 34 33  1  0
 36 34  1  0
 36 37  1  0
 36 35  1  0
 38 41  1  1
 38 39  1  0
 40 38  1  0
 44 52  1  0
 45 50  1  0
 46 47  1  0
 46 45  1  0
 48 47  1  0
 48 57  1  0
 48 49  1  0
 50 44  1  0
 50 49  1  0
 51 44  2  0
 53 52  1  0
 54 55  2  0
 55 74  1  0
 56 55  1  0
 56 59  1  0
 57 58  1  0
 57 54  1  0
 58 56  2  0
 59 60  1  0
 60 61  2  0
 62 65  1  0
 62 61  1  0
 63 62  2  0
 64 63  1  0
 64 59  2  0
 65 66  1  0
 66 67  1  0
 67 68  2  0
 69 68  1  0
 69 73  1  0
 70 69  2  0
 71 66  2  0
 71 70  1  0
 72 71  1  0
 74 75  1  0
 75 78  1  0
 75 77  1  0
 76 74  2  0
 79 80  1  0
 79 54  1  0
 81 79  1  0
M  ISO  4   1 101  42 101  44 100  52 100
M  END
>  <TORSDO>  (4) 
F 17

>  <SCORE>  (4) 
-16.141

>  <name>  (4) 
3

>  <ligand_id>  (4) 
3

>  <original_smiles>  (4) 
[H]c1c([H])c([H])c2c(c1[H])C([H])([H])C([H])([H])C([H])([H])C2([H])N([H])C(=O)C1([H])N(C(=O)C([H])(N([H])C(=O)C([H])(N([H])C([H])([H])[H])C([H])([H])[H])C(C([H])([H])[H])(C([H])([H])[H])C([H])([H])[H])C([H])([H])c2c([H])c(OC([H])([H])C([H])([H])N([H])C(=O)N3C([H])([H])C([H])([H])C([H])([H])C([H])(n4nc(-c5c([H])c([H])c(Oc6c([H])c([H])c(F)c([H])c6F)c([H])c5[H])c(C(=O)N([H])[H])c4N([H])[H])C3([H])[H])c([H])c([H])c2C1([H])[H]

>  <smiles>  (4) 
[H]c1c([H])c([H])c2c(c1[H])C([H])([H])C([H])([H])C([H])([H])C2([H])N([H])C(=O)C1([H])N(C(=O)C([H])(N([H])C(=O)C([H])(N([H])C([H])([H])[H])C([H])([H])[H])C(C([H])([H])[H])(C([H])([H])[H])C([H])([H])[H])C([H])([H])c2c([H])c(OC([H])([H])C([H])([H])N([H])C(=O)N3C([H])([H])C([H])([H])C([H])([H])C([H])(n4nc(-c5c([H])c([H])c(Oc6c([H])c([H])c(F)c([H])c6F)c([H])c5[H])c(C(=O)N([H])[H])c4N([H])[H])C3([H])[H])c([H])c([H])c2C1([H])[H]

$$$$
4:0:0
     RDKit          3D

 90 98  0  0  1  0  0  0  0  0999 V2000
  -28.2610  -21.6180   21.0860 C   0  0  0  0  0  3  0  0  0  0  0  0
  -28.1040  -22.7940   20.0730 C   0  0  0  0  0  3  0  0  0  0  0  0
  -28.1500  -24.2290   20.7040 C   0  0  0  0  0  2  0  0  0  0  0  0
  -28.5430  -25.3690   19.7180 C   0  0  0  0  0  2  0  0  0  0  0  0
  -28.4560  -26.7150   20.2430 O   0  0  0  0  0  0  0  0  0  0  0  0
  -24.6090  -31.9120   23.2320 C   0  0  0  0  0  0  0  0  0  0  0  0
  -27.2650  -27.4270   20.2000 C   0  0  0  0  0  0  0  0  0  0  0  0
  -23.4060  -30.4960   21.5970 C   0  0  0  0  0  3  0  0  0  0  0  0
  -24.8670  -28.9470   20.1890 C   0  0  0  0  0  0  0  0  0  0  0  0
  -25.9290  -30.8600   21.3880 C   0  0  0  0  0  2  0  0  0  0  0  0
  -26.0240  -29.4770   20.7700 C   0  0  0  0  0  0  0  0  0  0  0  0
  -27.2270  -28.7270   20.7680 C   0  0  0  0  0  3  0  0  0  0  0  0
  -26.0830  -26.9120   19.6220 C   0  0  0  0  0  3  0  0  0  0  0  0
  -24.8940  -27.6650   19.6110 C   0  0  0  0  0  3  0  0  0  0  0  0
  -23.6200  -29.8040   20.2230 C   0  0  0  0  0  2  0  0  0  0  0  0
  -24.6670  -31.1030   22.1340 N   0  0  0  0  0  0  0  0  0  0  0  0
  -23.5260  -32.1840   23.7700 O   0  0  0  0  0  0  0  0  0  0  0  0
  -22.7510  -29.4820   22.5640 C   0  0  0  0  0  0  0  0  0  0  0  0
  -21.4260  -29.3020   22.4410 N   0  0  0  0  0  0  0  0  0  0  0  0
  -23.4350  -28.8590   23.3810 O   0  0  0  0  0  0  0  0  0  0  0  0
  -20.9310  -29.8660   21.7650 H   0  0  0  0  0  0  0  0  0  0  0  0
  -18.0560  -28.1030   22.9420 C   0  0  0  0  0  0  0  0  0  0  0  0
  -20.6120  -28.3640   23.2150 C   0  0  0  0  0  3  0  0  0  0  0  0
  -20.7160  -26.9300   22.6460 C   0  0  0  0  0  2  0  0  0  0  0  0
  -19.6150  -26.6020   21.6310 C   0  0  0  0  0  2  0  0  0  0  0  0
  -18.2330  -26.7500   22.2750 C   0  0  0  0  0  2  0  0  0  0  0  0
  -19.1730  -28.8670   23.3720 C   0  0  0  0  0  0  0  0  0  0  0  0
  -18.9560  -30.1320   23.9580 C   0  0  0  0  0  3  0  0  0  0  0  0
  -17.6500  -30.6340   24.1170 C   0  0  0  0  0  3  0  0  0  0  0  0
  -16.5460  -29.8670   23.7060 C   0  0  0  0  0  3  0  0  0  0  0  0
  -16.7490  -28.6030   23.1240 C   0  0  0  0  0  3  0  0  0  0  0  0
  -25.8910  -32.5520   23.8520 C   0  0  0  0  0  3  0  0  0  0  0  0
  -25.5830  -33.9530   24.1680 N   0  0  0  0  0  0  0  0  0  0  0  0
  -25.9160  -34.9980   23.3980 C   0  0  0  0  0  0  0  0  0  0  0  0
  -26.5900  -34.8830   22.3700 O   0  0  0  0  0  0  0  0  0  0  0  0
  -24.9930  -34.1170   24.9700 H   0  0  0  0  0  0  0  0  0  0  0  0
  -24.1950  -36.7920   23.0110 C   0  0  0  0  0  1  0  0  0  0  0  0
  -25.4270  -36.3910   23.8380 C   0  0  0  0  0  3  0  0  0  0  0  0
  -27.5590  -37.2830   24.6720 C   0  0  0  0  0  1  0  0  0  0  0  0
  -26.4600  -37.4430   23.7220 N   0  0  0  0  0  0  0  0  0  0  0  0
  -26.0540  -38.3650   23.8600 H   0  0  0  0  0  0  0  0  0  0  0  0
  -26.4040  -31.7930   25.1370 C   0  0  1  0  0  0  0  0  0  0  0  0
  -25.3120  -31.5670   26.2090 C   0  0  0  0  0  1  0  0  0  0  0  0
  -26.9830  -30.4120   24.7520 C   0  0  0  0  0  1  0  0  0  0  0  0
  -27.5520  -32.5920   25.7980 C   0  0  0  0  0  1  0  0  0  0  0  0
  -28.1190  -20.2960   20.5190 O   0  0  0  0  0  0  0  0  0  0  0  0
  -31.6210  -19.1510   19.9750 C   0  0  0  0  0  3  0  0  0  0  0  0
  -31.4870  -17.7550   20.1630 C   0  0  0  0  0  3  0  0  0  0  0  0
  -30.5110  -20.0080   20.0960 C   0  0  0  0  0  3  0  0  0  0  0  0
  -29.1170  -18.0700   20.5680 C   0  0  0  0  0  3  0  0  0  0  0  0
  -30.2230  -17.1770   20.4620 C   0  0  0  0  0  0  0  0  0  0  0  0
  -29.2410  -19.4810   20.4080 C   0  0  0  0  0  0  0  0  0  0  0  0
  -30.6930  -14.6470   20.3060 C   0  0  0  0  0  0  0  0  0  0  0  0
  -30.3530  -12.4180   19.2820 C   0  0  0  0  0  2  0  0  0  0  0  0
  -29.4270  -12.6010   18.0630 C   0  0  0  0  0  2  0  0  0  0  0  0
  -27.9510  -12.4800   18.4860 C   0  0  0  0  0  2  0  0  0  0  0  0
  -27.6060  -13.3160   19.7480 C   0  0  0  0  0  3  0  0  0  0  0  0
  -28.6820  -13.1820   20.8540 C   0  0  0  0  0  2  0  0  0  0  0  0
  -30.0000  -13.4630   20.2590 N   0  0  0  0  0  0  0  0  0  0  0  0
  -31.8460  -14.7330   19.8850 O   0  0  0  0  0  0  0  0  0  0  0  0
  -29.9850  -15.7530   20.6780 N   0  0  0  0  0  0  0  0  0  0  0  0
  -29.0620  -15.5380   21.0170 H   0  0  0  0  0  0  0  0  0  0  0  0
  -25.2150  -13.8910   20.4900 C   0  0  0  0  0  0  0  0  0  0  0  0
  -24.1530  -13.1150   20.8710 C   0  0  0  0  0  0  0  0  0  0  0  0
  -24.6210  -11.7640   20.8310 C   0  0  0  0  0  0  0  0  0  0  0  0
  -26.2620  -13.0200   20.2470 N   0  0  0  0  0  0  0  0  0  0  0  0
  -25.9100  -11.7340   20.5100 N   0  0  0  0  0  0  0  0  0  0  0  0
  -23.8970  -10.5010   21.0240 C   0  0  0  0  0  0  0  0  0  0  0  0
  -24.3400   -9.5250   21.9470 C   0  0  0  0  0  3  0  0  0  0  0  0
  -23.6110   -8.3300   22.1280 C   0  0  0  0  0  3  0  0  0  0  0  0
  -22.4260   -8.1020   21.3870 C   0  0  0  0  0  0  0  0  0  0  0  0
  -22.0050   -9.0620   20.4540 C   0  0  0  0  0  3  0  0  0  0  0  0
  -22.7350  -10.2500   20.2670 C   0  0  0  0  0  3  0  0  0  0  0  0
  -21.6680   -6.9590   21.4770 O   0  0  0  0  0  0  0  0  0  0  0  0
  -21.6330   -6.2060   22.6230 C   0  0  0  0  0  0  0  0  0  0  0  0
  -21.2260   -6.7500   23.8610 C   0  0  0  0  0  3  0  0  0  0  0  0
  -21.1360   -5.9250   24.9980 C   0  0  0  0  0  3  0  0  0  0  0  0
  -21.4470   -4.5540   24.9020 C   0  0  0  0  0  0  0  0  0  0  0  0
  -21.8490   -4.0090   23.6690 C   0  0  0  0  0  3  0  0  0  0  0  0
  -21.9390   -4.8330   22.5330 C   0  0  0  0  0  0  0  0  0  0  0  0
  -22.3060   -4.2990   21.3430 F   0  0  0  0  0  0  0  0  0  0  0  0
  -21.3560   -3.7590   25.9930 F   0  0  0  0  0  0  0  0  0  0  0  0
  -22.7590  -13.5930   21.1550 C   0  0  0  0  0  0  0  0  0  0  0  0
  -22.0390  -12.8890   22.0270 N   0  0  0  0  0  0  0  0  0  0  0  0
  -22.3130  -14.6170   20.6450 O   0  0  0  0  0  0  0  0  0  0  0  0
  -22.4130  -12.0630   22.4670 H   0  0  0  0  0  0  0  0  0  0  0  0
  -21.1000  -13.1830   22.2560 H   0  0  0  0  0  0  0  0  0  0  0  0
  -25.3730  -15.2640   20.3070 N   0  0  0  0  0  0  0  0  0  0  0  0
  -24.5850  -15.9040   20.3290 H   0  0  0  0  0  0  0  0  0  0  0  0
  -26.1920  -15.6730   19.8760 H   0  0  0  0  0  0  0  0  0  0  0  0
  2  3  1  0
  2  1  2  0
  4  5  1  0
  4  3  1  0
  6 17  2  0
  7  5  1  0
  7 12  1  0
  8 16  1  0
  8 18  1  0
  9 15  1  0
  9 11  1  0
 10 16  1  0
 11 10  1  0
 12 11  2  0
 13  7  2  0
 14 13  1  0
 14  9  2  0
 15  8  1  0
 16  6  1  0
 18 20  2  0
 19 18  1  0
 21 19  1  0
 22 31  2  0
 22 27  1  0
 23 19  1  0
 23 27  1  0
 24 23  1  0
 25 26  1  0
 25 24  1  0
 26 22  1  0
 27 28  2  0
 28 29  1  0
 30 29  2  0
 31 30  1  0
 32  6  1  0
 32 33  1  0
 32 42  1  0
 33 36  1  0
 34 38  1  0
 34 33  1  0
 35 34  2  0
 38 37  1  0
 40 38  1  0
 40 41  1  0
 40 39  1  0
 42 45  1  1
 42 43  1  0
 44 42  1  0
 46  1  1  0
 47 49  2  0
 47 48  1  0
 48 51  2  0
 49 52  1  0
 51 50  1  0
 51 61  1  0
 52 46  1  0
 52 50  2  0
 53 61  1  0
 54 59  1  0
 55 56  1  0
 55 54  1  0
 57 56  1  0
 57 66  1  0
 57 58  1  0
 59 53  1  0
 59 58  1  0
 60 53  2  0
 61 62  1  0
 63 64  2  0
 64 83  1  0
 65 64  1  0
 65 68  1  0
 66 63  1  0
 66 67  1  0
 67 65  2  0
 68 69  1  0
 69 70  2  0
 71 74  1  0
 71 70  1  0
 72 71  2  0
 73 72  1  0
 73 68  2  0
 74 75  1  0
 75 76  1  0
 76 77  2  0
 78 77  1  0
 78 82  1  0
 79 78  2  0
 80 75  2  0
 80 79  1  0
 81 80  1  0
 83 84  1  0
 84 87  1  0
 84 86  1  0
 85 83  2  0
 88 89  1  0
 88 63  1  0
 90 88  1  0
M  ISO  4   4 101   5 101  53 100  61 100
M  END
>  <TORSDO>  (5) 
F 21

>  <SCORE>  (5) 
-13.667

>  <name>  (5) 
4

>  <ligand_id>  (5) 
4

>  <original_smiles>  (5) 
[H]c1c([H])c(OC([H])([H])C([H])([H])C([H])([H])C([H])([H])Oc2c([H])c([H])c3c(c2[H])C([H])([H])N(C(=O)C([H])(N([H])C(=O)C([H])(N([H])C([H])([H])[H])C([H])([H])[H])C(C([H])([H])[H])(C([H])([H])[H])C([H])([H])[H])C([H])(C(=O)N([H])C2([H])c4c([H])c([H])c([H])c([H])c4C([H])([H])C([H])([H])C2([H])[H])C3([H])[H])c([H])c(N([H])C(=O)N2C([H])([H])C([H])([H])C([H])([H])C([H])(n3nc(-c4c([H])c([H])c(Oc5c([H])c([H])c(F)c([H])c5F)c([H])c4[H])c(C(=O)N([H])[H])c3N([H])[H])C2([H])[H])c1[H]

>  <smiles>  (5) 
[H]c1c([H])c(OC([H])([H])C([H])([H])C([H])([H])C([H])([H])Oc2c([H])c([H])c3c(c2[H])C([H])([H])N(C(=O)C([H])(N([H])C(=O)C([H])(N([H])C([H])([H])[H])C([H])([H])[H])C(C([H])([H])[H])(C([H])([H])[H])C([H])([H])[H])C([H])(C(=O)N([H])C2([H])c4c([H])c([H])c([H])c([H])c4C([H])([H])C([H])([H])C2([H])[H])C3([H])[H])c([H])c(N([H])C(=O)N2C([H])([H])C([H])([H])C([H])([H])C([H])(n3nc(-c4c([H])c([H])c(Oc5c([H])c([H])c(F)c([H])c5F)c([H])c4[H])c(C(=O)N([H])[H])c3N([H])[H])C2([H])[H])c1[H]

$$$$
5:0:0
     RDKit          3D

 89 97  0  0  1  0  0  0  0  0999 V2000
  -29.5440  -21.4810   19.8000 O   0  0  0  0  0  0  0  0  0  0  0  0
  -30.2950  -17.8220   19.2330 C   0  0  0  0  0  3  0  0  0  0  0  0
  -29.6100  -18.0620   21.5290 C   0  0  0  0  0  3  0  0  0  0  0  0
  -30.1380  -19.2310   19.0550 C   0  0  0  0  0  3  0  0  0  0  0  0
  -29.4900  -19.4810   21.3580 C   0  0  0  0  0  3  0  0  0  0  0  0
  -30.0110  -17.1830   20.4750 C   0  0  0  0  0  0  0  0  0  0  0  0
  -29.7280  -20.1090   20.1010 C   0  0  0  0  0  0  0  0  0  0  0  0
  -30.6810  -14.6900   20.0640 C   0  0  0  0  0  0  0  0  0  0  0  0
  -30.4070  -12.4780   18.9480 C   0  0  0  0  0  2  0  0  0  0  0  0
  -29.4060  -12.6530   17.7840 C   0  0  0  0  0  2  0  0  0  0  0  0
  -27.9570  -12.4770   18.2740 C   0  0  0  0  0  2  0  0  0  0  0  0
  -27.6670  -13.2830   19.5690 C   0  0  0  0  0  3  0  0  0  0  0  0
  -28.7820  -13.0970   20.6240 C   0  0  0  0  0  2  0  0  0  0  0  0
  -30.0640  -13.4630   19.9990 N   0  0  0  0  0  0  0  0  0  0  0  0
  -31.7780  -14.8690   19.5220 O   0  0  0  0  0  0  0  0  0  0  0  0
  -30.0080  -15.7210   20.6770 N   0  0  0  0  0  0  0  0  0  0  0  0
  -29.2980  -15.3940   21.3180 H   0  0  0  0  0  0  0  0  0  0  0  0
  -25.3150  -13.8610   20.4180 C   0  0  0  0  0  0  0  0  0  0  0  0
  -24.2640  -13.0810   20.8230 C   0  0  0  0  0  0  0  0  0  0  0  0
  -24.7220  -11.7300   20.7360 C   0  0  0  0  0  0  0  0  0  0  0  0
  -26.3440  -12.9850   20.1100 N   0  0  0  0  0  0  0  0  0  0  0  0
  -25.9970  -11.6970   20.3590 N   0  0  0  0  0  0  0  0  0  0  0  0
  -24.0000  -10.4630   20.9290 C   0  0  0  0  0  0  0  0  0  0  0  0
  -24.4340   -9.5050   21.8700 C   0  0  0  0  0  3  0  0  0  0  0  0
  -23.7110   -8.3070   22.0570 C   0  0  0  0  0  3  0  0  0  0  0  0
  -22.5420   -8.0580   21.3020 C   0  0  0  0  0  0  0  0  0  0  0  0
  -22.1280   -9.0050   20.3490 C   0  0  0  0  0  3  0  0  0  0  0  0
  -22.8510  -10.1940   20.1600 C   0  0  0  0  0  3  0  0  0  0  0  0
  -21.7930   -6.9100   21.3950 O   0  0  0  0  0  0  0  0  0  0  0  0
  -21.6850   -6.2140   22.5740 C   0  0  0  0  0  0  0  0  0  0  0  0
  -21.1710   -6.8070   23.7460 C   0  0  0  0  0  3  0  0  0  0  0  0
  -21.0150   -6.0350   24.9150 C   0  0  0  0  0  3  0  0  0  0  0  0
  -21.3580   -4.6720   24.9110 C   0  0  0  0  0  0  0  0  0  0  0  0
  -21.8680   -4.0770   23.7420 C   0  0  0  0  0  3  0  0  0  0  0  0
  -22.0250   -4.8450   22.5760 C   0  0  0  0  0  0  0  0  0  0  0  0
  -22.4920   -4.2620   21.4470 F   0  0  0  0  0  0  0  0  0  0  0  0
  -21.2020   -3.9290   26.0300 F   0  0  0  0  0  0  0  0  0  0  0  0
  -22.8840  -13.5550   21.1750 C   0  0  0  0  0  0  0  0  0  0  0  0
  -22.1950  -12.8410   22.0630 N   0  0  0  0  0  0  0  0  0  0  0  0
  -22.4230  -14.5940   20.7030 O   0  0  0  0  0  0  0  0  0  0  0  0
  -22.5800  -12.0020   22.4720 H   0  0  0  0  0  0  0  0  0  0  0  0
  -21.2690  -13.1360   22.3320 H   0  0  0  0  0  0  0  0  0  0  0  0
  -25.4750  -15.2350   20.2710 N   0  0  0  0  0  0  0  0  0  0  0  0
  -24.7240  -15.8930   20.4490 H   0  0  0  0  0  0  0  0  0  0  0  0
  -26.3150  -15.6820   19.9300 H   0  0  0  0  0  0  0  0  0  0  0  0
  -29.5360  -22.5380   20.8210 C   0  0  0  0  0  2  0  0  0  0  0  0
  -29.6060  -24.0830   20.3680 C   0  0  0  0  0  3  0  0  0  0  0  0
  -28.3060  -24.9980   20.2520 C   0  0  0  0  0  3  0  0  0  0  0  0
  -28.4640  -26.4780   20.2340 O   0  0  0  0  0  0  0  0  0  0  0  0
  -24.6350  -31.8460   23.2070 C   0  0  0  0  0  0  0  0  0  0  0  0
  -27.3140  -27.2920   20.1940 C   0  0  0  0  0  0  0  0  0  0  0  0
  -23.4500  -30.4330   21.5650 C   0  0  0  0  0  3  0  0  0  0  0  0
  -24.9230  -28.8770   20.1610 C   0  0  0  0  0  0  0  0  0  0  0  0
  -25.9890  -30.7640   21.3990 C   0  0  0  0  0  2  0  0  0  0  0  0
  -26.0830  -29.3840   20.7600 C   0  0  0  0  0  0  0  0  0  0  0  0
  -27.2790  -28.6040   20.7640 C   0  0  0  0  0  3  0  0  0  0  0  0
  -26.1260  -26.8340   19.5790 C   0  0  0  0  0  3  0  0  0  0  0  0
  -24.9470  -27.6060   19.5630 C   0  0  0  0  0  3  0  0  0  0  0  0
  -23.6760  -29.7400   20.1940 C   0  0  0  0  0  2  0  0  0  0  0  0
  -24.7100  -31.0330   22.1130 N   0  0  0  0  0  0  0  0  0  0  0  0
  -23.5480  -32.1220   23.7320 O   0  0  0  0  0  0  0  0  0  0  0  0
  -22.7860  -29.4210   22.5280 C   0  0  0  0  0  0  0  0  0  0  0  0
  -21.4620  -29.2400   22.3930 N   0  0  0  0  0  0  0  0  0  0  0  0
  -23.4610  -28.7970   23.3520 O   0  0  0  0  0  0  0  0  0  0  0  0
  -20.9810  -29.7870   21.6940 H   0  0  0  0  0  0  0  0  0  0  0  0
  -18.0800  -28.0600   22.8960 C   0  0  0  0  0  0  0  0  0  0  0  0
  -20.6400  -28.3050   23.1600 C   0  0  0  0  0  3  0  0  0  0  0  0
  -20.7370  -26.8770   22.5740 C   0  0  0  0  0  2  0  0  0  0  0  0
  -19.6290  -26.5640   21.5650 C   0  0  0  0  0  2  0  0  0  0  0  0
  -18.2490  -26.7140   22.2100 C   0  0  0  0  0  2  0  0  0  0  0  0
  -19.2040  -28.8150   23.3260 C   0  0  0  0  0  0  0  0  0  0  0  0
  -18.9940  -30.0760   23.9240 C   0  0  0  0  0  3  0  0  0  0  0  0
  -17.6920  -30.5810   24.1000 C   0  0  0  0  0  3  0  0  0  0  0  0
  -16.5830  -29.8240   23.6860 C   0  0  0  0  0  3  0  0  0  0  0  0
  -16.7780  -28.5660   23.0900 C   0  0  0  0  0  3  0  0  0  0  0  0
  -25.9120  -32.4860   23.8370 C   0  0  0  0  0  3  0  0  0  0  0  0
  -26.4240  -31.7160   25.1150 C   0  0  1  0  0  0  0  0  0  0  0  0
  -25.3250  -31.4660   26.1740 C   0  0  0  0  0  1  0  0  0  0  0  0
  -27.0240  -30.3450   24.7260 C   0  0  0  0  0  1  0  0  0  0  0  0
  -27.5650  -32.5170   25.7860 C   0  0  0  0  0  1  0  0  0  0  0  0
  -25.5930  -33.8820   24.1710 N   0  0  0  0  0  0  0  0  0  0  0  0
  -25.9220  -34.9400   23.4160 C   0  0  0  0  0  0  0  0  0  0  0  0
  -26.5960  -34.8420   22.3870 O   0  0  0  0  0  0  0  0  0  0  0  0
  -25.0020  -34.0290   24.9740 H   0  0  0  0  0  0  0  0  0  0  0  0
  -24.1860  -36.7230   23.0530 C   0  0  0  0  0  1  0  0  0  0  0  0
  -25.4230  -36.3230   23.8750 C   0  0  0  0  0  3  0  0  0  0  0  0
  -27.5440  -37.2150   24.7320 C   0  0  0  0  0  1  0  0  0  0  0  0
  -26.4500  -37.3830   23.7760 N   0  0  0  0  0  0  0  0  0  0  0  0
  -26.0400  -38.3000   23.9230 H   0  0  0  0  0  0  0  0  0  0  0  0
  1  7  1  0
  1 46  1  0
  2  6  1  0
  4  2  2  0
  4  7  1  0
  5  3  1  0
  6 16  1  0
  6  3  2  0
  7  5  2  0
  8 16  1  0
  9 14  1  0
 10 11  1  0
 10  9  1  0
 12 11  1  0
 12 21  1  0
 12 13  1  0
 14  8  1  0
 14 13  1  0
 15  8  2  0
 16 17  1  0
 18 19  2  0
 19 38  1  0
 20 19  1  0
 20 23  1  0
 21 22  1  0
 21 18  1  0
 22 20  2  0
 23 24  1  0
 24 25  2  0
 26 29  1  0
 26 25  1  0
 27 26  2  0
 28 27  1  0
 28 23  2  0
 29 30  1  0
 30 35  2  0
 30 31  1  0
 31 32  2  0
 33 32  1  0
 33 37  1  0
 34 33  2  0
 35 34  1  0
 36 35  1  0
 38 39  1  0
 39 42  1  0
 39 41  1  0
 40 38  2  0
 43 18  1  0
 43 44  1  0
 45 43  1  0
 47 46  1  0
 48 47  2  0
 49 48  1  0
 50 61  2  0
 51 49  1  0
 51 56  1  0
 52 60  1  0
 52 62  1  0
 53 59  1  0
 53 55  1  0
 54 60  1  0
 55 56  2  0
 55 54  1  0
 57 51  2  0
 58 57  1  0
 58 53  2  0
 59 52  1  0
 60 50  1  0
 62 64  2  0
 63 62  1  0
 65 63  1  0
 66 75  2  0
 66 71  1  0
 67 63  1  0
 67 71  1  0
 68 67  1  0
 69 70  1  0
 69 68  1  0
 70 66  1  0
 71 72  2  0
 72 73  1  0
 74 73  2  0
 75 74  1  0
 76 50  1  0
 76 81  1  0
 76 77  1  0
 77 80  1  1
 77 78  1  0
 79 77  1  0
 81 84  1  0
 82 86  1  0
 82 81  1  0
 83 82  2  0
 86 85  1  0
 88 86  1  0
 88 89  1  0
 88 87  1  0
M  ISO  4   8 100  16 100  48 101  49 101
M  END
>  <TORSDO>  (6) 
F 20

>  <SCORE>  (6) 
-13.067

>  <name>  (6) 
5

>  <ligand_id>  (6) 
5

>  <original_smiles>  (6) 
[H]c1c([H])c([H])c2c(c1[H])C([H])([H])C([H])([H])C([H])([H])C2([H])N([H])C(=O)C1([H])N(C(=O)C([H])(N([H])C(=O)C([H])(N([H])C([H])([H])[H])C([H])([H])[H])C(C([H])([H])[H])(C([H])([H])[H])C([H])([H])[H])C([H])([H])c2c([H])c(OC([H])([H])C([H])([H])C([H])([H])Oc3c([H])c([H])c(N([H])C(=O)N4C([H])([H])C([H])([H])C([H])([H])C([H])(n5nc(-c6c([H])c([H])c(Oc7c([H])c([H])c(F)c([H])c7F)c([H])c6[H])c(C(=O)N([H])[H])c5N([H])[H])C4([H])[H])c([H])c3[H])c([H])c([H])c2C1([H])[H]

>  <smiles>  (6) 
[H]c1c([H])c([H])c2c(c1[H])C([H])([H])C([H])([H])C([H])([H])C2([H])N([H])C(=O)C1([H])N(C(=O)C([H])(N([H])C(=O)C([H])(N([H])C([H])([H])[H])C([H])([H])[H])C(C([H])([H])[H])(C([H])([H])[H])C([H])([H])[H])C([H])([H])c2c([H])c(OC([H])([H])C([H])([H])C([H])([H])Oc3c([H])c([H])c(N([H])C(=O)N4C([H])([H])C([H])([H])C([H])([H])C([H])(n5nc(-c6c([H])c([H])c(Oc7c([H])c([H])c(F)c([H])c7F)c([H])c6[H])c(C(=O)N([H])[H])c5N([H])[H])C4([H])[H])c([H])c3[H])c([H])c([H])c2C1([H])[H]

$$$$
6:0:0
     RDKit          3D

 89 97  0  0  1  0  0  0  0  0999 V2000
  -29.1920  -21.1690   20.9000 C   0  0  0  0  0  2  0  0  0  0  0  0
  -30.7830  -18.7420   18.3200 C   0  0  0  0  0  3  0  0  0  0  0  0
  -30.2840  -19.8930   18.9610 C   0  0  0  0  0  3  0  0  0  0  0  0
  -30.6490  -17.4600   18.8920 C   0  0  0  0  0  3  0  0  0  0  0  0
  -29.4890  -18.4710   20.7720 C   0  0  0  0  0  3  0  0  0  0  0  0
  -29.6240  -19.8060   20.2010 C   0  0  0  0  0  0  0  0  0  0  0  0
  -30.0060  -17.2640   20.1380 C   0  0  0  0  0  0  0  0  0  0  0  0
  -30.5740  -14.7330   20.3630 C   0  0  0  0  0  0  0  0  0  0  0  0
  -30.3440  -12.4590   19.3720 C   0  0  0  0  0  2  0  0  0  0  0  0
  -29.4110  -12.5530   18.1450 C   0  0  0  0  0  2  0  0  0  0  0  0
  -27.9390  -12.3930   18.5750 C   0  0  0  0  0  2  0  0  0  0  0  0
  -27.5740  -13.2790   19.7950 C   0  0  0  0  0  3  0  0  0  0  0  0
  -28.6320  -13.1810   20.9180 C   0  0  0  0  0  2  0  0  0  0  0  0
  -29.9350  -13.5150   20.3290 N   0  0  0  0  0  0  0  0  0  0  0  0
  -31.7530  -14.8100   20.0010 O   0  0  0  0  0  0  0  0  0  0  0  0
  -29.8410  -15.8770   20.6510 N   0  0  0  0  0  0  0  0  0  0  0  0
  -28.9760  -15.7020   21.1410 H   0  0  0  0  0  0  0  0  0  0  0  0
  -25.1870  -13.8770   20.5190 C   0  0  0  0  0  0  0  0  0  0  0  0
  -24.1200  -13.1080   20.8930 C   0  0  0  0  0  0  0  0  0  0  0  0
  -24.5800  -11.7560   20.8690 C   0  0  0  0  0  0  0  0  0  0  0  0
  -26.2290  -12.9960   20.2860 N   0  0  0  0  0  0  0  0  0  0  0  0
  -25.8700  -11.7140   20.5600 N   0  0  0  0  0  0  0  0  0  0  0  0
  -23.8500  -10.4950   21.0660 C   0  0  0  0  0  0  0  0  0  0  0  0
  -24.2940   -9.5200   21.9850 C   0  0  0  0  0  3  0  0  0  0  0  0
  -23.5640   -8.3260   22.1700 C   0  0  0  0  0  3  0  0  0  0  0  0
  -22.3760   -8.0980   21.4350 C   0  0  0  0  0  0  0  0  0  0  0  0
  -21.9520   -9.0620   20.5030 C   0  0  0  0  0  3  0  0  0  0  0  0
  -22.6830  -10.2480   20.3160 C   0  0  0  0  0  3  0  0  0  0  0  0
  -21.6160   -6.9570   21.5300 O   0  0  0  0  0  0  0  0  0  0  0  0
  -21.5980   -6.1970   22.6720 C   0  0  0  0  0  0  0  0  0  0  0  0
  -21.2330   -6.7400   23.9230 C   0  0  0  0  0  3  0  0  0  0  0  0
  -21.1600   -5.9080   25.0580 C   0  0  0  0  0  3  0  0  0  0  0  0
  -21.4440   -4.5340   24.9440 C   0  0  0  0  0  0  0  0  0  0  0  0
  -21.8050   -3.9910   23.6970 C   0  0  0  0  0  3  0  0  0  0  0  0
  -21.8780   -4.8200   22.5650 C   0  0  0  0  0  0  0  0  0  0  0  0
  -22.2050   -4.2870   21.3630 F   0  0  0  0  0  0  0  0  0  0  0  0
  -21.3690   -3.7330   26.0320 F   0  0  0  0  0  0  0  0  0  0  0  0
  -22.7220  -13.5900   21.1610 C   0  0  0  0  0  0  0  0  0  0  0  0
  -21.9940  -12.9010   22.0330 N   0  0  0  0  0  0  0  0  0  0  0  0
  -22.2870  -14.6120   20.6340 O   0  0  0  0  0  0  0  0  0  0  0  0
  -22.3600  -12.0750   22.4830 H   0  0  0  0  0  0  0  0  0  0  0  0
  -21.0570  -13.2050   22.2550 H   0  0  0  0  0  0  0  0  0  0  0  0
  -25.3530  -15.2470   20.3330 N   0  0  0  0  0  0  0  0  0  0  0  0
  -24.5860  -15.9020   20.4370 H   0  0  0  0  0  0  0  0  0  0  0  0
  -26.1990  -15.6810   19.9860 H   0  0  0  0  0  0  0  0  0  0  0  0
  -28.8900  -22.3600   20.0580 O   0  0  0  0  0  0  0  0  0  0  0  0
  -28.9350  -23.7310   20.6500 C   0  0  0  0  0  3  0  0  0  0  0  0
  -28.0780  -24.9170   19.9610 C   0  0  0  0  0  3  0  0  0  0  0  0
  -28.2760  -26.3790   20.2700 O   0  0  0  0  0  0  0  0  0  0  0  0
  -24.6110  -31.8900   23.2350 C   0  0  0  0  0  0  0  0  0  0  0  0
  -27.1840  -27.2770   20.1820 C   0  0  0  0  0  0  0  0  0  0  0  0
  -23.3970  -30.4940   21.6030 C   0  0  0  0  0  3  0  0  0  0  0  0
  -24.8360  -28.9370   20.1690 C   0  0  0  0  0  0  0  0  0  0  0  0
  -25.9410  -30.7890   21.4150 C   0  0  0  0  0  2  0  0  0  0  0  0
  -26.0100  -29.4070   20.7690 C   0  0  0  0  0  0  0  0  0  0  0  0
  -27.1850  -28.5870   20.7690 C   0  0  0  0  0  3  0  0  0  0  0  0
  -25.9910  -26.8890   19.5280 C   0  0  0  0  0  3  0  0  0  0  0  0
  -24.8310  -27.6860   19.5370 C   0  0  0  0  0  3  0  0  0  0  0  0
  -23.6040  -29.8190   20.2230 C   0  0  0  0  0  2  0  0  0  0  0  0
  -24.6690  -31.0760   22.1410 N   0  0  0  0  0  0  0  0  0  0  0  0
  -23.5300  -32.1730   23.7720 O   0  0  0  0  0  0  0  0  0  0  0  0
  -22.7320  -29.4800   22.5670 C   0  0  0  0  0  0  0  0  0  0  0  0
  -21.4050  -29.3100   22.4490 N   0  0  0  0  0  0  0  0  0  0  0  0
  -23.4110  -28.8520   23.3840 O   0  0  0  0  0  0  0  0  0  0  0  0
  -20.9160  -29.8690   21.7630 H   0  0  0  0  0  0  0  0  0  0  0  0
  -18.0250  -28.1230   22.9610 C   0  0  0  0  0  0  0  0  0  0  0  0
  -20.5850  -28.3790   23.2250 C   0  0  0  0  0  3  0  0  0  0  0  0
  -20.6820  -26.9440   22.6570 C   0  0  0  0  0  2  0  0  0  0  0  0
  -19.5780  -26.6180   21.6460 C   0  0  0  0  0  2  0  0  0  0  0  0
  -18.1980  -26.7690   22.2910 C   0  0  0  0  0  2  0  0  0  0  0  0
  -19.1460  -28.8840   23.3850 C   0  0  0  0  0  0  0  0  0  0  0  0
  -18.9300  -30.1500   23.9730 C   0  0  0  0  0  3  0  0  0  0  0  0
  -17.6260  -30.6540   24.1390 C   0  0  0  0  0  3  0  0  0  0  0  0
  -16.5200  -29.8900   23.7310 C   0  0  0  0  0  3  0  0  0  0  0  0
  -16.7200  -28.6250   23.1480 C   0  0  0  0  0  3  0  0  0  0  0  0
  -25.8980  -32.5210   23.8510 C   0  0  0  0  0  3  0  0  0  0  0  0
  -26.4210  -31.7440   25.1220 C   0  0  1  0  0  0  0  0  0  0  0  0
  -25.3350  -31.5070   26.1980 C   0  0  0  0  0  1  0  0  0  0  0  0
  -26.9990  -30.3660   24.7240 C   0  0  0  0  0  1  0  0  0  0  0  0
  -27.5790  -32.5340   25.7770 C   0  0  0  0  0  1  0  0  0  0  0  0
  -25.5890  -33.9170   24.1900 N   0  0  0  0  0  0  0  0  0  0  0  0
  -25.9130  -34.9740   23.4340 C   0  0  0  0  0  0  0  0  0  0  0  0
  -26.5710  -34.8760   22.3930 O   0  0  0  0  0  0  0  0  0  0  0  0
  -25.0040  -34.0680   24.9990 H   0  0  0  0  0  0  0  0  0  0  0  0
  -24.1760  -36.7660   23.1130 C   0  0  0  0  0  1  0  0  0  0  0  0
  -25.4310  -36.3610   23.9040 C   0  0  0  0  0  3  0  0  0  0  0  0
  -27.5790  -37.2450   24.7000 C   0  0  0  0  0  1  0  0  0  0  0  0
  -26.4600  -37.4160   23.7770 N   0  0  0  0  0  0  0  0  0  0  0  0
  -26.0550  -38.3340   23.9360 H   0  0  0  0  0  0  0  0  0  0  0  0
  2  4  2  0
  2  3  1  0
  3  6  2  0
  4  7  1  0
  6  5  1  0
  6  1  1  0
  7 16  1  0
  7  5  2  0
  8 16  1  0
  9 14  1  0
 10 11  1  0
 10  9  1  0
 12 11  1  0
 12 21  1  0
 12 13  1  0
 14  8  1  0
 14 13  1  0
 15  8  2  0
 16 17  1  0
 18 19  2  0
 19 38  1  0
 20 19  1  0
 20 23  1  0
 21 18  1  0
 21 22  1  0
 22 20  2  0
 23 24  1  0
 24 25  2  0
 26 29  1  0
 26 25  1  0
 27 26  2  0
 28 27  1  0
 28 23  2  0
 29 30  1  0
 30 31  1  0
 31 32  2  0
 33 32  1  0
 33 37  1  0
 34 33  2  0
 35 30  2  0
 35 34  1  0
 36 35  1  0
 38 39  1  0
 39 42  1  0
 39 41  1  0
 40 38  2  0
 43 44  1  0
 43 18  1  0
 45 43  1  0
 46 47  1  0
 46  1  1  0
 48 49  1  0
 48 47  2  0
 50 61  2  0
 51 49  1  0
 51 56  1  0
 52 60  1  0
 52 62  1  0
 53 59  1  0
 53 55  1  0
 54 60  1  0
 55 56  2  0
 55 54  1  0
 57 58  1  0
 57 51  2  0
 58 53  2  0
 59 52  1  0
 60 50  1  0
 62 64  2  0
 63 62  1  0
 65 63  1  0
 66 75  2  0
 66 71  1  0
 67 63  1  0
 67 71  1  0
 68 67  1  0
 69 70  1  0
 69 68  1  0
 70 66  1  0
 71 72  2  0
 72 73  1  0
 74 73  2  0
 75 74  1  0
 76 50  1  0
 76 81  1  0
 76 77  1  0
 77 80  1  1
 77 78  1  0
 79 77  1  0
 81 84  1  0
 82 86  1  0
 82 81  1  0
 83 82  2  0
 86 85  1  0
 88 86  1  0
 88 89  1  0
 88 87  1  0
M  ISO  4   8 100  16 100  48 101  49 101
M  END
>  <TORSDO>  (7) 
F 20

>  <SCORE>  (7) 
-13.796

>  <name>  (7) 
6

>  <ligand_id>  (7) 
6

>  <original_smiles>  (7) 
[H]c1c([H])c(N([H])C(=O)N2C([H])([H])C([H])([H])C([H])([H])C([H])(n3nc(-c4c([H])c([H])c(Oc5c([H])c([H])c(F)c([H])c5F)c([H])c4[H])c(C(=O)N([H])[H])c3N([H])[H])C2([H])[H])c([H])c(C([H])([H])OC([H])([H])C([H])([H])Oc2c([H])c([H])c3c(c2[H])C([H])([H])N(C(=O)C([H])(N([H])C(=O)C([H])(N([H])C([H])([H])[H])C([H])([H])[H])C(C([H])([H])[H])(C([H])([H])[H])C([H])([H])[H])C([H])(C(=O)N([H])C2([H])c4c([H])c([H])c([H])c([H])c4C([H])([H])C([H])([H])C2([H])[H])C3([H])[H])c1[H]

>  <smiles>  (7) 
[H]c1c([H])c(N([H])C(=O)N2C([H])([H])C([H])([H])C([H])([H])C([H])(n3nc(-c4c([H])c([H])c(Oc5c([H])c([H])c(F)c([H])c5F)c([H])c4[H])c(C(=O)N([H])[H])c3N([H])[H])C2([H])[H])c([H])c(C([H])([H])OC([H])([H])C([H])([H])Oc2c([H])c([H])c3c(c2[H])C([H])([H])N(C(=O)C([H])(N([H])C(=O)C([H])(N([H])C([H])([H])[H])C([H])([H])[H])C(C([H])([H])[H])(C([H])([H])[H])C([H])([H])[H])C([H])(C(=O)N([H])C2([H])c4c([H])c([H])c([H])c([H])c4C([H])([H])C([H])([H])C2([H])[H])C3([H])[H])c1[H]

$$$$
7:0:0
     RDKit          3D

 85 92  0  0  1  0  0  0  0  0999 V2000
  -26.6540  -21.2740   19.9540 C   0  0  0  0  0  3  0  0  0  0  0  0
  -27.5040  -20.1010   19.9440 C   0  0  0  0  0  3  0  0  0  0  0  0
  -26.9770  -22.6840   19.9870 C   0  0  0  0  0  3  0  0  0  0  0  0
  -29.1920  -21.7460   19.9960 C   0  0  0  0  0  3  0  0  0  0  0  0
  -28.9320  -20.0080   19.9600 C   0  0  0  0  0  3  0  0  0  0  0  0
  -28.2760  -23.2560   20.0160 C   0  0  0  0  0  0  0  0  0  0  0  0
  -30.2330  -16.6050   19.8640 C   0  0  0  0  0  0  0  0  0  0  0  0
  -30.5570  -13.8940   19.0870 C   0  0  0  0  0  2  0  0  0  0  0  0
  -29.7130  -13.1440   17.9860 C   0  0  0  0  0  2  0  0  0  0  0  0
  -28.3870  -12.6150   18.5380 C   0  0  0  0  0  2  0  0  0  0  0  0
  -27.8020  -13.6390   19.5240 C   0  0  0  0  0  3  0  0  0  0  0  0
  -28.8190  -14.2520   20.5400 C   0  0  0  0  0  2  0  0  0  0  0  0
  -29.8220  -15.1060   19.7920 N   0  0  0  0  0  0  0  0  0  0  0  0
  -31.4780  -16.4640   19.6990 O   0  0  0  0  0  0  0  0  0  0  0  0
  -29.3940  -18.1050   19.9330 N   0  0  0  0  0  2  0  0  0  0  0  0
  -28.4810  -17.6770   19.9990 H   0  0  0  0  0  0  0  0  0  0  0  0
  -25.4970  -14.0610   20.4580 C   0  0  0  0  0  0  0  0  0  0  0  0
  -24.4710  -13.2530   20.8520 C   0  0  0  0  0  0  0  0  0  0  0  0
  -24.9530  -11.9130   20.7340 C   0  0  0  0  0  0  0  0  0  0  0  0
  -26.5380  -13.2230   20.1200 N   0  0  0  0  0  0  0  0  0  0  0  0
  -26.2290  -11.9140   20.3430 N   0  0  0  0  0  0  0  0  0  0  0  0
  -24.2410  -10.6360   20.9140 C   0  0  0  0  0  0  0  0  0  0  0  0
  -24.6530   -9.6850   21.8740 C   0  0  0  0  0  3  0  0  0  0  0  0
  -23.9330   -8.4820   22.0470 C   0  0  0  0  0  3  0  0  0  0  0  0
  -22.7840   -8.2210   21.2620 C   0  0  0  0  0  0  0  0  0  0  0  0
  -22.3910   -9.1610   20.2930 C   0  0  0  0  0  3  0  0  0  0  0  0
  -23.1120  -10.3550   20.1180 C   0  0  0  0  0  3  0  0  0  0  0  0
  -22.0400   -7.0680   21.3420 O   0  0  0  0  0  0  0  0  0  0  0  0
  -21.8570   -6.4090   22.5310 C   0  0  0  0  0  0  0  0  0  0  0  0
  -21.2080   -7.0160   23.6270 C   0  0  0  0  0  3  0  0  0  0  0  0
  -20.9790   -6.2800   24.8070 C   0  0  0  0  0  3  0  0  0  0  0  0
  -21.3900   -4.9360   24.8900 C   0  0  0  0  0  0  0  0  0  0  0  0
  -22.0320   -4.3280   23.7980 C   0  0  0  0  0  3  0  0  0  0  0  0
  -22.2620   -5.0610   22.6210 C   0  0  0  0  0  0  0  0  0  0  0  0
  -22.8610   -4.4620   21.5630 F   0  0  0  0  0  0  0  0  0  0  0  0
  -21.1640   -4.2260   26.0210 F   0  0  0  0  0  0  0  0  0  0  0  0
  -23.0870  -13.7060   21.2120 C   0  0  0  0  0  0  0  0  0  0  0  0
  -22.4210  -12.9880   22.1070 N   0  0  0  0  0  0  0  0  0  0  0  0
  -22.6100  -14.7360   20.7360 O   0  0  0  0  0  0  0  0  0  0  0  0
  -22.8230  -12.1550   22.5130 H   0  0  0  0  0  0  0  0  0  0  0  0
  -21.4960  -13.2740   22.3930 H   0  0  0  0  0  0  0  0  0  0  0  0
  -25.6250  -15.4410   20.3210 N   0  0  0  0  0  0  0  0  0  0  0  0
  -24.8490  -16.0720   20.4850 H   0  0  0  0  0  0  0  0  0  0  0  0
  -26.4340  -15.8980   19.9210 H   0  0  0  0  0  0  0  0  0  0  0  0
  -28.2990  -25.0480   20.0590 O   0  0  0  0  0  0  0  0  0  0  0  0
  -24.8210  -31.8820   23.1170 C   0  0  0  0  0  0  0  0  0  0  0  0
  -27.3590  -26.4630   20.0860 C   0  0  0  0  0  0  0  0  0  0  0  0
  -23.6590  -30.4910   21.4640 C   0  0  0  0  0  3  0  0  0  0  0  0
  -25.1200  -28.7790   20.0550 C   0  0  0  0  0  0  0  0  0  0  0  0
  -26.2540  -30.5130   21.4000 C   0  0  0  0  0  2  0  0  0  0  0  0
  -26.3210  -29.0390   20.7240 C   0  0  0  0  0  0  0  0  0  0  0  0
  -27.3960  -27.9260   20.6990 C   0  0  0  0  0  3  0  0  0  0  0  0
  -26.1220  -26.5430   19.3520 C   0  0  0  0  0  3  0  0  0  0  0  0
  -25.0880  -27.5620   19.3440 C   0  0  0  0  0  3  0  0  0  0  0  0
  -23.9270  -29.7780   20.0990 C   0  0  0  0  0  2  0  0  0  0  0  0
  -24.9410  -31.0060   22.0460 N   0  0  0  0  0  0  0  0  0  0  0  0
  -23.7160  -32.1880   23.6070 O   0  0  0  0  0  0  0  0  0  0  0  0
  -22.9040  -29.5360   22.4330 C   0  0  0  0  0  0  0  0  0  0  0  0
  -21.5690  -29.3890   22.2980 N   0  0  0  0  0  0  0  0  0  0  0  0
  -23.5410  -28.9170   23.2890 O   0  0  0  0  0  0  0  0  0  0  0  0
  -21.0970  -29.9380   21.5930 H   0  0  0  0  0  0  0  0  0  0  0  0
  -18.1750  -28.1730   22.8320 C   0  0  0  0  0  0  0  0  0  0  0  0
  -20.7410  -28.4400   23.0590 C   0  0  0  0  0  3  0  0  0  0  0  0
  -20.8310  -27.0200   22.4520 C   0  0  0  0  0  2  0  0  0  0  0  0
  -19.7160  -26.7240   21.4430 C   0  0  0  0  0  2  0  0  0  0  0  0
  -18.3430  -26.8460   22.1090 C   0  0  0  0  0  2  0  0  0  0  0  0
  -19.2980  -28.9290   23.2630 C   0  0  0  0  0  0  0  0  0  0  0  0
  -19.0810  -30.1650   23.9090 C   0  0  0  0  0  3  0  0  0  0  0  0
  -17.7760  -30.6480   24.1210 C   0  0  0  0  0  3  0  0  0  0  0  0
  -16.6680  -29.8910   23.7000 C   0  0  0  0  0  3  0  0  0  0  0  0
  -16.8680  -28.6550   23.0620 C   0  0  0  0  0  3  0  0  0  0  0  0
  -26.0580  -32.5550   23.7880 C   0  0  0  0  0  3  0  0  0  0  0  0
  -25.7130  -33.9530   24.1370 N   0  0  0  0  0  0  0  0  0  0  0  0
  -26.0160  -35.0380   23.4110 C   0  0  0  0  0  0  0  0  0  0  0  0
  -26.6600  -34.9700   22.3620 O   0  0  0  0  0  0  0  0  0  0  0  0
  -25.1310  -34.0770   24.9530 H   0  0  0  0  0  0  0  0  0  0  0  0
  -24.2510  -36.8300   23.1850 C   0  0  0  0  0  1  0  0  0  0  0  0
  -25.5350  -36.4170   23.9220 C   0  0  0  0  0  3  0  0  0  0  0  0
  -27.6860  -37.3430   24.6770 C   0  0  0  0  0  1  0  0  0  0  0  0
  -26.5460  -37.4910   23.7760 N   0  0  0  0  0  0  0  0  0  0  0  0
  -26.1290  -38.4030   23.9400 H   0  0  0  0  0  0  0  0  0  0  0  0
  -26.5360  -31.8000   25.0930 C   0  0  1  0  0  0  0  0  0  0  0  0
  -25.4100  -31.5640   26.1270 C   0  0  0  0  0  1  0  0  0  0  0  0
  -27.1430  -30.4230   24.7520 C   0  0  0  0  0  1  0  0  0  0  0  0
  -27.6590  -32.6090   25.7850 C   0  0  0  0  0  1  0  0  0  0  0  0
  1  3  1  0
  2  1  2  0
  2  5  1  0
  3  6  2  0
  4  6  1  0
  5  4  2  0
  6 45  1  0
  7 15  1  0
  8 13  1  0
  9 10  1  0
  9  8  1  0
 11 10  1  0
 11 20  1  0
 11 12  1  0
 13  7  1  0
 13 12  1  0
 14  7  2  0
 15 16  1  0
 17 18  2  0
 18 37  1  0
 19 18  1  0
 19 22  1  0
 20 21  1  0
 20 17  1  0
 21 19  2  0
 22 23  1  0
 23 24  2  0
 25 28  1  0
 25 24  1  0
 26 25  2  0
 27 26  1  0
 27 22  2  0
 28 29  1  0
 29 34  2  0
 29 30  1  0
 30 31  2  0
 31 32  1  0
 32 36  1  0
 33 32  2  0
 34 33  1  0
 35 34  1  0
 37 38  1  0
 38 41  1  0
 38 40  1  0
 39 37  2  0
 42 17  1  0
 42 43  1  0
 44 42  1  0
 45 47  1  0
 46 57  2  0
 47 52  1  0
 48 56  1  0
 48 58  1  0
 49 55  1  0
 49 51  1  0
 50 56  1  0
 51 50  1  0
 52 51  2  0
 53 47  2  0
 54 53  1  0
 54 49  2  0
 55 48  1  0
 56 46  1  0
 58 60  2  0
 59 58  1  0
 61 59  1  0
 62 71  2  0
 62 67  1  0
 63 59  1  0
 63 67  1  0
 64 63  1  0
 65 66  1  0
 65 64  1  0
 66 62  1  0
 67 68  2  0
 68 69  1  0
 70 69  2  0
 71 70  1  0
 72 46  1  0
 72 73  1  0
 72 82  1  0
 73 76  1  0
 74 78  1  0
 74 73  1  0
 75 74  2  0
 78 77  1  0
 80 78  1  0
 80 81  1  0
 80 79  1  0
 82 85  1  1
 82 83  1  0
 84 82  1  0
M  ISO  4   6 101   7 100  15 100  45 101
M  END
>  <TORSDO>  (8) 
F 16

>  <SCORE>  (8) 
-15.159

>  <name>  (8) 
7

>  <ligand_id>  (8) 
7

>  <original_smiles>  (8) 
[H]c1c([H])c(Oc2c([H])c([H])c3c(c2[H])C([H])([H])N(C(=O)C([H])(N([H])C(=O)C([H])(N([H])C([H])([H])[H])C([H])([H])[H])C(C([H])([H])[H])(C([H])([H])[H])C([H])([H])[H])C([H])(C(=O)N([H])C2([H])c4c([H])c([H])c([H])c([H])c4C([H])([H])C([H])([H])C2([H])[H])C3([H])[H])c([H])c(N([H])C(=O)N2C([H])([H])C([H])([H])C([H])([H])C([H])(n3nc(-c4c([H])c([H])c(Oc5c([H])c([H])c(F)c([H])c5F)c([H])c4[H])c(C(=O)N([H])[H])c3N([H])[H])C2([H])[H])c1[H]

>  <smiles>  (8) 
[H]c1c([H])c(Oc2c([H])c([H])c3c(c2[H])C([H])([H])N(C(=O)C([H])(N([H])C(=O)C([H])(N([H])C([H])([H])[H])C([H])([H])[H])C(C([H])([H])[H])(C([H])([H])[H])C([H])([H])[H])C([H])(C(=O)N([H])C2([H])c4c([H])c([H])c([H])c([H])c4C([H])([H])C([H])([H])C2([H])[H])C3([H])[H])c([H])c(N([H])C(=O)N2C([H])([H])C([H])([H])C([H])([H])C([H])(n3nc(-c4c([H])c([H])c(Oc5c([H])c([H])c(F)c([H])c5F)c([H])c4[H])c(C(=O)N([H])[H])c3N([H])[H])C2([H])[H])c1[H]

$$$$
8:0:0
     RDKit          3D

 85 92  0  0  1  0  0  0  0  0999 V2000
  -26.6540  -21.2740   19.9540 C   0  0  0  0  0  3  0  0  0  0  0  0
  -27.5040  -20.1010   19.9440 C   0  0  0  0  0  3  0  0  0  0  0  0
  -26.9770  -22.6840   19.9870 C   0  0  0  0  0  3  0  0  0  0  0  0
  -29.1920  -21.7460   19.9960 C   0  0  0  0  0  3  0  0  0  0  0  0
  -28.9320  -20.0080   19.9600 C   0  0  0  0  0  3  0  0  0  0  0  0
  -28.2760  -23.2560   20.0160 C   0  0  0  0  0  0  0  0  0  0  0  0
  -30.2330  -16.6050   19.8640 C   0  0  0  0  0  0  0  0  0  0  0  0
  -30.5570  -13.8940   19.0870 C   0  0  0  0  0  2  0  0  0  0  0  0
  -29.7130  -13.1440   17.9860 C   0  0  0  0  0  2  0  0  0  0  0  0
  -28.3870  -12.6150   18.5380 C   0  0  0  0  0  2  0  0  0  0  0  0
  -27.8020  -13.6390   19.5240 C   0  0  0  0  0  3  0  0  0  0  0  0
  -28.8190  -14.2520   20.5400 C   0  0  0  0  0  2  0  0  0  0  0  0
  -29.8220  -15.1060   19.7920 N   0  0  0  0  0  0  0  0  0  0  0  0
  -31.4780  -16.4640   19.6990 O   0  0  0  0  0  0  0  0  0  0  0  0
  -29.3940  -18.1050   19.9330 N   0  0  0  0  0  2  0  0  0  0  0  0
  -28.4810  -17.6770   19.9990 H   0  0  0  0  0  0  0  0  0  0  0  0
  -25.4970  -14.0610   20.4580 C   0  0  0  0  0  0  0  0  0  0  0  0
  -24.4710  -13.2530   20.8520 C   0  0  0  0  0  0  0  0  0  0  0  0
  -24.9530  -11.9130   20.7340 C   0  0  0  0  0  0  0  0  0  0  0  0
  -26.5380  -13.2230   20.1200 N   0  0  0  0  0  0  0  0  0  0  0  0
  -26.2290  -11.9140   20.3430 N   0  0  0  0  0  0  0  0  0  0  0  0
  -24.2410  -10.6360   20.9140 C   0  0  0  0  0  0  0  0  0  0  0  0
  -24.6530   -9.6850   21.8740 C   0  0  0  0  0  3  0  0  0  0  0  0
  -23.9330   -8.4820   22.0470 C   0  0  0  0  0  3  0  0  0  0  0  0
  -22.7840   -8.2210   21.2620 C   0  0  0  0  0  0  0  0  0  0  0  0
  -22.3910   -9.1610   20.2930 C   0  0  0  0  0  3  0  0  0  0  0  0
  -23.1120  -10.3550   20.1180 C   0  0  0  0  0  3  0  0  0  0  0  0
  -22.0400   -7.0680   21.3420 O   0  0  0  0  0  0  0  0  0  0  0  0
  -21.8570   -6.4090   22.5310 C   0  0  0  0  0  0  0  0  0  0  0  0
  -21.2080   -7.0160   23.6270 C   0  0  0  0  0  3  0  0  0  0  0  0
  -20.9790   -6.2800   24.8070 C   0  0  0  0  0  3  0  0  0  0  0  0
  -21.3900   -4.9360   24.8900 C   0  0  0  0  0  0  0  0  0  0  0  0
  -22.0320   -4.3280   23.7980 C   0  0  0  0  0  3  0  0  0  0  0  0
  -22.2620   -5.0610   22.6210 C   0  0  0  0  0  0  0  0  0  0  0  0
  -22.8610   -4.4620   21.5630 F   0  0  0  0  0  0  0  0  0  0  0  0
  -21.1640   -4.2260   26.0210 F   0  0  0  0  0  0  0  0  0  0  0  0
  -23.0870  -13.7060   21.2120 C   0  0  0  0  0  0  0  0  0  0  0  0
  -22.4210  -12.9880   22.1070 N   0  0  0  0  0  0  0  0  0  0  0  0
  -22.6100  -14.7360   20.7360 O   0  0  0  0  0  0  0  0  0  0  0  0
  -22.8230  -12.1550   22.5130 H   0  0  0  0  0  0  0  0  0  0  0  0
  -21.4960  -13.2740   22.3930 H   0  0  0  0  0  0  0  0  0  0  0  0
  -25.6250  -15.4410   20.3210 N   0  0  0  0  0  0  0  0  0  0  0  0
  -24.8490  -16.0720   20.4850 H   0  0  0  0  0  0  0  0  0  0  0  0
  -26.4340  -15.8980   19.9210 H   0  0  0  0  0  0  0  0  0  0  0  0
  -28.2990  -25.0480   20.0590 O   0  0  0  0  0  0  0  0  0  0  0  0
  -24.8210  -31.8820   23.1170 C   0  0  0  0  0  0  0  0  0  0  0  0
  -27.3590  -26.4630   20.0860 C   0  0  0  0  0  0  0  0  0  0  0  0
  -23.6590  -30.4910   21.4640 C   0  0  0  0  0  3  0  0  0  0  0  0
  -25.1200  -28.7790   20.0550 C   0  0  0  0  0  0  0  0  0  0  0  0
  -26.2540  -30.5130   21.4000 C   0  0  0  0  0  2  0  0  0  0  0  0
  -26.3210  -29.0390   20.7240 C   0  0  0  0  0  0  0  0  0  0  0  0
  -27.3960  -27.9260   20.6990 C   0  0  0  0  0  3  0  0  0  0  0  0
  -26.1220  -26.5430   19.3520 C   0  0  0  0  0  3  0  0  0  0  0  0
  -25.0880  -27.5620   19.3440 C   0  0  0  0  0  3  0  0  0  0  0  0
  -23.9270  -29.7780   20.0990 C   0  0  0  0  0  2  0  0  0  0  0  0
  -24.9410  -31.0060   22.0460 N   0  0  0  0  0  0  0  0  0  0  0  0
  -23.7160  -32.1880   23.6070 O   0  0  0  0  0  0  0  0  0  0  0  0
  -22.9040  -29.5360   22.4330 C   0  0  0  0  0  0  0  0  0  0  0  0
  -21.5690  -29.3890   22.2980 N   0  0  0  0  0  0  0  0  0  0  0  0
  -23.5410  -28.9170   23.2890 O   0  0  0  0  0  0  0  0  0  0  0  0
  -21.0970  -29.9380   21.5930 H   0  0  0  0  0  0  0  0  0  0  0  0
  -18.1750  -28.1730   22.8320 C   0  0  0  0  0  0  0  0  0  0  0  0
  -20.7410  -28.4400   23.0590 C   0  0  0  0  0  3  0  0  0  0  0  0
  -20.8310  -27.0200   22.4520 C   0  0  0  0  0  2  0  0  0  0  0  0
  -19.7160  -26.7240   21.4430 C   0  0  0  0  0  2  0  0  0  0  0  0
  -18.3430  -26.8460   22.1090 C   0  0  0  0  0  2  0  0  0  0  0  0
  -19.2980  -28.9290   23.2630 C   0  0  0  0  0  0  0  0  0  0  0  0
  -19.0810  -30.1650   23.9090 C   0  0  0  0  0  3  0  0  0  0  0  0
  -17.7760  -30.6480   24.1210 C   0  0  0  0  0  3  0  0  0  0  0  0
  -16.6680  -29.8910   23.7000 C   0  0  0  0  0  3  0  0  0  0  0  0
  -16.8680  -28.6550   23.0620 C   0  0  0  0  0  3  0  0  0  0  0  0
  -26.0580  -32.5550   23.7880 C   0  0  0  0  0  3  0  0  0  0  0  0
  -25.7130  -33.9530   24.1370 N   0  0  0  0  0  0  0  0  0  0  0  0
  -26.0160  -35.0380   23.4110 C   0  0  0  0  0  0  0  0  0  0  0  0
  -26.6600  -34.9700   22.3620 O   0  0  0  0  0  0  0  0  0  0  0  0
  -25.1310  -34.0770   24.9530 H   0  0  0  0  0  0  0  0  0  0  0  0
  -24.2510  -36.8300   23.1850 C   0  0  0  0  0  1  0  0  0  0  0  0
  -25.5350  -36.4170   23.9220 C   0  0  0  0  0  3  0  0  0  0  0  0
  -27.6860  -37.3430   24.6770 C   0  0  0  0  0  1  0  0  0  0  0  0
  -26.5460  -37.4910   23.7760 N   0  0  0  0  0  0  0  0  0  0  0  0
  -26.1290  -38.4030   23.9400 H   0  0  0  0  0  0  0  0  0  0  0  0
  -26.5360  -31.8000   25.0930 C   0  0  1  0  0  0  0  0  0  0  0  0
  -25.4100  -31.5640   26.1270 C   0  0  0  0  0  1  0  0  0  0  0  0
  -27.1430  -30.4230   24.7520 C   0  0  0  0  0  1  0  0  0  0  0  0
  -27.6590  -32.6090   25.7850 C   0  0  0  0  0  1  0  0  0  0  0  0
  1  3  1  0
  2  1  2  0
  2  5  1  0
  3  6  2  0
  4  6  1  0
  5  4  2  0
  6 45  1  0
  7 15  1  0
  8 13  1  0
  9 10  1  0
  9  8  1  0
 11 10  1  0
 11 20  1  0
 11 12  1  0
 13  7  1  0
 13 12  1  0
 14  7  2  0
 15 16  1  0
 17 18  2  0
 18 37  1  0
 19 18  1  0
 19 22  1  0
 20 21  1  0
 20 17  1  0
 21 19  2  0
 22 23  1  0
 23 24  2  0
 25 28  1  0
 25 24  1  0
 26 25  2  0
 27 26  1  0
 27 22  2  0
 28 29  1  0
 29 34  2  0
 29 30  1  0
 30 31  2  0
 31 32  1  0
 32 36  1  0
 33 32  2  0
 34 33  1  0
 35 34  1  0
 37 38  1  0
 38 41  1  0
 38 40  1  0
 39 37  2  0
 42 17  1  0
 42 43  1  0
 44 42  1  0
 45 47  1  0
 46 57  2  0
 47 52  1  0
 48 56  1  0
 48 58  1  0
 49 55  1  0
 49 51  1  0
 50 56  1  0
 51 50  1  0
 52 51  2  0
 53 47  2  0
 54 53  1  0
 54 49  2  0
 55 48  1  0
 56 46  1  0
 58 60  2  0
 59 58  1  0
 61 59  1  0
 62 71  2  0
 62 67  1  0
 63 59  1  0
 63 67  1  0
 64 63  1  0
 65 66  1  0
 65 64  1  0
 66 62  1  0
 67 68  2  0
 68 69  1  0
 70 69  2  0
 71 70  1  0
 72 46  1  0
 72 73  1  0
 72 82  1  0
 73 76  1  0
 74 78  1  0
 74 73  1  0
 75 74  2  0
 78 77  1  0
 80 78  1  0
 80 81  1  0
 80 79  1  0
 82 85  1  1
 82 83  1  0
 84 82  1  0
M  ISO  4   6 101   7 100  15 100  45 101
M  END
>  <TORSDO>  (9) 
F 16

>  <SCORE>  (9) 
-15.159

>  <name>  (9) 
8

>  <ligand_id>  (9) 
8

>  <original_smiles>  (9) 
[H]c1c([H])c(Oc2c([H])c([H])c3c(c2[H])C([H])([H])N(C(=O)C([H])(N([H])C(=O)C([H])(N([H])C([H])([H])[H])C([H])([H])[H])C(C([H])([H])[H])(C([H])([H])[H])C([H])([H])[H])C([H])(C(=O)N([H])C2([H])c4c([H])c([H])c([H])c([H])c4C([H])([H])C([H])([H])C2([H])[H])C3([H])[H])c([H])c(N([H])C(=O)N2C([H])([H])C([H])([H])C([H])([H])C([H])(n3nc(-c4c([H])c([H])c(Oc5c([H])c([H])c(F)c([H])c5F)c([H])c4[H])c(C(=O)N([H])[H])c3N([H])[H])C2([H])[H])c1[H]

>  <smiles>  (9) 
[H]c1c([H])c(Oc2c([H])c([H])c3c(c2[H])C([H])([H])N(C(=O)C([H])(N([H])C(=O)C([H])(N([H])C([H])([H])[H])C([H])([H])[H])C(C([H])([H])[H])(C([H])([H])[H])C([H])([H])[H])C([H])(C(=O)N([H])C2([H])c4c([H])c([H])c([H])c([H])c4C([H])([H])C([H])([H])C2([H])[H])C3([H])[H])c([H])c(N([H])C(=O)N2C([H])([H])C([H])([H])C([H])([H])C([H])(n3nc(-c4c([H])c([H])c(Oc5c([H])c([H])c(F)c([H])c5F)c([H])c4[H])c(C(=O)N([H])[H])c3N([H])[H])C2([H])[H])c1[H]

$$$$
9:0:0
     RDKit          3D

 85 93  0  0  1  0  0  0  0  0999 V2000
  -27.8690  -20.5330   20.2500 C   0  0  0  0  0  3  0  0  0  0  0  0
  -29.9410  -20.9170   20.2420 C   0  0  0  0  0  3  0  0  0  0  0  0
  -27.5530  -22.1030   20.2650 C   0  0  0  0  0  3  0  0  0  0  0  0
  -29.6220  -22.4840   20.2590 C   0  0  0  0  0  3  0  0  0  0  0  0
  -29.1170  -19.6110   20.2350 C   0  0  0  0  0  0  0  0  0  0  0  0
  -28.3750  -23.4100   20.2720 C   0  0  0  0  0  0  0  0  0  0  0  0
  -30.1350  -16.2720   20.1640 C   0  0  0  0  0  0  0  0  0  0  0  0
  -30.4150  -13.6120   19.3740 C   0  0  0  0  0  2  0  0  0  0  0  0
  -29.5800  -12.9620   18.2160 C   0  0  0  0  0  2  0  0  0  0  0  0
  -28.2080  -12.4820   18.7050 C   0  0  0  0  0  2  0  0  0  0  0  0
  -27.6220  -13.4990   19.7000 C   0  0  0  0  0  3  0  0  0  0  0  0
  -28.6220  -14.0210   20.7740 C   0  0  0  0  0  2  0  0  0  0  0  0
  -29.6930  -14.8130   20.0790 N   0  0  0  0  0  0  0  0  0  0  0  0
  -31.3800  -16.1530   20.0280 O   0  0  0  0  0  0  0  0  0  0  0  0
  -29.3210  -17.7340   20.2220 N   0  0  0  0  0  0  0  0  0  0  0  0
  -28.3760  -17.3810   20.2740 H   0  0  0  0  0  0  0  0  0  0  0  0
  -25.2700  -13.9480   20.5120 C   0  0  0  0  0  0  0  0  0  0  0  0
  -24.2310  -13.1450   20.8780 C   0  0  0  0  0  0  0  0  0  0  0  0
  -24.7240  -11.8040   20.8200 C   0  0  0  0  0  0  0  0  0  0  0  0
  -26.3290  -13.1030   20.2440 N   0  0  0  0  0  0  0  0  0  0  0  0
  -26.0170  -11.8020   20.4920 N   0  0  0  0  0  0  0  0  0  0  0  0
  -24.0140  -10.5290   21.0000 C   0  0  0  0  0  0  0  0  0  0  0  0
  -24.4420   -9.5660   21.9410 C   0  0  0  0  0  3  0  0  0  0  0  0
  -23.7250   -8.3630   22.1140 C   0  0  0  0  0  3  0  0  0  0  0  0
  -22.5630   -8.1110   21.3470 C   0  0  0  0  0  0  0  0  0  0  0  0
  -22.1520   -9.0620   20.3960 C   0  0  0  0  0  3  0  0  0  0  0  0
  -22.8690  -10.2570   20.2220 C   0  0  0  0  0  3  0  0  0  0  0  0
  -21.8180   -6.9590   21.4280 O   0  0  0  0  0  0  0  0  0  0  0  0
  -21.7340   -6.2350   22.5910 C   0  0  0  0  0  0  0  0  0  0  0  0
  -21.2190   -6.7950   23.7800 C   0  0  0  0  0  3  0  0  0  0  0  0
  -21.0870   -5.9970   24.9340 C   0  0  0  0  0  3  0  0  0  0  0  0
  -21.4570   -4.6390   24.8980 C   0  0  0  0  0  0  0  0  0  0  0  0
  -21.9650   -4.0790   23.7130 C   0  0  0  0  0  3  0  0  0  0  0  0
  -22.1000   -4.8740   22.5620 C   0  0  0  0  0  0  0  0  0  0  0  0
  -22.5680   -4.3230   21.4150 F   0  0  0  0  0  0  0  0  0  0  0  0
  -21.3240   -3.8690   26.0030 F   0  0  0  0  0  0  0  0  0  0  0  0
  -22.8300  -13.5980   21.1600 C   0  0  0  0  0  0  0  0  0  0  0  0
  -22.1210  -12.8920   22.0330 N   0  0  0  0  0  0  0  0  0  0  0  0
  -22.3730  -14.6170   20.6430 O   0  0  0  0  0  0  0  0  0  0  0  0
  -22.5050  -12.0690   22.4740 H   0  0  0  0  0  0  0  0  0  0  0  0
  -21.1810  -13.1790   22.2660 H   0  0  0  0  0  0  0  0  0  0  0  0
  -25.4000  -15.3240   20.3460 N   0  0  0  0  0  0  0  0  0  0  0  0
  -24.6150  -15.9550   20.4640 H   0  0  0  0  0  0  0  0  0  0  0  0
  -26.2250  -15.7790   19.9790 H   0  0  0  0  0  0  0  0  0  0  0  0
  -28.2040  -25.1520   20.3060 O   0  0  0  0  0  0  0  0  0  0  0  0
  -24.6990  -31.8750   23.1860 C   0  0  0  0  0  0  0  0  0  0  0  0
  -27.2260  -26.4850   20.2890 C   0  0  0  0  0  0  0  0  0  0  0  0
  -23.5350  -30.4560   21.5570 C   0  0  0  0  0  3  0  0  0  0  0  0
  -24.9910  -28.7300   20.1880 C   0  0  0  0  0  0  0  0  0  0  0  0
  -26.1260  -30.4990   21.4920 C   0  0  0  0  0  2  0  0  0  0  0  0
  -26.1870  -29.0250   20.8520 C   0  0  0  0  0  0  0  0  0  0  0  0
  -27.2670  -27.9420   20.8620 C   0  0  0  0  0  3  0  0  0  0  0  0
  -25.9970  -26.4900   19.5550 C   0  0  0  0  0  3  0  0  0  0  0  0
  -24.9550  -27.4910   19.5150 C   0  0  0  0  0  3  0  0  0  0  0  0
  -23.8000  -29.7230   20.2050 C   0  0  0  0  0  2  0  0  0  0  0  0
  -24.8140  -30.9850   22.1290 N   0  0  0  0  0  0  0  0  0  0  0  0
  -23.5970  -32.1920   23.6700 O   0  0  0  0  0  0  0  0  0  0  0  0
  -22.7800  -29.5160   22.5370 C   0  0  0  0  0  0  0  0  0  0  0  0
  -21.4440  -29.3840   22.4100 N   0  0  0  0  0  0  0  0  0  0  0  0
  -23.4160  -28.8980   23.3940 O   0  0  0  0  0  0  0  0  0  0  0  0
  -20.9760  -29.9330   21.7010 H   0  0  0  0  0  0  0  0  0  0  0  0
  -18.0400  -28.2000   22.9360 C   0  0  0  0  0  0  0  0  0  0  0  0
  -20.6050  -28.4590   23.1850 C   0  0  0  0  0  3  0  0  0  0  0  0
  -20.6930  -27.0230   22.6170 C   0  0  0  0  0  2  0  0  0  0  0  0
  -19.5880  -26.7060   21.6050 C   0  0  0  0  0  2  0  0  0  0  0  0
  -18.2090  -26.8540   22.2510 C   0  0  0  0  0  2  0  0  0  0  0  0
  -19.1640  -28.9620   23.3590 C   0  0  0  0  0  0  0  0  0  0  0  0
  -18.9470  -30.2160   23.9670 C   0  0  0  0  0  3  0  0  0  0  0  0
  -17.6430  -30.7140   24.1500 C   0  0  0  0  0  3  0  0  0  0  0  0
  -16.5350  -29.9530   23.7380 C   0  0  0  0  0  3  0  0  0  0  0  0
  -16.7340  -28.6970   23.1370 C   0  0  0  0  0  3  0  0  0  0  0  0
  -25.9420  -32.5460   23.8440 C   0  0  0  0  0  3  0  0  0  0  0  0
  -25.6070  -33.9530   24.1650 N   0  0  0  0  0  0  0  0  0  0  0  0
  -25.9340  -35.0200   23.4240 C   0  0  0  0  0  0  0  0  0  0  0  0
  -26.5960  -34.9260   22.3880 O   0  0  0  0  0  0  0  0  0  0  0  0
  -25.0120  -34.0970   24.9680 H   0  0  0  0  0  0  0  0  0  0  0  0
  -24.1920  -36.8230   23.1260 C   0  0  0  0  0  1  0  0  0  0  0  0
  -25.4560  -36.4120   23.9000 C   0  0  0  0  0  3  0  0  0  0  0  0
  -27.5990  -37.3240   24.6860 C   0  0  0  0  0  1  0  0  0  0  0  0
  -26.4820  -37.4700   23.7570 N   0  0  0  0  0  0  0  0  0  0  0  0
  -26.0730  -38.3910   23.8940 H   0  0  0  0  0  0  0  0  0  0  0  0
  -26.4160  -31.8110   25.1610 C   0  0  1  0  0  0  0  0  0  0  0  0
  -25.2890  -31.6010   26.2010 C   0  0  0  0  0  1  0  0  0  0  0  0
  -27.0110  -30.4230   24.8420 C   0  0  0  0  0  1  0  0  0  0  0  0
  -27.5460  -32.6230   25.8390 C   0  0  0  0  0  1  0  0  0  0  0  0
  1  3  1  0
  2  4  2  0
  3  6  2  0
  4  6  1  0
  5  2  1  0
  5  1  2  0
  6 45  1  0
  7 15  1  0
  8 13  1  0
  9 10  1  0
  9  8  1  0
 11 10  1  0
 11 20  1  0
 11 12  1  0
 13  7  1  0
 13 12  1  0
 14  7  2  0
 15  5  1  0
 15 16  1  0
 17 18  2  0
 18 37  1  0
 19 18  1  0
 19 22  1  0
 20 21  1  0
 20 17  1  0
 21 19  2  0
 22 23  1  0
 23 24  2  0
 25 28  1  0
 25 24  1  0
 26 25  2  0
 27 26  1  0
 27 22  2  0
 28 29  1  0
 29 30  1  0
 30 31  2  0
 32 31  1  0
 32 36  1  0
 33 32  2  0
 34 29  2  0
 34 33  1  0
 35 34  1  0
 37 38  1  0
 38 41  1  0
 38 40  1  0
 39 37  2  0
 42 43  1  0
 42 17  1  0
 44 42  1  0
 46 57  2  0
 47 45  1  0
 47 52  1  0
 48 56  1  0
 48 58  1  0
 49 55  1  0
 49 51  1  0
 50 56  1  0
 51 52  2  0
 51 50  1  0
 53 47  2  0
 54 53  1  0
 54 49  2  0
 55 48  1  0
 56 46  1  0
 58 60  2  0
 59 58  1  0
 61 59  1  0
 62 71  2  0
 62 67  1  0
 63 59  1  0
 63 67  1  0
 64 63  1  0
 65 66  1  0
 65 64  1  0
 66 62  1  0
 67 68  2  0
 68 69  1  0
 70 69  2  0
 71 70  1  0
 72 46  1  0
 72 73  1  0
 72 82  1  0
 73 76  1  0
 74 78  1  0
 74 73  1  0
 75 74  2  0
 78 77  1  0
 80 81  1  0
 80 78  1  0
 80 79  1  0
 82 85  1  1
 82 83  1  0
 84 82  1  0
M  ISO  4   6 101   7 100  15 100  45 101
M  END
>  <TORSDO>  (10) 
F 16

>  <SCORE>  (10) 
-16.478

>  <name>  (10) 
9

>  <ligand_id>  (10) 
9

>  <original_smiles>  (10) 
[H]c1c([H])c([H])c2c(c1[H])C([H])([H])C([H])([H])C([H])([H])C2([H])N([H])C(=O)C1([H])N(C(=O)C([H])(N([H])C(=O)C([H])(N([H])C([H])([H])[H])C([H])([H])[H])C(C([H])([H])[H])(C([H])([H])[H])C([H])([H])[H])C([H])([H])c2c([H])c(Oc3c([H])c([H])c(N([H])C(=O)N4C([H])([H])C([H])([H])C([H])([H])C([H])(n5nc(-c6c([H])c([H])c(Oc7c([H])c([H])c(F)c([H])c7F)c([H])c6[H])c(C(=O)N([H])[H])c5N([H])[H])C4([H])[H])c([H])c3[H])c([H])c([H])c2C1([H])[H]

>  <smiles>  (10) 
[H]c1c([H])c([H])c2c(c1[H])C([H])([H])C([H])([H])C([H])([H])C2([H])N([H])C(=O)C1([H])N(C(=O)C([H])(N([H])C(=O)C([H])(N([H])C([H])([H])[H])C([H])([H])[H])C(C([H])([H])[H])(C([H])([H])[H])C([H])([H])[H])C([H])([H])c2c([H])c(Oc3c([H])c([H])c(N([H])C(=O)N4C([H])([H])C([H])([H])C([H])([H])C([H])(n5nc(-c6c([H])c([H])c(Oc7c([H])c([H])c(F)c([H])c7F)c([H])c6[H])c(C(=O)N([H])[H])c5N([H])[H])C4([H])[H])c([H])c3[H])c([H])c([H])c2C1([H])[H]

$$$$
10:0:0
     RDKit          3D

 99108  0  0  1  0  0  0  0  0999 V2000
  -24.0250  -25.7090   24.6540 C   0  0  0  0  0  0  0  0  0  0  0  0
  -23.1450  -29.5660   24.3030 C   0  0  0  0  0  0  0  0  0  0  0  0
  -21.1910  -28.5040   24.5670 C   0  0  0  0  0  3  0  0  0  0  0  0
  -23.9670  -28.3340   24.9820 C   0  0  0  0  0  2  0  0  0  0  0  0
  -21.9860  -27.2370   25.2340 C   0  0  0  0  0  3  0  0  0  0  0  0
  -21.7920  -29.4850   23.3710 C   0  0  0  0  0  0  0  0  0  0  0  0
  -23.4110  -26.9790   24.8450 N   0  0  0  0  0  0  0  0  0  0  0  0
  -23.3370  -24.7090   24.8730 O   0  0  0  0  0  0  0  0  0  0  0  0
  -21.5410  -29.4750   21.6230 O   0  0  0  0  0  0  0  0  0  0  0  0
  -21.5050  -28.4460   20.1770 C   0  0  0  0  0  2  0  0  0  0  0  0
  -22.5450  -26.9340   19.5620 C   0  0  0  0  0  2  0  0  0  0  0  0
  -24.2150  -26.0650   19.8050 C   0  0  0  0  0  2  0  0  0  0  0  0
  -25.9120  -26.1300   19.5750 O   0  0  0  0  0  0  0  0  0  0  0  0
  -25.5160  -30.3620   23.2830 C   0  0  0  0  0  3  0  0  0  0  0  0
  -26.7150  -26.8730   18.7280 C   0  0  0  0  0  3  0  0  0  0  0  0
  -24.1480  -29.0960   21.7040 C   0  0  0  0  0  3  0  0  0  0  0  0
  -25.0110  -28.7730   19.3350 C   0  0  0  0  0  0  0  0  0  0  0  0
  -26.4740  -29.8140   21.0600 C   0  0  0  0  0  2  0  0  0  0  0  0
  -26.2750  -28.8460   19.9150 C   0  0  0  0  0  0  0  0  0  0  0  0
  -27.2520  -27.9460   19.4720 C   0  0  0  0  0  2  0  0  0  0  0  0
  -25.8150  -27.1410   17.7270 C   0  0  0  0  0  2  0  0  0  0  0  0
  -24.8110  -28.0380   18.1340 C   0  0  0  0  0  2  0  0  0  0  0  0
  -23.9640  -29.4390   20.1560 C   0  0  0  0  0  2  0  0  0  0  0  0
  -25.4020  -29.7590   22.0780 N   0  0  0  0  0  0  0  0  0  0  0  0
  -24.5500  -30.5060   24.0490 O   0  0  0  0  0  0  0  0  0  0  0  0
  -24.1690  -27.5050   22.2650 C   0  0  0  0  0  0  0  0  0  0  0  0
  -23.2400  -26.3710   22.2750 N   0  0  0  0  0  0  0  0  0  0  0  0
  -25.1810  -27.1770   22.8020 O   0  0  0  0  0  0  0  0  0  0  0  0
  -23.7620  -25.6680   22.7660 H   0  0  0  0  0  0  0  0  0  0  0  0
  -19.2110  -25.3190   21.4060 C   0  0  0  0  0  0  0  0  0  0  0  0
  -21.7730  -25.7090   22.0240 C   0  0  0  0  0  3  0  0  0  0  0  0
  -22.0470  -24.5790   21.0560 C   0  0  0  0  0  2  0  0  0  0  0  0
  -21.0730  -24.5300   19.9050 C   0  0  0  0  0  2  0  0  0  0  0  0
  -19.6880  -24.2450   20.4590 C   0  0  0  0  0  2  0  0  0  0  0  0
  -20.1430  -26.1480   22.0990 C   0  0  0  0  0  0  0  0  0  0  0  0
  -19.4330  -27.1960   22.8300 C   0  0  0  0  0  3  0  0  0  0  0  0
  -18.0450  -27.3170   22.9890 C   0  0  0  0  0  3  0  0  0  0  0  0
  -17.2110  -26.4210   22.3380 C   0  0  0  0  0  3  0  0  0  0  0  0
  -17.8040  -25.4460   21.5300 C   0  0  0  0  0  3  0  0  0  0  0  0
  -26.8980  -30.8570   23.7630 C   0  0  0  0  0  3  0  0  0  0  0  0
  -27.6370  -29.8840   24.7660 C   0  0  1  0  0  0  0  0  0  0  0  0
  -26.8620  -29.5700   26.0670 C   0  0  0  0  0  1  0  0  0  0  0  0
  -28.0460  -28.5530   24.0870 C   0  0  0  0  0  1  0  0  0  0  0  0
  -28.9580  -30.5510   25.2020 C   0  0  0  0  0  1  0  0  0  0  0  0
  -26.6690  -32.1570   24.3920 N   0  0  0  0  0  0  0  0  0  0  0  0
  -26.9330  -33.3230   23.7990 C   0  0  0  0  0  0  0  0  0  0  0  0
  -27.4870  -33.4030   22.6990 O   0  0  0  0  0  0  0  0  0  0  0  0
  -26.1720  -32.1620   25.2700 H   0  0  0  0  0  0  0  0  0  0  0  0
  -25.3170  -35.2460   23.8780 C   0  0  0  0  0  1  0  0  0  0  0  0
  -26.5340  -34.5980   24.5570 C   0  0  0  0  0  3  0  0  0  0  0  0
  -28.7300  -35.1200   25.5160 C   0  0  0  0  0  1  0  0  0  0  0  0
  -27.6370  -35.5760   24.6610 N   0  0  0  0  0  0  0  0  0  0  0  0
  -27.3000  -36.4640   25.0240 H   0  0  0  0  0  0  0  0  0  0  0  0
  -25.5150  -25.3720   24.0790 C   0  0  0  0  0  2  0  0  0  0  0  0
  -25.6810  -24.1350   23.1930 O   0  0  0  0  0  0  0  0  0  0  0  0
  -26.8270  -23.9420   22.2110 C   0  0  0  0  0  3  0  0  0  0  0  0
  -27.1900  -22.4930   21.4820 C   0  0  0  0  0  3  0  0  0  0  0  0
  -28.4710  -22.2330   20.4520 C   0  0  0  0  0  3  0  0  0  0  0  0
  -29.0540  -20.7380   20.0120 C   0  0  0  0  0  3  0  0  0  0  0  0
  -30.3500  -20.4690   19.0050 C   0  0  0  0  0  3  0  0  0  0  0  0
  -31.0980  -18.9980   18.8020 C   0  0  0  0  0  3  0  0  0  0  0  0
  -33.1970  -17.7840   17.4790 C   0  0  0  0  0  0  0  0  0  0  0  0
  -35.2350  -17.4020   16.0020 C   0  0  0  0  0  2  0  0  0  0  0  0
  -36.2450  -18.5710   16.1370 C   0  0  0  0  0  2  0  0  0  0  0  0
  -35.8310  -19.7840   15.2770 C   0  0  0  0  0  2  0  0  0  0  0  0
  -34.3230  -20.1130   15.4270 C   0  0  0  0  0  3  0  0  0  0  0  0
  -33.4710  -18.8490   15.2280 C   0  0  0  0  0  2  0  0  0  0  0  0
  -33.8700  -17.9190   16.2830 N   0  0  0  0  0  0  0  0  0  0  0  0
  -33.5500  -16.8870   18.2610 O   0  0  0  0  0  0  0  0  0  0  0  0
  -32.2170  -18.7640   17.7510 N   0  0  0  0  0  0  0  0  0  0  0  0
  -32.1670  -19.4290   16.9930 H   0  0  0  0  0  0  0  0  0  0  0  0
  -33.1390  -22.3010   14.8260 C   0  0  0  0  0  0  0  0  0  0  0  0
  -33.0580  -23.0030   13.6550 C   0  0  0  0  0  0  0  0  0  0  0  0
  -33.7840  -22.2430   12.6880 C   0  0  0  0  0  0  0  0  0  0  0  0
  -33.8920  -21.1770   14.5360 N   0  0  0  0  0  0  0  0  0  0  0  0
  -34.2300  -21.1160   13.2250 N   0  0  0  0  0  0  0  0  0  0  0  0
  -34.1350  -22.5490   11.2970 C   0  0  0  0  0  0  0  0  0  0  0  0
  -33.8320  -21.6560   10.2450 C   0  0  0  0  0  3  0  0  0  0  0  0
  -34.1660  -21.9840    8.9140 C   0  0  0  0  0  3  0  0  0  0  0  0
  -34.8040  -23.2140    8.6240 C   0  0  0  0  0  0  0  0  0  0  0  0
  -35.1230  -24.0870    9.6780 C   0  0  0  0  0  3  0  0  0  0  0  0
  -34.7950  -23.7570   11.0030 C   0  0  0  0  0  3  0  0  0  0  0  0
  -35.1870  -23.6050    7.3640 O   0  0  0  0  0  0  0  0  0  0  0  0
  -34.5370  -23.1570    6.2420 C   0  0  0  0  0  0  0  0  0  0  0  0
  -33.1510  -23.3540    6.0550 C   0  0  0  0  0  3  0  0  0  0  0  0
  -32.5360  -22.9400    4.8570 C   0  0  0  0  0  3  0  0  0  0  0  0
  -33.3050  -22.3360    3.8430 C   0  0  0  0  0  0  0  0  0  0  0  0
  -34.6850  -22.1430    4.0260 C   0  0  0  0  0  3  0  0  0  0  0  0
  -35.2990  -22.5550    5.2210 C   0  0  0  0  0  0  0  0  0  0  0  0
  -36.6330  -22.3860    5.3850 F   0  0  0  0  0  0  0  0  0  0  0  0
  -32.7170  -21.9460    2.6890 F   0  0  0  0  0  0  0  0  0  0  0  0
  -32.4270  -24.3510   13.4650 C   0  0  0  0  0  0  0  0  0  0  0  0
  -31.8830  -24.6100   12.2810 N   0  0  0  0  0  0  0  0  0  0  0  0
  -32.3720  -25.1670   14.3850 O   0  0  0  0  0  0  0  0  0  0  0  0
  -31.9100  -23.9330   11.5340 H   0  0  0  0  0  0  0  0  0  0  0  0
  -31.4300  -25.4990   12.1210 H   0  0  0  0  0  0  0  0  0  0  0  0
  -32.6570  -22.5330   16.1110 N   0  0  0  0  0  0  0  0  0  0  0  0
  -32.1620  -23.3850   16.3520 H   0  0  0  0  0  0  0  0  0  0  0  0
  -32.8700  -21.9610   16.9180 H   0  0  0  0  0  0  0  0  0  0  0  0
  1  7  1  0
  1  8  2  0
  2  4  1  0
  3  5  2  0
  6  2  2  0
  6  3  1  0
  7  4  1  0
  7  5  1  0
  9  6  1  0
 10  9  1  0
 11 12  1  0
 11 10  1  0
 13 12  1  0
 14 40  1  0
 14 25  1  0
 15 21  1  0
 15 20  1  0
 15 13  1  0
 16 24  1  0
 16 26  1  0
 17 19  2  0
 17 23  1  0
 19 18  1  0
 20 19  1  0
 21 22  1  0
 22 17  1  0
 23 16  1  0
 24 18  1  0
 24 14  1  0
 25  2  1  0
 26 27  1  0
 26 28  2  0
 27 29  1  0
 30 39  2  0
 30 35  1  0
 31 35  1  0
 31 27  1  0
 32 31  1  0
 33 34  1  0
 33 32  1  0
 34 30  1  0
 35 36  2  0
 36 37  1  0
 38 37  2  0
 39 38  1  0
 40 45  1  0
 40 41  1  0
 41 44  1  1
 41 42  1  0
 43 41  1  0
 45 48  1  0
 46 45  1  0
 46 50  1  0
 47 46  2  0
 50 49  1  0
 50 52  1  0
 52 53  1  0
 52 51  1  0
 54  1  1  0
 55 54  1  0
 56 55  1  0
 57 56  2  0
 58 57  1  0
 59 58  2  0
 60 59  1  0
 61 60  2  0
 62 70  1  0
 62 69  2  0
 63 64  1  0
 63 68  1  0
 65 66  1  0
 65 64  1  0
 66 75  1  0
 67 66  1  0
 67 68  1  0
 68 62  1  0
 70 61  1  0
 71 70  1  0
 72 97  1  0
 73 72  2  0
 74 76  2  0
 74 73  1  0
 75 72  1  0
 76 75  1  0
 77 74  1  0
 78 77  2  0
 79 78  1  0
 80 79  2  0
 80 81  1  0
 81 82  2  0
 82 77  1  0
 83 80  1  0
 84 83  1  0
 85 84  1  0
 86 85  2  0
 87 88  2  0
 87 86  1  0
 88 89  1  0
 89 90  1  0
 89 84  2  0
 91 87  1  0
 92 73  1  0
 92 94  2  0
 93 92  1  0
 95 93  1  0
 96 93  1  0
 97 98  1  0
 97 99  1  0
M  ISO  4  12 101  13 101  62 100  70 100
M  END
>  <TORSDO>  (11) 
F 28

>  <SCORE>  (11) 
-0.887

>  <name>  (11) 
10

>  <ligand_id>  (11) 
10

>  <original_smiles>  (11) 
[H]c1c([H])c([H])c2c(c1[H])C([H])([H])C([H])([H])C([H])([H])C2([H])N([H])C(=O)C1([H])N(C(=O)C([H])(N([H])C(=O)C([H])(N([H])C([H])([H])[H])C([H])([H])[H])C(C([H])([H])[H])(C([H])([H])[H])C([H])([H])[H])C([H])([H])c2c([H])c(OC([H])([H])C([H])([H])C([H])([H])OC3([H])C([H])([H])C([H])([H])N(C(=O)C([H])([H])OC([H])([H])C([H])([H])C([H])([H])C([H])([H])C([H])([H])C([H])([H])N([H])C(=O)N4C([H])([H])C([H])([H])C([H])([H])C([H])(n5nc(-c6c([H])c([H])c(Oc7c([H])c([H])c(F)c([H])c7F)c([H])c6[H])c(C(=O)N([H])[H])c5N([H])[H])C4([H])[H])C([H])([H])C3([H])[H])c([H])c([H])c2C1([H])[H]

>  <smiles>  (11) 
[H]c1c([H])c([H])c2c(c1[H])C([H])([H])C([H])([H])C([H])([H])C2([H])N([H])C(=O)C1([H])N(C(=O)C([H])(N([H])C(=O)C([H])(N([H])C([H])([H])[H])C([H])([H])[H])C(C([H])([H])[H])(C([H])([H])[H])C([H])([H])[H])C([H])([H])c2c([H])c(OC([H])([H])C([H])([H])C([H])([H])OC3([H])C([H])([H])C([H])([H])N(C(=O)C([H])([H])OC([H])([H])C([H])([H])C([H])([H])C([H])([H])C([H])([H])C([H])([H])N([H])C(=O)N4C([H])([H])C([H])([H])C([H])([H])C([H])(n5nc(-c6c([H])c([H])c(Oc7c([H])c([H])c(F)c([H])c7F)c([H])c6[H])c(C(=O)N([H])[H])c5N([H])[H])C4([H])[H])C([H])([H])C3([H])[H])c([H])c([H])c2C1([H])[H]

$$$$
11:0:0
     RDKit          3D

 85 92  0  0  1  0  0  0  0  0999 V2000
  -26.6540  -21.2740   19.9540 C   0  0  0  0  0  3  0  0  0  0  0  0
  -27.5040  -20.1010   19.9440 C   0  0  0  0  0  3  0  0  0  0  0  0
  -26.9770  -22.6840   19.9870 C   0  0  0  0  0  3  0  0  0  0  0  0
  -29.1920  -21.7460   19.9960 C   0  0  0  0  0  3  0  0  0  0  0  0
  -28.9320  -20.0080   19.9600 C   0  0  0  0  0  3  0  0  0  0  0  0
  -28.2760  -23.2560   20.0160 C   0  0  0  0  0  0  0  0  0  0  0  0
  -30.2330  -16.6050   19.8640 C   0  0  0  0  0  0  0  0  0  0  0  0
  -30.5570  -13.8940   19.0870 C   0  0  0  0  0  2  0  0  0  0  0  0
  -29.7130  -13.1440   17.9860 C   0  0  0  0  0  2  0  0  0  0  0  0
  -28.3870  -12.6150   18.5380 C   0  0  0  0  0  2  0  0  0  0  0  0
  -27.8020  -13.6390   19.5240 C   0  0  0  0  0  3  0  0  0  0  0  0
  -28.8190  -14.2520   20.5400 C   0  0  0  0  0  2  0  0  0  0  0  0
  -29.8220  -15.1060   19.7920 N   0  0  0  0  0  0  0  0  0  0  0  0
  -31.4780  -16.4640   19.6990 O   0  0  0  0  0  0  0  0  0  0  0  0
  -29.3940  -18.1050   19.9330 N   0  0  0  0  0  2  0  0  0  0  0  0
  -28.4810  -17.6770   19.9990 H   0  0  0  0  0  0  0  0  0  0  0  0
  -25.4970  -14.0610   20.4580 C   0  0  0  0  0  0  0  0  0  0  0  0
  -24.4710  -13.2530   20.8520 C   0  0  0  0  0  0  0  0  0  0  0  0
  -24.9530  -11.9130   20.7340 C   0  0  0  0  0  0  0  0  0  0  0  0
  -26.5380  -13.2230   20.1200 N   0  0  0  0  0  0  0  0  0  0  0  0
  -26.2290  -11.9140   20.3430 N   0  0  0  0  0  0  0  0  0  0  0  0
  -24.2410  -10.6360   20.9140 C   0  0  0  0  0  0  0  0  0  0  0  0
  -24.6530   -9.6850   21.8740 C   0  0  0  0  0  3  0  0  0  0  0  0
  -23.9330   -8.4820   22.0470 C   0  0  0  0  0  3  0  0  0  0  0  0
  -22.7840   -8.2210   21.2620 C   0  0  0  0  0  0  0  0  0  0  0  0
  -22.3910   -9.1610   20.2930 C   0  0  0  0  0  3  0  0  0  0  0  0
  -23.1120  -10.3550   20.1180 C   0  0  0  0  0  3  0  0  0  0  0  0
  -22.0400   -7.0680   21.3420 O   0  0  0  0  0  0  0  0  0  0  0  0
  -21.8570   -6.4090   22.5310 C   0  0  0  0  0  0  0  0  0  0  0  0
  -21.2080   -7.0160   23.6270 C   0  0  0  0  0  3  0  0  0  0  0  0
  -20.9790   -6.2800   24.8070 C   0  0  0  0  0  3  0  0  0  0  0  0
  -21.3900   -4.9360   24.8900 C   0  0  0  0  0  0  0  0  0  0  0  0
  -22.0320   -4.3280   23.7980 C   0  0  0  0  0  3  0  0  0  0  0  0
  -22.2620   -5.0610   22.6210 C   0  0  0  0  0  0  0  0  0  0  0  0
  -22.8610   -4.4620   21.5630 F   0  0  0  0  0  0  0  0  0  0  0  0
  -21.1640   -4.2260   26.0210 F   0  0  0  0  0  0  0  0  0  0  0  0
  -23.0870  -13.7060   21.2120 C   0  0  0  0  0  0  0  0  0  0  0  0
  -22.4210  -12.9880   22.1070 N   0  0  0  0  0  0  0  0  0  0  0  0
  -22.6100  -14.7360   20.7360 O   0  0  0  0  0  0  0  0  0  0  0  0
  -22.8230  -12.1550   22.5130 H   0  0  0  0  0  0  0  0  0  0  0  0
  -21.4960  -13.2740   22.3930 H   0  0  0  0  0  0  0  0  0  0  0  0
  -25.6250  -15.4410   20.3210 N   0  0  0  0  0  0  0  0  0  0  0  0
  -24.8490  -16.0720   20.4850 H   0  0  0  0  0  0  0  0  0  0  0  0
  -26.4340  -15.8980   19.9210 H   0  0  0  0  0  0  0  0  0  0  0  0
  -28.2990  -25.0480   20.0590 O   0  0  0  0  0  0  0  0  0  0  0  0
  -24.8210  -31.8820   23.1170 C   0  0  0  0  0  0  0  0  0  0  0  0
  -27.3590  -26.4630   20.0860 C   0  0  0  0  0  0  0  0  0  0  0  0
  -23.6590  -30.4910   21.4640 C   0  0  0  0  0  3  0  0  0  0  0  0
  -25.1200  -28.7790   20.0550 C   0  0  0  0  0  0  0  0  0  0  0  0
  -26.2540  -30.5130   21.4000 C   0  0  0  0  0  2  0  0  0  0  0  0
  -26.3210  -29.0390   20.7240 C   0  0  0  0  0  0  0  0  0  0  0  0
  -27.3960  -27.9260   20.6990 C   0  0  0  0  0  3  0  0  0  0  0  0
  -26.1220  -26.5430   19.3520 C   0  0  0  0  0  3  0  0  0  0  0  0
  -25.0880  -27.5620   19.3440 C   0  0  0  0  0  3  0  0  0  0  0  0
  -23.9270  -29.7780   20.0990 C   0  0  0  0  0  2  0  0  0  0  0  0
  -24.9410  -31.0060   22.0460 N   0  0  0  0  0  0  0  0  0  0  0  0
  -23.7160  -32.1880   23.6070 O   0  0  0  0  0  0  0  0  0  0  0  0
  -22.9040  -29.5360   22.4330 C   0  0  0  0  0  0  0  0  0  0  0  0
  -21.5690  -29.3890   22.2980 N   0  0  0  0  0  0  0  0  0  0  0  0
  -23.5410  -28.9170   23.2890 O   0  0  0  0  0  0  0  0  0  0  0  0
  -21.0970  -29.9380   21.5930 H   0  0  0  0  0  0  0  0  0  0  0  0
  -18.1750  -28.1730   22.8320 C   0  0  0  0  0  0  0  0  0  0  0  0
  -20.7410  -28.4400   23.0590 C   0  0  0  0  0  3  0  0  0  0  0  0
  -20.8310  -27.0200   22.4520 C   0  0  0  0  0  2  0  0  0  0  0  0
  -19.7160  -26.7240   21.4430 C   0  0  0  0  0  2  0  0  0  0  0  0
  -18.3430  -26.8460   22.1090 C   0  0  0  0  0  2  0  0  0  0  0  0
  -19.2980  -28.9290   23.2630 C   0  0  0  0  0  0  0  0  0  0  0  0
  -19.0810  -30.1650   23.9090 C   0  0  0  0  0  3  0  0  0  0  0  0
  -17.7760  -30.6480   24.1210 C   0  0  0  0  0  3  0  0  0  0  0  0
  -16.6680  -29.8910   23.7000 C   0  0  0  0  0  3  0  0  0  0  0  0
  -16.8680  -28.6550   23.0620 C   0  0  0  0  0  3  0  0  0  0  0  0
  -26.0580  -32.5550   23.7880 C   0  0  0  0  0  3  0  0  0  0  0  0
  -25.7130  -33.9530   24.1370 N   0  0  0  0  0  0  0  0  0  0  0  0
  -26.0160  -35.0380   23.4110 C   0  0  0  0  0  0  0  0  0  0  0  0
  -26.6600  -34.9700   22.3620 O   0  0  0  0  0  0  0  0  0  0  0  0
  -25.1310  -34.0770   24.9530 H   0  0  0  0  0  0  0  0  0  0  0  0
  -24.2510  -36.8300   23.1850 C   0  0  0  0  0  1  0  0  0  0  0  0
  -25.5350  -36.4170   23.9220 C   0  0  0  0  0  3  0  0  0  0  0  0
  -27.6860  -37.3430   24.6770 C   0  0  0  0  0  1  0  0  0  0  0  0
  -26.5460  -37.4910   23.7760 N   0  0  0  0  0  0  0  0  0  0  0  0
  -26.1290  -38.4030   23.9400 H   0  0  0  0  0  0  0  0  0  0  0  0
  -26.5360  -31.8000   25.0930 C   0  0  1  0  0  0  0  0  0  0  0  0
  -25.4100  -31.5640   26.1270 C   0  0  0  0  0  1  0  0  0  0  0  0
  -27.1430  -30.4230   24.7520 C   0  0  0  0  0  1  0  0  0  0  0  0
  -27.6590  -32.6090   25.7850 C   0  0  0  0  0  1  0  0  0  0  0  0
  1  3  1  0
  2  1  2  0
  2  5  1  0
  3  6  2  0
  4  6  1  0
  5  4  2  0
  6 45  1  0
  7 15  1  0
  8 13  1  0
  9 10  1  0
  9  8  1  0
 11 10  1  0
 11 20  1  0
 11 12  1  0
 13  7  1  0
 13 12  1  0
 14  7  2  0
 15 16  1  0
 17 18  2  0
 18 37  1  0
 19 18  1  0
 19 22  1  0
 20 21  1  0
 20 17  1  0
 21 19  2  0
 22 23  1  0
 23 24  2  0
 25 28  1  0
 25 24  1  0
 26 25  2  0
 27 26  1  0
 27 22  2  0
 28 29  1  0
 29 34  2  0
 29 30  1  0
 30 31  2  0
 31 32  1  0
 32 36  1  0
 33 32  2  0
 34 33  1  0
 35 34  1  0
 37 38  1  0
 38 41  1  0
 38 40  1  0
 39 37  2  0
 42 17  1  0
 42 43  1  0
 44 42  1  0
 45 47  1  0
 46 57  2  0
 47 52  1  0
 48 56  1  0
 48 58  1  0
 49 55  1  0
 49 51  1  0
 50 56  1  0
 51 50  1  0
 52 51  2  0
 53 47  2  0
 54 53  1  0
 54 49  2  0
 55 48  1  0
 56 46  1  0
 58 60  2  0
 59 58  1  0
 61 59  1  0
 62 71  2  0
 62 67  1  0
 63 59  1  0
 63 67  1  0
 64 63  1  0
 65 66  1  0
 65 64  1  0
 66 62  1  0
 67 68  2  0
 68 69  1  0
 70 69  2  0
 71 70  1  0
 72 46  1  0
 72 73  1  0
 72 82  1  0
 73 76  1  0
 74 78  1  0
 74 73  1  0
 75 74  2  0
 78 77  1  0
 80 78  1  0
 80 81  1  0
 80 79  1  0
 82 85  1  1
 82 83  1  0
 84 82  1  0
M  ISO  4   6 101   7 100  15 100  45 101
M  END
>  <TORSDO>  (12) 
F 16

>  <SCORE>  (12) 
-15.159

>  <name>  (12) 
11

>  <ligand_id>  (12) 
11

>  <original_smiles>  (12) 
[H]c1c([H])c(Oc2c([H])c([H])c3c(c2[H])C([H])([H])N(C(=O)C([H])(N([H])C(=O)C([H])(N([H])C([H])([H])[H])C([H])([H])[H])C(C([H])([H])[H])(C([H])([H])[H])C([H])([H])[H])C([H])(C(=O)N([H])C2([H])c4c([H])c([H])c([H])c([H])c4C([H])([H])C([H])([H])C2([H])[H])C3([H])[H])c([H])c(N([H])C(=O)N2C([H])([H])C([H])([H])C([H])([H])C([H])(n3nc(-c4c([H])c([H])c(Oc5c([H])c([H])c(F)c([H])c5F)c([H])c4[H])c(C(=O)N([H])[H])c3N([H])[H])C2([H])[H])c1[H]

>  <smiles>  (12) 
[H]c1c([H])c(Oc2c([H])c([H])c3c(c2[H])C([H])([H])N(C(=O)C([H])(N([H])C(=O)C([H])(N([H])C([H])([H])[H])C([H])([H])[H])C(C([H])([H])[H])(C([H])([H])[H])C([H])([H])[H])C([H])(C(=O)N([H])C2([H])c4c([H])c([H])c([H])c([H])c4C([H])([H])C([H])([H])C2([H])[H])C3([H])[H])c([H])c(N([H])C(=O)N2C([H])([H])C([H])([H])C([H])([H])C([H])(n3nc(-c4c([H])c([H])c(Oc5c([H])c([H])c(F)c([H])c5F)c([H])c4[H])c(C(=O)N([H])[H])c3N([H])[H])C2([H])[H])c1[H]

$$$$
12:0:0
     RDKit          3D

 93101  0  0  1  0  0  0  0  0999 V2000
  -31.2360  -17.9130   20.0980 C   0  0  0  0  0  3  0  0  0  0  0  0
  -31.3080  -19.3320   19.9470 C   0  0  0  0  0  3  0  0  0  0  0  0
  -28.9250  -19.4670   19.8700 C   0  0  0  0  0  3  0  0  0  0  0  0
  -28.8310  -18.0540   20.0610 C   0  0  0  0  0  0  0  0  0  0  0  0
  -29.9950  -17.2140   20.1580 C   0  0  0  0  0  0  0  0  0  0  0  0
  -30.1570  -20.1580   19.8160 C   0  0  0  0  0  0  0  0  0  0  0  0
  -30.6240  -14.6690   19.8900 C   0  0  0  0  0  0  0  0  0  0  0  0
  -30.3070  -12.4290   18.8490 C   0  0  0  0  0  2  0  0  0  0  0  0
  -29.2780  -12.5740   17.7050 C   0  0  0  0  0  2  0  0  0  0  0  0
  -27.8380  -12.4330   18.2370 C   0  0  0  0  0  2  0  0  0  0  0  0
  -27.5760  -13.2830   19.5090 C   0  0  0  0  0  3  0  0  0  0  0  0
  -28.7190  -13.1150   20.5390 C   0  0  0  0  0  2  0  0  0  0  0  0
  -29.9860  -13.4520   19.8670 N   0  0  0  0  0  0  0  0  0  0  0  0
  -31.7580  -14.7960   19.4200 O   0  0  0  0  0  0  0  0  0  0  0  0
  -29.8740  -15.7450   20.2970 N   0  0  0  0  0  0  0  0  0  0  0  0
  -28.9900  -15.4550   20.6930 H   0  0  0  0  0  0  0  0  0  0  0  0
  -25.2360  -13.8730   20.4020 C   0  0  0  0  0  0  0  0  0  0  0  0
  -24.1990  -13.1040   20.8450 C   0  0  0  0  0  0  0  0  0  0  0  0
  -24.6490  -11.7530   20.7590 C   0  0  0  0  0  0  0  0  0  0  0  0
  -26.2640  -12.9980   20.0870 N   0  0  0  0  0  0  0  0  0  0  0  0
  -25.9160  -11.7120   20.3580 N   0  0  0  0  0  0  0  0  0  0  0  0
  -23.9230  -10.4970   20.9770 C   0  0  0  0  0  0  0  0  0  0  0  0
  -24.3740   -9.5320   21.9030 C   0  0  0  0  0  3  0  0  0  0  0  0
  -23.6430   -8.3430   22.1090 C   0  0  0  0  0  3  0  0  0  0  0  0
  -22.4460   -8.1110   21.3890 C   0  0  0  0  0  0  0  0  0  0  0  0
  -22.0130   -9.0660   20.4510 C   0  0  0  0  0  3  0  0  0  0  0  0
  -22.7460  -10.2460   20.2430 C   0  0  0  0  0  3  0  0  0  0  0  0
  -21.6830   -6.9750   21.5070 O   0  0  0  0  0  0  0  0  0  0  0  0
  -21.6210   -6.2690   22.6820 C   0  0  0  0  0  0  0  0  0  0  0  0
  -21.1810   -6.8640   23.8850 C   0  0  0  0  0  3  0  0  0  0  0  0
  -21.0660   -6.0850   25.0530 C   0  0  0  0  0  3  0  0  0  0  0  0
  -21.3780   -4.7120   25.0200 C   0  0  0  0  0  0  0  0  0  0  0  0
  -21.8110   -4.1170   23.8220 C   0  0  0  0  0  3  0  0  0  0  0  0
  -21.9290   -4.8940   22.6550 C   0  0  0  0  0  0  0  0  0  0  0  0
  -22.3260   -4.3110   21.4980 F   0  0  0  0  0  0  0  0  0  0  0  0
  -21.2600   -3.9610   26.1400 F   0  0  0  0  0  0  0  0  0  0  0  0
  -22.8310  -13.5930   21.2260 C   0  0  0  0  0  0  0  0  0  0  0  0
  -22.1610  -12.8960   22.1370 N   0  0  0  0  0  0  0  0  0  0  0  0
  -22.3680  -14.6320   20.7560 O   0  0  0  0  0  0  0  0  0  0  0  0
  -22.5480  -12.0590   22.5420 H   0  0  0  0  0  0  0  0  0  0  0  0
  -21.2480  -13.2100   22.4370 H   0  0  0  0  0  0  0  0  0  0  0  0
  -25.3540  -15.2410   20.2220 N   0  0  0  0  0  0  0  0  0  0  0  0
  -24.5840  -15.8570   20.4530 H   0  0  0  0  0  0  0  0  0  0  0  0
  -26.1500  -15.7420   19.8510 H   0  0  0  0  0  0  0  0  0  0  0  0
  -27.4080  -17.5110   20.0980 C   0  0  1  0  0  0  0  0  0  0  0  0
  -26.5950  -18.3460   20.7500 F   0  0  0  0  0  0  0  0  0  0  0  0
  -26.9930  -17.4290   18.8350 F   0  0  0  0  0  0  0  0  0  0  0  0
  -27.3030  -16.3160   20.6780 F   0  0  0  0  0  0  0  0  0  0  0  0
  -30.2980  -21.5580   19.6780 O   0  0  0  0  0  0  0  0  0  0  0  0
  -29.1570  -22.4640   19.4840 C   0  0  0  0  0  3  0  0  0  0  0  0
  -29.4320  -24.0220   19.7070 C   0  0  0  0  0  3  0  0  0  0  0  0
  -28.2020  -25.0150   19.5230 C   0  0  0  0  0  2  0  0  0  0  0  0
  -28.3580  -26.4610   19.8050 O   0  0  0  0  0  0  0  0  0  0  0  0
  -24.5170  -31.6280   23.0870 C   0  0  0  0  0  0  0  0  0  0  0  0
  -27.2030  -27.2660   19.8150 C   0  0  0  0  0  0  0  0  0  0  0  0
  -23.3280  -30.2810   21.3930 C   0  0  0  0  0  3  0  0  0  0  0  0
  -24.8000  -28.8200   19.8960 C   0  0  0  0  0  0  0  0  0  0  0  0
  -25.8620  -30.6520   21.2160 C   0  0  0  0  0  2  0  0  0  0  0  0
  -25.9620  -29.3070   20.5070 C   0  0  0  0  0  0  0  0  0  0  0  0
  -27.1650  -28.5410   20.4580 C   0  0  0  0  0  3  0  0  0  0  0  0
  -26.0090  -26.8290   19.1920 C   0  0  0  0  0  3  0  0  0  0  0  0
  -24.8240  -27.5860   19.2330 C   0  0  0  0  0  3  0  0  0  0  0  0
  -23.5440  -29.6640   19.9860 C   0  0  0  0  0  2  0  0  0  0  0  0
  -24.5870  -30.8700   21.9540 N   0  0  0  0  0  0  0  0  0  0  0  0
  -23.4310  -31.8650   23.6370 O   0  0  0  0  0  0  0  0  0  0  0  0
  -22.6890  -29.2140   22.3110 C   0  0  0  0  0  0  0  0  0  0  0  0
  -21.3620  -29.0360   22.1950 N   0  0  0  0  0  0  0  0  0  0  0  0
  -23.3840  -28.5490   23.0830 O   0  0  0  0  0  0  0  0  0  0  0  0
  -20.8600  -29.6260   21.5460 H   0  0  0  0  0  0  0  0  0  0  0  0
  -17.9980  -27.8040   22.6840 C   0  0  0  0  0  0  0  0  0  0  0  0
  -20.5590  -28.0570   22.9290 C   0  0  0  0  0  3  0  0  0  0  0  0
  -20.6580  -26.6580   22.2770 C   0  0  0  0  0  2  0  0  0  0  0  0
  -19.5410  -26.3830   21.2660 C   0  0  0  0  0  2  0  0  0  0  0  0
  -18.1680  -26.4910   21.9360 C   0  0  0  0  0  2  0  0  0  0  0  0
  -19.1210  -28.5470   23.1340 C   0  0  0  0  0  0  0  0  0  0  0  0
  -18.9080  -29.7800   23.7890 C   0  0  0  0  0  3  0  0  0  0  0  0
  -17.6050  -30.2670   24.0020 C   0  0  0  0  0  3  0  0  0  0  0  0
  -16.4960  -29.5180   23.5700 C   0  0  0  0  0  3  0  0  0  0  0  0
  -16.6940  -28.2890   22.9170 C   0  0  0  0  0  3  0  0  0  0  0  0
  -25.7920  -32.2530   23.7320 C   0  0  0  0  0  3  0  0  0  0  0  0
  -25.4690  -33.6380   24.1040 N   0  0  0  0  0  0  0  0  0  0  0  0
  -25.7950  -34.7180   23.3800 C   0  0  0  0  0  0  0  0  0  0  0  0
  -26.4700  -34.6520   22.3490 O   0  0  0  0  0  0  0  0  0  0  0  0
  -24.8700  -33.7610   24.9060 H   0  0  0  0  0  0  0  0  0  0  0  0
  -24.0450  -36.5020   23.0830 C   0  0  0  0  0  1  0  0  0  0  0  0
  -25.2920  -36.0860   23.8790 C   0  0  0  0  0  3  0  0  0  0  0  0
  -27.4150  -36.9760   24.7340 C   0  0  0  0  0  1  0  0  0  0  0  0
  -26.3110  -37.1550   23.7950 N   0  0  0  0  0  0  0  0  0  0  0  0
  -25.8940  -38.0650   23.9650 H   0  0  0  0  0  0  0  0  0  0  0  0
  -26.3120  -31.4490   24.9880 C   0  0  1  0  0  0  0  0  0  0  0  0
  -25.2220  -31.1830   26.0520 C   0  0  0  0  0  1  0  0  0  0  0  0
  -26.8950  -30.0820   24.5610 C   0  0  0  0  0  1  0  0  0  0  0  0
  -27.4620  -32.2270   25.6700 C   0  0  0  0  0  1  0  0  0  0  0  0
  1  5  1  0
  2  1  2  0
  3  4  1  0
  4 45  1  0
  4  5  2  0
  5 15  1  0
  6  3  2  0
  6  2  1  0
  7 15  1  0
  8 13  1  0
  9 10  1  0
  9  8  1  0
 11 10  1  0
 11 20  1  0
 11 12  1  0
 13  7  1  0
 13 12  1  0
 14  7  2  0
 15 16  1  0
 17 18  2  0
 18 37  1  0
 19 18  1  0
 19 22  1  0
 20 21  1  0
 20 17  1  0
 21 19  2  0
 22 23  1  0
 23 24  2  0
 25 28  1  0
 25 24  1  0
 26 25  2  0
 27 26  1  0
 27 22  2  0
 28 29  1  0
 29 30  1  0
 30 31  2  0
 32 31  1  0
 32 36  1  0
 33 32  2  0
 34 29  2  0
 34 33  1  0
 35 34  1  0
 37 38  1  0
 38 41  1  0
 38 40  1  0
 39 37  2  0
 42 17  1  0
 42 43  1  0
 44 42  1  0
 45 48  1  1
 45 46  1  0
 47 45  1  0
 49  6  1  0
 50 49  1  0
 50 51  2  0
 52 51  1  0
 52 53  1  0
 53 55  1  0
 54 65  2  0
 55 60  1  0
 56 64  1  0
 56 66  1  0
 57 63  1  0
 57 59  1  0
 58 64  1  0
 59 58  1  0
 60 59  2  0
 61 62  1  0
 61 55  2  0
 62 57  2  0
 63 56  1  0
 64 54  1  0
 66 68  2  0
 67 66  1  0
 69 67  1  0
 70 79  2  0
 70 75  1  0
 71 67  1  0
 71 75  1  0
 72 71  1  0
 73 74  1  0
 73 72  1  0
 74 70  1  0
 75 76  2  0
 76 77  1  0
 78 77  2  0
 79 78  1  0
 80 54  1  0
 80 81  1  0
 80 90  1  0
 81 84  1  0
 82 86  1  0
 82 81  1  0
 83 82  2  0
 86 85  1  0
 88 86  1  0
 88 89  1  0
 88 87  1  0
 90 93  1  1
 90 91  1  0
 92 90  1  0
M  ISO  4   7 100  15 100  52 101  53 101
M  END
>  <TORSDO>  (13) 
F 21

>  <SCORE>  (13) 
-13.055

>  <name>  (13) 
12

>  <ligand_id>  (13) 
12

>  <original_smiles>  (13) 
[H]c1c([H])c([H])c2c(c1[H])C([H])([H])C([H])([H])C([H])([H])C2([H])N([H])C(=O)C1([H])N(C(=O)C([H])(N([H])C(=O)C([H])(N([H])C([H])([H])[H])C([H])([H])[H])C(C([H])([H])[H])(C([H])([H])[H])C([H])([H])[H])C([H])([H])c2c([H])c(OC([H])([H])C([H])([H])C([H])([H])Oc3c([H])c([H])c(N([H])C(=O)N4C([H])([H])C([H])([H])C([H])([H])C([H])(n5nc(-c6c([H])c([H])c(Oc7c([H])c([H])c(F)c([H])c7F)c([H])c6[H])c(C(=O)N([H])[H])c5N([H])[H])C4([H])[H])c(C(F)(F)F)c3[H])c([H])c([H])c2C1([H])[H]

>  <smiles>  (13) 
[H]c1c([H])c([H])c2c(c1[H])C([H])([H])C([H])([H])C([H])([H])C2([H])N([H])C(=O)C1([H])N(C(=O)C([H])(N([H])C(=O)C([H])(N([H])C([H])([H])[H])C([H])([H])[H])C(C([H])([H])[H])(C([H])([H])[H])C([H])([H])[H])C([H])([H])c2c([H])c(OC([H])([H])C([H])([H])C([H])([H])Oc3c([H])c([H])c(N([H])C(=O)N4C([H])([H])C([H])([H])C([H])([H])C([H])(n5nc(-c6c([H])c([H])c(Oc7c([H])c([H])c(F)c([H])c7F)c([H])c6[H])c(C(=O)N([H])[H])c5N([H])[H])C4([H])[H])c(C(F)(F)F)c3[H])c([H])c([H])c2C1([H])[H]

$$$$
13:0:0
     RDKit          3D

 90 97  0  0  1  0  0  0  0  0999 V2000
  -29.3830  -19.7960   20.1690 C   0  0  0  0  0  3  0  0  0  0  0  0
  -28.3510  -21.2350   20.0730 C   0  0  0  0  0  2  0  0  0  0  0  0
  -28.7220  -22.9750   20.1650 C   0  0  0  0  0  3  0  0  0  0  0  0
  -27.7250  -24.4370   20.0220 C   0  0  0  0  0  3  0  0  0  0  0  0
  -28.0240  -26.0360   20.1080 O   0  0  0  0  0  0  0  0  0  0  0  0
  -24.5340  -31.9400   23.1700 C   0  0  0  0  0  0  0  0  0  0  0  0
  -27.0090  -27.1110   20.0740 C   0  0  0  0  0  0  0  0  0  0  0  0
  -23.2960  -30.5410   21.5670 C   0  0  0  0  0  3  0  0  0  0  0  0
  -24.7060  -28.9550   20.0970 C   0  0  0  0  0  0  0  0  0  0  0  0
  -25.8530  -30.7760   21.3380 C   0  0  0  0  0  2  0  0  0  0  0  0
  -25.9090  -29.3730   20.6800 C   0  0  0  0  0  0  0  0  0  0  0  0
  -27.0580  -28.4700   20.6470 C   0  0  0  0  0  3  0  0  0  0  0  0
  -25.7760  -26.8340   19.4480 C   0  0  0  0  0  3  0  0  0  0  0  0
  -24.6620  -27.7060   19.4590 C   0  0  0  0  0  3  0  0  0  0  0  0
  -23.4840  -29.8640   20.1830 C   0  0  0  0  0  2  0  0  0  0  0  0
  -24.5850  -31.1110   22.0790 N   0  0  0  0  0  0  0  0  0  0  0  0
  -23.4600  -32.2220   23.7260 O   0  0  0  0  0  0  0  0  0  0  0  0
  -22.6400  -29.5360   22.5500 C   0  0  0  0  0  0  0  0  0  0  0  0
  -21.3120  -29.3420   22.4460 N   0  0  0  0  0  0  0  0  0  0  0  0
  -23.3310  -28.9300   23.3720 O   0  0  0  0  0  0  0  0  0  0  0  0
  -20.8070  -29.8860   21.7620 H   0  0  0  0  0  0  0  0  0  0  0  0
  -17.9700  -28.0370   22.9790 C   0  0  0  0  0  0  0  0  0  0  0  0
  -20.5190  -28.3960   23.2380 C   0  0  0  0  0  3  0  0  0  0  0  0
  -20.6690  -26.9540   22.6980 C   0  0  0  0  0  2  0  0  0  0  0  0
  -19.5800  -26.5710   21.6900 C   0  0  0  0  0  2  0  0  0  0  0  0
  -18.1940  -26.6810   22.3310 C   0  0  0  0  0  2  0  0  0  0  0  0
  -19.0610  -28.8490   23.3900 C   0  0  0  0  0  0  0  0  0  0  0  0
  -18.7960  -30.1130   23.9600 C   0  0  0  0  0  3  0  0  0  0  0  0
  -17.4740  -30.5690   24.1180 C   0  0  0  0  0  3  0  0  0  0  0  0
  -16.3980  -29.7570   23.7220 C   0  0  0  0  0  3  0  0  0  0  0  0
  -16.6470  -28.4920   23.1580 C   0  0  0  0  0  3  0  0  0  0  0  0
  -25.8210  -32.5860   23.7650 C   0  0  0  0  0  3  0  0  0  0  0  0
  -26.3750  -31.8170   25.0280 C   0  0  1  0  0  0  0  0  0  0  0  0
  -25.3120  -31.5710   26.1260 C   0  0  0  0  0  1  0  0  0  0  0  0
  -26.9560  -30.4430   24.6250 C   0  0  0  0  0  1  0  0  0  0  0  0
  -27.5370  -32.6160   25.6620 C   0  0  0  0  0  1  0  0  0  0  0  0
  -25.5040  -33.9800   24.1190 N   0  0  0  0  0  0  0  0  0  0  0  0
  -25.8260  -35.0520   23.3820 C   0  0  0  0  0  0  0  0  0  0  0  0
  -26.4870  -34.9710   22.3440 O   0  0  0  0  0  0  0  0  0  0  0  0
  -24.9140  -34.1170   24.9260 H   0  0  0  0  0  0  0  0  0  0  0  0
  -24.0980  -36.8590   23.0840 C   0  0  0  0  0  1  0  0  0  0  0  0
  -25.3440  -36.4320   23.8760 C   0  0  0  0  0  3  0  0  0  0  0  0
  -27.4850  -37.2990   24.7060 C   0  0  0  0  0  1  0  0  0  0  0  0
  -26.3740  -37.4880   23.7780 N   0  0  0  0  0  0  0  0  0  0  0  0
  -25.9680  -38.4040   23.9530 H   0  0  0  0  0  0  0  0  0  0  0  0
  -29.1510  -18.0180   20.0030 C   0  0  0  0  0  3  0  0  0  0  0  0
  -30.5940  -15.3550   20.0700 C   0  0  0  0  0  0  0  0  0  0  0  0
  -30.3210  -12.9250   19.2610 C   0  0  0  0  0  2  0  0  0  0  0  0
  -29.3960  -12.7020   18.0510 C   0  0  0  0  0  2  0  0  0  0  0  0
  -27.9620  -12.4620   18.5400 C   0  0  0  0  0  2  0  0  0  0  0  0
  -27.5470  -13.4540   19.6620 C   0  0  0  0  0  3  0  0  0  0  0  0
  -28.6340  -13.6940   20.7390 C   0  0  0  0  0  2  0  0  0  0  0  0
  -29.8370  -14.1490   20.0210 N   0  0  0  0  0  0  0  0  0  0  0  0
  -31.7830  -15.0680   19.8730 O   0  0  0  0  0  0  0  0  0  0  0  0
  -30.2730  -16.8200   20.2170 N   0  0  0  0  0  0  0  0  0  0  0  0
  -25.2200  -13.9890   20.5380 C   0  0  0  0  0  0  0  0  0  0  0  0
  -24.1710  -13.2070   20.9270 C   0  0  0  0  0  0  0  0  0  0  0  0
  -24.6290  -11.8550   20.8450 C   0  0  0  0  0  0  0  0  0  0  0  0
  -26.2480  -13.1190   20.2310 N   0  0  0  0  0  0  0  0  0  0  0  0
  -25.9100  -11.8260   20.4850 N   0  0  0  0  0  0  0  0  0  0  0  0
  -23.9020  -10.5920   21.0310 C   0  0  0  0  0  0  0  0  0  0  0  0
  -24.3500   -9.6060   21.9370 C   0  0  0  0  0  3  0  0  0  0  0  0
  -23.6170   -8.4130   22.1170 C   0  0  0  0  0  3  0  0  0  0  0  0
  -22.4240   -8.1960   21.3890 C   0  0  0  0  0  0  0  0  0  0  0  0
  -21.9940   -9.1690   20.4710 C   0  0  0  0  0  3  0  0  0  0  0  0
  -22.7270  -10.3540   20.2890 C   0  0  0  0  0  3  0  0  0  0  0  0
  -21.6620   -7.0540   21.4770 O   0  0  0  0  0  0  0  0  0  0  0  0
  -21.6210   -6.3030   22.6240 C   0  0  0  0  0  0  0  0  0  0  0  0
  -21.2280   -6.8540   23.8630 C   0  0  0  0  0  3  0  0  0  0  0  0
  -21.1350   -6.0310   25.0030 C   0  0  0  0  0  3  0  0  0  0  0  0
  -21.4240   -4.6580   24.9050 C   0  0  0  0  0  0  0  0  0  0  0  0
  -21.8090   -4.1030   23.6720 C   0  0  0  0  0  3  0  0  0  0  0  0
  -21.9050   -4.9250   22.5330 C   0  0  0  0  0  0  0  0  0  0  0  0
  -22.2570   -4.3820   21.3440 F   0  0  0  0  0  0  0  0  0  0  0  0
  -21.3260   -3.8650   25.9990 F   0  0  0  0  0  0  0  0  0  0  0  0
  -22.7860  -13.6860   21.2490 C   0  0  0  0  0  0  0  0  0  0  0  0
  -22.0910  -12.9900   22.1410 N   0  0  0  0  0  0  0  0  0  0  0  0
  -22.3330  -14.7140   20.7490 O   0  0  0  0  0  0  0  0  0  0  0  0
  -22.4750  -12.1630   22.5730 H   0  0  0  0  0  0  0  0  0  0  0  0
  -21.1620  -13.2900   22.3950 H   0  0  0  0  0  0  0  0  0  0  0  0
  -25.3780  -15.3650   20.3910 N   0  0  0  0  0  0  0  0  0  0  0  0
  -24.6150  -16.0120   20.5600 H   0  0  0  0  0  0  0  0  0  0  0  0
  -26.2180  -15.8190   20.0550 H   0  0  0  0  0  0  0  0  0  0  0  0
  -31.5130  -17.6230   20.4500 C   0  0  0  0  0  2  0  0  0  0  0  0
  -31.4730  -18.4080   21.7710 C   0  0  0  0  0  2  0  0  0  0  0  0
  -32.5030  -19.5590   21.8010 C   0  0  0  0  0  2  0  0  0  0  0  0
  -32.4670  -20.3040   23.0700 N   0  0  0  0  0  4  0  0  0  0  0  0
  -31.6000  -20.7990   23.1750 H   0  0  0  0  0  0  0  0  0  0  0  0
  -33.2150  -20.9750   23.0980 H   0  0  0  0  0  0  0  0  0  0  0  0
  -32.5820  -19.6820   23.8500 H   0  0  0  0  0  0  0  0  0  0  0  0
  2  3  1  0
  2  1  1  0
  4  5  1  0
  4  3  2  0
  6 17  2  0
  7  5  1  0
  7 12  1  0
  8 16  1  0
  8 18  1  0
  9 15  1  0
  9 11  1  0
 10 16  1  0
 11 10  1  0
 12 11  2  0
 13 14  1  0
 13  7  2  0
 14  9  2  0
 15  8  1  0
 16  6  1  0
 18 20  2  0
 19 18  1  0
 21 19  1  0
 22 31  2  0
 22 27  1  0
 23 19  1  0
 23 27  1  0
 24 23  1  0
 25 26  1  0
 25 24  1  0
 26 22  1  0
 27 28  2  0
 28 29  1  0
 30 29  2  0
 31 30  1  0
 32  6  1  0
 32 37  1  0
 32 33  1  0
 33 36  1  1
 33 34  1  0
 35 33  1  0
 37 40  1  0
 38 42  1  0
 38 37  1  0
 39 38  2  0
 42 41  1  0
 44 42  1  0
 44 45  1  0
 44 43  1  0
 46  1  2  0
 46 55  1  0
 47 55  1  0
 48 53  1  0
 49 50  1  0
 49 48  1  0
 51 50  1  0
 51 59  1  0
 51 52  1  0
 53 47  1  0
 53 52  1  0
 54 47  2  0
 55 84  1  0
 56 57  2  0
 57 76  1  0
 58 57  1  0
 58 61  1  0
 59 60  1  0
 59 56  1  0
 60 58  2  0
 61 62  1  0
 62 63  2  0
 64 67  1  0
 64 63  1  0
 65 64  2  0
 66 65  1  0
 66 61  2  0
 67 68  1  0
 68 69  1  0
 69 70  2  0
 71 70  1  0
 71 75  1  0
 72 71  2  0
 73 68  2  0
 73 72  1  0
 74 73  1  0
 76 77  1  0
 77 80  1  0
 77 79  1  0
 78 76  2  0
 81 56  1  0
 81 82  1  0
 83 81  1  0
 84 85  1  0
 85 86  1  0
 86 87  1  0
 87 89  1  0
 87 88  1  0
 87 90  1  0
M  ISO  4   4 101   5 101  47 100  55 100
M  END
>  <TORSDO>  (14) 
F 24

>  <SCORE>  (14) 
-14.430

>  <name>  (14) 
13

>  <ligand_id>  (14) 
13

>  <original_smiles>  (14) 
[H]c1c([H])c([H])c2c(c1[H])C([H])([H])C([H])([H])C([H])([H])C2([H])N([H])C(=O)C1([H])N(C(=O)C([H])(N([H])C(=O)C([H])(N([H])C([H])([H])[H])C([H])([H])[H])C(C([H])([H])[H])(C([H])([H])[H])C([H])([H])[H])C([H])([H])c2c([H])c(OC([H])([H])C([H])([H])C([H])([H])C([H])([H])C([H])([H])N(C(=O)N3C([H])([H])C([H])([H])C([H])([H])C([H])(n4nc(-c5c([H])c([H])c(Oc6c([H])c([H])c(F)c([H])c6F)c([H])c5[H])c(C(=O)N([H])[H])c4N([H])[H])C3([H])[H])C([H])([H])C([H])([H])C([H])([H])[N+]([H])([H])[H])c([H])c([H])c2C1([H])[H]

>  <smiles>  (14) 
[H]c1c([H])c([H])c2c(c1[H])C([H])([H])C([H])([H])C([H])([H])C2([H])N([H])C(=O)C1([H])N(C(=O)C([H])(N([H])C(=O)C([H])(N([H])C([H])([H])[H])C([H])([H])[H])C(C([H])([H])[H])(C([H])([H])[H])C([H])([H])[H])C([H])([H])c2c([H])c(OC([H])([H])C([H])([H])C([H])([H])C([H])([H])C([H])([H])N(C(=O)N3C([H])([H])C([H])([H])C([H])([H])C([H])(n4nc(-c5c([H])c([H])c(Oc6c([H])c([H])c(F)c([H])c6F)c([H])c5[H])c(C(=O)N([H])[H])c4N([H])[H])C3([H])[H])C([H])([H])C([H])([H])C([H])([H])[N+]([H])([H])[H])c([H])c([H])c2C1([H])[H]

$$$$
14:0:0
     RDKit          3D

 86 94  0  0  1  0  0  0  0  0999 V2000
  -31.1700  -20.9320   20.4430 C   0  0  0  0  0  3  0  0  0  0  0  0
  -30.2760  -22.0570   20.4060 C   0  0  0  0  0  3  0  0  0  0  0  0
  -30.8430  -19.5330   20.3890 C   0  0  0  0  0  3  0  0  0  0  0  0
  -28.5970  -20.3530   20.2540 C   0  0  0  0  0  3  0  0  0  0  0  0
  -28.8660  -21.9710   20.3050 C   0  0  0  0  0  0  0  0  0  0  0  0
  -29.5320  -19.0050   20.2890 C   0  0  0  0  0  0  0  0  0  0  0  0
  -30.1920  -15.8550   20.2000 C   0  0  0  0  0  0  0  0  0  0  0  0
  -30.3410  -13.2850   19.3630 C   0  0  0  0  0  2  0  0  0  0  0  0
  -29.4560  -12.8160   18.1690 C   0  0  0  0  0  2  0  0  0  0  0  0
  -28.0490  -12.4220   18.6400 C   0  0  0  0  0  2  0  0  0  0  0  0
  -27.5220  -13.4180   19.6950 C   0  0  0  0  0  3  0  0  0  0  0  0
  -28.5540  -13.7840   20.7920 C   0  0  0  0  0  2  0  0  0  0  0  0
  -29.6910  -14.4650   20.1150 N   0  0  0  0  0  0  0  0  0  0  0  0
  -31.4300  -15.7760   20.0400 O   0  0  0  0  0  0  0  0  0  0  0  0
  -29.4130  -17.2430   20.2600 N   0  0  0  0  0  0  0  0  0  0  0  0
  -28.4360  -16.9880   20.2920 H   0  0  0  0  0  0  0  0  0  0  0  0
  -25.1650  -13.9080   20.4880 C   0  0  0  0  0  0  0  0  0  0  0  0
  -24.1200  -13.1120   20.8580 C   0  0  0  0  0  0  0  0  0  0  0  0
  -24.6060  -11.7690   20.8140 C   0  0  0  0  0  0  0  0  0  0  0  0
  -26.2190  -13.0530   20.2290 N   0  0  0  0  0  0  0  0  0  0  0  0
  -25.8990  -11.7570   20.4910 N   0  0  0  0  0  0  0  0  0  0  0  0
  -23.8950  -10.4960   20.9990 C   0  0  0  0  0  0  0  0  0  0  0  0
  -24.3210   -9.5410   21.9480 C   0  0  0  0  0  3  0  0  0  0  0  0
  -23.6030   -8.3370   22.1240 C   0  0  0  0  0  3  0  0  0  0  0  0
  -22.4450   -8.0810   21.3530 C   0  0  0  0  0  0  0  0  0  0  0  0
  -22.0370   -9.0260   20.3930 C   0  0  0  0  0  3  0  0  0  0  0  0
  -22.7560  -10.2200   20.2160 C   0  0  0  0  0  3  0  0  0  0  0  0
  -21.7000   -6.9290   21.4370 O   0  0  0  0  0  0  0  0  0  0  0  0
  -21.6170   -6.2090   22.6020 C   0  0  0  0  0  0  0  0  0  0  0  0
  -21.1080   -6.7740   23.7910 C   0  0  0  0  0  3  0  0  0  0  0  0
  -20.9740   -5.9790   24.9470 C   0  0  0  0  0  3  0  0  0  0  0  0
  -21.3410   -4.6210   24.9140 C   0  0  0  0  0  0  0  0  0  0  0  0
  -21.8440   -4.0550   23.7290 C   0  0  0  0  0  3  0  0  0  0  0  0
  -21.9780   -4.8470   22.5760 C   0  0  0  0  0  0  0  0  0  0  0  0
  -22.4430   -4.2910   21.4310 F   0  0  0  0  0  0  0  0  0  0  0  0
  -21.2070   -3.8540   26.0220 F   0  0  0  0  0  0  0  0  0  0  0  0
  -22.7170  -13.5690   21.1330 C   0  0  0  0  0  0  0  0  0  0  0  0
  -22.0030  -12.8670   22.0040 N   0  0  0  0  0  0  0  0  0  0  0  0
  -22.2660  -14.5890   20.6110 O   0  0  0  0  0  0  0  0  0  0  0  0
  -22.3830  -12.0440   22.4480 H   0  0  0  0  0  0  0  0  0  0  0  0
  -21.0620  -13.1570   22.2300 H   0  0  0  0  0  0  0  0  0  0  0  0
  -25.3030  -15.2820   20.3150 N   0  0  0  0  0  0  0  0  0  0  0  0
  -24.5210  -15.9180   20.4310 H   0  0  0  0  0  0  0  0  0  0  0  0
  -26.1290  -15.7320   19.9470 H   0  0  0  0  0  0  0  0  0  0  0  0
  -27.9040  -23.6280   20.2440 C   0  0  0  0  0  2  0  0  0  0  0  0
  -28.1320  -25.4200   20.3730 O   0  0  0  0  0  0  0  0  0  0  0  0
  -24.6750  -31.8720   23.2620 C   0  0  0  0  0  0  0  0  0  0  0  0
  -27.1850  -26.6880   20.3150 C   0  0  0  0  0  0  0  0  0  0  0  0
  -23.4950  -30.4780   21.6190 C   0  0  0  0  0  3  0  0  0  0  0  0
  -24.9430  -28.7980   20.2290 C   0  0  0  0  0  0  0  0  0  0  0  0
  -26.0790  -30.5740   21.5310 C   0  0  0  0  0  2  0  0  0  0  0  0
  -26.1380  -29.1300   20.8780 C   0  0  0  0  0  0  0  0  0  0  0  0
  -27.2390  -28.1060   20.8840 C   0  0  0  0  0  3  0  0  0  0  0  0
  -25.9550  -26.5930   19.6070 C   0  0  0  0  0  3  0  0  0  0  0  0
  -24.8960  -27.5580   19.5690 C   0  0  0  0  0  3  0  0  0  0  0  0
  -23.7460  -29.7690   20.2550 C   0  0  0  0  0  2  0  0  0  0  0  0
  -24.7750  -31.0100   22.1900 N   0  0  0  0  0  0  0  0  0  0  0  0
  -23.5770  -32.1850   23.7580 O   0  0  0  0  0  0  0  0  0  0  0  0
  -22.7530  -29.5170   22.5880 C   0  0  0  0  0  0  0  0  0  0  0  0
  -21.4200  -29.3750   22.4510 N   0  0  0  0  0  0  0  0  0  0  0  0
  -23.3920  -28.8940   23.4400 O   0  0  0  0  0  0  0  0  0  0  0  0
  -20.9530  -29.9280   21.7440 H   0  0  0  0  0  0  0  0  0  0  0  0
  -18.0190  -28.1820   22.9320 C   0  0  0  0  0  0  0  0  0  0  0  0
  -20.5780  -28.4480   23.2190 C   0  0  0  0  0  3  0  0  0  0  0  0
  -20.6800  -27.0100   22.6570 C   0  0  0  0  0  2  0  0  0  0  0  0
  -19.5890  -26.6850   21.6310 C   0  0  0  0  0  2  0  0  0  0  0  0
  -18.2010  -26.8320   22.2590 C   0  0  0  0  0  2  0  0  0  0  0  0
  -19.1330  -28.9480   23.3680 C   0  0  0  0  0  0  0  0  0  0  0  0
  -18.9060  -30.2070   23.9630 C   0  0  0  0  0  3  0  0  0  0  0  0
  -17.5980  -30.7030   24.1240 C   0  0  0  0  0  3  0  0  0  0  0  0
  -16.4980  -29.9370   23.7000 C   0  0  0  0  0  3  0  0  0  0  0  0
  -16.7090  -28.6770   23.1110 C   0  0  0  0  0  3  0  0  0  0  0  0
  -25.9330  -32.5200   23.9170 C   0  0  0  0  0  3  0  0  0  0  0  0
  -25.6150  -33.9250   24.2440 N   0  0  0  0  0  0  0  0  0  0  0  0
  -25.9320  -34.9870   23.4900 C   0  0  0  0  0  0  0  0  0  0  0  0
  -26.5750  -34.8860   22.4430 O   0  0  0  0  0  0  0  0  0  0  0  0
  -25.0360  -34.0750   25.0570 H   0  0  0  0  0  0  0  0  0  0  0  0
  -24.1820  -36.7830   23.2210 C   0  0  0  0  0  1  0  0  0  0  0  0
  -25.4640  -36.3790   23.9670 C   0  0  0  0  0  3  0  0  0  0  0  0
  -27.6290  -37.2890   24.6910 C   0  0  0  0  0  1  0  0  0  0  0  0
  -26.4850  -37.4380   23.7970 N   0  0  0  0  0  0  0  0  0  0  0  0
  -26.0790  -38.3570   23.9500 H   0  0  0  0  0  0  0  0  0  0  0  0
  -26.4050  -31.7660   25.2230 C   0  0  1  0  0  0  0  0  0  0  0  0
  -25.2830  -31.5600   26.2680 C   0  0  0  0  0  1  0  0  0  0  0  0
  -26.9830  -30.3740   24.8840 C   0  0  0  0  0  1  0  0  0  0  0  0
  -27.5480  -32.5590   25.9010 C   0  0  0  0  0  1  0  0  0  0  0  0
  2  1  1  0
  3  1  2  0
  4  6  2  0
  4  5  1  0
  5  2  2  0
  6  3  1  0
  7 15  1  0
  8 13  1  0
  9 10  1  0
  9  8  1  0
 11 10  1  0
 11 20  1  0
 11 12  1  0
 13  7  1  0
 13 12  1  0
 14  7  2  0
 15  6  1  0
 15 16  1  0
 17 18  2  0
 18 37  1  0
 19 18  1  0
 19 22  1  0
 20 17  1  0
 20 21  1  0
 21 19  2  0
 22 23  1  0
 23 24  2  0
 25 28  1  0
 25 24  1  0
 26 25  2  0
 27 26  1  0
 27 22  2  0
 28 29  1  0
 29 30  1  0
 30 31  2  0
 32 31  1  0
 32 36  1  0
 33 32  2  0
 34 29  2  0
 34 33  1  0
 35 34  1  0
 37 38  1  0
 38 41  1  0
 38 40  1  0
 39 37  2  0
 42 43  1  0
 42 17  1  0
 44 42  1  0
 45  5  1  0
 45 46  1  0
 47 58  2  0
 48 46  1  0
 48 53  1  0
 49 57  1  0
 49 59  1  0
 50 56  1  0
 50 52  1  0
 51 57  1  0
 52 53  2  0
 52 51  1  0
 54 48  2  0
 55 54  1  0
 55 50  2  0
 56 49  1  0
 57 47  1  0
 59 61  2  0
 60 59  1  0
 62 60  1  0
 63 72  2  0
 63 68  1  0
 64 60  1  0
 64 68  1  0
 65 64  1  0
 66 67  1  0
 66 65  1  0
 67 63  1  0
 68 69  2  0
 69 70  1  0
 71 70  2  0
 72 71  1  0
 73 47  1  0
 73 74  1  0
 73 83  1  0
 74 77  1  0
 75 79  1  0
 75 74  1  0
 76 75  2  0
 79 78  1  0
 81 82  1  0
 81 79  1  0
 81 80  1  0
 83 86  1  1
 83 84  1  0
 85 83  1  0
M  ISO  4   7 100  15 100  45 101  46 101
M  END
>  <TORSDO>  (15) 
F 17

>  <SCORE>  (15) 
-16.516

>  <name>  (15) 
14

>  <ligand_id>  (15) 
14

>  <original_smiles>  (15) 
[H]c1c([H])c(N([H])C(=O)N2C([H])([H])C([H])([H])C([H])([H])C([H])(n3nc(-c4c([H])c([H])c(Oc5c([H])c([H])c(F)c([H])c5F)c([H])c4[H])c(C(=O)N([H])[H])c3N([H])[H])C2([H])[H])c([H])c(C([H])([H])Oc2c([H])c([H])c3c(c2[H])C([H])([H])N(C(=O)C([H])(N([H])C(=O)C([H])(N([H])C([H])([H])[H])C([H])([H])[H])C(C([H])([H])[H])(C([H])([H])[H])C([H])([H])[H])C([H])(C(=O)N([H])C2([H])c4c([H])c([H])c([H])c([H])c4C([H])([H])C([H])([H])C2([H])[H])C3([H])[H])c1[H]

>  <smiles>  (15) 
[H]c1c([H])c(N([H])C(=O)N2C([H])([H])C([H])([H])C([H])([H])C([H])(n3nc(-c4c([H])c([H])c(Oc5c([H])c([H])c(F)c([H])c5F)c([H])c4[H])c(C(=O)N([H])[H])c3N([H])[H])C2([H])[H])c([H])c(C([H])([H])Oc2c([H])c([H])c3c(c2[H])C([H])([H])N(C(=O)C([H])(N([H])C(=O)C([H])(N([H])C([H])([H])[H])C([H])([H])[H])C(C([H])([H])[H])(C([H])([H])[H])C([H])([H])[H])C([H])(C(=O)N([H])C2([H])c4c([H])c([H])c([H])c([H])c4C([H])([H])C([H])([H])C2([H])[H])C3([H])[H])c1[H]

$$$$
15:0:0
     RDKit          3D

 82 86  0  0  1  0  0  0  0  0999 V2000
  -28.2030  -25.2140   20.1870 O   0  0  0  0  0  1  0  0  0  0  0  0
  -24.6590  -31.8230   23.1160 C   0  0  0  0  0  0  0  0  0  0  0  0
  -27.2270  -26.5180   20.2190 C   0  0  0  0  0  0  0  0  0  0  0  0
  -23.5030  -30.4040   21.4840 C   0  0  0  0  0  3  0  0  0  0  0  0
  -24.9680  -28.6960   20.1210 C   0  0  0  0  0  0  0  0  0  0  0  0
  -26.0920  -30.4850   21.4080 C   0  0  0  0  0  2  0  0  0  0  0  0
  -26.1660  -29.0180   20.7700 C   0  0  0  0  0  0  0  0  0  0  0  0
  -27.2690  -27.9690   20.7710 C   0  0  0  0  0  3  0  0  0  0  0  0
  -25.9850  -26.4690   19.5130 C   0  0  0  0  0  3  0  0  0  0  0  0
  -24.9320  -27.4500   19.4670 C   0  0  0  0  0  3  0  0  0  0  0  0
  -23.7680  -29.6710   20.1330 C   0  0  0  0  0  2  0  0  0  0  0  0
  -24.7790  -30.9440   22.0540 N   0  0  0  0  0  0  0  0  0  0  0  0
  -23.5550  -32.1300   23.6020 O   0  0  0  0  0  0  0  0  0  0  0  0
  -22.7610  -29.4600   22.4680 C   0  0  0  0  0  0  0  0  0  0  0  0
  -21.4220  -29.3490   22.3610 N   0  0  0  0  0  0  0  0  0  0  0  0
  -23.4040  -28.8170   23.3000 O   0  0  0  0  0  0  0  0  0  0  0  0
  -20.9470  -29.9240   21.6780 H   0  0  0  0  0  0  0  0  0  0  0  0
  -18.0030  -28.1330   22.8590 C   0  0  0  0  0  0  0  0  0  0  0  0
  -20.5950  -28.3830   23.0970 C   0  0  0  0  0  0  0  0  0  0  0  0
  -20.7720  -26.9760   22.4620 C   0  0  0  0  0  3  0  0  0  0  0  0
  -19.5380  -26.4150   21.7220 C   0  0  0  0  0  3  0  0  0  0  0  0
  -18.0990  -26.8440   22.0560 C   0  0  0  0  0  3  0  0  0  0  0  0
  -19.1450  -28.8670   23.2920 C   0  0  0  0  0  0  0  0  0  0  0  0
  -18.9400  -30.1130   23.9270 C   0  0  0  0  0  3  0  0  0  0  0  0
  -17.6430  -30.6230   24.1300 C   0  0  0  0  0  3  0  0  0  0  0  0
  -16.5250  -29.8800   23.7210 C   0  0  0  0  0  3  0  0  0  0  0  0
  -16.7080  -28.6360   23.0960 C   0  0  0  0  0  3  0  0  0  0  0  0
  -25.9010  -32.4970   23.7720 C   0  0  0  0  0  3  0  0  0  0  0  0
  -25.5540  -33.8960   24.1020 N   0  0  0  0  0  0  0  0  0  0  0  0
  -25.8860  -34.9730   23.3740 C   0  0  0  0  0  0  0  0  0  0  0  0
  -26.5670  -34.8910   22.3500 O   0  0  0  0  0  0  0  0  0  0  0  0
  -24.9460  -34.0310   24.8960 H   0  0  0  0  0  0  0  0  0  0  0  0
  -24.1500  -36.7720   23.0460 C   0  0  0  0  0  1  0  0  0  0  0  0
  -25.3900  -36.3550   23.8530 C   0  0  0  0  0  3  0  0  0  0  0  0
  -27.5120  -37.2520   24.7100 C   0  0  0  0  0  1  0  0  0  0  0  0
  -26.4160  -37.4190   23.7590 N   0  0  0  0  0  0  0  0  0  0  0  0
  -26.0000  -38.3340   23.9110 H   0  0  0  0  0  0  0  0  0  0  0  0
  -26.3860  -31.7540   25.0790 C   0  0  1  0  0  0  0  0  0  0  0  0
  -25.2660  -31.5290   26.1240 C   0  0  0  0  0  1  0  0  0  0  0  0
  -26.9880  -30.3730   24.7440 C   0  0  0  0  0  1  0  0  0  0  0  0
  -27.5140  -32.5680   25.7560 C   0  0  0  0  0  1  0  0  0  0  0  0
  -28.2300  -23.3320   20.4390 C   0  0  0  0  0 15  0  0  0  0  0  0
  -28.7870  -21.3790   19.8640 C   0  0  0  0  0 15  0  0  0  0  0  0
  -29.3980  -19.4400   20.4120 C   0  0  0  0  0  1  0  0  0  0  0  0
  -30.1690  -16.0920   20.0360 C   0  0  0  0  0  0  0  0  0  0  0  0
  -30.3590  -13.4710   19.1990 C   0  0  0  0  0  2  0  0  0  0  0  0
  -29.4770  -12.8700   18.0550 C   0  0  0  0  0  2  0  0  0  0  0  0
  -28.1030  -12.4290   18.5740 C   0  0  0  0  0  2  0  0  0  0  0  0
  -27.5630  -13.4490   19.5940 C   0  0  0  0  0  3  0  0  0  0  0  0
  -28.6020  -13.9210   20.6470 C   0  0  0  0  0  2  0  0  0  0  0  0
  -29.6750  -14.6720   19.9180 N   0  0  0  0  0  0  0  0  0  0  0  0
  -31.4150  -15.9560   19.9590 O   0  0  0  0  0  0  0  0  0  0  0  0
  -29.4220  -17.5600   20.0550 N   0  0  0  0  0  0  0  0  0  0  0  0
  -28.4530  -17.3130   19.9040 H   0  0  0  0  0  0  0  0  0  0  0  0
  -25.2310  -13.9310   20.4500 C   0  0  0  0  0  0  0  0  0  0  0  0
  -24.1900  -13.1380   20.8360 C   0  0  0  0  0  0  0  0  0  0  0  0
  -24.6710  -11.7930   20.7770 C   0  0  0  0  0  0  0  0  0  0  0  0
  -26.2760  -13.0750   20.1660 N   0  0  0  0  0  0  0  0  0  0  0  0
  -25.9570  -11.7790   20.4270 N   0  0  0  0  0  0  0  0  0  0  0  0
  -23.9560  -10.5240   20.9740 C   0  0  0  0  0  0  0  0  0  0  0  0
  -24.4050   -9.5560   21.8990 C   0  0  0  0  0  3  0  0  0  0  0  0
  -23.6830   -8.3560   22.0890 C   0  0  0  0  0  3  0  0  0  0  0  0
  -22.4960   -8.1180   21.3550 C   0  0  0  0  0  0  0  0  0  0  0  0
  -22.0660   -9.0740   20.4200 C   0  0  0  0  0  3  0  0  0  0  0  0
  -22.7890  -10.2650   20.2280 C   0  0  0  0  0  3  0  0  0  0  0  0
  -21.7460   -6.9710   21.4550 O   0  0  0  0  0  0  0  0  0  0  0  0
  -21.7090   -6.2310   22.6100 C   0  0  0  0  0  0  0  0  0  0  0  0
  -21.2840   -6.7860   23.8360 C   0  0  0  0  0  3  0  0  0  0  0  0
  -21.1960   -5.9730   24.9840 C   0  0  0  0  0  3  0  0  0  0  0  0
  -21.5230   -4.6050   24.9060 C   0  0  0  0  0  0  0  0  0  0  0  0
  -21.9420   -4.0500   23.6840 C   0  0  0  0  0  3  0  0  0  0  0  0
  -22.0320   -4.8600   22.5390 C   0  0  0  0  0  0  0  0  0  0  0  0
  -22.4140   -4.3150   21.3590 F   0  0  0  0  0  0  0  0  0  0  0  0
  -21.4320   -3.8220   26.0060 F   0  0  0  0  0  0  0  0  0  0  0  0
  -22.7960  -13.6030   21.1400 C   0  0  0  0  0  0  0  0  0  0  0  0
  -22.0920  -12.8960   22.0160 N   0  0  0  0  0  0  0  0  0  0  0  0
  -22.3430  -14.6300   20.6380 O   0  0  0  0  0  0  0  0  0  0  0  0
  -22.4740  -12.0650   22.4440 H   0  0  0  0  0  0  0  0  0  0  0  0
  -21.1580  -13.1890   22.2630 H   0  0  0  0  0  0  0  0  0  0  0  0
  -25.3710  -15.3060   20.2780 N   0  0  0  0  0  0  0  0  0  0  0  0
  -24.5980  -15.9490   20.4140 H   0  0  0  0  0  0  0  0  0  0  0  0
  -26.2020  -15.7550   19.9170 H   0  0  0  0  0  0  0  0  0  0  0  0
  1  3  1  0
  2 13  2  0
  3  8  1  0
  4 12  1  0
  4 14  1  0
  5 11  1  0
  5  7  1  0
  6 12  1  0
  7  8  2  0
  7  6  1  0
  9  3  2  0
 10  9  1  0
 10  5  2  0
 11  4  1  0
 12  2  1  0
 14 16  2  0
 15 14  1  0
 15 19  1  0
 17 15  1  0
 18 27  2  0
 18 23  1  0
 19 23  1  0
 20 19  2  0
 21 22  2  0
 21 20  1  0
 22 18  1  0
 23 24  2  0
 24 25  1  0
 26 25  2  0
 27 26  1  0
 28  2  1  0
 28 29  1  0
 28 38  1  0
 29 32  1  0
 30 34  1  0
 30 29  1  0
 31 30  2  0
 34 33  1  0
 36 34  1  0
 36 37  1  0
 36 35  1  0
 38 41  1  1
 38 39  1  0
 40 38  1  0
 45 53  1  0
 46 51  1  0
 47 48  1  0
 47 46  1  0
 49 48  1  0
 49 58  1  0
 49 50  1  0
 51 45  1  0
 51 50  1  0
 52 45  2  0
 53 44  1  0
 54 53  1  0
 55 56  2  0
 56 75  1  0
 57 56  1  0
 57 60  1  0
 58 59  1  0
 58 55  1  0
 59 57  2  0
 60 61  1  0
 61 62  2  0
 63 66  1  0
 63 62  1  0
 64 63  2  0
 65 64  1  0
 65 60  2  0
 66 67  1  0
 67 68  1  0
 68 69  2  0
 70 69  1  0
 70 74  1  0
 71 70  2  0
 72 67  2  0
 72 71  1  0
 73 72  1  0
 75 76  1  0
 76 79  1  0
 76 78  1  0
 77 75  2  0
 80 81  1  0
 80 55  1  0
 82 80  1  0
M  ISO  4   1 101  42 101  45 100  53 100
M  END
>  <TORSDO>  (16) 
F 18

>  <SCORE>  (16) 
-16.165

>  <name>  (16) 
15

>  <ligand_id>  (16) 
15

>  <original_smiles>  (16) 
[H]c1c([H])c([H])c2c(c1[H])C([H])([H])C([H])([H])C([H])([H])C2([H])N([H])C(=O)C1([H])N(C(=O)C([H])(N([H])C(=O)C([H])(N([H])C([H])([H])[H])C([H])([H])[H])C(C([H])([H])[H])(C([H])([H])[H])C([H])([H])[H])C([H])([H])c2c([H])c(OC([H])([H])C([H])([H])C([H])([H])N([H])C(=O)N3C([H])([H])C([H])([H])C([H])([H])C([H])(n4nc(-c5c([H])c([H])c(Oc6c([H])c([H])c(F)c([H])c6F)c([H])c5[H])c(C(=O)N([H])[H])c4N([H])[H])C3([H])[H])c([H])c([H])c2C1([H])[H]

>  <smiles>  (16) 
[H]c1c([H])c([H])c2c(c1[H])C([H])([H])C([H])([H])C([H])([H])C2([H])N([H])C(=O)C1([H])N(C(=O)C([H])(N([H])C(=O)C([H])(N([H])C([H])([H])[H])C([H])([H])[H])C(C([H])([H])[H])(C([H])([H])[H])C([H])([H])[H])C([H])([H])c2c([H])c(OC([H])([H])C([H])([H])C([H])([H])N([H])C(=O)N3C([H])([H])C([H])([H])C([H])([H])C([H])(n4nc(-c5c([H])c([H])c(Oc6c([H])c([H])c(F)c([H])c6F)c([H])c5[H])c(C(=O)N([H])[H])c4N([H])[H])C3([H])[H])c([H])c([H])c2C1([H])[H]

$$$$
16:0:0
     RDKit          3D

 94102  0  0  1  0  0  0  0  0999 V2000
  -30.9190  -24.0330   20.5430 C   0  0  0  0  0  3  0  0  0  0  0  0
  -29.0340  -23.6810   22.0180 C   0  0  0  0  0  3  0  0  0  0  0  0
  -30.3390  -25.2530   20.1200 C   0  0  0  0  0  3  0  0  0  0  0  0
  -28.4470  -24.9080   21.5880 C   0  0  0  0  0  3  0  0  0  0  0  0
  -30.2670  -23.2200   21.4890 C   0  0  0  0  0  0  0  0  0  0  0  0
  -29.0900  -25.7140   20.6130 C   0  0  0  0  0  0  0  0  0  0  0  0
  -28.6410  -26.9420   20.1160 O   0  0  0  0  0  0  0  0  0  0  0  0
  -24.5160  -31.8700   23.3160 C   0  0  0  0  0  0  0  0  0  0  0  0
  -27.3910  -27.5350   20.2640 C   0  0  0  0  0  0  0  0  0  0  0  0
  -23.3900  -30.4640   21.6180 C   0  0  0  0  0  3  0  0  0  0  0  0
  -24.9290  -28.9730   20.2240 C   0  0  0  0  0  0  0  0  0  0  0  0
  -25.9080  -30.8980   21.4820 C   0  0  0  0  0  2  0  0  0  0  0  0
  -26.0550  -29.5280   20.8430 C   0  0  0  0  0  0  0  0  0  0  0  0
  -27.2870  -28.8220   20.8480 C   0  0  0  0  0  3  0  0  0  0  0  0
  -26.2430  -26.9930   19.6420 C   0  0  0  0  0  3  0  0  0  0  0  0
  -25.0170  -27.7030   19.6220 C   0  0  0  0  0  3  0  0  0  0  0  0
  -23.6610  -29.8080   20.2370 C   0  0  0  0  0  2  0  0  0  0  0  0
  -24.6200  -31.0970   22.1970 N   0  0  0  0  0  0  0  0  0  0  0  0
  -23.4170  -32.0990   23.8410 O   0  0  0  0  0  0  0  0  0  0  0  0
  -22.7430  -29.4130   22.5480 C   0  0  0  0  0  0  0  0  0  0  0  0
  -21.4300  -29.1830   22.3770 N   0  0  0  0  0  0  0  0  0  0  0  0
  -23.4210  -28.8060   23.3810 O   0  0  0  0  0  0  0  0  0  0  0  0
  -20.9400  -29.7300   21.6810 H   0  0  0  0  0  0  0  0  0  0  0  0
  -18.0990  -27.8130   22.7180 C   0  0  0  0  0  0  0  0  0  0  0  0
  -20.6260  -28.2050   23.1090 C   0  0  0  0  0  3  0  0  0  0  0  0
  -20.8290  -26.7810   22.5440 C   0  0  0  0  0  2  0  0  0  0  0  0
  -19.7930  -26.4000   21.4810 C   0  0  0  0  0  2  0  0  0  0  0  0
  -18.3770  -26.4740   22.0600 C   0  0  0  0  0  2  0  0  0  0  0  0
  -19.1550  -28.6330   23.1990 C   0  0  0  0  0  0  0  0  0  0  0  0
  -18.8430  -29.8830   23.7780 C   0  0  0  0  0  3  0  0  0  0  0  0
  -17.5080  -30.3170   23.8770 C   0  0  0  0  0  3  0  0  0  0  0  0
  -16.4660  -29.4970   23.4130 C   0  0  0  0  0  3  0  0  0  0  0  0
  -16.7630  -28.2470   22.8400 C   0  0  0  0  0  3  0  0  0  0  0  0
  -25.7720  -32.5240   23.9750 C   0  0  0  0  0  3  0  0  0  0  0  0
  -25.4500  -33.9330   24.2430 N   0  0  0  0  0  0  0  0  0  0  0  0
  -25.8130  -34.9560   23.4540 C   0  0  0  0  0  0  0  0  0  0  0  0
  -26.5230  -34.8140   22.4530 O   0  0  0  0  0  0  0  0  0  0  0  0
  -24.8190  -34.1170   25.0070 H   0  0  0  0  0  0  0  0  0  0  0  0
  -24.0930  -36.7260   22.9760 C   0  0  0  0  0  1  0  0  0  0  0  0
  -25.3110  -36.3600   23.8400 C   0  0  0  0  0  3  0  0  0  0  0  0
  -27.4170  -37.2900   24.6960 C   0  0  0  0  0  1  0  0  0  0  0  0
  -26.3440  -37.4120   23.7140 N   0  0  0  0  0  0  0  0  0  0  0  0
  -25.9280  -38.3340   23.8140 H   0  0  0  0  0  0  0  0  0  0  0  0
  -26.2350  -31.7960   25.2960 C   0  0  1  0  0  0  0  0  0  0  0  0
  -25.1010  -31.5830   26.3220 C   0  0  0  0  0  1  0  0  0  0  0  0
  -26.8320  -30.4080   24.9670 C   0  0  0  0  0  1  0  0  0  0  0  0
  -27.3540  -32.6130   25.9820 C   0  0  0  0  0  1  0  0  0  0  0  0
  -30.9340  -21.9160   21.9780 C   0  0  0  0  0  2  0  0  0  0  0  0
  -30.9460  -20.8360   21.0230 O   0  0  0  0  0  0  0  0  0  0  0  0
  -32.1880  -20.6230   20.3260 C   0  0  0  0  0  2  0  0  0  0  0  0
  -32.8990  -19.2580   20.5790 C   0  0  0  0  0  2  0  0  0  0  0  0
  -32.2010  -17.9190   20.1830 C   0  0  0  0  0  2  0  0  0  0  0  0
  -30.7370  -14.5710   19.8980 C   0  0  0  0  0  0  0  0  0  0  0  0
  -30.5190  -12.2920   18.9050 C   0  0  0  0  0  2  0  0  0  0  0  0
  -29.4960  -12.3190   17.7460 C   0  0  0  0  0  2  0  0  0  0  0  0
  -28.0450  -12.1780   18.2610 C   0  0  0  0  0  2  0  0  0  0  0  0
  -27.7400  -13.1350   19.4420 C   0  0  0  0  0  3  0  0  0  0  0  0
  -28.8540  -13.0080   20.5110 C   0  0  0  0  0  2  0  0  0  0  0  0
  -30.1440  -13.3390   19.8660 N   0  0  0  0  0  0  0  0  0  0  0  0
  -31.8090  -14.8490   19.3470 O   0  0  0  0  0  0  0  0  0  0  0  0
  -29.8540  -16.9180   20.6990 C   0  0  0  0  0  3  0  0  0  0  0  0
  -28.5090  -17.4310   21.1290 C   0  0  0  0  0  1  0  0  0  0  0  0
  -29.8690  -15.5670   20.4920 N   0  0  0  0  0  0  0  0  0  0  0  0
  -30.7930  -17.8940   20.5840 N   0  0  0  0  0  0  0  0  0  0  0  0
  -29.0000  -15.2000   20.8360 H   0  0  0  0  0  0  0  0  0  0  0  0
  -30.4890  -18.8080   20.9060 H   0  0  0  0  0  0  0  0  0  0  0  0
  -25.4100  -13.8170   20.3100 C   0  0  0  0  0  0  0  0  0  0  0  0
  -24.3460  -13.0840   20.7580 C   0  0  0  0  0  0  0  0  0  0  0  0
  -24.7590  -11.7160   20.6860 C   0  0  0  0  0  0  0  0  0  0  0  0
  -26.4090  -12.9060   20.0040 N   0  0  0  0  0  0  0  0  0  0  0  0
  -26.0210  -11.6360   20.2820 N   0  0  0  0  0  0  0  0  0  0  0  0
  -24.0090  -10.4740   20.9220 C   0  0  0  0  0  0  0  0  0  0  0  0
  -24.4640   -9.5010   21.8400 C   0  0  0  0  0  3  0  0  0  0  0  0
  -23.7170   -8.3240   22.0630 C   0  0  0  0  0  3  0  0  0  0  0  0
  -22.5030   -8.1110   21.3700 C   0  0  0  0  0  0  0  0  0  0  0  0
  -22.0630   -9.0760   20.4470 C   0  0  0  0  0  3  0  0  0  0  0  0
  -22.8100  -10.2440   20.2220 C   0  0  0  0  0  3  0  0  0  0  0  0
  -21.7260   -6.9870   21.5010 O   0  0  0  0  0  0  0  0  0  0  0  0
  -21.6940   -6.2690   22.6690 C   0  0  0  0  0  0  0  0  0  0  0  0
  -21.3120   -6.8570   23.8960 C   0  0  0  0  0  3  0  0  0  0  0  0
  -21.2300   -6.0660   25.0580 C   0  0  0  0  0  3  0  0  0  0  0  0
  -21.5120   -4.6880   24.9970 C   0  0  0  0  0  0  0  0  0  0  0  0
  -21.8890   -4.1020   23.7760 C   0  0  0  0  0  3  0  0  0  0  0  0
  -21.9770   -4.8890   22.6160 C   0  0  0  0  0  0  0  0  0  0  0  0
  -22.3190   -4.3150   21.4370 F   0  0  0  0  0  0  0  0  0  0  0  0
  -21.4240   -3.9260   26.1120 F   0  0  0  0  0  0  0  0  0  0  0  0
  -22.9860  -13.6050   21.1270 C   0  0  0  0  0  0  0  0  0  0  0  0
  -22.3020  -12.9470   22.0520 N   0  0  0  0  0  0  0  0  0  0  0  0
  -22.5400  -14.6360   20.6210 O   0  0  0  0  0  0  0  0  0  0  0  0
  -22.6670  -12.1140   22.4870 H   0  0  0  0  0  0  0  0  0  0  0  0
  -21.3980  -13.2910   22.3370 H   0  0  0  0  0  0  0  0  0  0  0  0
  -25.6010  -15.1820   20.1110 N   0  0  0  0  0  0  0  0  0  0  0  0
  -24.7880  -15.7840   20.1460 H   0  0  0  0  0  0  0  0  0  0  0  0
  -26.2850  -15.5070   19.4400 H   0  0  0  0  0  0  0  0  0  0  0  0
  1  5  1  0
  3  1  2  0
  3  6  1  0
  4  2  1  0
  5 48  1  0
  5  2  2  0
  6  4  2  0
  7  9  1  0
  7  6  1  0
  8 19  2  0
  9 14  1  0
 10 18  1  0
 10 20  1  0
 11 17  1  0
 11 13  1  0
 12 18  1  0
 13 14  2  0
 13 12  1  0
 15  9  2  0
 16 15  1  0
 16 11  2  0
 17 10  1  0
 18  8  1  0
 20 22  2  0
 21 20  1  0
 23 21  1  0
 24 33  2  0
 24 29  1  0
 25 21  1  0
 25 29  1  0
 26 25  1  0
 27 28  1  0
 27 26  1  0
 28 24  1  0
 29 30  2  0
 30 31  1  0
 32 31  2  0
 33 32  1  0
 34  8  1  0
 34 35  1  0
 34 44  1  0
 35 38  1  0
 36 40  1  0
 36 35  1  0
 37 36  2  0
 40 39  1  0
 42 43  1  0
 42 40  1  0
 42 41  1  0
 44 47  1  1
 44 45  1  0
 46 44  1  0
 49 48  1  0
 50 51  1  0
 50 49  1  0
 52 51  1  0
 52 64  1  0
 53 63  1  0
 54 59  1  0
 55 56  1  0
 55 54  1  0
 57 56  1  0
 57 70  1  0
 57 58  1  0
 59 53  1  0
 59 58  1  0
 60 53  2  0
 61 62  1  0
 63 61  1  0
 63 65  1  0
 64 61  1  0
 64 66  1  0
 67 68  2  0
 68 87  1  0
 69 68  1  0
 69 72  1  0
 70 71  1  0
 70 67  1  0
 71 69  2  0
 72 73  1  0
 73 74  2  0
 75 78  1  0
 75 74  1  0
 76 75  2  0
 77 76  1  0
 77 72  2  0
 78 79  1  0
 79 80  1  0
 80 81  2  0
 82 81  1  0
 82 86  1  0
 83 82  2  0
 84 79  2  0
 84 83  1  0
 85 84  1  0
 87 88  1  0
 88 91  1  0
 88 90  1  0
 89 87  2  0
 92 93  1  0
 92 67  1  0
 94 92  1  0
M  ISO  4   6 101   7 101  53 100  63 100
M  END
>  <TORSDO>  (17) 
F 21

>  <SCORE>  (17) 
-13.037

>  <name>  (17) 
16

>  <ligand_id>  (17) 
16

>  <original_smiles>  (17) 
[H]c1c([H])c([H])c2c(c1[H])C([H])([H])C([H])([H])C([H])([H])C2([H])N([H])C(=O)C1([H])N(C(=O)C([H])(N([H])C(=O)C([H])(N([H])C([H])([H])[H])C([H])([H])[H])C(C([H])([H])[H])(C([H])([H])[H])C([H])([H])[H])C([H])([H])c2c([H])c(Oc3c([H])c([H])c(C([H])([H])OC([H])([H])C([H])([H])C([H])([H])[N+]([H])=C(N([H])C(=O)N4C([H])([H])C([H])([H])C([H])([H])C([H])(n5nc(-c6c([H])c([H])c(Oc7c([H])c([H])c(F)c([H])c7F)c([H])c6[H])c(C(=O)N([H])[H])c5N([H])[H])C4([H])[H])C([H])([H])[H])c([H])c3[H])c([H])c([H])c2C1([H])[H]

>  <smiles>  (17) 
[H]c1c([H])c([H])c2c(c1[H])C([H])([H])C([H])([H])C([H])([H])C2([H])N([H])C(=O)C1([H])N(C(=O)C([H])(N([H])C(=O)C([H])(N([H])C([H])([H])[H])C([H])([H])[H])C(C([H])([H])[H])(C([H])([H])[H])C([H])([H])[H])C([H])([H])c2c([H])c(Oc3c([H])c([H])c(C([H])([H])OC([H])([H])C([H])([H])C([H])([H])[N+]([H])=C(N([H])C(=O)N4C([H])([H])C([H])([H])C([H])([H])C([H])(n5nc(-c6c([H])c([H])c(Oc7c([H])c([H])c(F)c([H])c7F)c([H])c6[H])c(C(=O)N([H])[H])c5N([H])[H])C4([H])[H])C([H])([H])[H])c([H])c3[H])c([H])c([H])c2C1([H])[H]

$$$$
17:0:0
     RDKit          3D

 83 90  0  0  1  0  0  0  0  0999 V2000
  -27.9490  -23.9120   20.2000 C   0  0  0  0  0  3  0  0  0  0  0  0
  -28.1500  -25.6420   20.2980 O   0  0  0  0  0  0  0  0  0  0  0  0
  -24.6720  -31.8880   23.2420 C   0  0  0  0  0  0  0  0  0  0  0  0
  -27.1710  -26.8340   20.2470 C   0  0  0  0  0  0  0  0  0  0  0  0
  -23.4710  -30.4970   21.6080 C   0  0  0  0  0  3  0  0  0  0  0  0
  -24.9060  -28.8480   20.1930 C   0  0  0  0  0  0  0  0  0  0  0  0
  -26.0490  -30.6390   21.4750 C   0  0  0  0  0  2  0  0  0  0  0  0
  -26.1040  -29.2100   20.8200 C   0  0  0  0  0  0  0  0  0  0  0  0
  -27.2230  -28.2300   20.8150 C   0  0  0  0  0  3  0  0  0  0  0  0
  -25.9390  -26.6690   19.5680 C   0  0  0  0  0  3  0  0  0  0  0  0
  -24.8600  -27.6020   19.5430 C   0  0  0  0  0  3  0  0  0  0  0  0
  -23.7020  -29.8000   20.2370 C   0  0  0  0  0  2  0  0  0  0  0  0
  -24.7550  -31.0400   22.1610 N   0  0  0  0  0  0  0  0  0  0  0  0
  -23.5830  -32.1920   23.7560 O   0  0  0  0  0  0  0  0  0  0  0  0
  -22.7560  -29.5220   22.5800 C   0  0  0  0  0  0  0  0  0  0  0  0
  -21.4230  -29.3690   22.4550 N   0  0  0  0  0  0  0  0  0  0  0  0
  -23.4110  -28.8980   23.4200 O   0  0  0  0  0  0  0  0  0  0  0  0
  -20.9460  -29.9220   21.7570 H   0  0  0  0  0  0  0  0  0  0  0  0
  -18.0330  -28.1690   22.9680 C   0  0  0  0  0  0  0  0  0  0  0  0
  -20.5930  -28.4390   23.2300 C   0  0  0  0  0  3  0  0  0  0  0  0
  -20.6940  -27.0020   22.6640 C   0  0  0  0  0  2  0  0  0  0  0  0
  -19.5940  -26.6750   21.6500 C   0  0  0  0  0  2  0  0  0  0  0  0
  -18.2110  -26.8200   22.2910 C   0  0  0  0  0  2  0  0  0  0  0  0
  -19.1500  -28.9350   23.3940 C   0  0  0  0  0  0  0  0  0  0  0  0
  -18.9270  -30.1950   23.9910 C   0  0  0  0  0  3  0  0  0  0  0  0
  -17.6200  -30.6890   24.1620 C   0  0  0  0  0  3  0  0  0  0  0  0
  -16.5170  -29.9210   23.7490 C   0  0  0  0  0  3  0  0  0  0  0  0
  -16.7250  -28.6620   23.1580 C   0  0  0  0  0  3  0  0  0  0  0  0
  -25.9420  -32.5310   23.8780 C   0  0  0  0  0  3  0  0  0  0  0  0
  -26.4400  -31.7670   25.1680 C   0  0  1  0  0  0  0  0  0  0  0  0
  -25.3350  -31.5460   26.2290 C   0  0  0  0  0  1  0  0  0  0  0  0
  -27.0170  -30.3800   24.8050 C   0  0  0  0  0  1  0  0  0  0  0  0
  -27.5910  -32.5580   25.8350 C   0  0  0  0  0  1  0  0  0  0  0  0
  -25.6270  -33.9320   24.2180 N   0  0  0  0  0  0  0  0  0  0  0  0
  -25.9330  -34.9970   23.4640 C   0  0  0  0  0  0  0  0  0  0  0  0
  -26.5690  -34.9020   22.4100 O   0  0  0  0  0  0  0  0  0  0  0  0
  -25.0570  -34.0770   25.0370 H   0  0  0  0  0  0  0  0  0  0  0  0
  -24.1800  -36.7890   23.2110 C   0  0  0  0  0  1  0  0  0  0  0  0
  -25.4650  -36.3850   23.9520 C   0  0  0  0  0  3  0  0  0  0  0  0
  -27.6320  -37.2910   24.6730 C   0  0  0  0  0  1  0  0  0  0  0  0
  -26.4840  -37.4450   23.7830 N   0  0  0  0  0  0  0  0  0  0  0  0
  -26.0790  -38.3630   23.9460 H   0  0  0  0  0  0  0  0  0  0  0  0
  -28.9470  -22.2690   20.2790 C   0  0  0  0  0  3  0  0  0  0  0  0
  -28.7110  -20.3580   20.2370 C   0  0  0  0  0  3  0  0  0  0  0  0
  -29.7530  -18.7430   20.2450 C   0  0  0  0  0  3  0  0  0  0  0  0
  -30.2820  -15.6460   20.1480 C   0  0  0  0  0  0  0  0  0  0  0  0
  -30.3500  -13.1330   19.2860 C   0  0  0  0  0  2  0  0  0  0  0  0
  -29.4300  -12.7740   18.0850 C   0  0  0  0  0  2  0  0  0  0  0  0
  -28.0130  -12.4240   18.5630 C   0  0  0  0  0  2  0  0  0  0  0  0
  -27.5300  -13.4030   19.6600 C   0  0  0  0  0  3  0  0  0  0  0  0
  -28.5860  -13.6800   20.7550 C   0  0  0  0  0  2  0  0  0  0  0  0
  -29.7510  -14.2930   20.0790 N   0  0  0  0  0  0  0  0  0  0  0  0
  -31.5110  -15.5990   19.9480 O   0  0  0  0  0  0  0  0  0  0  0  0
  -29.5270  -16.9940   20.2480 N   0  0  0  0  0  0  0  0  0  0  0  0
  -28.5450  -16.7820   20.3500 H   0  0  0  0  0  0  0  0  0  0  0  0
  -25.1770  -13.9060   20.4730 C   0  0  0  0  0  0  0  0  0  0  0  0
  -24.1340  -13.1120   20.8550 C   0  0  0  0  0  0  0  0  0  0  0  0
  -24.6200  -11.7680   20.8040 C   0  0  0  0  0  0  0  0  0  0  0  0
  -26.2270  -13.0500   20.2020 N   0  0  0  0  0  0  0  0  0  0  0  0
  -25.9070  -11.7560   20.4690 N   0  0  0  0  0  0  0  0  0  0  0  0
  -23.9110  -10.4960   20.9970 C   0  0  0  0  0  0  0  0  0  0  0  0
  -24.3510   -9.5380   21.9370 C   0  0  0  0  0  3  0  0  0  0  0  0
  -23.6360   -8.3340   22.1190 C   0  0  0  0  0  3  0  0  0  0  0  0
  -22.4690   -8.0770   21.3610 C   0  0  0  0  0  0  0  0  0  0  0  0
  -22.0480   -9.0240   20.4100 C   0  0  0  0  0  3  0  0  0  0  0  0
  -22.7630  -10.2200   20.2260 C   0  0  0  0  0  3  0  0  0  0  0  0
  -21.7270   -6.9240   21.4530 O   0  0  0  0  0  0  0  0  0  0  0  0
  -21.6590   -6.2030   22.6170 C   0  0  0  0  0  0  0  0  0  0  0  0
  -21.1670   -6.7650   23.8150 C   0  0  0  0  0  3  0  0  0  0  0  0
  -21.0490   -5.9670   24.9700 C   0  0  0  0  0  3  0  0  0  0  0  0
  -21.4130   -4.6090   24.9290 C   0  0  0  0  0  0  0  0  0  0  0  0
  -21.8990   -4.0450   23.7360 C   0  0  0  0  0  3  0  0  0  0  0  0
  -22.0180   -4.8400   22.5820 C   0  0  0  0  0  0  0  0  0  0  0  0
  -22.4660   -4.2870   21.4300 F   0  0  0  0  0  0  0  0  0  0  0  0
  -21.2940   -3.8400   26.0380 F   0  0  0  0  0  0  0  0  0  0  0  0
  -22.7360  -13.5700   21.1460 C   0  0  0  0  0  0  0  0  0  0  0  0
  -22.0320  -12.8660   22.0240 N   0  0  0  0  0  0  0  0  0  0  0  0
  -22.2780  -14.5880   20.6300 O   0  0  0  0  0  0  0  0  0  0  0  0
  -22.4170  -12.0420   22.4630 H   0  0  0  0  0  0  0  0  0  0  0  0
  -21.0930  -13.1550   22.2630 H   0  0  0  0  0  0  0  0  0  0  0  0
  -25.3150  -15.2810   20.3020 N   0  0  0  0  0  0  0  0  0  0  0  0
  -24.5370  -15.9190   20.4270 H   0  0  0  0  0  0  0  0  0  0  0  0
  -26.1390  -15.7310   19.9280 H   0  0  0  0  0  0  0  0  0  0  0  0
  1 43  2  0
  1  2  1  0
  3 14  2  0
  4  2  1  0
  4  9  1  0
  5 13  1  0
  5 15  1  0
  6 12  1  0
  6  8  1  0
  7 13  1  0
  8  7  1  0
  9  8  2  0
 10  4  2  0
 11 10  1  0
 11  6  2  0
 12  5  1  0
 13  3  1  0
 15 17  2  0
 16 15  1  0
 18 16  1  0
 19 28  2  0
 19 24  1  0
 20 16  1  0
 20 24  1  0
 21 20  1  0
 22 23  1  0
 22 21  1  0
 23 19  1  0
 24 25  2  0
 25 26  1  0
 27 26  2  0
 28 27  1  0
 29  3  1  0
 29 34  1  0
 29 30  1  0
 30 33  1  1
 30 31  1  0
 32 30  1  0
 34 37  1  0
 35 39  1  0
 35 34  1  0
 36 35  2  0
 39 38  1  0
 41 42  1  0
 41 39  1  0
 41 40  1  0
 44 45  2  0
 44 43  1  0
 45 54  1  0
 46 54  1  0
 47 52  1  0
 48 49  1  0
 48 47  1  0
 50 49  1  0
 50 59  1  0
 50 51  1  0
 52 46  1  0
 52 51  1  0
 53 46  2  0
 54 55  1  0
 56 57  2  0
 57 76  1  0
 58 57  1  0
 58 61  1  0
 59 60  1  0
 59 56  1  0
 60 58  2  0
 61 62  1  0
 62 63  2  0
 64 67  1  0
 64 63  1  0
 65 64  2  0
 66 65  1  0
 66 61  2  0
 67 68  1  0
 68 69  1  0
 69 70  2  0
 71 70  1  0
 71 75  1  0
 72 71  2  0
 73 68  2  0
 73 72  1  0
 74 73  1  0
 76 77  1  0
 77 80  1  0
 77 79  1  0
 78 76  2  0
 81 82  1  0
 81 56  1  0
 83 81  1  0
M  ISO  4   1 101   2 101  46 100  54 100
M  END
>  <TORSDO>  (18) 
F 19

>  <SCORE>  (18) 
-16.287

>  <name>  (18) 
17

>  <ligand_id>  (18) 
17

>  <original_smiles>  (18) 
[H]c1c([H])c([H])c2c(c1[H])C([H])([H])C([H])([H])C([H])([H])C2([H])N([H])C(=O)C1([H])N(C(=O)C([H])(N([H])C(=O)C([H])(N([H])C([H])([H])[H])C([H])([H])[H])C(C([H])([H])[H])(C([H])([H])[H])C([H])([H])[H])C([H])([H])c2c([H])c(OC([H])([H])C([H])([H])C([H])([H])C([H])([H])N([H])C(=O)N3C([H])([H])C([H])([H])C([H])([H])C([H])(n4nc(-c5c([H])c([H])c(Oc6c([H])c([H])c(F)c([H])c6F)c([H])c5[H])c(C(=O)N([H])[H])c4N([H])[H])C3([H])[H])c([H])c([H])c2C1([H])[H]

>  <smiles>  (18) 
[H]c1c([H])c([H])c2c(c1[H])C([H])([H])C([H])([H])C([H])([H])C2([H])N([H])C(=O)C1([H])N(C(=O)C([H])(N([H])C(=O)C([H])(N([H])C([H])([H])[H])C([H])([H])[H])C(C([H])([H])[H])(C([H])([H])[H])C([H])([H])[H])C([H])([H])c2c([H])c(OC([H])([H])C([H])([H])C([H])([H])C([H])([H])N([H])C(=O)N3C([H])([H])C([H])([H])C([H])([H])C([H])(n4nc(-c5c([H])c([H])c(Oc6c([H])c([H])c(F)c([H])c6F)c([H])c5[H])c(C(=O)N([H])[H])c4N([H])[H])C3([H])[H])c([H])c([H])c2C1([H])[H]

$$$$
18:0:0
     RDKit          3D

 91 99  0  0  1  0  0  0  0  0999 V2000
  -28.7930  -21.0830   20.0620 C   0  0  0  0  0  0  0  0  0  0  0  0
  -29.0170  -22.3780   20.5100 N   0  0  0  0  0  0  0  0  0  0  0  0
  -27.9230  -20.8740   19.2140 O   0  0  0  0  0  0  0  0  0  0  0  0
  -29.6840  -22.4560   21.2650 H   0  0  0  0  0  0  0  0  0  0  0  0
  -31.7600  -19.0240   21.4770 C   0  0  0  0  0  3  0  0  0  0  0  0
  -30.9110  -20.0940   21.1230 C   0  0  0  0  0  3  0  0  0  0  0  0
  -31.3870  -17.6780   21.2760 C   0  0  0  0  0  3  0  0  0  0  0  0
  -29.2740  -18.4590   20.3660 C   0  0  0  0  0  3  0  0  0  0  0  0
  -29.6390  -19.8630   20.5550 C   0  0  0  0  0  0  0  0  0  0  0  0
  -30.1380  -17.3320   20.7120 C   0  0  0  0  0  0  0  0  0  0  0  0
  -30.5650  -14.7560   20.3870 C   0  0  0  0  0  0  0  0  0  0  0  0
  -30.3540  -12.4850   19.3540 C   0  0  0  0  0  2  0  0  0  0  0  0
  -29.4070  -12.5720   18.1370 C   0  0  0  0  0  2  0  0  0  0  0  0
  -27.9400  -12.4020   18.5770 C   0  0  0  0  0  2  0  0  0  0  0  0
  -27.5760  -13.2730   19.8100 C   0  0  0  0  0  3  0  0  0  0  0  0
  -28.6460  -13.1740   20.9190 C   0  0  0  0  0  2  0  0  0  0  0  0
  -29.9330  -13.5340   20.3110 N   0  0  0  0  0  0  0  0  0  0  0  0
  -31.7560  -14.8410   20.0730 O   0  0  0  0  0  0  0  0  0  0  0  0
  -29.7790  -15.8930   20.5680 N   0  0  0  0  0  0  0  0  0  0  0  0
  -28.7920  -15.6950   20.6010 H   0  0  0  0  0  0  0  0  0  0  0  0
  -25.1940  -13.8540   20.5620 C   0  0  0  0  0  0  0  0  0  0  0  0
  -24.1330  -13.0760   20.9380 C   0  0  0  0  0  0  0  0  0  0  0  0
  -24.6000  -11.7260   20.8980 C   0  0  0  0  0  0  0  0  0  0  0  0
  -26.2380  -12.9790   20.3130 N   0  0  0  0  0  0  0  0  0  0  0  0
  -25.8870  -11.6930   20.5780 N   0  0  0  0  0  0  0  0  0  0  0  0
  -23.8770  -10.4620   21.0890 C   0  0  0  0  0  0  0  0  0  0  0  0
  -24.3260   -9.4830   22.0020 C   0  0  0  0  0  3  0  0  0  0  0  0
  -23.6030   -8.2830   22.1810 C   0  0  0  0  0  3  0  0  0  0  0  0
  -22.4150   -8.0550   21.4460 C   0  0  0  0  0  0  0  0  0  0  0  0
  -21.9840   -9.0230   20.5210 C   0  0  0  0  0  3  0  0  0  0  0  0
  -22.7090  -10.2130   20.3400 C   0  0  0  0  0  3  0  0  0  0  0  0
  -21.6600   -6.9110   21.5350 O   0  0  0  0  0  0  0  0  0  0  0  0
  -21.6450   -6.1470   22.6740 C   0  0  0  0  0  0  0  0  0  0  0  0
  -21.2650   -6.6800   23.9250 C   0  0  0  0  0  3  0  0  0  0  0  0
  -21.1970   -5.8430   25.0570 C   0  0  0  0  0  3  0  0  0  0  0  0
  -21.4980   -4.4730   24.9390 C   0  0  0  0  0  0  0  0  0  0  0  0
  -21.8700   -3.9380   23.6930 C   0  0  0  0  0  3  0  0  0  0  0  0
  -21.9410   -4.7720   22.5630 C   0  0  0  0  0  0  0  0  0  0  0  0
  -22.2800   -4.2490   21.3610 F   0  0  0  0  0  0  0  0  0  0  0  0
  -21.4250   -3.6660   26.0230 F   0  0  0  0  0  0  0  0  0  0  0  0
  -22.7370  -13.5500   21.2210 C   0  0  0  0  0  0  0  0  0  0  0  0
  -22.0160  -12.8490   22.0880 N   0  0  0  0  0  0  0  0  0  0  0  0
  -22.2930  -14.5760   20.7070 O   0  0  0  0  0  0  0  0  0  0  0  0
  -22.3870  -12.0200   22.5280 H   0  0  0  0  0  0  0  0  0  0  0  0
  -21.0790  -13.1470   22.3180 H   0  0  0  0  0  0  0  0  0  0  0  0
  -25.3500  -15.2260   20.3840 N   0  0  0  0  0  0  0  0  0  0  0  0
  -24.5700  -15.8690   20.4770 H   0  0  0  0  0  0  0  0  0  0  0  0
  -26.1750  -15.6650   19.9980 H   0  0  0  0  0  0  0  0  0  0  0  0
  -28.6200  -23.7090   19.8510 C   0  0  0  0  0  2  0  0  0  0  0  0
  -28.2330  -25.0180   20.7310 C   0  0  0  0  0  2  0  0  0  0  0  0
  -28.3410  -26.4230   20.1970 O   0  0  0  0  0  0  0  0  0  0  0  0
  -24.6110  -31.8810   23.2350 C   0  0  0  0  0  0  0  0  0  0  0  0
  -27.2230  -27.2820   20.2030 C   0  0  0  0  0  0  0  0  0  0  0  0
  -23.4070  -30.4730   21.6010 C   0  0  0  0  0  3  0  0  0  0  0  0
  -24.8590  -28.9090   20.1820 C   0  0  0  0  0  0  0  0  0  0  0  0
  -25.9470  -30.7900   21.4110 C   0  0  0  0  0  2  0  0  0  0  0  0
  -26.0300  -29.4030   20.7730 C   0  0  0  0  0  0  0  0  0  0  0  0
  -27.2180  -28.6040   20.7650 C   0  0  0  0  0  3  0  0  0  0  0  0
  -26.0300  -26.8470   19.5930 C   0  0  0  0  0  3  0  0  0  0  0  0
  -24.8630  -27.6400   19.5810 C   0  0  0  0  0  3  0  0  0  0  0  0
  -23.6220  -29.7860   20.2260 C   0  0  0  0  0  2  0  0  0  0  0  0
  -24.6750  -31.0670   22.1390 N   0  0  0  0  0  0  0  0  0  0  0  0
  -23.5280  -32.1590   23.7710 O   0  0  0  0  0  0  0  0  0  0  0  0
  -22.7450  -29.4630   22.5690 C   0  0  0  0  0  0  0  0  0  0  0  0
  -21.4190  -29.2830   22.4440 N   0  0  0  0  0  0  0  0  0  0  0  0
  -23.4240  -28.8420   23.3900 O   0  0  0  0  0  0  0  0  0  0  0  0
  -20.9280  -29.8350   21.7540 H   0  0  0  0  0  0  0  0  0  0  0  0
  -18.0450  -28.0760   22.9460 C   0  0  0  0  0  0  0  0  0  0  0  0
  -20.6030  -28.3460   23.2190 C   0  0  0  0  0  3  0  0  0  0  0  0
  -20.7100  -26.9120   22.6500 C   0  0  0  0  0  2  0  0  0  0  0  0
  -19.6110  -26.5810   21.6360 C   0  0  0  0  0  2  0  0  0  0  0  0
  -18.2280  -26.7240   22.2770 C   0  0  0  0  0  2  0  0  0  0  0  0
  -19.1600  -28.8440   23.3750 C   0  0  0  0  0  0  0  0  0  0  0  0
  -18.9350  -30.1080   23.9600 C   0  0  0  0  0  3  0  0  0  0  0  0
  -17.6280  -30.6050   24.1240 C   0  0  0  0  0  3  0  0  0  0  0  0
  -16.5270  -29.8320   23.7140 C   0  0  0  0  0  3  0  0  0  0  0  0
  -16.7370  -28.5700   23.1310 C   0  0  0  0  0  3  0  0  0  0  0  0
  -25.8930  -32.5190   23.8540 C   0  0  0  0  0  3  0  0  0  0  0  0
  -26.4140  -31.7500   25.1310 C   0  0  1  0  0  0  0  0  0  0  0  0
  -25.3230  -31.5120   26.2020 C   0  0  0  0  0  1  0  0  0  0  0  0
  -26.9960  -30.3730   24.7390 C   0  0  0  0  0  1  0  0  0  0  0  0
  -27.5680  -32.5440   25.7880 C   0  0  0  0  0  1  0  0  0  0  0  0
  -25.5810  -33.9170   24.1860 N   0  0  0  0  0  0  0  0  0  0  0  0
  -25.9090  -34.9720   23.4270 C   0  0  0  0  0  0  0  0  0  0  0  0
  -26.5720  -34.8710   22.3920 O   0  0  0  0  0  0  0  0  0  0  0  0
  -24.9930  -34.0700   24.9920 H   0  0  0  0  0  0  0  0  0  0  0  0
  -24.1760  -36.7620   23.0840 C   0  0  0  0  0  1  0  0  0  0  0  0
  -25.4220  -36.3600   23.8880 C   0  0  0  0  0  3  0  0  0  0  0  0
  -27.5590  -37.2470   24.7080 C   0  0  0  0  0  1  0  0  0  0  0  0
  -26.4520  -37.4150   23.7700 N   0  0  0  0  0  0  0  0  0  0  0  0
  -26.0450  -38.3340   23.9210 H   0  0  0  0  0  0  0  0  0  0  0  0
  1  2  1  0
  1  9  1  0
  2  4  1  0
  3  1  2  0
  6  5  2  0
  7  5  1  0
  8  9  2  0
  8 10  1  0
  9  6  1  0
 10  7  2  0
 11 19  1  0
 12 17  1  0
 13 14  1  0
 13 12  1  0
 15 14  1  0
 15 24  1  0
 15 16  1  0
 17 11  1  0
 17 16  1  0
 18 11  2  0
 19 20  1  0
 19 10  1  0
 21 22  2  0
 22 41  1  0
 23 22  1  0
 23 26  1  0
 24 21  1  0
 24 25  1  0
 25 23  2  0
 26 27  1  0
 27 28  2  0
 29 32  1  0
 29 28  1  0
 30 29  2  0
 31 30  1  0
 31 26  2  0
 32 33  1  0
 33 34  1  0
 34 35  2  0
 36 35  1  0
 36 40  1  0
 37 36  2  0
 38 33  2  0
 38 37  1  0
 39 38  1  0
 41 42  1  0
 42 45  1  0
 42 44  1  0
 43 41  2  0
 46 47  1  0
 46 21  1  0
 48 46  1  0
 49  2  1  0
 49 50  1  0
 51 53  1  0
 51 50  1  0
 52 63  2  0
 53 58  1  0
 54 62  1  0
 54 64  1  0
 55 61  1  0
 55 57  1  0
 56 62  1  0
 57 56  1  0
 58 57  2  0
 59 53  2  0
 60 59  1  0
 60 55  2  0
 61 54  1  0
 62 52  1  0
 64 66  2  0
 65 64  1  0
 67 65  1  0
 68 77  2  0
 68 73  1  0
 69 65  1  0
 69 73  1  0
 70 69  1  0
 71 72  1  0
 71 70  1  0
 72 68  1  0
 73 74  2  0
 74 75  1  0
 76 75  2  0
 77 76  1  0
 78 52  1  0
 78 83  1  0
 78 79  1  0
 79 82  1  1
 79 80  1  0
 81 79  1  0
 83 86  1  0
 84 88  1  0
 84 83  1  0
 85 84  2  0
 88 87  1  0
 90 88  1  0
 90 91  1  0
 90 89  1  0
M  ISO  4  11 100  19 100  50 101  51 101
M  END
>  <TORSDO>  (19) 
F 19

>  <SCORE>  (19) 
-14.451

>  <name>  (19) 
18

>  <ligand_id>  (19) 
18

>  <original_smiles>  (19) 
[H]c1c([H])c(C(=O)N([H])C([H])([H])C([H])([H])Oc2c([H])c([H])c3c(c2[H])C([H])([H])N(C(=O)C([H])(N([H])C(=O)C([H])(N([H])C([H])([H])[H])C([H])([H])[H])C(C([H])([H])[H])(C([H])([H])[H])C([H])([H])[H])C([H])(C(=O)N([H])C2([H])c4c([H])c([H])c([H])c([H])c4C([H])([H])C([H])([H])C2([H])[H])C3([H])[H])c([H])c(N([H])C(=O)N2C([H])([H])C([H])([H])C([H])([H])C([H])(n3nc(-c4c([H])c([H])c(Oc5c([H])c([H])c(F)c([H])c5F)c([H])c4[H])c(C(=O)N([H])[H])c3N([H])[H])C2([H])[H])c1[H]

>  <smiles>  (19) 
[H]c1c([H])c(C(=O)N([H])C([H])([H])C([H])([H])Oc2c([H])c([H])c3c(c2[H])C([H])([H])N(C(=O)C([H])(N([H])C(=O)C([H])(N([H])C([H])([H])[H])C([H])([H])[H])C(C([H])([H])[H])(C([H])([H])[H])C([H])([H])[H])C([H])(C(=O)N([H])C2([H])c4c([H])c([H])c([H])c([H])c4C([H])([H])C([H])([H])C2([H])[H])C3([H])[H])c([H])c(N([H])C(=O)N2C([H])([H])C([H])([H])C([H])([H])C([H])(n3nc(-c4c([H])c([H])c(Oc5c([H])c([H])c(F)c([H])c5F)c([H])c4[H])c(C(=O)N([H])[H])c3N([H])[H])C2([H])[H])c1[H]

$$$$
19:0:0
     RDKit          3D

 92100  0  0  1  0  0  0  0  0999 V2000
  -29.9710  -20.9490   20.5860 C   0  0  0  0  0  0  0  0  0  0  0  0
  -28.7150  -21.4250   20.7060 N   0  0  0  0  0  0  0  0  0  0  0  0
  -30.8990  -21.6930   20.2570 O   0  0  0  0  0  0  0  0  0  0  0  0
  -28.0210  -20.7180   20.9190 H   0  0  0  0  0  0  0  0  0  0  0  0
  -31.7250  -18.2180   22.5870 C   0  0  0  0  0  3  0  0  0  0  0  0
  -31.2940  -19.4550   22.0820 C   0  0  0  0  0  3  0  0  0  0  0  0
  -31.1950  -17.0230   22.0790 C   0  0  0  0  0  3  0  0  0  0  0  0
  -29.7480  -18.3130   20.5800 C   0  0  0  0  0  3  0  0  0  0  0  0
  -30.2980  -19.5410   21.0820 C   0  0  0  0  0  0  0  0  0  0  0  0
  -30.2190  -17.0370   21.0590 C   0  0  0  0  0  0  0  0  0  0  0  0
  -30.4560  -14.6720   20.2290 C   0  0  0  0  0  0  0  0  0  0  0  0
  -30.1410  -12.5150   19.0470 C   0  0  0  0  0  2  0  0  0  0  0  0
  -29.1440  -12.7190   17.8870 C   0  0  0  0  0  2  0  0  0  0  0  0
  -27.6950  -12.5370   18.3830 C   0  0  0  0  0  2  0  0  0  0  0  0
  -27.4000  -13.3270   19.6880 C   0  0  0  0  0  3  0  0  0  0  0  0
  -28.5160  -13.1360   20.7380 C   0  0  0  0  0  2  0  0  0  0  0  0
  -29.7880  -13.4880   20.0950 N   0  0  0  0  0  0  0  0  0  0  0  0
  -31.6120  -14.8090   19.8160 O   0  0  0  0  0  0  0  0  0  0  0  0
  -29.7180  -15.7610   20.5970 N   0  0  0  0  0  0  0  0  0  0  0  0
  -28.7190  -15.6250   20.6330 H   0  0  0  0  0  0  0  0  0  0  0  0
  -25.0300  -13.8530   20.5220 C   0  0  0  0  0  0  0  0  0  0  0  0
  -24.0000  -13.0450   20.9240 C   0  0  0  0  0  0  0  0  0  0  0  0
  -24.4930  -11.7070   20.8500 C   0  0  0  0  0  0  0  0  0  0  0  0
  -26.0830  -13.0030   20.2280 N   0  0  0  0  0  0  0  0  0  0  0  0
  -25.7700  -11.7070   20.4870 N   0  0  0  0  0  0  0  0  0  0  0  0
  -23.8070  -10.4230   21.0490 C   0  0  0  0  0  0  0  0  0  0  0  0
  -24.2840   -9.4640   21.9690 C   0  0  0  0  0  3  0  0  0  0  0  0
  -23.5960   -8.2450   22.1540 C   0  0  0  0  0  3  0  0  0  0  0  0
  -22.4150   -7.9800   21.4220 C   0  0  0  0  0  0  0  0  0  0  0  0
  -21.9570   -8.9290   20.4910 C   0  0  0  0  0  3  0  0  0  0  0  0
  -22.6470  -10.1390   20.3020 C   0  0  0  0  0  3  0  0  0  0  0  0
  -21.6940   -6.8140   21.5190 O   0  0  0  0  0  0  0  0  0  0  0  0
  -21.6750   -6.0720   22.6720 C   0  0  0  0  0  0  0  0  0  0  0  0
  -21.2360   -6.6150   23.9000 C   0  0  0  0  0  3  0  0  0  0  0  0
  -21.1680   -5.7980   25.0460 C   0  0  0  0  0  3  0  0  0  0  0  0
  -21.5270   -4.4400   24.9660 C   0  0  0  0  0  0  0  0  0  0  0  0
  -21.9600   -3.8960   23.7430 C   0  0  0  0  0  3  0  0  0  0  0  0
  -22.0310   -4.7100   22.5990 C   0  0  0  0  0  0  0  0  0  0  0  0
  -22.4270   -4.1760   21.4190 F   0  0  0  0  0  0  0  0  0  0  0  0
  -21.4550   -3.6520   26.0650 F   0  0  0  0  0  0  0  0  0  0  0  0
  -22.6040  -13.4840   21.2600 C   0  0  0  0  0  0  0  0  0  0  0  0
  -21.9290  -12.7540   22.1420 N   0  0  0  0  0  0  0  0  0  0  0  0
  -22.1210  -14.5080   20.7780 O   0  0  0  0  0  0  0  0  0  0  0  0
  -22.3360  -11.9260   22.5490 H   0  0  0  0  0  0  0  0  0  0  0  0
  -20.9950  -13.0280   22.4110 H   0  0  0  0  0  0  0  0  0  0  0  0
  -25.1520  -15.2300   20.3600 N   0  0  0  0  0  0  0  0  0  0  0  0
  -24.3700  -15.8580   20.5070 H   0  0  0  0  0  0  0  0  0  0  0  0
  -25.9620  -15.6950   19.9710 H   0  0  0  0  0  0  0  0  0  0  0  0
  -28.3530  -22.8120   21.1330 C   0  0  0  0  0  2  0  0  0  0  0  0
  -28.5170  -24.0470   20.1710 C   0  0  0  0  0  2  0  0  0  0  0  0
  -28.1660  -25.4050   20.8890 C   0  0  0  0  0  2  0  0  0  0  0  0
  -28.3010  -26.6610   20.1570 O   0  0  0  0  0  0  0  0  0  0  0  0
  -24.5770  -31.9590   23.2530 C   0  0  0  0  0  0  0  0  0  0  0  0
  -27.1760  -27.4730   20.1560 C   0  0  0  0  0  0  0  0  0  0  0  0
  -23.3600  -30.5560   21.6240 C   0  0  0  0  0  3  0  0  0  0  0  0
  -24.8000  -29.0240   20.1740 C   0  0  0  0  0  0  0  0  0  0  0  0
  -25.8880  -30.9110   21.4010 C   0  0  0  0  0  2  0  0  0  0  0  0
  -25.9700  -29.5380   20.7530 C   0  0  0  0  0  0  0  0  0  0  0  0
  -27.1660  -28.7710   20.7320 C   0  0  0  0  0  3  0  0  0  0  0  0
  -25.9910  -26.9900   19.5670 C   0  0  0  0  0  3  0  0  0  0  0  0
  -24.8090  -27.7550   19.5730 C   0  0  0  0  0  3  0  0  0  0  0  0
  -23.5570  -29.8850   20.2390 C   0  0  0  0  0  2  0  0  0  0  0  0
  -24.6280  -31.1570   22.1500 N   0  0  0  0  0  0  0  0  0  0  0  0
  -23.4980  -32.2310   23.8010 O   0  0  0  0  0  0  0  0  0  0  0  0
  -22.7190  -29.5320   22.5900 C   0  0  0  0  0  0  0  0  0  0  0  0
  -21.3940  -29.3390   22.4680 N   0  0  0  0  0  0  0  0  0  0  0  0
  -23.4080  -28.9170   23.4070 O   0  0  0  0  0  0  0  0  0  0  0  0
  -20.8980  -29.8850   21.7790 H   0  0  0  0  0  0  0  0  0  0  0  0
  -18.0310  -28.1130   22.9740 C   0  0  0  0  0  0  0  0  0  0  0  0
  -20.5870  -28.3960   23.2420 C   0  0  0  0  0  3  0  0  0  0  0  0
  -20.7020  -26.9640   22.6700 C   0  0  0  0  0  2  0  0  0  0  0  0
  -19.6020  -26.6290   21.6590 C   0  0  0  0  0  2  0  0  0  0  0  0
  -18.2200  -26.7630   22.3040 C   0  0  0  0  0  2  0  0  0  0  0  0
  -19.1430  -28.8870   23.3990 C   0  0  0  0  0  0  0  0  0  0  0  0
  -18.9140  -30.1530   23.9840 C   0  0  0  0  0  3  0  0  0  0  0  0
  -17.6030  -30.6410   24.1520 C   0  0  0  0  0  3  0  0  0  0  0  0
  -16.5060  -29.8630   23.7440 C   0  0  0  0  0  3  0  0  0  0  0  0
  -16.7190  -28.6020   23.1590 C   0  0  0  0  0  3  0  0  0  0  0  0
  -25.8650  -32.5950   23.8600 C   0  0  0  0  0  3  0  0  0  0  0  0
  -26.3930  -31.8310   25.1360 C   0  0  1  0  0  0  0  0  0  0  0  0
  -25.3060  -31.5950   26.2110 C   0  0  0  0  0  1  0  0  0  0  0  0
  -26.9780  -30.4530   24.7440 C   0  0  0  0  0  1  0  0  0  0  0  0
  -27.5460  -32.6310   25.7860 C   0  0  0  0  0  1  0  0  0  0  0  0
  -25.5570  -33.9940   24.1850 N   0  0  0  0  0  0  0  0  0  0  0  0
  -25.8900  -35.0440   23.4220 C   0  0  0  0  0  0  0  0  0  0  0  0
  -26.5600  -34.9340   22.3910 O   0  0  0  0  0  0  0  0  0  0  0  0
  -24.9610  -34.1510   24.9840 H   0  0  0  0  0  0  0  0  0  0  0  0
  -24.1710  -36.8420   23.0560 C   0  0  0  0  0  1  0  0  0  0  0  0
  -25.4060  -36.4340   23.8740 C   0  0  0  0  0  3  0  0  0  0  0  0
  -27.5390  -37.3150   24.7140 C   0  0  0  0  0  1  0  0  0  0  0  0
  -26.4420  -37.4840   23.7640 N   0  0  0  0  0  0  0  0  0  0  0  0
  -26.0400  -38.4060   23.9070 H   0  0  0  0  0  0  0  0  0  0  0  0
  1  2  1  0
  1  9  1  0
  2  4  1  0
  2 49  1  0
  3  1  2  0
  6  5  1  0
  7  5  2  0
  8 10  2  0
  8  9  1  0
  9  6  2  0
 10  7  1  0
 11 19  1  0
 12 17  1  0
 13 14  1  0
 13 12  1  0
 15 14  1  0
 15 24  1  0
 15 16  1  0
 17 11  1  0
 17 16  1  0
 18 11  2  0
 19 20  1  0
 19 10  1  0
 21 22  2  0
 22 41  1  0
 23 22  1  0
 23 26  1  0
 24 25  1  0
 24 21  1  0
 25 23  2  0
 26 27  1  0
 27 28  2  0
 29 32  1  0
 29 28  1  0
 30 29  2  0
 31 30  1  0
 31 26  2  0
 32 33  1  0
 33 34  1  0
 34 35  2  0
 36 35  1  0
 36 40  1  0
 37 36  2  0
 38 33  2  0
 38 37  1  0
 39 38  1  0
 41 42  1  0
 42 45  1  0
 42 44  1  0
 43 41  2  0
 46 47  1  0
 46 21  1  0
 48 46  1  0
 50 51  1  0
 50 49  1  0
 52 51  1  0
 53 64  2  0
 54 52  1  0
 54 59  1  0
 55 63  1  0
 55 65  1  0
 56 62  1  0
 56 58  1  0
 57 63  1  0
 58 57  1  0
 59 58  2  0
 60 61  1  0
 60 54  2  0
 61 56  2  0
 62 55  1  0
 63 53  1  0
 65 67  2  0
 66 65  1  0
 68 66  1  0
 69 78  2  0
 69 74  1  0
 70 66  1  0
 70 74  1  0
 71 70  1  0
 72 73  1  0
 72 71  1  0
 73 69  1  0
 74 75  2  0
 75 76  1  0
 77 76  2  0
 78 77  1  0
 79 53  1  0
 79 84  1  0
 79 80  1  0
 80 83  1  1
 80 81  1  0
 82 80  1  0
 84 87  1  0
 85 89  1  0
 85 84  1  0
 86 85  2  0
 89 88  1  0
 91 89  1  0
 91 92  1  0
 91 90  1  0
M  ISO  4  11 100  19 100  51 101  52 101
M  END
>  <TORSDO>  (20) 
F 20

>  <SCORE>  (20) 
-13.402

>  <name>  (20) 
19

>  <ligand_id>  (20) 
19

>  <original_smiles>  (20) 
[H]c1c([H])c(C(=O)N([H])C([H])([H])C([H])([H])C([H])([H])Oc2c([H])c([H])c3c(c2[H])C([H])([H])N(C(=O)C([H])(N([H])C(=O)C([H])(N([H])C([H])([H])[H])C([H])([H])[H])C(C([H])([H])[H])(C([H])([H])[H])C([H])([H])[H])C([H])(C(=O)N([H])C2([H])c4c([H])c([H])c([H])c([H])c4C([H])([H])C([H])([H])C2([H])[H])C3([H])[H])c([H])c(N([H])C(=O)N2C([H])([H])C([H])([H])C([H])([H])C([H])(n3nc(-c4c([H])c([H])c(Oc5c([H])c([H])c(F)c([H])c5F)c([H])c4[H])c(C(=O)N([H])[H])c3N([H])[H])C2([H])[H])c1[H]

>  <smiles>  (20) 
[H]c1c([H])c(C(=O)N([H])C([H])([H])C([H])([H])C([H])([H])Oc2c([H])c([H])c3c(c2[H])C([H])([H])N(C(=O)C([H])(N([H])C(=O)C([H])(N([H])C([H])([H])[H])C([H])([H])[H])C(C([H])([H])[H])(C([H])([H])[H])C([H])([H])[H])C([H])(C(=O)N([H])C2([H])c4c([H])c([H])c([H])c([H])c4C([H])([H])C([H])([H])C2([H])[H])C3([H])[H])c([H])c(N([H])C(=O)N2C([H])([H])C([H])([H])C([H])([H])C([H])(n3nc(-c4c([H])c([H])c(Oc5c([H])c([H])c(F)c([H])c5F)c([H])c4[H])c(C(=O)N([H])[H])c3N([H])[H])C2([H])[H])c1[H]

$$$$
20:0:0
     RDKit          3D

 84 91  0  0  1  0  0  0  0  0999 V2000
  -28.7200  -22.8200   19.9390 C   0  0  0  0  0  2  0  0  0  0  0  0
  -28.9750  -21.2040   20.6560 C   0  0  0  0  0  2  0  0  0  0  0  0
  -29.1120  -19.5470   20.0050 C   0  0  0  0  0  2  0  0  0  0  0  0
  -29.8670  -18.0600   20.6330 C   0  0  0  0  0  2  0  0  0  0  0  0
  -30.3960  -15.2010   20.2700 C   0  0  0  0  0  0  0  0  0  0  0  0
  -30.3500  -12.7810   19.3600 C   0  0  0  0  0  2  0  0  0  0  0  0
  -29.4120  -12.6020   18.1410 C   0  0  0  0  0  2  0  0  0  0  0  0
  -27.9650  -12.3420   18.5970 C   0  0  0  0  0  2  0  0  0  0  0  0
  -27.5320  -13.3000   19.7350 C   0  0  0  0  0  3  0  0  0  0  0  0
  -28.5930  -13.4210   20.8470 C   0  0  0  0  0  2  0  0  0  0  0  0
  -29.8190  -13.9100   20.2000 N   0  0  0  0  0  0  0  0  0  0  0  0
  -31.6200  -15.2130   20.0850 O   0  0  0  0  0  0  0  0  0  0  0  0
  -29.6200  -16.4480   20.3470 N   0  0  0  0  0  0  0  0  0  0  0  0
  -28.6340  -16.2300   20.3490 H   0  0  0  0  0  0  0  0  0  0  0  0
  -25.1640  -13.8590   20.5070 C   0  0  0  0  0  0  0  0  0  0  0  0
  -24.1070  -13.0800   20.8850 C   0  0  0  0  0  0  0  0  0  0  0  0
  -24.5780  -11.7320   20.8550 C   0  0  0  0  0  0  0  0  0  0  0  0
  -26.2080  -12.9850   20.2570 N   0  0  0  0  0  0  0  0  0  0  0  0
  -25.8670  -11.7000   20.5360 N   0  0  0  0  0  0  0  0  0  0  0  0
  -23.8560  -10.4680   21.0510 C   0  0  0  0  0  0  0  0  0  0  0  0
  -24.3040   -9.4940   21.9700 C   0  0  0  0  0  3  0  0  0  0  0  0
  -23.5790   -8.2970   22.1560 C   0  0  0  0  0  3  0  0  0  0  0  0
  -22.3920   -8.0650   21.4220 C   0  0  0  0  0  0  0  0  0  0  0  0
  -21.9620   -9.0270   20.4910 C   0  0  0  0  0  3  0  0  0  0  0  0
  -22.6880  -10.2150   20.3040 C   0  0  0  0  0  3  0  0  0  0  0  0
  -21.6370   -6.9210   21.5170 O   0  0  0  0  0  0  0  0  0  0  0  0
  -21.6230   -6.1620   22.6600 C   0  0  0  0  0  0  0  0  0  0  0  0
  -21.2490   -6.7030   23.9090 C   0  0  0  0  0  3  0  0  0  0  0  0
  -21.1820   -5.8710   25.0460 C   0  0  0  0  0  3  0  0  0  0  0  0
  -21.4760   -4.4990   24.9330 C   0  0  0  0  0  0  0  0  0  0  0  0
  -21.8430   -3.9570   23.6880 C   0  0  0  0  0  3  0  0  0  0  0  0
  -21.9120   -4.7860   22.5540 C   0  0  0  0  0  0  0  0  0  0  0  0
  -22.2450   -4.2550   21.3530 F   0  0  0  0  0  0  0  0  0  0  0  0
  -21.4040   -3.6980   26.0210 F   0  0  0  0  0  0  0  0  0  0  0  0
  -22.7100  -13.5540   21.1580 C   0  0  0  0  0  0  0  0  0  0  0  0
  -21.9870  -12.8610   22.0310 N   0  0  0  0  0  0  0  0  0  0  0  0
  -22.2690  -14.5760   20.6330 O   0  0  0  0  0  0  0  0  0  0  0  0
  -22.3580  -12.0360   22.4770 H   0  0  0  0  0  0  0  0  0  0  0  0
  -21.0490  -13.1600   22.2560 H   0  0  0  0  0  0  0  0  0  0  0  0
  -25.3190  -15.2300   20.3220 N   0  0  0  0  0  0  0  0  0  0  0  0
  -24.5440  -15.8760   20.4320 H   0  0  0  0  0  0  0  0  0  0  0  0
  -26.1490  -15.6710   19.9480 H   0  0  0  0  0  0  0  0  0  0  0  0
  -28.0700  -24.3570   20.5690 C   0  0  0  0  0  2  0  0  0  0  0  0
  -28.2440  -25.9400   20.2190 O   0  0  0  0  0  0  0  0  0  0  0  0
  -24.6360  -31.8510   23.1910 C   0  0  0  0  0  0  0  0  0  0  0  0
  -27.2030  -26.9910   20.2220 C   0  0  0  0  0  0  0  0  0  0  0  0
  -23.4440  -30.4430   21.5620 C   0  0  0  0  0  3  0  0  0  0  0  0
  -24.8930  -28.8310   20.1590 C   0  0  0  0  0  0  0  0  0  0  0  0
  -26.0070  -30.6690   21.4100 C   0  0  0  0  0  2  0  0  0  0  0  0
  -26.0800  -29.2570   20.7700 C   0  0  0  0  0  0  0  0  0  0  0  0
  -27.2330  -28.3580   20.7710 C   0  0  0  0  0  3  0  0  0  0  0  0
  -25.9840  -26.6990   19.5730 C   0  0  0  0  0  3  0  0  0  0  0  0
  -24.8670  -27.5710   19.5410 C   0  0  0  0  0  3  0  0  0  0  0  0
  -23.6730  -29.7490   20.1920 C   0  0  0  0  0  2  0  0  0  0  0  0
  -24.7180  -31.0140   22.1080 N   0  0  0  0  0  0  0  0  0  0  0  0
  -23.5480  -32.1440   23.7100 O   0  0  0  0  0  0  0  0  0  0  0  0
  -22.7520  -29.4530   22.5340 C   0  0  0  0  0  0  0  0  0  0  0  0
  -21.4230  -29.2840   22.4070 N   0  0  0  0  0  0  0  0  0  0  0  0
  -23.4180  -28.8350   23.3680 O   0  0  0  0  0  0  0  0  0  0  0  0
  -20.9400  -29.8330   21.7090 H   0  0  0  0  0  0  0  0  0  0  0  0
  -18.0440  -28.0620   22.9000 C   0  0  0  0  0  0  0  0  0  0  0  0
  -20.5990  -28.3520   23.1830 C   0  0  0  0  0  3  0  0  0  0  0  0
  -20.7170  -26.9120   22.6300 C   0  0  0  0  0  2  0  0  0  0  0  0
  -19.6270  -26.5660   21.6110 C   0  0  0  0  0  2  0  0  0  0  0  0
  -18.2380  -26.7060   22.2410 C   0  0  0  0  0  2  0  0  0  0  0  0
  -19.1530  -28.8410   23.3270 C   0  0  0  0  0  0  0  0  0  0  0  0
  -18.9150  -30.1070   23.9070 C   0  0  0  0  0  3  0  0  0  0  0  0
  -17.6030  -30.5950   24.0600 C   0  0  0  0  0  3  0  0  0  0  0  0
  -16.5100  -29.8140   23.6450 C   0  0  0  0  0  3  0  0  0  0  0  0
  -16.7310  -28.5490   23.0720 C   0  0  0  0  0  3  0  0  0  0  0  0
  -25.9090  -32.4980   23.8200 C   0  0  0  0  0  3  0  0  0  0  0  0
  -26.4210  -31.7340   25.1030 C   0  0  1  0  0  0  0  0  0  0  0  0
  -25.3240  -31.5030   26.1710 C   0  0  0  0  0  1  0  0  0  0  0  0
  -27.0060  -30.3530   24.7280 C   0  0  0  0  0  1  0  0  0  0  0  0
  -27.5690  -32.5320   25.7650 C   0  0  0  0  0  1  0  0  0  0  0  0
  -25.5860  -33.8960   24.1570 N   0  0  0  0  0  0  0  0  0  0  0  0
  -25.9120  -34.9590   23.4110 C   0  0  0  0  0  0  0  0  0  0  0  0
  -26.5790  -34.8680   22.3770 O   0  0  0  0  0  0  0  0  0  0  0  0
  -24.9920  -34.0390   24.9610 H   0  0  0  0  0  0  0  0  0  0  0  0
  -24.1740  -36.7540   23.0900 C   0  0  0  0  0  1  0  0  0  0  0  0
  -25.4240  -36.3440   23.8850 C   0  0  0  0  0  3  0  0  0  0  0  0
  -27.5630  -37.2340   24.7020 C   0  0  0  0  0  1  0  0  0  0  0  0
  -26.4510  -37.4030   23.7700 N   0  0  0  0  0  0  0  0  0  0  0  0
  -26.0430  -38.3200   23.9280 H   0  0  0  0  0  0  0  0  0  0  0  0
  1 43  1  0
  1  2  1  0
  3  4  1  0
  3  2  1  0
  5 13  1  0
  6 11  1  0
  7  8  1  0
  7  6  1  0
  9  8  1  0
  9 18  1  0
  9 10  1  0
 11  5  1  0
 11 10  1  0
 12  5  2  0
 13 14  1  0
 13  4  1  0
 15 16  2  0
 16 35  1  0
 17 16  1  0
 17 20  1  0
 18 15  1  0
 18 19  1  0
 19 17  2  0
 20 21  1  0
 21 22  2  0
 23 26  1  0
 23 22  1  0
 24 23  2  0
 25 24  1  0
 25 20  2  0
 26 27  1  0
 27 28  1  0
 28 29  2  0
 30 29  1  0
 30 34  1  0
 31 30  2  0
 32 27  2  0
 32 31  1  0
 33 32  1  0
 35 36  1  0
 36 39  1  0
 36 38  1  0
 37 35  2  0
 40 41  1  0
 40 15  1  0
 42 40  1  0
 44 46  1  0
 44 43  1  0
 45 56  2  0
 46 51  1  0
 47 55  1  0
 47 57  1  0
 48 54  1  0
 48 50  1  0
 49 55  1  0
 50 51  2  0
 50 49  1  0
 52 46  2  0
 53 52  1  0
 53 48  2  0
 54 47  1  0
 55 45  1  0
 57 59  2  0
 58 57  1  0
 60 58  1  0
 61 70  2  0
 61 66  1  0
 62 58  1  0
 62 66  1  0
 63 62  1  0
 64 65  1  0
 64 63  1  0
 65 61  1  0
 66 67  2  0
 67 68  1  0
 69 68  2  0
 70 69  1  0
 71 45  1  0
 71 76  1  0
 71 72  1  0
 72 75  1  1
 72 73  1  0
 74 72  1  0
 76 79  1  0
 77 81  1  0
 77 76  1  0
 78 77  2  0
 81 80  1  0
 83 81  1  0
 83 84  1  0
 83 82  1  0
M  ISO  4   5 100  13 100  43 101  44 101
M  END
>  <TORSDO>  (21) 
F 20

>  <SCORE>  (21) 
-15.593

>  <name>  (21) 
20

>  <ligand_id>  (21) 
20

>  <original_smiles>  (21) 
[H]c1c([H])c([H])c2c(c1[H])C([H])([H])C([H])([H])C([H])([H])C2([H])N([H])C(=O)C1([H])N(C(=O)C([H])(N([H])C(=O)C([H])(N([H])C([H])([H])[H])C([H])([H])[H])C(C([H])([H])[H])(C([H])([H])[H])C([H])([H])[H])C([H])([H])c2c([H])c(OC([H])([H])C([H])([H])C([H])([H])C([H])([H])C([H])([H])N([H])C(=O)N3C([H])([H])C([H])([H])C([H])([H])C([H])(n4nc(-c5c([H])c([H])c(Oc6c([H])c([H])c(F)c([H])c6F)c([H])c5[H])c(C(=O)N([H])[H])c4N([H])[H])C3([H])[H])c([H])c([H])c2C1([H])[H]

>  <smiles>  (21) 
[H]c1c([H])c([H])c2c(c1[H])C([H])([H])C([H])([H])C([H])([H])C2([H])N([H])C(=O)C1([H])N(C(=O)C([H])(N([H])C(=O)C([H])(N([H])C([H])([H])[H])C([H])([H])[H])C(C([H])([H])[H])(C([H])([H])[H])C([H])([H])[H])C([H])([H])c2c([H])c(OC([H])([H])C([H])([H])C([H])([H])C([H])([H])C([H])([H])N([H])C(=O)N3C([H])([H])C([H])([H])C([H])([H])C([H])(n4nc(-c5c([H])c([H])c(Oc6c([H])c([H])c(F)c([H])c6F)c([H])c5[H])c(C(=O)N([H])[H])c4N([H])[H])C3([H])[H])c([H])c([H])c2C1([H])[H]

$$$$
21:0:0
     RDKit          3D

 82 86  0  0  1  0  0  0  0  0999 V2000
  -28.2030  -25.2140   20.1870 O   0  0  0  0  0  1  0  0  0  0  0  0
  -24.6590  -31.8230   23.1160 C   0  0  0  0  0  0  0  0  0  0  0  0
  -27.2270  -26.5180   20.2190 C   0  0  0  0  0  0  0  0  0  0  0  0
  -23.5030  -30.4040   21.4840 C   0  0  0  0  0  3  0  0  0  0  0  0
  -24.9680  -28.6960   20.1210 C   0  0  0  0  0  0  0  0  0  0  0  0
  -26.0920  -30.4850   21.4080 C   0  0  0  0  0  2  0  0  0  0  0  0
  -26.1660  -29.0180   20.7700 C   0  0  0  0  0  0  0  0  0  0  0  0
  -27.2690  -27.9690   20.7710 C   0  0  0  0  0  3  0  0  0  0  0  0
  -25.9850  -26.4690   19.5130 C   0  0  0  0  0  3  0  0  0  0  0  0
  -24.9320  -27.4500   19.4670 C   0  0  0  0  0  3  0  0  0  0  0  0
  -23.7680  -29.6710   20.1330 C   0  0  0  0  0  2  0  0  0  0  0  0
  -24.7790  -30.9440   22.0540 N   0  0  0  0  0  0  0  0  0  0  0  0
  -23.5550  -32.1300   23.6020 O   0  0  0  0  0  0  0  0  0  0  0  0
  -22.7610  -29.4600   22.4680 C   0  0  0  0  0  0  0  0  0  0  0  0
  -21.4220  -29.3490   22.3610 N   0  0  0  0  0  0  0  0  0  0  0  0
  -23.4040  -28.8170   23.3000 O   0  0  0  0  0  0  0  0  0  0  0  0
  -20.9470  -29.9240   21.6780 H   0  0  0  0  0  0  0  0  0  0  0  0
  -18.0030  -28.1330   22.8590 C   0  0  0  0  0  0  0  0  0  0  0  0
  -20.5950  -28.3830   23.0970 C   0  0  0  0  0  0  0  0  0  0  0  0
  -20.7720  -26.9760   22.4620 C   0  0  0  0  0  3  0  0  0  0  0  0
  -19.5380  -26.4150   21.7220 C   0  0  0  0  0  3  0  0  0  0  0  0
  -18.0990  -26.8440   22.0560 C   0  0  0  0  0  3  0  0  0  0  0  0
  -19.1450  -28.8670   23.2920 C   0  0  0  0  0  0  0  0  0  0  0  0
  -18.9400  -30.1130   23.9270 C   0  0  0  0  0  3  0  0  0  0  0  0
  -17.6430  -30.6230   24.1300 C   0  0  0  0  0  3  0  0  0  0  0  0
  -16.5250  -29.8800   23.7210 C   0  0  0  0  0  3  0  0  0  0  0  0
  -16.7080  -28.6360   23.0960 C   0  0  0  0  0  3  0  0  0  0  0  0
  -25.9010  -32.4970   23.7720 C   0  0  0  0  0  3  0  0  0  0  0  0
  -25.5540  -33.8960   24.1020 N   0  0  0  0  0  0  0  0  0  0  0  0
  -25.8860  -34.9730   23.3740 C   0  0  0  0  0  0  0  0  0  0  0  0
  -26.5670  -34.8910   22.3500 O   0  0  0  0  0  0  0  0  0  0  0  0
  -24.9460  -34.0310   24.8960 H   0  0  0  0  0  0  0  0  0  0  0  0
  -24.1500  -36.7720   23.0460 C   0  0  0  0  0  1  0  0  0  0  0  0
  -25.3900  -36.3550   23.8530 C   0  0  0  0  0  3  0  0  0  0  0  0
  -27.5120  -37.2520   24.7100 C   0  0  0  0  0  1  0  0  0  0  0  0
  -26.4160  -37.4190   23.7590 N   0  0  0  0  0  0  0  0  0  0  0  0
  -26.0000  -38.3340   23.9110 H   0  0  0  0  0  0  0  0  0  0  0  0
  -26.3860  -31.7540   25.0790 C   0  0  1  0  0  0  0  0  0  0  0  0
  -25.2660  -31.5290   26.1240 C   0  0  0  0  0  1  0  0  0  0  0  0
  -26.9880  -30.3730   24.7440 C   0  0  0  0  0  1  0  0  0  0  0  0
  -27.5140  -32.5680   25.7560 C   0  0  0  0  0  1  0  0  0  0  0  0
  -28.2300  -23.3320   20.4390 C   0  0  0  0  0 15  0  0  0  0  0  0
  -28.7870  -21.3790   19.8640 C   0  0  0  0  0 15  0  0  0  0  0  0
  -29.3980  -19.4400   20.4120 C   0  0  0  0  0  1  0  0  0  0  0  0
  -30.1690  -16.0920   20.0360 C   0  0  0  0  0  0  0  0  0  0  0  0
  -30.3590  -13.4710   19.1990 C   0  0  0  0  0  2  0  0  0  0  0  0
  -29.4770  -12.8700   18.0550 C   0  0  0  0  0  2  0  0  0  0  0  0
  -28.1030  -12.4290   18.5740 C   0  0  0  0  0  2  0  0  0  0  0  0
  -27.5630  -13.4490   19.5940 C   0  0  0  0  0  3  0  0  0  0  0  0
  -28.6020  -13.9210   20.6470 C   0  0  0  0  0  2  0  0  0  0  0  0
  -29.6750  -14.6720   19.9180 N   0  0  0  0  0  0  0  0  0  0  0  0
  -31.4150  -15.9560   19.9590 O   0  0  0  0  0  0  0  0  0  0  0  0
  -29.4220  -17.5600   20.0550 N   0  0  0  0  0  0  0  0  0  0  0  0
  -28.4530  -17.3130   19.9040 H   0  0  0  0  0  0  0  0  0  0  0  0
  -25.2310  -13.9310   20.4500 C   0  0  0  0  0  0  0  0  0  0  0  0
  -24.1900  -13.1380   20.8360 C   0  0  0  0  0  0  0  0  0  0  0  0
  -24.6710  -11.7930   20.7770 C   0  0  0  0  0  0  0  0  0  0  0  0
  -26.2760  -13.0750   20.1660 N   0  0  0  0  0  0  0  0  0  0  0  0
  -25.9570  -11.7790   20.4270 N   0  0  0  0  0  0  0  0  0  0  0  0
  -23.9560  -10.5240   20.9740 C   0  0  0  0  0  0  0  0  0  0  0  0
  -24.4050   -9.5560   21.8990 C   0  0  0  0  0  3  0  0  0  0  0  0
  -23.6830   -8.3560   22.0890 C   0  0  0  0  0  3  0  0  0  0  0  0
  -22.4960   -8.1180   21.3550 C   0  0  0  0  0  0  0  0  0  0  0  0
  -22.0660   -9.0740   20.4200 C   0  0  0  0  0  3  0  0  0  0  0  0
  -22.7890  -10.2650   20.2280 C   0  0  0  0  0  3  0  0  0  0  0  0
  -21.7460   -6.9710   21.4550 O   0  0  0  0  0  0  0  0  0  0  0  0
  -21.7090   -6.2310   22.6100 C   0  0  0  0  0  0  0  0  0  0  0  0
  -21.2840   -6.7860   23.8360 C   0  0  0  0  0  3  0  0  0  0  0  0
  -21.1960   -5.9730   24.9840 C   0  0  0  0  0  3  0  0  0  0  0  0
  -21.5230   -4.6050   24.9060 C   0  0  0  0  0  0  0  0  0  0  0  0
  -21.9420   -4.0500   23.6840 C   0  0  0  0  0  3  0  0  0  0  0  0
  -22.0320   -4.8600   22.5390 C   0  0  0  0  0  0  0  0  0  0  0  0
  -22.4140   -4.3150   21.3590 F   0  0  0  0  0  0  0  0  0  0  0  0
  -21.4320   -3.8220   26.0060 F   0  0  0  0  0  0  0  0  0  0  0  0
  -22.7960  -13.6030   21.1400 C   0  0  0  0  0  0  0  0  0  0  0  0
  -22.0920  -12.8960   22.0160 N   0  0  0  0  0  0  0  0  0  0  0  0
  -22.3430  -14.6300   20.6380 O   0  0  0  0  0  0  0  0  0  0  0  0
  -22.4740  -12.0650   22.4440 H   0  0  0  0  0  0  0  0  0  0  0  0
  -21.1580  -13.1890   22.2630 H   0  0  0  0  0  0  0  0  0  0  0  0
  -25.3710  -15.3060   20.2780 N   0  0  0  0  0  0  0  0  0  0  0  0
  -24.5980  -15.9490   20.4140 H   0  0  0  0  0  0  0  0  0  0  0  0
  -26.2020  -15.7550   19.9170 H   0  0  0  0  0  0  0  0  0  0  0  0
  1  3  1  0
  2 13  2  0
  3  8  1  0
  4 12  1  0
  4 14  1  0
  5 11  1  0
  5  7  1  0
  6 12  1  0
  7  8  2  0
  7  6  1  0
  9  3  2  0
 10  9  1  0
 10  5  2  0
 11  4  1  0
 12  2  1  0
 14 16  2  0
 15 14  1  0
 15 19  1  0
 17 15  1  0
 18 27  2  0
 18 23  1  0
 19 23  1  0
 20 19  2  0
 21 22  2  0
 21 20  1  0
 22 18  1  0
 23 24  2  0
 24 25  1  0
 26 25  2  0
 27 26  1  0
 28  2  1  0
 28 29  1  0
 28 38  1  0
 29 32  1  0
 30 34  1  0
 30 29  1  0
 31 30  2  0
 34 33  1  0
 36 34  1  0
 36 37  1  0
 36 35  1  0
 38 41  1  1
 38 39  1  0
 40 38  1  0
 45 53  1  0
 46 51  1  0
 47 48  1  0
 47 46  1  0
 49 48  1  0
 49 58  1  0
 49 50  1  0
 51 45  1  0
 51 50  1  0
 52 45  2  0
 53 44  1  0
 54 53  1  0
 55 56  2  0
 56 75  1  0
 57 56  1  0
 57 60  1  0
 58 59  1  0
 58 55  1  0
 59 57  2  0
 60 61  1  0
 61 62  2  0
 63 66  1  0
 63 62  1  0
 64 63  2  0
 65 64  1  0
 65 60  2  0
 66 67  1  0
 67 68  1  0
 68 69  2  0
 70 69  1  0
 70 74  1  0
 71 70  2  0
 72 67  2  0
 72 71  1  0
 73 72  1  0
 75 76  1  0
 76 79  1  0
 76 78  1  0
 77 75  2  0
 80 81  1  0
 80 55  1  0
 82 80  1  0
M  ISO  4   1 101  42 101  45 100  53 100
M  END
>  <TORSDO>  (22) 
F 18

>  <SCORE>  (22) 
-16.165

>  <name>  (22) 
21

>  <ligand_id>  (22) 
21

>  <original_smiles>  (22) 
[H]c1c([H])c([H])c2c(c1[H])C([H])([H])C([H])([H])C([H])([H])C2([H])N([H])C(=O)C1([H])N(C(=O)C([H])(N([H])C(=O)C([H])(N([H])C([H])([H])[H])C([H])([H])[H])C(C([H])([H])[H])(C([H])([H])[H])C([H])([H])[H])C([H])([H])c2c([H])c(OC([H])([H])C([H])([H])C([H])([H])N([H])C(=O)N3C([H])([H])C([H])([H])C([H])([H])C([H])(n4nc(-c5c([H])c([H])c(Oc6c([H])c([H])c(F)c([H])c6F)c([H])c5[H])c(C(=O)N([H])[H])c4N([H])[H])C3([H])[H])c([H])c([H])c2C1([H])[H]

>  <smiles>  (22) 
[H]c1c([H])c([H])c2c(c1[H])C([H])([H])C([H])([H])C([H])([H])C2([H])N([H])C(=O)C1([H])N(C(=O)C([H])(N([H])C(=O)C([H])(N([H])C([H])([H])[H])C([H])([H])[H])C(C([H])([H])[H])(C([H])([H])[H])C([H])([H])[H])C([H])([H])c2c([H])c(OC([H])([H])C([H])([H])C([H])([H])N([H])C(=O)N3C([H])([H])C([H])([H])C([H])([H])C([H])(n4nc(-c5c([H])c([H])c(Oc6c([H])c([H])c(F)c([H])c6F)c([H])c5[H])c(C(=O)N([H])[H])c4N([H])[H])C3([H])[H])c([H])c([H])c2C1([H])[H]

$$$$
22:0:0
     RDKit          3D

 90 98  0  0  1  0  0  0  0  0999 V2000
  -28.2610  -21.6180   21.0860 C   0  0  0  0  0  3  0  0  0  0  0  0
  -28.1040  -22.7940   20.0730 C   0  0  0  0  0  3  0  0  0  0  0  0
  -28.1500  -24.2290   20.7040 C   0  0  0  0  0  2  0  0  0  0  0  0
  -28.5430  -25.3690   19.7180 C   0  0  0  0  0  2  0  0  0  0  0  0
  -28.4560  -26.7150   20.2430 O   0  0  0  0  0  0  0  0  0  0  0  0
  -24.6090  -31.9120   23.2320 C   0  0  0  0  0  0  0  0  0  0  0  0
  -27.2650  -27.4270   20.2000 C   0  0  0  0  0  0  0  0  0  0  0  0
  -23.4060  -30.4960   21.5970 C   0  0  0  0  0  3  0  0  0  0  0  0
  -24.8670  -28.9470   20.1890 C   0  0  0  0  0  0  0  0  0  0  0  0
  -25.9290  -30.8600   21.3880 C   0  0  0  0  0  2  0  0  0  0  0  0
  -26.0240  -29.4770   20.7700 C   0  0  0  0  0  0  0  0  0  0  0  0
  -27.2270  -28.7270   20.7680 C   0  0  0  0  0  3  0  0  0  0  0  0
  -26.0830  -26.9120   19.6220 C   0  0  0  0  0  3  0  0  0  0  0  0
  -24.8940  -27.6650   19.6110 C   0  0  0  0  0  3  0  0  0  0  0  0
  -23.6200  -29.8040   20.2230 C   0  0  0  0  0  2  0  0  0  0  0  0
  -24.6670  -31.1030   22.1340 N   0  0  0  0  0  0  0  0  0  0  0  0
  -23.5260  -32.1840   23.7700 O   0  0  0  0  0  0  0  0  0  0  0  0
  -22.7510  -29.4820   22.5640 C   0  0  0  0  0  0  0  0  0  0  0  0
  -21.4260  -29.3020   22.4410 N   0  0  0  0  0  0  0  0  0  0  0  0
  -23.4350  -28.8590   23.3810 O   0  0  0  0  0  0  0  0  0  0  0  0
  -20.9310  -29.8660   21.7650 H   0  0  0  0  0  0  0  0  0  0  0  0
  -18.0560  -28.1030   22.9420 C   0  0  0  0  0  0  0  0  0  0  0  0
  -20.6120  -28.3640   23.2150 C   0  0  0  0  0  3  0  0  0  0  0  0
  -20.7160  -26.9300   22.6460 C   0  0  0  0  0  2  0  0  0  0  0  0
  -19.6150  -26.6020   21.6310 C   0  0  0  0  0  2  0  0  0  0  0  0
  -18.2330  -26.7500   22.2750 C   0  0  0  0  0  2  0  0  0  0  0  0
  -19.1730  -28.8670   23.3720 C   0  0  0  0  0  0  0  0  0  0  0  0
  -18.9560  -30.1320   23.9580 C   0  0  0  0  0  3  0  0  0  0  0  0
  -17.6500  -30.6340   24.1170 C   0  0  0  0  0  3  0  0  0  0  0  0
  -16.5460  -29.8670   23.7060 C   0  0  0  0  0  3  0  0  0  0  0  0
  -16.7490  -28.6030   23.1240 C   0  0  0  0  0  3  0  0  0  0  0  0
  -25.8910  -32.5520   23.8520 C   0  0  0  0  0  3  0  0  0  0  0  0
  -25.5830  -33.9530   24.1680 N   0  0  0  0  0  0  0  0  0  0  0  0
  -25.9160  -34.9980   23.3980 C   0  0  0  0  0  0  0  0  0  0  0  0
  -26.5900  -34.8830   22.3700 O   0  0  0  0  0  0  0  0  0  0  0  0
  -24.9930  -34.1170   24.9700 H   0  0  0  0  0  0  0  0  0  0  0  0
  -24.1950  -36.7920   23.0110 C   0  0  0  0  0  1  0  0  0  0  0  0
  -25.4270  -36.3910   23.8380 C   0  0  0  0  0  3  0  0  0  0  0  0
  -27.5590  -37.2830   24.6720 C   0  0  0  0  0  1  0  0  0  0  0  0
  -26.4600  -37.4430   23.7220 N   0  0  0  0  0  0  0  0  0  0  0  0
  -26.0540  -38.3650   23.8600 H   0  0  0  0  0  0  0  0  0  0  0  0
  -26.4040  -31.7930   25.1370 C   0  0  1  0  0  0  0  0  0  0  0  0
  -25.3120  -31.5670   26.2090 C   0  0  0  0  0  1  0  0  0  0  0  0
  -26.9830  -30.4120   24.7520 C   0  0  0  0  0  1  0  0  0  0  0  0
  -27.5520  -32.5920   25.7980 C   0  0  0  0  0  1  0  0  0  0  0  0
  -28.1190  -20.2960   20.5190 O   0  0  0  0  0  0  0  0  0  0  0  0
  -31.6210  -19.1510   19.9750 C   0  0  0  0  0  3  0  0  0  0  0  0
  -31.4870  -17.7550   20.1630 C   0  0  0  0  0  3  0  0  0  0  0  0
  -30.5110  -20.0080   20.0960 C   0  0  0  0  0  3  0  0  0  0  0  0
  -29.1170  -18.0700   20.5680 C   0  0  0  0  0  3  0  0  0  0  0  0
  -30.2230  -17.1770   20.4620 C   0  0  0  0  0  0  0  0  0  0  0  0
  -29.2410  -19.4810   20.4080 C   0  0  0  0  0  0  0  0  0  0  0  0
  -30.6930  -14.6470   20.3060 C   0  0  0  0  0  0  0  0  0  0  0  0
  -30.3530  -12.4180   19.2820 C   0  0  0  0  0  2  0  0  0  0  0  0
  -29.4270  -12.6010   18.0630 C   0  0  0  0  0  2  0  0  0  0  0  0
  -27.9510  -12.4800   18.4860 C   0  0  0  0  0  2  0  0  0  0  0  0
  -27.6060  -13.3160   19.7480 C   0  0  0  0  0  3  0  0  0  0  0  0
  -28.6820  -13.1820   20.8540 C   0  0  0  0  0  2  0  0  0  0  0  0
  -30.0000  -13.4630   20.2590 N   0  0  0  0  0  0  0  0  0  0  0  0
  -31.8460  -14.7330   19.8850 O   0  0  0  0  0  0  0  0  0  0  0  0
  -29.9850  -15.7530   20.6780 N   0  0  0  0  0  0  0  0  0  0  0  0
  -29.0620  -15.5380   21.0170 H   0  0  0  0  0  0  0  0  0  0  0  0
  -25.2150  -13.8910   20.4900 C   0  0  0  0  0  0  0  0  0  0  0  0
  -24.1530  -13.1150   20.8710 C   0  0  0  0  0  0  0  0  0  0  0  0
  -24.6210  -11.7640   20.8310 C   0  0  0  0  0  0  0  0  0  0  0  0
  -26.2620  -13.0200   20.2470 N   0  0  0  0  0  0  0  0  0  0  0  0
  -25.9100  -11.7340   20.5100 N   0  0  0  0  0  0  0  0  0  0  0  0
  -23.8970  -10.5010   21.0240 C   0  0  0  0  0  0  0  0  0  0  0  0
  -24.3400   -9.5250   21.9470 C   0  0  0  0  0  3  0  0  0  0  0  0
  -23.6110   -8.3300   22.1280 C   0  0  0  0  0  3  0  0  0  0  0  0
  -22.4260   -8.1020   21.3870 C   0  0  0  0  0  0  0  0  0  0  0  0
  -22.0050   -9.0620   20.4540 C   0  0  0  0  0  3  0  0  0  0  0  0
  -22.7350  -10.2500   20.2670 C   0  0  0  0  0  3  0  0  0  0  0  0
  -21.6680   -6.9590   21.4770 O   0  0  0  0  0  0  0  0  0  0  0  0
  -21.6330   -6.2060   22.6230 C   0  0  0  0  0  0  0  0  0  0  0  0
  -21.2260   -6.7500   23.8610 C   0  0  0  0  0  3  0  0  0  0  0  0
  -21.1360   -5.9250   24.9980 C   0  0  0  0  0  3  0  0  0  0  0  0
  -21.4470   -4.5540   24.9020 C   0  0  0  0  0  0  0  0  0  0  0  0
  -21.8490   -4.0090   23.6690 C   0  0  0  0  0  3  0  0  0  0  0  0
  -21.9390   -4.8330   22.5330 C   0  0  0  0  0  0  0  0  0  0  0  0
  -22.3060   -4.2990   21.3430 F   0  0  0  0  0  0  0  0  0  0  0  0
  -21.3560   -3.7590   25.9930 F   0  0  0  0  0  0  0  0  0  0  0  0
  -22.7590  -13.5930   21.1550 C   0  0  0  0  0  0  0  0  0  0  0  0
  -22.0390  -12.8890   22.0270 N   0  0  0  0  0  0  0  0  0  0  0  0
  -22.3130  -14.6170   20.6450 O   0  0  0  0  0  0  0  0  0  0  0  0
  -22.4130  -12.0630   22.4670 H   0  0  0  0  0  0  0  0  0  0  0  0
  -21.1000  -13.1830   22.2560 H   0  0  0  0  0  0  0  0  0  0  0  0
  -25.3730  -15.2640   20.3070 N   0  0  0  0  0  0  0  0  0  0  0  0
  -24.5850  -15.9040   20.3290 H   0  0  0  0  0  0  0  0  0  0  0  0
  -26.1920  -15.6730   19.8760 H   0  0  0  0  0  0  0  0  0  0  0  0
  2  3  1  0
  2  1  2  0
  4  5  1  0
  4  3  1  0
  6 17  2  0
  7  5  1  0
  7 12  1  0
  8 16  1  0
  8 18  1  0
  9 15  1  0
  9 11  1  0
 10 16  1  0
 11 10  1  0
 12 11  2  0
 13  7  2  0
 14 13  1  0
 14  9  2  0
 15  8  1  0
 16  6  1  0
 18 20  2  0
 19 18  1  0
 21 19  1  0
 22 31  2  0
 22 27  1  0
 23 19  1  0
 23 27  1  0
 24 23  1  0
 25 26  1  0
 25 24  1  0
 26 22  1  0
 27 28  2  0
 28 29  1  0
 30 29  2  0
 31 30  1  0
 32  6  1  0
 32 33  1  0
 32 42  1  0
 33 36  1  0
 34 38  1  0
 34 33  1  0
 35 34  2  0
 38 37  1  0
 40 38  1  0
 40 41  1  0
 40 39  1  0
 42 45  1  1
 42 43  1  0
 44 42  1  0
 46  1  1  0
 47 49  2  0
 47 48  1  0
 48 51  2  0
 49 52  1  0
 51 50  1  0
 51 61  1  0
 52 46  1  0
 52 50  2  0
 53 61  1  0
 54 59  1  0
 55 56  1  0
 55 54  1  0
 57 56  1  0
 57 66  1  0
 57 58  1  0
 59 53  1  0
 59 58  1  0
 60 53  2  0
 61 62  1  0
 63 64  2  0
 64 83  1  0
 65 64  1  0
 65 68  1  0
 66 63  1  0
 66 67  1  0
 67 65  2  0
 68 69  1  0
 69 70  2  0
 71 74  1  0
 71 70  1  0
 72 71  2  0
 73 72  1  0
 73 68  2  0
 74 75  1  0
 75 76  1  0
 76 77  2  0
 78 77  1  0
 78 82  1  0
 79 78  2  0
 80 75  2  0
 80 79  1  0
 81 80  1  0
 83 84  1  0
 84 87  1  0
 84 86  1  0
 85 83  2  0
 88 89  1  0
 88 63  1  0
 90 88  1  0
M  ISO  4   4 101   5 101  53 100  61 100
M  END
>  <TORSDO>  (23) 
F 21

>  <SCORE>  (23) 
-13.667

>  <name>  (23) 
22

>  <ligand_id>  (23) 
22

>  <original_smiles>  (23) 
[H]c1c([H])c(OC([H])([H])C([H])([H])C([H])([H])C([H])([H])Oc2c([H])c([H])c3c(c2[H])C([H])([H])N(C(=O)C([H])(N([H])C(=O)C([H])(N([H])C([H])([H])[H])C([H])([H])[H])C(C([H])([H])[H])(C([H])([H])[H])C([H])([H])[H])C([H])(C(=O)N([H])C2([H])c4c([H])c([H])c([H])c([H])c4C([H])([H])C([H])([H])C2([H])[H])C3([H])[H])c([H])c(N([H])C(=O)N2C([H])([H])C([H])([H])C([H])([H])C([H])(n3nc(-c4c([H])c([H])c(Oc5c([H])c([H])c(F)c([H])c5F)c([H])c4[H])c(C(=O)N([H])[H])c3N([H])[H])C2([H])[H])c1[H]

>  <smiles>  (23) 
[H]c1c([H])c(OC([H])([H])C([H])([H])C([H])([H])C([H])([H])Oc2c([H])c([H])c3c(c2[H])C([H])([H])N(C(=O)C([H])(N([H])C(=O)C([H])(N([H])C([H])([H])[H])C([H])([H])[H])C(C([H])([H])[H])(C([H])([H])[H])C([H])([H])[H])C([H])(C(=O)N([H])C2([H])c4c([H])c([H])c([H])c([H])c4C([H])([H])C([H])([H])C2([H])[H])C3([H])[H])c([H])c(N([H])C(=O)N2C([H])([H])C([H])([H])C([H])([H])C([H])(n3nc(-c4c([H])c([H])c(Oc5c([H])c([H])c(F)c([H])c5F)c([H])c4[H])c(C(=O)N([H])[H])c3N([H])[H])C2([H])[H])c1[H]

$$$$
23:0:0
     RDKit          3D

101108  0  0  1  0  0  0  0  0999 V2000
  -24.9590  -19.9550   18.5460 C   0  0  0  0  0  0  0  0  0  0  0  0
  -24.4820  -21.0450   19.1600 N   0  0  0  0  0  0  0  0  0  0  0  0
  -24.5660  -19.5860   17.4370 O   0  0  0  0  0  0  0  0  0  0  0  0
  -24.8230  -21.2490   20.0890 H   0  0  0  0  0  0  0  0  0  0  0  0
  -26.0640  -19.1740   19.2550 C   0  0  0  0  0  2  0  0  0  0  0  0
  -27.4880  -19.7100   18.9640 C   0  0  0  0  0  2  0  0  0  0  0  0
  -29.7190  -18.5750   19.1270 C   0  0  0  0  0  0  0  0  0  0  0  0
  -28.4470  -18.6310   18.7040 N   0  0  0  0  0  0  0  0  0  0  0  0
  -30.2120  -19.4450   19.8510 O   0  0  0  0  0  0  0  0  0  0  0  0
  -28.1470  -17.9070   18.0650 H   0  0  0  0  0  0  0  0  0  0  0  0
  -30.5680  -17.3720   18.6540 C   0  0  0  0  0  3  0  0  0  0  0  0
  -32.1630  -15.8450   19.8910 C   0  0  0  0  0  0  0  0  0  0  0  0
  -32.1930  -13.3840   19.8490 C   0  0  0  0  0  2  0  0  0  0  0  0
  -31.4020  -12.8820   18.6280 C   0  0  0  0  0  2  0  0  0  0  0  0
  -29.9090  -12.7210   18.9800 C   0  0  0  0  0  2  0  0  0  0  0  0
  -29.3220  -13.9660   19.6880 C   0  0  0  0  0  3  0  0  0  0  0  0
  -30.2450  -14.4770   20.8140 C   0  0  0  0  0  2  0  0  0  0  0  0
  -31.5880  -14.6650   20.2470 N   0  0  0  0  0  0  0  0  0  0  0  0
  -33.3490  -15.9400   19.5910 O   0  0  0  0  0  0  0  0  0  0  0  0
  -31.3770  -16.9300   19.8120 N   0  0  0  0  0  0  0  0  0  0  0  0
  -31.8290  -17.7410   20.2030 H   0  0  0  0  0  0  0  0  0  0  0  0
  -26.9570  -14.6580   20.4050 C   0  0  0  0  0  0  0  0  0  0  0  0
  -25.8490  -13.9350   20.7400 C   0  0  0  0  0  0  0  0  0  0  0  0
  -26.2480  -12.5670   20.6730 C   0  0  0  0  0  0  0  0  0  0  0  0
  -27.9590  -13.7380   20.1550 N   0  0  0  0  0  0  0  0  0  0  0  0
  -27.5380  -12.4710   20.3760 N   0  0  0  0  0  0  0  0  0  0  0  0
  -25.4630  -11.3380   20.8180 C   0  0  0  0  0  0  0  0  0  0  0  0
  -25.6640  -10.4600   21.9050 C   0  0  0  0  0  3  0  0  0  0  0  0
  -24.8840   -9.2910   22.0290 C   0  0  0  0  0  3  0  0  0  0  0  0
  -23.8910   -8.9960   21.0660 C   0  0  0  0  0  0  0  0  0  0  0  0
  -23.7120   -9.8620   19.9740 C   0  0  0  0  0  3  0  0  0  0  0  0
  -24.4920  -11.0230   19.8480 C   0  0  0  0  0  3  0  0  0  0  0  0
  -23.1010   -7.8740   21.0940 O   0  0  0  0  0  0  0  0  0  0  0  0
  -22.5480   -7.4130   22.2620 C   0  0  0  0  0  0  0  0  0  0  0  0
  -21.6730   -8.2070   23.0370 C   0  0  0  0  0  3  0  0  0  0  0  0
  -21.0710   -7.6670   24.1920 C   0  0  0  0  0  3  0  0  0  0  0  0
  -21.3370   -6.3370   24.5710 C   0  0  0  0  0  0  0  0  0  0  0  0
  -22.2080   -5.5470   23.8000 C   0  0  0  0  0  3  0  0  0  0  0  0
  -22.8090   -6.0840   22.6480 C   0  0  0  0  0  0  0  0  0  0  0  0
  -23.6330   -5.3120   21.8970 F   0  0  0  0  0  0  0  0  0  0  0  0
  -20.7500   -5.8150   25.6740 F   0  0  0  0  0  0  0  0  0  0  0  0
  -24.4760  -14.4800   21.0130 C   0  0  0  0  0  0  0  0  0  0  0  0
  -23.7010  -13.7900   21.8440 N   0  0  0  0  0  0  0  0  0  0  0  0
  -24.1040  -15.5520   20.5370 O   0  0  0  0  0  0  0  0  0  0  0  0
  -24.0230  -12.9310   22.2660 H   0  0  0  0  0  0  0  0  0  0  0  0
  -22.7900  -14.1470   22.0910 H   0  0  0  0  0  0  0  0  0  0  0  0
  -27.1940  -16.0150   20.2780 N   0  0  0  0  0  0  0  0  0  0  0  0
  -26.4850  -16.7070   20.4850 H   0  0  0  0  0  0  0  0  0  0  0  0
  -28.1090  -16.4030   20.1120 H   0  0  0  0  0  0  0  0  0  0  0  0
  -30.5160  -18.1860   16.1780 C   0  0  0  0  0  1  0  0  0  0  0  0
  -31.9100  -16.2640   16.7440 C   0  0  0  0  0  1  0  0  0  0  0  0
  -32.5720  -18.5770   17.5240 C   0  0  0  0  0  1  0  0  0  0  0  0
  -31.3920  -17.6040   17.3180 C   0  0  2  0  0  0  0  0  0  0  0  0
  -23.5860  -22.0330   18.5570 C   0  0  0  0  0  2  0  0  0  0  0  0
  -24.2450  -23.4280   18.4920 C   0  0  0  0  0  2  0  0  0  0  0  0
  -25.2420  -23.5700   17.3300 C   0  0  0  0  0  2  0  0  0  0  0  0
  -26.3120  -24.6370   17.5400 C   0  0  0  0  0  2  0  0  0  0  0  0
  -27.0990  -24.8420   16.2400 C   0  0  0  0  0  2  0  0  0  0  0  0
  -28.3430  -25.7110   16.4380 C   0  0  0  0  0  2  0  0  0  0  0  0
  -28.3120  -27.0150   15.6220 C   0  0  0  0  0  2  0  0  0  0  0  0
  -28.1530  -28.1240   16.4920 O   0  0  0  0  0  0  0  0  0  0  0  0
  -24.8620  -28.1490   22.7670 C   0  0  0  0  0  0  0  0  0  0  0  0
  -26.9470  -28.3220   17.1330 C   0  0  0  0  0  0  0  0  0  0  0  0
  -23.3850  -28.4390   20.8010 C   0  0  0  0  0  3  0  0  0  0  0  0
  -24.5690  -28.8260   18.5770 C   0  0  0  0  0  0  0  0  0  0  0  0
  -25.8320  -29.1620   20.7120 C   0  0  0  0  0  2  0  0  0  0  0  0
  -25.8060  -28.8540   19.2290 C   0  0  0  0  0  0  0  0  0  0  0  0
  -26.9930  -28.6070   18.5120 C   0  0  0  0  0  3  0  0  0  0  0  0
  -25.6920  -28.2900   16.4840 C   0  0  0  0  0  3  0  0  0  0  0  0
  -24.5040  -28.5360   17.2020 C   0  0  0  0  0  3  0  0  0  0  0  0
  -23.3510  -29.1400   19.4140 C   0  0  0  0  0  2  0  0  0  0  0  0
  -24.7210  -28.5450   21.4700 N   0  0  0  0  0  0  0  0  0  0  0  0
  -23.8930  -27.7430   23.4220 O   0  0  0  0  0  0  0  0  0  0  0  0
  -22.9040  -26.9830   20.6230 C   0  0  0  0  0  0  0  0  0  0  0  0
  -21.6060  -26.8170   20.3320 N   0  0  0  0  0  0  0  0  0  0  0  0
  -23.6950  -26.0380   20.7130 O   0  0  0  0  0  0  0  0  0  0  0  0
  -21.0250  -27.6430   20.2810 H   0  0  0  0  0  0  0  0  0  0  0  0
  -18.4750  -25.3200   19.3290 C   0  0  0  0  0  0  0  0  0  0  0  0
  -20.9390  -25.5420   20.0810 C   0  0  0  0  0  3  0  0  0  0  0  0
  -21.3080  -24.9850   18.6880 C   0  0  0  0  0  2  0  0  0  0  0  0
  -20.3160  -25.3880   17.5940 C   0  0  0  0  0  2  0  0  0  0  0  0
  -18.9070  -24.8970   17.9350 C   0  0  0  0  0  2  0  0  0  0  0  0
  -19.4290  -25.6380   20.3330 C   0  0  0  0  0  0  0  0  0  0  0  0
  -18.9780  -26.0600   21.6030 C   0  0  0  0  0  3  0  0  0  0  0  0
  -17.6020  -26.1640   21.8780 C   0  0  0  0  0  3  0  0  0  0  0  0
  -16.6610  -25.8370   20.8870 C   0  0  0  0  0  3  0  0  0  0  0  0
  -17.0980  -25.4090   19.6200 C   0  0  0  0  0  3  0  0  0  0  0  0
  -26.2410  -28.2140   23.4970 C   0  0  0  0  0  3  0  0  0  0  0  0
  -26.0730  -29.0570   24.6860 N   0  0  0  0  0  0  0  0  0  0  0  0
  -26.5230  -30.3140   24.7950 C   0  0  0  0  0  0  0  0  0  0  0  0
  -27.2000  -30.8610   23.9210 O   0  0  0  0  0  0  0  0  0  0  0  0
  -25.4850  -28.6910   25.4230 H   0  0  0  0  0  0  0  0  0  0  0  0
  -25.0310  -32.0740   25.7890 C   0  0  0  0  0  1  0  0  0  0  0  0
  -26.1700  -31.0850   26.0810 C   0  0  0  0  0  3  0  0  0  0  0  0
  -28.3340  -30.9130   27.2280 C   0  0  0  0  0  1  0  0  0  0  0  0
  -27.3180  -31.8040   26.6710 N   0  0  0  0  0  0  0  0  0  0  0  0
  -27.0100  -32.4310   27.4080 H   0  0  0  0  0  0  0  0  0  0  0  0
  -26.8000  -26.7930   23.8950 C   0  0  1  0  0  0  0  0  0  0  0  0
  -25.7900  -25.9320   24.6910 C   0  0  0  0  0  1  0  0  0  0  0  0
  -27.2120  -25.9960   22.6360 C   0  0  0  0  0  1  0  0  0  0  0  0
  -28.0750  -26.9510   24.7590 C   0  0  0  0  0  1  0  0  0  0  0  0
  1  2  1  0
  1  5  1  0
  2  4  1  0
  3  1  2  0
  6  5  1  0
  7  9  2  0
  8  6  1  0
  8  7  1  0
 10  8  1  0
 11  7  1  0
 11 20  1  0
 12 18  1  0
 13 18  1  0
 14 15  1  0
 14 13  1  0
 16 15  1  0
 16 25  1  0
 16 17  1  0
 18 17  1  0
 19 12  2  0
 20 12  1  0
 20 21  1  0
 22 23  2  0
 23 42  1  0
 24 23  1  0
 24 27  1  0
 25 26  1  0
 25 22  1  0
 26 24  2  0
 27 28  1  0
 28 29  2  0
 30 33  1  0
 30 29  1  0
 31 30  2  0
 32 31  1  0
 32 27  2  0
 33 34  1  0
 34 39  2  0
 34 35  1  0
 35 36  2  0
 36 37  1  0
 37 41  1  0
 38 37  2  0
 39 38  1  0
 40 39  1  0
 42 43  1  0
 43 46  1  0
 43 45  1  0
 44 42  2  0
 47 22  1  0
 47 48  1  0
 49 47  1  0
 53 50  1  6
 51 53  1  0
 53 52  1  0
 53 11  1  0
 54  2  1  0
 55 54  1  0
 56 57  1  0
 56 55  1  0
 58 59  1  0
 58 57  1  0
 60 59  1  0
 60 61  1  0
 61 63  1  0
 62 73  2  0
 63 68  1  0
 64 74  1  0
 64 72  1  0
 65 67  1  0
 65 71  1  0
 66 72  1  0
 67 66  1  0
 68 67  2  0
 69 63  2  0
 69 70  1  0
 70 65  2  0
 71 64  1  0
 72 62  1  0
 74 76  2  0
 75 74  1  0
 77 75  1  0
 78 87  2  0
 78 83  1  0
 79 75  1  0
 79 83  1  0
 80 79  1  0
 81 82  1  0
 81 80  1  0
 82 78  1  0
 83 84  2  0
 84 85  1  0
 86 85  2  0
 87 86  1  0
 88 62  1  0
 88 98  1  0
 88 89  1  0
 89 90  1  0
 89 92  1  0
 90 94  1  0
 91 90  2  0
 94 93  1  0
 94 96  1  0
 96 95  1  0
 96 97  1  0
 98 99  1  1
 98101  1  0
100 98  1  0
M  ISO  4  12 100  20 100  60 101  61 101
M  END
>  <TORSDO>  (24) 
F 28

>  <SCORE>  (24) 
-4.499

>  <name>  (24) 
23

>  <ligand_id>  (24) 
23

>  <original_smiles>  (24) 
[H]c1c([H])c([H])c2c(c1[H])C([H])([H])C([H])([H])C([H])([H])C2([H])N([H])C(=O)C1([H])N(C(=O)C([H])(N([H])C(=O)C([H])(N([H])C([H])([H])[H])C([H])([H])[H])C(C([H])([H])[H])(C([H])([H])[H])C([H])([H])[H])C([H])([H])c2c([H])c(OC([H])([H])C([H])([H])C([H])([H])C([H])([H])C([H])([H])C([H])([H])C([H])([H])N([H])C(=O)C([H])([H])C([H])([H])N([H])C(=O)C([H])(N([H])C(=O)N3C([H])([H])C([H])([H])C([H])([H])C([H])(n4nc(-c5c([H])c([H])c(Oc6c([H])c([H])c(F)c([H])c6F)c([H])c5[H])c(C(=O)N([H])[H])c4N([H])[H])C3([H])[H])C(C([H])([H])[H])(C([H])([H])[H])C([H])([H])[H])c([H])c([H])c2C1([H])[H]

>  <smiles>  (24) 
[H]c1c([H])c([H])c2c(c1[H])C([H])([H])C([H])([H])C([H])([H])C2([H])N([H])C(=O)C1([H])N(C(=O)C([H])(N([H])C(=O)C([H])(N([H])C([H])([H])[H])C([H])([H])[H])C(C([H])([H])[H])(C([H])([H])[H])C([H])([H])[H])C([H])([H])c2c([H])c(OC([H])([H])C([H])([H])C([H])([H])C([H])([H])C([H])([H])C([H])([H])C([H])([H])N([H])C(=O)C([H])([H])C([H])([H])N([H])C(=O)C([H])(N([H])C(=O)N3C([H])([H])C([H])([H])C([H])([H])C([H])(n4nc(-c5c([H])c([H])c(Oc6c([H])c([H])c(F)c([H])c6F)c([H])c5[H])c(C(=O)N([H])[H])c4N([H])[H])C3([H])[H])C(C([H])([H])[H])(C([H])([H])[H])C([H])([H])[H])c([H])c([H])c2C1([H])[H]

$$$$
24:0:0
     RDKit          3D

 86 94  0  0  1  0  0  0  0  0999 V2000
  -31.1700  -20.9320   20.4430 C   0  0  0  0  0  3  0  0  0  0  0  0
  -30.2760  -22.0570   20.4060 C   0  0  0  0  0  3  0  0  0  0  0  0
  -30.8430  -19.5330   20.3890 C   0  0  0  0  0  3  0  0  0  0  0  0
  -28.5970  -20.3530   20.2540 C   0  0  0  0  0  3  0  0  0  0  0  0
  -28.8660  -21.9710   20.3050 C   0  0  0  0  0  0  0  0  0  0  0  0
  -29.5320  -19.0050   20.2890 C   0  0  0  0  0  0  0  0  0  0  0  0
  -30.1920  -15.8550   20.2000 C   0  0  0  0  0  0  0  0  0  0  0  0
  -30.3410  -13.2850   19.3630 C   0  0  0  0  0  2  0  0  0  0  0  0
  -29.4560  -12.8160   18.1690 C   0  0  0  0  0  2  0  0  0  0  0  0
  -28.0490  -12.4220   18.6400 C   0  0  0  0  0  2  0  0  0  0  0  0
  -27.5220  -13.4180   19.6950 C   0  0  0  0  0  3  0  0  0  0  0  0
  -28.5540  -13.7840   20.7920 C   0  0  0  0  0  2  0  0  0  0  0  0
  -29.6910  -14.4650   20.1150 N   0  0  0  0  0  0  0  0  0  0  0  0
  -31.4300  -15.7760   20.0400 O   0  0  0  0  0  0  0  0  0  0  0  0
  -29.4130  -17.2430   20.2600 N   0  0  0  0  0  0  0  0  0  0  0  0
  -28.4360  -16.9880   20.2920 H   0  0  0  0  0  0  0  0  0  0  0  0
  -25.1650  -13.9080   20.4880 C   0  0  0  0  0  0  0  0  0  0  0  0
  -24.1200  -13.1120   20.8580 C   0  0  0  0  0  0  0  0  0  0  0  0
  -24.6060  -11.7690   20.8140 C   0  0  0  0  0  0  0  0  0  0  0  0
  -26.2190  -13.0530   20.2290 N   0  0  0  0  0  0  0  0  0  0  0  0
  -25.8990  -11.7570   20.4910 N   0  0  0  0  0  0  0  0  0  0  0  0
  -23.8950  -10.4960   20.9990 C   0  0  0  0  0  0  0  0  0  0  0  0
  -24.3210   -9.5410   21.9480 C   0  0  0  0  0  3  0  0  0  0  0  0
  -23.6030   -8.3370   22.1240 C   0  0  0  0  0  3  0  0  0  0  0  0
  -22.4450   -8.0810   21.3530 C   0  0  0  0  0  0  0  0  0  0  0  0
  -22.0370   -9.0260   20.3930 C   0  0  0  0  0  3  0  0  0  0  0  0
  -22.7560  -10.2200   20.2160 C   0  0  0  0  0  3  0  0  0  0  0  0
  -21.7000   -6.9290   21.4370 O   0  0  0  0  0  0  0  0  0  0  0  0
  -21.6170   -6.2090   22.6020 C   0  0  0  0  0  0  0  0  0  0  0  0
  -21.1080   -6.7740   23.7910 C   0  0  0  0  0  3  0  0  0  0  0  0
  -20.9740   -5.9790   24.9470 C   0  0  0  0  0  3  0  0  0  0  0  0
  -21.3410   -4.6210   24.9140 C   0  0  0  0  0  0  0  0  0  0  0  0
  -21.8440   -4.0550   23.7290 C   0  0  0  0  0  3  0  0  0  0  0  0
  -21.9780   -4.8470   22.5760 C   0  0  0  0  0  0  0  0  0  0  0  0
  -22.4430   -4.2910   21.4310 F   0  0  0  0  0  0  0  0  0  0  0  0
  -21.2070   -3.8540   26.0220 F   0  0  0  0  0  0  0  0  0  0  0  0
  -22.7170  -13.5690   21.1330 C   0  0  0  0  0  0  0  0  0  0  0  0
  -22.0030  -12.8670   22.0040 N   0  0  0  0  0  0  0  0  0  0  0  0
  -22.2660  -14.5890   20.6110 O   0  0  0  0  0  0  0  0  0  0  0  0
  -22.3830  -12.0440   22.4480 H   0  0  0  0  0  0  0  0  0  0  0  0
  -21.0620  -13.1570   22.2300 H   0  0  0  0  0  0  0  0  0  0  0  0
  -25.3030  -15.2820   20.3150 N   0  0  0  0  0  0  0  0  0  0  0  0
  -24.5210  -15.9180   20.4310 H   0  0  0  0  0  0  0  0  0  0  0  0
  -26.1290  -15.7320   19.9470 H   0  0  0  0  0  0  0  0  0  0  0  0
  -27.9040  -23.6280   20.2440 C   0  0  0  0  0  2  0  0  0  0  0  0
  -28.1320  -25.4200   20.3730 O   0  0  0  0  0  0  0  0  0  0  0  0
  -24.6750  -31.8720   23.2620 C   0  0  0  0  0  0  0  0  0  0  0  0
  -27.1850  -26.6880   20.3150 C   0  0  0  0  0  0  0  0  0  0  0  0
  -23.4950  -30.4780   21.6190 C   0  0  0  0  0  3  0  0  0  0  0  0
  -24.9430  -28.7980   20.2290 C   0  0  0  0  0  0  0  0  0  0  0  0
  -26.0790  -30.5740   21.5310 C   0  0  0  0  0  2  0  0  0  0  0  0
  -26.1380  -29.1300   20.8780 C   0  0  0  0  0  0  0  0  0  0  0  0
  -27.2390  -28.1060   20.8840 C   0  0  0  0  0  3  0  0  0  0  0  0
  -25.9550  -26.5930   19.6070 C   0  0  0  0  0  3  0  0  0  0  0  0
  -24.8960  -27.5580   19.5690 C   0  0  0  0  0  3  0  0  0  0  0  0
  -23.7460  -29.7690   20.2550 C   0  0  0  0  0  2  0  0  0  0  0  0
  -24.7750  -31.0100   22.1900 N   0  0  0  0  0  0  0  0  0  0  0  0
  -23.5770  -32.1850   23.7580 O   0  0  0  0  0  0  0  0  0  0  0  0
  -22.7530  -29.5170   22.5880 C   0  0  0  0  0  0  0  0  0  0  0  0
  -21.4200  -29.3750   22.4510 N   0  0  0  0  0  0  0  0  0  0  0  0
  -23.3920  -28.8940   23.4400 O   0  0  0  0  0  0  0  0  0  0  0  0
  -20.9530  -29.9280   21.7440 H   0  0  0  0  0  0  0  0  0  0  0  0
  -18.0190  -28.1820   22.9320 C   0  0  0  0  0  0  0  0  0  0  0  0
  -20.5780  -28.4480   23.2190 C   0  0  0  0  0  3  0  0  0  0  0  0
  -20.6800  -27.0100   22.6570 C   0  0  0  0  0  2  0  0  0  0  0  0
  -19.5890  -26.6850   21.6310 C   0  0  0  0  0  2  0  0  0  0  0  0
  -18.2010  -26.8320   22.2590 C   0  0  0  0  0  2  0  0  0  0  0  0
  -19.1330  -28.9480   23.3680 C   0  0  0  0  0  0  0  0  0  0  0  0
  -18.9060  -30.2070   23.9630 C   0  0  0  0  0  3  0  0  0  0  0  0
  -17.5980  -30.7030   24.1240 C   0  0  0  0  0  3  0  0  0  0  0  0
  -16.4980  -29.9370   23.7000 C   0  0  0  0  0  3  0  0  0  0  0  0
  -16.7090  -28.6770   23.1110 C   0  0  0  0  0  3  0  0  0  0  0  0
  -25.9330  -32.5200   23.9170 C   0  0  0  0  0  3  0  0  0  0  0  0
  -25.6150  -33.9250   24.2440 N   0  0  0  0  0  0  0  0  0  0  0  0
  -25.9320  -34.9870   23.4900 C   0  0  0  0  0  0  0  0  0  0  0  0
  -26.5750  -34.8860   22.4430 O   0  0  0  0  0  0  0  0  0  0  0  0
  -25.0360  -34.0750   25.0570 H   0  0  0  0  0  0  0  0  0  0  0  0
  -24.1820  -36.7830   23.2210 C   0  0  0  0  0  1  0  0  0  0  0  0
  -25.4640  -36.3790   23.9670 C   0  0  0  0  0  3  0  0  0  0  0  0
  -27.6290  -37.2890   24.6910 C   0  0  0  0  0  1  0  0  0  0  0  0
  -26.4850  -37.4380   23.7970 N   0  0  0  0  0  0  0  0  0  0  0  0
  -26.0790  -38.3570   23.9500 H   0  0  0  0  0  0  0  0  0  0  0  0
  -26.4050  -31.7660   25.2230 C   0  0  1  0  0  0  0  0  0  0  0  0
  -25.2830  -31.5600   26.2680 C   0  0  0  0  0  1  0  0  0  0  0  0
  -26.9830  -30.3740   24.8840 C   0  0  0  0  0  1  0  0  0  0  0  0
  -27.5480  -32.5590   25.9010 C   0  0  0  0  0  1  0  0  0  0  0  0
  2  1  1  0
  3  1  2  0
  4  6  2  0
  4  5  1  0
  5  2  2  0
  6  3  1  0
  7 15  1  0
  8 13  1  0
  9 10  1  0
  9  8  1  0
 11 10  1  0
 11 20  1  0
 11 12  1  0
 13  7  1  0
 13 12  1  0
 14  7  2  0
 15  6  1  0
 15 16  1  0
 17 18  2  0
 18 37  1  0
 19 18  1  0
 19 22  1  0
 20 17  1  0
 20 21  1  0
 21 19  2  0
 22 23  1  0
 23 24  2  0
 25 28  1  0
 25 24  1  0
 26 25  2  0
 27 26  1  0
 27 22  2  0
 28 29  1  0
 29 30  1  0
 30 31  2  0
 32 31  1  0
 32 36  1  0
 33 32  2  0
 34 29  2  0
 34 33  1  0
 35 34  1  0
 37 38  1  0
 38 41  1  0
 38 40  1  0
 39 37  2  0
 42 43  1  0
 42 17  1  0
 44 42  1  0
 45  5  1  0
 45 46  1  0
 47 58  2  0
 48 46  1  0
 48 53  1  0
 49 57  1  0
 49 59  1  0
 50 56  1  0
 50 52  1  0
 51 57  1  0
 52 53  2  0
 52 51  1  0
 54 48  2  0
 55 54  1  0
 55 50  2  0
 56 49  1  0
 57 47  1  0
 59 61  2  0
 60 59  1  0
 62 60  1  0
 63 72  2  0
 63 68  1  0
 64 60  1  0
 64 68  1  0
 65 64  1  0
 66 67  1  0
 66 65  1  0
 67 63  1  0
 68 69  2  0
 69 70  1  0
 71 70  2  0
 72 71  1  0
 73 47  1  0
 73 74  1  0
 73 83  1  0
 74 77  1  0
 75 79  1  0
 75 74  1  0
 76 75  2  0
 79 78  1  0
 81 82  1  0
 81 79  1  0
 81 80  1  0
 83 86  1  1
 83 84  1  0
 85 83  1  0
M  ISO  4   7 100  15 100  45 101  46 101
M  END
>  <TORSDO>  (25) 
F 17

>  <SCORE>  (25) 
-16.516

>  <name>  (25) 
24

>  <ligand_id>  (25) 
24

>  <original_smiles>  (25) 
[H]c1c([H])c(N([H])C(=O)N2C([H])([H])C([H])([H])C([H])([H])C([H])(n3nc(-c4c([H])c([H])c(Oc5c([H])c([H])c(F)c([H])c5F)c([H])c4[H])c(C(=O)N([H])[H])c3N([H])[H])C2([H])[H])c([H])c(C([H])([H])Oc2c([H])c([H])c3c(c2[H])C([H])([H])N(C(=O)C([H])(N([H])C(=O)C([H])(N([H])C([H])([H])[H])C([H])([H])[H])C(C([H])([H])[H])(C([H])([H])[H])C([H])([H])[H])C([H])(C(=O)N([H])C2([H])c4c([H])c([H])c([H])c([H])c4C([H])([H])C([H])([H])C2([H])[H])C3([H])[H])c1[H]

>  <smiles>  (25) 
[H]c1c([H])c(N([H])C(=O)N2C([H])([H])C([H])([H])C([H])([H])C([H])(n3nc(-c4c([H])c([H])c(Oc5c([H])c([H])c(F)c([H])c5F)c([H])c4[H])c(C(=O)N([H])[H])c3N([H])[H])C2([H])[H])c([H])c(C([H])([H])Oc2c([H])c([H])c3c(c2[H])C([H])([H])N(C(=O)C([H])(N([H])C(=O)C([H])(N([H])C([H])([H])[H])C([H])([H])[H])C(C([H])([H])[H])(C([H])([H])[H])C([H])([H])[H])C([H])(C(=O)N([H])C2([H])c4c([H])c([H])c([H])c([H])c4C([H])([H])C([H])([H])C2([H])[H])C3([H])[H])c1[H]

$$$$
25:0:0
     RDKit          3D

 89 97  0  0  1  0  0  0  0  0999 V2000
  -26.7960  -19.3320   19.8320 C   0  0  0  0  0  3  0  0  0  0  0  0
  -27.7570  -18.2960   19.7960 C   0  0  0  0  0  3  0  0  0  0  0  0
  -27.4590  -20.5040   20.0100 C   0  0  0  0  0  3  0  0  0  0  0  0
  -29.0290  -18.7870   19.9770 C   0  0  0  0  0  0  0  0  0  0  0  0
  -28.8340  -20.3030   20.0830 N   0  0  0  0  0  0  0  0  0  0  0  0
  -30.7590  -15.0660   19.8960 C   0  0  0  0  0  0  0  0  0  0  0  0
  -30.6080  -12.6850   18.9860 C   0  0  0  0  0  2  0  0  0  0  0  0
  -29.6150  -12.5930   17.8040 C   0  0  0  0  0  2  0  0  0  0  0  0
  -28.1830  -12.3670   18.3160 C   0  0  0  0  0  2  0  0  0  0  0  0
  -27.8250  -13.3140   19.4890 C   0  0  0  0  0  3  0  0  0  0  0  0
  -28.9330  -13.3720   20.5610 C   0  0  0  0  0  2  0  0  0  0  0  0
  -30.1640  -13.7960   19.8800 N   0  0  0  0  0  0  0  0  0  0  0  0
  -31.9600  -15.0910   19.5950 O   0  0  0  0  0  0  0  0  0  0  0  0
  -30.2190  -17.6830   19.9830 C   0  0  0  0  0  0  0  0  0  0  0  0
  -29.9680  -16.2610   20.0330 N   0  0  0  0  0  0  0  0  0  0  0  0
  -31.3770  -18.1120   19.9330 O   0  0  0  0  0  0  0  0  0  0  0  0
  -28.9920  -16.0590   20.1570 H   0  0  0  0  0  0  0  0  0  0  0  0
  -25.5030  -13.9000   20.3810 C   0  0  0  0  0  0  0  0  0  0  0  0
  -24.4550  -13.1290   20.8030 C   0  0  0  0  0  0  0  0  0  0  0  0
  -24.9020  -11.7740   20.7170 C   0  0  0  0  0  0  0  0  0  0  0  0
  -26.5200  -13.0160   20.0610 N   0  0  0  0  0  0  0  0  0  0  0  0
  -26.1720  -11.7310   20.3320 N   0  0  0  0  0  0  0  0  0  0  0  0
  -24.1720  -10.5170   20.9220 C   0  0  0  0  0  0  0  0  0  0  0  0
  -24.5970   -9.5610   21.8700 C   0  0  0  0  0  3  0  0  0  0  0  0
  -23.8650   -8.3700   22.0630 C   0  0  0  0  0  3  0  0  0  0  0  0
  -22.6940   -8.1260   21.3070 C   0  0  0  0  0  0  0  0  0  0  0  0
  -22.2880   -9.0700   20.3460 C   0  0  0  0  0  3  0  0  0  0  0  0
  -23.0210  -10.2530   20.1530 C   0  0  0  0  0  3  0  0  0  0  0  0
  -21.9330   -6.9860   21.4090 O   0  0  0  0  0  0  0  0  0  0  0  0
  -21.8110   -6.3070   22.5930 C   0  0  0  0  0  0  0  0  0  0  0  0
  -21.2350   -6.9000   23.7380 C   0  0  0  0  0  3  0  0  0  0  0  0
  -21.0670   -6.1420   24.9140 C   0  0  0  0  0  3  0  0  0  0  0  0
  -21.4660   -4.7910   24.9440 C   0  0  0  0  0  0  0  0  0  0  0  0
  -22.0350   -4.1980   23.8040 C   0  0  0  0  0  3  0  0  0  0  0  0
  -22.2030   -4.9540   22.6300 C   0  0  0  0  0  0  0  0  0  0  0  0
  -22.7320   -4.3720   21.5270 F   0  0  0  0  0  0  0  0  0  0  0  0
  -21.2990   -4.0600   26.0710 F   0  0  0  0  0  0  0  0  0  0  0  0
  -23.0800  -13.6150   21.1590 C   0  0  0  0  0  0  0  0  0  0  0  0
  -22.3920  -12.9040   22.0460 N   0  0  0  0  0  0  0  0  0  0  0  0
  -22.6280  -14.6570   20.6860 O   0  0  0  0  0  0  0  0  0  0  0  0
  -22.7750  -12.0580   22.4420 H   0  0  0  0  0  0  0  0  0  0  0  0
  -21.4730  -13.2070   22.3340 H   0  0  0  0  0  0  0  0  0  0  0  0
  -25.6640  -15.2690   20.2110 N   0  0  0  0  0  0  0  0  0  0  0  0
  -24.8910  -15.9100   20.3530 H   0  0  0  0  0  0  0  0  0  0  0  0
  -26.4080  -15.6670   19.6540 H   0  0  0  0  0  0  0  0  0  0  0  0
  -29.6010  -21.6710   20.3370 C   0  0  0  0  0  2  0  0  0  0  0  0
  -29.0900  -23.2300   19.7840 C   0  0  0  0  0  2  0  0  0  0  0  0
  -28.4690  -24.6060   20.5980 C   0  0  0  0  0  2  0  0  0  0  0  0
  -28.5960  -26.1450   20.2640 O   0  0  0  0  0  0  0  0  0  0  0  0
  -24.6760  -31.7160   23.2260 C   0  0  0  0  0  0  0  0  0  0  0  0
  -27.5000  -27.0960   20.2400 C   0  0  0  0  0  0  0  0  0  0  0  0
  -23.5870  -30.3400   21.4930 C   0  0  0  0  0  3  0  0  0  0  0  0
  -25.1390  -28.8070   20.1220 C   0  0  0  0  0  0  0  0  0  0  0  0
  -26.1430  -30.6490   21.4670 C   0  0  0  0  0  2  0  0  0  0  0  0
  -26.2810  -29.2700   20.7880 C   0  0  0  0  0  0  0  0  0  0  0  0
  -27.4670  -28.4340   20.8190 C   0  0  0  0  0  3  0  0  0  0  0  0
  -26.3240  -26.7340   19.5530 C   0  0  0  0  0  3  0  0  0  0  0  0
  -25.1710  -27.5510   19.4950 C   0  0  0  0  0  3  0  0  0  0  0  0
  -23.8930  -29.6840   20.1210 C   0  0  0  0  0  2  0  0  0  0  0  0
  -24.8190  -30.9240   22.1170 N   0  0  0  0  0  0  0  0  0  0  0  0
  -23.5590  -31.9680   23.7050 O   0  0  0  0  0  0  0  0  0  0  0  0
  -22.8770  -29.3050   22.3990 C   0  0  0  0  0  0  0  0  0  0  0  0
  -21.5460  -29.1690   22.2480 N   0  0  0  0  0  0  0  0  0  0  0  0
  -23.5250  -28.6230   23.1980 O   0  0  0  0  0  0  0  0  0  0  0  0
  -21.0830  -29.7620   21.5720 H   0  0  0  0  0  0  0  0  0  0  0  0
  -18.1270  -28.0790   22.7310 C   0  0  0  0  0  0  0  0  0  0  0  0
  -20.6970  -28.2120   22.9600 C   0  0  0  0  0  3  0  0  0  0  0  0
  -20.7260  -26.8290   22.2690 C   0  0  0  0  0  2  0  0  0  0  0  0
  -19.5930  -26.6390   21.2560 C   0  0  0  0  0  2  0  0  0  0  0  0
  -18.2320  -26.7850   21.9420 C   0  0  0  0  0  2  0  0  0  0  0  0
  -19.2850  -28.7590   23.1940 C   0  0  0  0  0  0  0  0  0  0  0  0
  -19.1300  -29.9770   23.8930 C   0  0  0  0  0  3  0  0  0  0  0  0
  -17.8520  -30.5130   24.1340 C   0  0  0  0  0  3  0  0  0  0  0  0
  -16.7080  -29.8280   23.6860 C   0  0  0  0  0  3  0  0  0  0  0  0
  -16.8460  -28.6130   22.9910 C   0  0  0  0  0  3  0  0  0  0  0  0
  -25.9070  -32.3580   23.9370 C   0  0  0  0  0  3  0  0  0  0  0  0
  -26.3370  -31.5900   25.2470 C   0  0  1  0  0  0  0  0  0  0  0  0
  -25.1700  -31.3460   26.2340 C   0  0  0  0  0  1  0  0  0  0  0  0
  -26.9580  -30.2160   24.9040 C   0  0  0  0  0  1  0  0  0  0  0  0
  -27.4320  -32.3950   25.9870 C   0  0  0  0  0  1  0  0  0  0  0  0
  -25.5640  -33.7530   24.2520 N   0  0  0  0  0  0  0  0  0  0  0  0
  -25.9270  -34.8160   23.5210 C   0  0  0  0  0  0  0  0  0  0  0  0
  -26.6500  -34.7240   22.5260 O   0  0  0  0  0  0  0  0  0  0  0  0
  -24.9250  -33.8960   25.0210 H   0  0  0  0  0  0  0  0  0  0  0  0
  -24.2110  -36.6050   23.0870 C   0  0  0  0  0  1  0  0  0  0  0  0
  -25.4080  -36.1990   23.9620 C   0  0  0  0  0  3  0  0  0  0  0  0
  -27.4750  -37.1000   24.9360 C   0  0  0  0  0  1  0  0  0  0  0  0
  -26.4420  -37.2580   23.9160 N   0  0  0  0  0  0  0  0  0  0  0  0
  -26.0220  -38.1780   24.0310 H   0  0  0  0  0  0  0  0  0  0  0  0
  1  3  2  0
  2  1  1  0
  2  4  2  0
  3  5  1  0
  4 14  1  0
  4  5  1  0
  5 46  1  0
  6 15  1  0
  7 12  1  0
  8  9  1  0
  8  7  1  0
 10  9  1  0
 10 21  1  0
 10 11  1  0
 12  6  1  0
 12 11  1  0
 13  6  2  0
 14 15  1  0
 15 17  1  0
 16 14  2  0
 18 19  2  0
 19 38  1  0
 20 19  1  0
 20 23  1  0
 21 22  1  0
 21 18  1  0
 22 20  2  0
 23 24  1  0
 24 25  2  0
 26 29  1  0
 26 25  1  0
 27 26  2  0
 28 27  1  0
 28 23  2  0
 29 30  1  0
 30 35  2  0
 30 31  1  0
 31 32  2  0
 32 33  1  0
 33 37  1  0
 34 33  2  0
 35 34  1  0
 36 35  1  0
 38 39  1  0
 39 42  1  0
 39 41  1  0
 40 38  2  0
 43 44  1  0
 43 18  1  0
 45 43  1  0
 47 46  1  0
 47 48  1  0
 49 48  1  0
 50 61  2  0
 51 49  1  0
 51 56  1  0
 52 60  1  0
 52 62  1  0
 53 55  1  0
 54 60  1  0
 55 56  2  0
 55 54  1  0
 57 51  2  0
 58 57  1  0
 58 53  2  0
 59 53  1  0
 59 52  1  0
 60 50  1  0
 62 64  2  0
 63 62  1  0
 65 63  1  0
 66 75  2  0
 66 71  1  0
 67 63  1  0
 67 71  1  0
 68 67  1  0
 69 70  1  0
 69 68  1  0
 70 66  1  0
 71 72  2  0
 72 73  1  0
 74 73  2  0
 75 74  1  0
 76 50  1  0
 76 81  1  0
 76 77  1  0
 77 80  1  1
 77 78  1  0
 79 77  1  0
 81 84  1  0
 82 86  1  0
 82 81  1  0
 83 82  2  0
 86 85  1  0
 88 86  1  0
 88 89  1  0
 88 87  1  0
M  ISO  4   6 100  15 100  48 101  49 101
M  END
>  <TORSDO>  (26) 
F 19

>  <SCORE>  (26) 
-14.531

>  <name>  (26) 
25

>  <ligand_id>  (26) 
25

>  <original_smiles>  (26) 
[H]c1c([H])c([H])c2c(c1[H])C([H])([H])C([H])([H])C([H])([H])C2([H])N([H])C(=O)C1([H])N(C(=O)C([H])(N([H])C(=O)C([H])(N([H])C([H])([H])[H])C([H])([H])[H])C(C([H])([H])[H])(C([H])([H])[H])C([H])([H])[H])C([H])([H])c2c([H])c(OC([H])([H])C([H])([H])C([H])([H])n3c([H])c([H])c([H])c3C(=O)N([H])C(=O)N3C([H])([H])C([H])([H])C([H])([H])C([H])(n4nc(-c5c([H])c([H])c(Oc6c([H])c([H])c(F)c([H])c6F)c([H])c5[H])c(C(=O)N([H])[H])c4N([H])[H])C3([H])[H])c([H])c([H])c2C1([H])[H]

>  <smiles>  (26) 
[H]c1c([H])c([H])c2c(c1[H])C([H])([H])C([H])([H])C([H])([H])C2([H])N([H])C(=O)C1([H])N(C(=O)C([H])(N([H])C(=O)C([H])(N([H])C([H])([H])[H])C([H])([H])[H])C(C([H])([H])[H])(C([H])([H])[H])C([H])([H])[H])C([H])([H])c2c([H])c(OC([H])([H])C([H])([H])C([H])([H])n3c([H])c([H])c([H])c3C(=O)N([H])C(=O)N3C([H])([H])C([H])([H])C([H])([H])C([H])(n4nc(-c5c([H])c([H])c(Oc6c([H])c([H])c(F)c([H])c6F)c([H])c5[H])c(C(=O)N([H])[H])c4N([H])[H])C3([H])[H])c([H])c([H])c2C1([H])[H]

$$$$
26:0:0
     RDKit          3D

 92100  0  0  1  0  0  0  0  0999 V2000
  -31.2530  -17.8900   19.7390 C   0  0  0  0  0  3  0  0  0  0  0  0
  -30.9700  -19.1520   19.1550 C   0  0  0  0  0  3  0  0  0  0  0  0
  -28.8850  -17.5320   20.0350 C   0  0  0  0  0  3  0  0  0  0  0  0
  -30.2040  -17.0550   20.1890 C   0  0  0  0  0  0  0  0  0  0  0  0
  -29.6390  -19.6350   19.0000 C   0  0  0  0  0  0  0  0  0  0  0  0
  -28.5820  -18.7880   19.4600 C   0  0  0  0  0  0  0  0  0  0  0  0
  -31.1770  -14.7150   20.5140 C   0  0  0  0  0  0  0  0  0  0  0  0
  -31.1260  -12.2810   20.0580 C   0  0  0  0  0  2  0  0  0  0  0  0
  -30.3040  -12.0490   18.7700 C   0  0  0  0  0  2  0  0  0  0  0  0
  -28.7960  -11.9600   19.0790 C   0  0  0  0  0  2  0  0  0  0  0  0
  -28.3030  -13.1120   19.9930 C   0  0  0  0  0  3  0  0  0  0  0  0
  -29.2370  -13.2650   21.2150 C   0  0  0  0  0  2  0  0  0  0  0  0
  -30.6060  -13.4920   20.7140 N   0  0  0  0  0  0  0  0  0  0  0  0
  -32.3230  -14.8530   20.0710 O   0  0  0  0  0  0  0  0  0  0  0  0
  -30.3510  -15.7520   20.7800 N   0  0  0  0  0  0  0  0  0  0  0  0
  -29.5380  -15.4430   21.2920 H   0  0  0  0  0  0  0  0  0  0  0  0
  -25.9330  -13.8780   20.6460 C   0  0  0  0  0  0  0  0  0  0  0  0
  -24.7880  -13.1770   20.9150 C   0  0  0  0  0  0  0  0  0  0  0  0
  -25.1350  -11.7960   20.8010 C   0  0  0  0  0  0  0  0  0  0  0  0
  -26.9100  -12.9260   20.3930 N   0  0  0  0  0  0  0  0  0  0  0  0
  -26.4290  -11.6660   20.5420 N   0  0  0  0  0  0  0  0  0  0  0  0
  -24.2970  -10.5910   20.8690 C   0  0  0  0  0  0  0  0  0  0  0  0
  -24.6880   -9.4620   21.6220 C   0  0  0  0  0  3  0  0  0  0  0  0
  -23.8580   -8.3220   21.6860 C   0  0  0  0  0  3  0  0  0  0  0  0
  -22.6220   -8.3040   20.9950 C   0  0  0  0  0  0  0  0  0  0  0  0
  -22.2480   -9.4230   20.2300 C   0  0  0  0  0  3  0  0  0  0  0  0
  -23.0780  -10.5540   20.1630 C   0  0  0  0  0  3  0  0  0  0  0  0
  -21.7650   -7.2320   20.9790 O   0  0  0  0  0  0  0  0  0  0  0  0
  -21.8440   -6.2310   21.9150 C   0  0  0  0  0  0  0  0  0  0  0  0
  -21.7550   -6.4980   23.2980 C   0  0  0  0  0  3  0  0  0  0  0  0
  -21.7710   -5.4330   24.2220 C   0  0  0  0  0  3  0  0  0  0  0  0
  -21.8660   -4.1050   23.7650 C   0  0  0  0  0  0  0  0  0  0  0  0
  -21.9500   -3.8380   22.3870 C   0  0  0  0  0  3  0  0  0  0  0  0
  -21.9360   -4.8990   21.4650 C   0  0  0  0  0  0  0  0  0  0  0  0
  -21.9950   -4.6350   20.1370 F   0  0  0  0  0  0  0  0  0  0  0  0
  -21.8730   -3.0810   24.6510 F   0  0  0  0  0  0  0  0  0  0  0  0
  -23.4240  -13.7540   21.1680 C   0  0  0  0  0  0  0  0  0  0  0  0
  -22.6150  -13.0820   21.9800 N   0  0  0  0  0  0  0  0  0  0  0  0
  -23.0840  -14.8320   20.6840 O   0  0  0  0  0  0  0  0  0  0  0  0
  -22.9000  -12.2070   22.3950 H   0  0  0  0  0  0  0  0  0  0  0  0
  -21.6980  -13.4490   22.1910 H   0  0  0  0  0  0  0  0  0  0  0  0
  -26.2220  -15.2380   20.5810 N   0  0  0  0  0  0  0  0  0  0  0  0
  -25.5100  -15.9490   20.7110 H   0  0  0  0  0  0  0  0  0  0  0  0
  -27.1200  -15.6210   20.3160 H   0  0  0  0  0  0  0  0  0  0  0  0
  -26.7400  -20.2810   18.8760 C   0  0  0  0  0  1  0  0  0  0  0  0
  -27.2260  -19.0570   19.4070 O   0  0  0  0  0  0  0  0  0  0  0  0
  -29.3350  -20.8670   18.4180 O   0  0  0  0  0  0  0  0  0  0  0  0
  -30.3700  -21.7620   17.9940 C   0  0  0  0  0  2  0  0  0  0  0  0
  -30.1420  -23.2470   18.4300 C   0  0  0  0  0  2  0  0  0  0  0  0
  -28.9480  -24.0140   17.7860 C   0  0  0  0  0  2  0  0  0  0  0  0
  -29.1200  -25.5610   17.6300 C   0  0  0  0  0  2  0  0  0  0  0  0
  -29.0110  -26.3690   18.8200 O   0  0  0  0  0  0  0  0  0  0  0  0
  -25.5270  -30.5510   23.4400 C   0  0  0  0  0  0  0  0  0  0  0  0
  -27.8910  -27.1610   19.0350 C   0  0  0  0  0  0  0  0  0  0  0  0
  -24.2630  -29.9000   21.4160 C   0  0  0  0  0  3  0  0  0  0  0  0
  -25.6290  -28.8010   19.5590 C   0  0  0  0  0  0  0  0  0  0  0  0
  -26.8170  -30.0610   21.3620 C   0  0  0  0  0  2  0  0  0  0  0  0
  -26.8050  -28.9800   20.2950 C   0  0  0  0  0  0  0  0  0  0  0  0
  -27.9340  -28.1630   20.0380 C   0  0  0  0  0  3  0  0  0  0  0  0
  -26.6870  -26.9950   18.3110 C   0  0  0  0  0  3  0  0  0  0  0  0
  -25.5650  -27.8070   18.5670 C   0  0  0  0  0  3  0  0  0  0  0  0
  -24.4620  -29.7060   19.8890 C   0  0  0  0  0  2  0  0  0  0  0  0
  -25.5530  -30.1650   22.1330 N   0  0  0  0  0  0  0  0  0  0  0  0
  -24.4540  -30.7260   24.0360 O   0  0  0  0  0  0  0  0  0  0  0  0
  -23.4920  -28.6820   21.9730 C   0  0  0  0  0  0  0  0  0  0  0  0
  -22.1610  -28.6790   21.7880 N   0  0  0  0  0  0  0  0  0  0  0  0
  -24.0900  -27.7580   22.5320 O   0  0  0  0  0  0  0  0  0  0  0  0
  -21.7460  -29.4770   21.3290 H   0  0  0  0  0  0  0  0  0  0  0  0
  -18.6850  -27.6930   21.8080 C   0  0  0  0  0  0  0  0  0  0  0  0
  -21.2400  -27.6170   22.1920 C   0  0  0  0  0  3  0  0  0  0  0  0
  -21.2560  -26.4510   21.1770 C   0  0  0  0  0  2  0  0  0  0  0  0
  -20.1780  -26.5780   20.0950 C   0  0  0  0  0  2  0  0  0  0  0  0
  -18.7850  -26.6280   20.7280 C   0  0  0  0  0  2  0  0  0  0  0  0
  -19.8400  -28.1680   22.4850 C   0  0  0  0  0  0  0  0  0  0  0  0
  -19.6960  -29.1820   23.4550 C   0  0  0  0  0  3  0  0  0  0  0  0
  -18.4290  -29.7170   23.7550 C   0  0  0  0  0  3  0  0  0  0  0  0
  -17.2880  -29.2310   23.0940 C   0  0  0  0  0  3  0  0  0  0  0  0
  -17.4160  -28.2190   22.1270 C   0  0  0  0  0  3  0  0  0  0  0  0
  -26.8390  -30.8160   24.2420 C   0  0  0  0  0  3  0  0  0  0  0  0
  -26.6490  -32.0550   25.0080 N   0  0  0  0  0  0  0  0  0  0  0  0
  -27.1660  -33.2440   24.6700 C   0  0  0  0  0  0  0  0  0  0  0  0
  -27.9220  -33.3970   23.7070 O   0  0  0  0  0  0  0  0  0  0  0  0
  -25.9970  -32.0150   25.7770 H   0  0  0  0  0  0  0  0  0  0  0  0
  -25.6890  -35.2730   24.8350 C   0  0  0  0  0  1  0  0  0  0  0  0
  -26.7840  -34.4560   25.5400 C   0  0  0  0  0  3  0  0  0  0  0  0
  -28.9010  -34.7130   26.7580 C   0  0  0  0  0  1  0  0  0  0  0  0
  -27.9300  -35.3350   25.8620 N   0  0  0  0  0  0  0  0  0  0  0  0
  -27.6110  -36.1990   26.2910 H   0  0  0  0  0  0  0  0  0  0  0  0
  -27.2340  -29.6250   25.1990 C   0  0  1  0  0  0  0  0  0  0  0  0
  -26.0870  -29.1730   26.1350 C   0  0  0  0  0  1  0  0  0  0  0  0
  -27.6870  -28.3930   24.3800 C   0  0  0  0  0  1  0  0  0  0  0  0
  -28.4350  -30.0370   26.0820 C   0  0  0  0  0  1  0  0  0  0  0  0
  1  4  1  0
  2  1  2  0
  3  4  2  0
  4 15  1  0
  5  2  1  0
  5  6  2  0
  6  3  1  0
  7 13  1  0
  7 15  1  0
  8 13  1  0
  9 10  1  0
  9  8  1  0
 11 10  1  0
 11 20  1  0
 11 12  1  0
 13 12  1  0
 14  7  2  0
 15 16  1  0
 17 18  2  0
 18 37  1  0
 19 22  1  0
 19 18  1  0
 20 21  1  0
 20 17  1  0
 21 19  2  0
 22 23  1  0
 23 24  2  0
 25 24  1  0
 26 25  2  0
 27 26  1  0
 27 22  2  0
 28 25  1  0
 28 29  1  0
 29 30  1  0
 30 31  2  0
 32 31  1  0
 32 36  1  0
 33 32  2  0
 34 29  2  0
 34 33  1  0
 35 34  1  0
 37 38  1  0
 38 41  1  0
 38 40  1  0
 39 37  2  0
 42 17  1  0
 42 43  1  0
 44 42  1  0
 45 46  1  0
 46  6  1  0
 47  5  1  0
 48 47  1  0
 48 49  1  0
 50 49  1  0
 51 50  1  0
 51 52  1  0
 52 54  1  0
 53 64  2  0
 54 59  1  0
 55 65  1  0
 55 63  1  0
 56 62  1  0
 56 58  1  0
 57 63  1  0
 58 57  1  0
 59 58  2  0
 60 61  1  0
 60 54  2  0
 61 56  2  0
 62 55  1  0
 63 53  1  0
 65 67  2  0
 66 65  1  0
 68 66  1  0
 69 78  2  0
 69 74  1  0
 70 66  1  0
 70 74  1  0
 71 70  1  0
 72 73  1  0
 72 71  1  0
 73 69  1  0
 74 75  2  0
 75 76  1  0
 77 76  2  0
 78 77  1  0
 79 53  1  0
 79 80  1  0
 79 89  1  0
 80 83  1  0
 81 80  1  0
 81 85  1  0
 82 81  2  0
 85 84  1  0
 85 87  1  0
 87 88  1  0
 87 86  1  0
 89 92  1  1
 89 90  1  0
 91 89  1  0
M  ISO  4   7 100  15 100  51 101  52 101
M  END
>  <TORSDO>  (27) 
F 22

>  <SCORE>  (27) 
-9.692

>  <name>  (27) 
26

>  <ligand_id>  (27) 
26

>  <original_smiles>  (27) 
[H]c1c([H])c([H])c2c(c1[H])C([H])([H])C([H])([H])C([H])([H])C2([H])N([H])C(=O)C1([H])N(C(=O)C([H])(N([H])C(=O)C([H])(N([H])C([H])([H])[H])C([H])([H])[H])C(C([H])([H])[H])(C([H])([H])[H])C([H])([H])[H])C([H])([H])c2c([H])c(OC([H])([H])C([H])([H])C([H])([H])C([H])([H])Oc3c([H])c([H])c(N([H])C(=O)N4C([H])([H])C([H])([H])C([H])([H])C([H])(n5nc(-c6c([H])c([H])c(Oc7c([H])c([H])c(F)c([H])c7F)c([H])c6[H])c(C(=O)N([H])[H])c5N([H])[H])C4([H])[H])c([H])c3OC([H])([H])[H])c([H])c([H])c2C1([H])[H]

>  <smiles>  (27) 
[H]c1c([H])c([H])c2c(c1[H])C([H])([H])C([H])([H])C([H])([H])C2([H])N([H])C(=O)C1([H])N(C(=O)C([H])(N([H])C(=O)C([H])(N([H])C([H])([H])[H])C([H])([H])[H])C(C([H])([H])[H])(C([H])([H])[H])C([H])([H])[H])C([H])([H])c2c([H])c(OC([H])([H])C([H])([H])C([H])([H])C([H])([H])Oc3c([H])c([H])c(N([H])C(=O)N4C([H])([H])C([H])([H])C([H])([H])C([H])(n5nc(-c6c([H])c([H])c(Oc7c([H])c([H])c(F)c([H])c7F)c([H])c6[H])c(C(=O)N([H])[H])c5N([H])[H])C4([H])[H])c([H])c3OC([H])([H])[H])c([H])c([H])c2C1([H])[H]

$$$$
27:0:0
     RDKit          3D

 88 95  0  0  1  0  0  0  0  0999 V2000
  -27.9920  -22.7240   21.1440 C   0  0  0  0  0  2  0  0  0  0  0  0
  -28.0680  -21.2710   21.6240 C   0  0  0  0  0  2  0  0  0  0  0  0
  -28.4970  -20.2690   20.5400 C   0  0  0  0  0  2  0  0  0  0  0  0
  -28.5590  -18.8400   21.1000 C   0  0  0  0  0  2  0  0  0  0  0  0
  -29.1290  -17.8310   20.0980 C   0  0  0  0  0  2  0  0  0  0  0  0
  -29.4530  -16.4750   20.7510 C   0  0  0  0  0  2  0  0  0  0  0  0
  -30.8230  -14.5390   20.0040 C   0  0  0  0  0  0  0  0  0  0  0  0
  -30.4270  -12.3800   18.9440 C   0  0  0  0  0  2  0  0  0  0  0  0
  -29.4320  -12.6100   17.7870 C   0  0  0  0  0  2  0  0  0  0  0  0
  -27.9760  -12.5230   18.2840 C   0  0  0  0  0  2  0  0  0  0  0  0
  -27.7160  -13.3690   19.5590 C   0  0  0  0  0  3  0  0  0  0  0  0
  -28.8230  -13.1500   20.6180 C   0  0  0  0  0  2  0  0  0  0  0  0
  -30.1220  -13.3820   19.9700 N   0  0  0  0  0  0  0  0  0  0  0  0
  -32.0050  -14.6310   19.6770 O   0  0  0  0  0  0  0  0  0  0  0  0
  -30.0650  -15.6090   19.7550 N   0  0  0  0  0  0  0  0  0  0  0  0
  -30.4870  -16.1520   19.0140 H   0  0  0  0  0  0  0  0  0  0  0  0
  -25.3820  -14.0430   20.4020 C   0  0  0  0  0  0  0  0  0  0  0  0
  -24.3030  -13.2980   20.8060 C   0  0  0  0  0  0  0  0  0  0  0  0
  -24.7180  -11.9340   20.7270 C   0  0  0  0  0  0  0  0  0  0  0  0
  -26.3830  -13.1320   20.1040 N   0  0  0  0  0  0  0  0  0  0  0  0
  -25.9910  -11.8570   20.3600 N   0  0  0  0  0  0  0  0  0  0  0  0
  -23.9610  -10.6900   20.9190 C   0  0  0  0  0  0  0  0  0  0  0  0
  -24.3870   -9.7020   21.8330 C   0  0  0  0  0  3  0  0  0  0  0  0
  -23.6340   -8.5220   22.0140 C   0  0  0  0  0  3  0  0  0  0  0  0
  -22.4410   -8.3240   21.2820 C   0  0  0  0  0  0  0  0  0  0  0  0
  -22.0330   -9.3000   20.3550 C   0  0  0  0  0  3  0  0  0  0  0  0
  -22.7860  -10.4710   20.1720 C   0  0  0  0  0  3  0  0  0  0  0  0
  -21.6560   -7.2010   21.3750 O   0  0  0  0  0  0  0  0  0  0  0  0
  -21.5870   -6.4630   22.5290 C   0  0  0  0  0  0  0  0  0  0  0  0
  -21.1870   -7.0350   23.7560 C   0  0  0  0  0  3  0  0  0  0  0  0
  -21.0640   -6.2260   24.9020 C   0  0  0  0  0  3  0  0  0  0  0  0
  -21.3270   -4.8460   24.8240 C   0  0  0  0  0  0  0  0  0  0  0  0
  -21.7200   -4.2720   23.6010 C   0  0  0  0  0  3  0  0  0  0  0  0
  -21.8440   -5.0790   22.4550 C   0  0  0  0  0  0  0  0  0  0  0  0
  -22.2020   -4.5160   21.2760 F   0  0  0  0  0  0  0  0  0  0  0  0
  -21.2000   -4.0670   25.9230 F   0  0  0  0  0  0  0  0  0  0  0  0
  -22.9380  -13.8110   21.1550 C   0  0  0  0  0  0  0  0  0  0  0  0
  -22.2290  -13.1160   22.0400 N   0  0  0  0  0  0  0  0  0  0  0  0
  -22.5080  -14.8610   20.6810 O   0  0  0  0  0  0  0  0  0  0  0  0
  -22.5890  -12.2640   22.4430 H   0  0  0  0  0  0  0  0  0  0  0  0
  -21.3160  -13.4430   22.3210 H   0  0  0  0  0  0  0  0  0  0  0  0
  -25.5890  -15.4110   20.2500 N   0  0  0  0  0  0  0  0  0  0  0  0
  -24.8710  -16.1030   20.4400 H   0  0  0  0  0  0  0  0  0  0  0  0
  -26.4520  -15.8200   19.9110 H   0  0  0  0  0  0  0  0  0  0  0  0
  -29.3260  -23.2840   20.6100 C   0  0  0  0  0  2  0  0  0  0  0  0
  -29.3970  -24.8190   20.7190 C   0  0  0  0  0  2  0  0  0  0  0  0
  -28.4420  -25.5080   19.7460 C   0  0  0  0  0  2  0  0  0  0  0  0
  -28.4180  -26.8990   20.0460 O   0  0  0  0  0  0  0  0  0  0  0  0
  -24.5690  -31.9450   23.2290 C   0  0  0  0  0  0  0  0  0  0  0  0
  -27.2050  -27.5520   20.0690 C   0  0  0  0  0  0  0  0  0  0  0  0
  -23.3480  -30.5320   21.6070 C   0  0  0  0  0  3  0  0  0  0  0  0
  -24.7860  -29.0150   20.1500 C   0  0  0  0  0  0  0  0  0  0  0  0
  -25.8670  -30.9130   21.3710 C   0  0  0  0  0  2  0  0  0  0  0  0
  -25.9470  -29.5470   20.7220 C   0  0  0  0  0  0  0  0  0  0  0  0
  -27.1560  -28.8230   20.6810 C   0  0  0  0  0  3  0  0  0  0  0  0
  -26.0220  -27.0330   19.4910 C   0  0  0  0  0  3  0  0  0  0  0  0
  -24.8150  -27.7530   19.5370 C   0  0  0  0  0  3  0  0  0  0  0  0
  -23.5370  -29.8590   20.2220 C   0  0  0  0  0  2  0  0  0  0  0  0
  -24.6150  -31.1450   22.1260 N   0  0  0  0  0  0  0  0  0  0  0  0
  -23.4960  -32.2070   23.7880 O   0  0  0  0  0  0  0  0  0  0  0  0
  -22.7260  -29.5010   22.5760 C   0  0  0  0  0  0  0  0  0  0  0  0
  -21.4040  -29.2930   22.4560 N   0  0  0  0  0  0  0  0  0  0  0  0
  -23.4270  -28.8950   23.3900 O   0  0  0  0  0  0  0  0  0  0  0  0
  -20.9020  -29.8310   21.7630 H   0  0  0  0  0  0  0  0  0  0  0  0
  -18.0620  -28.0300   22.9640 C   0  0  0  0  0  0  0  0  0  0  0  0
  -20.6110  -28.3480   23.2380 C   0  0  0  0  0  3  0  0  0  0  0  0
  -20.7530  -26.9160   22.6710 C   0  0  0  0  0  2  0  0  0  0  0  0
  -19.6610  -26.5580   21.6580 C   0  0  0  0  0  2  0  0  0  0  0  0
  -18.2720  -26.6790   22.2960 C   0  0  0  0  0  2  0  0  0  0  0  0
  -19.1610  -28.8200   23.3890 C   0  0  0  0  0  0  0  0  0  0  0  0
  -18.9130  -30.0860   23.9650 C   0  0  0  0  0  3  0  0  0  0  0  0
  -17.5970  -30.5610   24.1240 C   0  0  0  0  0  3  0  0  0  0  0  0
  -16.5120  -29.7630   23.7210 C   0  0  0  0  0  3  0  0  0  0  0  0
  -16.7440  -28.5010   23.1470 C   0  0  0  0  0  3  0  0  0  0  0  0
  -25.8590  -32.5880   23.8260 C   0  0  0  0  0  3  0  0  0  0  0  0
  -26.3970  -31.8340   25.1010 C   0  0  1  0  0  0  0  0  0  0  0  0
  -25.3180  -31.6010   26.1840 C   0  0  0  0  0  1  0  0  0  0  0  0
  -26.9800  -30.4570   24.7120 C   0  0  0  0  0  1  0  0  0  0  0  0
  -27.5510  -32.6400   25.7400 C   0  0  0  0  0  1  0  0  0  0  0  0
  -25.5480  -33.9880   24.1420 N   0  0  0  0  0  0  0  0  0  0  0  0
  -25.8760  -35.0330   23.3710 C   0  0  0  0  0  0  0  0  0  0  0  0
  -26.5420  -34.9210   22.3380 O   0  0  0  0  0  0  0  0  0  0  0  0
  -24.9520  -34.1510   24.9420 H   0  0  0  0  0  0  0  0  0  0  0  0
  -24.1420  -36.8170   22.9970 C   0  0  0  0  0  1  0  0  0  0  0  0
  -25.3830  -36.4230   23.8160 C   0  0  0  0  0  3  0  0  0  0  0  0
  -27.5170  -37.3160   24.6390 C   0  0  0  0  0  1  0  0  0  0  0  0
  -26.4130  -37.4780   23.6940 N   0  0  0  0  0  0  0  0  0  0  0  0
  -26.0090  -38.4000   23.8340 H   0  0  0  0  0  0  0  0  0  0  0  0
  1  2  1  0
  3  4  1  0
  3  2  1  0
  5  6  1  0
  5  4  1  0
  8 13  1  0
  9 10  1  0
  9  8  1  0
 11 10  1  0
 11 20  1  0
 11 12  1  0
 13  7  1  0
 13 12  1  0
 14  7  2  0
 15  7  1  0
 15  6  1  0
 16 15  1  0
 17 18  2  0
 18 37  1  0
 19 18  1  0
 19 22  1  0
 20 21  1  0
 20 17  1  0
 21 19  2  0
 22 23  1  0
 23 24  2  0
 25 28  1  0
 25 24  1  0
 26 25  2  0
 27 26  1  0
 27 22  2  0
 28 29  1  0
 29 30  1  0
 30 31  2  0
 32 31  1  0
 32 36  1  0
 33 32  2  0
 34 29  2  0
 34 33  1  0
 35 34  1  0
 37 38  1  0
 38 41  1  0
 38 40  1  0
 39 37  2  0
 42 17  1  0
 42 43  1  0
 44 42  1  0
 45 46  1  0
 45  1  1  0
 47 48  1  0
 47 46  1  0
 48 50  1  0
 49 60  2  0
 50 55  1  0
 51 59  1  0
 51 61  1  0
 52 58  1  0
 52 54  1  0
 53 59  1  0
 54 53  1  0
 55 54  2  0
 56 57  1  0
 56 50  2  0
 57 52  2  0
 58 51  1  0
 59 49  1  0
 61 63  2  0
 62 61  1  0
 64 62  1  0
 65 74  2  0
 65 70  1  0
 66 62  1  0
 66 70  1  0
 67 66  1  0
 68 69  1  0
 68 67  1  0
 69 65  1  0
 70 71  2  0
 71 72  1  0
 73 72  2  0
 74 73  1  0
 75 49  1  0
 75 80  1  0
 75 76  1  0
 76 79  1  1
 76 77  1  0
 78 76  1  0
 80 83  1  0
 81 85  1  0
 81 80  1  0
 82 81  2  0
 85 84  1  0
 87 85  1  0
 87 88  1  0
 87 86  1  0
M  ISO  4   7 100  15 100  47 101  48 101
M  END
>  <TORSDO>  (28) 
F 24

>  <SCORE>  (28) 
-11.506

>  <name>  (28) 
27

>  <ligand_id>  (28) 
27

>  <original_smiles>  (28) 
[H]c1c([H])c([H])c2c(c1[H])C([H])([H])C([H])([H])C([H])([H])C2([H])N([H])C(=O)C1([H])N(C(=O)C([H])(N([H])C(=O)C([H])(N([H])C([H])([H])[H])C([H])([H])[H])C(C([H])([H])[H])(C([H])([H])[H])C([H])([H])[H])C([H])([H])c2c([H])c(OC([H])([H])C([H])([H])C([H])([H])C([H])([H])C([H])([H])C([H])([H])C([H])([H])C([H])([H])C([H])([H])N([H])C(=O)N3C([H])([H])C([H])([H])C([H])([H])C([H])(n4nc(-c5c([H])c([H])c(Oc6c([H])c([H])c(F)c([H])c6F)c([H])c5[H])c(C(=O)N([H])[H])c4N([H])[H])C3([H])[H])c([H])c([H])c2C1([H])[H]

>  <smiles>  (28) 
[H]c1c([H])c([H])c2c(c1[H])C([H])([H])C([H])([H])C([H])([H])C2([H])N([H])C(=O)C1([H])N(C(=O)C([H])(N([H])C(=O)C([H])(N([H])C([H])([H])[H])C([H])([H])[H])C(C([H])([H])[H])(C([H])([H])[H])C([H])([H])[H])C([H])([H])c2c([H])c(OC([H])([H])C([H])([H])C([H])([H])C([H])([H])C([H])([H])C([H])([H])C([H])([H])C([H])([H])C([H])([H])N([H])C(=O)N3C([H])([H])C([H])([H])C([H])([H])C([H])(n4nc(-c5c([H])c([H])c(Oc6c([H])c([H])c(F)c([H])c6F)c([H])c5[H])c(C(=O)N([H])[H])c4N([H])[H])C3([H])[H])c([H])c([H])c2C1([H])[H]

$$$$
28:0:0
     RDKit          3D

 86 94  0  0  1  0  0  0  0  0999 V2000
  -29.1870  -21.3180   21.2240 C   0  0  0  0  0  3  0  0  0  0  0  0
  -28.3800  -21.1180   19.1690 C   0  0  0  0  0  3  0  0  0  0  0  0
  -29.5320  -19.8170   21.2250 C   0  0  0  0  0  3  0  0  0  0  0  0
  -28.7130  -19.6270   19.1720 C   0  0  0  0  0  3  0  0  0  0  0  0
  -28.5590  -22.1940   20.1860 C   0  0  0  0  0  0  0  0  0  0  0  0
  -29.3450  -18.7470   20.1930 C   0  0  0  0  0  0  0  0  0  0  0  0
  -30.2600  -15.7190   20.1520 C   0  0  0  0  0  0  0  0  0  0  0  0
  -30.3680  -13.1860   19.3140 C   0  0  0  0  0  2  0  0  0  0  0  0
  -29.4450  -12.7990   18.1230 C   0  0  0  0  0  2  0  0  0  0  0  0
  -28.0320  -12.4420   18.6110 C   0  0  0  0  0  2  0  0  0  0  0  0
  -27.5460  -13.4280   19.6970 C   0  0  0  0  0  3  0  0  0  0  0  0
  -28.6050  -13.7230   20.7850 C   0  0  0  0  0  2  0  0  0  0  0  0
  -29.7610  -14.3480   20.1030 N   0  0  0  0  0  0  0  0  0  0  0  0
  -31.4880  -15.6960   19.9420 O   0  0  0  0  0  0  0  0  0  0  0  0
  -29.4300  -17.0280   20.2420 N   0  0  0  0  0  0  0  0  0  0  0  0
  -28.4830  -16.6860   20.3090 H   0  0  0  0  0  0  0  0  0  0  0  0
  -25.2060  -13.9340   20.5460 C   0  0  0  0  0  0  0  0  0  0  0  0
  -24.1600  -13.1410   20.9260 C   0  0  0  0  0  0  0  0  0  0  0  0
  -24.6350  -11.7950   20.8480 C   0  0  0  0  0  0  0  0  0  0  0  0
  -26.2460  -13.0750   20.2480 N   0  0  0  0  0  0  0  0  0  0  0  0
  -25.9180  -11.7780   20.4970 N   0  0  0  0  0  0  0  0  0  0  0  0
  -23.9180  -10.5250   21.0260 C   0  0  0  0  0  0  0  0  0  0  0  0
  -24.3490   -9.5550   21.9580 C   0  0  0  0  0  3  0  0  0  0  0  0
  -23.6270   -8.3540   22.1270 C   0  0  0  0  0  3  0  0  0  0  0  0
  -22.4590   -8.1140   21.3660 C   0  0  0  0  0  0  0  0  0  0  0  0
  -22.0470   -9.0720   20.4240 C   0  0  0  0  0  3  0  0  0  0  0  0
  -22.7690  -10.2640   20.2520 C   0  0  0  0  0  3  0  0  0  0  0  0
  -21.7100   -6.9650   21.4440 O   0  0  0  0  0  0  0  0  0  0  0  0
  -21.6210   -6.2410   22.6070 C   0  0  0  0  0  0  0  0  0  0  0  0
  -21.1120   -6.8040   23.7970 C   0  0  0  0  0  3  0  0  0  0  0  0
  -20.9720   -6.0060   24.9500 C   0  0  0  0  0  3  0  0  0  0  0  0
  -21.3310   -4.6460   24.9130 C   0  0  0  0  0  0  0  0  0  0  0  0
  -21.8340   -4.0820   23.7270 C   0  0  0  0  0  3  0  0  0  0  0  0
  -21.9740   -4.8770   22.5770 C   0  0  0  0  0  0  0  0  0  0  0  0
  -22.4380   -4.3230   21.4310 F   0  0  0  0  0  0  0  0  0  0  0  0
  -21.1910   -3.8770   26.0190 F   0  0  0  0  0  0  0  0  0  0  0  0
  -22.7690  -13.6060   21.2420 C   0  0  0  0  0  0  0  0  0  0  0  0
  -22.0680  -12.8890   22.1130 N   0  0  0  0  0  0  0  0  0  0  0  0
  -22.3150  -14.6380   20.7530 O   0  0  0  0  0  0  0  0  0  0  0  0
  -22.4500  -12.0540   22.5310 H   0  0  0  0  0  0  0  0  0  0  0  0
  -21.1340  -13.1820   22.3670 H   0  0  0  0  0  0  0  0  0  0  0  0
  -25.3510  -15.3100   20.3950 N   0  0  0  0  0  0  0  0  0  0  0  0
  -24.5750  -15.9490   20.5370 H   0  0  0  0  0  0  0  0  0  0  0  0
  -26.1650  -15.7610   20.0010 H   0  0  0  0  0  0  0  0  0  0  0  0
  -27.7930  -23.9010   20.1770 C   0  0  0  0  0  2  0  0  0  0  0  0
  -28.1150  -25.6130   20.3110 O   0  0  0  0  0  0  0  0  0  0  0  0
  -24.6620  -31.9150   23.2510 C   0  0  0  0  0  0  0  0  0  0  0  0
  -27.1570  -26.8350   20.2600 C   0  0  0  0  0  0  0  0  0  0  0  0
  -23.4600  -30.5190   21.6230 C   0  0  0  0  0  3  0  0  0  0  0  0
  -24.8950  -28.8660   20.2080 C   0  0  0  0  0  0  0  0  0  0  0  0
  -26.0380  -30.6560   21.4870 C   0  0  0  0  0  2  0  0  0  0  0  0
  -26.0950  -29.2230   20.8340 C   0  0  0  0  0  0  0  0  0  0  0  0
  -27.2120  -28.2350   20.8280 C   0  0  0  0  0  3  0  0  0  0  0  0
  -25.9230  -26.6850   19.5790 C   0  0  0  0  0  3  0  0  0  0  0  0
  -24.8460  -27.6220   19.5560 C   0  0  0  0  0  3  0  0  0  0  0  0
  -23.6900  -29.8190   20.2540 C   0  0  0  0  0  2  0  0  0  0  0  0
  -24.7450  -31.0630   22.1720 N   0  0  0  0  0  0  0  0  0  0  0  0
  -23.5730  -32.2210   23.7660 O   0  0  0  0  0  0  0  0  0  0  0  0
  -22.7450  -29.5460   22.5990 C   0  0  0  0  0  0  0  0  0  0  0  0
  -21.4140  -29.3860   22.4710 N   0  0  0  0  0  0  0  0  0  0  0  0
  -23.4000  -28.9330   23.4470 O   0  0  0  0  0  0  0  0  0  0  0  0
  -20.9350  -29.9310   21.7680 H   0  0  0  0  0  0  0  0  0  0  0  0
  -18.0320  -28.1550   22.9720 C   0  0  0  0  0  0  0  0  0  0  0  0
  -20.5870  -28.4540   23.2490 C   0  0  0  0  0  3  0  0  0  0  0  0
  -20.7060  -27.0130   22.6990 C   0  0  0  0  0  2  0  0  0  0  0  0
  -19.6170  -26.6650   21.6810 C   0  0  0  0  0  2  0  0  0  0  0  0
  -18.2280  -26.8010   22.3110 C   0  0  0  0  0  2  0  0  0  0  0  0
  -19.1380  -28.9370   23.3980 C   0  0  0  0  0  0  0  0  0  0  0  0
  -18.8970  -30.2000   23.9820 C   0  0  0  0  0  3  0  0  0  0  0  0
  -17.5830  -30.6820   24.1390 C   0  0  0  0  0  3  0  0  0  0  0  0
  -16.4920  -29.8990   23.7250 C   0  0  0  0  0  3  0  0  0  0  0  0
  -16.7170  -28.6360   23.1490 C   0  0  0  0  0  3  0  0  0  0  0  0
  -25.9320  -32.5610   23.8830 C   0  0  0  0  0  3  0  0  0  0  0  0
  -25.6160  -33.9640   24.2200 N   0  0  0  0  0  0  0  0  0  0  0  0
  -25.9160  -35.0270   23.4620 C   0  0  0  0  0  0  0  0  0  0  0  0
  -26.5470  -34.9310   22.4070 O   0  0  0  0  0  0  0  0  0  0  0  0
  -25.0470  -34.1100   25.0410 H   0  0  0  0  0  0  0  0  0  0  0  0
  -24.1590  -36.8170   23.2140 C   0  0  0  0  0  1  0  0  0  0  0  0
  -25.4490  -36.4160   23.9480 C   0  0  0  0  0  3  0  0  0  0  0  0
  -27.6160  -37.3300   24.6580 C   0  0  0  0  0  1  0  0  0  0  0  0
  -26.4640  -37.4780   23.7730 N   0  0  0  0  0  0  0  0  0  0  0  0
  -26.0580  -38.3960   23.9330 H   0  0  0  0  0  0  0  0  0  0  0  0
  -26.4320  -31.8030   25.1750 C   0  0  1  0  0  0  0  0  0  0  0  0
  -25.3290  -31.5820   26.2370 C   0  0  0  0  0  1  0  0  0  0  0  0
  -27.0120  -30.4160   24.8140 C   0  0  0  0  0  1  0  0  0  0  0  0
  -27.5810  -32.5990   25.8380 C   0  0  0  0  0  1  0  0  0  0  0  0
  1  3  1  0
  2  4  2  0
  2  5  1  0
  4  6  1  0
  5  1  2  0
  6 15  1  0
  6  3  2  0
  7 15  1  0
  8 13  1  0
  9 10  1  0
  9  8  1  0
 11 10  1  0
 11 20  1  0
 11 12  1  0
 13  7  1  0
 13 12  1  0
 14  7  2  0
 15 16  1  0
 17 18  2  0
 18 37  1  0
 19 18  1  0
 19 22  1  0
 20 21  1  0
 20 17  1  0
 21 19  2  0
 22 23  1  0
 23 24  2  0
 25 28  1  0
 25 24  1  0
 26 25  2  0
 27 26  1  0
 27 22  2  0
 28 29  1  0
 29 30  1  0
 30 31  2  0
 32 31  1  0
 32 36  1  0
 33 32  2  0
 34 29  2  0
 34 33  1  0
 35 34  1  0
 37 38  1  0
 38 41  1  0
 38 40  1  0
 39 37  2  0
 42 43  1  0
 42 17  1  0
 44 42  1  0
 45  5  1  0
 45 46  1  0
 47 58  2  0
 48 46  1  0
 48 53  1  0
 49 57  1  0
 49 59  1  0
 50 56  1  0
 50 52  1  0
 51 57  1  0
 52 51  1  0
 53 52  2  0
 54 48  2  0
 55 54  1  0
 55 50  2  0
 56 49  1  0
 57 47  1  0
 59 61  2  0
 60 59  1  0
 62 60  1  0
 63 72  2  0
 63 68  1  0
 64 60  1  0
 64 68  1  0
 65 64  1  0
 66 67  1  0
 66 65  1  0
 67 63  1  0
 68 69  2  0
 69 70  1  0
 71 70  2  0
 72 71  1  0
 73 47  1  0
 73 74  1  0
 73 83  1  0
 74 77  1  0
 75 79  1  0
 75 74  1  0
 76 75  2  0
 79 78  1  0
 81 82  1  0
 81 79  1  0
 81 80  1  0
 83 86  1  1
 83 84  1  0
 85 83  1  0
M  ISO  4   7 100  15 100  45 101  46 101
M  END
>  <TORSDO>  (29) 
F 17

>  <SCORE>  (29) 
-16.448

>  <name>  (29) 
28

>  <ligand_id>  (29) 
28

>  <original_smiles>  (29) 
[H]c1c([H])c([H])c2c(c1[H])C([H])([H])C([H])([H])C([H])([H])C2([H])N([H])C(=O)C1([H])N(C(=O)C([H])(N([H])C(=O)C([H])(N([H])C([H])([H])[H])C([H])([H])[H])C(C([H])([H])[H])(C([H])([H])[H])C([H])([H])[H])C([H])([H])c2c([H])c(OC([H])([H])c3c([H])c([H])c(N([H])C(=O)N4C([H])([H])C([H])([H])C([H])([H])C([H])(n5nc(-c6c([H])c([H])c(Oc7c([H])c([H])c(F)c([H])c7F)c([H])c6[H])c(C(=O)N([H])[H])c5N([H])[H])C4([H])[H])c([H])c3[H])c([H])c([H])c2C1([H])[H]

>  <smiles>  (29) 
[H]c1c([H])c([H])c2c(c1[H])C([H])([H])C([H])([H])C([H])([H])C2([H])N([H])C(=O)C1([H])N(C(=O)C([H])(N([H])C(=O)C([H])(N([H])C([H])([H])[H])C([H])([H])[H])C(C([H])([H])[H])(C([H])([H])[H])C([H])([H])[H])C([H])([H])c2c([H])c(OC([H])([H])c3c([H])c([H])c(N([H])C(=O)N4C([H])([H])C([H])([H])C([H])([H])C([H])(n5nc(-c6c([H])c([H])c(Oc7c([H])c([H])c(F)c([H])c7F)c([H])c6[H])c(C(=O)N([H])[H])c5N([H])[H])C4([H])[H])c([H])c3[H])c([H])c([H])c2C1([H])[H]

$$$$
29:0:0
     RDKit          3D

 89 97  0  0  1  0  0  0  0  0999 V2000
  -29.6310  -20.4060   19.9430 C   0  0  0  0  0  2  0  0  0  0  0  0
  -30.7020  -18.9520   23.1910 C   0  0  0  0  0  3  0  0  0  0  0  0
  -31.6930  -18.0400   22.8160 C   0  0  0  0  0  3  0  0  0  0  0  0
  -29.8240  -19.4510   22.2150 C   0  0  0  0  0  3  0  0  0  0  0  0
  -31.6490  -17.4400   21.5450 C   0  0  0  0  0  3  0  0  0  0  0  0
  -29.8700  -19.0310   20.8620 C   0  0  0  0  0  0  0  0  0  0  0  0
  -30.5980  -17.7000   20.6230 C   0  0  0  0  0  0  0  0  0  0  0  0
  -30.8490  -15.0570   19.9190 C   0  0  0  0  0  0  0  0  0  0  0  0
  -30.6010  -12.6930   18.9790 C   0  0  0  0  0  2  0  0  0  0  0  0
  -29.6070  -12.6250   17.7970 C   0  0  0  0  0  2  0  0  0  0  0  0
  -28.1610  -12.4590   18.3040 C   0  0  0  0  0  2  0  0  0  0  0  0
  -27.8300  -13.3920   19.4970 C   0  0  0  0  0  3  0  0  0  0  0  0
  -28.9530  -13.4200   20.5580 C   0  0  0  0  0  2  0  0  0  0  0  0
  -30.1800  -13.8250   19.8600 N   0  0  0  0  0  0  0  0  0  0  0  0
  -32.0500  -15.0250   19.6300 O   0  0  0  0  0  0  0  0  0  0  0  0
  -30.1710  -16.3300   20.0260 N   0  0  0  0  0  0  0  0  0  0  0  0
  -29.1750  -16.2430   19.8870 H   0  0  0  0  0  0  0  0  0  0  0  0
  -25.5250  -14.0090   20.4130 C   0  0  0  0  0  0  0  0  0  0  0  0
  -24.4600  -13.2540   20.8200 C   0  0  0  0  0  0  0  0  0  0  0  0
  -24.8760  -11.8920   20.7170 C   0  0  0  0  0  0  0  0  0  0  0  0
  -26.5210  -13.1090   20.0770 N   0  0  0  0  0  0  0  0  0  0  0  0
  -26.1470  -11.8270   20.3310 N   0  0  0  0  0  0  0  0  0  0  0  0
  -24.1200  -10.6480   20.9070 C   0  0  0  0  0  0  0  0  0  0  0  0
  -24.5490   -9.6540   21.8130 C   0  0  0  0  0  3  0  0  0  0  0  0
  -23.7920   -8.4760   21.9960 C   0  0  0  0  0  3  0  0  0  0  0  0
  -22.5920   -8.2840   21.2730 C   0  0  0  0  0  0  0  0  0  0  0  0
  -22.1810   -9.2670   20.3540 C   0  0  0  0  0  3  0  0  0  0  0  0
  -22.9370  -10.4350   20.1700 C   0  0  0  0  0  3  0  0  0  0  0  0
  -21.8050   -7.1610   21.3680 O   0  0  0  0  0  0  0  0  0  0  0  0
  -21.7470   -6.4160   22.5180 C   0  0  0  0  0  0  0  0  0  0  0  0
  -21.3320   -6.9730   23.7460 C   0  0  0  0  0  3  0  0  0  0  0  0
  -21.2230   -6.1560   24.8890 C   0  0  0  0  0  3  0  0  0  0  0  0
  -21.5130   -4.7810   24.8030 C   0  0  0  0  0  0  0  0  0  0  0  0
  -21.9200   -4.2230   23.5790 C   0  0  0  0  0  3  0  0  0  0  0  0
  -22.0320   -5.0380   22.4390 C   0  0  0  0  0  0  0  0  0  0  0  0
  -22.4050   -4.4900   21.2560 F   0  0  0  0  0  0  0  0  0  0  0  0
  -21.3990   -3.9920   25.8980 F   0  0  0  0  0  0  0  0  0  0  0  0
  -23.0960  -13.7630   21.1820 C   0  0  0  0  0  0  0  0  0  0  0  0
  -22.3980  -13.0740   22.0740 N   0  0  0  0  0  0  0  0  0  0  0  0
  -22.6600  -14.8100   20.7040 O   0  0  0  0  0  0  0  0  0  0  0  0
  -22.7630  -12.2290   22.4880 H   0  0  0  0  0  0  0  0  0  0  0  0
  -21.4790  -13.3960   22.3480 H   0  0  0  0  0  0  0  0  0  0  0  0
  -25.7190  -15.3790   20.2730 N   0  0  0  0  0  0  0  0  0  0  0  0
  -24.9800  -16.0460   20.4700 H   0  0  0  0  0  0  0  0  0  0  0  0
  -26.5620  -15.8200   19.9310 H   0  0  0  0  0  0  0  0  0  0  0  0
  -28.9890  -21.7180   20.5320 O   0  0  0  0  0  0  0  0  0  0  0  0
  -29.2620  -23.2270   20.1860 C   0  0  0  0  0  3  0  0  0  0  0  0
  -28.2020  -24.5600   20.4130 C   0  0  0  0  0  3  0  0  0  0  0  0
  -28.4580  -26.1240   20.3800 O   0  0  0  0  0  0  0  0  0  0  0  0
  -24.7050  -31.8810   23.1920 C   0  0  0  0  0  0  0  0  0  0  0  0
  -27.3930  -27.1140   20.2940 C   0  0  0  0  0  0  0  0  0  0  0  0
  -23.5570  -30.4590   21.5390 C   0  0  0  0  0  3  0  0  0  0  0  0
  -25.0550  -28.8720   20.1740 C   0  0  0  0  0  0  0  0  0  0  0  0
  -26.1150  -30.7300   21.4380 C   0  0  0  0  0  2  0  0  0  0  0  0
  -26.2150  -29.3250   20.8140 C   0  0  0  0  0  0  0  0  0  0  0  0
  -27.3810  -28.4620   20.8560 C   0  0  0  0  0  3  0  0  0  0  0  0
  -26.2050  -26.7770   19.6060 C   0  0  0  0  0  3  0  0  0  0  0  0
  -25.0660  -27.6130   19.5570 C   0  0  0  0  0  3  0  0  0  0  0  0
  -23.8190  -29.7620   20.1780 C   0  0  0  0  0  2  0  0  0  0  0  0
  -24.8120  -31.0450   22.1130 N   0  0  0  0  0  0  0  0  0  0  0  0
  -23.6030  -32.1660   23.6900 O   0  0  0  0  0  0  0  0  0  0  0  0
  -22.8630  -29.4590   22.4990 C   0  0  0  0  0  0  0  0  0  0  0  0
  -21.5400  -29.2680   22.3370 N   0  0  0  0  0  0  0  0  0  0  0  0
  -23.5160  -28.8530   23.3520 O   0  0  0  0  0  0  0  0  0  0  0  0
  -21.0680  -29.8060   21.6240 H   0  0  0  0  0  0  0  0  0  0  0  0
  -18.1680  -28.0050   22.7530 C   0  0  0  0  0  0  0  0  0  0  0  0
  -20.7100  -28.3300   23.1030 C   0  0  0  0  0  3  0  0  0  0  0  0
  -20.8620  -26.8860   22.5710 C   0  0  0  0  0  2  0  0  0  0  0  0
  -19.8060  -26.5160   21.5240 C   0  0  0  0  0  2  0  0  0  0  0  0
  -18.3970  -26.6460   22.1130 C   0  0  0  0  0  2  0  0  0  0  0  0
  -19.2540  -28.8030   23.2030 C   0  0  0  0  0  0  0  0  0  0  0  0
  -18.9840  -30.0710   23.7620 C   0  0  0  0  0  3  0  0  0  0  0  0
  -17.6650  -30.5450   23.8700 C   0  0  0  0  0  3  0  0  0  0  0  0
  -16.5930  -29.7470   23.4320 C   0  0  0  0  0  3  0  0  0  0  0  0
  -16.8460  -28.4780   22.8810 C   0  0  0  0  0  3  0  0  0  0  0  0
  -25.9610  -32.5360   23.8430 C   0  0  0  0  0  3  0  0  0  0  0  0
  -26.4550  -31.7780   25.1340 C   0  0  1  0  0  0  0  0  0  0  0  0
  -25.3420  -31.5250   26.1780 C   0  0  0  0  0  1  0  0  0  0  0  0
  -27.0670  -30.4070   24.7630 C   0  0  0  0  0  1  0  0  0  0  0  0
  -27.5820  -32.5900   25.8190 C   0  0  0  0  0  1  0  0  0  0  0  0
  -25.6210  -33.9330   24.1690 N   0  0  0  0  0  0  0  0  0  0  0  0
  -25.9560  -34.9930   23.4210 C   0  0  0  0  0  0  0  0  0  0  0  0
  -26.6490  -34.9000   22.4040 O   0  0  0  0  0  0  0  0  0  0  0  0
  -25.0070  -34.0770   24.9560 H   0  0  0  0  0  0  0  0  0  0  0  0
  -24.2170  -36.7760   23.0290 C   0  0  0  0  0  1  0  0  0  0  0  0
  -25.4430  -36.3780   23.8680 C   0  0  0  0  0  3  0  0  0  0  0  0
  -27.5480  -37.2890   24.7480 C   0  0  0  0  0  1  0  0  0  0  0  0
  -26.4680  -37.4420   23.7780 N   0  0  0  0  0  0  0  0  0  0  0  0
  -26.0490  -38.3590   23.9110 H   0  0  0  0  0  0  0  0  0  0  0  0
  1 46  1  0
  1  6  1  0
  3  2  1  0
  4  2  2  0
  5  3  2  0
  6  4  1  0
  7  6  2  0
  7  5  1  0
  8 16  1  0
  9 14  1  0
 10 11  1  0
 10  9  1  0
 12 11  1  0
 12 21  1  0
 12 13  1  0
 14  8  1  0
 14 13  1  0
 15  8  2  0
 16  7  1  0
 17 16  1  0
 18 19  2  0
 19 38  1  0
 20 19  1  0
 20 23  1  0
 21 22  1  0
 21 18  1  0
 22 20  2  0
 23 24  1  0
 24 25  2  0
 26 29  1  0
 26 25  1  0
 27 26  2  0
 28 27  1  0
 28 23  2  0
 29 30  1  0
 30 31  1  0
 31 32  2  0
 33 32  1  0
 33 37  1  0
 34 33  2  0
 35 30  2  0
 35 34  1  0
 36 35  1  0
 38 39  1  0
 39 42  1  0
 39 41  1  0
 40 38  2  0
 43 18  1  0
 43 44  1  0
 45 43  1  0
 47 48  2  0
 47 46  1  0
 49 48  1  0
 50 61  2  0
 51 49  1  0
 51 56  1  0
 52 60  1  0
 52 62  1  0
 53 59  1  0
 53 55  1  0
 54 60  1  0
 55 56  2  0
 55 54  1  0
 57 51  2  0
 58 57  1  0
 58 53  2  0
 59 52  1  0
 60 50  1  0
 62 64  2  0
 63 62  1  0
 65 63  1  0
 66 75  2  0
 66 71  1  0
 67 63  1  0
 67 71  1  0
 68 67  1  0
 69 70  1  0
 69 68  1  0
 70 66  1  0
 71 72  2  0
 72 73  1  0
 74 73  2  0
 75 74  1  0
 76 50  1  0
 76 81  1  0
 76 77  1  0
 77 80  1  1
 77 78  1  0
 79 77  1  0
 81 84  1  0
 82 86  1  0
 82 81  1  0
 83 82  2  0
 86 85  1  0
 88 86  1  0
 88 89  1  0
 88 87  1  0
M  ISO  4   8 100  16 100  48 101  49 101
M  END
>  <TORSDO>  (30) 
F 20

>  <SCORE>  (30) 
-12.217

>  <name>  (30) 
29

>  <ligand_id>  (30) 
29

>  <original_smiles>  (30) 
[H]c1c([H])c([H])c(C([H])([H])OC([H])([H])C([H])([H])Oc2c([H])c([H])c3c(c2[H])C([H])([H])N(C(=O)C([H])(N([H])C(=O)C([H])(N([H])C([H])([H])[H])C([H])([H])[H])C(C([H])([H])[H])(C([H])([H])[H])C([H])([H])[H])C([H])(C(=O)N([H])C2([H])c4c([H])c([H])c([H])c([H])c4C([H])([H])C([H])([H])C2([H])[H])C3([H])[H])c(N([H])C(=O)N2C([H])([H])C([H])([H])C([H])([H])C([H])(n3nc(-c4c([H])c([H])c(Oc5c([H])c([H])c(F)c([H])c5F)c([H])c4[H])c(C(=O)N([H])[H])c3N([H])[H])C2([H])[H])c1[H]

>  <smiles>  (30) 
[H]c1c([H])c([H])c(C([H])([H])OC([H])([H])C([H])([H])Oc2c([H])c([H])c3c(c2[H])C([H])([H])N(C(=O)C([H])(N([H])C(=O)C([H])(N([H])C([H])([H])[H])C([H])([H])[H])C(C([H])([H])[H])(C([H])([H])[H])C([H])([H])[H])C([H])(C(=O)N([H])C2([H])c4c([H])c([H])c([H])c([H])c4C([H])([H])C([H])([H])C2([H])[H])C3([H])[H])c(N([H])C(=O)N2C([H])([H])C([H])([H])C([H])([H])C([H])(n3nc(-c4c([H])c([H])c(Oc5c([H])c([H])c(F)c([H])c5F)c([H])c4[H])c(C(=O)N([H])[H])c3N([H])[H])C2([H])[H])c1[H]

$$$$
30:0:0
     RDKit          3D

 86 94  0  0  1  0  0  0  0  0999 V2000
  -31.1700  -20.9320   20.4430 C   0  0  0  0  0  3  0  0  0  0  0  0
  -30.2760  -22.0570   20.4060 C   0  0  0  0  0  3  0  0  0  0  0  0
  -30.8430  -19.5330   20.3890 C   0  0  0  0  0  3  0  0  0  0  0  0
  -28.5970  -20.3530   20.2540 C   0  0  0  0  0  3  0  0  0  0  0  0
  -28.8660  -21.9710   20.3050 C   0  0  0  0  0  0  0  0  0  0  0  0
  -29.5320  -19.0050   20.2890 C   0  0  0  0  0  0  0  0  0  0  0  0
  -30.1920  -15.8550   20.2000 C   0  0  0  0  0  0  0  0  0  0  0  0
  -30.3410  -13.2850   19.3630 C   0  0  0  0  0  2  0  0  0  0  0  0
  -29.4560  -12.8160   18.1690 C   0  0  0  0  0  2  0  0  0  0  0  0
  -28.0490  -12.4220   18.6400 C   0  0  0  0  0  2  0  0  0  0  0  0
  -27.5220  -13.4180   19.6950 C   0  0  0  0  0  3  0  0  0  0  0  0
  -28.5540  -13.7840   20.7920 C   0  0  0  0  0  2  0  0  0  0  0  0
  -29.6910  -14.4650   20.1150 N   0  0  0  0  0  0  0  0  0  0  0  0
  -31.4300  -15.7760   20.0400 O   0  0  0  0  0  0  0  0  0  0  0  0
  -29.4130  -17.2430   20.2600 N   0  0  0  0  0  0  0  0  0  0  0  0
  -28.4360  -16.9880   20.2920 H   0  0  0  0  0  0  0  0  0  0  0  0
  -25.1650  -13.9080   20.4880 C   0  0  0  0  0  0  0  0  0  0  0  0
  -24.1200  -13.1120   20.8580 C   0  0  0  0  0  0  0  0  0  0  0  0
  -24.6060  -11.7690   20.8140 C   0  0  0  0  0  0  0  0  0  0  0  0
  -26.2190  -13.0530   20.2290 N   0  0  0  0  0  0  0  0  0  0  0  0
  -25.8990  -11.7570   20.4910 N   0  0  0  0  0  0  0  0  0  0  0  0
  -23.8950  -10.4960   20.9990 C   0  0  0  0  0  0  0  0  0  0  0  0
  -24.3210   -9.5410   21.9480 C   0  0  0  0  0  3  0  0  0  0  0  0
  -23.6030   -8.3370   22.1240 C   0  0  0  0  0  3  0  0  0  0  0  0
  -22.4450   -8.0810   21.3530 C   0  0  0  0  0  0  0  0  0  0  0  0
  -22.0370   -9.0260   20.3930 C   0  0  0  0  0  3  0  0  0  0  0  0
  -22.7560  -10.2200   20.2160 C   0  0  0  0  0  3  0  0  0  0  0  0
  -21.7000   -6.9290   21.4370 O   0  0  0  0  0  0  0  0  0  0  0  0
  -21.6170   -6.2090   22.6020 C   0  0  0  0  0  0  0  0  0  0  0  0
  -21.1080   -6.7740   23.7910 C   0  0  0  0  0  3  0  0  0  0  0  0
  -20.9740   -5.9790   24.9470 C   0  0  0  0  0  3  0  0  0  0  0  0
  -21.3410   -4.6210   24.9140 C   0  0  0  0  0  0  0  0  0  0  0  0
  -21.8440   -4.0550   23.7290 C   0  0  0  0  0  3  0  0  0  0  0  0
  -21.9780   -4.8470   22.5760 C   0  0  0  0  0  0  0  0  0  0  0  0
  -22.4430   -4.2910   21.4310 F   0  0  0  0  0  0  0  0  0  0  0  0
  -21.2070   -3.8540   26.0220 F   0  0  0  0  0  0  0  0  0  0  0  0
  -22.7170  -13.5690   21.1330 C   0  0  0  0  0  0  0  0  0  0  0  0
  -22.0030  -12.8670   22.0040 N   0  0  0  0  0  0  0  0  0  0  0  0
  -22.2660  -14.5890   20.6110 O   0  0  0  0  0  0  0  0  0  0  0  0
  -22.3830  -12.0440   22.4480 H   0  0  0  0  0  0  0  0  0  0  0  0
  -21.0620  -13.1570   22.2300 H   0  0  0  0  0  0  0  0  0  0  0  0
  -25.3030  -15.2820   20.3150 N   0  0  0  0  0  0  0  0  0  0  0  0
  -24.5210  -15.9180   20.4310 H   0  0  0  0  0  0  0  0  0  0  0  0
  -26.1290  -15.7320   19.9470 H   0  0  0  0  0  0  0  0  0  0  0  0
  -27.9040  -23.6280   20.2440 C   0  0  0  0  0  2  0  0  0  0  0  0
  -28.1320  -25.4200   20.3730 O   0  0  0  0  0  0  0  0  0  0  0  0
  -24.6750  -31.8720   23.2620 C   0  0  0  0  0  0  0  0  0  0  0  0
  -27.1850  -26.6880   20.3150 C   0  0  0  0  0  0  0  0  0  0  0  0
  -23.4950  -30.4780   21.6190 C   0  0  0  0  0  3  0  0  0  0  0  0
  -24.9430  -28.7980   20.2290 C   0  0  0  0  0  0  0  0  0  0  0  0
  -26.0790  -30.5740   21.5310 C   0  0  0  0  0  2  0  0  0  0  0  0
  -26.1380  -29.1300   20.8780 C   0  0  0  0  0  0  0  0  0  0  0  0
  -27.2390  -28.1060   20.8840 C   0  0  0  0  0  3  0  0  0  0  0  0
  -25.9550  -26.5930   19.6070 C   0  0  0  0  0  3  0  0  0  0  0  0
  -24.8960  -27.5580   19.5690 C   0  0  0  0  0  3  0  0  0  0  0  0
  -23.7460  -29.7690   20.2550 C   0  0  0  0  0  2  0  0  0  0  0  0
  -24.7750  -31.0100   22.1900 N   0  0  0  0  0  0  0  0  0  0  0  0
  -23.5770  -32.1850   23.7580 O   0  0  0  0  0  0  0  0  0  0  0  0
  -22.7530  -29.5170   22.5880 C   0  0  0  0  0  0  0  0  0  0  0  0
  -21.4200  -29.3750   22.4510 N   0  0  0  0  0  0  0  0  0  0  0  0
  -23.3920  -28.8940   23.4400 O   0  0  0  0  0  0  0  0  0  0  0  0
  -20.9530  -29.9280   21.7440 H   0  0  0  0  0  0  0  0  0  0  0  0
  -18.0190  -28.1820   22.9320 C   0  0  0  0  0  0  0  0  0  0  0  0
  -20.5780  -28.4480   23.2190 C   0  0  0  0  0  3  0  0  0  0  0  0
  -20.6800  -27.0100   22.6570 C   0  0  0  0  0  2  0  0  0  0  0  0
  -19.5890  -26.6850   21.6310 C   0  0  0  0  0  2  0  0  0  0  0  0
  -18.2010  -26.8320   22.2590 C   0  0  0  0  0  2  0  0  0  0  0  0
  -19.1330  -28.9480   23.3680 C   0  0  0  0  0  0  0  0  0  0  0  0
  -18.9060  -30.2070   23.9630 C   0  0  0  0  0  3  0  0  0  0  0  0
  -17.5980  -30.7030   24.1240 C   0  0  0  0  0  3  0  0  0  0  0  0
  -16.4980  -29.9370   23.7000 C   0  0  0  0  0  3  0  0  0  0  0  0
  -16.7090  -28.6770   23.1110 C   0  0  0  0  0  3  0  0  0  0  0  0
  -25.9330  -32.5200   23.9170 C   0  0  0  0  0  3  0  0  0  0  0  0
  -25.6150  -33.9250   24.2440 N   0  0  0  0  0  0  0  0  0  0  0  0
  -25.9320  -34.9870   23.4900 C   0  0  0  0  0  0  0  0  0  0  0  0
  -26.5750  -34.8860   22.4430 O   0  0  0  0  0  0  0  0  0  0  0  0
  -25.0360  -34.0750   25.0570 H   0  0  0  0  0  0  0  0  0  0  0  0
  -24.1820  -36.7830   23.2210 C   0  0  0  0  0  1  0  0  0  0  0  0
  -25.4640  -36.3790   23.9670 C   0  0  0  0  0  3  0  0  0  0  0  0
  -27.6290  -37.2890   24.6910 C   0  0  0  0  0  1  0  0  0  0  0  0
  -26.4850  -37.4380   23.7970 N   0  0  0  0  0  0  0  0  0  0  0  0
  -26.0790  -38.3570   23.9500 H   0  0  0  0  0  0  0  0  0  0  0  0
  -26.4050  -31.7660   25.2230 C   0  0  1  0  0  0  0  0  0  0  0  0
  -25.2830  -31.5600   26.2680 C   0  0  0  0  0  1  0  0  0  0  0  0
  -26.9830  -30.3740   24.8840 C   0  0  0  0  0  1  0  0  0  0  0  0
  -27.5480  -32.5590   25.9010 C   0  0  0  0  0  1  0  0  0  0  0  0
  2  1  1  0
  3  1  2  0
  4  6  2  0
  4  5  1  0
  5  2  2  0
  6  3  1  0
  7 15  1  0
  8 13  1  0
  9 10  1  0
  9  8  1  0
 11 10  1  0
 11 20  1  0
 11 12  1  0
 13  7  1  0
 13 12  1  0
 14  7  2  0
 15  6  1  0
 15 16  1  0
 17 18  2  0
 18 37  1  0
 19 18  1  0
 19 22  1  0
 20 17  1  0
 20 21  1  0
 21 19  2  0
 22 23  1  0
 23 24  2  0
 25 28  1  0
 25 24  1  0
 26 25  2  0
 27 26  1  0
 27 22  2  0
 28 29  1  0
 29 30  1  0
 30 31  2  0
 32 31  1  0
 32 36  1  0
 33 32  2  0
 34 29  2  0
 34 33  1  0
 35 34  1  0
 37 38  1  0
 38 41  1  0
 38 40  1  0
 39 37  2  0
 42 43  1  0
 42 17  1  0
 44 42  1  0
 45  5  1  0
 45 46  1  0
 47 58  2  0
 48 46  1  0
 48 53  1  0
 49 57  1  0
 49 59  1  0
 50 56  1  0
 50 52  1  0
 51 57  1  0
 52 53  2  0
 52 51  1  0
 54 48  2  0
 55 54  1  0
 55 50  2  0
 56 49  1  0
 57 47  1  0
 59 61  2  0
 60 59  1  0
 62 60  1  0
 63 72  2  0
 63 68  1  0
 64 60  1  0
 64 68  1  0
 65 64  1  0
 66 67  1  0
 66 65  1  0
 67 63  1  0
 68 69  2  0
 69 70  1  0
 71 70  2  0
 72 71  1  0
 73 47  1  0
 73 74  1  0
 73 83  1  0
 74 77  1  0
 75 79  1  0
 75 74  1  0
 76 75  2  0
 79 78  1  0
 81 82  1  0
 81 79  1  0
 81 80  1  0
 83 86  1  1
 83 84  1  0
 85 83  1  0
M  ISO  4   7 100  15 100  45 101  46 101
M  END
>  <TORSDO>  (31) 
F 17

>  <SCORE>  (31) 
-16.516

>  <name>  (31) 
30

>  <ligand_id>  (31) 
30

>  <original_smiles>  (31) 
[H]c1c([H])c(N([H])C(=O)N2C([H])([H])C([H])([H])C([H])([H])C([H])(n3nc(-c4c([H])c([H])c(Oc5c([H])c([H])c(F)c([H])c5F)c([H])c4[H])c(C(=O)N([H])[H])c3N([H])[H])C2([H])[H])c([H])c(C([H])([H])Oc2c([H])c([H])c3c(c2[H])C([H])([H])N(C(=O)C([H])(N([H])C(=O)C([H])(N([H])C([H])([H])[H])C([H])([H])[H])C(C([H])([H])[H])(C([H])([H])[H])C([H])([H])[H])C([H])(C(=O)N([H])C2([H])c4c([H])c([H])c([H])c([H])c4C([H])([H])C([H])([H])C2([H])[H])C3([H])[H])c1[H]

>  <smiles>  (31) 
[H]c1c([H])c(N([H])C(=O)N2C([H])([H])C([H])([H])C([H])([H])C([H])(n3nc(-c4c([H])c([H])c(Oc5c([H])c([H])c(F)c([H])c5F)c([H])c4[H])c(C(=O)N([H])[H])c3N([H])[H])C2([H])[H])c([H])c(C([H])([H])Oc2c([H])c([H])c3c(c2[H])C([H])([H])N(C(=O)C([H])(N([H])C(=O)C([H])(N([H])C([H])([H])[H])C([H])([H])[H])C(C([H])([H])[H])(C([H])([H])[H])C([H])([H])[H])C([H])(C(=O)N([H])C2([H])c4c([H])c([H])c([H])c([H])c4C([H])([H])C([H])([H])C2([H])[H])C3([H])[H])c1[H]

$$$$
31:0:0
     RDKit          3D

 86 94  0  0  1  0  0  0  0  0999 V2000
  -26.5990  -21.9870   20.5570 C   0  0  0  0  0  3  0  0  0  0  0  0
  -27.4920  -20.8700   20.4110 C   0  0  0  0  0  3  0  0  0  0  0  0
  -26.9010  -23.3880   20.4480 C   0  0  0  0  0  3  0  0  0  0  0  0
  -29.1150  -22.5910   20.0270 C   0  0  0  0  0  3  0  0  0  0  0  0
  -28.8770  -20.9670   20.1300 C   0  0  0  0  0  0  0  0  0  0  0  0
  -28.1790  -23.9350   20.1660 C   0  0  0  0  0  0  0  0  0  0  0  0
  -28.2790  -25.5900   20.1230 O   0  0  0  0  0  0  0  0  0  0  0  0
  -24.7630  -31.9440   23.2280 C   0  0  0  0  0  0  0  0  0  0  0  0
  -27.3020  -26.8420   20.1480 C   0  0  0  0  0  0  0  0  0  0  0  0
  -23.5790  -30.5650   21.5730 C   0  0  0  0  0  3  0  0  0  0  0  0
  -25.0320  -28.9320   20.1320 C   0  0  0  0  0  0  0  0  0  0  0  0
  -26.1610  -30.6930   21.4570 C   0  0  0  0  0  2  0  0  0  0  0  0
  -26.2280  -29.2590   20.7800 C   0  0  0  0  0  0  0  0  0  0  0  0
  -27.3390  -28.2450   20.7580 C   0  0  0  0  0  3  0  0  0  0  0  0
  -26.0730  -26.7620   19.4350 C   0  0  0  0  0  3  0  0  0  0  0  0
  -24.9980  -27.7100   19.4360 C   0  0  0  0  0  3  0  0  0  0  0  0
  -23.8230  -29.8870   20.1930 C   0  0  0  0  0  2  0  0  0  0  0  0
  -24.8600  -31.1030   22.1390 N   0  0  0  0  0  0  0  0  0  0  0  0
  -23.6680  -32.2320   23.7440 O   0  0  0  0  0  0  0  0  0  0  0  0
  -22.8650  -29.5750   22.5330 C   0  0  0  0  0  0  0  0  0  0  0  0
  -21.5350  -29.4030   22.3990 N   0  0  0  0  0  0  0  0  0  0  0  0
  -23.5210  -28.9560   23.3740 O   0  0  0  0  0  0  0  0  0  0  0  0
  -21.0520  -29.9530   21.7010 H   0  0  0  0  0  0  0  0  0  0  0  0
  -18.1610  -28.1420   22.8970 C   0  0  0  0  0  0  0  0  0  0  0  0
  -20.7180  -28.4460   23.1580 C   0  0  0  0  0  3  0  0  0  0  0  0
  -20.8390  -27.0220   22.5650 C   0  0  0  0  0  2  0  0  0  0  0  0
  -19.7400  -26.6990   21.5470 C   0  0  0  0  0  2  0  0  0  0  0  0
  -18.3580  -26.8090   22.1950 C   0  0  0  0  0  2  0  0  0  0  0  0
  -19.2670  -28.9180   23.3350 C   0  0  0  0  0  0  0  0  0  0  0  0
  -19.0260  -30.1610   23.9580 C   0  0  0  0  0  3  0  0  0  0  0  0
  -17.7120  -30.6310   24.1450 C   0  0  0  0  0  3  0  0  0  0  0  0
  -16.6210  -29.8540   23.7180 C   0  0  0  0  0  3  0  0  0  0  0  0
  -16.8450  -28.6100   23.1020 C   0  0  0  0  0  3  0  0  0  0  0  0
  -26.0210  -32.5950   23.8780 C   0  0  0  0  0  3  0  0  0  0  0  0
  -25.6920  -33.9930   24.2280 N   0  0  0  0  0  0  0  0  0  0  0  0
  -25.9920  -35.0690   23.4880 C   0  0  0  0  0  0  0  0  0  0  0  0
  -26.6300  -34.9900   22.4360 O   0  0  0  0  0  0  0  0  0  0  0  0
  -25.1170  -34.1250   25.0480 H   0  0  0  0  0  0  0  0  0  0  0  0
  -24.2270  -36.8540   23.2530 C   0  0  0  0  0  1  0  0  0  0  0  0
  -25.5140  -36.4490   23.9900 C   0  0  0  0  0  3  0  0  0  0  0  0
  -27.6710  -37.3690   24.7270 C   0  0  0  0  0  1  0  0  0  0  0  0
  -26.5260  -37.5190   23.8330 N   0  0  0  0  0  0  0  0  0  0  0  0
  -26.1130  -38.4330   23.9970 H   0  0  0  0  0  0  0  0  0  0  0  0
  -26.5160  -31.8280   25.1680 C   0  0  1  0  0  0  0  0  0  0  0  0
  -25.4050  -31.5930   26.2190 C   0  0  0  0  0  1  0  0  0  0  0  0
  -27.1080  -30.4500   24.8040 C   0  0  0  0  0  1  0  0  0  0  0  0
  -27.6550  -32.6260   25.8460 C   0  0  0  0  0  1  0  0  0  0  0  0
  -29.8430  -19.3070   20.0050 C   0  0  0  0  0  2  0  0  0  0  0  0
  -30.4500  -16.0790   19.9870 C   0  0  0  0  0  0  0  0  0  0  0  0
  -30.6000  -13.4980   19.1790 C   0  0  0  0  0  2  0  0  0  0  0  0
  -29.6870  -12.9980   18.0180 C   0  0  0  0  0  2  0  0  0  0  0  0
  -28.3040  -12.5850   18.5390 C   0  0  0  0  0  2  0  0  0  0  0  0
  -27.7940  -13.5890   19.5940 C   0  0  0  0  0  3  0  0  0  0  0  0
  -28.8510  -13.9910   20.6540 C   0  0  0  0  0  2  0  0  0  0  0  0
  -29.9570  -14.6810   19.9380 N   0  0  0  0  0  0  0  0  0  0  0  0
  -31.6790  -16.0010   19.7760 O   0  0  0  0  0  0  0  0  0  0  0  0
  -29.6890  -17.4810   20.0810 N   0  0  0  0  0  0  0  0  0  0  0  0
  -28.7130  -17.2610   20.2160 H   0  0  0  0  0  0  0  0  0  0  0  0
  -25.4750  -14.0620   20.5010 C   0  0  0  0  0  0  0  0  0  0  0  0
  -24.4420  -13.2600   20.8920 C   0  0  0  0  0  0  0  0  0  0  0  0
  -24.9200  -11.9170   20.7870 C   0  0  0  0  0  0  0  0  0  0  0  0
  -26.5120  -13.2120   20.1720 N   0  0  0  0  0  0  0  0  0  0  0  0
  -26.1970  -11.9110   20.4090 N   0  0  0  0  0  0  0  0  0  0  0  0
  -24.2090  -10.6440   20.9650 C   0  0  0  0  0  0  0  0  0  0  0  0
  -24.6290   -9.6870   21.9140 C   0  0  0  0  0  3  0  0  0  0  0  0
  -23.9130   -8.4810   22.0820 C   0  0  0  0  0  3  0  0  0  0  0  0
  -22.7620   -8.2240   21.3010 C   0  0  0  0  0  0  0  0  0  0  0  0
  -22.3600   -9.1700   20.3410 C   0  0  0  0  0  3  0  0  0  0  0  0
  -23.0780  -10.3650   20.1710 C   0  0  0  0  0  3  0  0  0  0  0  0
  -22.0190   -7.0700   21.3780 O   0  0  0  0  0  0  0  0  0  0  0  0
  -21.8620   -6.3920   22.5600 C   0  0  0  0  0  0  0  0  0  0  0  0
  -21.2590   -6.9900   23.6880 C   0  0  0  0  0  3  0  0  0  0  0  0
  -21.0540   -6.2360   24.8600 C   0  0  0  0  0  3  0  0  0  0  0  0
  -21.4420   -4.8840   24.9050 C   0  0  0  0  0  0  0  0  0  0  0  0
  -22.0390   -4.2840   23.7810 C   0  0  0  0  0  3  0  0  0  0  0  0
  -22.2440   -5.0360   22.6110 C   0  0  0  0  0  0  0  0  0  0  0  0
  -22.7990   -4.4490   21.5240 F   0  0  0  0  0  0  0  0  0  0  0  0
  -21.2400   -4.1560   26.0280 F   0  0  0  0  0  0  0  0  0  0  0  0
  -23.0560  -13.7160   21.2400 C   0  0  0  0  0  0  0  0  0  0  0  0
  -22.3770  -12.9930   22.1220 N   0  0  0  0  0  0  0  0  0  0  0  0
  -22.5880  -14.7510   20.7680 O   0  0  0  0  0  0  0  0  0  0  0  0
  -22.7710  -12.1560   22.5260 H   0  0  0  0  0  0  0  0  0  0  0  0
  -21.4480  -13.2790   22.3970 H   0  0  0  0  0  0  0  0  0  0  0  0
  -25.6140  -15.4410   20.3640 N   0  0  0  0  0  0  0  0  0  0  0  0
  -24.8430  -16.0790   20.5290 H   0  0  0  0  0  0  0  0  0  0  0  0
  -26.4300  -15.8970   19.9770 H   0  0  0  0  0  0  0  0  0  0  0  0
  2  1  2  0
  3  1  1  0
  4  5  2  0
  4  6  1  0
  5  2  1  0
  6  3  2  0
  7  9  1  0
  7  6  1  0
  8 19  2  0
  9 14  1  0
 10 18  1  0
 10 20  1  0
 11 17  1  0
 11 13  1  0
 12 18  1  0
 13 12  1  0
 14 13  2  0
 15 16  1  0
 15  9  2  0
 16 11  2  0
 17 10  1  0
 18  8  1  0
 20 22  2  0
 21 20  1  0
 23 21  1  0
 24 33  2  0
 24 29  1  0
 25 21  1  0
 25 29  1  0
 26 25  1  0
 27 28  1  0
 27 26  1  0
 28 24  1  0
 29 30  2  0
 30 31  1  0
 32 31  2  0
 33 32  1  0
 34  8  1  0
 34 35  1  0
 34 44  1  0
 35 38  1  0
 36 40  1  0
 36 35  1  0
 37 36  2  0
 40 39  1  0
 42 40  1  0
 42 43  1  0
 42 41  1  0
 44 47  1  1
 44 45  1  0
 46 44  1  0
 48 57  1  0
 48  5  1  0
 49 57  1  0
 50 55  1  0
 51 52  1  0
 51 50  1  0
 53 52  1  0
 53 62  1  0
 53 54  1  0
 55 49  1  0
 55 54  1  0
 56 49  2  0
 57 58  1  0
 59 60  2  0
 60 79  1  0
 61 60  1  0
 61 64  1  0
 62 63  1  0
 62 59  1  0
 63 61  2  0
 64 65  1  0
 65 66  2  0
 67 70  1  0
 67 66  1  0
 68 67  2  0
 69 68  1  0
 69 64  2  0
 70 71  1  0
 71 76  2  0
 71 72  1  0
 72 73  2  0
 73 74  1  0
 74 78  1  0
 75 74  2  0
 76 75  1  0
 77 76  1  0
 79 80  1  0
 80 83  1  0
 80 82  1  0
 81 79  2  0
 84 59  1  0
 84 85  1  0
 86 84  1  0
M  ISO  4   6 101   7 101  49 100  57 100
M  END
>  <TORSDO>  (32) 
F 17

>  <SCORE>  (32) 
-15.190

>  <name>  (32) 
31

>  <ligand_id>  (32) 
31

>  <original_smiles>  (32) 
[H]c1c([H])c(Oc2c([H])c([H])c3c(c2[H])C([H])([H])N(C(=O)C([H])(N([H])C(=O)C([H])(N([H])C([H])([H])[H])C([H])([H])[H])C(C([H])([H])[H])(C([H])([H])[H])C([H])([H])[H])C([H])(C(=O)N([H])C2([H])c4c([H])c([H])c([H])c([H])c4C([H])([H])C([H])([H])C2([H])[H])C3([H])[H])c([H])c(C([H])([H])N([H])C(=O)N2C([H])([H])C([H])([H])C([H])([H])C([H])(n3nc(-c4c([H])c([H])c(Oc5c([H])c([H])c(F)c([H])c5F)c([H])c4[H])c(C(=O)N([H])[H])c3N([H])[H])C2([H])[H])c1[H]

>  <smiles>  (32) 
[H]c1c([H])c(Oc2c([H])c([H])c3c(c2[H])C([H])([H])N(C(=O)C([H])(N([H])C(=O)C([H])(N([H])C([H])([H])[H])C([H])([H])[H])C(C([H])([H])[H])(C([H])([H])[H])C([H])([H])[H])C([H])(C(=O)N([H])C2([H])c4c([H])c([H])c([H])c([H])c4C([H])([H])C([H])([H])C2([H])[H])C3([H])[H])c([H])c(C([H])([H])N([H])C(=O)N2C([H])([H])C([H])([H])C([H])([H])C([H])(n3nc(-c4c([H])c([H])c(Oc5c([H])c([H])c(F)c([H])c5F)c([H])c4[H])c(C(=O)N([H])[H])c3N([H])[H])C2([H])[H])c1[H]

$$$$
32:0:0
     RDKit          3D

 90 98  0  0  1  0  0  0  0  0999 V2000
  -31.0670  -17.9050   19.9700 C   0  0  0  0  0  3  0  0  0  0  0  0
  -30.9720  -19.3180   19.8000 C   0  0  0  0  0  3  0  0  0  0  0  0
  -28.7080  -17.8460   20.3920 C   0  0  0  0  0  3  0  0  0  0  0  0
  -28.6010  -19.2640   20.2210 C   0  0  0  0  0  0  0  0  0  0  0  0
  -29.9240  -17.1240   20.2710 C   0  0  0  0  0  0  0  0  0  0  0  0
  -29.7580  -20.0520   19.9120 C   0  0  0  0  0  0  0  0  0  0  0  0
  -27.2120  -19.8600   20.3800 C   0  0  0  0  0  1  0  0  0  0  0  0
  -30.6770  -14.6450   19.9960 C   0  0  0  0  0  0  0  0  0  0  0  0
  -30.4270  -12.3990   18.9600 C   0  0  0  0  0  2  0  0  0  0  0  0
  -29.4120  -12.5140   17.8010 C   0  0  0  0  0  2  0  0  0  0  0  0
  -27.9660  -12.3540   18.3140 C   0  0  0  0  0  2  0  0  0  0  0  0
  -27.6780  -13.2260   19.5650 C   0  0  0  0  0  3  0  0  0  0  0  0
  -28.7970  -13.0710   20.6190 C   0  0  0  0  0  2  0  0  0  0  0  0
  -30.0730  -13.4150   19.9700 N   0  0  0  0  0  0  0  0  0  0  0  0
  -31.8020  -14.8180   19.5140 O   0  0  0  0  0  0  0  0  0  0  0  0
  -29.8950  -15.6720   20.4510 N   0  0  0  0  0  0  0  0  0  0  0  0
  -29.0480  -15.3300   20.8770 H   0  0  0  0  0  0  0  0  0  0  0  0
  -25.3410  -13.8330   20.4500 C   0  0  0  0  0  0  0  0  0  0  0  0
  -24.2900  -13.0620   20.8660 C   0  0  0  0  0  0  0  0  0  0  0  0
  -24.7310  -11.7070   20.7680 C   0  0  0  0  0  0  0  0  0  0  0  0
  -26.3570  -12.9480   20.1260 N   0  0  0  0  0  0  0  0  0  0  0  0
  -25.9980  -11.6620   20.3750 N   0  0  0  0  0  0  0  0  0  0  0  0
  -24.0020  -10.4480   20.9680 C   0  0  0  0  0  0  0  0  0  0  0  0
  -24.4580   -9.4680   21.8780 C   0  0  0  0  0  3  0  0  0  0  0  0
  -23.7290   -8.2730   22.0660 C   0  0  0  0  0  3  0  0  0  0  0  0
  -22.5320   -8.0500   21.3470 C   0  0  0  0  0  0  0  0  0  0  0  0
  -22.0960   -9.0190   20.4250 C   0  0  0  0  0  3  0  0  0  0  0  0
  -22.8240  -10.2050   20.2340 C   0  0  0  0  0  3  0  0  0  0  0  0
  -21.7730   -6.9100   21.4460 O   0  0  0  0  0  0  0  0  0  0  0  0
  -21.7170   -6.1820   22.6080 C   0  0  0  0  0  0  0  0  0  0  0  0
  -21.2660   -6.7480   23.8200 C   0  0  0  0  0  3  0  0  0  0  0  0
  -21.1580   -5.9460   24.9750 C   0  0  0  0  0  3  0  0  0  0  0  0
  -21.4900   -4.5800   24.9170 C   0  0  0  0  0  0  0  0  0  0  0  0
  -21.9340   -4.0130   23.7080 C   0  0  0  0  0  3  0  0  0  0  0  0
  -22.0440   -4.8130   22.5570 C   0  0  0  0  0  0  0  0  0  0  0  0
  -22.4520   -4.2560   21.3910 F   0  0  0  0  0  0  0  0  0  0  0  0
  -21.3800   -3.8070   26.0230 F   0  0  0  0  0  0  0  0  0  0  0  0
  -22.9180  -13.5470   21.2420 C   0  0  0  0  0  0  0  0  0  0  0  0
  -22.2420  -12.8370   22.1370 N   0  0  0  0  0  0  0  0  0  0  0  0
  -22.4590  -14.5890   20.7750 O   0  0  0  0  0  0  0  0  0  0  0  0
  -22.6270  -11.9940   22.5350 H   0  0  0  0  0  0  0  0  0  0  0  0
  -21.3250  -13.1430   22.4310 H   0  0  0  0  0  0  0  0  0  0  0  0
  -25.5110  -15.2060   20.2980 N   0  0  0  0  0  0  0  0  0  0  0  0
  -24.7540  -15.8620   20.4610 H   0  0  0  0  0  0  0  0  0  0  0  0
  -26.3270  -15.6400   19.8850 H   0  0  0  0  0  0  0  0  0  0  0  0
  -29.8640  -21.4510   19.7040 O   0  0  0  0  0  0  0  0  0  0  0  0
  -28.8170  -22.4480   19.9280 C   0  0  0  0  0  3  0  0  0  0  0  0
  -29.2080  -23.9610   19.6160 C   0  0  0  0  0  3  0  0  0  0  0  0
  -28.1220  -25.0620   19.9710 C   0  0  0  0  0  2  0  0  0  0  0  0
  -28.3630  -26.4860   19.6390 O   0  0  0  0  0  0  0  0  0  0  0  0
  -24.7590  -31.6290   23.2030 C   0  0  0  0  0  0  0  0  0  0  0  0
  -27.2590  -27.3490   19.7000 C   0  0  0  0  0  0  0  0  0  0  0  0
  -23.5150  -30.4180   21.4480 C   0  0  0  0  0  3  0  0  0  0  0  0
  -24.9240  -28.9880   19.8670 C   0  0  0  0  0  0  0  0  0  0  0  0
  -26.0580  -30.7080   21.2730 C   0  0  0  0  0  2  0  0  0  0  0  0
  -26.1050  -29.3970   20.4980 C   0  0  0  0  0  0  0  0  0  0  0  0
  -27.2770  -28.5890   20.4070 C   0  0  0  0  0  3  0  0  0  0  0  0
  -26.0600  -27.0050   19.0360 C   0  0  0  0  0  3  0  0  0  0  0  0
  -24.9020  -27.7980   19.1270 C   0  0  0  0  0  3  0  0  0  0  0  0
  -23.7050  -29.8750   20.0080 C   0  0  0  0  0  2  0  0  0  0  0  0
  -24.7970  -30.9300   22.0320 N   0  0  0  0  0  0  0  0  0  0  0  0
  -23.6860  -31.8750   23.7730 O   0  0  0  0  0  0  0  0  0  0  0  0
  -22.8410  -29.3250   22.3120 C   0  0  0  0  0  0  0  0  0  0  0  0
  -21.5100  -29.1910   22.1860 N   0  0  0  0  0  0  0  0  0  0  0  0
  -23.5140  -28.6060   23.0540 O   0  0  0  0  0  0  0  0  0  0  0  0
  -21.0280  -29.8260   21.5650 H   0  0  0  0  0  0  0  0  0  0  0  0
  -18.1050  -28.0620   22.6470 C   0  0  0  0  0  0  0  0  0  0  0  0
  -20.6770  -28.2020   22.8720 C   0  0  0  0  0  3  0  0  0  0  0  0
  -20.7120  -26.8410   22.1410 C   0  0  0  0  0  2  0  0  0  0  0  0
  -19.5750  -26.6690   21.1290 C   0  0  0  0  0  2  0  0  0  0  0  0
  -18.2160  -26.7900   21.8230 C   0  0  0  0  0  2  0  0  0  0  0  0
  -19.2610  -28.7330   23.1270 C   0  0  0  0  0  0  0  0  0  0  0  0
  -19.1040  -29.9310   23.8580 C   0  0  0  0  0  3  0  0  0  0  0  0
  -17.8230  -30.4550   24.1150 C   0  0  0  0  0  3  0  0  0  0  0  0
  -16.6810  -29.7780   23.6510 C   0  0  0  0  0  3  0  0  0  0  0  0
  -16.8240  -28.5830   22.9240 C   0  0  0  0  0  3  0  0  0  0  0  0
  -26.0600  -32.1740   23.8700 C   0  0  0  0  0  3  0  0  0  0  0  0
  -26.5730  -31.2700   25.0590 C   0  0  1  0  0  0  0  0  0  0  0  0
  -25.4860  -30.9520   26.1120 C   0  0  0  0  0  1  0  0  0  0  0  0
  -27.1220  -29.9270   24.5270 C   0  0  0  0  0  1  0  0  0  0  0  0
  -27.7480  -31.9720   25.7800 C   0  0  0  0  0  1  0  0  0  0  0  0
  -25.7810  -33.5380   24.3400 N   0  0  0  0  0  0  0  0  0  0  0  0
  -26.1110  -34.6540   23.6770 C   0  0  0  0  0  0  0  0  0  0  0  0
  -26.7530  -34.6400   22.6230 O   0  0  0  0  0  0  0  0  0  0  0  0
  -25.2110  -33.6220   25.1700 H   0  0  0  0  0  0  0  0  0  0  0  0
  -24.3960  -36.4880   23.5480 C   0  0  0  0  0  1  0  0  0  0  0  0
  -25.6570  -35.9980   24.2780 C   0  0  0  0  0  3  0  0  0  0  0  0
  -27.8250  -36.7830   25.1210 C   0  0  0  0  0  1  0  0  0  0  0  0
  -26.6990  -37.0460   24.2280 N   0  0  0  0  0  0  0  0  0  0  0  0
  -26.3080  -37.9530   24.4680 H   0  0  0  0  0  0  0  0  0  0  0  0
  1  5  1  0
  2  6  1  0
  2  1  2  0
  4  7  1  0
  4  3  1  0
  5  3  2  0
  5 16  1  0
  6  4  2  0
  8 16  1  0
  9 14  1  0
 10 11  1  0
 10  9  1  0
 12 11  1  0
 12 21  1  0
 12 13  1  0
 14  8  1  0
 14 13  1  0
 15  8  2  0
 16 17  1  0
 18 19  2  0
 19 38  1  0
 20 19  1  0
 20 23  1  0
 21 22  1  0
 21 18  1  0
 22 20  2  0
 23 24  1  0
 24 25  2  0
 26 29  1  0
 26 25  1  0
 27 26  2  0
 28 27  1  0
 28 23  2  0
 29 30  1  0
 30 31  1  0
 31 32  2  0
 33 32  1  0
 33 37  1  0
 34 33  2  0
 35 30  2  0
 35 34  1  0
 36 35  1  0
 38 39  1  0
 39 42  1  0
 39 41  1  0
 40 38  2  0
 43 18  1  0
 43 44  1  0
 45 43  1  0
 46  6  1  0
 46 47  1  0
 48 47  2  0
 48 49  1  0
 50 52  1  0
 50 49  1  0
 51 62  2  0
 52 57  1  0
 53 61  1  0
 53 63  1  0
 54 60  1  0
 54 56  1  0
 55 61  1  0
 56 55  1  0
 57 56  2  0
 58 59  1  0
 58 52  2  0
 59 54  2  0
 60 53  1  0
 61 51  1  0
 63 65  2  0
 64 63  1  0
 66 64  1  0
 67 76  2  0
 67 72  1  0
 68 64  1  0
 68 72  1  0
 69 68  1  0
 70 71  1  0
 70 69  1  0
 71 67  1  0
 72 73  2  0
 73 74  1  0
 75 74  2  0
 76 75  1  0
 77 51  1  0
 77 82  1  0
 77 78  1  0
 78 81  1  1
 78 79  1  0
 80 78  1  0
 82 85  1  0
 83 87  1  0
 83 82  1  0
 84 83  2  0
 87 86  1  0
 89 87  1  0
 89 90  1  0
 89 88  1  0
M  ISO  4   8 100  16 100  49 101  50 101
M  END
>  <TORSDO>  (33) 
F 20

>  <SCORE>  (33) 
-12.647

>  <name>  (33) 
32

>  <ligand_id>  (33) 
32

>  <original_smiles>  (33) 
[H]c1c([H])c([H])c2c(c1[H])C([H])([H])C([H])([H])C([H])([H])C2([H])N([H])C(=O)C1([H])N(C(=O)C([H])(N([H])C(=O)C([H])(N([H])C([H])([H])[H])C([H])([H])[H])C(C([H])([H])[H])(C([H])([H])[H])C([H])([H])[H])C([H])([H])c2c([H])c(OC([H])([H])C([H])([H])C([H])([H])Oc3c([H])c([H])c(N([H])C(=O)N4C([H])([H])C([H])([H])C([H])([H])C([H])(n5nc(-c6c([H])c([H])c(Oc7c([H])c([H])c(F)c([H])c7F)c([H])c6[H])c(C(=O)N([H])[H])c5N([H])[H])C4([H])[H])c([H])c3C([H])([H])[H])c([H])c([H])c2C1([H])[H]

>  <smiles>  (33) 
[H]c1c([H])c([H])c2c(c1[H])C([H])([H])C([H])([H])C([H])([H])C2([H])N([H])C(=O)C1([H])N(C(=O)C([H])(N([H])C(=O)C([H])(N([H])C([H])([H])[H])C([H])([H])[H])C(C([H])([H])[H])(C([H])([H])[H])C([H])([H])[H])C([H])([H])c2c([H])c(OC([H])([H])C([H])([H])C([H])([H])Oc3c([H])c([H])c(N([H])C(=O)N4C([H])([H])C([H])([H])C([H])([H])C([H])(n5nc(-c6c([H])c([H])c(Oc7c([H])c([H])c(F)c([H])c7F)c([H])c6[H])c(C(=O)N([H])[H])c5N([H])[H])C4([H])[H])c([H])c3C([H])([H])[H])c([H])c([H])c2C1([H])[H]

$$$$
33:0:0
     RDKit          3D

 92100  0  0  1  0  0  0  0  0999 V2000
  -29.7240  -20.6420   18.2500 C   0  0  0  0  0  2  0  0  0  0  0  0
  -29.3490  -17.8160   20.8040 C   0  0  0  0  0  3  0  0  0  0  0  0
  -31.7170  -18.0640   20.2660 C   0  0  0  0  0  3  0  0  0  0  0  0
  -29.0400  -18.8680   19.9210 C   0  0  0  0  0  3  0  0  0  0  0  0
  -31.4050  -19.1130   19.3790 C   0  0  0  0  0  3  0  0  0  0  0  0
  -30.6890  -17.4080   20.9770 C   0  0  0  0  0  0  0  0  0  0  0  0
  -30.0650  -19.5130   19.1990 C   0  0  0  0  0  0  0  0  0  0  0  0
  -31.0160  -16.2380   21.8880 C   0  0  0  0  0  2  0  0  0  0  0  0
  -30.7360  -14.2830   20.3880 C   0  0  0  0  0  0  0  0  0  0  0  0
  -30.2710  -12.2750   19.0340 C   0  0  0  0  0  2  0  0  0  0  0  0
  -29.2950  -12.5820   17.8840 C   0  0  0  0  0  2  0  0  0  0  0  0
  -27.8360  -12.4520   18.3590 C   0  0  0  0  0  2  0  0  0  0  0  0
  -27.5680  -13.2340   19.6720 C   0  0  0  0  0  3  0  0  0  0  0  0
  -28.6460  -12.9110   20.7320 C   0  0  0  0  0  2  0  0  0  0  0  0
  -29.9740  -13.1860   20.1490 N   0  0  0  0  0  0  0  0  0  0  0  0
  -31.7280  -14.5790   19.7140 O   0  0  0  0  0  0  0  0  0  0  0  0
  -30.3670  -15.0110   21.4470 N   0  0  0  0  0  0  0  0  0  0  0  0
  -29.5650  -14.6940   21.9700 H   0  0  0  0  0  0  0  0  0  0  0  0
  -25.1890  -13.8650   20.4320 C   0  0  0  0  0  0  0  0  0  0  0  0
  -24.1230  -13.1020   20.8270 C   0  0  0  0  0  0  0  0  0  0  0  0
  -24.5700  -11.7460   20.7850 C   0  0  0  0  0  0  0  0  0  0  0  0
  -26.2210  -12.9750   20.1800 N   0  0  0  0  0  0  0  0  0  0  0  0
  -25.8520  -11.6960   20.4450 N   0  0  0  0  0  0  0  0  0  0  0  0
  -23.8380  -10.4900   20.9930 C   0  0  0  0  0  0  0  0  0  0  0  0
  -24.2850   -9.5200   21.9190 C   0  0  0  0  0  3  0  0  0  0  0  0
  -23.5550   -8.3290   22.1150 C   0  0  0  0  0  3  0  0  0  0  0  0
  -22.3640   -8.0980   21.3860 C   0  0  0  0  0  0  0  0  0  0  0  0
  -21.9360   -9.0560   20.4500 C   0  0  0  0  0  3  0  0  0  0  0  0
  -22.6670  -10.2390   20.2530 C   0  0  0  0  0  3  0  0  0  0  0  0
  -21.6030   -6.9590   21.4920 O   0  0  0  0  0  0  0  0  0  0  0  0
  -21.5790   -6.2140   22.6440 C   0  0  0  0  0  0  0  0  0  0  0  0
  -21.1880   -6.7680   23.8820 C   0  0  0  0  0  3  0  0  0  0  0  0
  -21.1090   -5.9500   25.0270 C   0  0  0  0  0  3  0  0  0  0  0  0
  -21.4130   -4.5780   24.9340 C   0  0  0  0  0  0  0  0  0  0  0  0
  -21.7990   -4.0230   23.7010 C   0  0  0  0  0  3  0  0  0  0  0  0
  -21.8780   -4.8390   22.5590 C   0  0  0  0  0  0  0  0  0  0  0  0
  -22.2290   -4.2950   21.3690 F   0  0  0  0  0  0  0  0  0  0  0  0
  -21.3320   -3.7900   26.0320 F   0  0  0  0  0  0  0  0  0  0  0  0
  -22.7360  -13.5900   21.1350 C   0  0  0  0  0  0  0  0  0  0  0  0
  -22.0240  -12.8990   22.0190 N   0  0  0  0  0  0  0  0  0  0  0  0
  -22.2930  -14.6210   20.6280 O   0  0  0  0  0  0  0  0  0  0  0  0
  -22.3930  -12.0650   22.4500 H   0  0  0  0  0  0  0  0  0  0  0  0
  -21.0940  -13.2070   22.2660 H   0  0  0  0  0  0  0  0  0  0  0  0
  -25.3620  -15.2340   20.2500 N   0  0  0  0  0  0  0  0  0  0  0  0
  -24.6100  -15.9000   20.3810 H   0  0  0  0  0  0  0  0  0  0  0  0
  -26.2170  -15.6610   19.9130 H   0  0  0  0  0  0  0  0  0  0  0  0
  -29.6690  -21.8760   18.9460 O   0  0  0  0  0  0  0  0  0  0  0  0
  -29.2270  -22.9500   18.1350 C   0  0  0  0  0  2  0  0  0  0  0  0
  -29.3760  -24.2380   18.9490 C   0  0  0  0  0  2  0  0  0  0  0  0
  -28.9330  -25.4880   18.1770 C   0  0  0  0  0  2  0  0  0  0  0  0
  -29.1620  -26.7850   18.9690 C   0  0  0  0  0  2  0  0  0  0  0  0
  -28.4660  -26.7690   20.2120 O   0  0  0  0  0  0  0  0  0  0  0  0
  -24.5950  -31.9020   23.2360 C   0  0  0  0  0  0  0  0  0  0  0  0
  -27.2860  -27.4670   20.2170 C   0  0  0  0  0  0  0  0  0  0  0  0
  -23.4060  -30.4810   21.5930 C   0  0  0  0  0  3  0  0  0  0  0  0
  -24.8770  -28.9300   20.2040 C   0  0  0  0  0  0  0  0  0  0  0  0
  -25.9290  -30.8480   21.4180 C   0  0  0  0  0  2  0  0  0  0  0  0
  -26.0240  -29.4720   20.8010 C   0  0  0  0  0  0  0  0  0  0  0  0
  -27.2290  -28.7400   20.8170 C   0  0  0  0  0  3  0  0  0  0  0  0
  -26.1240  -26.9190   19.6370 C   0  0  0  0  0  3  0  0  0  0  0  0
  -24.9190  -27.6470   19.6270 C   0  0  0  0  0  3  0  0  0  0  0  0
  -23.6310  -29.7840   20.2240 C   0  0  0  0  0  2  0  0  0  0  0  0
  -24.6610  -31.0910   22.1420 N   0  0  0  0  0  0  0  0  0  0  0  0
  -23.5080  -32.1790   23.7620 O   0  0  0  0  0  0  0  0  0  0  0  0
  -22.7470  -29.4700   22.5560 C   0  0  0  0  0  0  0  0  0  0  0  0
  -21.4230  -29.2940   22.4210 N   0  0  0  0  0  0  0  0  0  0  0  0
  -23.4230  -28.8470   23.3790 O   0  0  0  0  0  0  0  0  0  0  0  0
  -20.9400  -29.8460   21.7260 H   0  0  0  0  0  0  0  0  0  0  0  0
  -18.0370  -28.1400   22.9160 C   0  0  0  0  0  0  0  0  0  0  0  0
  -20.5960  -28.3660   23.1910 C   0  0  0  0  0  3  0  0  0  0  0  0
  -20.6830  -26.9340   22.6150 C   0  0  0  0  0  2  0  0  0  0  0  0
  -19.5790  -26.6240   21.6000 C   0  0  0  0  0  2  0  0  0  0  0  0
  -18.1980  -26.7880   22.2420 C   0  0  0  0  0  2  0  0  0  0  0  0
  -19.1640  -28.8890   23.3470 C   0  0  0  0  0  0  0  0  0  0  0  0
  -18.9600  -30.1560   23.9350 C   0  0  0  0  0  3  0  0  0  0  0  0
  -17.6630  -30.6750   24.0980 C   0  0  0  0  0  3  0  0  0  0  0  0
  -16.5490  -29.9230   23.6840 C   0  0  0  0  0  3  0  0  0  0  0  0
  -16.7380  -28.6580   23.0980 C   0  0  0  0  0  3  0  0  0  0  0  0
  -25.8760  -32.5360   23.8630 C   0  0  0  0  0  3  0  0  0  0  0  0
  -25.5650  -33.9350   24.1850 N   0  0  0  0  0  0  0  0  0  0  0  0
  -25.9020  -34.9830   23.4210 C   0  0  0  0  0  0  0  0  0  0  0  0
  -26.5800  -34.8750   22.3960 O   0  0  0  0  0  0  0  0  0  0  0  0
  -24.9700  -34.0940   24.9850 H   0  0  0  0  0  0  0  0  0  0  0  0
  -24.1760  -36.7680   23.0350 C   0  0  0  0  0  1  0  0  0  0  0  0
  -25.4080  -36.3720   23.8660 C   0  0  0  0  0  3  0  0  0  0  0  0
  -27.5330  -37.2620   24.7150 C   0  0  0  0  0  1  0  0  0  0  0  0
  -26.4400  -37.4260   23.7600 N   0  0  0  0  0  0  0  0  0  0  0  0
  -26.0310  -38.3450   23.9030 H   0  0  0  0  0  0  0  0  0  0  0  0
  -26.3880  -31.7690   25.1440 C   0  0  1  0  0  0  0  0  0  0  0  0
  -25.2900  -31.5310   26.2060 C   0  0  0  0  0  1  0  0  0  0  0  0
  -26.9760  -30.3930   24.7550 C   0  0  0  0  0  1  0  0  0  0  0  0
  -27.5330  -32.5670   25.8120 C   0  0  0  0  0  1  0  0  0  0  0  0
  1 47  1  0
  1  7  1  0
  2  6  1  0
  3  6  2  0
  4  2  2  0
  5  3  1  0
  6  8  1  0
  7  5  2  0
  7  4  1  0
  9 17  1  0
 10 15  1  0
 11 12  1  0
 11 10  1  0
 13 12  1  0
 13 22  1  0
 13 14  1  0
 15  9  1  0
 15 14  1  0
 16  9  2  0
 17  8  1  0
 17 18  1  0
 19 20  2  0
 20 39  1  0
 21 20  1  0
 21 24  1  0
 22 19  1  0
 22 23  1  0
 23 21  2  0
 24 25  1  0
 25 26  2  0
 27 30  1  0
 27 26  1  0
 28 27  2  0
 29 28  1  0
 29 24  2  0
 30 31  1  0
 31 32  1  0
 32 33  2  0
 34 33  1  0
 34 38  1  0
 35 34  2  0
 36 31  2  0
 36 35  1  0
 37 36  1  0
 39 40  1  0
 40 43  1  0
 40 42  1  0
 41 39  2  0
 44 45  1  0
 44 19  1  0
 46 44  1  0
 48 47  1  0
 48 49  1  0
 50 49  1  0
 50 51  1  0
 51 52  1  0
 52 54  1  0
 53 64  2  0
 54 59  1  0
 55 63  1  0
 55 65  1  0
 56 62  1  0
 56 58  1  0
 57 63  1  0
 58 59  2  0
 58 57  1  0
 60 54  2  0
 61 60  1  0
 61 56  2  0
 62 55  1  0
 63 53  1  0
 65 67  2  0
 66 65  1  0
 68 66  1  0
 69 78  2  0
 69 74  1  0
 70 66  1  0
 70 74  1  0
 71 70  1  0
 72 73  1  0
 72 71  1  0
 73 69  1  0
 74 75  2  0
 75 76  1  0
 77 76  2  0
 78 77  1  0
 79 53  1  0
 79 80  1  0
 79 89  1  0
 80 83  1  0
 81 85  1  0
 81 80  1  0
 82 81  2  0
 85 84  1  0
 87 85  1  0
 87 88  1  0
 87 86  1  0
 89 92  1  1
 89 90  1  0
 91 89  1  0
M  ISO  4   9 100  17 100  51 101  52 101
M  END
>  <TORSDO>  (34) 
F 23

>  <SCORE>  (34) 
-12.893

>  <name>  (34) 
33

>  <ligand_id>  (34) 
33

>  <original_smiles>  (34) 
[H]c1c([H])c([H])c2c(c1[H])C([H])([H])C([H])([H])C([H])([H])C2([H])N([H])C(=O)C1([H])N(C(=O)C([H])(N([H])C(=O)C([H])(N([H])C([H])([H])[H])C([H])([H])[H])C(C([H])([H])[H])(C([H])([H])[H])C([H])([H])[H])C([H])([H])c2c([H])c(OC([H])([H])C([H])([H])C([H])([H])C([H])([H])OC([H])([H])c3c([H])c([H])c(C([H])([H])N([H])C(=O)N4C([H])([H])C([H])([H])C([H])([H])C([H])(n5nc(-c6c([H])c([H])c(Oc7c([H])c([H])c(F)c([H])c7F)c([H])c6[H])c(C(=O)N([H])[H])c5N([H])[H])C4([H])[H])c([H])c3[H])c([H])c([H])c2C1([H])[H]

>  <smiles>  (34) 
[H]c1c([H])c([H])c2c(c1[H])C([H])([H])C([H])([H])C([H])([H])C2([H])N([H])C(=O)C1([H])N(C(=O)C([H])(N([H])C(=O)C([H])(N([H])C([H])([H])[H])C([H])([H])[H])C(C([H])([H])[H])(C([H])([H])[H])C([H])([H])[H])C([H])([H])c2c([H])c(OC([H])([H])C([H])([H])C([H])([H])C([H])([H])OC([H])([H])c3c([H])c([H])c(C([H])([H])N([H])C(=O)N4C([H])([H])C([H])([H])C([H])([H])C([H])(n5nc(-c6c([H])c([H])c(Oc7c([H])c([H])c(F)c([H])c7F)c([H])c6[H])c(C(=O)N([H])[H])c5N([H])[H])C4([H])[H])c([H])c3[H])c([H])c([H])c2C1([H])[H]

$$$$
34:0:0
     RDKit          3D

 90 98  0  0  1  0  0  0  0  0999 V2000
  -29.6320  -20.9400   22.8760 C   0  0  0  0  0  3  0  0  0  0  0  0
  -29.6750  -21.4710   21.5870 C   0  0  0  0  0  3  0  0  0  0  0  0
  -30.0760  -19.6450   23.0880 C   0  0  0  0  0  3  0  0  0  0  0  0
  -30.6380  -19.3210   20.6680 C   0  0  0  0  0  0  0  0  0  0  0  0
  -30.1370  -20.7790   20.4310 C   0  0  0  0  0  0  0  0  0  0  0  0
  -30.5770  -18.8800   22.0320 C   0  0  0  0  0  0  0  0  0  0  0  0
  -31.0130  -17.6580   22.4060 F   0  0  0  0  0  0  0  0  0  0  0  0
  -31.3070  -18.0730   19.7650 C   0  0  0  0  0  2  0  0  0  0  0  0
  -31.7840  -15.2530   19.7830 C   0  0  0  0  0  0  0  0  0  0  0  0
  -31.5000  -12.8980   18.8620 C   0  0  0  0  0  2  0  0  0  0  0  0
  -30.5100  -12.8930   17.6730 C   0  0  0  0  0  2  0  0  0  0  0  0
  -29.0670  -12.7330   18.1820 C   0  0  0  0  0  2  0  0  0  0  0  0
  -28.7620  -13.6810   19.3690 C   0  0  0  0  0  3  0  0  0  0  0  0
  -29.8670  -13.6640   20.4480 C   0  0  0  0  0  2  0  0  0  0  0  0
  -31.1260  -14.0170   19.7800 N   0  0  0  0  0  0  0  0  0  0  0  0
  -32.9650  -15.2420   19.4140 O   0  0  0  0  0  0  0  0  0  0  0  0
  -31.0740  -16.4830   19.9890 N   0  0  0  0  0  0  0  0  0  0  0  0
  -30.1610  -16.2960   20.3760 H   0  0  0  0  0  0  0  0  0  0  0  0
  -26.4610  -14.3880   20.2260 C   0  0  0  0  0  0  0  0  0  0  0  0
  -25.3700  -13.6710   20.6320 C   0  0  0  0  0  0  0  0  0  0  0  0
  -25.7500  -12.2940   20.5670 C   0  0  0  0  0  0  0  0  0  0  0  0
  -27.4370  -13.4520   19.9320 N   0  0  0  0  0  0  0  0  0  0  0  0
  -27.0240  -12.1880   20.2040 N   0  0  0  0  0  0  0  0  0  0  0  0
  -24.9580  -11.0750   20.7710 C   0  0  0  0  0  0  0  0  0  0  0  0
  -25.2760  -10.1470   21.7870 C   0  0  0  0  0  3  0  0  0  0  0  0
  -24.4840   -8.9930   21.9760 C   0  0  0  0  0  3  0  0  0  0  0  0
  -23.3610   -8.7600   21.1470 C   0  0  0  0  0  0  0  0  0  0  0  0
  -23.0630   -9.6750   20.1230 C   0  0  0  0  0  3  0  0  0  0  0  0
  -23.8540  -10.8200   19.9340 C   0  0  0  0  0  3  0  0  0  0  0  0
  -22.5490   -7.6550   21.2440 O   0  0  0  0  0  0  0  0  0  0  0  0
  -22.2240   -7.1030   22.4570 C   0  0  0  0  0  0  0  0  0  0  0  0
  -21.5720   -7.8470   23.4650 C   0  0  0  0  0  3  0  0  0  0  0  0
  -21.1930   -7.2210   24.6670 C   0  0  0  0  0  3  0  0  0  0  0  0
  -21.4550   -5.8530   24.8640 C   0  0  0  0  0  0  0  0  0  0  0  0
  -22.0960   -5.1080   23.8600 C   0  0  0  0  0  3  0  0  0  0  0  0
  -22.4750   -5.7300   22.6580 C   0  0  0  0  0  0  0  0  0  0  0  0
  -23.0750   -5.0030   21.6850 F   0  0  0  0  0  0  0  0  0  0  0  0
  -21.0820   -5.2470   26.0170 F   0  0  0  0  0  0  0  0  0  0  0  0
  -24.0180  -14.2280   20.9650 C   0  0  0  0  0  0  0  0  0  0  0  0
  -23.3060  -13.5950   21.8920 N   0  0  0  0  0  0  0  0  0  0  0  0
  -23.6020  -15.2590   20.4380 O   0  0  0  0  0  0  0  0  0  0  0  0
  -23.6550  -12.7600   22.3390 H   0  0  0  0  0  0  0  0  0  0  0  0
  -22.4030  -13.9560   22.1580 H   0  0  0  0  0  0  0  0  0  0  0  0
  -26.6960  -15.7490   20.0520 N   0  0  0  0  0  0  0  0  0  0  0  0
  -25.9510  -16.4310   20.1390 H   0  0  0  0  0  0  0  0  0  0  0  0
  -27.5430  -16.1440   19.6640 H   0  0  0  0  0  0  0  0  0  0  0  0
  -29.9350  -21.6880   19.2840 O   0  0  0  0  0  0  0  0  0  0  0  0
  -29.9250  -23.2910   19.2980 C   0  0  0  0  0  3  0  0  0  0  0  0
  -28.6910  -24.4830   19.1180 C   0  0  0  0  0  3  0  0  0  0  0  0
  -28.7850  -26.0620   19.2320 O   0  0  0  0  0  0  0  0  0  0  0  0
  -24.6780  -31.0660   22.8780 C   0  0  0  0  0  0  0  0  0  0  0  0
  -27.6310  -26.9490   19.3070 C   0  0  0  0  0  0  0  0  0  0  0  0
  -23.5760  -29.7250   21.1310 C   0  0  0  0  0  3  0  0  0  0  0  0
  -25.1330  -28.4590   19.5220 C   0  0  0  0  0  0  0  0  0  0  0  0
  -26.0890  -30.2650   20.9390 C   0  0  0  0  0  2  0  0  0  0  0  0
  -26.2850  -28.9590   20.1400 C   0  0  0  0  0  0  0  0  0  0  0  0
  -27.5300  -28.2240   20.0130 C   0  0  0  0  0  3  0  0  0  0  0  0
  -26.4340  -26.5590   18.6700 C   0  0  0  0  0  3  0  0  0  0  0  0
  -25.2200  -27.2740   18.7780 C   0  0  0  0  0  3  0  0  0  0  0  0
  -23.8240  -29.2170   19.6880 C   0  0  0  0  0  2  0  0  0  0  0  0
  -24.8030  -30.3680   21.7050 N   0  0  0  0  0  0  0  0  0  0  0  0
  -23.5850  -31.1850   23.4530 O   0  0  0  0  0  0  0  0  0  0  0  0
  -23.0290  -28.5600   22.0000 C   0  0  0  0  0  0  0  0  0  0  0  0
  -21.7410  -28.2160   21.8290 N   0  0  0  0  0  0  0  0  0  0  0  0
  -23.7690  -27.9750   22.7940 O   0  0  0  0  0  0  0  0  0  0  0  0
  -21.1880  -28.7510   21.1750 H   0  0  0  0  0  0  0  0  0  0  0  0
  -18.5790  -26.4640   22.1000 C   0  0  0  0  0  0  0  0  0  0  0  0
  -21.0510  -27.1120   22.5060 C   0  0  0  0  0  3  0  0  0  0  0  0
  -21.4050  -25.7530   21.8570 C   0  0  0  0  0  2  0  0  0  0  0  0
  -20.4100  -25.3240   20.7730 C   0  0  0  0  0  2  0  0  0  0  0  0
  -18.9980  -25.2070   21.3580 C   0  0  0  0  0  2  0  0  0  0  0  0
  -19.5430  -27.3660   22.6260 C   0  0  0  0  0  0  0  0  0  0  0  0
  -19.1040  -28.5350   23.2810 C   0  0  0  0  0  3  0  0  0  0  0  0
  -17.7290  -28.8110   23.4200 C   0  0  0  0  0  3  0  0  0  0  0  0
  -16.7770  -27.9080   22.9150 C   0  0  0  0  0  3  0  0  0  0  0  0
  -17.2030  -26.7380   22.2610 C   0  0  0  0  0  3  0  0  0  0  0  0
  -25.9000  -31.7680   23.5410 C   0  0  0  0  0  3  0  0  0  0  0  0
  -26.4820  -30.9680   24.7740 C   0  0  1  0  0  0  0  0  0  0  0  0
  -25.4070  -30.5610   25.8100 C   0  0  0  0  0  1  0  0  0  0  0  0
  -27.1920  -29.6770   24.3070 C   0  0  0  0  0  1  0  0  0  0  0  0
  -27.5600  -31.8180   25.4860 C   0  0  0  0  0  1  0  0  0  0  0  0
  -25.4760  -33.1140   23.9580 N   0  0  0  0  0  0  0  0  0  0  0  0
  -25.7550  -34.2460   23.2970 C   0  0  0  0  0  0  0  0  0  0  0  0
  -26.4570  -34.2670   22.2810 O   0  0  0  0  0  0  0  0  0  0  0  0
  -24.8430  -33.1630   24.7430 H   0  0  0  0  0  0  0  0  0  0  0  0
  -23.9130  -35.9390   23.0220 C   0  0  0  0  0  1  0  0  0  0  0  0
  -25.1580  -35.5600   23.8410 C   0  0  0  0  0  3  0  0  0  0  0  0
  -27.2020  -36.5200   24.8020 C   0  0  0  0  0  1  0  0  0  0  0  0
  -26.1170  -36.6880   23.8380 N   0  0  0  0  0  0  0  0  0  0  0  0
  -25.6470  -37.5660   24.0400 H   0  0  0  0  0  0  0  0  0  0  0  0
  1  3  1  0
  2  1  2  0
  4  6  1  0
  5  4  2  0
  5  2  1  0
  6  7  1  0
  6  3  2  0
  8 17  1  0
  8  4  1  0
  9 17  1  0
 10 15  1  0
 11 12  1  0
 11 10  1  0
 13 12  1  0
 13 22  1  0
 13 14  1  0
 15  9  1  0
 15 14  1  0
 16  9  2  0
 17 18  1  0
 19 20  2  0
 20 39  1  0
 21 20  1  0
 21 24  1  0
 22 23  1  0
 22 19  1  0
 23 21  2  0
 24 25  1  0
 25 26  2  0
 27 30  1  0
 27 26  1  0
 28 27  2  0
 29 28  1  0
 29 24  2  0
 30 31  1  0
 31 36  2  0
 31 32  1  0
 32 33  2  0
 33 34  1  0
 34 38  1  0
 35 34  2  0
 36 35  1  0
 37 36  1  0
 39 40  1  0
 40 43  1  0
 40 42  1  0
 41 39  2  0
 44 45  1  0
 44 19  1  0
 46 44  1  0
 47 48  1  0
 47  5  1  0
 49 50  1  0
 49 48  2  0
 50 52  1  0
 51 62  2  0
 52 57  1  0
 53 61  1  0
 53 63  1  0
 54 60  1  0
 54 56  1  0
 55 61  1  0
 56 55  1  0
 57 56  2  0
 58 59  1  0
 58 52  2  0
 59 54  2  0
 60 53  1  0
 61 51  1  0
 63 65  2  0
 64 63  1  0
 66 64  1  0
 67 76  2  0
 67 72  1  0
 68 64  1  0
 68 72  1  0
 69 68  1  0
 70 71  1  0
 70 69  1  0
 71 67  1  0
 72 73  2  0
 73 74  1  0
 75 74  2  0
 76 75  1  0
 77 51  1  0
 77 82  1  0
 77 78  1  0
 78 81  1  1
 78 79  1  0
 80 78  1  0
 82 85  1  0
 83 87  1  0
 83 82  1  0
 84 83  2  0
 87 86  1  0
 89 87  1  0
 89 90  1  0
 89 88  1  0
M  ISO  4   9 100  17 100  49 101  50 101
M  END
>  <TORSDO>  (35) 
F 20

>  <SCORE>  (35) 
-9.318

>  <name>  (35) 
34

>  <ligand_id>  (35) 
34

>  <original_smiles>  (35) 
[H]c1c([H])c(F)c(C([H])([H])N([H])C(=O)N2C([H])([H])C([H])([H])C([H])([H])C([H])(n3nc(-c4c([H])c([H])c(Oc5c([H])c([H])c(F)c([H])c5F)c([H])c4[H])c(C(=O)N([H])[H])c3N([H])[H])C2([H])[H])c(OC([H])([H])C([H])([H])Oc2c([H])c([H])c3c(c2[H])C([H])([H])N(C(=O)C([H])(N([H])C(=O)C([H])(N([H])C([H])([H])[H])C([H])([H])[H])C(C([H])([H])[H])(C([H])([H])[H])C([H])([H])[H])C([H])(C(=O)N([H])C2([H])c4c([H])c([H])c([H])c([H])c4C([H])([H])C([H])([H])C2([H])[H])C3([H])[H])c1[H]

>  <smiles>  (35) 
[H]c1c([H])c(F)c(C([H])([H])N([H])C(=O)N2C([H])([H])C([H])([H])C([H])([H])C([H])(n3nc(-c4c([H])c([H])c(Oc5c([H])c([H])c(F)c([H])c5F)c([H])c4[H])c(C(=O)N([H])[H])c3N([H])[H])C2([H])[H])c(OC([H])([H])C([H])([H])Oc2c([H])c([H])c3c(c2[H])C([H])([H])N(C(=O)C([H])(N([H])C(=O)C([H])(N([H])C([H])([H])[H])C([H])([H])[H])C(C([H])([H])[H])(C([H])([H])[H])C([H])([H])[H])C([H])(C(=O)N([H])C2([H])c4c([H])c([H])c([H])c([H])c4C([H])([H])C([H])([H])C2([H])[H])C3([H])[H])c1[H]

$$$$
35:0:0
     RDKit          3D

 90 97  0  0  1  0  0  0  0  0999 V2000
  -27.8170  -21.1990   19.7220 C   0  0  0  0  0  0  0  0  0  0  0  0
  -27.7300  -22.1630   18.7990 N   0  0  0  0  0  0  0  0  0  0  0  0
  -27.5940  -21.4010   20.9200 O   0  0  0  0  0  0  0  0  0  0  0  0
  -27.9360  -21.9100   17.8420 H   0  0  0  0  0  0  0  0  0  0  0  0
  -28.1660  -19.7950   19.2260 C   0  0  0  0  0  2  0  0  0  0  0  0
  -29.2920  -19.1030   20.0270 C   0  0  0  0  0  2  0  0  0  0  0  0
  -29.0390  -17.5970   20.2110 C   0  0  0  0  0  2  0  0  0  0  0  0
  -30.1890  -16.8780   20.9430 C   0  0  0  0  0  2  0  0  0  0  0  0
  -30.6550  -14.4540   20.5390 C   0  0  0  0  0  0  0  0  0  0  0  0
  -30.3740  -12.3170   19.3640 C   0  0  0  0  0  2  0  0  0  0  0  0
  -29.4380  -12.5500   18.1600 C   0  0  0  0  0  2  0  0  0  0  0  0
  -27.9600  -12.4170   18.5760 C   0  0  0  0  0  2  0  0  0  0  0  0
  -27.6180  -13.2450   19.8450 C   0  0  0  0  0  3  0  0  0  0  0  0
  -28.6620  -12.9760   20.9550 C   0  0  0  0  0  2  0  0  0  0  0  0
  -29.9960  -13.2770   20.4070 N   0  0  0  0  0  0  0  0  0  0  0  0
  -31.7780  -14.6640   20.0750 O   0  0  0  0  0  0  0  0  0  0  0  0
  -29.9110  -15.4470   21.0510 N   0  0  0  0  0  0  0  0  0  0  0  0
  -29.0080  -15.1800   21.4120 H   0  0  0  0  0  0  0  0  0  0  0  0
  -25.2090  -13.8690   20.5190 C   0  0  0  0  0  0  0  0  0  0  0  0
  -24.1360  -13.0990   20.8820 C   0  0  0  0  0  0  0  0  0  0  0  0
  -24.5960  -11.7470   20.8660 C   0  0  0  0  0  0  0  0  0  0  0  0
  -26.2550  -12.9820   20.3060 N   0  0  0  0  0  0  0  0  0  0  0  0
  -25.8870  -11.7040   20.5720 N   0  0  0  0  0  0  0  0  0  0  0  0
  -23.8670  -10.4860   21.0550 C   0  0  0  0  0  0  0  0  0  0  0  0
  -24.2890   -9.5230   21.9980 C   0  0  0  0  0  3  0  0  0  0  0  0
  -23.5610   -8.3280   22.1760 C   0  0  0  0  0  3  0  0  0  0  0  0
  -22.3970   -8.0860   21.4080 C   0  0  0  0  0  0  0  0  0  0  0  0
  -21.9950   -9.0370   20.4530 C   0  0  0  0  0  3  0  0  0  0  0  0
  -22.7240  -10.2240   20.2730 C   0  0  0  0  0  3  0  0  0  0  0  0
  -21.6430   -6.9410   21.4930 O   0  0  0  0  0  0  0  0  0  0  0  0
  -21.5790   -6.2040   22.6490 C   0  0  0  0  0  0  0  0  0  0  0  0
  -21.1270   -6.7610   23.8650 C   0  0  0  0  0  3  0  0  0  0  0  0
  -21.0130   -5.9510   25.0120 C   0  0  0  0  0  3  0  0  0  0  0  0
  -21.3400   -4.5840   24.9450 C   0  0  0  0  0  0  0  0  0  0  0  0
  -21.7860   -4.0250   23.7340 C   0  0  0  0  0  3  0  0  0  0  0  0
  -21.9030   -4.8330   22.5890 C   0  0  0  0  0  0  0  0  0  0  0  0
  -22.3120   -4.2850   21.4190 F   0  0  0  0  0  0  0  0  0  0  0  0
  -21.2240   -3.8030   26.0440 F   0  0  0  0  0  0  0  0  0  0  0  0
  -22.7350  -13.5790   21.1380 C   0  0  0  0  0  0  0  0  0  0  0  0
  -21.9960  -12.8850   21.9980 N   0  0  0  0  0  0  0  0  0  0  0  0
  -22.3030  -14.6020   20.6100 O   0  0  0  0  0  0  0  0  0  0  0  0
  -22.3570  -12.0560   22.4470 H   0  0  0  0  0  0  0  0  0  0  0  0
  -21.0560  -13.1880   22.2110 H   0  0  0  0  0  0  0  0  0  0  0  0
  -25.3780  -15.2380   20.3350 N   0  0  0  0  0  0  0  0  0  0  0  0
  -24.6080  -15.8930   20.4280 H   0  0  0  0  0  0  0  0  0  0  0  0
  -26.2320  -15.6750   20.0110 H   0  0  0  0  0  0  0  0  0  0  0  0
  -27.2480  -23.5180   19.0400 C   0  0  0  0  0  2  0  0  0  0  0  0
  -28.3950  -24.5410   19.1920 C   0  0  0  0  0  2  0  0  0  0  0  0
  -28.3100  -25.3840   20.4800 C   0  0  0  0  0  2  0  0  0  0  0  0
  -28.4140  -26.7810   20.2060 O   0  0  0  0  0  0  0  0  0  0  0  0
  -24.5520  -31.8870   23.2420 C   0  0  0  0  0  0  0  0  0  0  0  0
  -27.2300  -27.4810   20.1830 C   0  0  0  0  0  0  0  0  0  0  0  0
  -23.3580  -30.4910   21.5860 C   0  0  0  0  0  3  0  0  0  0  0  0
  -24.8240  -28.9600   20.1730 C   0  0  0  0  0  0  0  0  0  0  0  0
  -25.8810  -30.8640   21.4020 C   0  0  0  0  0  2  0  0  0  0  0  0
  -25.9760  -29.4930   20.7700 C   0  0  0  0  0  0  0  0  0  0  0  0
  -27.1800  -28.7600   20.7710 C   0  0  0  0  0  3  0  0  0  0  0  0
  -26.0630  -26.9560   19.5800 C   0  0  0  0  0  3  0  0  0  0  0  0
  -24.8630  -27.6890   19.5740 C   0  0  0  0  0  3  0  0  0  0  0  0
  -23.5790  -29.8170   20.2070 C   0  0  0  0  0  2  0  0  0  0  0  0
  -24.6150  -31.0930   22.1370 N   0  0  0  0  0  0  0  0  0  0  0  0
  -23.4670  -32.1540   23.7780 O   0  0  0  0  0  0  0  0  0  0  0  0
  -22.7010  -29.4640   22.5370 C   0  0  0  0  0  0  0  0  0  0  0  0
  -21.3780  -29.2810   22.4000 N   0  0  0  0  0  0  0  0  0  0  0  0
  -23.3790  -28.8330   23.3530 O   0  0  0  0  0  0  0  0  0  0  0  0
  -20.8930  -29.8480   21.7210 H   0  0  0  0  0  0  0  0  0  0  0  0
  -18.0050  -28.0730   22.8320 C   0  0  0  0  0  0  0  0  0  0  0  0
  -20.5550  -28.3370   23.1540 C   0  0  0  0  0  3  0  0  0  0  0  0
  -20.6720  -26.9060   22.5780 C   0  0  0  0  0  2  0  0  0  0  0  0
  -19.5960  -26.5800   21.5380 C   0  0  0  0  0  2  0  0  0  0  0  0
  -18.1970  -26.7300   22.1520 C   0  0  0  0  0  2  0  0  0  0  0  0
  -19.1140  -28.8400   23.2830 C   0  0  0  0  0  0  0  0  0  0  0  0
  -18.8830  -30.1030   23.8660 C   0  0  0  0  0  3  0  0  0  0  0  0
  -17.5750  -30.6020   24.0120 C   0  0  0  0  0  3  0  0  0  0  0  0
  -16.4790  -29.8330   23.5810 C   0  0  0  0  0  3  0  0  0  0  0  0
  -16.6950  -28.5710   22.9960 C   0  0  0  0  0  3  0  0  0  0  0  0
  -25.8350  -32.5140   23.8730 C   0  0  0  0  0  3  0  0  0  0  0  0
  -25.5280  -33.9140   24.1900 N   0  0  0  0  0  0  0  0  0  0  0  0
  -25.8810  -34.9600   23.4290 C   0  0  0  0  0  0  0  0  0  0  0  0
  -26.5700  -34.8480   22.4110 O   0  0  0  0  0  0  0  0  0  0  0  0
  -24.9140  -34.0750   24.9750 H   0  0  0  0  0  0  0  0  0  0  0  0
  -24.1730  -36.7650   23.0210 C   0  0  0  0  0  1  0  0  0  0  0  0
  -25.3900  -36.3550   23.8660 C   0  0  0  0  0  3  0  0  0  0  0  0
  -27.5080  -37.2310   24.7490 C   0  0  0  0  0  1  0  0  0  0  0  0
  -26.4330  -37.4000   23.7740 N   0  0  0  0  0  0  0  0  0  0  0  0
  -26.0300  -38.3240   23.9050 H   0  0  0  0  0  0  0  0  0  0  0  0
  -26.3340  -31.7480   25.1570 C   0  0  1  0  0  0  0  0  0  0  0  0
  -25.2290  -31.5180   26.2140 C   0  0  0  0  0  1  0  0  0  0  0  0
  -26.9140  -30.3660   24.7720 C   0  0  0  0  0  1  0  0  0  0  0  0
  -27.4800  -32.5400   25.8300 C   0  0  0  0  0  1  0  0  0  0  0  0
  1  3  2  0
  2 47  1  0
  2  1  1  0
  4  2  1  0
  5  1  1  0
  5  6  1  0
  6  7  1  0
  7  8  1  0
  8 17  1  0
  9 17  1  0
 10 15  1  0
 11 12  1  0
 11 10  1  0
 13 12  1  0
 13 22  1  0
 13 14  1  0
 15  9  1  0
 15 14  1  0
 16  9  2  0
 17 18  1  0
 19 20  2  0
 20 39  1  0
 21 20  1  0
 21 24  1  0
 22 19  1  0
 22 23  1  0
 23 21  2  0
 24 25  1  0
 25 26  2  0
 27 30  1  0
 27 26  1  0
 28 27  2  0
 29 28  1  0
 29 24  2  0
 30 31  1  0
 31 32  1  0
 32 33  2  0
 34 33  1  0
 34 38  1  0
 35 34  2  0
 36 31  2  0
 36 35  1  0
 37 36  1  0
 39 40  1  0
 40 43  1  0
 40 42  1  0
 41 39  2  0
 44 45  1  0
 44 19  1  0
 46 44  1  0
 47 48  1  0
 48 49  1  0
 50 49  1  0
 51 62  2  0
 52 50  1  0
 52 57  1  0
 53 61  1  0
 53 63  1  0
 54 60  1  0
 54 56  1  0
 55 61  1  0
 56 57  2  0
 56 55  1  0
 58 52  2  0
 59 58  1  0
 59 54  2  0
 60 53  1  0
 61 51  1  0
 63 65  2  0
 64 63  1  0
 66 64  1  0
 67 76  2  0
 67 72  1  0
 68 64  1  0
 68 72  1  0
 69 68  1  0
 70 71  1  0
 70 69  1  0
 71 67  1  0
 72 73  2  0
 73 74  1  0
 75 74  2  0
 76 75  1  0
 77 51  1  0
 77 78  1  0
 77 87  1  0
 78 81  1  0
 79 83  1  0
 79 78  1  0
 80 79  2  0
 83 82  1  0
 85 83  1  0
 85 86  1  0
 85 84  1  0
 87 90  1  1
 87 88  1  0
 89 87  1  0
M  ISO  4   9 100  17 100  49 101  50 101
M  END
>  <TORSDO>  (36) 
F 23

>  <SCORE>  (36) 
-12.702

>  <name>  (36) 
35

>  <ligand_id>  (36) 
35

>  <original_smiles>  (36) 
[H]c1c([H])c([H])c2c(c1[H])C([H])([H])C([H])([H])C([H])([H])C2([H])N([H])C(=O)C1([H])N(C(=O)C([H])(N([H])C(=O)C([H])(N([H])C([H])([H])[H])C([H])([H])[H])C(C([H])([H])[H])(C([H])([H])[H])C([H])([H])[H])C([H])([H])c2c([H])c(OC([H])([H])C([H])([H])C([H])([H])N([H])C(=O)C([H])([H])C([H])([H])C([H])([H])C([H])([H])N([H])C(=O)N3C([H])([H])C([H])([H])C([H])([H])C([H])(n4nc(-c5c([H])c([H])c(Oc6c([H])c([H])c(F)c([H])c6F)c([H])c5[H])c(C(=O)N([H])[H])c4N([H])[H])C3([H])[H])c([H])c([H])c2C1([H])[H]

>  <smiles>  (36) 
[H]c1c([H])c([H])c2c(c1[H])C([H])([H])C([H])([H])C([H])([H])C2([H])N([H])C(=O)C1([H])N(C(=O)C([H])(N([H])C(=O)C([H])(N([H])C([H])([H])[H])C([H])([H])[H])C(C([H])([H])[H])(C([H])([H])[H])C([H])([H])[H])C([H])([H])c2c([H])c(OC([H])([H])C([H])([H])C([H])([H])N([H])C(=O)C([H])([H])C([H])([H])C([H])([H])C([H])([H])N([H])C(=O)N3C([H])([H])C([H])([H])C([H])([H])C([H])(n4nc(-c5c([H])c([H])c(Oc6c([H])c([H])c(F)c([H])c6F)c([H])c5[H])c(C(=O)N([H])[H])c4N([H])[H])C3([H])[H])c([H])c([H])c2C1([H])[H]

$$$$
36:0:0
     RDKit          3D

 89 97  0  0  1  0  0  0  0  0999 V2000
  -29.1920  -21.1690   20.9000 C   0  0  0  0  0  2  0  0  0  0  0  0
  -30.7830  -18.7420   18.3200 C   0  0  0  0  0  3  0  0  0  0  0  0
  -30.2840  -19.8930   18.9610 C   0  0  0  0  0  3  0  0  0  0  0  0
  -30.6490  -17.4600   18.8920 C   0  0  0  0  0  3  0  0  0  0  0  0
  -29.4890  -18.4710   20.7720 C   0  0  0  0  0  3  0  0  0  0  0  0
  -29.6240  -19.8060   20.2010 C   0  0  0  0  0  0  0  0  0  0  0  0
  -30.0060  -17.2640   20.1380 C   0  0  0  0  0  0  0  0  0  0  0  0
  -30.5740  -14.7330   20.3630 C   0  0  0  0  0  0  0  0  0  0  0  0
  -30.3440  -12.4590   19.3720 C   0  0  0  0  0  2  0  0  0  0  0  0
  -29.4110  -12.5530   18.1450 C   0  0  0  0  0  2  0  0  0  0  0  0
  -27.9390  -12.3930   18.5750 C   0  0  0  0  0  2  0  0  0  0  0  0
  -27.5740  -13.2790   19.7950 C   0  0  0  0  0  3  0  0  0  0  0  0
  -28.6320  -13.1810   20.9180 C   0  0  0  0  0  2  0  0  0  0  0  0
  -29.9350  -13.5150   20.3290 N   0  0  0  0  0  0  0  0  0  0  0  0
  -31.7530  -14.8100   20.0010 O   0  0  0  0  0  0  0  0  0  0  0  0
  -29.8410  -15.8770   20.6510 N   0  0  0  0  0  0  0  0  0  0  0  0
  -28.9760  -15.7020   21.1410 H   0  0  0  0  0  0  0  0  0  0  0  0
  -25.1870  -13.8770   20.5190 C   0  0  0  0  0  0  0  0  0  0  0  0
  -24.1200  -13.1080   20.8930 C   0  0  0  0  0  0  0  0  0  0  0  0
  -24.5800  -11.7560   20.8690 C   0  0  0  0  0  0  0  0  0  0  0  0
  -26.2290  -12.9960   20.2860 N   0  0  0  0  0  0  0  0  0  0  0  0
  -25.8700  -11.7140   20.5600 N   0  0  0  0  0  0  0  0  0  0  0  0
  -23.8500  -10.4950   21.0660 C   0  0  0  0  0  0  0  0  0  0  0  0
  -24.2940   -9.5200   21.9850 C   0  0  0  0  0  3  0  0  0  0  0  0
  -23.5640   -8.3260   22.1700 C   0  0  0  0  0  3  0  0  0  0  0  0
  -22.3760   -8.0980   21.4350 C   0  0  0  0  0  0  0  0  0  0  0  0
  -21.9520   -9.0620   20.5030 C   0  0  0  0  0  3  0  0  0  0  0  0
  -22.6830  -10.2480   20.3160 C   0  0  0  0  0  3  0  0  0  0  0  0
  -21.6160   -6.9570   21.5300 O   0  0  0  0  0  0  0  0  0  0  0  0
  -21.5980   -6.1970   22.6720 C   0  0  0  0  0  0  0  0  0  0  0  0
  -21.2330   -6.7400   23.9230 C   0  0  0  0  0  3  0  0  0  0  0  0
  -21.1600   -5.9080   25.0580 C   0  0  0  0  0  3  0  0  0  0  0  0
  -21.4440   -4.5340   24.9440 C   0  0  0  0  0  0  0  0  0  0  0  0
  -21.8050   -3.9910   23.6970 C   0  0  0  0  0  3  0  0  0  0  0  0
  -21.8780   -4.8200   22.5650 C   0  0  0  0  0  0  0  0  0  0  0  0
  -22.2050   -4.2870   21.3630 F   0  0  0  0  0  0  0  0  0  0  0  0
  -21.3690   -3.7330   26.0320 F   0  0  0  0  0  0  0  0  0  0  0  0
  -22.7220  -13.5900   21.1610 C   0  0  0  0  0  0  0  0  0  0  0  0
  -21.9940  -12.9010   22.0330 N   0  0  0  0  0  0  0  0  0  0  0  0
  -22.2870  -14.6120   20.6340 O   0  0  0  0  0  0  0  0  0  0  0  0
  -22.3600  -12.0750   22.4830 H   0  0  0  0  0  0  0  0  0  0  0  0
  -21.0570  -13.2050   22.2550 H   0  0  0  0  0  0  0  0  0  0  0  0
  -25.3530  -15.2470   20.3330 N   0  0  0  0  0  0  0  0  0  0  0  0
  -24.5860  -15.9020   20.4370 H   0  0  0  0  0  0  0  0  0  0  0  0
  -26.1990  -15.6810   19.9860 H   0  0  0  0  0  0  0  0  0  0  0  0
  -28.8900  -22.3600   20.0580 O   0  0  0  0  0  0  0  0  0  0  0  0
  -28.9350  -23.7310   20.6500 C   0  0  0  0  0  3  0  0  0  0  0  0
  -28.0780  -24.9170   19.9610 C   0  0  0  0  0  3  0  0  0  0  0  0
  -28.2760  -26.3790   20.2700 O   0  0  0  0  0  0  0  0  0  0  0  0
  -24.6110  -31.8900   23.2350 C   0  0  0  0  0  0  0  0  0  0  0  0
  -27.1840  -27.2770   20.1820 C   0  0  0  0  0  0  0  0  0  0  0  0
  -23.3970  -30.4940   21.6030 C   0  0  0  0  0  3  0  0  0  0  0  0
  -24.8360  -28.9370   20.1690 C   0  0  0  0  0  0  0  0  0  0  0  0
  -25.9410  -30.7890   21.4150 C   0  0  0  0  0  2  0  0  0  0  0  0
  -26.0100  -29.4070   20.7690 C   0  0  0  0  0  0  0  0  0  0  0  0
  -27.1850  -28.5870   20.7690 C   0  0  0  0  0  3  0  0  0  0  0  0
  -25.9910  -26.8890   19.5280 C   0  0  0  0  0  3  0  0  0  0  0  0
  -24.8310  -27.6860   19.5370 C   0  0  0  0  0  3  0  0  0  0  0  0
  -23.6040  -29.8190   20.2230 C   0  0  0  0  0  2  0  0  0  0  0  0
  -24.6690  -31.0760   22.1410 N   0  0  0  0  0  0  0  0  0  0  0  0
  -23.5300  -32.1730   23.7720 O   0  0  0  0  0  0  0  0  0  0  0  0
  -22.7320  -29.4800   22.5670 C   0  0  0  0  0  0  0  0  0  0  0  0
  -21.4050  -29.3100   22.4490 N   0  0  0  0  0  0  0  0  0  0  0  0
  -23.4110  -28.8520   23.3840 O   0  0  0  0  0  0  0  0  0  0  0  0
  -20.9160  -29.8690   21.7630 H   0  0  0  0  0  0  0  0  0  0  0  0
  -18.0250  -28.1230   22.9610 C   0  0  0  0  0  0  0  0  0  0  0  0
  -20.5850  -28.3790   23.2250 C   0  0  0  0  0  3  0  0  0  0  0  0
  -20.6820  -26.9440   22.6570 C   0  0  0  0  0  2  0  0  0  0  0  0
  -19.5780  -26.6180   21.6460 C   0  0  0  0  0  2  0  0  0  0  0  0
  -18.1980  -26.7690   22.2910 C   0  0  0  0  0  2  0  0  0  0  0  0
  -19.1460  -28.8840   23.3850 C   0  0  0  0  0  0  0  0  0  0  0  0
  -18.9300  -30.1500   23.9730 C   0  0  0  0  0  3  0  0  0  0  0  0
  -17.6260  -30.6540   24.1390 C   0  0  0  0  0  3  0  0  0  0  0  0
  -16.5200  -29.8900   23.7310 C   0  0  0  0  0  3  0  0  0  0  0  0
  -16.7200  -28.6250   23.1480 C   0  0  0  0  0  3  0  0  0  0  0  0
  -25.8980  -32.5210   23.8510 C   0  0  0  0  0  3  0  0  0  0  0  0
  -26.4210  -31.7440   25.1220 C   0  0  1  0  0  0  0  0  0  0  0  0
  -25.3350  -31.5070   26.1980 C   0  0  0  0  0  1  0  0  0  0  0  0
  -26.9990  -30.3660   24.7240 C   0  0  0  0  0  1  0  0  0  0  0  0
  -27.5790  -32.5340   25.7770 C   0  0  0  0  0  1  0  0  0  0  0  0
  -25.5890  -33.9170   24.1900 N   0  0  0  0  0  0  0  0  0  0  0  0
  -25.9130  -34.9740   23.4340 C   0  0  0  0  0  0  0  0  0  0  0  0
  -26.5710  -34.8760   22.3930 O   0  0  0  0  0  0  0  0  0  0  0  0
  -25.0040  -34.0680   24.9990 H   0  0  0  0  0  0  0  0  0  0  0  0
  -24.1760  -36.7660   23.1130 C   0  0  0  0  0  1  0  0  0  0  0  0
  -25.4310  -36.3610   23.9040 C   0  0  0  0  0  3  0  0  0  0  0  0
  -27.5790  -37.2450   24.7000 C   0  0  0  0  0  1  0  0  0  0  0  0
  -26.4600  -37.4160   23.7770 N   0  0  0  0  0  0  0  0  0  0  0  0
  -26.0550  -38.3340   23.9360 H   0  0  0  0  0  0  0  0  0  0  0  0
  2  4  2  0
  2  3  1  0
  3  6  2  0
  4  7  1  0
  6  5  1  0
  6  1  1  0
  7 16  1  0
  7  5  2  0
  8 16  1  0
  9 14  1  0
 10 11  1  0
 10  9  1  0
 12 11  1  0
 12 21  1  0
 12 13  1  0
 14  8  1  0
 14 13  1  0
 15  8  2  0
 16 17  1  0
 18 19  2  0
 19 38  1  0
 20 19  1  0
 20 23  1  0
 21 18  1  0
 21 22  1  0
 22 20  2  0
 23 24  1  0
 24 25  2  0
 26 29  1  0
 26 25  1  0
 27 26  2  0
 28 27  1  0
 28 23  2  0
 29 30  1  0
 30 31  1  0
 31 32  2  0
 33 32  1  0
 33 37  1  0
 34 33  2  0
 35 30  2  0
 35 34  1  0
 36 35  1  0
 38 39  1  0
 39 42  1  0
 39 41  1  0
 40 38  2  0
 43 44  1  0
 43 18  1  0
 45 43  1  0
 46 47  1  0
 46  1  1  0
 48 49  1  0
 48 47  2  0
 50 61  2  0
 51 49  1  0
 51 56  1  0
 52 60  1  0
 52 62  1  0
 53 59  1  0
 53 55  1  0
 54 60  1  0
 55 56  2  0
 55 54  1  0
 57 58  1  0
 57 51  2  0
 58 53  2  0
 59 52  1  0
 60 50  1  0
 62 64  2  0
 63 62  1  0
 65 63  1  0
 66 75  2  0
 66 71  1  0
 67 63  1  0
 67 71  1  0
 68 67  1  0
 69 70  1  0
 69 68  1  0
 70 66  1  0
 71 72  2  0
 72 73  1  0
 74 73  2  0
 75 74  1  0
 76 50  1  0
 76 81  1  0
 76 77  1  0
 77 80  1  1
 77 78  1  0
 79 77  1  0
 81 84  1  0
 82 86  1  0
 82 81  1  0
 83 82  2  0
 86 85  1  0
 88 86  1  0
 88 89  1  0
 88 87  1  0
M  ISO  4   8 100  16 100  48 101  49 101
M  END
>  <TORSDO>  (37) 
F 20

>  <SCORE>  (37) 
-13.796

>  <name>  (37) 
36

>  <ligand_id>  (37) 
36

>  <original_smiles>  (37) 
[H]c1c([H])c(N([H])C(=O)N2C([H])([H])C([H])([H])C([H])([H])C([H])(n3nc(-c4c([H])c([H])c(Oc5c([H])c([H])c(F)c([H])c5F)c([H])c4[H])c(C(=O)N([H])[H])c3N([H])[H])C2([H])[H])c([H])c(C([H])([H])OC([H])([H])C([H])([H])Oc2c([H])c([H])c3c(c2[H])C([H])([H])N(C(=O)C([H])(N([H])C(=O)C([H])(N([H])C([H])([H])[H])C([H])([H])[H])C(C([H])([H])[H])(C([H])([H])[H])C([H])([H])[H])C([H])(C(=O)N([H])C2([H])c4c([H])c([H])c([H])c([H])c4C([H])([H])C([H])([H])C2([H])[H])C3([H])[H])c1[H]

>  <smiles>  (37) 
[H]c1c([H])c(N([H])C(=O)N2C([H])([H])C([H])([H])C([H])([H])C([H])(n3nc(-c4c([H])c([H])c(Oc5c([H])c([H])c(F)c([H])c5F)c([H])c4[H])c(C(=O)N([H])[H])c3N([H])[H])C2([H])[H])c([H])c(C([H])([H])OC([H])([H])C([H])([H])Oc2c([H])c([H])c3c(c2[H])C([H])([H])N(C(=O)C([H])(N([H])C(=O)C([H])(N([H])C([H])([H])[H])C([H])([H])[H])C(C([H])([H])[H])(C([H])([H])[H])C([H])([H])[H])C([H])(C(=O)N([H])C2([H])c4c([H])c([H])c([H])c([H])c4C([H])([H])C([H])([H])C2([H])[H])C3([H])[H])c1[H]

$$$$
37:0:0
     RDKit          3D

 97105  0  0  1  0  0  0  0  0999 V2000
  -30.5350  -18.6280   21.7830 C   0  0  0  0  0  3  0  0  0  0  0  0
  -30.3310  -20.0610   21.8930 C   0  0  0  0  0  3  0  0  0  0  0  0
  -29.8560  -20.2120   19.6000 C   0  0  0  0  0  3  0  0  0  0  0  0
  -30.0400  -18.7640   19.4680 C   0  0  0  0  0  0  0  0  0  0  0  0
  -30.3840  -17.8760   20.5720 C   0  0  0  0  0  0  0  0  0  0  0  0
  -29.9660  -20.9480   20.8230 C   0  0  0  0  0  0  0  0  0  0  0  0
  -31.1330  -15.2180   20.3070 C   0  0  0  0  0  0  0  0  0  0  0  0
  -30.9770  -12.9500   19.1830 C   0  0  0  0  0  2  0  0  0  0  0  0
  -30.0230  -13.0350   17.9690 C   0  0  0  0  0  2  0  0  0  0  0  0
  -28.5560  -12.8350   18.3990 C   0  0  0  0  0  2  0  0  0  0  0  0
  -28.1890  -13.6650   19.6580 C   0  0  0  0  0  3  0  0  0  0  0  0
  -29.2590  -13.5370   20.7640 C   0  0  0  0  0  2  0  0  0  0  0  0
  -30.5370  -13.9650   20.1790 N   0  0  0  0  0  0  0  0  0  0  0  0
  -32.3260  -15.3260   20.0060 O   0  0  0  0  0  0  0  0  0  0  0  0
  -30.2950  -16.3390   20.5410 N   0  0  0  0  0  0  0  0  0  0  0  0
  -29.3510  -16.0130   20.6830 H   0  0  0  0  0  0  0  0  0  0  0  0
  -25.8070  -14.2390   20.4050 C   0  0  0  0  0  0  0  0  0  0  0  0
  -24.7420  -13.4610   20.7630 C   0  0  0  0  0  0  0  0  0  0  0  0
  -25.2030  -12.1100   20.7080 C   0  0  0  0  0  0  0  0  0  0  0  0
  -26.8490  -13.3630   20.1480 N   0  0  0  0  0  0  0  0  0  0  0  0
  -26.4940  -12.0760   20.3950 N   0  0  0  0  0  0  0  0  0  0  0  0
  -24.4730  -10.8460   20.8740 C   0  0  0  0  0  0  0  0  0  0  0  0
  -24.8450   -9.9010   21.8550 C   0  0  0  0  0  3  0  0  0  0  0  0
  -24.1130   -8.7030   22.0080 C   0  0  0  0  0  3  0  0  0  0  0  0
  -22.9950   -8.4430   21.1800 C   0  0  0  0  0  0  0  0  0  0  0  0
  -22.6430   -9.3770   20.1900 C   0  0  0  0  0  3  0  0  0  0  0  0
  -23.3760  -10.5670   20.0360 C   0  0  0  0  0  3  0  0  0  0  0  0
  -22.2410   -7.2960   21.2410 O   0  0  0  0  0  0  0  0  0  0  0  0
  -22.0260   -6.6370   22.4240 C   0  0  0  0  0  0  0  0  0  0  0  0
  -21.4550   -7.2840   23.5430 C   0  0  0  0  0  3  0  0  0  0  0  0
  -21.1860   -6.5530   24.7170 C   0  0  0  0  0  3  0  0  0  0  0  0
  -21.4760   -5.1770   24.7730 C   0  0  0  0  0  0  0  0  0  0  0  0
  -22.0390   -4.5300   23.6570 C   0  0  0  0  0  3  0  0  0  0  0  0
  -22.3090   -5.2580   22.4860 C   0  0  0  0  0  0  0  0  0  0  0  0
  -22.8300   -4.6260   21.4070 F   0  0  0  0  0  0  0  0  0  0  0  0
  -21.2110   -4.4720   25.8960 F   0  0  0  0  0  0  0  0  0  0  0  0
  -23.3460  -13.9380   21.0400 C   0  0  0  0  0  0  0  0  0  0  0  0
  -22.6280  -13.2540   21.9240 N   0  0  0  0  0  0  0  0  0  0  0  0
  -22.9010  -14.9540   20.5080 O   0  0  0  0  0  0  0  0  0  0  0  0
  -23.0020  -12.4330   22.3760 H   0  0  0  0  0  0  0  0  0  0  0  0
  -21.6920  -13.5570   22.1510 H   0  0  0  0  0  0  0  0  0  0  0  0
  -25.9700  -15.6140   20.2500 N   0  0  0  0  0  0  0  0  0  0  0  0
  -25.1920  -16.2530   20.3670 H   0  0  0  0  0  0  0  0  0  0  0  0
  -26.7940  -16.0640   19.8760 H   0  0  0  0  0  0  0  0  0  0  0  0
  -29.7870  -18.2030   18.0970 C   0  0  0  0  0  0  0  0  0  0  0  0
  -30.8680  -17.8800   17.3770 N   0  0  0  0  0  0  0  0  0  0  0  0
  -28.6410  -18.1180   17.6480 O   0  0  0  0  0  0  0  0  0  0  0  0
  -31.7700  -18.0160   17.8100 H   0  0  0  0  0  0  0  0  0  0  0  0
  -30.8420  -17.3170   16.0280 C   0  0  0  0  0  2  0  0  0  0  0  0
  -30.4130  -18.1790   14.9120 N   0  0  0  0  0  4  0  0  0  0  0  0
  -29.4670  -18.4900   15.0420 H   0  0  0  0  0  0  0  0  0  0  0  0
  -30.4510  -17.6620   14.0510 H   0  0  0  0  0  0  0  0  0  0  0  0
  -31.0130  -18.9790   14.8190 H   0  0  0  0  0  0  0  0  0  0  0  0
  -29.6740  -22.3580   21.1020 O   0  0  0  0  0  0  0  0  0  0  0  0
  -29.4970  -23.5880   20.1980 C   0  0  0  0  0  2  0  0  0  0  0  0
  -28.7410  -25.0050   20.7230 C   0  0  0  0  0  2  0  0  0  0  0  0
  -28.8300  -26.4640   20.1970 O   0  0  0  0  0  0  0  0  0  0  0  0
  -24.6820  -31.8210   23.1110 C   0  0  0  0  0  0  0  0  0  0  0  0
  -27.6880  -27.3360   20.1620 C   0  0  0  0  0  0  0  0  0  0  0  0
  -23.6330  -30.3450   21.4360 C   0  0  0  0  0  3  0  0  0  0  0  0
  -25.2340  -28.8820   20.0570 C   0  0  0  0  0  0  0  0  0  0  0  0
  -26.1620  -30.8050   21.3400 C   0  0  0  0  0  2  0  0  0  0  0  0
  -26.3580  -29.4240   20.6940 C   0  0  0  0  0  0  0  0  0  0  0  0
  -27.5880  -28.6700   20.7240 C   0  0  0  0  0  3  0  0  0  0  0  0
  -26.5330  -26.8820   19.4930 C   0  0  0  0  0  3  0  0  0  0  0  0
  -25.3320  -27.6240   19.4400 C   0  0  0  0  0  3  0  0  0  0  0  0
  -23.9420  -29.6850   20.0660 C   0  0  0  0  0  2  0  0  0  0  0  0
  -24.8420  -31.0130   22.0170 N   0  0  0  0  0  0  0  0  0  0  0  0
  -23.5650  -32.0220   23.6100 O   0  0  0  0  0  0  0  0  0  0  0  0
  -23.0030  -29.2900   22.3780 C   0  0  0  0  0  0  0  0  0  0  0  0
  -21.7000  -29.0090   22.2010 N   0  0  0  0  0  0  0  0  0  0  0  0
  -23.6920  -28.7240   23.2320 O   0  0  0  0  0  0  0  0  0  0  0  0
  -21.1960  -29.5230   21.4920 H   0  0  0  0  0  0  0  0  0  0  0  0
  -18.4010  -27.5690   22.6140 C   0  0  0  0  0  0  0  0  0  0  0  0
  -20.9280  -28.0100   22.9470 C   0  0  0  0  0  3  0  0  0  0  0  0
  -21.1440  -26.5920   22.3670 C   0  0  0  0  0  2  0  0  0  0  0  0
  -20.0940  -26.1990   21.3240 C   0  0  0  0  0  2  0  0  0  0  0  0
  -18.6900  -26.2410   21.9350 C   0  0  0  0  0  2  0  0  0  0  0  0
  -19.4520  -28.4060   23.0760 C   0  0  0  0  0  0  0  0  0  0  0  0
  -19.1280  -29.6450   23.6710 C   0  0  0  0  0  3  0  0  0  0  0  0
  -17.7880  -30.0490   23.8100 C   0  0  0  0  0  3  0  0  0  0  0  0
  -16.7510  -29.2100   23.3640 C   0  0  0  0  0  3  0  0  0  0  0  0
  -17.0590  -27.9720   22.7710 C   0  0  0  0  0  3  0  0  0  0  0  0
  -25.8930  -32.5450   23.7740 C   0  0  0  0  0  3  0  0  0  0  0  0
  -25.4630  -33.9070   24.1260 N   0  0  0  0  0  0  0  0  0  0  0  0
  -25.7190  -35.0020   23.3970 C   0  0  0  0  0  0  0  0  0  0  0  0
  -26.4100  -34.9760   22.3750 O   0  0  0  0  0  0  0  0  0  0  0  0
  -24.8440  -33.9930   24.9190 H   0  0  0  0  0  0  0  0  0  0  0  0
  -23.8540  -36.6580   23.0600 C   0  0  0  0  0  1  0  0  0  0  0  0
  -25.1160  -36.3380   23.8770 C   0  0  0  0  0  3  0  0  0  0  0  0
  -27.1810  -37.3610   24.7270 C   0  0  0  0  0  1  0  0  0  0  0  0
  -26.0600  -37.4730   23.7970 N   0  0  0  0  0  0  0  0  0  0  0  0
  -25.5840  -38.3520   23.9780 H   0  0  0  0  0  0  0  0  0  0  0  0
  -26.4400  -31.7950   25.0520 C   0  0  1  0  0  0  0  0  0  0  0  0
  -25.3320  -31.3620   26.0410 C   0  0  0  0  0  1  0  0  0  0  0  0
  -27.2320  -30.5280   24.6510 C   0  0  0  0  0  1  0  0  0  0  0  0
  -27.4280  -32.7100   25.8140 C   0  0  0  0  0  1  0  0  0  0  0  0
  1  2  1  0
  3  6  1  0
  4  3  2  0
  4  5  1  0
  5  1  2  0
  6 54  1  0
  6  2  2  0
  7 15  1  0
  8 13  1  0
  9 10  1  0
  9  8  1  0
 11 10  1  0
 11 20  1  0
 11 12  1  0
 13  7  1  0
 13 12  1  0
 14  7  2  0
 15  5  1  0
 15 16  1  0
 17 18  2  0
 18 37  1  0
 19 18  1  0
 19 22  1  0
 20 21  1  0
 20 17  1  0
 21 19  2  0
 22 23  1  0
 23 24  2  0
 25 28  1  0
 25 24  1  0
 26 25  2  0
 27 26  1  0
 27 22  2  0
 28 29  1  0
 29 34  2  0
 29 30  1  0
 30 31  2  0
 31 32  1  0
 32 36  1  0
 33 32  2  0
 34 33  1  0
 35 34  1  0
 37 38  1  0
 38 41  1  0
 38 40  1  0
 39 37  2  0
 42 43  1  0
 42 17  1  0
 44 42  1  0
 45  4  1  0
 46 48  1  0
 46 45  1  0
 47 45  2  0
 49 46  1  0
 50 51  1  0
 50 49  1  0
 52 50  1  0
 53 50  1  0
 55 56  1  0
 55 54  1  0
 57 56  1  0
 58 69  2  0
 59 57  1  0
 59 64  1  0
 60 68  1  0
 60 70  1  0
 61 67  1  0
 61 63  1  0
 62 68  1  0
 63 64  2  0
 63 62  1  0
 65 59  2  0
 66 65  1  0
 66 61  2  0
 67 60  1  0
 68 58  1  0
 70 72  2  0
 71 70  1  0
 73 71  1  0
 74 83  2  0
 74 79  1  0
 75 71  1  0
 75 79  1  0
 76 75  1  0
 77 78  1  0
 77 76  1  0
 78 74  1  0
 79 80  2  0
 80 81  1  0
 82 81  2  0
 83 82  1  0
 84 58  1  0
 84 85  1  0
 84 94  1  0
 85 88  1  0
 86 90  1  0
 86 85  1  0
 87 86  2  0
 90 89  1  0
 92 90  1  0
 92 93  1  0
 92 91  1  0
 94 97  1  1
 94 95  1  0
 96 94  1  0
M  ISO  4   7 100  15 100  56 101  57 101
M  END
>  <TORSDO>  (38) 
F 22

>  <SCORE>  (38) 
-12.077

>  <name>  (38) 
37

>  <ligand_id>  (38) 
37

>  <original_smiles>  (38) 
[H]c1c([H])c([H])c2c(c1[H])C([H])([H])C([H])([H])C([H])([H])C2([H])N([H])C(=O)C1([H])N(C(=O)C([H])(N([H])C(=O)C([H])(N([H])C([H])([H])[H])C([H])([H])[H])C(C([H])([H])[H])(C([H])([H])[H])C([H])([H])[H])C([H])([H])c2c([H])c(OC([H])([H])C([H])([H])Oc3c([H])c([H])c(N([H])C(=O)N4C([H])([H])C([H])([H])C([H])([H])C([H])(n5nc(-c6c([H])c([H])c(Oc7c([H])c([H])c(F)c([H])c7F)c([H])c6[H])c(C(=O)N([H])[H])c5N([H])[H])C4([H])[H])c(C(=O)N([H])C([H])([H])[N+]([H])([H])[H])c3[H])c([H])c([H])c2C1([H])[H]

>  <smiles>  (38) 
[H]c1c([H])c([H])c2c(c1[H])C([H])([H])C([H])([H])C([H])([H])C2([H])N([H])C(=O)C1([H])N(C(=O)C([H])(N([H])C(=O)C([H])(N([H])C([H])([H])[H])C([H])([H])[H])C(C([H])([H])[H])(C([H])([H])[H])C([H])([H])[H])C([H])([H])c2c([H])c(OC([H])([H])C([H])([H])Oc3c([H])c([H])c(N([H])C(=O)N4C([H])([H])C([H])([H])C([H])([H])C([H])(n5nc(-c6c([H])c([H])c(Oc7c([H])c([H])c(F)c([H])c7F)c([H])c6[H])c(C(=O)N([H])[H])c5N([H])[H])C4([H])[H])c(C(=O)N([H])C([H])([H])[N+]([H])([H])[H])c3[H])c([H])c([H])c2C1([H])[H]

$$$$
38:0:0
     RDKit          3D

 83 90  0  0  1  0  0  0  0  0999 V2000
  -27.9490  -23.9120   20.2000 C   0  0  0  0  0  3  0  0  0  0  0  0
  -28.1500  -25.6420   20.2980 O   0  0  0  0  0  0  0  0  0  0  0  0
  -24.6720  -31.8880   23.2420 C   0  0  0  0  0  0  0  0  0  0  0  0
  -27.1710  -26.8340   20.2470 C   0  0  0  0  0  0  0  0  0  0  0  0
  -23.4710  -30.4970   21.6080 C   0  0  0  0  0  3  0  0  0  0  0  0
  -24.9060  -28.8480   20.1930 C   0  0  0  0  0  0  0  0  0  0  0  0
  -26.0490  -30.6390   21.4750 C   0  0  0  0  0  2  0  0  0  0  0  0
  -26.1040  -29.2100   20.8200 C   0  0  0  0  0  0  0  0  0  0  0  0
  -27.2230  -28.2300   20.8150 C   0  0  0  0  0  3  0  0  0  0  0  0
  -25.9390  -26.6690   19.5680 C   0  0  0  0  0  3  0  0  0  0  0  0
  -24.8600  -27.6020   19.5430 C   0  0  0  0  0  3  0  0  0  0  0  0
  -23.7020  -29.8000   20.2370 C   0  0  0  0  0  2  0  0  0  0  0  0
  -24.7550  -31.0400   22.1610 N   0  0  0  0  0  0  0  0  0  0  0  0
  -23.5830  -32.1920   23.7560 O   0  0  0  0  0  0  0  0  0  0  0  0
  -22.7560  -29.5220   22.5800 C   0  0  0  0  0  0  0  0  0  0  0  0
  -21.4230  -29.3690   22.4550 N   0  0  0  0  0  0  0  0  0  0  0  0
  -23.4110  -28.8980   23.4200 O   0  0  0  0  0  0  0  0  0  0  0  0
  -20.9460  -29.9220   21.7570 H   0  0  0  0  0  0  0  0  0  0  0  0
  -18.0330  -28.1690   22.9680 C   0  0  0  0  0  0  0  0  0  0  0  0
  -20.5930  -28.4390   23.2300 C   0  0  0  0  0  3  0  0  0  0  0  0
  -20.6940  -27.0020   22.6640 C   0  0  0  0  0  2  0  0  0  0  0  0
  -19.5940  -26.6750   21.6500 C   0  0  0  0  0  2  0  0  0  0  0  0
  -18.2110  -26.8200   22.2910 C   0  0  0  0  0  2  0  0  0  0  0  0
  -19.1500  -28.9350   23.3940 C   0  0  0  0  0  0  0  0  0  0  0  0
  -18.9270  -30.1950   23.9910 C   0  0  0  0  0  3  0  0  0  0  0  0
  -17.6200  -30.6890   24.1620 C   0  0  0  0  0  3  0  0  0  0  0  0
  -16.5170  -29.9210   23.7490 C   0  0  0  0  0  3  0  0  0  0  0  0
  -16.7250  -28.6620   23.1580 C   0  0  0  0  0  3  0  0  0  0  0  0
  -25.9420  -32.5310   23.8780 C   0  0  0  0  0  3  0  0  0  0  0  0
  -26.4400  -31.7670   25.1680 C   0  0  1  0  0  0  0  0  0  0  0  0
  -25.3350  -31.5460   26.2290 C   0  0  0  0  0  1  0  0  0  0  0  0
  -27.0170  -30.3800   24.8050 C   0  0  0  0  0  1  0  0  0  0  0  0
  -27.5910  -32.5580   25.8350 C   0  0  0  0  0  1  0  0  0  0  0  0
  -25.6270  -33.9320   24.2180 N   0  0  0  0  0  0  0  0  0  0  0  0
  -25.9330  -34.9970   23.4640 C   0  0  0  0  0  0  0  0  0  0  0  0
  -26.5690  -34.9020   22.4100 O   0  0  0  0  0  0  0  0  0  0  0  0
  -25.0570  -34.0770   25.0370 H   0  0  0  0  0  0  0  0  0  0  0  0
  -24.1800  -36.7890   23.2110 C   0  0  0  0  0  1  0  0  0  0  0  0
  -25.4650  -36.3850   23.9520 C   0  0  0  0  0  3  0  0  0  0  0  0
  -27.6320  -37.2910   24.6730 C   0  0  0  0  0  1  0  0  0  0  0  0
  -26.4840  -37.4450   23.7830 N   0  0  0  0  0  0  0  0  0  0  0  0
  -26.0790  -38.3630   23.9460 H   0  0  0  0  0  0  0  0  0  0  0  0
  -28.9470  -22.2690   20.2790 C   0  0  0  0  0  3  0  0  0  0  0  0
  -28.7110  -20.3580   20.2370 C   0  0  0  0  0  3  0  0  0  0  0  0
  -29.7530  -18.7430   20.2450 C   0  0  0  0  0  3  0  0  0  0  0  0
  -30.2820  -15.6460   20.1480 C   0  0  0  0  0  0  0  0  0  0  0  0
  -30.3500  -13.1330   19.2860 C   0  0  0  0  0  2  0  0  0  0  0  0
  -29.4300  -12.7740   18.0850 C   0  0  0  0  0  2  0  0  0  0  0  0
  -28.0130  -12.4240   18.5630 C   0  0  0  0  0  2  0  0  0  0  0  0
  -27.5300  -13.4030   19.6600 C   0  0  0  0  0  3  0  0  0  0  0  0
  -28.5860  -13.6800   20.7550 C   0  0  0  0  0  2  0  0  0  0  0  0
  -29.7510  -14.2930   20.0790 N   0  0  0  0  0  0  0  0  0  0  0  0
  -31.5110  -15.5990   19.9480 O   0  0  0  0  0  0  0  0  0  0  0  0
  -29.5270  -16.9940   20.2480 N   0  0  0  0  0  0  0  0  0  0  0  0
  -28.5450  -16.7820   20.3500 H   0  0  0  0  0  0  0  0  0  0  0  0
  -25.1770  -13.9060   20.4730 C   0  0  0  0  0  0  0  0  0  0  0  0
  -24.1340  -13.1120   20.8550 C   0  0  0  0  0  0  0  0  0  0  0  0
  -24.6200  -11.7680   20.8040 C   0  0  0  0  0  0  0  0  0  0  0  0
  -26.2270  -13.0500   20.2020 N   0  0  0  0  0  0  0  0  0  0  0  0
  -25.9070  -11.7560   20.4690 N   0  0  0  0  0  0  0  0  0  0  0  0
  -23.9110  -10.4960   20.9970 C   0  0  0  0  0  0  0  0  0  0  0  0
  -24.3510   -9.5380   21.9370 C   0  0  0  0  0  3  0  0  0  0  0  0
  -23.6360   -8.3340   22.1190 C   0  0  0  0  0  3  0  0  0  0  0  0
  -22.4690   -8.0770   21.3610 C   0  0  0  0  0  0  0  0  0  0  0  0
  -22.0480   -9.0240   20.4100 C   0  0  0  0  0  3  0  0  0  0  0  0
  -22.7630  -10.2200   20.2260 C   0  0  0  0  0  3  0  0  0  0  0  0
  -21.7270   -6.9240   21.4530 O   0  0  0  0  0  0  0  0  0  0  0  0
  -21.6590   -6.2030   22.6170 C   0  0  0  0  0  0  0  0  0  0  0  0
  -21.1670   -6.7650   23.8150 C   0  0  0  0  0  3  0  0  0  0  0  0
  -21.0490   -5.9670   24.9700 C   0  0  0  0  0  3  0  0  0  0  0  0
  -21.4130   -4.6090   24.9290 C   0  0  0  0  0  0  0  0  0  0  0  0
  -21.8990   -4.0450   23.7360 C   0  0  0  0  0  3  0  0  0  0  0  0
  -22.0180   -4.8400   22.5820 C   0  0  0  0  0  0  0  0  0  0  0  0
  -22.4660   -4.2870   21.4300 F   0  0  0  0  0  0  0  0  0  0  0  0
  -21.2940   -3.8400   26.0380 F   0  0  0  0  0  0  0  0  0  0  0  0
  -22.7360  -13.5700   21.1460 C   0  0  0  0  0  0  0  0  0  0  0  0
  -22.0320  -12.8660   22.0240 N   0  0  0  0  0  0  0  0  0  0  0  0
  -22.2780  -14.5880   20.6300 O   0  0  0  0  0  0  0  0  0  0  0  0
  -22.4170  -12.0420   22.4630 H   0  0  0  0  0  0  0  0  0  0  0  0
  -21.0930  -13.1550   22.2630 H   0  0  0  0  0  0  0  0  0  0  0  0
  -25.3150  -15.2810   20.3020 N   0  0  0  0  0  0  0  0  0  0  0  0
  -24.5370  -15.9190   20.4270 H   0  0  0  0  0  0  0  0  0  0  0  0
  -26.1390  -15.7310   19.9280 H   0  0  0  0  0  0  0  0  0  0  0  0
  1 43  2  0
  1  2  1  0
  3 14  2  0
  4  2  1  0
  4  9  1  0
  5 13  1  0
  5 15  1  0
  6 12  1  0
  6  8  1  0
  7 13  1  0
  8  7  1  0
  9  8  2  0
 10  4  2  0
 11 10  1  0
 11  6  2  0
 12  5  1  0
 13  3  1  0
 15 17  2  0
 16 15  1  0
 18 16  1  0
 19 28  2  0
 19 24  1  0
 20 16  1  0
 20 24  1  0
 21 20  1  0
 22 23  1  0
 22 21  1  0
 23 19  1  0
 24 25  2  0
 25 26  1  0
 27 26  2  0
 28 27  1  0
 29  3  1  0
 29 34  1  0
 29 30  1  0
 30 33  1  1
 30 31  1  0
 32 30  1  0
 34 37  1  0
 35 39  1  0
 35 34  1  0
 36 35  2  0
 39 38  1  0
 41 42  1  0
 41 39  1  0
 41 40  1  0
 44 45  2  0
 44 43  1  0
 45 54  1  0
 46 54  1  0
 47 52  1  0
 48 49  1  0
 48 47  1  0
 50 49  1  0
 50 59  1  0
 50 51  1  0
 52 46  1  0
 52 51  1  0
 53 46  2  0
 54 55  1  0
 56 57  2  0
 57 76  1  0
 58 57  1  0
 58 61  1  0
 59 60  1  0
 59 56  1  0
 60 58  2  0
 61 62  1  0
 62 63  2  0
 64 67  1  0
 64 63  1  0
 65 64  2  0
 66 65  1  0
 66 61  2  0
 67 68  1  0
 68 69  1  0
 69 70  2  0
 71 70  1  0
 71 75  1  0
 72 71  2  0
 73 68  2  0
 73 72  1  0
 74 73  1  0
 76 77  1  0
 77 80  1  0
 77 79  1  0
 78 76  2  0
 81 82  1  0
 81 56  1  0
 83 81  1  0
M  ISO  4   1 101   2 101  46 100  54 100
M  END
>  <TORSDO>  (39) 
F 19

>  <SCORE>  (39) 
-16.287

>  <name>  (39) 
38

>  <ligand_id>  (39) 
38

>  <original_smiles>  (39) 
[H]c1c([H])c([H])c2c(c1[H])C([H])([H])C([H])([H])C([H])([H])C2([H])N([H])C(=O)C1([H])N(C(=O)C([H])(N([H])C(=O)C([H])(N([H])C([H])([H])[H])C([H])([H])[H])C(C([H])([H])[H])(C([H])([H])[H])C([H])([H])[H])C([H])([H])c2c([H])c(OC([H])([H])C([H])([H])C([H])([H])C([H])([H])N([H])C(=O)N3C([H])([H])C([H])([H])C([H])([H])C([H])(n4nc(-c5c([H])c([H])c(Oc6c([H])c([H])c(F)c([H])c6F)c([H])c5[H])c(C(=O)N([H])[H])c4N([H])[H])C3([H])[H])c([H])c([H])c2C1([H])[H]

>  <smiles>  (39) 
[H]c1c([H])c([H])c2c(c1[H])C([H])([H])C([H])([H])C([H])([H])C2([H])N([H])C(=O)C1([H])N(C(=O)C([H])(N([H])C(=O)C([H])(N([H])C([H])([H])[H])C([H])([H])[H])C(C([H])([H])[H])(C([H])([H])[H])C([H])([H])[H])C([H])([H])c2c([H])c(OC([H])([H])C([H])([H])C([H])([H])C([H])([H])N([H])C(=O)N3C([H])([H])C([H])([H])C([H])([H])C([H])(n4nc(-c5c([H])c([H])c(Oc6c([H])c([H])c(F)c([H])c6F)c([H])c5[H])c(C(=O)N([H])[H])c4N([H])[H])C3([H])[H])c([H])c([H])c2C1([H])[H]

$$$$
39:0:0
     RDKit          3D

 97104  0  0  1  0  0  0  0  0999 V2000
  -24.4970  -22.5370   20.3990 C   0  0  0  0  0  2  0  0  0  0  0  0
  -25.0300  -23.9410   20.7230 C   0  0  0  0  0  0  0  0  0  0  0  0
  -26.2620  -23.9920   21.2470 N   0  0  0  0  0  0  0  0  0  0  0  0
  -24.3490  -24.9420   20.4920 O   0  0  0  0  0  0  0  0  0  0  0  0
  -26.7100  -23.0950   21.3960 H   0  0  0  0  0  0  0  0  0  0  0  0
  -27.0420  -25.1920   21.5350 C   0  0  0  0  0  2  0  0  0  0  0  0
  -28.3490  -25.1930   20.7190 C   0  0  0  0  0  2  0  0  0  0  0  0
  -29.1460  -26.5100   20.8130 C   0  0  0  0  0  2  0  0  0  0  0  0
  -28.8260  -27.3990   19.7500 O   0  0  0  0  0  0  0  0  0  0  0  0
  -24.7020  -31.9230   23.3830 C   0  0  0  0  0  0  0  0  0  0  0  0
  -27.6200  -28.0330   19.8710 C   0  0  0  0  0  0  0  0  0  0  0  0
  -23.5830  -30.6290   21.5910 C   0  0  0  0  0  3  0  0  0  0  0  0
  -25.1320  -29.3400   20.0280 C   0  0  0  0  0  0  0  0  0  0  0  0
  -26.0750  -31.1670   21.4510 C   0  0  0  0  0  2  0  0  0  0  0  0
  -26.2490  -29.8770   20.6820 C   0  0  0  0  0  0  0  0  0  0  0  0
  -27.4960  -29.2250   20.6150 C   0  0  0  0  0  3  0  0  0  0  0  0
  -26.4980  -27.5090   19.1990 C   0  0  0  0  0  3  0  0  0  0  0  0
  -25.2480  -28.1500   19.2880 C   0  0  0  0  0  3  0  0  0  0  0  0
  -23.8340  -30.1060   20.1500 C   0  0  0  0  0  2  0  0  0  0  0  0
  -24.8020  -31.2490   22.2030 N   0  0  0  0  0  0  0  0  0  0  0  0
  -23.6080  -32.0710   23.9420 O   0  0  0  0  0  0  0  0  0  0  0  0
  -22.9970  -29.4760   22.4360 C   0  0  0  0  0  0  0  0  0  0  0  0
  -21.6960  -29.2040   22.2510 N   0  0  0  0  0  0  0  0  0  0  0  0
  -23.7090  -28.8330   23.2110 O   0  0  0  0  0  0  0  0  0  0  0  0
  -21.1810  -29.7850   21.6050 H   0  0  0  0  0  0  0  0  0  0  0  0
  -18.4140  -27.7170   22.5350 C   0  0  0  0  0  0  0  0  0  0  0  0
  -20.9380  -28.1380   22.9040 C   0  0  0  0  0  3  0  0  0  0  0  0
  -21.1640  -26.7820   22.1980 C   0  0  0  0  0  2  0  0  0  0  0  0
  -20.1120  -26.4750   21.1290 C   0  0  0  0  0  2  0  0  0  0  0  0
  -18.7100  -26.4530   21.7460 C   0  0  0  0  0  2  0  0  0  0  0  0
  -19.4620  -28.5170   23.0660 C   0  0  0  0  0  0  0  0  0  0  0  0
  -19.1340  -29.7020   23.7610 C   0  0  0  0  0  3  0  0  0  0  0  0
  -17.7910  -30.0890   23.9310 C   0  0  0  0  0  3  0  0  0  0  0  0
  -16.7590  -29.2850   23.4180 C   0  0  0  0  0  3  0  0  0  0  0  0
  -17.0700  -28.1020   22.7250 C   0  0  0  0  0  3  0  0  0  0  0  0
  -25.9490  -32.5580   24.0730 C   0  0  0  0  0  3  0  0  0  0  0  0
  -25.6160  -33.9530   24.3830 N   0  0  0  0  0  0  0  0  0  0  0  0
  -25.9770  -35.0050   23.6360 C   0  0  0  0  0  0  0  0  0  0  0  0
  -26.6980  -34.9040   22.6390 O   0  0  0  0  0  0  0  0  0  0  0  0
  -24.9860  -34.1050   25.1560 H   0  0  0  0  0  0  0  0  0  0  0  0
  -24.2550  -36.7840   23.1890 C   0  0  0  0  0  1  0  0  0  0  0  0
  -25.4570  -36.3910   24.0640 C   0  0  0  0  0  3  0  0  0  0  0  0
  -27.5350  -37.3000   25.0050 C   0  0  0  0  0  1  0  0  0  0  0  0
  -26.4850  -37.4530   24.0010 N   0  0  0  0  0  0  0  0  0  0  0  0
  -26.0630  -38.3690   24.1210 H   0  0  0  0  0  0  0  0  0  0  0  0
  -26.4020  -31.7860   25.3710 C   0  0  1  0  0  0  0  0  0  0  0  0
  -25.2540  -31.5260   26.3720 C   0  0  0  0  0  1  0  0  0  0  0  0
  -27.0280  -30.4190   25.0010 C   0  0  0  0  0  1  0  0  0  0  0  0
  -27.4970  -32.5960   26.1060 C   0  0  0  0  0  1  0  0  0  0  0  0
  -25.5710  -21.6640   20.0410 O   0  0  0  0  0  0  0  0  0  0  0  0
  -26.0580  -21.8500   18.7110 C   0  0  0  0  0  2  0  0  0  0  0  0
  -27.4860  -21.3060   18.6480 C   0  0  0  0  0  0  0  0  0  0  0  0
  -27.6520  -20.0170   18.3250 N   0  0  0  0  0  0  0  0  0  0  0  0
  -28.4300  -22.0480   18.9300 O   0  0  0  0  0  0  0  0  0  0  0  0
  -26.8260  -19.4750   18.1040 H   0  0  0  0  0  0  0  0  0  0  0  0
  -28.9370  -19.3270   18.3330 C   0  0  0  0  0  2  0  0  0  0  0  0
  -29.2150  -18.7050   19.7120 C   0  0  0  0  0  2  0  0  0  0  0  0
  -30.7090  -18.4310   19.9280 C   0  0  0  0  0  2  0  0  0  0  0  0
  -31.0210  -17.7060   21.2510 C   0  0  0  0  0  2  0  0  0  0  0  0
  -31.2780  -15.3190   20.6010 C   0  0  0  0  0  0  0  0  0  0  0  0
  -31.1830  -12.9860   19.8220 C   0  0  0  0  0  2  0  0  0  0  0  0
  -30.3430  -12.8810   18.5340 C   0  0  0  0  0  2  0  0  0  0  0  0
  -28.8490  -12.7150   18.8690 C   0  0  0  0  0  2  0  0  0  0  0  0
  -28.3490  -13.7640   19.8970 C   0  0  0  0  0  3  0  0  0  0  0  0
  -29.3020  -13.8350   21.1100 C   0  0  0  0  0  2  0  0  0  0  0  0
  -30.6640  -14.1100   20.6140 N   0  0  0  0  0  0  0  0  0  0  0  0
  -32.3600  -15.5280   20.0430 O   0  0  0  0  0  0  0  0  0  0  0  0
  -30.6110  -16.3050   21.2140 N   0  0  0  0  0  0  0  0  0  0  0  0
  -29.7420  -16.0580   21.6670 H   0  0  0  0  0  0  0  0  0  0  0  0
  -25.9270  -14.3740   20.5270 C   0  0  0  0  0  0  0  0  0  0  0  0
  -24.8380  -13.5980   20.8280 C   0  0  0  0  0  0  0  0  0  0  0  0
  -25.2890  -12.2440   20.7700 C   0  0  0  0  0  0  0  0  0  0  0  0
  -26.9740  -13.4890   20.3080 N   0  0  0  0  0  0  0  0  0  0  0  0
  -26.5900  -12.2030   20.5100 N   0  0  0  0  0  0  0  0  0  0  0  0
  -24.5480  -10.9820   20.8900 C   0  0  0  0  0  0  0  0  0  0  0  0
  -24.8430  -10.0460   21.9060 C   0  0  0  0  0  3  0  0  0  0  0  0
  -24.1030   -8.8480   22.0110 C   0  0  0  0  0  3  0  0  0  0  0  0
  -23.0570   -8.5770   21.0980 C   0  0  0  0  0  0  0  0  0  0  0  0
  -22.7830   -9.5020   20.0750 C   0  0  0  0  0  3  0  0  0  0  0  0
  -23.5220  -10.6910   19.9680 C   0  0  0  0  0  3  0  0  0  0  0  0
  -22.3030   -7.4290   21.1090 O   0  0  0  0  0  0  0  0  0  0  0  0
  -21.9620   -6.8030   22.2800 C   0  0  0  0  0  0  0  0  0  0  0  0
  -21.1980   -7.4490   23.2760 C   0  0  0  0  0  3  0  0  0  0  0  0
  -20.8110   -6.7450   24.4340 C   0  0  0  0  0  3  0  0  0  0  0  0
  -21.1760   -5.3940   24.5940 C   0  0  0  0  0  0  0  0  0  0  0  0
  -21.9310   -4.7480   23.6000 C   0  0  0  0  0  3  0  0  0  0  0  0
  -22.3200   -5.4490   22.4450 C   0  0  0  0  0  0  0  0  0  0  0  0
  -23.0300   -4.8150   21.4810 F   0  0  0  0  0  0  0  0  0  0  0  0
  -20.7980   -4.7160   25.7020 F   0  0  0  0  0  0  0  0  0  0  0  0
  -23.4360  -14.0780   21.0660 C   0  0  0  0  0  0  0  0  0  0  0  0
  -22.6770  -13.3670   21.8940 N   0  0  0  0  0  0  0  0  0  0  0  0
  -23.0190  -15.1150   20.5540 O   0  0  0  0  0  0  0  0  0  0  0  0
  -23.0260  -12.5280   22.3310 H   0  0  0  0  0  0  0  0  0  0  0  0
  -21.7340  -13.6700   22.0950 H   0  0  0  0  0  0  0  0  0  0  0  0
  -26.1110  -15.7460   20.4020 N   0  0  0  0  0  0  0  0  0  0  0  0
  -25.3510  -16.4080   20.5110 H   0  0  0  0  0  0  0  0  0  0  0  0
  -26.9850  -16.1830   20.1400 H   0  0  0  0  0  0  0  0  0  0  0  0
  1  2  1  0
  2  3  1  0
  3  5  1  0
  3  6  1  0
  4  2  2  0
  7  8  1  0
  7  6  1  0
  9 11  1  0
  9  8  1  0
 10 21  2  0
 11 16  1  0
 12 20  1  0
 12 22  1  0
 13 19  1  0
 13 15  1  0
 14 20  1  0
 15 14  1  0
 16 15  2  0
 17 18  1  0
 17 11  2  0
 18 13  2  0
 19 12  1  0
 20 10  1  0
 22 24  2  0
 23 22  1  0
 25 23  1  0
 26 35  2  0
 26 31  1  0
 27 23  1  0
 27 31  1  0
 28 27  1  0
 29 30  1  0
 29 28  1  0
 30 26  1  0
 31 32  2  0
 32 33  1  0
 34 33  2  0
 35 34  1  0
 36 10  1  0
 36 37  1  0
 36 46  1  0
 37 40  1  0
 38 42  1  0
 38 37  1  0
 39 38  2  0
 42 41  1  0
 44 42  1  0
 44 45  1  0
 44 43  1  0
 46 49  1  1
 46 47  1  0
 48 46  1  0
 50  1  1  0
 51 50  1  0
 52 51  1  0
 52 54  2  0
 53 56  1  0
 53 52  1  0
 55 53  1  0
 56 57  1  0
 57 58  1  0
 58 59  1  0
 60 66  1  0
 60 68  1  0
 61 66  1  0
 62 63  1  0
 62 61  1  0
 64 63  1  0
 64 73  1  0
 64 65  1  0
 66 65  1  0
 67 60  2  0
 68 59  1  0
 68 69  1  0
 70 71  2  0
 71 90  1  0
 72 71  1  0
 72 75  1  0
 73 74  1  0
 73 70  1  0
 74 72  2  0
 75 76  1  0
 76 77  2  0
 78 81  1  0
 78 77  1  0
 79 78  2  0
 80 79  1  0
 80 75  2  0
 81 82  1  0
 82 87  2  0
 82 83  1  0
 83 84  2  0
 84 85  1  0
 85 89  1  0
 86 85  2  0
 87 86  1  0
 88 87  1  0
 90 91  1  0
 91 94  1  0
 91 93  1  0
 92 90  2  0
 95 96  1  0
 95 70  1  0
 97 95  1  0
M  ISO  4   8 101   9 101  60 100  68 100
M  END
>  <TORSDO>  (40) 
F 27

>  <SCORE>  (40) 
-9.040

>  <name>  (40) 
39

>  <ligand_id>  (40) 
39

>  <original_smiles>  (40) 
[H]c1c([H])c([H])c2c(c1[H])C([H])([H])C([H])([H])C([H])([H])C2([H])N([H])C(=O)C1([H])N(C(=O)C([H])(N([H])C(=O)C([H])(N([H])C([H])([H])[H])C([H])([H])[H])C(C([H])([H])[H])(C([H])([H])[H])C([H])([H])[H])C([H])([H])c2c([H])c(OC([H])([H])C([H])([H])C([H])([H])N([H])C(=O)C([H])([H])OC([H])([H])C(=O)N([H])C([H])([H])C([H])([H])C([H])([H])C([H])([H])N([H])C(=O)N3C([H])([H])C([H])([H])C([H])([H])C([H])(n4nc(-c5c([H])c([H])c(Oc6c([H])c([H])c(F)c([H])c6F)c([H])c5[H])c(C(=O)N([H])[H])c4N([H])[H])C3([H])[H])c([H])c([H])c2C1([H])[H]

>  <smiles>  (40) 
[H]c1c([H])c([H])c2c(c1[H])C([H])([H])C([H])([H])C([H])([H])C2([H])N([H])C(=O)C1([H])N(C(=O)C([H])(N([H])C(=O)C([H])(N([H])C([H])([H])[H])C([H])([H])[H])C(C([H])([H])[H])(C([H])([H])[H])C([H])([H])[H])C([H])([H])c2c([H])c(OC([H])([H])C([H])([H])C([H])([H])N([H])C(=O)C([H])([H])OC([H])([H])C(=O)N([H])C([H])([H])C([H])([H])C([H])([H])C([H])([H])N([H])C(=O)N3C([H])([H])C([H])([H])C([H])([H])C([H])(n4nc(-c5c([H])c([H])c(Oc6c([H])c([H])c(F)c([H])c6F)c([H])c5[H])c(C(=O)N([H])[H])c4N([H])[H])C3([H])[H])c([H])c([H])c2C1([H])[H]

$$$$
40:0:0
     RDKit          3D

 85 92  0  0  1  0  0  0  0  0999 V2000
  -29.0250  -23.8090   20.5320 C   0  0  0  0  0  3  0  0  0  0  0  0
  -28.7900  -22.3010   20.0150 C   0  0  0  0  0  3  0  0  0  0  0  0
  -29.4630  -21.0450   20.7580 C   0  0  0  0  0  3  0  0  0  0  0  0
  -29.3750  -19.7210   20.1020 O   0  0  0  0  0  0  0  0  0  0  0  0
  -29.7640  -18.5020   20.8530 C   0  0  0  0  0  2  0  0  0  0  0  0
  -29.9500  -17.1360   20.0280 C   0  0  0  0  0  2  0  0  0  0  0  0
  -29.8210  -15.8000   20.6620 O   0  0  0  0  0  0  0  0  0  0  0  0
  -30.6430  -14.6950   20.2820 C   0  0  0  0  0  0  0  0  0  0  0  0
  -30.3590  -12.4240   19.2570 C   0  0  0  0  0  2  0  0  0  0  0  0
  -29.4140  -12.5720   18.0430 C   0  0  0  0  0  2  0  0  0  0  0  0
  -27.9420  -12.4390   18.4800 C   0  0  0  0  0  2  0  0  0  0  0  0
  -27.6000  -13.3130   19.7170 C   0  0  0  0  0  3  0  0  0  0  0  0
  -28.6570  -13.1700   20.8320 C   0  0  0  0  0  2  0  0  0  0  0  0
  -29.9720  -13.4460   20.2480 N   0  0  0  0  0  0  0  0  0  0  0  0
  -31.7870  -14.8470   19.8470 O   0  0  0  0  0  0  0  0  0  0  0  0
  -25.2190  -13.9290   20.4550 C   0  0  0  0  0  0  0  0  0  0  0  0
  -24.1500  -13.1680   20.8380 C   0  0  0  0  0  0  0  0  0  0  0  0
  -24.6010  -11.8110   20.8120 C   0  0  0  0  0  0  0  0  0  0  0  0
  -26.2540  -13.0390   20.2140 N   0  0  0  0  0  0  0  0  0  0  0  0
  -25.8870  -11.7600   20.4910 N   0  0  0  0  0  0  0  0  0  0  0  0
  -23.8630  -10.5560   21.0160 C   0  0  0  0  0  0  0  0  0  0  0  0
  -24.3070   -9.5800   21.9340 C   0  0  0  0  0  3  0  0  0  0  0  0
  -23.5710   -8.3900   22.1260 C   0  0  0  0  0  3  0  0  0  0  0  0
  -22.3760   -8.1700   21.4010 C   0  0  0  0  0  0  0  0  0  0  0  0
  -21.9520   -9.1360   20.4710 C   0  0  0  0  0  3  0  0  0  0  0  0
  -22.6890  -10.3160   20.2770 C   0  0  0  0  0  3  0  0  0  0  0  0
  -21.6090   -7.0350   21.5040 O   0  0  0  0  0  0  0  0  0  0  0  0
  -21.5960   -6.2760   22.6470 C   0  0  0  0  0  0  0  0  0  0  0  0
  -21.2440   -6.8230   23.9000 C   0  0  0  0  0  3  0  0  0  0  0  0
  -21.1770   -5.9920   25.0370 C   0  0  0  0  0  3  0  0  0  0  0  0
  -21.4500   -4.6160   24.9200 C   0  0  0  0  0  0  0  0  0  0  0  0
  -21.7940   -4.0700   23.6720 C   0  0  0  0  0  3  0  0  0  0  0  0
  -21.8640   -4.8970   22.5380 C   0  0  0  0  0  0  0  0  0  0  0  0
  -22.1760   -4.3600   21.3340 F   0  0  0  0  0  0  0  0  0  0  0  0
  -21.3760   -3.8160   26.0110 F   0  0  0  0  0  0  0  0  0  0  0  0
  -22.7590  -13.6580   21.1180 C   0  0  0  0  0  0  0  0  0  0  0  0
  -22.0330  -12.9770   21.9980 N   0  0  0  0  0  0  0  0  0  0  0  0
  -22.3260  -14.6830   20.5920 O   0  0  0  0  0  0  0  0  0  0  0  0
  -22.3950  -12.1500   22.4470 H   0  0  0  0  0  0  0  0  0  0  0  0
  -21.1000  -13.2910   22.2260 H   0  0  0  0  0  0  0  0  0  0  0  0
  -25.3950  -15.2980   20.2710 N   0  0  0  0  0  0  0  0  0  0  0  0
  -24.6420  -15.9640   20.3960 H   0  0  0  0  0  0  0  0  0  0  0  0
  -26.2580  -15.7270   19.9620 H   0  0  0  0  0  0  0  0  0  0  0  0
  -28.0520  -24.9590   19.9810 C   0  0  0  0  0  3  0  0  0  0  0  0
  -28.2820  -26.4130   20.2440 O   0  0  0  0  0  0  0  0  0  0  0  0
  -24.6030  -31.8760   23.2360 C   0  0  0  0  0  0  0  0  0  0  0  0
  -27.1820  -27.2950   20.1670 C   0  0  0  0  0  0  0  0  0  0  0  0
  -23.3890  -30.4810   21.6040 C   0  0  0  0  0  3  0  0  0  0  0  0
  -24.8270  -28.9350   20.1640 C   0  0  0  0  0  0  0  0  0  0  0  0
  -25.9300  -30.7910   21.4080 C   0  0  0  0  0  2  0  0  0  0  0  0
  -26.0030  -29.4120   20.7570 C   0  0  0  0  0  0  0  0  0  0  0  0
  -27.1840  -28.6060   20.7470 C   0  0  0  0  0  3  0  0  0  0  0  0
  -25.9830  -26.8880   19.5340 C   0  0  0  0  0  3  0  0  0  0  0  0
  -24.8220  -27.6800   19.5420 C   0  0  0  0  0  3  0  0  0  0  0  0
  -23.5930  -29.8110   20.2210 C   0  0  0  0  0  2  0  0  0  0  0  0
  -24.6600  -31.0670   22.1380 N   0  0  0  0  0  0  0  0  0  0  0  0
  -23.5220  -32.1550   23.7760 O   0  0  0  0  0  0  0  0  0  0  0  0
  -22.7290  -29.4630   22.5660 C   0  0  0  0  0  0  0  0  0  0  0  0
  -21.4030  -29.2810   22.4410 N   0  0  0  0  0  0  0  0  0  0  0  0
  -23.4100  -28.8400   23.3850 O   0  0  0  0  0  0  0  0  0  0  0  0
  -20.9130  -29.8350   21.7520 H   0  0  0  0  0  0  0  0  0  0  0  0
  -18.0320  -28.0660   22.9350 C   0  0  0  0  0  0  0  0  0  0  0  0
  -20.5870  -28.3440   23.2140 C   0  0  0  0  0  3  0  0  0  0  0  0
  -20.7000  -26.9090   22.6490 C   0  0  0  0  0  2  0  0  0  0  0  0
  -19.6060  -26.5720   21.6330 C   0  0  0  0  0  2  0  0  0  0  0  0
  -18.2210  -26.7130   22.2700 C   0  0  0  0  0  2  0  0  0  0  0  0
  -19.1430  -28.8380   23.3630 C   0  0  0  0  0  0  0  0  0  0  0  0
  -18.9120  -30.1050   23.9450 C   0  0  0  0  0  3  0  0  0  0  0  0
  -17.6030  -30.5980   24.1020 C   0  0  0  0  0  3  0  0  0  0  0  0
  -16.5070  -29.8220   23.6890 C   0  0  0  0  0  3  0  0  0  0  0  0
  -16.7210  -28.5580   23.1120 C   0  0  0  0  0  3  0  0  0  0  0  0
  -25.8890  -32.5080   23.8510 C   0  0  0  0  0  3  0  0  0  0  0  0
  -26.4140  -31.7330   25.1220 C   0  0  1  0  0  0  0  0  0  0  0  0
  -25.3300  -31.4930   26.1980 C   0  0  0  0  0  1  0  0  0  0  0  0
  -26.9920  -30.3560   24.7230 C   0  0  0  0  0  1  0  0  0  0  0  0
  -27.5710  -32.5240   25.7770 C   0  0  0  0  0  1  0  0  0  0  0  0
  -25.5790  -33.9040   24.1910 N   0  0  0  0  0  0  0  0  0  0  0  0
  -25.8980  -34.9620   23.4320 C   0  0  0  0  0  0  0  0  0  0  0  0
  -26.5530  -34.8650   22.3910 O   0  0  0  0  0  0  0  0  0  0  0  0
  -24.9960  -34.0540   25.0010 H   0  0  0  0  0  0  0  0  0  0  0  0
  -24.1540  -36.7490   23.1190 C   0  0  0  0  0  1  0  0  0  0  0  0
  -25.4140  -36.3470   23.9030 C   0  0  0  0  0  3  0  0  0  0  0  0
  -27.5640  -37.2370   24.6890 C   0  0  0  0  0  1  0  0  0  0  0  0
  -26.4400  -37.4050   23.7710 N   0  0  0  0  0  0  0  0  0  0  0  0
  -26.0340  -38.3230   23.9330 H   0  0  0  0  0  0  0  0  0  0  0  0
  2  1  1  0
  2  3  2  0
  4  3  1  0
  4  5  1  0
  6  7  1  0
  6  5  1  0
  8  7  1  0
  9 14  1  0
 10 11  1  0
 10  9  1  0
 12 11  1  0
 12 19  1  0
 12 13  1  0
 14  8  1  0
 14 13  1  0
 15  8  2  0
 16 17  2  0
 17 36  1  0
 18 17  1  0
 18 21  1  0
 19 16  1  0
 19 20  1  0
 20 18  2  0
 21 22  1  0
 22 23  2  0
 24 27  1  0
 24 23  1  0
 25 24  2  0
 26 25  1  0
 26 21  2  0
 27 28  1  0
 28 29  1  0
 29 30  2  0
 31 30  1  0
 31 35  1  0
 32 31  2  0
 33 28  2  0
 33 32  1  0
 34 33  1  0
 36 37  1  0
 37 40  1  0
 37 39  1  0
 38 36  2  0
 41 42  1  0
 41 16  1  0
 43 41  1  0
 44 45  1  0
 44  1  2  0
 46 57  2  0
 47 45  1  0
 47 52  1  0
 48 56  1  0
 48 58  1  0
 49 55  1  0
 49 51  1  0
 50 56  1  0
 51 50  1  0
 52 51  2  0
 53 54  1  0
 53 47  2  0
 54 49  2  0
 55 48  1  0
 56 46  1  0
 58 60  2  0
 59 58  1  0
 61 59  1  0
 62 71  2  0
 62 67  1  0
 63 59  1  0
 63 67  1  0
 64 63  1  0
 65 66  1  0
 65 64  1  0
 66 62  1  0
 67 68  2  0
 68 69  1  0
 70 69  2  0
 71 70  1  0
 72 46  1  0
 72 77  1  0
 72 73  1  0
 73 76  1  1
 73 74  1  0
 75 73  1  0
 77 80  1  0
 78 82  1  0
 78 77  1  0
 79 78  2  0
 82 81  1  0
 84 82  1  0
 84 85  1  0
 84 83  1  0
M  ISO  4   7 100   8 100  44 101  45 101
M  END
>  <TORSDO>  (41) 
F 23

>  <SCORE>  (41) 
-12.511

>  <name>  (41) 
40

>  <ligand_id>  (41) 
40

>  <original_smiles>  (41) 
[H]c1c([H])c([H])c2c(c1[H])C([H])([H])C([H])([H])C([H])([H])C2([H])N([H])C(=O)C1([H])N(C(=O)C([H])(N([H])C(=O)C([H])(N([H])C([H])([H])[H])C([H])([H])[H])C(C([H])([H])[H])(C([H])([H])[H])C([H])([H])[H])C([H])([H])c2c([H])c(OC([H])([H])C([H])([H])C([H])([H])C([H])([H])OC([H])([H])C([H])([H])OC(=O)N3C([H])([H])C([H])([H])C([H])([H])C([H])(n4nc(-c5c([H])c([H])c(Oc6c([H])c([H])c(F)c([H])c6F)c([H])c5[H])c(C(=O)N([H])[H])c4N([H])[H])C3([H])[H])c([H])c([H])c2C1([H])[H]

>  <smiles>  (41) 
[H]c1c([H])c([H])c2c(c1[H])C([H])([H])C([H])([H])C([H])([H])C2([H])N([H])C(=O)C1([H])N(C(=O)C([H])(N([H])C(=O)C([H])(N([H])C([H])([H])[H])C([H])([H])[H])C(C([H])([H])[H])(C([H])([H])[H])C([H])([H])[H])C([H])([H])c2c([H])c(OC([H])([H])C([H])([H])C([H])([H])C([H])([H])OC([H])([H])C([H])([H])OC(=O)N3C([H])([H])C([H])([H])C([H])([H])C([H])(n4nc(-c5c([H])c([H])c(Oc6c([H])c([H])c(F)c([H])c6F)c([H])c5[H])c(C(=O)N([H])[H])c4N([H])[H])C3([H])[H])c([H])c([H])c2C1([H])[H]

$$$$
41:0:0
     RDKit          3D

 82 86  0  0  1  0  0  0  0  0999 V2000
  -28.2030  -25.2140   20.1870 O   0  0  0  0  0  1  0  0  0  0  0  0
  -24.6590  -31.8230   23.1160 C   0  0  0  0  0  0  0  0  0  0  0  0
  -27.2270  -26.5180   20.2190 C   0  0  0  0  0  0  0  0  0  0  0  0
  -23.5030  -30.4040   21.4840 C   0  0  0  0  0  3  0  0  0  0  0  0
  -24.9680  -28.6960   20.1210 C   0  0  0  0  0  0  0  0  0  0  0  0
  -26.0920  -30.4850   21.4080 C   0  0  0  0  0  2  0  0  0  0  0  0
  -26.1660  -29.0180   20.7700 C   0  0  0  0  0  0  0  0  0  0  0  0
  -27.2690  -27.9690   20.7710 C   0  0  0  0  0  3  0  0  0  0  0  0
  -25.9850  -26.4690   19.5130 C   0  0  0  0  0  3  0  0  0  0  0  0
  -24.9320  -27.4500   19.4670 C   0  0  0  0  0  3  0  0  0  0  0  0
  -23.7680  -29.6710   20.1330 C   0  0  0  0  0  2  0  0  0  0  0  0
  -24.7790  -30.9440   22.0540 N   0  0  0  0  0  0  0  0  0  0  0  0
  -23.5550  -32.1300   23.6020 O   0  0  0  0  0  0  0  0  0  0  0  0
  -22.7610  -29.4600   22.4680 C   0  0  0  0  0  0  0  0  0  0  0  0
  -21.4220  -29.3490   22.3610 N   0  0  0  0  0  0  0  0  0  0  0  0
  -23.4040  -28.8170   23.3000 O   0  0  0  0  0  0  0  0  0  0  0  0
  -20.9470  -29.9240   21.6780 H   0  0  0  0  0  0  0  0  0  0  0  0
  -18.0030  -28.1330   22.8590 C   0  0  0  0  0  0  0  0  0  0  0  0
  -20.5950  -28.3830   23.0970 C   0  0  0  0  0  0  0  0  0  0  0  0
  -20.7720  -26.9760   22.4620 C   0  0  0  0  0  3  0  0  0  0  0  0
  -19.5380  -26.4150   21.7220 C   0  0  0  0  0  3  0  0  0  0  0  0
  -18.0990  -26.8440   22.0560 C   0  0  0  0  0  3  0  0  0  0  0  0
  -19.1450  -28.8670   23.2920 C   0  0  0  0  0  0  0  0  0  0  0  0
  -18.9400  -30.1130   23.9270 C   0  0  0  0  0  3  0  0  0  0  0  0
  -17.6430  -30.6230   24.1300 C   0  0  0  0  0  3  0  0  0  0  0  0
  -16.5250  -29.8800   23.7210 C   0  0  0  0  0  3  0  0  0  0  0  0
  -16.7080  -28.6360   23.0960 C   0  0  0  0  0  3  0  0  0  0  0  0
  -25.9010  -32.4970   23.7720 C   0  0  0  0  0  3  0  0  0  0  0  0
  -25.5540  -33.8960   24.1020 N   0  0  0  0  0  0  0  0  0  0  0  0
  -25.8860  -34.9730   23.3740 C   0  0  0  0  0  0  0  0  0  0  0  0
  -26.5670  -34.8910   22.3500 O   0  0  0  0  0  0  0  0  0  0  0  0
  -24.9460  -34.0310   24.8960 H   0  0  0  0  0  0  0  0  0  0  0  0
  -24.1500  -36.7720   23.0460 C   0  0  0  0  0  1  0  0  0  0  0  0
  -25.3900  -36.3550   23.8530 C   0  0  0  0  0  3  0  0  0  0  0  0
  -27.5120  -37.2520   24.7100 C   0  0  0  0  0  1  0  0  0  0  0  0
  -26.4160  -37.4190   23.7590 N   0  0  0  0  0  0  0  0  0  0  0  0
  -26.0000  -38.3340   23.9110 H   0  0  0  0  0  0  0  0  0  0  0  0
  -26.3860  -31.7540   25.0790 C   0  0  1  0  0  0  0  0  0  0  0  0
  -25.2660  -31.5290   26.1240 C   0  0  0  0  0  1  0  0  0  0  0  0
  -26.9880  -30.3730   24.7440 C   0  0  0  0  0  1  0  0  0  0  0  0
  -27.5140  -32.5680   25.7560 C   0  0  0  0  0  1  0  0  0  0  0  0
  -28.2300  -23.3320   20.4390 C   0  0  0  0  0 15  0  0  0  0  0  0
  -28.7870  -21.3790   19.8640 C   0  0  0  0  0 15  0  0  0  0  0  0
  -29.3980  -19.4400   20.4120 C   0  0  0  0  0  1  0  0  0  0  0  0
  -30.1690  -16.0920   20.0360 C   0  0  0  0  0  0  0  0  0  0  0  0
  -30.3590  -13.4710   19.1990 C   0  0  0  0  0  2  0  0  0  0  0  0
  -29.4770  -12.8700   18.0550 C   0  0  0  0  0  2  0  0  0  0  0  0
  -28.1030  -12.4290   18.5740 C   0  0  0  0  0  2  0  0  0  0  0  0
  -27.5630  -13.4490   19.5940 C   0  0  0  0  0  3  0  0  0  0  0  0
  -28.6020  -13.9210   20.6470 C   0  0  0  0  0  2  0  0  0  0  0  0
  -29.6750  -14.6720   19.9180 N   0  0  0  0  0  0  0  0  0  0  0  0
  -31.4150  -15.9560   19.9590 O   0  0  0  0  0  0  0  0  0  0  0  0
  -29.4220  -17.5600   20.0550 N   0  0  0  0  0  0  0  0  0  0  0  0
  -28.4530  -17.3130   19.9040 H   0  0  0  0  0  0  0  0  0  0  0  0
  -25.2310  -13.9310   20.4500 C   0  0  0  0  0  0  0  0  0  0  0  0
  -24.1900  -13.1380   20.8360 C   0  0  0  0  0  0  0  0  0  0  0  0
  -24.6710  -11.7930   20.7770 C   0  0  0  0  0  0  0  0  0  0  0  0
  -26.2760  -13.0750   20.1660 N   0  0  0  0  0  0  0  0  0  0  0  0
  -25.9570  -11.7790   20.4270 N   0  0  0  0  0  0  0  0  0  0  0  0
  -23.9560  -10.5240   20.9740 C   0  0  0  0  0  0  0  0  0  0  0  0
  -24.4050   -9.5560   21.8990 C   0  0  0  0  0  3  0  0  0  0  0  0
  -23.6830   -8.3560   22.0890 C   0  0  0  0  0  3  0  0  0  0  0  0
  -22.4960   -8.1180   21.3550 C   0  0  0  0  0  0  0  0  0  0  0  0
  -22.0660   -9.0740   20.4200 C   0  0  0  0  0  3  0  0  0  0  0  0
  -22.7890  -10.2650   20.2280 C   0  0  0  0  0  3  0  0  0  0  0  0
  -21.7460   -6.9710   21.4550 O   0  0  0  0  0  0  0  0  0  0  0  0
  -21.7090   -6.2310   22.6100 C   0  0  0  0  0  0  0  0  0  0  0  0
  -21.2840   -6.7860   23.8360 C   0  0  0  0  0  3  0  0  0  0  0  0
  -21.1960   -5.9730   24.9840 C   0  0  0  0  0  3  0  0  0  0  0  0
  -21.5230   -4.6050   24.9060 C   0  0  0  0  0  0  0  0  0  0  0  0
  -21.9420   -4.0500   23.6840 C   0  0  0  0  0  3  0  0  0  0  0  0
  -22.0320   -4.8600   22.5390 C   0  0  0  0  0  0  0  0  0  0  0  0
  -22.4140   -4.3150   21.3590 F   0  0  0  0  0  0  0  0  0  0  0  0
  -21.4320   -3.8220   26.0060 F   0  0  0  0  0  0  0  0  0  0  0  0
  -22.7960  -13.6030   21.1400 C   0  0  0  0  0  0  0  0  0  0  0  0
  -22.0920  -12.8960   22.0160 N   0  0  0  0  0  0  0  0  0  0  0  0
  -22.3430  -14.6300   20.6380 O   0  0  0  0  0  0  0  0  0  0  0  0
  -22.4740  -12.0650   22.4440 H   0  0  0  0  0  0  0  0  0  0  0  0
  -21.1580  -13.1890   22.2630 H   0  0  0  0  0  0  0  0  0  0  0  0
  -25.3710  -15.3060   20.2780 N   0  0  0  0  0  0  0  0  0  0  0  0
  -24.5980  -15.9490   20.4140 H   0  0  0  0  0  0  0  0  0  0  0  0
  -26.2020  -15.7550   19.9170 H   0  0  0  0  0  0  0  0  0  0  0  0
  1  3  1  0
  2 13  2  0
  3  8  1  0
  4 12  1  0
  4 14  1  0
  5 11  1  0
  5  7  1  0
  6 12  1  0
  7  8  2  0
  7  6  1  0
  9  3  2  0
 10  9  1  0
 10  5  2  0
 11  4  1  0
 12  2  1  0
 14 16  2  0
 15 14  1  0
 15 19  1  0
 17 15  1  0
 18 27  2  0
 18 23  1  0
 19 23  1  0
 20 19  2  0
 21 22  2  0
 21 20  1  0
 22 18  1  0
 23 24  2  0
 24 25  1  0
 26 25  2  0
 27 26  1  0
 28  2  1  0
 28 29  1  0
 28 38  1  0
 29 32  1  0
 30 34  1  0
 30 29  1  0
 31 30  2  0
 34 33  1  0
 36 34  1  0
 36 37  1  0
 36 35  1  0
 38 41  1  1
 38 39  1  0
 40 38  1  0
 45 53  1  0
 46 51  1  0
 47 48  1  0
 47 46  1  0
 49 48  1  0
 49 58  1  0
 49 50  1  0
 51 45  1  0
 51 50  1  0
 52 45  2  0
 53 44  1  0
 54 53  1  0
 55 56  2  0
 56 75  1  0
 57 56  1  0
 57 60  1  0
 58 59  1  0
 58 55  1  0
 59 57  2  0
 60 61  1  0
 61 62  2  0
 63 66  1  0
 63 62  1  0
 64 63  2  0
 65 64  1  0
 65 60  2  0
 66 67  1  0
 67 68  1  0
 68 69  2  0
 70 69  1  0
 70 74  1  0
 71 70  2  0
 72 67  2  0
 72 71  1  0
 73 72  1  0
 75 76  1  0
 76 79  1  0
 76 78  1  0
 77 75  2  0
 80 81  1  0
 80 55  1  0
 82 80  1  0
M  ISO  4   1 101  42 101  45 100  53 100
M  END
>  <TORSDO>  (42) 
F 18

>  <SCORE>  (42) 
-16.165

>  <name>  (42) 
41

>  <ligand_id>  (42) 
41

>  <original_smiles>  (42) 
[H]c1c([H])c([H])c2c(c1[H])C([H])([H])C([H])([H])C([H])([H])C2([H])N([H])C(=O)C1([H])N(C(=O)C([H])(N([H])C(=O)C([H])(N([H])C([H])([H])[H])C([H])([H])[H])C(C([H])([H])[H])(C([H])([H])[H])C([H])([H])[H])C([H])([H])c2c([H])c(OC([H])([H])C([H])([H])C([H])([H])N([H])C(=O)N3C([H])([H])C([H])([H])C([H])([H])C([H])(n4nc(-c5c([H])c([H])c(Oc6c([H])c([H])c(F)c([H])c6F)c([H])c5[H])c(C(=O)N([H])[H])c4N([H])[H])C3([H])[H])c([H])c([H])c2C1([H])[H]

>  <smiles>  (42) 
[H]c1c([H])c([H])c2c(c1[H])C([H])([H])C([H])([H])C([H])([H])C2([H])N([H])C(=O)C1([H])N(C(=O)C([H])(N([H])C(=O)C([H])(N([H])C([H])([H])[H])C([H])([H])[H])C(C([H])([H])[H])(C([H])([H])[H])C([H])([H])[H])C([H])([H])c2c([H])c(OC([H])([H])C([H])([H])C([H])([H])N([H])C(=O)N3C([H])([H])C([H])([H])C([H])([H])C([H])(n4nc(-c5c([H])c([H])c(Oc6c([H])c([H])c(F)c([H])c6F)c([H])c5[H])c(C(=O)N([H])[H])c4N([H])[H])C3([H])[H])c([H])c([H])c2C1([H])[H]

$$$$
42:0:0
     RDKit          3D

 92100  0  0  1  0  0  0  0  0999 V2000
  -29.9710  -20.9490   20.5860 C   0  0  0  0  0  0  0  0  0  0  0  0
  -28.7150  -21.4250   20.7060 N   0  0  0  0  0  0  0  0  0  0  0  0
  -30.8990  -21.6930   20.2570 O   0  0  0  0  0  0  0  0  0  0  0  0
  -28.0210  -20.7180   20.9190 H   0  0  0  0  0  0  0  0  0  0  0  0
  -31.7250  -18.2180   22.5870 C   0  0  0  0  0  3  0  0  0  0  0  0
  -31.2940  -19.4550   22.0820 C   0  0  0  0  0  3  0  0  0  0  0  0
  -31.1950  -17.0230   22.0790 C   0  0  0  0  0  3  0  0  0  0  0  0
  -29.7480  -18.3130   20.5800 C   0  0  0  0  0  3  0  0  0  0  0  0
  -30.2980  -19.5410   21.0820 C   0  0  0  0  0  0  0  0  0  0  0  0
  -30.2190  -17.0370   21.0590 C   0  0  0  0  0  0  0  0  0  0  0  0
  -30.4560  -14.6720   20.2290 C   0  0  0  0  0  0  0  0  0  0  0  0
  -30.1410  -12.5150   19.0470 C   0  0  0  0  0  2  0  0  0  0  0  0
  -29.1440  -12.7190   17.8870 C   0  0  0  0  0  2  0  0  0  0  0  0
  -27.6950  -12.5370   18.3830 C   0  0  0  0  0  2  0  0  0  0  0  0
  -27.4000  -13.3270   19.6880 C   0  0  0  0  0  3  0  0  0  0  0  0
  -28.5160  -13.1360   20.7380 C   0  0  0  0  0  2  0  0  0  0  0  0
  -29.7880  -13.4880   20.0950 N   0  0  0  0  0  0  0  0  0  0  0  0
  -31.6120  -14.8090   19.8160 O   0  0  0  0  0  0  0  0  0  0  0  0
  -29.7180  -15.7610   20.5970 N   0  0  0  0  0  0  0  0  0  0  0  0
  -28.7190  -15.6250   20.6330 H   0  0  0  0  0  0  0  0  0  0  0  0
  -25.0300  -13.8530   20.5220 C   0  0  0  0  0  0  0  0  0  0  0  0
  -24.0000  -13.0450   20.9240 C   0  0  0  0  0  0  0  0  0  0  0  0
  -24.4930  -11.7070   20.8500 C   0  0  0  0  0  0  0  0  0  0  0  0
  -26.0830  -13.0030   20.2280 N   0  0  0  0  0  0  0  0  0  0  0  0
  -25.7700  -11.7070   20.4870 N   0  0  0  0  0  0  0  0  0  0  0  0
  -23.8070  -10.4230   21.0490 C   0  0  0  0  0  0  0  0  0  0  0  0
  -24.2840   -9.4640   21.9690 C   0  0  0  0  0  3  0  0  0  0  0  0
  -23.5960   -8.2450   22.1540 C   0  0  0  0  0  3  0  0  0  0  0  0
  -22.4150   -7.9800   21.4220 C   0  0  0  0  0  0  0  0  0  0  0  0
  -21.9570   -8.9290   20.4910 C   0  0  0  0  0  3  0  0  0  0  0  0
  -22.6470  -10.1390   20.3020 C   0  0  0  0  0  3  0  0  0  0  0  0
  -21.6940   -6.8140   21.5190 O   0  0  0  0  0  0  0  0  0  0  0  0
  -21.6750   -6.0720   22.6720 C   0  0  0  0  0  0  0  0  0  0  0  0
  -21.2360   -6.6150   23.9000 C   0  0  0  0  0  3  0  0  0  0  0  0
  -21.1680   -5.7980   25.0460 C   0  0  0  0  0  3  0  0  0  0  0  0
  -21.5270   -4.4400   24.9660 C   0  0  0  0  0  0  0  0  0  0  0  0
  -21.9600   -3.8960   23.7430 C   0  0  0  0  0  3  0  0  0  0  0  0
  -22.0310   -4.7100   22.5990 C   0  0  0  0  0  0  0  0  0  0  0  0
  -22.4270   -4.1760   21.4190 F   0  0  0  0  0  0  0  0  0  0  0  0
  -21.4550   -3.6520   26.0650 F   0  0  0  0  0  0  0  0  0  0  0  0
  -22.6040  -13.4840   21.2600 C   0  0  0  0  0  0  0  0  0  0  0  0
  -21.9290  -12.7540   22.1420 N   0  0  0  0  0  0  0  0  0  0  0  0
  -22.1210  -14.5080   20.7780 O   0  0  0  0  0  0  0  0  0  0  0  0
  -22.3360  -11.9260   22.5490 H   0  0  0  0  0  0  0  0  0  0  0  0
  -20.9950  -13.0280   22.4110 H   0  0  0  0  0  0  0  0  0  0  0  0
  -25.1520  -15.2300   20.3600 N   0  0  0  0  0  0  0  0  0  0  0  0
  -24.3700  -15.8580   20.5070 H   0  0  0  0  0  0  0  0  0  0  0  0
  -25.9620  -15.6950   19.9710 H   0  0  0  0  0  0  0  0  0  0  0  0
  -28.3530  -22.8120   21.1330 C   0  0  0  0  0  2  0  0  0  0  0  0
  -28.5170  -24.0470   20.1710 C   0  0  0  0  0  2  0  0  0  0  0  0
  -28.1660  -25.4050   20.8890 C   0  0  0  0  0  2  0  0  0  0  0  0
  -28.3010  -26.6610   20.1570 O   0  0  0  0  0  0  0  0  0  0  0  0
  -24.5770  -31.9590   23.2530 C   0  0  0  0  0  0  0  0  0  0  0  0
  -27.1760  -27.4730   20.1560 C   0  0  0  0  0  0  0  0  0  0  0  0
  -23.3600  -30.5560   21.6240 C   0  0  0  0  0  3  0  0  0  0  0  0
  -24.8000  -29.0240   20.1740 C   0  0  0  0  0  0  0  0  0  0  0  0
  -25.8880  -30.9110   21.4010 C   0  0  0  0  0  2  0  0  0  0  0  0
  -25.9700  -29.5380   20.7530 C   0  0  0  0  0  0  0  0  0  0  0  0
  -27.1660  -28.7710   20.7320 C   0  0  0  0  0  3  0  0  0  0  0  0
  -25.9910  -26.9900   19.5670 C   0  0  0  0  0  3  0  0  0  0  0  0
  -24.8090  -27.7550   19.5730 C   0  0  0  0  0  3  0  0  0  0  0  0
  -23.5570  -29.8850   20.2390 C   0  0  0  0  0  2  0  0  0  0  0  0
  -24.6280  -31.1570   22.1500 N   0  0  0  0  0  0  0  0  0  0  0  0
  -23.4980  -32.2310   23.8010 O   0  0  0  0  0  0  0  0  0  0  0  0
  -22.7190  -29.5320   22.5900 C   0  0  0  0  0  0  0  0  0  0  0  0
  -21.3940  -29.3390   22.4680 N   0  0  0  0  0  0  0  0  0  0  0  0
  -23.4080  -28.9170   23.4070 O   0  0  0  0  0  0  0  0  0  0  0  0
  -20.8980  -29.8850   21.7790 H   0  0  0  0  0  0  0  0  0  0  0  0
  -18.0310  -28.1130   22.9740 C   0  0  0  0  0  0  0  0  0  0  0  0
  -20.5870  -28.3960   23.2420 C   0  0  0  0  0  3  0  0  0  0  0  0
  -20.7020  -26.9640   22.6700 C   0  0  0  0  0  2  0  0  0  0  0  0
  -19.6020  -26.6290   21.6590 C   0  0  0  0  0  2  0  0  0  0  0  0
  -18.2200  -26.7630   22.3040 C   0  0  0  0  0  2  0  0  0  0  0  0
  -19.1430  -28.8870   23.3990 C   0  0  0  0  0  0  0  0  0  0  0  0
  -18.9140  -30.1530   23.9840 C   0  0  0  0  0  3  0  0  0  0  0  0
  -17.6030  -30.6410   24.1520 C   0  0  0  0  0  3  0  0  0  0  0  0
  -16.5060  -29.8630   23.7440 C   0  0  0  0  0  3  0  0  0  0  0  0
  -16.7190  -28.6020   23.1590 C   0  0  0  0  0  3  0  0  0  0  0  0
  -25.8650  -32.5950   23.8600 C   0  0  0  0  0  3  0  0  0  0  0  0
  -26.3930  -31.8310   25.1360 C   0  0  1  0  0  0  0  0  0  0  0  0
  -25.3060  -31.5950   26.2110 C   0  0  0  0  0  1  0  0  0  0  0  0
  -26.9780  -30.4530   24.7440 C   0  0  0  0  0  1  0  0  0  0  0  0
  -27.5460  -32.6310   25.7860 C   0  0  0  0  0  1  0  0  0  0  0  0
  -25.5570  -33.9940   24.1850 N   0  0  0  0  0  0  0  0  0  0  0  0
  -25.8900  -35.0440   23.4220 C   0  0  0  0  0  0  0  0  0  0  0  0
  -26.5600  -34.9340   22.3910 O   0  0  0  0  0  0  0  0  0  0  0  0
  -24.9610  -34.1510   24.9840 H   0  0  0  0  0  0  0  0  0  0  0  0
  -24.1710  -36.8420   23.0560 C   0  0  0  0  0  1  0  0  0  0  0  0
  -25.4060  -36.4340   23.8740 C   0  0  0  0  0  3  0  0  0  0  0  0
  -27.5390  -37.3150   24.7140 C   0  0  0  0  0  1  0  0  0  0  0  0
  -26.4420  -37.4840   23.7640 N   0  0  0  0  0  0  0  0  0  0  0  0
  -26.0400  -38.4060   23.9070 H   0  0  0  0  0  0  0  0  0  0  0  0
  1  2  1  0
  1  9  1  0
  2  4  1  0
  2 49  1  0
  3  1  2  0
  6  5  1  0
  7  5  2  0
  8 10  2  0
  8  9  1  0
  9  6  2  0
 10  7  1  0
 11 19  1  0
 12 17  1  0
 13 14  1  0
 13 12  1  0
 15 14  1  0
 15 24  1  0
 15 16  1  0
 17 11  1  0
 17 16  1  0
 18 11  2  0
 19 20  1  0
 19 10  1  0
 21 22  2  0
 22 41  1  0
 23 22  1  0
 23 26  1  0
 24 25  1  0
 24 21  1  0
 25 23  2  0
 26 27  1  0
 27 28  2  0
 29 32  1  0
 29 28  1  0
 30 29  2  0
 31 30  1  0
 31 26  2  0
 32 33  1  0
 33 34  1  0
 34 35  2  0
 36 35  1  0
 36 40  1  0
 37 36  2  0
 38 33  2  0
 38 37  1  0
 39 38  1  0
 41 42  1  0
 42 45  1  0
 42 44  1  0
 43 41  2  0
 46 47  1  0
 46 21  1  0
 48 46  1  0
 50 51  1  0
 50 49  1  0
 52 51  1  0
 53 64  2  0
 54 52  1  0
 54 59  1  0
 55 63  1  0
 55 65  1  0
 56 62  1  0
 56 58  1  0
 57 63  1  0
 58 57  1  0
 59 58  2  0
 60 61  1  0
 60 54  2  0
 61 56  2  0
 62 55  1  0
 63 53  1  0
 65 67  2  0
 66 65  1  0
 68 66  1  0
 69 78  2  0
 69 74  1  0
 70 66  1  0
 70 74  1  0
 71 70  1  0
 72 73  1  0
 72 71  1  0
 73 69  1  0
 74 75  2  0
 75 76  1  0
 77 76  2  0
 78 77  1  0
 79 53  1  0
 79 84  1  0
 79 80  1  0
 80 83  1  1
 80 81  1  0
 82 80  1  0
 84 87  1  0
 85 89  1  0
 85 84  1  0
 86 85  2  0
 89 88  1  0
 91 89  1  0
 91 92  1  0
 91 90  1  0
M  ISO  4  11 100  19 100  51 101  52 101
M  END
>  <TORSDO>  (43) 
F 20

>  <SCORE>  (43) 
-13.402

>  <name>  (43) 
42

>  <ligand_id>  (43) 
42

>  <original_smiles>  (43) 
[H]c1c([H])c(C(=O)N([H])C([H])([H])C([H])([H])C([H])([H])Oc2c([H])c([H])c3c(c2[H])C([H])([H])N(C(=O)C([H])(N([H])C(=O)C([H])(N([H])C([H])([H])[H])C([H])([H])[H])C(C([H])([H])[H])(C([H])([H])[H])C([H])([H])[H])C([H])(C(=O)N([H])C2([H])c4c([H])c([H])c([H])c([H])c4C([H])([H])C([H])([H])C2([H])[H])C3([H])[H])c([H])c(N([H])C(=O)N2C([H])([H])C([H])([H])C([H])([H])C([H])(n3nc(-c4c([H])c([H])c(Oc5c([H])c([H])c(F)c([H])c5F)c([H])c4[H])c(C(=O)N([H])[H])c3N([H])[H])C2([H])[H])c1[H]

>  <smiles>  (43) 
[H]c1c([H])c(C(=O)N([H])C([H])([H])C([H])([H])C([H])([H])Oc2c([H])c([H])c3c(c2[H])C([H])([H])N(C(=O)C([H])(N([H])C(=O)C([H])(N([H])C([H])([H])[H])C([H])([H])[H])C(C([H])([H])[H])(C([H])([H])[H])C([H])([H])[H])C([H])(C(=O)N([H])C2([H])c4c([H])c([H])c([H])c([H])c4C([H])([H])C([H])([H])C2([H])[H])C3([H])[H])c([H])c(N([H])C(=O)N2C([H])([H])C([H])([H])C([H])([H])C([H])(n3nc(-c4c([H])c([H])c(Oc5c([H])c([H])c(F)c([H])c5F)c([H])c4[H])c(C(=O)N([H])[H])c3N([H])[H])C2([H])[H])c1[H]

$$$$
43:0:0
     RDKit          3D

 92100  0  0  1  0  0  0  0  0999 V2000
  -29.0010  -21.8120   19.8150 C   0  0  0  0  0  0  0  0  0  0  0  0
  -28.4190  -22.9930   20.0690 N   0  0  0  0  0  0  0  0  0  0  0  0
  -30.1220  -21.7130   19.3100 O   0  0  0  0  0  0  0  0  0  0  0  0
  -27.5100  -22.9540   20.5130 H   0  0  0  0  0  0  0  0  0  0  0  0
  -28.1390  -20.5780   20.1400 C   0  0  0  0  0  2  0  0  0  0  0  0
  -28.9650  -18.3560   19.1780 C   0  0  0  0  0  3  0  0  0  0  0  0
  -29.3310  -18.8150   21.5390 C   0  0  0  0  0  3  0  0  0  0  0  0
  -29.4730  -17.0510   19.3510 C   0  0  0  0  0  3  0  0  0  0  0  0
  -29.8290  -17.5080   21.7160 C   0  0  0  0  0  3  0  0  0  0  0  0
  -28.8700  -19.2420   20.2740 C   0  0  0  0  0  0  0  0  0  0  0  0
  -29.8910  -16.6080   20.6300 C   0  0  0  0  0  0  0  0  0  0  0  0
  -30.7920  -14.3880   20.0230 C   0  0  0  0  0  0  0  0  0  0  0  0
  -30.4150  -12.2820   18.8010 C   0  0  0  0  0  2  0  0  0  0  0  0
  -29.3870  -12.5390   17.6790 C   0  0  0  0  0  2  0  0  0  0  0  0
  -27.9480  -12.3910   18.2080 C   0  0  0  0  0  2  0  0  0  0  0  0
  -27.7110  -13.1880   19.5180 C   0  0  0  0  0  3  0  0  0  0  0  0
  -28.8340  -12.8930   20.5390 C   0  0  0  0  0  2  0  0  0  0  0  0
  -30.1290  -13.2070   19.9080 N   0  0  0  0  0  0  0  0  0  0  0  0
  -31.8080  -14.6650   19.3770 O   0  0  0  0  0  0  0  0  0  0  0  0
  -30.2470  -15.2560   20.8910 N   0  0  0  0  0  0  0  0  0  0  0  0
  -29.7020  -14.8180   21.6200 H   0  0  0  0  0  0  0  0  0  0  0  0
  -25.3650  -13.8010   20.3930 C   0  0  0  0  0  0  0  0  0  0  0  0
  -24.3180  -13.0270   20.8220 C   0  0  0  0  0  0  0  0  0  0  0  0
  -24.7690  -11.6740   20.7350 C   0  0  0  0  0  0  0  0  0  0  0  0
  -26.3870  -12.9180   20.0780 N   0  0  0  0  0  0  0  0  0  0  0  0
  -26.0340  -11.6330   20.3370 N   0  0  0  0  0  0  0  0  0  0  0  0
  -24.0510  -10.4100   20.9540 C   0  0  0  0  0  0  0  0  0  0  0  0
  -24.4910   -9.4690   21.9110 C   0  0  0  0  0  3  0  0  0  0  0  0
  -23.7750   -8.2710   22.1160 C   0  0  0  0  0  3  0  0  0  0  0  0
  -22.6050   -8.0040   21.3660 C   0  0  0  0  0  0  0  0  0  0  0  0
  -22.1850   -8.9350   20.3990 C   0  0  0  0  0  3  0  0  0  0  0  0
  -22.9010  -10.1250   20.1920 C   0  0  0  0  0  3  0  0  0  0  0  0
  -21.8610   -6.8550   21.4790 O   0  0  0  0  0  0  0  0  0  0  0  0
  -21.7480   -6.1840   22.6700 C   0  0  0  0  0  0  0  0  0  0  0  0
  -21.2360   -6.8070   23.8300 C   0  0  0  0  0  3  0  0  0  0  0  0
  -21.0740   -6.0630   25.0150 C   0  0  0  0  0  3  0  0  0  0  0  0
  -21.4100   -4.6960   25.0410 C   0  0  0  0  0  0  0  0  0  0  0  0
  -21.9140   -4.0720   23.8860 C   0  0  0  0  0  3  0  0  0  0  0  0
  -22.0800   -4.8150   22.7030 C   0  0  0  0  0  0  0  0  0  0  0  0
  -22.5460   -4.2050   21.5870 F   0  0  0  0  0  0  0  0  0  0  0  0
  -21.2460   -3.9780   26.1770 F   0  0  0  0  0  0  0  0  0  0  0  0
  -22.9470  -13.5040   21.2020 C   0  0  0  0  0  0  0  0  0  0  0  0
  -22.2890  -12.8070   22.1240 N   0  0  0  0  0  0  0  0  0  0  0  0
  -22.4670  -14.5270   20.7170 O   0  0  0  0  0  0  0  0  0  0  0  0
  -22.6900  -11.9790   22.5360 H   0  0  0  0  0  0  0  0  0  0  0  0
  -21.3710  -13.1060   22.4210 H   0  0  0  0  0  0  0  0  0  0  0  0
  -25.5260  -15.1710   20.2260 N   0  0  0  0  0  0  0  0  0  0  0  0
  -24.7800  -15.8340   20.4080 H   0  0  0  0  0  0  0  0  0  0  0  0
  -26.3730  -15.6090   19.8830 H   0  0  0  0  0  0  0  0  0  0  0  0
  -28.8770  -24.3250   19.6660 C   0  0  0  0  0  2  0  0  0  0  0  0
  -28.4170  -25.3920   20.6800 C   0  0  0  0  0  2  0  0  0  0  0  0
  -28.5040  -26.7230   20.1490 O   0  0  0  0  0  0  0  0  0  0  0  0
  -24.6020  -31.8000   23.2440 C   0  0  0  0  0  0  0  0  0  0  0  0
  -27.3230  -27.4310   20.1420 C   0  0  0  0  0  0  0  0  0  0  0  0
  -23.4220  -30.4050   21.5770 C   0  0  0  0  0  3  0  0  0  0  0  0
  -24.9060  -28.8950   20.1480 C   0  0  0  0  0  0  0  0  0  0  0  0
  -25.9440  -30.7950   21.3980 C   0  0  0  0  0  2  0  0  0  0  0  0
  -26.0520  -29.4330   20.7450 C   0  0  0  0  0  0  0  0  0  0  0  0
  -27.2670  -28.7120   20.7350 C   0  0  0  0  0  3  0  0  0  0  0  0
  -26.1610  -26.8990   19.5420 C   0  0  0  0  0  3  0  0  0  0  0  0
  -24.9540  -27.6260   19.5420 C   0  0  0  0  0  3  0  0  0  0  0  0
  -23.6510  -29.7400   20.1900 C   0  0  0  0  0  2  0  0  0  0  0  0
  -24.6740  -31.0120   22.1320 N   0  0  0  0  0  0  0  0  0  0  0  0
  -23.5150  -32.0560   23.7770 O   0  0  0  0  0  0  0  0  0  0  0  0
  -22.7730  -29.3690   22.5190 C   0  0  0  0  0  0  0  0  0  0  0  0
  -21.4540  -29.1640   22.3650 N   0  0  0  0  0  0  0  0  0  0  0  0
  -23.4530  -28.7500   23.3420 O   0  0  0  0  0  0  0  0  0  0  0  0
  -20.9640  -29.7220   21.6780 H   0  0  0  0  0  0  0  0  0  0  0  0
  -18.1020  -27.8880   22.7800 C   0  0  0  0  0  0  0  0  0  0  0  0
  -20.6440  -28.2050   23.1140 C   0  0  0  0  0  3  0  0  0  0  0  0
  -20.7940  -26.7760   22.5360 C   0  0  0  0  0  2  0  0  0  0  0  0
  -19.7220  -26.4270   21.5000 C   0  0  0  0  0  2  0  0  0  0  0  0
  -18.3250  -26.5410   22.1140 C   0  0  0  0  0  2  0  0  0  0  0  0
  -19.1910  -28.6750   23.2370 C   0  0  0  0  0  0  0  0  0  0  0  0
  -18.9310  -29.9330   23.8220 C   0  0  0  0  0  3  0  0  0  0  0  0
  -17.6120  -30.4070   23.9550 C   0  0  0  0  0  3  0  0  0  0  0  0
  -16.5360  -29.6180   23.5130 C   0  0  0  0  0  3  0  0  0  0  0  0
  -16.7820  -28.3620   22.9320 C   0  0  0  0  0  3  0  0  0  0  0  0
  -25.8770  -32.4360   23.8820 C   0  0  0  0  0  3  0  0  0  0  0  0
  -26.3880  -31.6590   25.1570 C   0  0  1  0  0  0  0  0  0  0  0  0
  -25.2870  -31.4040   26.2130 C   0  0  0  0  0  1  0  0  0  0  0  0
  -26.9870  -30.2900   24.7590 C   0  0  0  0  0  1  0  0  0  0  0  0
  -27.5230  -32.4590   25.8380 C   0  0  0  0  0  1  0  0  0  0  0  0
  -25.5540  -33.8280   24.2160 N   0  0  0  0  0  0  0  0  0  0  0  0
  -25.8930  -34.8870   23.4690 C   0  0  0  0  0  0  0  0  0  0  0  0
  -26.5800  -34.7930   22.4480 O   0  0  0  0  0  0  0  0  0  0  0  0
  -24.9440  -33.9770   25.0060 H   0  0  0  0  0  0  0  0  0  0  0  0
  -24.1630  -36.6750   23.0890 C   0  0  0  0  0  1  0  0  0  0  0  0
  -25.3890  -36.2700   23.9250 C   0  0  0  0  0  3  0  0  0  0  0  0
  -27.5020  -37.1570   24.8080 C   0  0  0  0  0  1  0  0  0  0  0  0
  -26.4190  -37.3280   23.8420 N   0  0  0  0  0  0  0  0  0  0  0  0
  -26.0060  -38.2460   23.9860 H   0  0  0  0  0  0  0  0  0  0  0  0
  1  2  1  0
  1  5  1  0
  2  4  1  0
  3  1  2  0
  5 10  1  0
  6  8  2  0
  6 10  1  0
  7  9  1  0
  8 11  1  0
 10  7  2  0
 11 20  1  0
 11  9  2  0
 12 20  1  0
 13 18  1  0
 14 15  1  0
 14 13  1  0
 16 15  1  0
 16 25  1  0
 16 17  1  0
 18 12  1  0
 18 17  1  0
 19 12  2  0
 20 21  1  0
 22 23  2  0
 23 42  1  0
 24 23  1  0
 24 27  1  0
 25 26  1  0
 25 22  1  0
 26 24  2  0
 27 28  1  0
 28 29  2  0
 30 33  1  0
 30 29  1  0
 31 30  2  0
 32 31  1  0
 32 27  2  0
 33 34  1  0
 34 39  2  0
 34 35  1  0
 35 36  2  0
 36 37  1  0
 37 41  1  0
 38 37  2  0
 39 38  1  0
 40 39  1  0
 42 43  1  0
 43 46  1  0
 43 45  1  0
 44 42  2  0
 47 22  1  0
 47 48  1  0
 49 47  1  0
 50  2  1  0
 50 51  1  0
 52 51  1  0
 53 64  2  0
 54 52  1  0
 54 59  1  0
 55 63  1  0
 55 65  1  0
 56 62  1  0
 56 58  1  0
 57 63  1  0
 58 57  1  0
 59 58  2  0
 60 54  2  0
 61 60  1  0
 61 56  2  0
 62 55  1  0
 63 53  1  0
 65 67  2  0
 66 65  1  0
 68 66  1  0
 69 78  2  0
 69 74  1  0
 70 66  1  0
 70 74  1  0
 71 70  1  0
 72 73  1  0
 72 71  1  0
 73 69  1  0
 74 75  2  0
 75 76  1  0
 77 76  2  0
 78 77  1  0
 79 53  1  0
 79 84  1  0
 79 80  1  0
 80 83  1  1
 80 81  1  0
 82 80  1  0
 84 87  1  0
 85 89  1  0
 85 84  1  0
 86 85  2  0
 89 88  1  0
 91 89  1  0
 91 92  1  0
 91 90  1  0
M  ISO  4  12 100  20 100  51 101  52 101
M  END
>  <TORSDO>  (44) 
F 20

>  <SCORE>  (44) 
-12.890

>  <name>  (44) 
43

>  <ligand_id>  (44) 
43

>  <original_smiles>  (44) 
[H]c1c([H])c([H])c2c(c1[H])C([H])([H])C([H])([H])C([H])([H])C2([H])N([H])C(=O)C1([H])N(C(=O)C([H])(N([H])C(=O)C([H])(N([H])C([H])([H])[H])C([H])([H])[H])C(C([H])([H])[H])(C([H])([H])[H])C([H])([H])[H])C([H])([H])c2c([H])c(OC([H])([H])C([H])([H])N([H])C(=O)C([H])([H])c3c([H])c([H])c(N([H])C(=O)N4C([H])([H])C([H])([H])C([H])([H])C([H])(n5nc(-c6c([H])c([H])c(Oc7c([H])c([H])c(F)c([H])c7F)c([H])c6[H])c(C(=O)N([H])[H])c5N([H])[H])C4([H])[H])c([H])c3[H])c([H])c([H])c2C1([H])[H]

>  <smiles>  (44) 
[H]c1c([H])c([H])c2c(c1[H])C([H])([H])C([H])([H])C([H])([H])C2([H])N([H])C(=O)C1([H])N(C(=O)C([H])(N([H])C(=O)C([H])(N([H])C([H])([H])[H])C([H])([H])[H])C(C([H])([H])[H])(C([H])([H])[H])C([H])([H])[H])C([H])([H])c2c([H])c(OC([H])([H])C([H])([H])N([H])C(=O)C([H])([H])c3c([H])c([H])c(N([H])C(=O)N4C([H])([H])C([H])([H])C([H])([H])C([H])(n5nc(-c6c([H])c([H])c(Oc7c([H])c([H])c(F)c([H])c7F)c([H])c6[H])c(C(=O)N([H])[H])c5N([H])[H])C4([H])[H])c([H])c3[H])c([H])c([H])c2C1([H])[H]

$$$$
44:0:0
     RDKit          3D

 82 86  0  0  1  0  0  0  0  0999 V2000
  -28.2030  -25.2140   20.1870 O   0  0  0  0  0  1  0  0  0  0  0  0
  -24.6590  -31.8230   23.1160 C   0  0  0  0  0  0  0  0  0  0  0  0
  -27.2270  -26.5180   20.2190 C   0  0  0  0  0  0  0  0  0  0  0  0
  -23.5030  -30.4040   21.4840 C   0  0  0  0  0  3  0  0  0  0  0  0
  -24.9680  -28.6960   20.1210 C   0  0  0  0  0  0  0  0  0  0  0  0
  -26.0920  -30.4850   21.4080 C   0  0  0  0  0  2  0  0  0  0  0  0
  -26.1660  -29.0180   20.7700 C   0  0  0  0  0  0  0  0  0  0  0  0
  -27.2690  -27.9690   20.7710 C   0  0  0  0  0  3  0  0  0  0  0  0
  -25.9850  -26.4690   19.5130 C   0  0  0  0  0  3  0  0  0  0  0  0
  -24.9320  -27.4500   19.4670 C   0  0  0  0  0  3  0  0  0  0  0  0
  -23.7680  -29.6710   20.1330 C   0  0  0  0  0  2  0  0  0  0  0  0
  -24.7790  -30.9440   22.0540 N   0  0  0  0  0  0  0  0  0  0  0  0
  -23.5550  -32.1300   23.6020 O   0  0  0  0  0  0  0  0  0  0  0  0
  -22.7610  -29.4600   22.4680 C   0  0  0  0  0  0  0  0  0  0  0  0
  -21.4220  -29.3490   22.3610 N   0  0  0  0  0  0  0  0  0  0  0  0
  -23.4040  -28.8170   23.3000 O   0  0  0  0  0  0  0  0  0  0  0  0
  -20.9470  -29.9240   21.6780 H   0  0  0  0  0  0  0  0  0  0  0  0
  -18.0030  -28.1330   22.8590 C   0  0  0  0  0  0  0  0  0  0  0  0
  -20.5950  -28.3830   23.0970 C   0  0  0  0  0  0  0  0  0  0  0  0
  -20.7720  -26.9760   22.4620 C   0  0  0  0  0  3  0  0  0  0  0  0
  -19.5380  -26.4150   21.7220 C   0  0  0  0  0  3  0  0  0  0  0  0
  -18.0990  -26.8440   22.0560 C   0  0  0  0  0  3  0  0  0  0  0  0
  -19.1450  -28.8670   23.2920 C   0  0  0  0  0  0  0  0  0  0  0  0
  -18.9400  -30.1130   23.9270 C   0  0  0  0  0  3  0  0  0  0  0  0
  -17.6430  -30.6230   24.1300 C   0  0  0  0  0  3  0  0  0  0  0  0
  -16.5250  -29.8800   23.7210 C   0  0  0  0  0  3  0  0  0  0  0  0
  -16.7080  -28.6360   23.0960 C   0  0  0  0  0  3  0  0  0  0  0  0
  -25.9010  -32.4970   23.7720 C   0  0  0  0  0  3  0  0  0  0  0  0
  -25.5540  -33.8960   24.1020 N   0  0  0  0  0  0  0  0  0  0  0  0
  -25.8860  -34.9730   23.3740 C   0  0  0  0  0  0  0  0  0  0  0  0
  -26.5670  -34.8910   22.3500 O   0  0  0  0  0  0  0  0  0  0  0  0
  -24.9460  -34.0310   24.8960 H   0  0  0  0  0  0  0  0  0  0  0  0
  -24.1500  -36.7720   23.0460 C   0  0  0  0  0  1  0  0  0  0  0  0
  -25.3900  -36.3550   23.8530 C   0  0  0  0  0  3  0  0  0  0  0  0
  -27.5120  -37.2520   24.7100 C   0  0  0  0  0  1  0  0  0  0  0  0
  -26.4160  -37.4190   23.7590 N   0  0  0  0  0  0  0  0  0  0  0  0
  -26.0000  -38.3340   23.9110 H   0  0  0  0  0  0  0  0  0  0  0  0
  -26.3860  -31.7540   25.0790 C   0  0  1  0  0  0  0  0  0  0  0  0
  -25.2660  -31.5290   26.1240 C   0  0  0  0  0  1  0  0  0  0  0  0
  -26.9880  -30.3730   24.7440 C   0  0  0  0  0  1  0  0  0  0  0  0
  -27.5140  -32.5680   25.7560 C   0  0  0  0  0  1  0  0  0  0  0  0
  -28.2300  -23.3320   20.4390 C   0  0  0  0  0 15  0  0  0  0  0  0
  -28.7870  -21.3790   19.8640 C   0  0  0  0  0 15  0  0  0  0  0  0
  -29.3980  -19.4400   20.4120 C   0  0  0  0  0  1  0  0  0  0  0  0
  -30.1690  -16.0920   20.0360 C   0  0  0  0  0  0  0  0  0  0  0  0
  -30.3590  -13.4710   19.1990 C   0  0  0  0  0  2  0  0  0  0  0  0
  -29.4770  -12.8700   18.0550 C   0  0  0  0  0  2  0  0  0  0  0  0
  -28.1030  -12.4290   18.5740 C   0  0  0  0  0  2  0  0  0  0  0  0
  -27.5630  -13.4490   19.5940 C   0  0  0  0  0  3  0  0  0  0  0  0
  -28.6020  -13.9210   20.6470 C   0  0  0  0  0  2  0  0  0  0  0  0
  -29.6750  -14.6720   19.9180 N   0  0  0  0  0  0  0  0  0  0  0  0
  -31.4150  -15.9560   19.9590 O   0  0  0  0  0  0  0  0  0  0  0  0
  -29.4220  -17.5600   20.0550 N   0  0  0  0  0  0  0  0  0  0  0  0
  -28.4530  -17.3130   19.9040 H   0  0  0  0  0  0  0  0  0  0  0  0
  -25.2310  -13.9310   20.4500 C   0  0  0  0  0  0  0  0  0  0  0  0
  -24.1900  -13.1380   20.8360 C   0  0  0  0  0  0  0  0  0  0  0  0
  -24.6710  -11.7930   20.7770 C   0  0  0  0  0  0  0  0  0  0  0  0
  -26.2760  -13.0750   20.1660 N   0  0  0  0  0  0  0  0  0  0  0  0
  -25.9570  -11.7790   20.4270 N   0  0  0  0  0  0  0  0  0  0  0  0
  -23.9560  -10.5240   20.9740 C   0  0  0  0  0  0  0  0  0  0  0  0
  -24.4050   -9.5560   21.8990 C   0  0  0  0  0  3  0  0  0  0  0  0
  -23.6830   -8.3560   22.0890 C   0  0  0  0  0  3  0  0  0  0  0  0
  -22.4960   -8.1180   21.3550 C   0  0  0  0  0  0  0  0  0  0  0  0
  -22.0660   -9.0740   20.4200 C   0  0  0  0  0  3  0  0  0  0  0  0
  -22.7890  -10.2650   20.2280 C   0  0  0  0  0  3  0  0  0  0  0  0
  -21.7460   -6.9710   21.4550 O   0  0  0  0  0  0  0  0  0  0  0  0
  -21.7090   -6.2310   22.6100 C   0  0  0  0  0  0  0  0  0  0  0  0
  -21.2840   -6.7860   23.8360 C   0  0  0  0  0  3  0  0  0  0  0  0
  -21.1960   -5.9730   24.9840 C   0  0  0  0  0  3  0  0  0  0  0  0
  -21.5230   -4.6050   24.9060 C   0  0  0  0  0  0  0  0  0  0  0  0
  -21.9420   -4.0500   23.6840 C   0  0  0  0  0  3  0  0  0  0  0  0
  -22.0320   -4.8600   22.5390 C   0  0  0  0  0  0  0  0  0  0  0  0
  -22.4140   -4.3150   21.3590 F   0  0  0  0  0  0  0  0  0  0  0  0
  -21.4320   -3.8220   26.0060 F   0  0  0  0  0  0  0  0  0  0  0  0
  -22.7960  -13.6030   21.1400 C   0  0  0  0  0  0  0  0  0  0  0  0
  -22.0920  -12.8960   22.0160 N   0  0  0  0  0  0  0  0  0  0  0  0
  -22.3430  -14.6300   20.6380 O   0  0  0  0  0  0  0  0  0  0  0  0
  -22.4740  -12.0650   22.4440 H   0  0  0  0  0  0  0  0  0  0  0  0
  -21.1580  -13.1890   22.2630 H   0  0  0  0  0  0  0  0  0  0  0  0
  -25.3710  -15.3060   20.2780 N   0  0  0  0  0  0  0  0  0  0  0  0
  -24.5980  -15.9490   20.4140 H   0  0  0  0  0  0  0  0  0  0  0  0
  -26.2020  -15.7550   19.9170 H   0  0  0  0  0  0  0  0  0  0  0  0
  1  3  1  0
  2 13  2  0
  3  8  1  0
  4 12  1  0
  4 14  1  0
  5 11  1  0
  5  7  1  0
  6 12  1  0
  7  8  2  0
  7  6  1  0
  9  3  2  0
 10  9  1  0
 10  5  2  0
 11  4  1  0
 12  2  1  0
 14 16  2  0
 15 14  1  0
 15 19  1  0
 17 15  1  0
 18 27  2  0
 18 23  1  0
 19 23  1  0
 20 19  2  0
 21 22  2  0
 21 20  1  0
 22 18  1  0
 23 24  2  0
 24 25  1  0
 26 25  2  0
 27 26  1  0
 28  2  1  0
 28 29  1  0
 28 38  1  0
 29 32  1  0
 30 34  1  0
 30 29  1  0
 31 30  2  0
 34 33  1  0
 36 34  1  0
 36 37  1  0
 36 35  1  0
 38 41  1  1
 38 39  1  0
 40 38  1  0
 45 53  1  0
 46 51  1  0
 47 48  1  0
 47 46  1  0
 49 48  1  0
 49 58  1  0
 49 50  1  0
 51 45  1  0
 51 50  1  0
 52 45  2  0
 53 44  1  0
 54 53  1  0
 55 56  2  0
 56 75  1  0
 57 56  1  0
 57 60  1  0
 58 59  1  0
 58 55  1  0
 59 57  2  0
 60 61  1  0
 61 62  2  0
 63 66  1  0
 63 62  1  0
 64 63  2  0
 65 64  1  0
 65 60  2  0
 66 67  1  0
 67 68  1  0
 68 69  2  0
 70 69  1  0
 70 74  1  0
 71 70  2  0
 72 67  2  0
 72 71  1  0
 73 72  1  0
 75 76  1  0
 76 79  1  0
 76 78  1  0
 77 75  2  0
 80 81  1  0
 80 55  1  0
 82 80  1  0
M  ISO  4   1 101  42 101  45 100  53 100
M  END
>  <TORSDO>  (45) 
F 18

>  <SCORE>  (45) 
-16.165

>  <name>  (45) 
44

>  <ligand_id>  (45) 
44

>  <original_smiles>  (45) 
[H]c1c([H])c([H])c2c(c1[H])C([H])([H])C([H])([H])C([H])([H])C2([H])N([H])C(=O)C1([H])N(C(=O)C([H])(N([H])C(=O)C([H])(N([H])C([H])([H])[H])C([H])([H])[H])C(C([H])([H])[H])(C([H])([H])[H])C([H])([H])[H])C([H])([H])c2c([H])c(OC([H])([H])C([H])([H])C([H])([H])N([H])C(=O)N3C([H])([H])C([H])([H])C([H])([H])C([H])(n4nc(-c5c([H])c([H])c(Oc6c([H])c([H])c(F)c([H])c6F)c([H])c5[H])c(C(=O)N([H])[H])c4N([H])[H])C3([H])[H])c([H])c([H])c2C1([H])[H]

>  <smiles>  (45) 
[H]c1c([H])c([H])c2c(c1[H])C([H])([H])C([H])([H])C([H])([H])C2([H])N([H])C(=O)C1([H])N(C(=O)C([H])(N([H])C(=O)C([H])(N([H])C([H])([H])[H])C([H])([H])[H])C(C([H])([H])[H])(C([H])([H])[H])C([H])([H])[H])C([H])([H])c2c([H])c(OC([H])([H])C([H])([H])C([H])([H])N([H])C(=O)N3C([H])([H])C([H])([H])C([H])([H])C([H])(n4nc(-c5c([H])c([H])c(Oc6c([H])c([H])c(F)c([H])c6F)c([H])c5[H])c(C(=O)N([H])[H])c4N([H])[H])C3([H])[H])c([H])c([H])c2C1([H])[H]

$$$$
45:0:0
     RDKit          3D

 90 97  0  0  1  0  0  0  0  0999 V2000
  -29.2770  -21.3600   19.7310 C   0  0  0  0  0  3  0  0  0  0  0  0
  -30.3560  -20.3430   21.7080 C   0  0  0  0  0  0  0  0  0  0  0  0
  -29.5890  -20.1540   20.6020 N   0  0  0  0  0  0  0  0  0  0  0  0
  -31.0500  -21.3550   21.8570 O   0  0  0  0  0  0  0  0  0  0  0  0
  -29.0780  -18.7690   20.2490 C   0  0  0  0  0  2  0  0  0  0  0  0
  -30.1210  -17.5670   20.0280 C   0  0  0  0  0  3  0  0  0  0  0  0
  -29.7080  -16.1160   20.5590 C   0  0  0  0  0  3  0  0  0  0  0  0
  -30.5290  -14.8410   20.0900 C   0  0  0  0  0  0  0  0  0  0  0  0
  -30.3760  -12.5450   19.1270 C   0  0  0  0  0  2  0  0  0  0  0  0
  -29.3830  -12.5780   17.9440 C   0  0  0  0  0  2  0  0  0  0  0  0
  -27.9350  -12.3770   18.4350 C   0  0  0  0  0  2  0  0  0  0  0  0
  -27.5870  -13.2870   19.6420 C   0  0  0  0  0  3  0  0  0  0  0  0
  -28.6890  -13.2350   20.7220 C   0  0  0  0  0  2  0  0  0  0  0  0
  -29.9630  -13.5910   20.0850 N   0  0  0  0  0  0  0  0  0  0  0  0
  -31.6560  -15.0130   19.6180 O   0  0  0  0  0  0  0  0  0  0  0  0
  -25.2380  -13.8470   20.5220 C   0  0  0  0  0  0  0  0  0  0  0  0
  -24.1950  -13.0540   20.9190 C   0  0  0  0  0  0  0  0  0  0  0  0
  -24.6580  -11.7070   20.8070 C   0  0  0  0  0  0  0  0  0  0  0  0
  -26.2690  -12.9810   20.1920 N   0  0  0  0  0  0  0  0  0  0  0  0
  -25.9290  -11.6870   20.4240 N   0  0  0  0  0  0  0  0  0  0  0  0
  -23.9480  -10.4340   20.9860 C   0  0  0  0  0  0  0  0  0  0  0  0
  -24.3850   -9.4690   21.9190 C   0  0  0  0  0  3  0  0  0  0  0  0
  -23.6750   -8.2600   22.0860 C   0  0  0  0  0  3  0  0  0  0  0  0
  -22.5120   -8.0100   21.3190 C   0  0  0  0  0  0  0  0  0  0  0  0
  -22.0940   -8.9640   20.3750 C   0  0  0  0  0  3  0  0  0  0  0  0
  -22.8050  -10.1640   20.2070 C   0  0  0  0  0  3  0  0  0  0  0  0
  -21.7730   -6.8540   21.3950 O   0  0  0  0  0  0  0  0  0  0  0  0
  -21.6650   -6.1440   22.5640 C   0  0  0  0  0  0  0  0  0  0  0  0
  -21.1310   -6.7170   23.7380 C   0  0  0  0  0  3  0  0  0  0  0  0
  -20.9760   -5.9310   24.8970 C   0  0  0  0  0  3  0  0  0  0  0  0
  -21.3420   -4.5730   24.8830 C   0  0  0  0  0  0  0  0  0  0  0  0
  -21.8690   -3.9970   23.7130 C   0  0  0  0  0  3  0  0  0  0  0  0
  -22.0270   -4.7810   22.5550 C   0  0  0  0  0  0  0  0  0  0  0  0
  -22.5150   -4.2180   21.4240 F   0  0  0  0  0  0  0  0  0  0  0  0
  -21.1850   -3.8150   25.9930 F   0  0  0  0  0  0  0  0  0  0  0  0
  -22.8150  -13.5120   21.2910 C   0  0  0  0  0  0  0  0  0  0  0  0
  -22.1430  -12.7830   22.1740 N   0  0  0  0  0  0  0  0  0  0  0  0
  -22.3410  -14.5510   20.8310 O   0  0  0  0  0  0  0  0  0  0  0  0
  -22.5390  -11.9420   22.5660 H   0  0  0  0  0  0  0  0  0  0  0  0
  -21.2190  -13.0700   22.4640 H   0  0  0  0  0  0  0  0  0  0  0  0
  -25.3910  -15.2230   20.3930 N   0  0  0  0  0  0  0  0  0  0  0  0
  -24.6360  -15.8740   20.5770 H   0  0  0  0  0  0  0  0  0  0  0  0
  -26.2240  -15.6760   20.0380 H   0  0  0  0  0  0  0  0  0  0  0  0
  -30.3030  -19.3140   22.8570 C   0  0  0  0  0  2  0  0  0  0  0  0
  -30.1740  -18.9570   25.3870 C   0  0  0  0  0  1  0  0  0  0  0  0
  -30.5660  -19.9140   24.2530 C   0  0  0  0  0  2  0  0  0  0  0  0
  -28.6590  -22.6710   20.4240 C   0  0  0  0  0  3  0  0  0  0  0  0
  -28.6180  -24.0530   19.6200 C   0  0  0  0  0  3  0  0  0  0  0  0
  -27.9850  -25.3180   20.3570 C   0  0  0  0  0  3  0  0  0  0  0  0
  -28.0780  -26.6620   19.7460 O   0  0  0  0  0  0  0  0  0  0  0  0
  -24.5370  -31.9410   23.1700 C   0  0  0  0  0  0  0  0  0  0  0  0
  -26.9590  -27.4950   19.8320 C   0  0  0  0  0  0  0  0  0  0  0  0
  -23.2360  -30.6010   21.5540 C   0  0  0  0  0  3  0  0  0  0  0  0
  -24.5990  -29.0910   20.0020 C   0  0  0  0  0  0  0  0  0  0  0  0
  -25.7590  -30.9260   21.2350 C   0  0  0  0  0  2  0  0  0  0  0  0
  -25.7990  -29.5690   20.5450 C   0  0  0  0  0  0  0  0  0  0  0  0
  -26.9850  -28.7840   20.4460 C   0  0  0  0  0  3  0  0  0  0  0  0
  -25.7380  -27.0630   19.2730 C   0  0  0  0  0  3  0  0  0  0  0  0
  -24.5680  -27.8440   19.3570 C   0  0  0  0  0  3  0  0  0  0  0  0
  -23.3690  -29.9650   20.1440 C   0  0  0  0  0  2  0  0  0  0  0  0
  -24.5330  -31.1710   22.0430 N   0  0  0  0  0  0  0  0  0  0  0  0
  -23.4860  -32.2040   23.7740 O   0  0  0  0  0  0  0  0  0  0  0  0
  -22.6230  -29.5560   22.5160 C   0  0  0  0  0  0  0  0  0  0  0  0
  -21.2990  -29.3470   22.4180 N   0  0  0  0  0  0  0  0  0  0  0  0
  -23.3360  -28.9360   23.3090 O   0  0  0  0  0  0  0  0  0  0  0  0
  -20.7810  -29.9010   21.7500 H   0  0  0  0  0  0  0  0  0  0  0  0
  -17.9730  -28.0280   22.9430 C   0  0  0  0  0  0  0  0  0  0  0  0
  -20.5210  -28.3800   23.1940 C   0  0  0  0  0  3  0  0  0  0  0  0
  -20.6710  -26.9530   22.6150 C   0  0  0  0  0  2  0  0  0  0  0  0
  -19.5730  -26.5920   21.6100 C   0  0  0  0  0  2  0  0  0  0  0  0
  -18.1930  -26.6870   22.2640 C   0  0  0  0  0  2  0  0  0  0  0  0
  -19.0670  -28.8300   23.3640 C   0  0  0  0  0  0  0  0  0  0  0  0
  -18.8070  -30.0850   23.9580 C   0  0  0  0  0  3  0  0  0  0  0  0
  -17.4860  -30.5380   24.1350 C   0  0  0  0  0  3  0  0  0  0  0  0
  -16.4070  -29.7340   23.7300 C   0  0  0  0  0  3  0  0  0  0  0  0
  -16.6510  -28.4800   23.1390 C   0  0  0  0  0  3  0  0  0  0  0  0
  -25.8570  -32.5470   23.7400 C   0  0  0  0  0  3  0  0  0  0  0  0
  -26.4260  -31.7440   24.9750 C   0  0  1  0  0  0  0  0  0  0  0  0
  -25.3840  -31.4970   26.0910 C   0  0  0  0  0  1  0  0  0  0  0  0
  -26.9720  -30.3680   24.5280 C   0  0  0  0  0  1  0  0  0  0  0  0
  -27.6170  -32.5120   25.5940 C   0  0  0  0  0  1  0  0  0  0  0  0
  -25.5790  -33.9420   24.1130 N   0  0  0  0  0  0  0  0  0  0  0  0
  -25.8970  -35.0060   23.3650 C   0  0  0  0  0  0  0  0  0  0  0  0
  -26.5230  -34.9160   22.3060 O   0  0  0  0  0  0  0  0  0  0  0  0
  -25.0180  -34.0850   24.9400 H   0  0  0  0  0  0  0  0  0  0  0  0
  -24.1840  -36.8330   23.1190 C   0  0  0  0  0  1  0  0  0  0  0  0
  -25.4480  -36.3910   23.8720 C   0  0  0  0  0  3  0  0  0  0  0  0
  -27.6240  -37.2280   24.6440 C   0  0  0  0  0  1  0  0  0  0  0  0
  -26.4920  -37.4320   23.7440 N   0  0  0  0  0  0  0  0  0  0  0  0
  -26.1060  -38.3540   23.9230 H   0  0  0  0  0  0  0  0  0  0  0  0
  1 47  2  0
  1  3  1  0
  2  4  2  0
  2 44  1  0
  3  2  1  0
  5  3  1  0
  6  5  1  0
  6  7  2  0
  8  7  1  0
  9 14  1  0
 10 11  1  0
 10  9  1  0
 12 11  1  0
 12 19  1  0
 12 13  1  0
 14  8  1  0
 14 13  1  0
 15  8  2  0
 16 17  2  0
 17 36  1  0
 18 17  1  0
 18 21  1  0
 19 20  1  0
 19 16  1  0
 20 18  2  0
 21 22  1  0
 22 23  2  0
 24 27  1  0
 24 23  1  0
 25 24  2  0
 26 25  1  0
 26 21  2  0
 27 28  1  0
 28 29  1  0
 29 30  2  0
 31 30  1  0
 31 35  1  0
 32 31  2  0
 33 28  2  0
 33 32  1  0
 34 33  1  0
 36 37  1  0
 37 40  1  0
 37 39  1  0
 38 36  2  0
 41 16  1  0
 41 42  1  0
 43 41  1  0
 44 46  1  0
 46 45  1  0
 48 49  2  0
 48 47  1  0
 50 52  1  0
 50 49  1  0
 51 62  2  0
 52 57  1  0
 53 61  1  0
 53 63  1  0
 54 60  1  0
 54 56  1  0
 55 61  1  0
 56 55  1  0
 57 56  2  0
 58 59  1  0
 58 52  2  0
 59 54  2  0
 60 53  1  0
 61 51  1  0
 63 65  2  0
 64 63  1  0
 66 64  1  0
 67 76  2  0
 67 72  1  0
 68 64  1  0
 68 72  1  0
 69 68  1  0
 70 71  1  0
 70 69  1  0
 71 67  1  0
 72 73  2  0
 73 74  1  0
 75 74  2  0
 76 75  1  0
 77 51  1  0
 77 82  1  0
 77 78  1  0
 78 81  1  1
 78 79  1  0
 80 78  1  0
 82 85  1  0
 83 87  1  0
 83 82  1  0
 84 83  2  0
 87 86  1  0
 89 87  1  0
 89 90  1  0
 89 88  1  0
M  ISO  4   7 100   8 100  49 101  50 101
M  END
>  <TORSDO>  (46) 
F 25

>  <SCORE>  (46) 
-9.834

>  <name>  (46) 
45

>  <ligand_id>  (46) 
45

>  <original_smiles>  (46) 
[H]c1c([H])c([H])c2c(c1[H])C([H])([H])C([H])([H])C([H])([H])C2([H])N([H])C(=O)C1([H])N(C(=O)C([H])(N([H])C(=O)C([H])(N([H])C([H])([H])[H])C([H])([H])[H])C(C([H])([H])[H])(C([H])([H])[H])C([H])([H])[H])C([H])([H])c2c([H])c(OC([H])([H])C([H])([H])C([H])([H])C([H])([H])N(C(=O)C([H])([H])C([H])([H])C([H])([H])[H])C([H])([H])C([H])([H])C([H])([H])C(=O)N3C([H])([H])C([H])([H])C([H])([H])C([H])(n4nc(-c5c([H])c([H])c(Oc6c([H])c([H])c(F)c([H])c6F)c([H])c5[H])c(C(=O)N([H])[H])c4N([H])[H])C3([H])[H])c([H])c([H])c2C1([H])[H]

>  <smiles>  (46) 
[H]c1c([H])c([H])c2c(c1[H])C([H])([H])C([H])([H])C([H])([H])C2([H])N([H])C(=O)C1([H])N(C(=O)C([H])(N([H])C(=O)C([H])(N([H])C([H])([H])[H])C([H])([H])[H])C(C([H])([H])[H])(C([H])([H])[H])C([H])([H])[H])C([H])([H])c2c([H])c(OC([H])([H])C([H])([H])C([H])([H])C([H])([H])N(C(=O)C([H])([H])C([H])([H])C([H])([H])[H])C([H])([H])C([H])([H])C([H])([H])C(=O)N3C([H])([H])C([H])([H])C([H])([H])C([H])(n4nc(-c5c([H])c([H])c(Oc6c([H])c([H])c(F)c([H])c6F)c([H])c5[H])c(C(=O)N([H])[H])c4N([H])[H])C3([H])[H])c([H])c([H])c2C1([H])[H]

$$$$
46:0:0
     RDKit          3D

 92100  0  0  1  0  0  0  0  0999 V2000
  -31.2670  -22.0400   19.2490 O   0  0  0  0  0  0  0  0  0  0  0  0
  -29.0520  -21.6010   18.1140 O   0  0  0  0  0  0  0  0  0  0  0  0
  -29.8700  -21.5870   19.3370 S   0  0  1  0  0  0  0  0  0  0  0  0
  -28.7140  -17.7010   20.3220 C   0  0  0  0  0  3  0  0  0  0  0  0
  -31.1190  -17.7990   20.5900 C   0  0  0  0  0  3  0  0  0  0  0  0
  -28.6850  -19.0830   20.0010 C   0  0  0  0  0  3  0  0  0  0  0  0
  -31.0850  -19.1940   20.3000 C   0  0  0  0  0  3  0  0  0  0  0  0
  -29.9290  -17.0250   20.5930 C   0  0  0  0  0  0  0  0  0  0  0  0
  -29.8680  -19.8550   19.9940 C   0  0  0  0  0  0  0  0  0  0  0  0
  -30.6490  -14.5920   20.4520 C   0  0  0  0  0  0  0  0  0  0  0  0
  -30.4030  -12.3940   19.3400 C   0  0  0  0  0  2  0  0  0  0  0  0
  -29.4640  -12.5850   18.1290 C   0  0  0  0  0  2  0  0  0  0  0  0
  -27.9880  -12.4340   18.5500 C   0  0  0  0  0  2  0  0  0  0  0  0
  -27.6360  -13.2630   19.8150 C   0  0  0  0  0  3  0  0  0  0  0  0
  -28.6940  -13.0590   20.9260 C   0  0  0  0  0  2  0  0  0  0  0  0
  -30.0150  -13.3820   20.3600 N   0  0  0  0  0  0  0  0  0  0  0  0
  -31.7930  -14.7670   20.0290 O   0  0  0  0  0  0  0  0  0  0  0  0
  -29.8720  -15.6120   20.8970 N   0  0  0  0  0  0  0  0  0  0  0  0
  -28.9750  -15.2890   21.2260 H   0  0  0  0  0  0  0  0  0  0  0  0
  -25.2310  -13.8560   20.5060 C   0  0  0  0  0  0  0  0  0  0  0  0
  -24.1650  -13.0820   20.8740 C   0  0  0  0  0  0  0  0  0  0  0  0
  -24.6310  -11.7320   20.8510 C   0  0  0  0  0  0  0  0  0  0  0  0
  -26.2820  -12.9800   20.2860 N   0  0  0  0  0  0  0  0  0  0  0  0
  -25.9250  -11.6960   20.5500 N   0  0  0  0  0  0  0  0  0  0  0  0
  -23.9090  -10.4680   21.0410 C   0  0  0  0  0  0  0  0  0  0  0  0
  -24.3350   -9.5060   21.9830 C   0  0  0  0  0  3  0  0  0  0  0  0
  -23.6120   -8.3070   22.1600 C   0  0  0  0  0  3  0  0  0  0  0  0
  -22.4480   -8.0610   21.3940 C   0  0  0  0  0  0  0  0  0  0  0  0
  -22.0410   -9.0100   20.4400 C   0  0  0  0  0  3  0  0  0  0  0  0
  -22.7650  -10.2020   20.2610 C   0  0  0  0  0  3  0  0  0  0  0  0
  -21.6980   -6.9120   21.4780 O   0  0  0  0  0  0  0  0  0  0  0  0
  -21.6400   -6.1750   22.6340 C   0  0  0  0  0  0  0  0  0  0  0  0
  -21.1830   -6.7280   23.8490 C   0  0  0  0  0  3  0  0  0  0  0  0
  -21.0730   -5.9160   24.9950 C   0  0  0  0  0  3  0  0  0  0  0  0
  -21.4100   -4.5510   24.9270 C   0  0  0  0  0  0  0  0  0  0  0  0
  -21.8620   -3.9970   23.7170 C   0  0  0  0  0  3  0  0  0  0  0  0
  -21.9730   -4.8070   22.5720 C   0  0  0  0  0  0  0  0  0  0  0  0
  -22.3880   -4.2620   21.4030 F   0  0  0  0  0  0  0  0  0  0  0  0
  -21.3000   -3.7690   26.0260 F   0  0  0  0  0  0  0  0  0  0  0  0
  -22.7640  -13.5560   21.1350 C   0  0  0  0  0  0  0  0  0  0  0  0
  -22.0290  -12.8580   21.9940 N   0  0  0  0  0  0  0  0  0  0  0  0
  -22.3280  -14.5830   20.6150 O   0  0  0  0  0  0  0  0  0  0  0  0
  -22.3920  -12.0270   22.4400 H   0  0  0  0  0  0  0  0  0  0  0  0
  -21.0910  -13.1630   22.2120 H   0  0  0  0  0  0  0  0  0  0  0  0
  -25.3890  -15.2260   20.3190 N   0  0  0  0  0  0  0  0  0  0  0  0
  -24.6100  -15.8700   20.3850 H   0  0  0  0  0  0  0  0  0  0  0  0
  -26.2150  -15.6480   19.9160 H   0  0  0  0  0  0  0  0  0  0  0  0
  -27.7140  -22.3580   20.8670 C   0  0  0  0  0  1  0  0  0  0  0  0
  -29.0780  -22.7170   20.4390 N   0  0  0  0  0  0  0  0  0  0  0  0
  -29.2830  -24.1870   20.1070 C   0  0  0  0  0  3  0  0  0  0  0  0
  -28.2780  -25.2340   20.7180 C   0  0  0  0  0  3  0  0  0  0  0  0
  -28.4400  -26.6220   20.2810 O   0  0  0  0  0  0  0  0  0  0  0  0
  -24.5730  -31.8970   23.2380 C   0  0  0  0  0  0  0  0  0  0  0  0
  -27.2910  -27.4050   20.2370 C   0  0  0  0  0  0  0  0  0  0  0  0
  -23.4100  -30.4860   21.5750 C   0  0  0  0  0  3  0  0  0  0  0  0
  -24.9010  -28.9490   20.1830 C   0  0  0  0  0  0  0  0  0  0  0  0
  -25.9440  -30.8390   21.4360 C   0  0  0  0  0  2  0  0  0  0  0  0
  -26.0480  -29.4630   20.8010 C   0  0  0  0  0  0  0  0  0  0  0  0
  -27.2470  -28.7010   20.8210 C   0  0  0  0  0  3  0  0  0  0  0  0
  -26.1270  -26.9350   19.5870 C   0  0  0  0  0  3  0  0  0  0  0  0
  -24.9390  -27.6870   19.5690 C   0  0  0  0  0  3  0  0  0  0  0  0
  -23.6550  -29.8070   20.2020 C   0  0  0  0  0  2  0  0  0  0  0  0
  -24.6590  -31.0900   22.1410 N   0  0  0  0  0  0  0  0  0  0  0  0
  -23.4780  -32.1670   23.7520 O   0  0  0  0  0  0  0  0  0  0  0  0
  -22.7390  -29.4660   22.5240 C   0  0  0  0  0  0  0  0  0  0  0  0
  -21.4170  -29.2800   22.3720 N   0  0  0  0  0  0  0  0  0  0  0  0
  -23.4060  -28.8430   23.3540 O   0  0  0  0  0  0  0  0  0  0  0  0
  -20.9380  -29.8360   21.6770 H   0  0  0  0  0  0  0  0  0  0  0  0
  -18.0340  -28.0850   22.8130 C   0  0  0  0  0  0  0  0  0  0  0  0
  -20.5870  -28.3410   23.1270 C   0  0  0  0  0  3  0  0  0  0  0  0
  -20.6980  -26.9100   22.5490 C   0  0  0  0  0  2  0  0  0  0  0  0
  -19.6120  -26.5910   21.5170 C   0  0  0  0  0  2  0  0  0  0  0  0
  -18.2190  -26.7360   22.1390 C   0  0  0  0  0  2  0  0  0  0  0  0
  -19.1450  -28.8450   23.2640 C   0  0  0  0  0  0  0  0  0  0  0  0
  -18.9170  -30.1080   23.8520 C   0  0  0  0  0  3  0  0  0  0  0  0
  -17.6090  -30.6090   24.0000 C   0  0  0  0  0  3  0  0  0  0  0  0
  -16.5120  -29.8440   23.5660 C   0  0  0  0  0  3  0  0  0  0  0  0
  -16.7240  -28.5850   22.9780 C   0  0  0  0  0  3  0  0  0  0  0  0
  -25.8420  -32.5370   23.8850 C   0  0  0  0  0  3  0  0  0  0  0  0
  -26.3270  -31.7790   25.1810 C   0  0  1  0  0  0  0  0  0  0  0  0
  -25.2070  -31.5520   26.2250 C   0  0  0  0  0  1  0  0  0  0  0  0
  -26.9180  -30.3980   24.8170 C   0  0  0  0  0  1  0  0  0  0  0  0
  -27.4610  -32.5800   25.8630 C   0  0  0  0  0  1  0  0  0  0  0  0
  -25.5250  -33.9380   24.1900 N   0  0  0  0  0  0  0  0  0  0  0  0
  -25.8770  -34.9810   23.4260 C   0  0  0  0  0  0  0  0  0  0  0  0
  -26.5730  -34.8650   22.4150 O   0  0  0  0  0  0  0  0  0  0  0  0
  -24.9140  -34.1030   24.9770 H   0  0  0  0  0  0  0  0  0  0  0  0
  -24.1700  -36.7760   22.9930 C   0  0  0  0  0  1  0  0  0  0  0  0
  -25.3790  -36.3750   23.8540 C   0  0  0  0  0  3  0  0  0  0  0  0
  -27.4850  -37.2630   24.7540 C   0  0  0  0  0  1  0  0  0  0  0  0
  -26.4190  -37.4240   23.7680 N   0  0  0  0  0  0  0  0  0  0  0  0
  -26.0110  -38.3470   23.8890 H   0  0  0  0  0  0  0  0  0  0  0  0
  1  3  2  0
  2  3  2  0
  3  9  1  0
  3 49  1  1
  4  8  1  0
  5  8  2  0
  6  4  2  0
  7  5  1  0
  8 18  1  0
  9  6  1  0
  9  7  2  0
 10 18  1  0
 11 16  1  0
 12 13  1  0
 12 11  1  0
 14 13  1  0
 14 23  1  0
 14 15  1  0
 16 10  1  0
 16 15  1  0
 17 10  2  0
 18 19  1  0
 20 21  2  0
 21 40  1  0
 22 21  1  0
 22 25  1  0
 23 20  1  0
 23 24  1  0
 24 22  2  0
 25 26  1  0
 26 27  2  0
 28 31  1  0
 28 27  1  0
 29 28  2  0
 30 29  1  0
 30 25  2  0
 31 32  1  0
 32 33  1  0
 33 34  2  0
 35 34  1  0
 35 39  1  0
 36 35  2  0
 37 32  2  0
 37 36  1  0
 38 37  1  0
 40 41  1  0
 41 44  1  0
 41 43  1  0
 42 40  2  0
 45 46  1  0
 45 20  1  0
 47 45  1  0
 49 48  1  0
 50 49  1  0
 50 51  2  0
 52 51  1  0
 53 64  2  0
 54 52  1  0
 54 59  1  0
 55 63  1  0
 55 65  1  0
 56 62  1  0
 56 58  1  0
 57 63  1  0
 58 59  2  0
 58 57  1  0
 60 54  2  0
 61 60  1  0
 61 56  2  0
 62 55  1  0
 63 53  1  0
 65 67  2  0
 66 65  1  0
 68 66  1  0
 69 78  2  0
 69 74  1  0
 70 66  1  0
 70 74  1  0
 71 70  1  0
 72 73  1  0
 72 71  1  0
 73 69  1  0
 74 75  2  0
 75 76  1  0
 77 76  2  0
 78 77  1  0
 79 53  1  0
 79 84  1  0
 79 80  1  0
 80 83  1  1
 80 81  1  0
 82 80  1  0
 84 87  1  0
 85 89  1  0
 85 84  1  0
 86 85  2  0
 89 88  1  0
 91 89  1  0
 91 92  1  0
 91 90  1  0
M  ISO  4  10 100  18 100  51 101  52 101
M  END
>  <TORSDO>  (47) 
F 20

>  <SCORE>  (47) 
-14.127

>  <name>  (47) 
46

>  <ligand_id>  (47) 
46

>  <original_smiles>  (47) 
[H]c1c([H])c([H])c2c(c1[H])C([H])([H])C([H])([H])C([H])([H])C2([H])N([H])C(=O)C1([H])N(C(=O)C([H])(N([H])C(=O)C([H])(N([H])C([H])([H])[H])C([H])([H])[H])C(C([H])([H])[H])(C([H])([H])[H])C([H])([H])[H])C([H])([H])c2c([H])c(OC([H])([H])C([H])([H])N(C([H])([H])[H])S(=O)(=O)c3c([H])c([H])c(N([H])C(=O)N4C([H])([H])C([H])([H])C([H])([H])C([H])(n5nc(-c6c([H])c([H])c(Oc7c([H])c([H])c(F)c([H])c7F)c([H])c6[H])c(C(=O)N([H])[H])c5N([H])[H])C4([H])[H])c([H])c3[H])c([H])c([H])c2C1([H])[H]

>  <smiles>  (47) 
[H]c1c([H])c([H])c2c(c1[H])C([H])([H])C([H])([H])C([H])([H])C2([H])N([H])C(=O)C1([H])N(C(=O)C([H])(N([H])C(=O)C([H])(N([H])C([H])([H])[H])C([H])([H])[H])C(C([H])([H])[H])(C([H])([H])[H])C([H])([H])[H])C([H])([H])c2c([H])c(OC([H])([H])C([H])([H])N(C([H])([H])[H])S(=O)(=O)c3c([H])c([H])c(N([H])C(=O)N4C([H])([H])C([H])([H])C([H])([H])C([H])(n5nc(-c6c([H])c([H])c(Oc7c([H])c([H])c(F)c([H])c7F)c([H])c6[H])c(C(=O)N([H])[H])c5N([H])[H])C4([H])[H])c([H])c3[H])c([H])c([H])c2C1([H])[H]

$$$$
47:0:0
     RDKit          3D

 84 91  0  0  1  0  0  0  0  0999 V2000
  -28.0360  -24.2690   20.5090 C   0  0  0  0  0  2  0  0  0  0  0  0
  -28.2220  -25.8810   20.2090 O   0  0  0  0  0  0  0  0  0  0  0  0
  -24.6160  -31.8370   23.1800 C   0  0  0  0  0  0  0  0  0  0  0  0
  -27.1870  -26.9520   20.2070 C   0  0  0  0  0  0  0  0  0  0  0  0
  -23.4240  -30.4230   21.5540 C   0  0  0  0  0  3  0  0  0  0  0  0
  -24.8760  -28.8110   20.1480 C   0  0  0  0  0  0  0  0  0  0  0  0
  -25.9900  -30.6480   21.3990 C   0  0  0  0  0  2  0  0  0  0  0  0
  -26.0650  -29.2330   20.7580 C   0  0  0  0  0  0  0  0  0  0  0  0
  -27.2180  -28.3250   20.7560 C   0  0  0  0  0  3  0  0  0  0  0  0
  -25.9650  -26.6750   19.5560 C   0  0  0  0  0  3  0  0  0  0  0  0
  -24.8500  -27.5530   19.5260 C   0  0  0  0  0  3  0  0  0  0  0  0
  -23.6540  -29.7270   20.1840 C   0  0  0  0  0  2  0  0  0  0  0  0
  -24.6980  -30.9970   22.0980 N   0  0  0  0  0  0  0  0  0  0  0  0
  -23.5260  -32.1260   23.7010 O   0  0  0  0  0  0  0  0  0  0  0  0
  -22.7360  -29.4330   22.5290 C   0  0  0  0  0  0  0  0  0  0  0  0
  -21.4040  -29.2710   22.4160 N   0  0  0  0  0  0  0  0  0  0  0  0
  -23.4070  -28.8080   23.3540 O   0  0  0  0  0  0  0  0  0  0  0  0
  -20.9170  -29.8260   21.7270 H   0  0  0  0  0  0  0  0  0  0  0  0
  -18.0230  -28.0690   22.9520 C   0  0  0  0  0  0  0  0  0  0  0  0
  -20.5850  -28.3390   23.1970 C   0  0  0  0  0  3  0  0  0  0  0  0
  -20.6840  -26.9040   22.6300 C   0  0  0  0  0  2  0  0  0  0  0  0
  -19.5750  -26.5740   21.6240 C   0  0  0  0  0  2  0  0  0  0  0  0
  -18.1970  -26.7180   22.2770 C   0  0  0  0  0  2  0  0  0  0  0  0
  -19.1440  -28.8370   23.3690 C   0  0  0  0  0  0  0  0  0  0  0  0
  -18.9240  -30.0980   23.9630 C   0  0  0  0  0  3  0  0  0  0  0  0
  -17.6200  -30.5940   24.1420 C   0  0  0  0  0  3  0  0  0  0  0  0
  -16.5140  -29.8250   23.7380 C   0  0  0  0  0  3  0  0  0  0  0  0
  -16.7170  -28.5640   23.1490 C   0  0  0  0  0  3  0  0  0  0  0  0
  -25.8860  -32.4890   23.8060 C   0  0  0  0  0  3  0  0  0  0  0  0
  -26.4090  -31.7230   25.0840 C   0  0  1  0  0  0  0  0  0  0  0  0
  -25.3200  -31.4800   26.1550 C   0  0  0  0  0  1  0  0  0  0  0  0
  -27.0000  -30.3470   24.6990 C   0  0  0  0  0  1  0  0  0  0  0  0
  -27.5570  -32.5240   25.7410 C   0  0  0  0  0  1  0  0  0  0  0  0
  -25.5550  -33.8830   24.1530 N   0  0  0  0  0  0  0  0  0  0  0  0
  -25.8660  -34.9530   23.4100 C   0  0  0  0  0  0  0  0  0  0  0  0
  -26.5250  -34.8730   22.3700 O   0  0  0  0  0  0  0  0  0  0  0  0
  -24.9660  -34.0180   24.9610 H   0  0  0  0  0  0  0  0  0  0  0  0
  -24.1090  -36.7340   23.1180 C   0  0  0  0  0  1  0  0  0  0  0  0
  -25.3720  -36.3320   23.8960 C   0  0  0  0  0  3  0  0  0  0  0  0
  -27.5150  -37.2360   24.6870 C   0  0  0  0  0  1  0  0  0  0  0  0
  -26.3890  -37.4000   23.7720 N   0  0  0  0  0  0  0  0  0  0  0  0
  -25.9750  -38.3130   23.9390 H   0  0  0  0  0  0  0  0  0  0  0  0
  -28.7190  -22.6990   19.9240 C   0  0  0  0  0  2  0  0  0  0  0  0
  -28.9900  -21.2170   20.5850 O   0  0  0  0  0  0  0  0  0  0  0  0
  -29.0780  -19.6810   19.9990 C   0  0  0  0  0  2  0  0  0  0  0  0
  -29.8810  -18.1670   20.5600 C   0  0  0  0  0  2  0  0  0  0  0  0
  -30.3820  -15.2640   20.2540 C   0  0  0  0  0  0  0  0  0  0  0  0
  -30.3490  -12.8260   19.3660 C   0  0  0  0  0  2  0  0  0  0  0  0
  -29.4210  -12.6110   18.1440 C   0  0  0  0  0  2  0  0  0  0  0  0
  -27.9740  -12.3490   18.5940 C   0  0  0  0  0  2  0  0  0  0  0  0
  -27.5290  -13.3180   19.7180 C   0  0  0  0  0  3  0  0  0  0  0  0
  -28.5830  -13.4670   20.8330 C   0  0  0  0  0  2  0  0  0  0  0  0
  -29.8060  -13.9670   20.1860 N   0  0  0  0  0  0  0  0  0  0  0  0
  -31.6080  -15.2630   20.0800 O   0  0  0  0  0  0  0  0  0  0  0  0
  -29.6180  -16.5330   20.3180 N   0  0  0  0  0  0  0  0  0  0  0  0
  -28.6290  -16.3280   20.3210 H   0  0  0  0  0  0  0  0  0  0  0  0
  -25.1610  -13.8840   20.4750 C   0  0  0  0  0  0  0  0  0  0  0  0
  -24.0990  -13.1090   20.8510 C   0  0  0  0  0  0  0  0  0  0  0  0
  -24.5680  -11.7590   20.8280 C   0  0  0  0  0  0  0  0  0  0  0  0
  -26.2030  -13.0060   20.2350 N   0  0  0  0  0  0  0  0  0  0  0  0
  -25.8590  -11.7220   20.5170 N   0  0  0  0  0  0  0  0  0  0  0  0
  -23.8400  -10.4970   21.0260 C   0  0  0  0  0  0  0  0  0  0  0  0
  -24.2820   -9.5240   21.9500 C   0  0  0  0  0  3  0  0  0  0  0  0
  -23.5520   -8.3310   22.1370 C   0  0  0  0  0  3  0  0  0  0  0  0
  -22.3660   -8.1010   21.4000 C   0  0  0  0  0  0  0  0  0  0  0  0
  -21.9430   -9.0620   20.4650 C   0  0  0  0  0  3  0  0  0  0  0  0
  -22.6730  -10.2470   20.2760 C   0  0  0  0  0  3  0  0  0  0  0  0
  -21.6060   -6.9600   21.4960 O   0  0  0  0  0  0  0  0  0  0  0  0
  -21.5890   -6.2020   22.6400 C   0  0  0  0  0  0  0  0  0  0  0  0
  -21.2240   -6.7480   23.8900 C   0  0  0  0  0  3  0  0  0  0  0  0
  -21.1520   -5.9180   25.0260 C   0  0  0  0  0  3  0  0  0  0  0  0
  -21.4340   -4.5440   24.9150 C   0  0  0  0  0  0  0  0  0  0  0  0
  -21.7920   -3.9970   23.6700 C   0  0  0  0  0  3  0  0  0  0  0  0
  -21.8660   -4.8250   22.5350 C   0  0  0  0  0  0  0  0  0  0  0  0
  -22.1910   -4.2890   21.3340 F   0  0  0  0  0  0  0  0  0  0  0  0
  -21.3580   -3.7440   26.0040 F   0  0  0  0  0  0  0  0  0  0  0  0
  -22.7020  -13.5880   21.1150 C   0  0  0  0  0  0  0  0  0  0  0  0
  -21.9740  -12.9020   21.9880 N   0  0  0  0  0  0  0  0  0  0  0  0
  -22.2660  -14.6070   20.5800 O   0  0  0  0  0  0  0  0  0  0  0  0
  -22.3410  -12.0790   22.4420 H   0  0  0  0  0  0  0  0  0  0  0  0
  -21.0360  -13.2060   22.2080 H   0  0  0  0  0  0  0  0  0  0  0  0
  -25.3200  -15.2530   20.2870 N   0  0  0  0  0  0  0  0  0  0  0  0
  -24.5470  -15.9020   20.3920 H   0  0  0  0  0  0  0  0  0  0  0  0
  -26.1550  -15.6900   19.9190 H   0  0  0  0  0  0  0  0  0  0  0  0
  2  1  1  0
  3 14  2  0
  4  2  1  0
  4  9  1  0
  5 13  1  0
  5 15  1  0
  6 12  1  0
  6  8  1  0
  7 13  1  0
  8  7  1  0
  9  8  2  0
 10  4  2  0
 11 10  1  0
 11  6  2  0
 12  5  1  0
 13  3  1  0
 15 17  2  0
 16 15  1  0
 18 16  1  0
 19 28  2  0
 19 24  1  0
 20 16  1  0
 20 24  1  0
 21 20  1  0
 22 23  1  0
 22 21  1  0
 23 19  1  0
 24 25  2  0
 25 26  1  0
 27 26  2  0
 28 27  1  0
 29  3  1  0
 29 34  1  0
 29 30  1  0
 30 33  1  1
 30 31  1  0
 32 30  1  0
 34 37  1  0
 35 39  1  0
 35 34  1  0
 36 35  2  0
 39 38  1  0
 41 39  1  0
 41 42  1  0
 41 40  1  0
 43  1  1  0
 43 44  1  0
 45 46  1  0
 45 44  1  0
 47 55  1  0
 48 53  1  0
 49 50  1  0
 49 48  1  0
 51 50  1  0
 51 60  1  0
 51 52  1  0
 53 47  1  0
 53 52  1  0
 54 47  2  0
 55 56  1  0
 55 46  1  0
 57 58  2  0
 58 77  1  0
 59 58  1  0
 59 62  1  0
 60 57  1  0
 60 61  1  0
 61 59  2  0
 62 63  1  0
 63 64  2  0
 65 68  1  0
 65 64  1  0
 66 65  2  0
 67 66  1  0
 67 62  2  0
 68 69  1  0
 69 70  1  0
 70 71  2  0
 72 71  1  0
 72 76  1  0
 73 72  2  0
 74 69  2  0
 74 73  1  0
 75 74  1  0
 77 78  1  0
 78 81  1  0
 78 80  1  0
 79 77  2  0
 82 83  1  0
 82 57  1  0
 84 82  1  0
M  ISO  4   1 101   2 101  47 100  55 100
M  END
>  <TORSDO>  (48) 
F 20

>  <SCORE>  (48) 
-15.761

>  <name>  (48) 
47

>  <ligand_id>  (48) 
47

>  <original_smiles>  (48) 
[H]c1c([H])c([H])c2c(c1[H])C([H])([H])C([H])([H])C([H])([H])C2([H])N([H])C(=O)C1([H])N(C(=O)C([H])(N([H])C(=O)C([H])(N([H])C([H])([H])[H])C([H])([H])[H])C(C([H])([H])[H])(C([H])([H])[H])C([H])([H])[H])C([H])([H])c2c([H])c(OC([H])([H])C([H])([H])OC([H])([H])C([H])([H])N([H])C(=O)N3C([H])([H])C([H])([H])C([H])([H])C([H])(n4nc(-c5c([H])c([H])c(Oc6c([H])c([H])c(F)c([H])c6F)c([H])c5[H])c(C(=O)N([H])[H])c4N([H])[H])C3([H])[H])c([H])c([H])c2C1([H])[H]

>  <smiles>  (48) 
[H]c1c([H])c([H])c2c(c1[H])C([H])([H])C([H])([H])C([H])([H])C2([H])N([H])C(=O)C1([H])N(C(=O)C([H])(N([H])C(=O)C([H])(N([H])C([H])([H])[H])C([H])([H])[H])C(C([H])([H])[H])(C([H])([H])[H])C([H])([H])[H])C([H])([H])c2c([H])c(OC([H])([H])C([H])([H])OC([H])([H])C([H])([H])N([H])C(=O)N3C([H])([H])C([H])([H])C([H])([H])C([H])(n4nc(-c5c([H])c([H])c(Oc6c([H])c([H])c(F)c([H])c6F)c([H])c5[H])c(C(=O)N([H])[H])c4N([H])[H])C3([H])[H])c([H])c([H])c2C1([H])[H]

$$$$
48:0:0
     RDKit          3D

 89 97  0  0  1  0  0  0  0  0999 V2000
  -28.5670  -22.1610   20.5290 C   0  0  0  0  0  3  0  0  0  0  0  0
  -28.9030  -23.4980   20.1900 C   0  0  0  0  0  3  0  0  0  0  0  0
  -28.1910  -19.6010   20.8350 C   0  0  0  0  0  3  0  0  0  0  0  0
  -30.3230  -20.0580   19.9670 C   0  0  0  0  0  3  0  0  0  0  0  0
  -28.4720  -18.1850   20.8080 C   0  0  0  0  0  3  0  0  0  0  0  0
  -30.6170  -18.6180   19.9410 C   0  0  0  0  0  3  0  0  0  0  0  0
  -29.0820  -20.6440   20.4210 C   0  0  0  0  0  0  0  0  0  0  0  0
  -29.6940  -17.5910   20.3640 C   0  0  0  0  0  0  0  0  0  0  0  0
  -30.6450  -15.0070   19.9720 C   0  0  0  0  0  0  0  0  0  0  0  0
  -30.5160  -12.6980   18.9350 C   0  0  0  0  0  2  0  0  0  0  0  0
  -29.4940  -12.7260   17.7710 C   0  0  0  0  0  2  0  0  0  0  0  0
  -28.0610  -12.4930   18.2870 C   0  0  0  0  0  2  0  0  0  0  0  0
  -27.7400  -13.3530   19.5380 C   0  0  0  0  0  3  0  0  0  0  0  0
  -28.8690  -13.2780   20.5890 C   0  0  0  0  0  2  0  0  0  0  0  0
  -30.1060  -13.7260   19.9300 N   0  0  0  0  0  0  0  0  0  0  0  0
  -31.7920  -15.1750   19.5380 O   0  0  0  0  0  0  0  0  0  0  0  0
  -29.8000  -16.0640   20.3780 N   0  0  0  0  0  0  0  0  0  0  0  0
  -28.9630  -15.6490   20.7580 H   0  0  0  0  0  0  0  0  0  0  0  0
  -25.4090  -13.8990   20.4530 C   0  0  0  0  0  0  0  0  0  0  0  0
  -24.3720  -13.1080   20.8640 C   0  0  0  0  0  0  0  0  0  0  0  0
  -24.8340  -11.7610   20.7460 C   0  0  0  0  0  0  0  0  0  0  0  0
  -26.4340  -13.0340   20.1070 N   0  0  0  0  0  0  0  0  0  0  0  0
  -26.1010  -11.7400   20.3460 N   0  0  0  0  0  0  0  0  0  0  0  0
  -24.1220  -10.4890   20.9350 C   0  0  0  0  0  0  0  0  0  0  0  0
  -24.5490   -9.5380   21.8870 C   0  0  0  0  0  3  0  0  0  0  0  0
  -23.8380   -8.3310   22.0630 C   0  0  0  0  0  3  0  0  0  0  0  0
  -22.6830   -8.0690   21.2890 C   0  0  0  0  0  0  0  0  0  0  0  0
  -22.2750   -9.0100   20.3270 C   0  0  0  0  0  3  0  0  0  0  0  0
  -22.9870  -10.2070   20.1490 C   0  0  0  0  0  3  0  0  0  0  0  0
  -21.9450   -6.9130   21.3730 O   0  0  0  0  0  0  0  0  0  0  0  0
  -21.7970   -6.2390   22.5580 C   0  0  0  0  0  0  0  0  0  0  0  0
  -21.2120   -6.8430   23.6920 C   0  0  0  0  0  3  0  0  0  0  0  0
  -21.0160   -6.0920   24.8680 C   0  0  0  0  0  3  0  0  0  0  0  0
  -21.3930   -4.7370   24.9090 C   0  0  0  0  0  0  0  0  0  0  0  0
  -21.9690   -4.1310   23.7790 C   0  0  0  0  0  3  0  0  0  0  0  0
  -22.1670   -4.8800   22.6060 C   0  0  0  0  0  0  0  0  0  0  0  0
  -22.7030   -4.2860   21.5130 F   0  0  0  0  0  0  0  0  0  0  0  0
  -21.1970   -4.0130   26.0350 F   0  0  0  0  0  0  0  0  0  0  0  0
  -22.9970  -13.5700   21.2500 C   0  0  0  0  0  0  0  0  0  0  0  0
  -22.3270  -12.8350   22.1300 N   0  0  0  0  0  0  0  0  0  0  0  0
  -22.5280  -14.6170   20.8060 O   0  0  0  0  0  0  0  0  0  0  0  0
  -22.7200  -11.9870   22.5100 H   0  0  0  0  0  0  0  0  0  0  0  0
  -21.4080  -13.1270   22.4280 H   0  0  0  0  0  0  0  0  0  0  0  0
  -25.5570  -15.2760   20.3170 N   0  0  0  0  0  0  0  0  0  0  0  0
  -24.7840  -15.9110   20.4800 H   0  0  0  0  0  0  0  0  0  0  0  0
  -26.3500  -15.7270   19.8780 H   0  0  0  0  0  0  0  0  0  0  0  0
  -27.9880  -24.7620   20.5300 C   0  0  0  0  0  0  0  0  0  0  0  0
  -26.9420  -24.5540   21.1490 O   0  0  0  0  0  0  0  0  0  0  0  0
  -28.3110  -26.2140   20.1280 O   0  0  0  0  0  0  0  0  0  0  0  0
  -24.6190  -31.8660   23.1280 C   0  0  0  0  0  0  0  0  0  0  0  0
  -27.2830  -27.2260   20.0840 C   0  0  0  0  0  0  0  0  0  0  0  0
  -23.4560  -30.4800   21.4540 C   0  0  0  0  0  3  0  0  0  0  0  0
  -24.9410  -28.9430   20.0300 C   0  0  0  0  0  0  0  0  0  0  0  0
  -26.0100  -30.7740   21.3320 C   0  0  0  0  0  2  0  0  0  0  0  0
  -26.1070  -29.3910   20.6680 C   0  0  0  0  0  0  0  0  0  0  0  0
  -27.2800  -28.5470   20.6850 C   0  0  0  0  0  3  0  0  0  0  0  0
  -26.0970  -26.8890   19.3930 C   0  0  0  0  0  3  0  0  0  0  0  0
  -24.9480  -27.7030   19.3770 C   0  0  0  0  0  3  0  0  0  0  0  0
  -23.7040  -29.8250   20.0700 C   0  0  0  0  0  2  0  0  0  0  0  0
  -24.7130  -31.0610   22.0260 N   0  0  0  0  0  0  0  0  0  0  0  0
  -23.5230  -32.1350   23.6430 O   0  0  0  0  0  0  0  0  0  0  0  0
  -22.7730  -29.4530   22.3930 C   0  0  0  0  0  0  0  0  0  0  0  0
  -21.4410  -29.3070   22.2780 N   0  0  0  0  0  0  0  0  0  0  0  0
  -23.4450  -28.7930   23.1900 O   0  0  0  0  0  0  0  0  0  0  0  0
  -20.9570  -29.8920   21.6100 H   0  0  0  0  0  0  0  0  0  0  0  0
  -18.0380  -28.1930   22.8340 C   0  0  0  0  0  0  0  0  0  0  0  0
  -20.6120  -28.3630   23.0320 C   0  0  0  0  0  3  0  0  0  0  0  0
  -20.6500  -26.9560   22.3920 C   0  0  0  0  0  2  0  0  0  0  0  0
  -19.5070  -26.7130   21.4000 C   0  0  0  0  0  2  0  0  0  0  0  0
  -18.1510  -26.8720   22.0920 C   0  0  0  0  0  2  0  0  0  0  0  0
  -19.1940  -28.9000   23.2610 C   0  0  0  0  0  0  0  0  0  0  0  0
  -19.0330  -30.1400   23.9180 C   0  0  0  0  0  3  0  0  0  0  0  0
  -17.7490  -30.6700   24.1500 C   0  0  0  0  0  3  0  0  0  0  0  0
  -16.6100  -29.9580   23.7370 C   0  0  0  0  0  3  0  0  0  0  0  0
  -16.7550  -28.7220   23.0850 C   0  0  0  0  0  3  0  0  0  0  0  0
  -25.8830  -32.5050   23.7790 C   0  0  0  0  0  3  0  0  0  0  0  0
  -25.5520  -33.8970   24.1270 N   0  0  0  0  0  0  0  0  0  0  0  0
  -25.8970  -34.9690   23.4010 C   0  0  0  0  0  0  0  0  0  0  0  0
  -26.5930  -34.8910   22.3850 O   0  0  0  0  0  0  0  0  0  0  0  0
  -24.9370  -34.0310   24.9160 H   0  0  0  0  0  0  0  0  0  0  0  0
  -24.1830  -36.7720   23.0260 C   0  0  0  0  0  1  0  0  0  0  0  0
  -25.3910  -36.3450   23.8760 C   0  0  0  0  0  3  0  0  0  0  0  0
  -27.4850  -37.2090   24.8220 C   0  0  0  0  0  1  0  0  0  0  0  0
  -26.4250  -37.4010   23.8350 N   0  0  0  0  0  0  0  0  0  0  0  0
  -26.0120  -38.3170   23.9870 H   0  0  0  0  0  0  0  0  0  0  0  0
  -26.3840  -31.7230   25.0560 C   0  0  1  0  0  0  0  0  0  0  0  0
  -25.2720  -31.4600   26.1000 C   0  0  0  0  0  1  0  0  0  0  0  0
  -26.9890  -30.3560   24.6630 C   0  0  0  0  0  1  0  0  0  0  0  0
  -27.5120  -32.5210   25.7480 C   0  0  0  0  0  1  0  0  0  0  0  0
  2  1  2  0
  2 47  1  0
  4  7  1  0
  5  3  1  0
  6  4  2  0
  6  8  1  0
  7  1  1  0
  7  3  2  0
  8 17  1  0
  8  5  2  0
  9 17  1  0
 10 15  1  0
 11 12  1  0
 11 10  1  0
 13 12  1  0
 13 22  1  0
 13 14  1  0
 15  9  1  0
 15 14  1  0
 16  9  2  0
 17 18  1  0
 19 20  2  0
 20 39  1  0
 21 20  1  0
 21 24  1  0
 22 23  1  0
 22 19  1  0
 23 21  2  0
 24 25  1  0
 25 26  2  0
 27 30  1  0
 27 26  1  0
 28 27  2  0
 29 28  1  0
 29 24  2  0
 30 31  1  0
 31 36  2  0
 31 32  1  0
 32 33  2  0
 33 34  1  0
 34 38  1  0
 35 34  2  0
 36 35  1  0
 37 36  1  0
 39 40  1  0
 40 43  1  0
 40 42  1  0
 41 39  2  0
 44 19  1  0
 44 45  1  0
 46 44  1  0
 47 48  2  0
 49 47  1  0
 50 61  2  0
 51 49  1  0
 51 56  1  0
 52 60  1  0
 52 62  1  0
 53 59  1  0
 53 55  1  0
 54 60  1  0
 55 56  2  0
 55 54  1  0
 57 51  2  0
 58 57  1  0
 58 53  2  0
 59 52  1  0
 60 50  1  0
 62 64  2  0
 63 62  1  0
 65 63  1  0
 66 75  2  0
 66 71  1  0
 67 63  1  0
 67 71  1  0
 68 67  1  0
 69 70  1  0
 69 68  1  0
 70 66  1  0
 71 72  2  0
 72 73  1  0
 74 73  2  0
 75 74  1  0
 76 50  1  0
 76 77  1  0
 76 86  1  0
 77 80  1  0
 78 82  1  0
 78 77  1  0
 79 78  2  0
 82 81  1  0
 84 82  1  0
 84 85  1  0
 84 83  1  0
 86 89  1  1
 86 87  1  0
 88 86  1  0
M  ISO  4   9 100  17 100  47 101  49 101
M  END
>  <TORSDO>  (49) 
F 18

>  <SCORE>  (49) 
-13.871

>  <name>  (49) 
48

>  <ligand_id>  (49) 
48

>  <original_smiles>  (49) 
[H]C(C(=O)Oc1c([H])c([H])c2c(c1[H])C([H])([H])N(C(=O)C([H])(N([H])C(=O)C([H])(N([H])C([H])([H])[H])C([H])([H])[H])C(C([H])([H])[H])(C([H])([H])[H])C([H])([H])[H])C([H])(C(=O)N([H])C1([H])c3c([H])c([H])c([H])c([H])c3C([H])([H])C([H])([H])C1([H])[H])C2([H])[H])=C([H])c1c([H])c([H])c(N([H])C(=O)N2C([H])([H])C([H])([H])C([H])([H])C([H])(n3nc(-c4c([H])c([H])c(Oc5c([H])c([H])c(F)c([H])c5F)c([H])c4[H])c(C(=O)N([H])[H])c3N([H])[H])C2([H])[H])c([H])c1[H]

>  <smiles>  (49) 
[H]C(C(=O)Oc1c([H])c([H])c2c(c1[H])C([H])([H])N(C(=O)C([H])(N([H])C(=O)C([H])(N([H])C([H])([H])[H])C([H])([H])[H])C(C([H])([H])[H])(C([H])([H])[H])C([H])([H])[H])C([H])(C(=O)N([H])C1([H])c3c([H])c([H])c([H])c([H])c3C([H])([H])C([H])([H])C1([H])[H])C2([H])[H])=C([H])c1c([H])c([H])c(N([H])C(=O)N2C([H])([H])C([H])([H])C([H])([H])C([H])(n3nc(-c4c([H])c([H])c(Oc5c([H])c([H])c(F)c([H])c5F)c([H])c4[H])c(C(=O)N([H])[H])c3N([H])[H])C2([H])[H])c([H])c1[H]

$$$$
49:0:0
     RDKit          3D

 86 94  0  0  1  0  0  0  0  0999 V2000
  -26.5990  -21.9870   20.5570 C   0  0  0  0  0  3  0  0  0  0  0  0
  -27.4920  -20.8700   20.4110 C   0  0  0  0  0  3  0  0  0  0  0  0
  -26.9010  -23.3880   20.4480 C   0  0  0  0  0  3  0  0  0  0  0  0
  -29.1150  -22.5910   20.0270 C   0  0  0  0  0  3  0  0  0  0  0  0
  -28.8770  -20.9670   20.1300 C   0  0  0  0  0  0  0  0  0  0  0  0
  -28.1790  -23.9350   20.1660 C   0  0  0  0  0  0  0  0  0  0  0  0
  -28.2790  -25.5900   20.1230 O   0  0  0  0  0  0  0  0  0  0  0  0
  -24.7630  -31.9440   23.2280 C   0  0  0  0  0  0  0  0  0  0  0  0
  -27.3020  -26.8420   20.1480 C   0  0  0  0  0  0  0  0  0  0  0  0
  -23.5790  -30.5650   21.5730 C   0  0  0  0  0  3  0  0  0  0  0  0
  -25.0320  -28.9320   20.1320 C   0  0  0  0  0  0  0  0  0  0  0  0
  -26.1610  -30.6930   21.4570 C   0  0  0  0  0  2  0  0  0  0  0  0
  -26.2280  -29.2590   20.7800 C   0  0  0  0  0  0  0  0  0  0  0  0
  -27.3390  -28.2450   20.7580 C   0  0  0  0  0  3  0  0  0  0  0  0
  -26.0730  -26.7620   19.4350 C   0  0  0  0  0  3  0  0  0  0  0  0
  -24.9980  -27.7100   19.4360 C   0  0  0  0  0  3  0  0  0  0  0  0
  -23.8230  -29.8870   20.1930 C   0  0  0  0  0  2  0  0  0  0  0  0
  -24.8600  -31.1030   22.1390 N   0  0  0  0  0  0  0  0  0  0  0  0
  -23.6680  -32.2320   23.7440 O   0  0  0  0  0  0  0  0  0  0  0  0
  -22.8650  -29.5750   22.5330 C   0  0  0  0  0  0  0  0  0  0  0  0
  -21.5350  -29.4030   22.3990 N   0  0  0  0  0  0  0  0  0  0  0  0
  -23.5210  -28.9560   23.3740 O   0  0  0  0  0  0  0  0  0  0  0  0
  -21.0520  -29.9530   21.7010 H   0  0  0  0  0  0  0  0  0  0  0  0
  -18.1610  -28.1420   22.8970 C   0  0  0  0  0  0  0  0  0  0  0  0
  -20.7180  -28.4460   23.1580 C   0  0  0  0  0  3  0  0  0  0  0  0
  -20.8390  -27.0220   22.5650 C   0  0  0  0  0  2  0  0  0  0  0  0
  -19.7400  -26.6990   21.5470 C   0  0  0  0  0  2  0  0  0  0  0  0
  -18.3580  -26.8090   22.1950 C   0  0  0  0  0  2  0  0  0  0  0  0
  -19.2670  -28.9180   23.3350 C   0  0  0  0  0  0  0  0  0  0  0  0
  -19.0260  -30.1610   23.9580 C   0  0  0  0  0  3  0  0  0  0  0  0
  -17.7120  -30.6310   24.1450 C   0  0  0  0  0  3  0  0  0  0  0  0
  -16.6210  -29.8540   23.7180 C   0  0  0  0  0  3  0  0  0  0  0  0
  -16.8450  -28.6100   23.1020 C   0  0  0  0  0  3  0  0  0  0  0  0
  -26.0210  -32.5950   23.8780 C   0  0  0  0  0  3  0  0  0  0  0  0
  -25.6920  -33.9930   24.2280 N   0  0  0  0  0  0  0  0  0  0  0  0
  -25.9920  -35.0690   23.4880 C   0  0  0  0  0  0  0  0  0  0  0  0
  -26.6300  -34.9900   22.4360 O   0  0  0  0  0  0  0  0  0  0  0  0
  -25.1170  -34.1250   25.0480 H   0  0  0  0  0  0  0  0  0  0  0  0
  -24.2270  -36.8540   23.2530 C   0  0  0  0  0  1  0  0  0  0  0  0
  -25.5140  -36.4490   23.9900 C   0  0  0  0  0  3  0  0  0  0  0  0
  -27.6710  -37.3690   24.7270 C   0  0  0  0  0  1  0  0  0  0  0  0
  -26.5260  -37.5190   23.8330 N   0  0  0  0  0  0  0  0  0  0  0  0
  -26.1130  -38.4330   23.9970 H   0  0  0  0  0  0  0  0  0  0  0  0
  -26.5160  -31.8280   25.1680 C   0  0  1  0  0  0  0  0  0  0  0  0
  -25.4050  -31.5930   26.2190 C   0  0  0  0  0  1  0  0  0  0  0  0
  -27.1080  -30.4500   24.8040 C   0  0  0  0  0  1  0  0  0  0  0  0
  -27.6550  -32.6260   25.8460 C   0  0  0  0  0  1  0  0  0  0  0  0
  -29.8430  -19.3070   20.0050 C   0  0  0  0  0  2  0  0  0  0  0  0
  -30.4500  -16.0790   19.9870 C   0  0  0  0  0  0  0  0  0  0  0  0
  -30.6000  -13.4980   19.1790 C   0  0  0  0  0  2  0  0  0  0  0  0
  -29.6870  -12.9980   18.0180 C   0  0  0  0  0  2  0  0  0  0  0  0
  -28.3040  -12.5850   18.5390 C   0  0  0  0  0  2  0  0  0  0  0  0
  -27.7940  -13.5890   19.5940 C   0  0  0  0  0  3  0  0  0  0  0  0
  -28.8510  -13.9910   20.6540 C   0  0  0  0  0  2  0  0  0  0  0  0
  -29.9570  -14.6810   19.9380 N   0  0  0  0  0  0  0  0  0  0  0  0
  -31.6790  -16.0010   19.7760 O   0  0  0  0  0  0  0  0  0  0  0  0
  -29.6890  -17.4810   20.0810 N   0  0  0  0  0  0  0  0  0  0  0  0
  -28.7130  -17.2610   20.2160 H   0  0  0  0  0  0  0  0  0  0  0  0
  -25.4750  -14.0620   20.5010 C   0  0  0  0  0  0  0  0  0  0  0  0
  -24.4420  -13.2600   20.8920 C   0  0  0  0  0  0  0  0  0  0  0  0
  -24.9200  -11.9170   20.7870 C   0  0  0  0  0  0  0  0  0  0  0  0
  -26.5120  -13.2120   20.1720 N   0  0  0  0  0  0  0  0  0  0  0  0
  -26.1970  -11.9110   20.4090 N   0  0  0  0  0  0  0  0  0  0  0  0
  -24.2090  -10.6440   20.9650 C   0  0  0  0  0  0  0  0  0  0  0  0
  -24.6290   -9.6870   21.9140 C   0  0  0  0  0  3  0  0  0  0  0  0
  -23.9130   -8.4810   22.0820 C   0  0  0  0  0  3  0  0  0  0  0  0
  -22.7620   -8.2240   21.3010 C   0  0  0  0  0  0  0  0  0  0  0  0
  -22.3600   -9.1700   20.3410 C   0  0  0  0  0  3  0  0  0  0  0  0
  -23.0780  -10.3650   20.1710 C   0  0  0  0  0  3  0  0  0  0  0  0
  -22.0190   -7.0700   21.3780 O   0  0  0  0  0  0  0  0  0  0  0  0
  -21.8620   -6.3920   22.5600 C   0  0  0  0  0  0  0  0  0  0  0  0
  -21.2590   -6.9900   23.6880 C   0  0  0  0  0  3  0  0  0  0  0  0
  -21.0540   -6.2360   24.8600 C   0  0  0  0  0  3  0  0  0  0  0  0
  -21.4420   -4.8840   24.9050 C   0  0  0  0  0  0  0  0  0  0  0  0
  -22.0390   -4.2840   23.7810 C   0  0  0  0  0  3  0  0  0  0  0  0
  -22.2440   -5.0360   22.6110 C   0  0  0  0  0  0  0  0  0  0  0  0
  -22.7990   -4.4490   21.5240 F   0  0  0  0  0  0  0  0  0  0  0  0
  -21.2400   -4.1560   26.0280 F   0  0  0  0  0  0  0  0  0  0  0  0
  -23.0560  -13.7160   21.2400 C   0  0  0  0  0  0  0  0  0  0  0  0
  -22.3770  -12.9930   22.1220 N   0  0  0  0  0  0  0  0  0  0  0  0
  -22.5880  -14.7510   20.7680 O   0  0  0  0  0  0  0  0  0  0  0  0
  -22.7710  -12.1560   22.5260 H   0  0  0  0  0  0  0  0  0  0  0  0
  -21.4480  -13.2790   22.3970 H   0  0  0  0  0  0  0  0  0  0  0  0
  -25.6140  -15.4410   20.3640 N   0  0  0  0  0  0  0  0  0  0  0  0
  -24.8430  -16.0790   20.5290 H   0  0  0  0  0  0  0  0  0  0  0  0
  -26.4300  -15.8970   19.9770 H   0  0  0  0  0  0  0  0  0  0  0  0
  2  1  2  0
  3  1  1  0
  4  5  2  0
  4  6  1  0
  5  2  1  0
  6  3  2  0
  7  9  1  0
  7  6  1  0
  8 19  2  0
  9 14  1  0
 10 18  1  0
 10 20  1  0
 11 17  1  0
 11 13  1  0
 12 18  1  0
 13 12  1  0
 14 13  2  0
 15 16  1  0
 15  9  2  0
 16 11  2  0
 17 10  1  0
 18  8  1  0
 20 22  2  0
 21 20  1  0
 23 21  1  0
 24 33  2  0
 24 29  1  0
 25 21  1  0
 25 29  1  0
 26 25  1  0
 27 28  1  0
 27 26  1  0
 28 24  1  0
 29 30  2  0
 30 31  1  0
 32 31  2  0
 33 32  1  0
 34  8  1  0
 34 35  1  0
 34 44  1  0
 35 38  1  0
 36 40  1  0
 36 35  1  0
 37 36  2  0
 40 39  1  0
 42 40  1  0
 42 43  1  0
 42 41  1  0
 44 47  1  1
 44 45  1  0
 46 44  1  0
 48 57  1  0
 48  5  1  0
 49 57  1  0
 50 55  1  0
 51 52  1  0
 51 50  1  0
 53 52  1  0
 53 62  1  0
 53 54  1  0
 55 49  1  0
 55 54  1  0
 56 49  2  0
 57 58  1  0
 59 60  2  0
 60 79  1  0
 61 60  1  0
 61 64  1  0
 62 63  1  0
 62 59  1  0
 63 61  2  0
 64 65  1  0
 65 66  2  0
 67 70  1  0
 67 66  1  0
 68 67  2  0
 69 68  1  0
 69 64  2  0
 70 71  1  0
 71 76  2  0
 71 72  1  0
 72 73  2  0
 73 74  1  0
 74 78  1  0
 75 74  2  0
 76 75  1  0
 77 76  1  0
 79 80  1  0
 80 83  1  0
 80 82  1  0
 81 79  2  0
 84 59  1  0
 84 85  1  0
 86 84  1  0
M  ISO  4   6 101   7 101  49 100  57 100
M  END
>  <TORSDO>  (50) 
F 17

>  <SCORE>  (50) 
-15.190

>  <name>  (50) 
49

>  <ligand_id>  (50) 
49

>  <original_smiles>  (50) 
[H]c1c([H])c(Oc2c([H])c([H])c3c(c2[H])C([H])([H])N(C(=O)C([H])(N([H])C(=O)C([H])(N([H])C([H])([H])[H])C([H])([H])[H])C(C([H])([H])[H])(C([H])([H])[H])C([H])([H])[H])C([H])(C(=O)N([H])C2([H])c4c([H])c([H])c([H])c([H])c4C([H])([H])C([H])([H])C2([H])[H])C3([H])[H])c([H])c(C([H])([H])N([H])C(=O)N2C([H])([H])C([H])([H])C([H])([H])C([H])(n3nc(-c4c([H])c([H])c(Oc5c([H])c([H])c(F)c([H])c5F)c([H])c4[H])c(C(=O)N([H])[H])c3N([H])[H])C2([H])[H])c1[H]

>  <smiles>  (50) 
[H]c1c([H])c(Oc2c([H])c([H])c3c(c2[H])C([H])([H])N(C(=O)C([H])(N([H])C(=O)C([H])(N([H])C([H])([H])[H])C([H])([H])[H])C(C([H])([H])[H])(C([H])([H])[H])C([H])([H])[H])C([H])(C(=O)N([H])C2([H])c4c([H])c([H])c([H])c([H])c4C([H])([H])C([H])([H])C2([H])[H])C3([H])[H])c([H])c(C([H])([H])N([H])C(=O)N2C([H])([H])C([H])([H])C([H])([H])C([H])(n3nc(-c4c([H])c([H])c(Oc5c([H])c([H])c(F)c([H])c5F)c([H])c4[H])c(C(=O)N([H])[H])c3N([H])[H])C2([H])[H])c1[H]

$$$$
50:0:0
     RDKit          3D

 93101  0  0  1  0  0  0  0  0999 V2000
  -28.5940  -20.7300   20.9820 C   0  0  0  0  0  0  0  0  0  0  0  0
  -29.2120  -21.8690   20.5990 N   0  0  0  0  0  0  0  0  0  0  0  0
  -27.4790  -20.7550   21.5110 O   0  0  0  0  0  0  0  0  0  0  0  0
  -30.1140  -21.7810   20.1490 H   0  0  0  0  0  0  0  0  0  0  0  0
  -30.6430  -19.2240   21.2530 C   0  0  0  0  0  3  0  0  0  0  0  0
  -31.2380  -17.9390   21.2860 C   0  0  0  0  0  3  0  0  0  0  0  0
  -29.2150  -16.9720   20.3630 C   0  0  0  0  0  3  0  0  0  0  0  0
  -29.3100  -19.4010   20.8040 C   0  0  0  0  0  0  0  0  0  0  0  0
  -30.5260  -16.7950   20.8530 C   0  0  0  0  0  0  0  0  0  0  0  0
  -28.6150  -18.2540   20.3340 C   0  0  0  0  0  0  0  0  0  0  0  0
  -27.3400  -18.3520   19.8810 F   0  0  0  0  0  0  0  0  0  0  0  0
  -31.3940  -14.6330   20.0800 C   0  0  0  0  0  0  0  0  0  0  0  0
  -30.9540  -12.4790   18.9420 C   0  0  0  0  0  2  0  0  0  0  0  0
  -29.9690  -12.6560   17.7720 C   0  0  0  0  0  2  0  0  0  0  0  0
  -28.5140  -12.5540   18.2660 C   0  0  0  0  0  2  0  0  0  0  0  0
  -28.2440  -13.4440   19.5080 C   0  0  0  0  0  3  0  0  0  0  0  0
  -29.3370  -13.2500   20.5830 C   0  0  0  0  0  2  0  0  0  0  0  0
  -30.6470  -13.4990   19.9620 N   0  0  0  0  0  0  0  0  0  0  0  0
  -32.4180  -14.8270   19.4180 O   0  0  0  0  0  0  0  0  0  0  0  0
  -31.0660  -15.4870   21.0660 N   0  0  0  0  0  0  0  0  0  0  0  0
  -31.8770  -15.5560   21.6640 H   0  0  0  0  0  0  0  0  0  0  0  0
  -25.9140  -14.1320   20.3650 C   0  0  0  0  0  0  0  0  0  0  0  0
  -24.8340  -13.3970   20.7710 C   0  0  0  0  0  0  0  0  0  0  0  0
  -25.2260  -12.0270   20.6630 C   0  0  0  0  0  0  0  0  0  0  0  0
  -26.9040  -13.2140   20.0480 N   0  0  0  0  0  0  0  0  0  0  0  0
  -26.4940  -11.9400   20.2810 N   0  0  0  0  0  0  0  0  0  0  0  0
  -24.4490  -10.7950   20.8440 C   0  0  0  0  0  0  0  0  0  0  0  0
  -24.8040   -9.8340   21.8150 C   0  0  0  0  0  3  0  0  0  0  0  0
  -24.0290   -8.6660   21.9830 C   0  0  0  0  0  3  0  0  0  0  0  0
  -22.8850   -8.4510   21.1780 C   0  0  0  0  0  0  0  0  0  0  0  0
  -22.5500   -9.4010   20.1960 C   0  0  0  0  0  3  0  0  0  0  0  0
  -23.3250  -10.5590   20.0270 C   0  0  0  0  0  3  0  0  0  0  0  0
  -22.0890   -7.3340   21.2520 O   0  0  0  0  0  0  0  0  0  0  0  0
  -21.8480   -6.7000   22.4450 C   0  0  0  0  0  0  0  0  0  0  0  0
  -21.2590   -7.3700   23.5390 C   0  0  0  0  0  3  0  0  0  0  0  0
  -20.9660   -6.6630   24.7230 C   0  0  0  0  0  3  0  0  0  0  0  0
  -21.2500   -5.2860   24.8100 C   0  0  0  0  0  0  0  0  0  0  0  0
  -21.8320   -4.6160   23.7200 C   0  0  0  0  0  3  0  0  0  0  0  0
  -22.1270   -5.3210   22.5390 C   0  0  0  0  0  0  0  0  0  0  0  0
  -22.6670   -4.6660   21.4830 F   0  0  0  0  0  0  0  0  0  0  0  0
  -20.9620   -4.6050   25.9440 F   0  0  0  0  0  0  0  0  0  0  0  0
  -23.4790  -13.9300   21.1390 C   0  0  0  0  0  0  0  0  0  0  0  0
  -22.7760  -13.2500   22.0380 N   0  0  0  0  0  0  0  0  0  0  0  0
  -23.0550  -14.9820   20.6650 O   0  0  0  0  0  0  0  0  0  0  0  0
  -23.1340  -12.3990   22.4470 H   0  0  0  0  0  0  0  0  0  0  0  0
  -21.8690  -13.5890   22.3270 H   0  0  0  0  0  0  0  0  0  0  0  0
  -26.1270  -15.4970   20.2130 N   0  0  0  0  0  0  0  0  0  0  0  0
  -25.3940  -16.1770   20.3850 H   0  0  0  0  0  0  0  0  0  0  0  0
  -26.9540  -15.9100   19.8030 H   0  0  0  0  0  0  0  0  0  0  0  0
  -28.7810  -23.2180   21.0340 C   0  0  0  0  0  2  0  0  0  0  0  0
  -28.9070  -24.3640   19.9910 C   0  0  0  0  0  2  0  0  0  0  0  0
  -28.6040  -25.7510   20.6320 C   0  0  0  0  0  2  0  0  0  0  0  0
  -28.5400  -26.8560   19.7110 O   0  0  0  0  0  0  0  0  0  0  0  0
  -24.5340  -31.7610   23.0030 C   0  0  0  0  0  0  0  0  0  0  0  0
  -27.3580  -27.5620   19.7490 C   0  0  0  0  0  0  0  0  0  0  0  0
  -23.3840  -30.3720   21.3110 C   0  0  0  0  0  3  0  0  0  0  0  0
  -24.9000  -28.9560   19.8240 C   0  0  0  0  0  0  0  0  0  0  0  0
  -25.8890  -30.8540   21.1160 C   0  0  0  0  0  2  0  0  0  0  0  0
  -26.0360  -29.5120   20.4260 C   0  0  0  0  0  0  0  0  0  0  0  0
  -27.2720  -28.8240   20.3850 C   0  0  0  0  0  3  0  0  0  0  0  0
  -26.2080  -27.0190   19.1430 C   0  0  0  0  0  3  0  0  0  0  0  0
  -24.9810  -27.7090   19.1780 C   0  0  0  0  0  3  0  0  0  0  0  0
  -23.6160  -29.7540   19.9050 C   0  0  0  0  0  2  0  0  0  0  0  0
  -24.6200  -31.0090   21.8690 N   0  0  0  0  0  0  0  0  0  0  0  0
  -23.4450  -31.9610   23.5590 O   0  0  0  0  0  0  0  0  0  0  0  0
  -22.7850  -29.2860   22.2350 C   0  0  0  0  0  0  0  0  0  0  0  0
  -21.4640  -29.0670   22.1240 N   0  0  0  0  0  0  0  0  0  0  0  0
  -23.5050  -28.6460   23.0050 O   0  0  0  0  0  0  0  0  0  0  0  0
  -20.9430  -29.6400   21.4740 H   0  0  0  0  0  0  0  0  0  0  0  0
  -18.1320  -27.7760   22.6620 C   0  0  0  0  0  0  0  0  0  0  0  0
  -20.6940  -28.0690   22.8630 C   0  0  0  0  0  3  0  0  0  0  0  0
  -20.8020  -26.6780   22.1970 C   0  0  0  0  0  2  0  0  0  0  0  0
  -19.6710  -26.3960   21.2030 C   0  0  0  0  0  2  0  0  0  0  0  0
  -18.3090  -26.4740   21.9000 C   0  0  0  0  0  2  0  0  0  0  0  0
  -19.2520  -28.5330   23.1010 C   0  0  0  0  0  0  0  0  0  0  0  0
  -19.0310  -29.7550   23.7730 C   0  0  0  0  0  3  0  0  0  0  0  0
  -17.7240  -30.2200   24.0120 C   0  0  0  0  0  3  0  0  0  0  0  0
  -16.6200  -29.4590   23.5890 C   0  0  0  0  0  3  0  0  0  0  0  0
  -16.8250  -28.2390   22.9190 C   0  0  0  0  0  3  0  0  0  0  0  0
  -25.7930  -32.4250   23.6430 C   0  0  0  0  0  3  0  0  0  0  0  0
  -26.3610  -31.6220   24.8770 C   0  0  1  0  0  0  0  0  0  0  0  0
  -25.2880  -31.2590   25.9290 C   0  0  0  0  0  1  0  0  0  0  0  0
  -27.0280  -30.3080   24.4080 C   0  0  0  0  0  1  0  0  0  0  0  0
  -27.4590  -32.4520   25.5810 C   0  0  0  0  0  1  0  0  0  0  0  0
  -25.4200  -33.7900   24.0380 N   0  0  0  0  0  0  0  0  0  0  0  0
  -25.6880  -34.8900   23.3230 C   0  0  0  0  0  0  0  0  0  0  0  0
  -26.3470  -34.8650   22.2790 O   0  0  0  0  0  0  0  0  0  0  0  0
  -24.8310  -33.8780   24.8530 H   0  0  0  0  0  0  0  0  0  0  0  0
  -23.8660  -36.6040   23.0720 C   0  0  0  0  0  1  0  0  0  0  0  0
  -25.1390  -36.2300   23.8470 C   0  0  0  0  0  3  0  0  0  0  0  0
  -27.2370  -37.1880   24.6890 C   0  0  0  0  0  1  0  0  0  0  0  0
  -26.1140  -37.3380   23.7670 N   0  0  0  0  0  0  0  0  0  0  0  0
  -25.6640  -38.2300   23.9580 H   0  0  0  0  0  0  0  0  0  0  0  0
  1  3  2  0
  2  1  1  0
  2 50  1  0
  4  2  1  0
  5  6  1  0
  7  9  1  0
  8  1  1  0
  8  5  2  0
  9 20  1  0
  9  6  2  0
 10  7  2  0
 10  8  1  0
 11 10  1  0
 12 20  1  0
 13 18  1  0
 14 15  1  0
 14 13  1  0
 16 15  1  0
 16 25  1  0
 16 17  1  0
 18 12  1  0
 18 17  1  0
 19 12  2  0
 20 21  1  0
 22 23  2  0
 23 42  1  0
 24 23  1  0
 24 27  1  0
 25 26  1  0
 25 22  1  0
 26 24  2  0
 27 28  1  0
 28 29  2  0
 30 33  1  0
 30 29  1  0
 31 30  2  0
 32 31  1  0
 32 27  2  0
 33 34  1  0
 34 39  2  0
 34 35  1  0
 35 36  2  0
 36 37  1  0
 37 41  1  0
 38 37  2  0
 39 38  1  0
 40 39  1  0
 42 43  1  0
 43 46  1  0
 43 45  1  0
 44 42  2  0
 47 22  1  0
 47 48  1  0
 49 47  1  0
 51 52  1  0
 51 50  1  0
 53 55  1  0
 53 52  1  0
 54 65  2  0
 55 60  1  0
 56 64  1  0
 56 66  1  0
 57 63  1  0
 57 59  1  0
 58 64  1  0
 59 58  1  0
 60 59  2  0
 61 62  1  0
 61 55  2  0
 62 57  2  0
 63 56  1  0
 64 54  1  0
 66 68  2  0
 67 66  1  0
 69 67  1  0
 70 79  2  0
 70 75  1  0
 71 67  1  0
 71 75  1  0
 72 71  1  0
 73 74  1  0
 73 72  1  0
 74 70  1  0
 75 76  2  0
 76 77  1  0
 78 77  2  0
 79 78  1  0
 80 54  1  0
 80 85  1  0
 80 81  1  0
 81 84  1  1
 81 82  1  0
 83 81  1  0
 85 88  1  0
 86 90  1  0
 86 85  1  0
 87 86  2  0
 90 89  1  0
 92 90  1  0
 92 93  1  0
 92 91  1  0
M  ISO  4  12 100  20 100  52 101  53 101
M  END
>  <TORSDO>  (51) 
F 20

>  <SCORE>  (51) 
-12.365

>  <name>  (51) 
50

>  <ligand_id>  (51) 
50

>  <original_smiles>  (51) 
[H]c1c([H])c([H])c2c(c1[H])C([H])([H])C([H])([H])C([H])([H])C2([H])N([H])C(=O)C1([H])N(C(=O)C([H])(N([H])C(=O)C([H])(N([H])C([H])([H])[H])C([H])([H])[H])C(C([H])([H])[H])(C([H])([H])[H])C([H])([H])[H])C([H])([H])c2c([H])c(OC([H])([H])C([H])([H])C([H])([H])N([H])C(=O)c3c([H])c([H])c(N([H])C(=O)N4C([H])([H])C([H])([H])C([H])([H])C([H])(n5nc(-c6c([H])c([H])c(Oc7c([H])c([H])c(F)c([H])c7F)c([H])c6[H])c(C(=O)N([H])[H])c5N([H])[H])C4([H])[H])c([H])c3F)c([H])c([H])c2C1([H])[H]

>  <smiles>  (51) 
[H]c1c([H])c([H])c2c(c1[H])C([H])([H])C([H])([H])C([H])([H])C2([H])N([H])C(=O)C1([H])N(C(=O)C([H])(N([H])C(=O)C([H])(N([H])C([H])([H])[H])C([H])([H])[H])C(C([H])([H])[H])(C([H])([H])[H])C([H])([H])[H])C([H])([H])c2c([H])c(OC([H])([H])C([H])([H])C([H])([H])N([H])C(=O)c3c([H])c([H])c(N([H])C(=O)N4C([H])([H])C([H])([H])C([H])([H])C([H])(n5nc(-c6c([H])c([H])c(Oc7c([H])c([H])c(F)c([H])c7F)c([H])c6[H])c(C(=O)N([H])[H])c5N([H])[H])C4([H])[H])c([H])c3F)c([H])c([H])c2C1([H])[H]

$$$$
51:0:0
     RDKit          3D

 82 89  0  0  1  0  0  0  0  0999 V2000
  -28.1760  -25.6460   20.2760 O   0  0  0  0  0  0  0  0  0  0  0  0
  -24.6830  -31.8660   23.1840 C   0  0  0  0  0  0  0  0  0  0  0  0
  -27.1930  -26.8230   20.2170 C   0  0  0  0  0  0  0  0  0  0  0  0
  -23.4850  -30.4650   21.5560 C   0  0  0  0  0  3  0  0  0  0  0  0
  -24.9230  -28.8150   20.1490 C   0  0  0  0  0  0  0  0  0  0  0  0
  -26.0600  -30.6180   21.4210 C   0  0  0  0  0  2  0  0  0  0  0  0
  -26.1190  -29.1880   20.7740 C   0  0  0  0  0  0  0  0  0  0  0  0
  -27.2420  -28.2180   20.7750 C   0  0  0  0  0  3  0  0  0  0  0  0
  -25.9620  -26.6390   19.5390 C   0  0  0  0  0  3  0  0  0  0  0  0
  -24.8790  -27.5650   19.5080 C   0  0  0  0  0  3  0  0  0  0  0  0
  -23.7160  -29.7620   20.1880 C   0  0  0  0  0  2  0  0  0  0  0  0
  -24.7660  -31.0150   22.1060 N   0  0  0  0  0  0  0  0  0  0  0  0
  -23.5940  -32.1700   23.6980 O   0  0  0  0  0  0  0  0  0  0  0  0
  -22.7730  -29.4900   22.5330 C   0  0  0  0  0  0  0  0  0  0  0  0
  -21.4390  -29.3450   22.4170 N   0  0  0  0  0  0  0  0  0  0  0  0
  -23.4310  -28.8630   23.3670 O   0  0  0  0  0  0  0  0  0  0  0  0
  -20.9590  -29.9010   21.7230 H   0  0  0  0  0  0  0  0  0  0  0  0
  -18.0450  -28.1650   22.9510 C   0  0  0  0  0  0  0  0  0  0  0  0
  -20.6100  -28.4180   23.1970 C   0  0  0  0  0  3  0  0  0  0  0  0
  -20.6970  -26.9820   22.6290 C   0  0  0  0  0  2  0  0  0  0  0  0
  -19.5880  -26.6620   21.6220 C   0  0  0  0  0  2  0  0  0  0  0  0
  -18.2110  -26.8150   22.2740 C   0  0  0  0  0  2  0  0  0  0  0  0
  -19.1710  -28.9250   23.3700 C   0  0  0  0  0  0  0  0  0  0  0  0
  -18.9590  -30.1850   23.9680 C   0  0  0  0  0  3  0  0  0  0  0  0
  -17.6560  -30.6880   24.1490 C   0  0  0  0  0  3  0  0  0  0  0  0
  -16.5470  -29.9270   23.7430 C   0  0  0  0  0  3  0  0  0  0  0  0
  -16.7420  -28.6670   23.1510 C   0  0  0  0  0  3  0  0  0  0  0  0
  -25.9530  -32.5120   23.8160 C   0  0  0  0  0  3  0  0  0  0  0  0
  -26.4660  -31.7420   25.0980 C   0  0  1  0  0  0  0  0  0  0  0  0
  -25.3700  -31.5100   26.1650 C   0  0  0  0  0  1  0  0  0  0  0  0
  -27.0470  -30.3620   24.7200 C   0  0  0  0  0  1  0  0  0  0  0  0
  -27.6160  -32.5360   25.7590 C   0  0  0  0  0  1  0  0  0  0  0  0
  -25.6300  -33.9090   24.1670 N   0  0  0  0  0  0  0  0  0  0  0  0
  -25.9360  -34.9810   23.4250 C   0  0  0  0  0  0  0  0  0  0  0  0
  -26.5780  -34.9000   22.3750 O   0  0  0  0  0  0  0  0  0  0  0  0
  -25.0540  -34.0440   24.9850 H   0  0  0  0  0  0  0  0  0  0  0  0
  -24.1760  -36.7680   23.1750 C   0  0  0  0  0  1  0  0  0  0  0  0
  -25.4570  -36.3630   23.9220 C   0  0  0  0  0  3  0  0  0  0  0  0
  -27.6190  -37.2660   24.6640 C   0  0  0  0  0  1  0  0  0  0  0  0
  -26.4730  -37.4290   23.7730 N   0  0  0  0  0  0  0  0  0  0  0  0
  -26.0640  -38.3430   23.9470 H   0  0  0  0  0  0  0  0  0  0  0  0
  -27.9610  -23.9320   20.2030 C   0  0  0  0  0  3  0  0  0  0  0  0
  -28.9580  -22.3090   20.2870 C   0  0  0  0  0  3  0  0  0  0  0  0
  -28.6930  -20.4210   20.2880 C   0  0  0  0  0  3  0  0  0  0  0  0
  -29.6870  -18.7930   20.2970 C   0  0  0  0  0  3  0  0  0  0  0  0
  -29.4320  -17.0890   20.3700 O   0  0  0  0  0  0  0  0  0  0  0  0
  -30.3760  -15.5680   20.2340 C   0  0  0  0  0  0  0  0  0  0  0  0
  -30.4150  -13.0230   19.4300 C   0  0  0  0  0  2  0  0  0  0  0  0
  -29.5350  -12.7090   18.1890 C   0  0  0  0  0  2  0  0  0  0  0  0
  -28.0940  -12.3800   18.6120 C   0  0  0  0  0  2  0  0  0  0  0  0
  -27.5770  -13.3680   19.6870 C   0  0  0  0  0  3  0  0  0  0  0  0
  -28.5820  -13.6430   20.8230 C   0  0  0  0  0  2  0  0  0  0  0  0
  -29.8050  -14.1770   20.2080 N   0  0  0  0  0  0  0  0  0  0  0  0
  -31.5990  -15.5590   20.0190 O   0  0  0  0  0  0  0  0  0  0  0  0
  -25.2010  -13.8730   20.4230 C   0  0  0  0  0  0  0  0  0  0  0  0
  -24.1510  -13.0800   20.7860 C   0  0  0  0  0  0  0  0  0  0  0  0
  -24.6440  -11.7380   20.7770 C   0  0  0  0  0  0  0  0  0  0  0  0
  -26.2590  -13.0170   20.1930 N   0  0  0  0  0  0  0  0  0  0  0  0
  -25.9400  -11.7260   20.4780 N   0  0  0  0  0  0  0  0  0  0  0  0
  -23.9370  -10.4660   20.9720 C   0  0  0  0  0  0  0  0  0  0  0  0
  -24.3680   -9.5150   21.9250 C   0  0  0  0  0  3  0  0  0  0  0  0
  -23.6540   -8.3110   22.1080 C   0  0  0  0  0  3  0  0  0  0  0  0
  -22.4960   -8.0480   21.3400 C   0  0  0  0  0  0  0  0  0  0  0  0
  -22.0840   -8.9860   20.3760 C   0  0  0  0  0  3  0  0  0  0  0  0
  -22.7980  -10.1810   20.1920 C   0  0  0  0  0  3  0  0  0  0  0  0
  -21.7550   -6.8930   21.4300 O   0  0  0  0  0  0  0  0  0  0  0  0
  -21.6940   -6.1670   22.5930 C   0  0  0  0  0  0  0  0  0  0  0  0
  -21.2400   -6.7340   23.8030 C   0  0  0  0  0  3  0  0  0  0  0  0
  -21.1270   -5.9330   24.9570 C   0  0  0  0  0  3  0  0  0  0  0  0
  -21.4590   -4.5670   24.9020 C   0  0  0  0  0  0  0  0  0  0  0  0
  -21.9060   -3.9990   23.6960 C   0  0  0  0  0  3  0  0  0  0  0  0
  -22.0200   -4.7970   22.5440 C   0  0  0  0  0  0  0  0  0  0  0  0
  -22.4310   -4.2390   21.3800 F   0  0  0  0  0  0  0  0  0  0  0  0
  -21.3440   -3.7950   26.0090 F   0  0  0  0  0  0  0  0  0  0  0  0
  -22.7430  -13.5360   21.0290 C   0  0  0  0  0  0  0  0  0  0  0  0
  -22.0160  -12.8430   21.8980 N   0  0  0  0  0  0  0  0  0  0  0  0
  -22.2970  -14.5440   20.4840 O   0  0  0  0  0  0  0  0  0  0  0  0
  -22.3920  -12.0290   22.3610 H   0  0  0  0  0  0  0  0  0  0  0  0
  -21.0700  -13.1320   22.1040 H   0  0  0  0  0  0  0  0  0  0  0  0
  -25.3440  -15.2460   20.2370 N   0  0  0  0  0  0  0  0  0  0  0  0
  -24.5710  -15.8930   20.3490 H   0  0  0  0  0  0  0  0  0  0  0  0
  -26.2010  -15.6980   19.9430 H   0  0  0  0  0  0  0  0  0  0  0  0
  2 13  2  0
  3  1  1  0
  3  8  1  0
  4 12  1  0
  4 14  1  0
  5 11  1  0
  5  7  1  0
  6 12  1  0
  7  8  2  0
  7  6  1  0
  9  3  2  0
 10  9  1  0
 10  5  2  0
 11  4  1  0
 12  2  1  0
 14 16  2  0
 15 14  1  0
 17 15  1  0
 18 27  2  0
 18 23  1  0
 19 15  1  0
 19 23  1  0
 20 19  1  0
 21 22  1  0
 21 20  1  0
 22 18  1  0
 23 24  2  0
 24 25  1  0
 26 25  2  0
 27 26  1  0
 28  2  1  0
 28 33  1  0
 28 29  1  0
 29 32  1  1
 29 30  1  0
 31 29  1  0
 33 36  1  0
 34 38  1  0
 34 33  1  0
 35 34  2  0
 38 37  1  0
 40 38  1  0
 40 41  1  0
 40 39  1  0
 42  1  1  0
 42 43  2  0
 43 44  1  0
 44 45  2  0
 45 46  1  0
 47 46  1  0
 48 53  1  0
 49 50  1  0
 49 48  1  0
 51 50  1  0
 51 58  1  0
 51 52  1  0
 53 47  1  0
 53 52  1  0
 54 47  2  0
 55 56  2  0
 56 75  1  0
 57 56  1  0
 57 60  1  0
 58 55  1  0
 58 59  1  0
 59 57  2  0
 60 61  1  0
 61 62  2  0
 63 66  1  0
 63 62  1  0
 64 63  2  0
 65 64  1  0
 65 60  2  0
 66 67  1  0
 67 68  1  0
 68 69  2  0
 70 69  1  0
 70 74  1  0
 71 70  2  0
 72 67  2  0
 72 71  1  0
 73 72  1  0
 75 76  1  0
 76 79  1  0
 76 78  1  0
 77 75  2  0
 80 81  1  0
 80 55  1  0
 82 80  1  0
M  ISO  4   1 101  42 101  46 100  47 100
M  END
>  <TORSDO>  (52) 
F 20

>  <SCORE>  (52) 
-16.168

>  <name>  (52) 
51

>  <ligand_id>  (52) 
51

>  <original_smiles>  (52) 
[H]c1c([H])c([H])c2c(c1[H])C([H])([H])C([H])([H])C([H])([H])C2([H])N([H])C(=O)C1([H])N(C(=O)C([H])(N([H])C(=O)C([H])(N([H])C([H])([H])[H])C([H])([H])[H])C(C([H])([H])[H])(C([H])([H])[H])C([H])([H])[H])C([H])([H])c2c([H])c(OC([H])([H])C([H])([H])C([H])([H])C([H])([H])OC(=O)N3C([H])([H])C([H])([H])C([H])([H])C([H])(n4nc(-c5c([H])c([H])c(Oc6c([H])c([H])c(F)c([H])c6F)c([H])c5[H])c(C(=O)N([H])[H])c4N([H])[H])C3([H])[H])c([H])c([H])c2C1([H])[H]

>  <smiles>  (52) 
[H]c1c([H])c([H])c2c(c1[H])C([H])([H])C([H])([H])C([H])([H])C2([H])N([H])C(=O)C1([H])N(C(=O)C([H])(N([H])C(=O)C([H])(N([H])C([H])([H])[H])C([H])([H])[H])C(C([H])([H])[H])(C([H])([H])[H])C([H])([H])[H])C([H])([H])c2c([H])c(OC([H])([H])C([H])([H])C([H])([H])C([H])([H])OC(=O)N3C([H])([H])C([H])([H])C([H])([H])C([H])(n4nc(-c5c([H])c([H])c(Oc6c([H])c([H])c(F)c([H])c6F)c([H])c5[H])c(C(=O)N([H])[H])c4N([H])[H])C3([H])[H])c([H])c([H])c2C1([H])[H]

$$$$
52:0:0
     RDKit          3D

 80 83  0  0  1  0  0  0  0  0999 V2000
  -24.7310  -31.7630   23.0940 C   0  0  0  0  0  0  0  0  0  0  0  0
  -27.2120  -26.2370   20.1170 C   0  0  0  0  0  0  0  0  0  0  0  0
  -23.5510  -30.3570   21.4670 C   0  0  0  0  0  3  0  0  0  0  0  0
  -24.9920  -28.6060   20.0730 C   0  0  0  0  0  0  0  0  0  0  0  0
  -26.1490  -30.3450   21.3880 C   0  0  0  0  0  2  0  0  0  0  0  0
  -26.2020  -28.8580   20.7260 C   0  0  0  0  0  0  0  0  0  0  0  0
  -27.2670  -27.7230   20.7010 C   0  0  0  0  0  3  0  0  0  0  0  0
  -25.9610  -26.3360   19.4020 C   0  0  0  0  0  3  0  0  0  0  0  0
  -24.9430  -27.3750   19.3820 C   0  0  0  0  0  3  0  0  0  0  0  0
  -23.8090  -29.6210   20.1110 C   0  0  0  0  0  2  0  0  0  0  0  0
  -24.8420  -30.8680   22.0340 N   0  0  0  0  0  0  0  0  0  0  0  0
  -23.6300  -32.0840   23.5830 O   0  0  0  0  0  0  0  0  0  0  0  0
  -22.7920  -29.4250   22.4550 C   0  0  0  0  0  0  0  0  0  0  0  0
  -21.4510  -29.3110   22.3500 N   0  0  0  0  0  0  0  0  0  0  0  0
  -23.4310  -28.7940   23.2980 O   0  0  0  0  0  0  0  0  0  0  0  0
  -20.9760  -29.8700   21.6530 H   0  0  0  0  0  0  0  0  0  0  0  0
  -18.0490  -28.1250   22.9140 C   0  0  0  0  0  0  0  0  0  0  0  0
  -20.6170  -28.3820   23.1290 C   0  0  0  0  0  3  0  0  0  0  0  0
  -20.6960  -26.9500   22.5460 C   0  0  0  0  0  2  0  0  0  0  0  0
  -19.5770  -26.6440   21.5450 C   0  0  0  0  0  2  0  0  0  0  0  0
  -18.2080  -26.7870   22.2130 C   0  0  0  0  0  2  0  0  0  0  0  0
  -19.1790  -28.8820   23.3280 C   0  0  0  0  0  0  0  0  0  0  0  0
  -18.9700  -30.1300   23.9550 C   0  0  0  0  0  3  0  0  0  0  0  0
  -17.6680  -30.6230   24.1640 C   0  0  0  0  0  3  0  0  0  0  0  0
  -16.5550  -29.8660   23.7580 C   0  0  0  0  0  3  0  0  0  0  0  0
  -16.7470  -28.6170   23.1410 C   0  0  0  0  0  3  0  0  0  0  0  0
  -25.9740  -32.4410   23.7510 C   0  0  0  0  0  3  0  0  0  0  0  0
  -25.6360  -33.8440   24.0870 N   0  0  0  0  0  0  0  0  0  0  0  0
  -25.9720  -34.9250   23.3680 C   0  0  0  0  0  0  0  0  0  0  0  0
  -26.6420  -34.8470   22.3360 O   0  0  0  0  0  0  0  0  0  0  0  0
  -25.0350  -33.9780   24.8870 H   0  0  0  0  0  0  0  0  0  0  0  0
  -24.2390  -36.7420   23.0930 C   0  0  0  0  0  1  0  0  0  0  0  0
  -25.4980  -36.3120   23.8640 C   0  0  0  0  0  3  0  0  0  0  0  0
  -27.6510  -37.1970   24.6590 C   0  0  0  0  0  1  0  0  0  0  0  0
  -26.5260  -37.3710   23.7430 N   0  0  0  0  0  0  0  0  0  0  0  0
  -26.1210  -38.2880   23.9120 H   0  0  0  0  0  0  0  0  0  0  0  0
  -26.4550  -31.7000   25.0620 C   0  0  1  0  0  0  0  0  0  0  0  0
  -25.3370  -31.4980   26.1140 C   0  0  0  0  0  1  0  0  0  0  0  0
  -27.0360  -30.3080   24.7370 C   0  0  0  0  0  1  0  0  0  0  0  0
  -27.5980  -32.5020   25.7280 C   0  0  0  0  0  1  0  0  0  0  0  0
  -28.1330  -24.7870   20.1310 O   0  0  0  0  0  1  0  0  0  0  0  0
  -28.1340  -22.7360   20.0320 C   0  0  0  0  0 15  0  0  0  0  0  0
  -29.0900  -20.6470   20.0500 C   0  0  0  0  0 15  0  0  0  0  0  0
  -29.0620  -18.5970   20.0550 O   0  0  0  0  0 15  0  0  0  0  0  0
  -30.0510  -16.5410   19.9720 C   0  0  0  0  0  2  0  0  0  0  0  0
  -30.3270  -13.7530   19.2670 C   0  0  0  0  0  2  0  0  0  0  0  0
  -29.5280  -12.9810   18.1470 C   0  0  0  0  0  2  0  0  0  0  0  0
  -28.1890  -12.4510   18.6640 C   0  0  0  0  0  2  0  0  0  0  0  0
  -27.5570  -13.4950   19.6000 C   0  0  0  0  0  3  0  0  0  0  0  0
  -28.5150  -14.1660   20.6400 C   0  0  0  0  0  2  0  0  0  0  0  0
  -29.5650  -14.9820   19.9220 N   0  0  0  0  0  0  0  0  0  0  0  0
  -31.2920  -16.3610   19.8280 O   0  0  0  0  0  1  0  0  0  0  0  0
  -25.2260  -13.9170   20.4480 C   0  0  0  0  0  0  0  0  0  0  0  0
  -24.1960  -13.1110   20.8330 C   0  0  0  0  0  0  0  0  0  0  0  0
  -24.6930  -11.7710   20.7770 C   0  0  0  0  0  0  0  0  0  0  0  0
  -26.2840  -13.0780   20.1710 N   0  0  0  0  0  0  0  0  0  0  0  0
  -25.9810  -11.7720   20.4270 N   0  0  0  0  0  0  0  0  0  0  0  0
  -23.9850  -10.4960   20.9760 C   0  0  0  0  0  0  0  0  0  0  0  0
  -24.4320   -9.5330   21.9070 C   0  0  0  0  0  3  0  0  0  0  0  0
  -23.7140   -8.3330   22.1020 C   0  0  0  0  0  3  0  0  0  0  0  0
  -22.5310   -8.0850   21.3640 C   0  0  0  0  0  0  0  0  0  0  0  0
  -22.1000   -9.0370   20.4240 C   0  0  0  0  0  3  0  0  0  0  0  0
  -22.8200  -10.2290   20.2280 C   0  0  0  0  0  3  0  0  0  0  0  0
  -21.7830   -6.9360   21.4670 O   0  0  0  0  0  0  0  0  0  0  0  0
  -21.7470   -6.2000   22.6240 C   0  0  0  0  0  0  0  0  0  0  0  0
  -21.3430   -6.7630   23.8530 C   0  0  0  0  0  3  0  0  0  0  0  0
  -21.2520   -5.9550   25.0030 C   0  0  0  0  0  3  0  0  0  0  0  0
  -21.5570   -4.5820   24.9260 C   0  0  0  0  0  0  0  0  0  0  0  0
  -21.9550   -4.0180   23.7020 C   0  0  0  0  0  3  0  0  0  0  0  0
  -22.0460   -4.8240   22.5530 C   0  0  0  0  0  0  0  0  0  0  0  0
  -22.4080   -4.2690   21.3710 F   0  0  0  0  0  0  0  0  0  0  0  0
  -21.4640   -3.8030   26.0290 F   0  0  0  0  0  0  0  0  0  0  0  0
  -22.7990  -13.5650   21.1320 C   0  0  0  0  0  0  0  0  0  0  0  0
  -22.1020  -12.8630   22.0170 N   0  0  0  0  0  0  0  0  0  0  0  0
  -22.3380  -14.5840   20.6180 O   0  0  0  0  0  0  0  0  0  0  0  0
  -22.4920  -12.0410   22.4540 H   0  0  0  0  0  0  0  0  0  0  0  0
  -21.1650  -13.1510   22.2610 H   0  0  0  0  0  0  0  0  0  0  0  0
  -25.3500  -15.2920   20.2710 N   0  0  0  0  0  0  0  0  0  0  0  0
  -24.5720  -15.9290   20.4080 H   0  0  0  0  0  0  0  0  0  0  0  0
  -26.1860  -15.7530   19.9340 H   0  0  0  0  0  0  0  0  0  0  0  0
  1 12  2  0
  2 41  1  0
  2  7  1  0
  3 11  1  0
  3 13  1  0
  4 10  1  0
  4  6  1  0
  5 11  1  0
  6  5  1  0
  7  6  2  0
  8  2  2  0
  9  8  1  0
  9  4  2  0
 10  3  1  0
 11  1  1  0
 13 15  2  0
 14 13  1  0
 16 14  1  0
 17 26  2  0
 17 22  1  0
 18 14  1  0
 18 22  1  0
 19 18  1  0
 20 21  1  0
 20 19  1  0
 21 17  1  0
 22 23  2  0
 23 24  1  0
 25 24  2  0
 26 25  1  0
 27  1  1  0
 27 28  1  0
 27 37  1  0
 28 31  1  0
 29 33  1  0
 29 28  1  0
 30 29  2  0
 33 32  1  0
 35 33  1  0
 35 36  1  0
 35 34  1  0
 37 40  1  1
 37 38  1  0
 39 37  1  0
 46 51  1  0
 47 48  1  0
 47 46  1  0
 49 48  1  0
 49 56  1  0
 49 50  1  0
 51 45  1  0
 51 50  1  0
 52 45  1  0
 53 54  2  0
 54 73  1  0
 55 54  1  0
 55 58  1  0
 56 57  1  0
 56 53  1  0
 57 55  2  0
 58 59  1  0
 59 60  2  0
 61 64  1  0
 61 60  1  0
 62 61  2  0
 63 62  1  0
 63 58  2  0
 64 65  1  0
 65 66  1  0
 66 67  2  0
 68 67  1  0
 68 72  1  0
 69 68  2  0
 70 65  2  0
 70 69  1  0
 71 70  1  0
 73 74  1  0
 74 77  1  0
 74 76  1  0
 75 73  2  0
 78 79  1  0
 78 53  1  0
 80 78  1  0
M  ISO  4  41 101  42 101  44 100  45 100
M  END
>  <TORSDO>  (53) 
F 18

>  <SCORE>  (53) 
-16.084

>  <name>  (53) 
52

>  <ligand_id>  (53) 
52

>  <original_smiles>  (53) 
[H]c1c([H])c([H])c2c(c1[H])C([H])([H])C([H])([H])C([H])([H])C2([H])N([H])C(=O)C1([H])N(C(=O)C([H])(N([H])C(=O)C([H])(N([H])C([H])([H])[H])C([H])([H])[H])C(C([H])([H])[H])(C([H])([H])[H])C([H])([H])[H])C([H])([H])c2c([H])c(OC([H])([H])C([H])([H])OC(=O)N3C([H])([H])C([H])([H])C([H])([H])C([H])(n4nc(-c5c([H])c([H])c(Oc6c([H])c([H])c(F)c([H])c6F)c([H])c5[H])c(C(=O)N([H])[H])c4N([H])[H])C3([H])[H])c([H])c([H])c2C1([H])[H]

>  <smiles>  (53) 
[H]c1c([H])c([H])c2c(c1[H])C([H])([H])C([H])([H])C([H])([H])C2([H])N([H])C(=O)C1([H])N(C(=O)C([H])(N([H])C(=O)C([H])(N([H])C([H])([H])[H])C([H])([H])[H])C(C([H])([H])[H])(C([H])([H])[H])C([H])([H])[H])C([H])([H])c2c([H])c(OC([H])([H])C([H])([H])OC(=O)N3C([H])([H])C([H])([H])C([H])([H])C([H])(n4nc(-c5c([H])c([H])c(Oc6c([H])c([H])c(F)c([H])c6F)c([H])c5[H])c(C(=O)N([H])[H])c4N([H])[H])C3([H])[H])c([H])c([H])c2C1([H])[H]

$$$$
53:0:0
     RDKit          3D

 87 94  0  0  1  0  0  0  0  0999 V2000
  -29.2830  -23.9900   20.4120 C   0  0  0  0  0  2  0  0  0  0  0  0
  -28.3520  -25.0490   19.6970 C   0  0  0  0  0  0  0  0  0  0  0  0
  -27.7370  -24.6600   18.7030 O   0  0  0  0  0  0  0  0  0  0  0  0
  -28.3190  -26.4190   20.2060 O   0  0  0  0  0  0  0  0  0  0  0  0
  -24.6250  -31.8730   23.2220 C   0  0  0  0  0  0  0  0  0  0  0  0
  -27.2080  -27.2960   20.1240 C   0  0  0  0  0  0  0  0  0  0  0  0
  -23.4080  -30.4760   21.5920 C   0  0  0  0  0  3  0  0  0  0  0  0
  -24.8470  -28.9390   20.1520 C   0  0  0  0  0  0  0  0  0  0  0  0
  -25.9510  -30.7930   21.3900 C   0  0  0  0  0  2  0  0  0  0  0  0
  -26.0250  -29.4150   20.7380 C   0  0  0  0  0  0  0  0  0  0  0  0
  -27.2050  -28.6040   20.7180 C   0  0  0  0  0  3  0  0  0  0  0  0
  -25.9850  -26.8880   19.5340 C   0  0  0  0  0  3  0  0  0  0  0  0
  -24.8300  -27.6820   19.5430 C   0  0  0  0  0  3  0  0  0  0  0  0
  -23.6110  -29.8060   20.2090 C   0  0  0  0  0  2  0  0  0  0  0  0
  -24.6800  -31.0650   22.1250 N   0  0  0  0  0  0  0  0  0  0  0  0
  -23.5450  -32.1460   23.7650 O   0  0  0  0  0  0  0  0  0  0  0  0
  -22.7560  -29.4540   22.5580 C   0  0  0  0  0  0  0  0  0  0  0  0
  -21.4270  -29.2760   22.4450 N   0  0  0  0  0  0  0  0  0  0  0  0
  -23.4410  -28.8280   23.3710 O   0  0  0  0  0  0  0  0  0  0  0  0
  -20.9320  -29.8320   21.7620 H   0  0  0  0  0  0  0  0  0  0  0  0
  -18.0570  -28.0650   22.9700 C   0  0  0  0  0  0  0  0  0  0  0  0
  -20.6150  -28.3390   23.2250 C   0  0  0  0  0  3  0  0  0  0  0  0
  -20.7200  -26.9030   22.6580 C   0  0  0  0  0  2  0  0  0  0  0  0
  -19.6160  -26.5700   21.6510 C   0  0  0  0  0  2  0  0  0  0  0  0
  -18.2360  -26.7120   22.3010 C   0  0  0  0  0  2  0  0  0  0  0  0
  -19.1730  -28.8350   23.3900 C   0  0  0  0  0  0  0  0  0  0  0  0
  -18.9510  -30.0990   23.9770 C   0  0  0  0  0  3  0  0  0  0  0  0
  -17.6440  -30.5940   24.1460 C   0  0  0  0  0  3  0  0  0  0  0  0
  -16.5420  -29.8210   23.7420 C   0  0  0  0  0  3  0  0  0  0  0  0
  -16.7490  -28.5580   23.1590 C   0  0  0  0  0  3  0  0  0  0  0  0
  -25.9130  -32.5050   23.8320 C   0  0  0  0  0  3  0  0  0  0  0  0
  -26.4500  -31.7260   25.0950 C   0  0  1  0  0  0  0  0  0  0  0  0
  -25.3730  -31.4800   26.1770 C   0  0  0  0  0  1  0  0  0  0  0  0
  -27.0310  -30.3520   24.6890 C   0  0  0  0  0  1  0  0  0  0  0  0
  -27.6090  -32.5190   25.7430 C   0  0  0  0  0  1  0  0  0  0  0  0
  -25.6000  -33.8990   24.1770 N   0  0  0  0  0  0  0  0  0  0  0  0
  -25.9160  -34.9600   23.4220 C   0  0  0  0  0  0  0  0  0  0  0  0
  -26.5690  -34.8670   22.3790 O   0  0  0  0  0  0  0  0  0  0  0  0
  -25.0190  -34.0460   24.9900 H   0  0  0  0  0  0  0  0  0  0  0  0
  -24.1730  -36.7450   23.1140 C   0  0  0  0  0  1  0  0  0  0  0  0
  -25.4310  -36.3420   23.8980 C   0  0  0  0  0  3  0  0  0  0  0  0
  -27.5790  -37.2300   24.6920 C   0  0  0  0  0  1  0  0  0  0  0  0
  -26.4560  -37.4010   23.7730 N   0  0  0  0  0  0  0  0  0  0  0  0
  -26.0490  -38.3190   23.9370 H   0  0  0  0  0  0  0  0  0  0  0  0
  -28.7600  -22.4740   20.5780 C   0  0  0  0  0  2  0  0  0  0  0  0
  -29.6380  -21.2100   20.1230 C   0  0  0  0  0  2  0  0  0  0  0  0
  -29.4390  -19.8040   20.8770 C   0  0  0  0  0  2  0  0  0  0  0  0
  -29.8530  -18.4180   20.1800 C   0  0  0  0  0  2  0  0  0  0  0  0
  -30.1940  -17.1690   21.1220 C   0  0  0  0  0  2  0  0  0  0  0  0
  -30.5940  -14.6710   20.4110 C   0  0  0  0  0  0  0  0  0  0  0  0
  -30.3560  -12.4330   19.3400 C   0  0  0  0  0  2  0  0  0  0  0  0
  -29.4070  -12.5460   18.1270 C   0  0  0  0  0  2  0  0  0  0  0  0
  -27.9350  -12.3920   18.5630 C   0  0  0  0  0  2  0  0  0  0  0  0
  -27.5820  -13.2650   19.7940 C   0  0  0  0  0  3  0  0  0  0  0  0
  -28.6450  -13.1280   20.9070 C   0  0  0  0  0  2  0  0  0  0  0  0
  -29.9480  -13.4650   20.3120 N   0  0  0  0  0  0  0  0  0  0  0  0
  -31.7750  -14.7940   20.0820 O   0  0  0  0  0  0  0  0  0  0  0  0
  -29.8210  -15.7610   20.7190 N   0  0  0  0  0  0  0  0  0  0  0  0
  -28.8480  -15.5330   20.8570 H   0  0  0  0  0  0  0  0  0  0  0  0
  -25.1950  -13.8800   20.5220 C   0  0  0  0  0  0  0  0  0  0  0  0
  -24.1230  -13.1120   20.8940 C   0  0  0  0  0  0  0  0  0  0  0  0
  -24.5790  -11.7590   20.8670 C   0  0  0  0  0  0  0  0  0  0  0  0
  -26.2330  -12.9930   20.2870 N   0  0  0  0  0  0  0  0  0  0  0  0
  -25.8690  -11.7140   20.5600 N   0  0  0  0  0  0  0  0  0  0  0  0
  -23.8470  -10.5010   21.0620 C   0  0  0  0  0  0  0  0  0  0  0  0
  -24.2880   -9.5240   21.9810 C   0  0  0  0  0  3  0  0  0  0  0  0
  -23.5560   -8.3290   22.1620 C   0  0  0  0  0  3  0  0  0  0  0  0
  -22.3680   -8.1080   21.4270 C   0  0  0  0  0  0  0  0  0  0  0  0
  -21.9470   -9.0740   20.4960 C   0  0  0  0  0  3  0  0  0  0  0  0
  -22.6790  -10.2600   20.3130 C   0  0  0  0  0  3  0  0  0  0  0  0
  -21.6060   -6.9680   21.5200 O   0  0  0  0  0  0  0  0  0  0  0  0
  -21.5880   -6.2050   22.6590 C   0  0  0  0  0  0  0  0  0  0  0  0
  -21.2250   -6.7450   23.9120 C   0  0  0  0  0  3  0  0  0  0  0  0
  -21.1530   -5.9100   25.0450 C   0  0  0  0  0  3  0  0  0  0  0  0
  -21.4320   -4.5350   24.9260 C   0  0  0  0  0  0  0  0  0  0  0  0
  -21.7900   -3.9950   23.6780 C   0  0  0  0  0  3  0  0  0  0  0  0
  -21.8640   -4.8260   22.5480 C   0  0  0  0  0  0  0  0  0  0  0  0
  -22.1870   -4.2970   21.3440 F   0  0  0  0  0  0  0  0  0  0  0  0
  -21.3560   -3.7310   26.0120 F   0  0  0  0  0  0  0  0  0  0  0  0
  -22.7290  -13.5990   21.1640 C   0  0  0  0  0  0  0  0  0  0  0  0
  -21.9990  -12.9110   22.0350 N   0  0  0  0  0  0  0  0  0  0  0  0
  -22.2970  -14.6220   20.6400 O   0  0  0  0  0  0  0  0  0  0  0  0
  -22.3620  -12.0830   22.4820 H   0  0  0  0  0  0  0  0  0  0  0  0
  -21.0630  -13.2200   22.2570 H   0  0  0  0  0  0  0  0  0  0  0  0
  -25.3640  -15.2490   20.3370 N   0  0  0  0  0  0  0  0  0  0  0  0
  -24.5970  -15.9040   20.4430 H   0  0  0  0  0  0  0  0  0  0  0  0
  -26.2060  -15.6860   19.9850 H   0  0  0  0  0  0  0  0  0  0  0  0
  1 45  1  0
  2  4  1  0
  2  1  1  0
  3  2  2  0
  5 16  2  0
  6  4  1  0
  6 11  1  0
  7 15  1  0
  7 17  1  0
  8 14  1  0
  8 10  1  0
  9 15  1  0
 10  9  1  0
 11 10  2  0
 12 13  1  0
 12  6  2  0
 13  8  2  0
 14  7  1  0
 15  5  1  0
 17 19  2  0
 18 17  1  0
 20 18  1  0
 21 30  2  0
 21 26  1  0
 22 18  1  0
 22 26  1  0
 23 22  1  0
 24 25  1  0
 24 23  1  0
 25 21  1  0
 26 27  2  0
 27 28  1  0
 29 28  2  0
 30 29  1  0
 31  5  1  0
 31 36  1  0
 31 32  1  0
 32 35  1  1
 32 33  1  0
 34 32  1  0
 36 39  1  0
 37 41  1  0
 37 36  1  0
 38 37  2  0
 41 40  1  0
 43 41  1  0
 43 44  1  0
 43 42  1  0
 46 45  1  0
 46 47  1  0
 48 47  1  0
 48 49  1  0
 50 58  1  0
 51 56  1  0
 52 53  1  0
 52 51  1  0
 54 53  1  0
 54 63  1  0
 54 55  1  0
 56 50  1  0
 56 55  1  0
 57 50  2  0
 58 59  1  0
 58 49  1  0
 60 61  2  0
 61 80  1  0
 62 61  1  0
 62 65  1  0
 63 60  1  0
 63 64  1  0
 64 62  2  0
 65 66  1  0
 66 67  2  0
 68 71  1  0
 68 67  1  0
 69 68  2  0
 70 69  1  0
 70 65  2  0
 71 72  1  0
 72 73  1  0
 73 74  2  0
 75 74  1  0
 75 79  1  0
 76 75  2  0
 77 72  2  0
 77 76  1  0
 78 77  1  0
 80 81  1  0
 81 84  1  0
 81 83  1  0
 82 80  2  0
 85 86  1  0
 85 60  1  0
 87 85  1  0
M  ISO  4   2 101   4 101  50 100  58 100
M  END
>  <TORSDO>  (54) 
F 22

>  <SCORE>  (54) 
-12.875

>  <name>  (54) 
53

>  <ligand_id>  (54) 
53

>  <original_smiles>  (54) 
[H]c1c([H])c([H])c2c(c1[H])C([H])([H])C([H])([H])C([H])([H])C2([H])N([H])C(=O)C1([H])N(C(=O)C([H])(N([H])C(=O)C([H])(N([H])C([H])([H])[H])C([H])([H])[H])C(C([H])([H])[H])(C([H])([H])[H])C([H])([H])[H])C([H])([H])c2c([H])c(OC(=O)C([H])([H])C([H])([H])C([H])([H])C([H])([H])C([H])([H])C([H])([H])N([H])C(=O)N3C([H])([H])C([H])([H])C([H])([H])C([H])(n4nc(-c5c([H])c([H])c(Oc6c([H])c([H])c(F)c([H])c6F)c([H])c5[H])c(C(=O)N([H])[H])c4N([H])[H])C3([H])[H])c([H])c([H])c2C1([H])[H]

>  <smiles>  (54) 
[H]c1c([H])c([H])c2c(c1[H])C([H])([H])C([H])([H])C([H])([H])C2([H])N([H])C(=O)C1([H])N(C(=O)C([H])(N([H])C(=O)C([H])(N([H])C([H])([H])[H])C([H])([H])[H])C(C([H])([H])[H])(C([H])([H])[H])C([H])([H])[H])C([H])([H])c2c([H])c(OC(=O)C([H])([H])C([H])([H])C([H])([H])C([H])([H])C([H])([H])C([H])([H])N([H])C(=O)N3C([H])([H])C([H])([H])C([H])([H])C([H])(n4nc(-c5c([H])c([H])c(Oc6c([H])c([H])c(F)c([H])c6F)c([H])c5[H])c(C(=O)N([H])[H])c4N([H])[H])C3([H])[H])c([H])c([H])c2C1([H])[H]

$$$$
54:0:0
     RDKit          3D

 91 99  0  0  1  0  0  0  0  0999 V2000
  -28.7930  -21.0830   20.0620 C   0  0  0  0  0  0  0  0  0  0  0  0
  -29.0170  -22.3780   20.5100 N   0  0  0  0  0  0  0  0  0  0  0  0
  -27.9230  -20.8740   19.2140 O   0  0  0  0  0  0  0  0  0  0  0  0
  -29.6840  -22.4560   21.2650 H   0  0  0  0  0  0  0  0  0  0  0  0
  -31.7600  -19.0240   21.4770 C   0  0  0  0  0  3  0  0  0  0  0  0
  -30.9110  -20.0940   21.1230 C   0  0  0  0  0  3  0  0  0  0  0  0
  -31.3870  -17.6780   21.2760 C   0  0  0  0  0  3  0  0  0  0  0  0
  -29.2740  -18.4590   20.3660 C   0  0  0  0  0  3  0  0  0  0  0  0
  -29.6390  -19.8630   20.5550 C   0  0  0  0  0  0  0  0  0  0  0  0
  -30.1380  -17.3320   20.7120 C   0  0  0  0  0  0  0  0  0  0  0  0
  -30.5650  -14.7560   20.3870 C   0  0  0  0  0  0  0  0  0  0  0  0
  -30.3540  -12.4850   19.3540 C   0  0  0  0  0  2  0  0  0  0  0  0
  -29.4070  -12.5720   18.1370 C   0  0  0  0  0  2  0  0  0  0  0  0
  -27.9400  -12.4020   18.5770 C   0  0  0  0  0  2  0  0  0  0  0  0
  -27.5760  -13.2730   19.8100 C   0  0  0  0  0  3  0  0  0  0  0  0
  -28.6460  -13.1740   20.9190 C   0  0  0  0  0  2  0  0  0  0  0  0
  -29.9330  -13.5340   20.3110 N   0  0  0  0  0  0  0  0  0  0  0  0
  -31.7560  -14.8410   20.0730 O   0  0  0  0  0  0  0  0  0  0  0  0
  -29.7790  -15.8930   20.5680 N   0  0  0  0  0  0  0  0  0  0  0  0
  -28.7920  -15.6950   20.6010 H   0  0  0  0  0  0  0  0  0  0  0  0
  -25.1940  -13.8540   20.5620 C   0  0  0  0  0  0  0  0  0  0  0  0
  -24.1330  -13.0760   20.9380 C   0  0  0  0  0  0  0  0  0  0  0  0
  -24.6000  -11.7260   20.8980 C   0  0  0  0  0  0  0  0  0  0  0  0
  -26.2380  -12.9790   20.3130 N   0  0  0  0  0  0  0  0  0  0  0  0
  -25.8870  -11.6930   20.5780 N   0  0  0  0  0  0  0  0  0  0  0  0
  -23.8770  -10.4620   21.0890 C   0  0  0  0  0  0  0  0  0  0  0  0
  -24.3260   -9.4830   22.0020 C   0  0  0  0  0  3  0  0  0  0  0  0
  -23.6030   -8.2830   22.1810 C   0  0  0  0  0  3  0  0  0  0  0  0
  -22.4150   -8.0550   21.4460 C   0  0  0  0  0  0  0  0  0  0  0  0
  -21.9840   -9.0230   20.5210 C   0  0  0  0  0  3  0  0  0  0  0  0
  -22.7090  -10.2130   20.3400 C   0  0  0  0  0  3  0  0  0  0  0  0
  -21.6600   -6.9110   21.5350 O   0  0  0  0  0  0  0  0  0  0  0  0
  -21.6450   -6.1470   22.6740 C   0  0  0  0  0  0  0  0  0  0  0  0
  -21.2650   -6.6800   23.9250 C   0  0  0  0  0  3  0  0  0  0  0  0
  -21.1970   -5.8430   25.0570 C   0  0  0  0  0  3  0  0  0  0  0  0
  -21.4980   -4.4730   24.9390 C   0  0  0  0  0  0  0  0  0  0  0  0
  -21.8700   -3.9380   23.6930 C   0  0  0  0  0  3  0  0  0  0  0  0
  -21.9410   -4.7720   22.5630 C   0  0  0  0  0  0  0  0  0  0  0  0
  -22.2800   -4.2490   21.3610 F   0  0  0  0  0  0  0  0  0  0  0  0
  -21.4250   -3.6660   26.0230 F   0  0  0  0  0  0  0  0  0  0  0  0
  -22.7370  -13.5500   21.2210 C   0  0  0  0  0  0  0  0  0  0  0  0
  -22.0160  -12.8490   22.0880 N   0  0  0  0  0  0  0  0  0  0  0  0
  -22.2930  -14.5760   20.7070 O   0  0  0  0  0  0  0  0  0  0  0  0
  -22.3870  -12.0200   22.5280 H   0  0  0  0  0  0  0  0  0  0  0  0
  -21.0790  -13.1470   22.3180 H   0  0  0  0  0  0  0  0  0  0  0  0
  -25.3500  -15.2260   20.3840 N   0  0  0  0  0  0  0  0  0  0  0  0
  -24.5700  -15.8690   20.4770 H   0  0  0  0  0  0  0  0  0  0  0  0
  -26.1750  -15.6650   19.9980 H   0  0  0  0  0  0  0  0  0  0  0  0
  -28.6200  -23.7090   19.8510 C   0  0  0  0  0  2  0  0  0  0  0  0
  -28.2330  -25.0180   20.7310 C   0  0  0  0  0  2  0  0  0  0  0  0
  -28.3410  -26.4230   20.1970 O   0  0  0  0  0  0  0  0  0  0  0  0
  -24.6110  -31.8810   23.2350 C   0  0  0  0  0  0  0  0  0  0  0  0
  -27.2230  -27.2820   20.2030 C   0  0  0  0  0  0  0  0  0  0  0  0
  -23.4070  -30.4730   21.6010 C   0  0  0  0  0  3  0  0  0  0  0  0
  -24.8590  -28.9090   20.1820 C   0  0  0  0  0  0  0  0  0  0  0  0
  -25.9470  -30.7900   21.4110 C   0  0  0  0  0  2  0  0  0  0  0  0
  -26.0300  -29.4030   20.7730 C   0  0  0  0  0  0  0  0  0  0  0  0
  -27.2180  -28.6040   20.7650 C   0  0  0  0  0  3  0  0  0  0  0  0
  -26.0300  -26.8470   19.5930 C   0  0  0  0  0  3  0  0  0  0  0  0
  -24.8630  -27.6400   19.5810 C   0  0  0  0  0  3  0  0  0  0  0  0
  -23.6220  -29.7860   20.2260 C   0  0  0  0  0  2  0  0  0  0  0  0
  -24.6750  -31.0670   22.1390 N   0  0  0  0  0  0  0  0  0  0  0  0
  -23.5280  -32.1590   23.7710 O   0  0  0  0  0  0  0  0  0  0  0  0
  -22.7450  -29.4630   22.5690 C   0  0  0  0  0  0  0  0  0  0  0  0
  -21.4190  -29.2830   22.4440 N   0  0  0  0  0  0  0  0  0  0  0  0
  -23.4240  -28.8420   23.3900 O   0  0  0  0  0  0  0  0  0  0  0  0
  -20.9280  -29.8350   21.7540 H   0  0  0  0  0  0  0  0  0  0  0  0
  -18.0450  -28.0760   22.9460 C   0  0  0  0  0  0  0  0  0  0  0  0
  -20.6030  -28.3460   23.2190 C   0  0  0  0  0  3  0  0  0  0  0  0
  -20.7100  -26.9120   22.6500 C   0  0  0  0  0  2  0  0  0  0  0  0
  -19.6110  -26.5810   21.6360 C   0  0  0  0  0  2  0  0  0  0  0  0
  -18.2280  -26.7240   22.2770 C   0  0  0  0  0  2  0  0  0  0  0  0
  -19.1600  -28.8440   23.3750 C   0  0  0  0  0  0  0  0  0  0  0  0
  -18.9350  -30.1080   23.9600 C   0  0  0  0  0  3  0  0  0  0  0  0
  -17.6280  -30.6050   24.1240 C   0  0  0  0  0  3  0  0  0  0  0  0
  -16.5270  -29.8320   23.7140 C   0  0  0  0  0  3  0  0  0  0  0  0
  -16.7370  -28.5700   23.1310 C   0  0  0  0  0  3  0  0  0  0  0  0
  -25.8930  -32.5190   23.8540 C   0  0  0  0  0  3  0  0  0  0  0  0
  -26.4140  -31.7500   25.1310 C   0  0  1  0  0  0  0  0  0  0  0  0
  -25.3230  -31.5120   26.2020 C   0  0  0  0  0  1  0  0  0  0  0  0
  -26.9960  -30.3730   24.7390 C   0  0  0  0  0  1  0  0  0  0  0  0
  -27.5680  -32.5440   25.7880 C   0  0  0  0  0  1  0  0  0  0  0  0
  -25.5810  -33.9170   24.1860 N   0  0  0  0  0  0  0  0  0  0  0  0
  -25.9090  -34.9720   23.4270 C   0  0  0  0  0  0  0  0  0  0  0  0
  -26.5720  -34.8710   22.3920 O   0  0  0  0  0  0  0  0  0  0  0  0
  -24.9930  -34.0700   24.9920 H   0  0  0  0  0  0  0  0  0  0  0  0
  -24.1760  -36.7620   23.0840 C   0  0  0  0  0  1  0  0  0  0  0  0
  -25.4220  -36.3600   23.8880 C   0  0  0  0  0  3  0  0  0  0  0  0
  -27.5590  -37.2470   24.7080 C   0  0  0  0  0  1  0  0  0  0  0  0
  -26.4520  -37.4150   23.7700 N   0  0  0  0  0  0  0  0  0  0  0  0
  -26.0450  -38.3340   23.9210 H   0  0  0  0  0  0  0  0  0  0  0  0
  1  2  1  0
  1  9  1  0
  2  4  1  0
  3  1  2  0
  6  5  2  0
  7  5  1  0
  8  9  2  0
  8 10  1  0
  9  6  1  0
 10  7  2  0
 11 19  1  0
 12 17  1  0
 13 14  1  0
 13 12  1  0
 15 14  1  0
 15 24  1  0
 15 16  1  0
 17 11  1  0
 17 16  1  0
 18 11  2  0
 19 20  1  0
 19 10  1  0
 21 22  2  0
 22 41  1  0
 23 22  1  0
 23 26  1  0
 24 21  1  0
 24 25  1  0
 25 23  2  0
 26 27  1  0
 27 28  2  0
 29 32  1  0
 29 28  1  0
 30 29  2  0
 31 30  1  0
 31 26  2  0
 32 33  1  0
 33 34  1  0
 34 35  2  0
 36 35  1  0
 36 40  1  0
 37 36  2  0
 38 33  2  0
 38 37  1  0
 39 38  1  0
 41 42  1  0
 42 45  1  0
 42 44  1  0
 43 41  2  0
 46 47  1  0
 46 21  1  0
 48 46  1  0
 49  2  1  0
 49 50  1  0
 51 53  1  0
 51 50  1  0
 52 63  2  0
 53 58  1  0
 54 62  1  0
 54 64  1  0
 55 61  1  0
 55 57  1  0
 56 62  1  0
 57 56  1  0
 58 57  2  0
 59 53  2  0
 60 59  1  0
 60 55  2  0
 61 54  1  0
 62 52  1  0
 64 66  2  0
 65 64  1  0
 67 65  1  0
 68 77  2  0
 68 73  1  0
 69 65  1  0
 69 73  1  0
 70 69  1  0
 71 72  1  0
 71 70  1  0
 72 68  1  0
 73 74  2  0
 74 75  1  0
 76 75  2  0
 77 76  1  0
 78 52  1  0
 78 83  1  0
 78 79  1  0
 79 82  1  1
 79 80  1  0
 81 79  1  0
 83 86  1  0
 84 88  1  0
 84 83  1  0
 85 84  2  0
 88 87  1  0
 90 88  1  0
 90 91  1  0
 90 89  1  0
M  ISO  4  11 100  19 100  50 101  51 101
M  END
>  <TORSDO>  (55) 
F 19

>  <SCORE>  (55) 
-14.451

>  <name>  (55) 
54

>  <ligand_id>  (55) 
54

>  <original_smiles>  (55) 
[H]c1c([H])c(C(=O)N([H])C([H])([H])C([H])([H])Oc2c([H])c([H])c3c(c2[H])C([H])([H])N(C(=O)C([H])(N([H])C(=O)C([H])(N([H])C([H])([H])[H])C([H])([H])[H])C(C([H])([H])[H])(C([H])([H])[H])C([H])([H])[H])C([H])(C(=O)N([H])C2([H])c4c([H])c([H])c([H])c([H])c4C([H])([H])C([H])([H])C2([H])[H])C3([H])[H])c([H])c(N([H])C(=O)N2C([H])([H])C([H])([H])C([H])([H])C([H])(n3nc(-c4c([H])c([H])c(Oc5c([H])c([H])c(F)c([H])c5F)c([H])c4[H])c(C(=O)N([H])[H])c3N([H])[H])C2([H])[H])c1[H]

>  <smiles>  (55) 
[H]c1c([H])c(C(=O)N([H])C([H])([H])C([H])([H])Oc2c([H])c([H])c3c(c2[H])C([H])([H])N(C(=O)C([H])(N([H])C(=O)C([H])(N([H])C([H])([H])[H])C([H])([H])[H])C(C([H])([H])[H])(C([H])([H])[H])C([H])([H])[H])C([H])(C(=O)N([H])C2([H])c4c([H])c([H])c([H])c([H])c4C([H])([H])C([H])([H])C2([H])[H])C3([H])[H])c([H])c(N([H])C(=O)N2C([H])([H])C([H])([H])C([H])([H])C([H])(n3nc(-c4c([H])c([H])c(Oc5c([H])c([H])c(F)c([H])c5F)c([H])c4[H])c(C(=O)N([H])[H])c3N([H])[H])C2([H])[H])c1[H]

$$$$
55:0:0
     RDKit          3D

 98105  0  0  1  0  0  0  0  0999 V2000
  -28.6920  -21.8950   22.7460 C   0  0  0  0  0  2  0  0  0  0  0  0
  -30.0220  -21.5650   23.4160 C   0  0  0  0  0  0  0  0  0  0  0  0
  -31.1280  -21.8630   22.7230 N   0  0  0  0  0  0  0  0  0  0  0  0
  -30.0440  -21.0260   24.5230 O   0  0  0  0  0  0  0  0  0  0  0  0
  -31.0050  -22.3270   21.8310 H   0  0  0  0  0  0  0  0  0  0  0  0
  -32.4940  -21.5050   23.0890 C   0  0  0  0  0  2  0  0  0  0  0  0
  -32.7740  -19.9990   22.9010 C   0  0  0  0  0  2  0  0  0  0  0  0
  -32.1120  -19.4010   21.6470 C   0  0  0  0  0  2  0  0  0  0  0  0
  -32.1480  -17.8640   21.6230 C   0  0  0  0  0  2  0  0  0  0  0  0
  -31.8560  -17.3140   20.2170 C   0  0  0  0  0  2  0  0  0  0  0  0
  -32.4080  -15.9030   19.9690 C   0  0  0  0  0  2  0  0  0  0  0  0
  -31.1670  -14.1430   18.7090 C   0  0  0  0  0  0  0  0  0  0  0  0
  -30.7500  -11.7540   18.3060 C   0  0  0  0  0  2  0  0  0  0  0  0
  -29.6190  -11.4360   17.3200 C   0  0  0  0  0  2  0  0  0  0  0  0
  -28.2660  -11.3930   18.0490 C   0  0  0  0  0  2  0  0  0  0  0  0
  -28.0240  -12.6570   18.9130 C   0  0  0  0  0  3  0  0  0  0  0  0
  -29.2410  -12.9710   19.8120 C   0  0  0  0  0  2  0  0  0  0  0  0
  -30.4590  -13.0240   18.9830 N   0  0  0  0  0  0  0  0  0  0  0  0
  -31.8280  -14.3070   17.6770 O   0  0  0  0  0  0  0  0  0  0  0  0
  -31.3480  -14.9130   19.7900 N   0  0  0  0  0  0  0  0  0  0  0  0
  -30.8410  -14.6330   20.6170 H   0  0  0  0  0  0  0  0  0  0  0  0
  -26.0050  -13.5190   20.2640 C   0  0  0  0  0  0  0  0  0  0  0  0
  -24.9320  -12.8750   20.8180 C   0  0  0  0  0  0  0  0  0  0  0  0
  -25.1210  -11.4860   20.5420 C   0  0  0  0  0  0  0  0  0  0  0  0
  -26.7930  -12.5300   19.6940 N   0  0  0  0  0  0  0  0  0  0  0  0
  -26.2730  -11.2950   19.9120 N   0  0  0  0  0  0  0  0  0  0  0  0
  -24.2450  -10.3330   20.7920 C   0  0  0  0  0  0  0  0  0  0  0  0
  -24.6390   -9.2760   21.6410 C   0  0  0  0  0  3  0  0  0  0  0  0
  -23.7710   -8.1880   21.8790 C   0  0  0  0  0  3  0  0  0  0  0  0
  -22.4950   -8.1500   21.2690 C   0  0  0  0  0  0  0  0  0  0  0  0
  -22.1170   -9.1960   20.4060 C   0  0  0  0  0  3  0  0  0  0  0  0
  -22.9850  -10.2740   20.1650 C   0  0  0  0  0  3  0  0  0  0  0  0
  -21.5960   -7.1220   21.4210 O   0  0  0  0  0  0  0  0  0  0  0  0
  -21.4770   -6.4400   22.6050 C   0  0  0  0  0  0  0  0  0  0  0  0
  -21.1400   -7.0920   23.8120 C   0  0  0  0  0  3  0  0  0  0  0  0
  -20.9600   -6.3430   24.9900 C   0  0  0  0  0  3  0  0  0  0  0  0
  -21.1080   -4.9440   24.9660 C   0  0  0  0  0  0  0  0  0  0  0  0
  -21.4390   -4.2910   23.7660 C   0  0  0  0  0  3  0  0  0  0  0  0
  -21.6210   -5.0380   22.5880 C   0  0  0  0  0  0  0  0  0  0  0  0
  -21.9190   -4.4020   21.4290 F   0  0  0  0  0  0  0  0  0  0  0  0
  -20.9270   -4.2220   26.0970 F   0  0  0  0  0  0  0  0  0  0  0  0
  -23.7490  -13.5150   21.4860 C   0  0  0  0  0  0  0  0  0  0  0  0
  -23.1620  -12.8430   22.4700 N   0  0  0  0  0  0  0  0  0  0  0  0
  -23.3660  -14.6400   21.1680 O   0  0  0  0  0  0  0  0  0  0  0  0
  -23.4880  -11.9280   22.7440 H   0  0  0  0  0  0  0  0  0  0  0  0
  -22.3770  -13.2490   22.9570 H   0  0  0  0  0  0  0  0  0  0  0  0
  -26.3670  -14.8600   20.1800 N   0  0  0  0  0  0  0  0  0  0  0  0
  -25.7870  -15.6050   20.5470 H   0  0  0  0  0  0  0  0  0  0  0  0
  -27.1980  -15.2010   19.7090 H   0  0  0  0  0  0  0  0  0  0  0  0
  -28.4280  -20.9670   21.5490 C   0  0  0  0  0  2  0  0  0  0  0  0
  -27.8270  -21.7120   20.3530 C   0  0  0  0  0  2  0  0  0  0  0  0
  -27.6490  -20.8070   19.1240 C   0  0  0  0  0  2  0  0  0  0  0  0
  -27.7320  -21.5910   17.8070 C   0  0  0  0  0  2  0  0  0  0  0  0
  -29.1780  -21.8570   17.3490 C   0  0  0  0  0  2  0  0  0  0  0  0
  -29.3590  -23.1820   16.5900 C   0  0  0  0  0  2  0  0  0  0  0  0
  -29.3130  -24.4370   17.4840 C   0  0  0  0  0  2  0  0  0  0  0  0
  -27.9190  -24.8910   17.9510 C   0  0  0  0  0  2  0  0  0  0  0  0
  -28.1530  -25.8720   18.9550 O   0  0  0  0  0  0  0  0  0  0  0  0
  -25.7680  -29.8830   24.2890 C   0  0  0  0  0  0  0  0  0  0  0  0
  -27.1210  -26.6740   19.3870 C   0  0  0  0  0  0  0  0  0  0  0  0
  -24.1580  -29.5040   22.4450 C   0  0  0  0  0  3  0  0  0  0  0  0
  -25.1200  -28.4250   20.3420 C   0  0  0  0  0  0  0  0  0  0  0  0
  -26.6780  -29.4400   22.0170 C   0  0  0  0  0  2  0  0  0  0  0  0
  -26.4030  -28.4520   20.9050 C   0  0  0  0  0  0  0  0  0  0  0  0
  -27.4010  -27.5760   20.4330 C   0  0  0  0  0  3  0  0  0  0  0  0
  -25.8170  -26.6410   18.8400 C   0  0  0  0  0  3  0  0  0  0  0  0
  -24.8190  -27.5120   19.3170 C   0  0  0  0  0  3  0  0  0  0  0  0
  -24.1110  -29.4080   20.8960 C   0  0  0  0  0  2  0  0  0  0  0  0
  -25.5590  -29.5950   22.9740 N   0  0  0  0  0  0  0  0  0  0  0  0
  -24.8170  -30.1120   25.0490 O   0  0  0  0  0  0  0  0  0  0  0  0
  -23.3580  -28.3220   23.0370 C   0  0  0  0  0  0  0  0  0  0  0  0
  -22.0740  -28.2230   22.6570 N   0  0  0  0  0  0  0  0  0  0  0  0
  -23.8960  -27.5100   23.7920 O   0  0  0  0  0  0  0  0  0  0  0  0
  -21.7010  -28.9410   22.0500 H   0  0  0  0  0  0  0  0  0  0  0  0
  -18.8270  -26.8090   21.9570 C   0  0  0  0  0  0  0  0  0  0  0  0
  -21.1380  -27.1720   23.0530 C   0  0  0  0  0  3  0  0  0  0  0  0
  -21.5330  -25.8100   22.4350 C   0  0  0  0  0  2  0  0  0  0  0  0
  -20.8360  -25.5300   21.0990 C   0  0  0  0  0  2  0  0  0  0  0  0
  -19.3150  -25.5420   21.2750 C   0  0  0  0  0  2  0  0  0  0  0  0
  -19.6880  -27.5840   22.7780 C   0  0  0  0  0  0  0  0  0  0  0  0
  -19.1960  -28.7740   23.3540 C   0  0  0  0  0  3  0  0  0  0  0  0
  -17.8670  -29.1880   23.1320 C   0  0  0  0  0  3  0  0  0  0  0  0
  -17.0130  -28.4070   22.3320 C   0  0  0  0  0  3  0  0  0  0  0  0
  -17.4940  -27.2200   21.7490 C   0  0  0  0  0  3  0  0  0  0  0  0
  -27.2030  -29.9610   24.8950 C   0  0  0  0  0  3  0  0  0  0  0  0
  -27.5280  -28.7730   25.8820 C   0  0  1  0  0  0  0  0  0  0  0  0
  -26.4430  -28.5490   26.9610 C   0  0  0  0  0  1  0  0  0  0  0  0
  -27.7030  -27.4490   25.1010 C   0  0  0  0  0  1  0  0  0  0  0  0
  -28.8670  -29.0460   26.6060 C   0  0  0  0  0  1  0  0  0  0  0  0
  -27.3230  -31.2550   25.5780 N   0  0  0  0  0  0  0  0  0  0  0  0
  -27.9530  -32.3240   25.0760 C   0  0  0  0  0  0  0  0  0  0  0  0
  -28.5600  -32.3010   24.0020 O   0  0  0  0  0  0  0  0  0  0  0  0
  -26.8070  -31.3630   26.4390 H   0  0  0  0  0  0  0  0  0  0  0  0
  -26.8400  -34.5670   25.2980 C   0  0  0  0  0  1  0  0  0  0  0  0
  -27.9010  -33.6270   25.8930 C   0  0  0  0  0  3  0  0  0  0  0  0
  -30.1990  -33.6150   26.7580 C   0  0  0  0  0  1  0  0  0  0  0  0
  -29.2000  -34.3300   25.9700 N   0  0  0  0  0  0  0  0  0  0  0  0
  -29.0830  -35.2590   26.3690 H   0  0  0  0  0  0  0  0  0  0  0  0
  1  2  1  0
  2  4  2  0
  3  6  1  0
  3  2  1  0
  5  3  1  0
  7  6  1  0
  8  7  1  0
  9  8  1  0
 10  9  1  0
 11 10  1  0
 12 18  1  0
 12 20  1  0
 13 18  1  0
 14 15  1  0
 14 13  1  0
 16 15  1  0
 16 25  1  0
 16 17  1  0
 18 17  1  0
 19 12  2  0
 20 11  1  0
 20 21  1  0
 22 23  2  0
 23 42  1  0
 24 27  1  0
 24 23  1  0
 25 26  1  0
 25 22  1  0
 26 24  2  0
 27 28  1  0
 28 29  2  0
 30 33  1  0
 30 29  1  0
 31 30  2  0
 32 31  1  0
 32 27  2  0
 33 34  1  0
 34 35  1  0
 35 36  2  0
 37 36  1  0
 37 41  1  0
 38 37  2  0
 39 34  2  0
 39 38  1  0
 40 39  1  0
 42 43  1  0
 43 45  1  0
 43 46  1  0
 44 42  2  0
 47 22  1  0
 47 48  1  0
 49 47  1  0
 50  1  1  0
 51 50  1  0
 52 51  1  0
 53 52  1  0
 54 53  1  0
 55 54  1  0
 55 56  1  0
 56 57  1  0
 57 58  1  0
 58 60  1  0
 59 70  2  0
 60 65  1  0
 61 69  1  0
 61 71  1  0
 62 68  1  0
 62 64  1  0
 63 69  1  0
 64 63  1  0
 65 64  2  0
 66 67  1  0
 66 60  2  0
 67 62  2  0
 68 61  1  0
 69 59  1  0
 71 73  2  0
 72 71  1  0
 74 72  1  0
 75 80  1  0
 76 72  1  0
 77 76  1  0
 78 79  1  0
 78 77  1  0
 79 75  1  0
 80 76  1  0
 80 81  2  0
 82 81  1  0
 83 82  2  0
 84 75  2  0
 84 83  1  0
 85 59  1  0
 85 90  1  0
 85 86  1  0
 86 89  1  1
 86 87  1  0
 88 86  1  0
 90 93  1  0
 91 90  1  0
 91 95  1  0
 92 91  2  0
 95 94  1  0
 95 97  1  0
 97 98  1  0
 97 96  1  0
M  ISO  4  12 100  20 100  57 101  58 101
M  END
>  <TORSDO>  (56) 
F 31

>  <SCORE>  (56) 
-6.408

>  <name>  (56) 
55

>  <ligand_id>  (56) 
55

>  <original_smiles>  (56) 
[H]c1c([H])c([H])c2c(c1[H])C([H])([H])C([H])([H])C([H])([H])C2([H])N([H])C(=O)C1([H])N(C(=O)C([H])(N([H])C(=O)C([H])(N([H])C([H])([H])[H])C([H])([H])[H])C(C([H])([H])[H])(C([H])([H])[H])C([H])([H])[H])C([H])([H])c2c([H])c(OC([H])([H])C([H])([H])C([H])([H])C([H])([H])C([H])([H])C([H])([H])C([H])([H])C([H])([H])C([H])([H])C(=O)N([H])C([H])([H])C([H])([H])C([H])([H])C([H])([H])C([H])([H])C([H])([H])N([H])C(=O)N3C([H])([H])C([H])([H])C([H])([H])C([H])(n4nc(-c5c([H])c([H])c(Oc6c([H])c([H])c(F)c([H])c6F)c([H])c5[H])c(C(=O)N([H])[H])c4N([H])[H])C3([H])[H])c([H])c([H])c2C1([H])[H]

>  <smiles>  (56) 
[H]c1c([H])c([H])c2c(c1[H])C([H])([H])C([H])([H])C([H])([H])C2([H])N([H])C(=O)C1([H])N(C(=O)C([H])(N([H])C(=O)C([H])(N([H])C([H])([H])[H])C([H])([H])[H])C(C([H])([H])[H])(C([H])([H])[H])C([H])([H])[H])C([H])([H])c2c([H])c(OC([H])([H])C([H])([H])C([H])([H])C([H])([H])C([H])([H])C([H])([H])C([H])([H])C([H])([H])C([H])([H])C(=O)N([H])C([H])([H])C([H])([H])C([H])([H])C([H])([H])C([H])([H])C([H])([H])N([H])C(=O)N3C([H])([H])C([H])([H])C([H])([H])C([H])(n4nc(-c5c([H])c([H])c(Oc6c([H])c([H])c(F)c([H])c6F)c([H])c5[H])c(C(=O)N([H])[H])c4N([H])[H])C3([H])[H])c([H])c([H])c2C1([H])[H]

$$$$
56:0:0
     RDKit          3D

 81 85  0  0  1  0  0  0  0  0999 V2000
  -28.1090  -24.6470   20.3000 O   0  0  0  0  0  1  0  0  0  0  0  0
  -24.7100  -31.7810   23.1610 C   0  0  0  0  0  0  0  0  0  0  0  0
  -27.2070  -26.1440   20.2640 C   0  0  0  0  0  0  0  0  0  0  0  0
  -23.5560  -30.3680   21.5220 C   0  0  0  0  0  3  0  0  0  0  0  0
  -25.0090  -28.5810   20.1690 C   0  0  0  0  0  0  0  0  0  0  0  0
  -26.1560  -30.3130   21.5020 C   0  0  0  0  0  2  0  0  0  0  0  0
  -26.2110  -28.8120   20.8490 C   0  0  0  0  0  0  0  0  0  0  0  0
  -27.2590  -27.6460   20.8460 C   0  0  0  0  0  3  0  0  0  0  0  0
  -25.9680  -26.2870   19.5230 C   0  0  0  0  0  3  0  0  0  0  0  0
  -24.9660  -27.3480   19.4800 C   0  0  0  0  0  3  0  0  0  0  0  0
  -23.8360  -29.6140   20.1780 C   0  0  0  0  0  2  0  0  0  0  0  0
  -24.8390  -30.8700   22.1140 N   0  0  0  0  0  0  0  0  0  0  0  0
  -23.6010  -32.1150   23.6230 O   0  0  0  0  0  0  0  0  0  0  0  0
  -22.7620  -29.4580   22.5040 C   0  0  0  0  0  0  0  0  0  0  0  0
  -21.4220  -29.3560   22.3730 N   0  0  0  0  0  0  0  0  0  0  0  0
  -23.3780  -28.8290   23.3670 O   0  0  0  0  0  0  0  0  0  0  0  0
  -20.9670  -29.9120   21.6630 H   0  0  0  0  0  0  0  0  0  0  0  0
  -17.9970  -28.2130   22.9010 C   0  0  0  0  0  0  0  0  0  0  0  0
  -20.5670  -28.4380   23.1430 C   0  0  0  0  0  3  0  0  0  0  0  0
  -20.6330  -27.0060   22.5600 C   0  0  0  0  0  2  0  0  0  0  0  0
  -19.5210  -26.7160   21.5460 C   0  0  0  0  0  2  0  0  0  0  0  0
  -18.1460  -26.8740   22.1990 C   0  0  0  0  0  2  0  0  0  0  0  0
  -19.1320  -28.9550   23.3290 C   0  0  0  0  0  0  0  0  0  0  0  0
  -18.9320  -30.2040   23.9560 C   0  0  0  0  0  3  0  0  0  0  0  0
  -17.6350  -30.7130   24.1530 C   0  0  0  0  0  3  0  0  0  0  0  0
  -16.5160  -29.9710   23.7350 C   0  0  0  0  0  3  0  0  0  0  0  0
  -16.6980  -28.7220   23.1160 C   0  0  0  0  0  3  0  0  0  0  0  0
  -25.9400  -32.4590   23.8420 C   0  0  0  0  0  3  0  0  0  0  0  0
  -25.5980  -33.8650   24.1720 N   0  0  0  0  0  0  0  0  0  0  0  0
  -25.9200  -34.9450   23.4450 C   0  0  0  0  0  0  0  0  0  0  0  0
  -26.5760  -34.8640   22.4040 O   0  0  0  0  0  0  0  0  0  0  0  0
  -25.0070  -33.9990   24.9800 H   0  0  0  0  0  0  0  0  0  0  0  0
  -24.1680  -36.7480   23.1980 C   0  0  0  0  0  1  0  0  0  0  0  0
  -25.4480  -36.3330   23.9420 C   0  0  0  0  0  3  0  0  0  0  0  0
  -27.6060  -37.2470   24.6880 C   0  0  0  0  0  1  0  0  0  0  0  0
  -26.4650  -37.3980   23.7880 N   0  0  0  0  0  0  0  0  0  0  0  0
  -26.0550  -38.3150   23.9480 H   0  0  0  0  0  0  0  0  0  0  0  0
  -26.3960  -31.7200   25.1620 C   0  0  1  0  0  0  0  0  0  0  0  0
  -25.2580  -31.5140   26.1910 C   0  0  0  0  0  1  0  0  0  0  0  0
  -26.9880  -30.3300   24.8490 C   0  0  0  0  0  1  0  0  0  0  0  0
  -27.5230  -32.5250   25.8520 C   0  0  0  0  0  1  0  0  0  0  0  0
  -28.1400  -22.5480   20.1630 C   0  0  0  0  0 15  0  0  0  0  0  0
  -29.1420  -20.4180   20.2160 C   0  0  0  0  0 15  0  0  0  0  0  0
  -29.9010  -16.6470   20.0860 C   0  0  0  0  0  0  0  0  0  0  0  0
  -30.2300  -13.8900   19.2940 C   0  0  0  0  0  2  0  0  0  0  0  0
  -29.4480  -13.0530   18.1990 C   0  0  0  0  0  2  0  0  0  0  0  0
  -28.1340  -12.4820   18.7300 C   0  0  0  0  0  2  0  0  0  0  0  0
  -27.5010  -13.5140   19.6750 C   0  0  0  0  0  3  0  0  0  0  0  0
  -28.4750  -14.2100   20.6950 C   0  0  0  0  0  2  0  0  0  0  0  0
  -29.4550  -15.1290   19.9600 N   0  0  0  0  0  0  0  0  0  0  0  0
  -31.1430  -16.3980   20.0040 O   0  0  0  0  0  0  0  0  0  0  0  0
  -29.2570  -18.3100   20.1340 N   0  0  0  0  0  2  0  0  0  0  0  0
  -30.2580  -18.4710   20.1320 H   0  0  0  0  0  0  0  0  0  0  0  0
  -25.1600  -13.9200   20.5080 C   0  0  0  0  0  0  0  0  0  0  0  0
  -24.1280  -13.1120   20.8810 C   0  0  0  0  0  0  0  0  0  0  0  0
  -24.6260  -11.7720   20.8220 C   0  0  0  0  0  0  0  0  0  0  0  0
  -26.2240  -13.0860   20.2420 N   0  0  0  0  0  0  0  0  0  0  0  0
  -25.9190  -11.7780   20.4820 N   0  0  0  0  0  0  0  0  0  0  0  0
  -23.9140  -10.4950   21.0120 C   0  0  0  0  0  0  0  0  0  0  0  0
  -24.3570   -9.5290   21.9420 C   0  0  0  0  0  3  0  0  0  0  0  0
  -23.6350   -8.3280   22.1300 C   0  0  0  0  0  3  0  0  0  0  0  0
  -22.4560   -8.0830   21.3870 C   0  0  0  0  0  0  0  0  0  0  0  0
  -22.0290   -9.0390   20.4470 C   0  0  0  0  0  3  0  0  0  0  0  0
  -22.7510  -10.2310   20.2590 C   0  0  0  0  0  3  0  0  0  0  0  0
  -21.7070   -6.9350   21.4820 O   0  0  0  0  0  0  0  0  0  0  0  0
  -21.6700   -6.1910   22.6350 C   0  0  0  0  0  0  0  0  0  0  0  0
  -21.2140   -6.7320   23.8560 C   0  0  0  0  0  3  0  0  0  0  0  0
  -21.1260   -5.9140   25.0000 C   0  0  0  0  0  3  0  0  0  0  0  0
  -21.4850   -4.5540   24.9250 C   0  0  0  0  0  0  0  0  0  0  0  0
  -21.9340   -4.0110   23.7070 C   0  0  0  0  0  3  0  0  0  0  0  0
  -22.0220   -4.8270   22.5660 C   0  0  0  0  0  0  0  0  0  0  0  0
  -22.4340   -4.2930   21.3900 F   0  0  0  0  0  0  0  0  0  0  0  0
  -21.3950   -3.7660   26.0220 F   0  0  0  0  0  0  0  0  0  0  0  0
  -22.7270  -13.5620   21.1730 C   0  0  0  0  0  0  0  0  0  0  0  0
  -22.0260  -12.8570   22.0520 N   0  0  0  0  0  0  0  0  0  0  0  0
  -22.2670  -14.5820   20.6590 O   0  0  0  0  0  0  0  0  0  0  0  0
  -22.4140  -12.0340   22.4890 H   0  0  0  0  0  0  0  0  0  0  0  0
  -21.0880  -13.1430   22.2910 H   0  0  0  0  0  0  0  0  0  0  0  0
  -25.2790  -15.2960   20.3350 N   0  0  0  0  0  0  0  0  0  0  0  0
  -24.4980  -15.9290   20.4650 H   0  0  0  0  0  0  0  0  0  0  0  0
  -26.1180  -15.7610   20.0090 H   0  0  0  0  0  0  0  0  0  0  0  0
  2 13  2  0
  3  1  1  0
  3  8  1  0
  4 12  1  0
  4 14  1  0
  5 11  1  0
  5  7  1  0
  6 12  1  0
  7  6  1  0
  8  7  2  0
  9  3  2  0
 10  9  1  0
 10  5  2  0
 11  4  1  0
 12  2  1  0
 14 16  2  0
 15 14  1  0
 17 15  1  0
 18 27  2  0
 18 23  1  0
 19 15  1  0
 19 23  1  0
 20 19  1  0
 21 22  1  0
 21 20  1  0
 22 18  1  0
 23 24  2  0
 24 25  1  0
 26 25  2  0
 27 26  1  0
 28  2  1  0
 28 29  1  0
 28 38  1  0
 29 32  1  0
 30 34  1  0
 30 29  1  0
 31 30  2  0
 34 33  1  0
 36 34  1  0
 36 37  1  0
 36 35  1  0
 38 41  1  1
 38 39  1  0
 40 38  1  0
 44 52  1  0
 45 50  1  0
 46 47  1  0
 46 45  1  0
 48 47  1  0
 48 57  1  0
 48 49  1  0
 50 44  1  0
 50 49  1  0
 51 44  2  0
 53 52  1  0
 54 55  2  0
 55 74  1  0
 56 55  1  0
 56 59  1  0
 57 58  1  0
 57 54  1  0
 58 56  2  0
 59 60  1  0
 60 61  2  0
 62 65  1  0
 62 61  1  0
 63 62  2  0
 64 63  1  0
 64 59  2  0
 65 66  1  0
 66 67  1  0
 67 68  2  0
 69 68  1  0
 69 73  1  0
 70 69  2  0
 71 66  2  0
 71 70  1  0
 72 71  1  0
 74 75  1  0
 75 78  1  0
 75 77  1  0
 76 74  2  0
 79 80  1  0
 79 54  1  0
 81 79  1  0
M  ISO  4   1 101  42 101  44 100  52 100
M  END
>  <TORSDO>  (57) 
F 17

>  <SCORE>  (57) 
-16.141

>  <name>  (57) 
56

>  <ligand_id>  (57) 
56

>  <original_smiles>  (57) 
[H]c1c([H])c([H])c2c(c1[H])C([H])([H])C([H])([H])C([H])([H])C2([H])N([H])C(=O)C1([H])N(C(=O)C([H])(N([H])C(=O)C([H])(N([H])C([H])([H])[H])C([H])([H])[H])C(C([H])([H])[H])(C([H])([H])[H])C([H])([H])[H])C([H])([H])c2c([H])c(OC([H])([H])C([H])([H])N([H])C(=O)N3C([H])([H])C([H])([H])C([H])([H])C([H])(n4nc(-c5c([H])c([H])c(Oc6c([H])c([H])c(F)c([H])c6F)c([H])c5[H])c(C(=O)N([H])[H])c4N([H])[H])C3([H])[H])c([H])c([H])c2C1([H])[H]

>  <smiles>  (57) 
[H]c1c([H])c([H])c2c(c1[H])C([H])([H])C([H])([H])C([H])([H])C2([H])N([H])C(=O)C1([H])N(C(=O)C([H])(N([H])C(=O)C([H])(N([H])C([H])([H])[H])C([H])([H])[H])C(C([H])([H])[H])(C([H])([H])[H])C([H])([H])[H])C([H])([H])c2c([H])c(OC([H])([H])C([H])([H])N([H])C(=O)N3C([H])([H])C([H])([H])C([H])([H])C([H])(n4nc(-c5c([H])c([H])c(Oc6c([H])c([H])c(F)c([H])c6F)c([H])c5[H])c(C(=O)N([H])[H])c4N([H])[H])C3([H])[H])c([H])c([H])c2C1([H])[H]

$$$$
57:0:0
     RDKit          3D

 88 96  0  0  1  0  0  0  0  0999 V2000
  -28.9740  -21.9860   20.3670 C   0  0  0  0  0  0  0  0  0  0  0  0
  -28.5860  -23.1990   20.2590 C   0  0  0  0  0  0  0  0  0  0  0  0
  -31.2590  -19.3640   22.0650 C   0  0  0  0  0  3  0  0  0  0  0  0
  -30.5820  -20.5360   21.6500 C   0  0  0  0  0  3  0  0  0  0  0  0
  -30.9940  -18.0810   21.5330 C   0  0  0  0  0  3  0  0  0  0  0  0
  -29.3120  -19.1520   20.1380 C   0  0  0  0  0  3  0  0  0  0  0  0
  -29.5720  -20.5380   20.6640 C   0  0  0  0  0  0  0  0  0  0  0  0
  -30.0160  -17.8700   20.5390 C   0  0  0  0  0  0  0  0  0  0  0  0
  -30.5520  -15.1620   20.2220 C   0  0  0  0  0  0  0  0  0  0  0  0
  -30.4500  -12.7510   19.3650 C   0  0  0  0  0  2  0  0  0  0  0  0
  -29.5150  -12.5980   18.1440 C   0  0  0  0  0  2  0  0  0  0  0  0
  -28.0580  -12.3790   18.5980 C   0  0  0  0  0  2  0  0  0  0  0  0
  -27.6330  -13.3360   19.7420 C   0  0  0  0  0  3  0  0  0  0  0  0
  -28.7030  -13.4620   20.8470 C   0  0  0  0  0  2  0  0  0  0  0  0
  -29.9440  -13.8930   20.1870 N   0  0  0  0  0  0  0  0  0  0  0  0
  -31.7840  -15.1540   20.0990 O   0  0  0  0  0  0  0  0  0  0  0  0
  -28.9400  -16.4100   18.8480 C   0  0  0  0  0  1  0  0  0  0  0  0
  -29.8070  -16.4060   20.0310 N   0  0  0  0  0  0  0  0  0  0  0  0
  -25.2790  -13.9210   20.5330 C   0  0  0  0  0  0  0  0  0  0  0  0
  -24.2140  -13.1480   20.8990 C   0  0  0  0  0  0  0  0  0  0  0  0
  -24.6720  -11.7950   20.8470 C   0  0  0  0  0  0  0  0  0  0  0  0
  -26.3110  -13.0370   20.2690 N   0  0  0  0  0  0  0  0  0  0  0  0
  -25.9590  -11.7540   20.5250 N   0  0  0  0  0  0  0  0  0  0  0  0
  -23.9410  -10.5360   21.0250 C   0  0  0  0  0  0  0  0  0  0  0  0
  -24.3790   -9.5530   21.9380 C   0  0  0  0  0  3  0  0  0  0  0  0
  -23.6480   -8.3570   22.1060 C   0  0  0  0  0  3  0  0  0  0  0  0
  -22.4650   -8.1370   21.3620 C   0  0  0  0  0  0  0  0  0  0  0  0
  -22.0460   -9.1110   20.4370 C   0  0  0  0  0  3  0  0  0  0  0  0
  -22.7780  -10.2970   20.2660 C   0  0  0  0  0  3  0  0  0  0  0  0
  -21.7040   -6.9970   21.4420 O   0  0  0  0  0  0  0  0  0  0  0  0
  -21.6620   -6.2380   22.5840 C   0  0  0  0  0  0  0  0  0  0  0  0
  -21.2400   -6.7760   23.8200 C   0  0  0  0  0  3  0  0  0  0  0  0
  -21.1460   -5.9430   24.9540 C   0  0  0  0  0  3  0  0  0  0  0  0
  -21.4630   -4.5750   24.8530 C   0  0  0  0  0  0  0  0  0  0  0  0
  -21.8790   -4.0380   23.6220 C   0  0  0  0  0  3  0  0  0  0  0  0
  -21.9760   -4.8670   22.4900 C   0  0  0  0  0  0  0  0  0  0  0  0
  -22.3570   -4.3410   21.3010 F   0  0  0  0  0  0  0  0  0  0  0  0
  -21.3660   -3.7740   25.9390 F   0  0  0  0  0  0  0  0  0  0  0  0
  -22.8230  -13.6310   21.1850 C   0  0  0  0  0  0  0  0  0  0  0  0
  -22.0960  -12.9280   22.0460 N   0  0  0  0  0  0  0  0  0  0  0  0
  -22.3910  -14.6670   20.6800 O   0  0  0  0  0  0  0  0  0  0  0  0
  -22.4610  -12.0920   22.4780 H   0  0  0  0  0  0  0  0  0  0  0  0
  -21.1610  -13.2330   22.2770 H   0  0  0  0  0  0  0  0  0  0  0  0
  -25.4470  -15.2940   20.3770 N   0  0  0  0  0  0  0  0  0  0  0  0
  -24.6870  -15.9490   20.5310 H   0  0  0  0  0  0  0  0  0  0  0  0
  -26.3040  -15.7430   20.0830 H   0  0  0  0  0  0  0  0  0  0  0  0
  -27.8070  -24.5830   19.9820 C   0  0  0  0  0  2  0  0  0  0  0  0
  -28.1730  -26.0800   20.3400 O   0  0  0  0  0  0  0  0  0  0  0  0
  -24.6140  -31.9250   23.2630 C   0  0  0  0  0  0  0  0  0  0  0  0
  -27.1670  -27.1360   20.2500 C   0  0  0  0  0  0  0  0  0  0  0  0
  -23.4150  -30.5270   21.6300 C   0  0  0  0  0  3  0  0  0  0  0  0
  -24.8610  -28.9440   20.2060 C   0  0  0  0  0  0  0  0  0  0  0  0
  -25.9770  -30.7620   21.4790 C   0  0  0  0  0  2  0  0  0  0  0  0
  -26.0440  -29.3630   20.8280 C   0  0  0  0  0  0  0  0  0  0  0  0
  -27.1940  -28.4760   20.8370 C   0  0  0  0  0  3  0  0  0  0  0  0
  -25.9610  -26.8490   19.5690 C   0  0  0  0  0  3  0  0  0  0  0  0
  -24.8380  -27.7030   19.5560 C   0  0  0  0  0  3  0  0  0  0  0  0
  -23.6390  -29.8510   20.2520 C   0  0  0  0  0  2  0  0  0  0  0  0
  -24.6890  -31.0950   22.1780 N   0  0  0  0  0  0  0  0  0  0  0  0
  -23.5260  -32.2180   23.7840 O   0  0  0  0  0  0  0  0  0  0  0  0
  -22.7280  -29.5260   22.5930 C   0  0  0  0  0  0  0  0  0  0  0  0
  -21.3990  -29.3580   22.4640 N   0  0  0  0  0  0  0  0  0  0  0  0
  -23.3930  -28.9020   23.4240 O   0  0  0  0  0  0  0  0  0  0  0  0
  -20.9150  -29.9110   21.7700 H   0  0  0  0  0  0  0  0  0  0  0  0
  -18.0110  -28.1680   22.9710 C   0  0  0  0  0  0  0  0  0  0  0  0
  -20.5710  -28.4280   23.2390 C   0  0  0  0  0  3  0  0  0  0  0  0
  -20.6700  -26.9910   22.6750 C   0  0  0  0  0  2  0  0  0  0  0  0
  -19.5700  -26.6640   21.6610 C   0  0  0  0  0  2  0  0  0  0  0  0
  -18.1880  -26.8150   22.3020 C   0  0  0  0  0  2  0  0  0  0  0  0
  -19.1310  -28.9320   23.3980 C   0  0  0  0  0  0  0  0  0  0  0  0
  -18.9100  -30.1960   23.9860 C   0  0  0  0  0  3  0  0  0  0  0  0
  -17.6050  -30.6960   24.1510 C   0  0  0  0  0  3  0  0  0  0  0  0
  -16.5000  -29.9300   23.7390 C   0  0  0  0  0  3  0  0  0  0  0  0
  -16.7050  -28.6680   23.1550 C   0  0  0  0  0  3  0  0  0  0  0  0
  -25.8900  -32.5640   23.8890 C   0  0  0  0  0  3  0  0  0  0  0  0
  -25.5800  -33.9670   24.2100 N   0  0  0  0  0  0  0  0  0  0  0  0
  -25.9070  -35.0170   23.4460 C   0  0  0  0  0  0  0  0  0  0  0  0
  -26.5660  -34.9060   22.4080 O   0  0  0  0  0  0  0  0  0  0  0  0
  -24.9930  -34.1260   25.0160 H   0  0  0  0  0  0  0  0  0  0  0  0
  -24.1790  -36.8160   23.1080 C   0  0  0  0  0  1  0  0  0  0  0  0
  -25.4300  -36.4100   23.9030 C   0  0  0  0  0  3  0  0  0  0  0  0
  -27.5750  -37.3000   24.7060 C   0  0  0  0  0  1  0  0  0  0  0  0
  -26.4650  -37.4600   23.7700 N   0  0  0  0  0  0  0  0  0  0  0  0
  -26.0630  -38.3830   23.9100 H   0  0  0  0  0  0  0  0  0  0  0  0
  -26.3910  -31.8050   25.1790 C   0  0  1  0  0  0  0  0  0  0  0  0
  -25.2860  -31.5860   26.2410 C   0  0  0  0  0  1  0  0  0  0  0  0
  -26.9700  -30.4200   24.8140 C   0  0  0  0  0  1  0  0  0  0  0  0
  -27.5410  -32.6010   25.8410 C   0  0  0  0  0  1  0  0  0  0  0  0
  1  7  1  0
  2  1  3  0
  4  3  1  0
  5  3  2  0
  6  8  2  0
  6  7  1  0
  7  4  2  0
  8  5  1  0
 10 15  1  0
 11 12  1  0
 11 10  1  0
 13 12  1  0
 13 22  1  0
 13 14  1  0
 15  9  1  0
 15 14  1  0
 16  9  2  0
 17 18  1  0
 18  9  1  0
 18  8  1  0
 19 20  2  0
 20 39  1  0
 21 20  1  0
 21 24  1  0
 22 23  1  0
 22 19  1  0
 23 21  2  0
 24 25  1  0
 25 26  2  0
 27 30  1  0
 27 26  1  0
 28 27  2  0
 29 28  1  0
 29 24  2  0
 30 31  1  0
 31 32  1  0
 32 33  2  0
 34 33  1  0
 34 38  1  0
 35 34  2  0
 36 31  2  0
 36 35  1  0
 37 36  1  0
 39 40  1  0
 40 43  1  0
 40 42  1  0
 41 39  2  0
 44 45  1  0
 44 19  1  0
 46 44  1  0
 47  2  1  0
 47 48  1  0
 49 60  2  0
 50 48  1  0
 50 55  1  0
 51 59  1  0
 51 61  1  0
 52 58  1  0
 52 54  1  0
 53 59  1  0
 54 55  2  0
 54 53  1  0
 56 50  2  0
 57 56  1  0
 57 52  2  0
 58 51  1  0
 59 49  1  0
 61 63  2  0
 62 61  1  0
 64 62  1  0
 65 74  2  0
 65 70  1  0
 66 62  1  0
 66 70  1  0
 67 66  1  0
 68 69  1  0
 68 67  1  0
 69 65  1  0
 70 71  2  0
 71 72  1  0
 73 72  2  0
 74 73  1  0
 75 49  1  0
 75 76  1  0
 75 85  1  0
 76 79  1  0
 77 81  1  0
 77 76  1  0
 78 77  2  0
 81 80  1  0
 83 81  1  0
 83 84  1  0
 83 82  1  0
 85 88  1  1
 85 86  1  0
 87 85  1  0
M  ISO  4   9 100  18 100  47 101  48 101
M  END
>  <TORSDO>  (58) 
F 18

>  <SCORE>  (58) 
-14.674

>  <name>  (58) 
57

>  <ligand_id>  (58) 
57

>  <original_smiles>  (58) 
[H]c1c([H])c(C#CC([H])([H])Oc2c([H])c([H])c3c(c2[H])C([H])([H])N(C(=O)C([H])(N([H])C(=O)C([H])(N([H])C([H])([H])[H])C([H])([H])[H])C(C([H])([H])[H])(C([H])([H])[H])C([H])([H])[H])C([H])(C(=O)N([H])C2([H])c4c([H])c([H])c([H])c([H])c4C([H])([H])C([H])([H])C2([H])[H])C3([H])[H])c([H])c(N(C(=O)N2C([H])([H])C([H])([H])C([H])([H])C([H])(n3nc(-c4c([H])c([H])c(Oc5c([H])c([H])c(F)c([H])c5F)c([H])c4[H])c(C(=O)N([H])[H])c3N([H])[H])C2([H])[H])C([H])([H])[H])c1[H]

>  <smiles>  (58) 
[H]c1c([H])c(C#CC([H])([H])Oc2c([H])c([H])c3c(c2[H])C([H])([H])N(C(=O)C([H])(N([H])C(=O)C([H])(N([H])C([H])([H])[H])C([H])([H])[H])C(C([H])([H])[H])(C([H])([H])[H])C([H])([H])[H])C([H])(C(=O)N([H])C2([H])c4c([H])c([H])c([H])c([H])c4C([H])([H])C([H])([H])C2([H])[H])C3([H])[H])c([H])c(N(C(=O)N2C([H])([H])C([H])([H])C([H])([H])C([H])(n3nc(-c4c([H])c([H])c(Oc5c([H])c([H])c(F)c([H])c5F)c([H])c4[H])c(C(=O)N([H])[H])c3N([H])[H])C2([H])[H])C([H])([H])[H])c1[H]

$$$$
58:0:0
     RDKit          3D

 93101  0  0  1  0  0  0  0  0999 V2000
  -30.3510  -20.4480   21.7150 C   0  0  0  0  0  0  0  0  0  0  0  0
  -30.6010  -21.5510   20.9950 N   0  0  0  0  0  0  0  0  0  0  0  0
  -29.5760  -20.4150   22.6710 O   0  0  0  0  0  0  0  0  0  0  0  0
  -31.1840  -21.4300   20.1770 H   0  0  0  0  0  0  0  0  0  0  0  0
  -33.2010  -18.1700   20.6060 C   0  0  0  0  0  3  0  0  0  0  0  0
  -32.4790  -19.3140   20.9870 C   0  0  0  0  0  3  0  0  0  0  0  0
  -32.5430  -16.9330   20.5030 C   0  0  0  0  0  3  0  0  0  0  0  0
  -30.4510  -17.9670   21.2060 C   0  0  0  0  0  3  0  0  0  0  0  0
  -31.1000  -19.2240   21.2800 C   0  0  0  0  0  0  0  0  0  0  0  0
  -31.1550  -16.8180   20.7760 C   0  0  0  0  0  0  0  0  0  0  0  0
  -30.8140  -14.5950   19.7710 C   0  0  0  0  0  0  0  0  0  0  0  0
  -30.3580  -12.3860   18.7920 C   0  0  0  0  0  2  0  0  0  0  0  0
  -29.3200  -12.4780   17.6590 C   0  0  0  0  0  2  0  0  0  0  0  0
  -27.9020  -12.3350   18.2360 C   0  0  0  0  0  2  0  0  0  0  0  0
  -27.6500  -13.2770   19.4440 C   0  0  0  0  0  3  0  0  0  0  0  0
  -28.8050  -13.2080   20.4730 C   0  0  0  0  0  2  0  0  0  0  0  0
  -30.0770  -13.4500   19.7710 N   0  0  0  0  0  0  0  0  0  0  0  0
  -31.7650  -14.7470   19.0030 O   0  0  0  0  0  0  0  0  0  0  0  0
  -30.4640  -15.5720   20.6310 N   0  0  0  0  0  0  0  0  0  0  0  0
  -29.6000  -15.4500   21.1360 H   0  0  0  0  0  0  0  0  0  0  0  0
  -25.3790  -13.8930   20.4840 C   0  0  0  0  0  0  0  0  0  0  0  0
  -24.3290  -13.1260   20.9140 C   0  0  0  0  0  0  0  0  0  0  0  0
  -24.7250  -11.7680   20.7160 C   0  0  0  0  0  0  0  0  0  0  0  0
  -26.3530  -13.0040   20.0600 N   0  0  0  0  0  0  0  0  0  0  0  0
  -25.9680  -11.7160   20.2540 N   0  0  0  0  0  0  0  0  0  0  0  0
  -23.9730  -10.5170   20.8860 C   0  0  0  0  0  0  0  0  0  0  0  0
  -24.4060   -9.5090   21.7750 C   0  0  0  0  0  3  0  0  0  0  0  0
  -23.6540   -8.3240   21.9360 C   0  0  0  0  0  3  0  0  0  0  0  0
  -22.4550   -8.1410   21.2070 C   0  0  0  0  0  0  0  0  0  0  0  0
  -22.0410   -9.1380   20.3070 C   0  0  0  0  0  3  0  0  0  0  0  0
  -22.7930  -10.3130   20.1440 C   0  0  0  0  0  3  0  0  0  0  0  0
  -21.6750   -7.0110   21.2790 O   0  0  0  0  0  0  0  0  0  0  0  0
  -21.5800   -6.2750   22.4330 C   0  0  0  0  0  0  0  0  0  0  0  0
  -21.0890   -6.8320   23.6350 C   0  0  0  0  0  3  0  0  0  0  0  0
  -20.9430   -6.0220   24.7780 C   0  0  0  0  0  3  0  0  0  0  0  0
  -21.2770   -4.6550   24.7210 C   0  0  0  0  0  0  0  0  0  0  0  0
  -21.7620   -4.0980   23.5250 C   0  0  0  0  0  3  0  0  0  0  0  0
  -21.9090   -4.9050   22.3830 C   0  0  0  0  0  0  0  0  0  0  0  0
  -22.3560   -4.3570   21.2270 F   0  0  0  0  0  0  0  0  0  0  0  0
  -21.1300   -3.8750   25.8170 F   0  0  0  0  0  0  0  0  0  0  0  0
  -22.9950  -13.6220   21.3910 C   0  0  0  0  0  0  0  0  0  0  0  0
  -22.3420  -12.8710   22.2710 N   0  0  0  0  0  0  0  0  0  0  0  0
  -22.5460  -14.7080   21.0250 O   0  0  0  0  0  0  0  0  0  0  0  0
  -22.7210  -11.9890   22.5860 H   0  0  0  0  0  0  0  0  0  0  0  0
  -21.4510  -13.1800   22.6340 H   0  0  0  0  0  0  0  0  0  0  0  0
  -25.5810  -15.2670   20.4010 N   0  0  0  0  0  0  0  0  0  0  0  0
  -24.8640  -15.9400   20.6510 H   0  0  0  0  0  0  0  0  0  0  0  0
  -26.4140  -15.7000   20.0190 H   0  0  0  0  0  0  0  0  0  0  0  0
  -30.2210  -22.9130   21.3580 C   0  0  0  0  0  2  0  0  0  0  0  0
  -29.4500  -23.6270   20.2390 C   0  0  0  0  0  2  0  0  0  0  0  0
  -29.0260  -25.0390   20.6630 C   0  0  0  0  0  2  0  0  0  0  0  0
  -28.1470  -25.7410   19.6210 C   0  0  0  0  0  2  0  0  0  0  0  0
  -28.1250  -27.1350   19.9240 O   0  0  0  0  0  0  0  0  0  0  0  0
  -24.5020  -32.1170   23.4350 C   0  0  0  0  0  0  0  0  0  0  0  0
  -26.9240  -27.8050   20.0180 C   0  0  0  0  0  0  0  0  0  0  0  0
  -23.1830  -30.7750   21.8260 C   0  0  0  0  0  3  0  0  0  0  0  0
  -24.5330  -29.2960   20.2470 C   0  0  0  0  0  0  0  0  0  0  0  0
  -25.6870  -31.1460   21.4710 C   0  0  0  0  0  2  0  0  0  0  0  0
  -25.7250  -29.8000   20.7800 C   0  0  0  0  0  0  0  0  0  0  0  0
  -26.9210  -29.0590   20.6660 C   0  0  0  0  0  3  0  0  0  0  0  0
  -25.7140  -27.3160   19.4720 C   0  0  0  0  0  3  0  0  0  0  0  0
  -24.5190  -28.0520   19.5930 C   0  0  0  0  0  3  0  0  0  0  0  0
  -23.2990  -30.1550   20.4070 C   0  0  0  0  0  2  0  0  0  0  0  0
  -24.4790  -31.3580   22.3030 N   0  0  0  0  0  0  0  0  0  0  0  0
  -23.4600  -32.3730   24.0560 O   0  0  0  0  0  0  0  0  0  0  0  0
  -22.5970  -29.7160   22.7880 C   0  0  0  0  0  0  0  0  0  0  0  0
  -21.3080  -29.3900   22.6000 N   0  0  0  0  0  0  0  0  0  0  0  0
  -23.2990  -29.1960   23.6590 O   0  0  0  0  0  0  0  0  0  0  0  0
  -20.8040  -29.8680   21.8680 H   0  0  0  0  0  0  0  0  0  0  0  0
  -18.1060  -27.7330   22.8500 C   0  0  0  0  0  0  0  0  0  0  0  0
  -20.5550  -28.3920   23.3580 C   0  0  0  0  0  3  0  0  0  0  0  0
  -20.9260  -26.9580   22.9140 C   0  0  0  0  0  2  0  0  0  0  0  0
  -20.0020  -26.4060   21.8240 C   0  0  0  0  0  2  0  0  0  0  0  0
  -18.5510  -26.3830   22.3110 C   0  0  0  0  0  2  0  0  0  0  0  0
  -19.0490  -28.6820   23.3270 C   0  0  0  0  0  0  0  0  0  0  0  0
  -18.5890  -29.9370   23.7830 C   0  0  0  0  0  3  0  0  0  0  0  0
  -17.2160  -30.2470   23.7710 C   0  0  0  0  0  3  0  0  0  0  0  0
  -16.2860  -29.2970   23.3160 C   0  0  0  0  0  3  0  0  0  0  0  0
  -16.7300  -28.0430   22.8590 C   0  0  0  0  0  3  0  0  0  0  0  0
  -25.8300  -32.7220   23.9870 C   0  0  0  0  0  3  0  0  0  0  0  0
  -25.5820  -34.1410   24.2800 N   0  0  0  0  0  0  0  0  0  0  0  0
  -25.9200  -35.1550   23.4710 C   0  0  0  0  0  0  0  0  0  0  0  0
  -26.5460  -34.9950   22.4200 O   0  0  0  0  0  0  0  0  0  0  0  0
  -25.0280  -34.3420   25.0990 H   0  0  0  0  0  0  0  0  0  0  0  0
  -24.2430  -36.9910   23.1050 C   0  0  0  0  0  1  0  0  0  0  0  0
  -25.4930  -36.5730   23.8950 C   0  0  0  0  0  3  0  0  0  0  0  0
  -27.6740  -37.4140   24.6440 C   0  0  0  0  0  1  0  0  0  0  0  0
  -26.5580  -37.5840   23.7180 N   0  0  0  0  0  0  0  0  0  0  0  0
  -26.1860  -38.5230   23.8400 H   0  0  0  0  0  0  0  0  0  0  0  0
  -26.3720  -31.9740   25.2660 C   0  0  1  0  0  0  0  0  0  0  0  0
  -25.2940  -31.7400   26.3510 C   0  0  0  0  0  1  0  0  0  0  0  0
  -26.9540  -30.5940   24.8790 C   0  0  0  0  0  1  0  0  0  0  0  0
  -27.5230  -32.7880   25.9040 C   0  0  0  0  0  1  0  0  0  0  0  0
  1  3  2  0
  2 49  1  0
  2  1  1  0
  4  2  1  0
  5  6  1  0
  6  9  2  0
  7  5  2  0
  7 10  1  0
  8  9  1  0
  9  1  1  0
 10  8  2  0
 11 19  1  0
 12 17  1  0
 13 14  1  0
 13 12  1  0
 15 14  1  0
 15 24  1  0
 15 16  1  0
 17 11  1  0
 17 16  1  0
 18 11  2  0
 19 10  1  0
 19 20  1  0
 21 22  2  0
 22 41  1  0
 23 26  1  0
 23 22  1  0
 24 25  1  0
 24 21  1  0
 25 23  2  0
 26 27  1  0
 27 28  2  0
 29 32  1  0
 29 28  1  0
 30 29  2  0
 31 30  1  0
 31 26  2  0
 32 33  1  0
 33 34  1  0
 34 35  2  0
 36 35  1  0
 36 40  1  0
 37 36  2  0
 38 33  2  0
 38 37  1  0
 39 38  1  0
 41 42  1  0
 42 44  1  0
 42 45  1  0
 43 41  2  0
 46 21  1  0
 46 47  1  0
 48 46  1  0
 50 51  1  0
 50 49  1  0
 52 53  1  0
 52 51  1  0
 53 55  1  0
 54 65  2  0
 55 60  1  0
 56 64  1  0
 56 66  1  0
 57 63  1  0
 57 59  1  0
 58 64  1  0
 59 58  1  0
 60 59  2  0
 61 62  1  0
 61 55  2  0
 62 57  2  0
 63 56  1  0
 64 54  1  0
 66 68  2  0
 67 66  1  0
 69 67  1  0
 70 79  2  0
 70 75  1  0
 71 67  1  0
 72 71  1  0
 73 74  1  0
 73 72  1  0
 74 70  1  0
 75 71  1  0
 75 76  2  0
 77 76  1  0
 78 77  2  0
 79 78  1  0
 80 54  1  0
 80 81  1  0
 80 90  1  0
 81 84  1  0
 82 86  1  0
 82 81  1  0
 83 82  2  0
 86 85  1  0
 88 89  1  0
 88 86  1  0
 88 87  1  0
 90 93  1  1
 90 91  1  0
 92 90  1  0
M  ISO  4  11 100  19 100  52 101  53 101
M  END
>  <TORSDO>  (59) 
F 21

>  <SCORE>  (59) 
-11.874

>  <name>  (59) 
58

>  <ligand_id>  (59) 
58

>  <original_smiles>  (59) 
[H]c1c([H])c(C(=O)N([H])C([H])([H])C([H])([H])C([H])([H])C([H])([H])Oc2c([H])c([H])c3c(c2[H])C([H])([H])N(C(=O)C([H])(N([H])C(=O)C([H])(N([H])C([H])([H])[H])C([H])([H])[H])C(C([H])([H])[H])(C([H])([H])[H])C([H])([H])[H])C([H])(C(=O)N([H])C2([H])c4c([H])c([H])c([H])c([H])c4C([H])([H])C([H])([H])C2([H])[H])C3([H])[H])c([H])c(N([H])C(=O)N2C([H])([H])C([H])([H])C([H])([H])C([H])(n3nc(-c4c([H])c([H])c(Oc5c([H])c([H])c(F)c([H])c5F)c([H])c4[H])c(C(=O)N([H])[H])c3N([H])[H])C2([H])[H])c1[H]

>  <smiles>  (59) 
[H]c1c([H])c(C(=O)N([H])C([H])([H])C([H])([H])C([H])([H])C([H])([H])Oc2c([H])c([H])c3c(c2[H])C([H])([H])N(C(=O)C([H])(N([H])C(=O)C([H])(N([H])C([H])([H])[H])C([H])([H])[H])C(C([H])([H])[H])(C([H])([H])[H])C([H])([H])[H])C([H])(C(=O)N([H])C2([H])c4c([H])c([H])c([H])c([H])c4C([H])([H])C([H])([H])C2([H])[H])C3([H])[H])c([H])c(N([H])C(=O)N2C([H])([H])C([H])([H])C([H])([H])C([H])(n3nc(-c4c([H])c([H])c(Oc5c([H])c([H])c(F)c([H])c5F)c([H])c4[H])c(C(=O)N([H])[H])c3N([H])[H])C2([H])[H])c1[H]

$$$$
59:0:0
     RDKit          3D

 83 90  0  0  1  0  0  0  0  0999 V2000
  -27.9490  -23.9120   20.2000 C   0  0  0  0  0  3  0  0  0  0  0  0
  -28.1500  -25.6420   20.2980 O   0  0  0  0  0  0  0  0  0  0  0  0
  -24.6720  -31.8880   23.2420 C   0  0  0  0  0  0  0  0  0  0  0  0
  -27.1710  -26.8340   20.2470 C   0  0  0  0  0  0  0  0  0  0  0  0
  -23.4710  -30.4970   21.6080 C   0  0  0  0  0  3  0  0  0  0  0  0
  -24.9060  -28.8480   20.1930 C   0  0  0  0  0  0  0  0  0  0  0  0
  -26.0490  -30.6390   21.4750 C   0  0  0  0  0  2  0  0  0  0  0  0
  -26.1040  -29.2100   20.8200 C   0  0  0  0  0  0  0  0  0  0  0  0
  -27.2230  -28.2300   20.8150 C   0  0  0  0  0  3  0  0  0  0  0  0
  -25.9390  -26.6690   19.5680 C   0  0  0  0  0  3  0  0  0  0  0  0
  -24.8600  -27.6020   19.5430 C   0  0  0  0  0  3  0  0  0  0  0  0
  -23.7020  -29.8000   20.2370 C   0  0  0  0  0  2  0  0  0  0  0  0
  -24.7550  -31.0400   22.1610 N   0  0  0  0  0  0  0  0  0  0  0  0
  -23.5830  -32.1920   23.7560 O   0  0  0  0  0  0  0  0  0  0  0  0
  -22.7560  -29.5220   22.5800 C   0  0  0  0  0  0  0  0  0  0  0  0
  -21.4230  -29.3690   22.4550 N   0  0  0  0  0  0  0  0  0  0  0  0
  -23.4110  -28.8980   23.4200 O   0  0  0  0  0  0  0  0  0  0  0  0
  -20.9460  -29.9220   21.7570 H   0  0  0  0  0  0  0  0  0  0  0  0
  -18.0330  -28.1690   22.9680 C   0  0  0  0  0  0  0  0  0  0  0  0
  -20.5930  -28.4390   23.2300 C   0  0  0  0  0  3  0  0  0  0  0  0
  -20.6940  -27.0020   22.6640 C   0  0  0  0  0  2  0  0  0  0  0  0
  -19.5940  -26.6750   21.6500 C   0  0  0  0  0  2  0  0  0  0  0  0
  -18.2110  -26.8200   22.2910 C   0  0  0  0  0  2  0  0  0  0  0  0
  -19.1500  -28.9350   23.3940 C   0  0  0  0  0  0  0  0  0  0  0  0
  -18.9270  -30.1950   23.9910 C   0  0  0  0  0  3  0  0  0  0  0  0
  -17.6200  -30.6890   24.1620 C   0  0  0  0  0  3  0  0  0  0  0  0
  -16.5170  -29.9210   23.7490 C   0  0  0  0  0  3  0  0  0  0  0  0
  -16.7250  -28.6620   23.1580 C   0  0  0  0  0  3  0  0  0  0  0  0
  -25.9420  -32.5310   23.8780 C   0  0  0  0  0  3  0  0  0  0  0  0
  -26.4400  -31.7670   25.1680 C   0  0  1  0  0  0  0  0  0  0  0  0
  -25.3350  -31.5460   26.2290 C   0  0  0  0  0  1  0  0  0  0  0  0
  -27.0170  -30.3800   24.8050 C   0  0  0  0  0  1  0  0  0  0  0  0
  -27.5910  -32.5580   25.8350 C   0  0  0  0  0  1  0  0  0  0  0  0
  -25.6270  -33.9320   24.2180 N   0  0  0  0  0  0  0  0  0  0  0  0
  -25.9330  -34.9970   23.4640 C   0  0  0  0  0  0  0  0  0  0  0  0
  -26.5690  -34.9020   22.4100 O   0  0  0  0  0  0  0  0  0  0  0  0
  -25.0570  -34.0770   25.0370 H   0  0  0  0  0  0  0  0  0  0  0  0
  -24.1800  -36.7890   23.2110 C   0  0  0  0  0  1  0  0  0  0  0  0
  -25.4650  -36.3850   23.9520 C   0  0  0  0  0  3  0  0  0  0  0  0
  -27.6320  -37.2910   24.6730 C   0  0  0  0  0  1  0  0  0  0  0  0
  -26.4840  -37.4450   23.7830 N   0  0  0  0  0  0  0  0  0  0  0  0
  -26.0790  -38.3630   23.9460 H   0  0  0  0  0  0  0  0  0  0  0  0
  -28.9470  -22.2690   20.2790 C   0  0  0  0  0  3  0  0  0  0  0  0
  -28.7110  -20.3580   20.2370 C   0  0  0  0  0  3  0  0  0  0  0  0
  -29.7530  -18.7430   20.2450 C   0  0  0  0  0  3  0  0  0  0  0  0
  -30.2820  -15.6460   20.1480 C   0  0  0  0  0  0  0  0  0  0  0  0
  -30.3500  -13.1330   19.2860 C   0  0  0  0  0  2  0  0  0  0  0  0
  -29.4300  -12.7740   18.0850 C   0  0  0  0  0  2  0  0  0  0  0  0
  -28.0130  -12.4240   18.5630 C   0  0  0  0  0  2  0  0  0  0  0  0
  -27.5300  -13.4030   19.6600 C   0  0  0  0  0  3  0  0  0  0  0  0
  -28.5860  -13.6800   20.7550 C   0  0  0  0  0  2  0  0  0  0  0  0
  -29.7510  -14.2930   20.0790 N   0  0  0  0  0  0  0  0  0  0  0  0
  -31.5110  -15.5990   19.9480 O   0  0  0  0  0  0  0  0  0  0  0  0
  -29.5270  -16.9940   20.2480 N   0  0  0  0  0  0  0  0  0  0  0  0
  -28.5450  -16.7820   20.3500 H   0  0  0  0  0  0  0  0  0  0  0  0
  -25.1770  -13.9060   20.4730 C   0  0  0  0  0  0  0  0  0  0  0  0
  -24.1340  -13.1120   20.8550 C   0  0  0  0  0  0  0  0  0  0  0  0
  -24.6200  -11.7680   20.8040 C   0  0  0  0  0  0  0  0  0  0  0  0
  -26.2270  -13.0500   20.2020 N   0  0  0  0  0  0  0  0  0  0  0  0
  -25.9070  -11.7560   20.4690 N   0  0  0  0  0  0  0  0  0  0  0  0
  -23.9110  -10.4960   20.9970 C   0  0  0  0  0  0  0  0  0  0  0  0
  -24.3510   -9.5380   21.9370 C   0  0  0  0  0  3  0  0  0  0  0  0
  -23.6360   -8.3340   22.1190 C   0  0  0  0  0  3  0  0  0  0  0  0
  -22.4690   -8.0770   21.3610 C   0  0  0  0  0  0  0  0  0  0  0  0
  -22.0480   -9.0240   20.4100 C   0  0  0  0  0  3  0  0  0  0  0  0
  -22.7630  -10.2200   20.2260 C   0  0  0  0  0  3  0  0  0  0  0  0
  -21.7270   -6.9240   21.4530 O   0  0  0  0  0  0  0  0  0  0  0  0
  -21.6590   -6.2030   22.6170 C   0  0  0  0  0  0  0  0  0  0  0  0
  -21.1670   -6.7650   23.8150 C   0  0  0  0  0  3  0  0  0  0  0  0
  -21.0490   -5.9670   24.9700 C   0  0  0  0  0  3  0  0  0  0  0  0
  -21.4130   -4.6090   24.9290 C   0  0  0  0  0  0  0  0  0  0  0  0
  -21.8990   -4.0450   23.7360 C   0  0  0  0  0  3  0  0  0  0  0  0
  -22.0180   -4.8400   22.5820 C   0  0  0  0  0  0  0  0  0  0  0  0
  -22.4660   -4.2870   21.4300 F   0  0  0  0  0  0  0  0  0  0  0  0
  -21.2940   -3.8400   26.0380 F   0  0  0  0  0  0  0  0  0  0  0  0
  -22.7360  -13.5700   21.1460 C   0  0  0  0  0  0  0  0  0  0  0  0
  -22.0320  -12.8660   22.0240 N   0  0  0  0  0  0  0  0  0  0  0  0
  -22.2780  -14.5880   20.6300 O   0  0  0  0  0  0  0  0  0  0  0  0
  -22.4170  -12.0420   22.4630 H   0  0  0  0  0  0  0  0  0  0  0  0
  -21.0930  -13.1550   22.2630 H   0  0  0  0  0  0  0  0  0  0  0  0
  -25.3150  -15.2810   20.3020 N   0  0  0  0  0  0  0  0  0  0  0  0
  -24.5370  -15.9190   20.4270 H   0  0  0  0  0  0  0  0  0  0  0  0
  -26.1390  -15.7310   19.9280 H   0  0  0  0  0  0  0  0  0  0  0  0
  1 43  2  0
  1  2  1  0
  3 14  2  0
  4  2  1  0
  4  9  1  0
  5 13  1  0
  5 15  1  0
  6 12  1  0
  6  8  1  0
  7 13  1  0
  8  7  1  0
  9  8  2  0
 10  4  2  0
 11 10  1  0
 11  6  2  0
 12  5  1  0
 13  3  1  0
 15 17  2  0
 16 15  1  0
 18 16  1  0
 19 28  2  0
 19 24  1  0
 20 16  1  0
 20 24  1  0
 21 20  1  0
 22 23  1  0
 22 21  1  0
 23 19  1  0
 24 25  2  0
 25 26  1  0
 27 26  2  0
 28 27  1  0
 29  3  1  0
 29 34  1  0
 29 30  1  0
 30 33  1  1
 30 31  1  0
 32 30  1  0
 34 37  1  0
 35 39  1  0
 35 34  1  0
 36 35  2  0
 39 38  1  0
 41 42  1  0
 41 39  1  0
 41 40  1  0
 44 45  2  0
 44 43  1  0
 45 54  1  0
 46 54  1  0
 47 52  1  0
 48 49  1  0
 48 47  1  0
 50 49  1  0
 50 59  1  0
 50 51  1  0
 52 46  1  0
 52 51  1  0
 53 46  2  0
 54 55  1  0
 56 57  2  0
 57 76  1  0
 58 57  1  0
 58 61  1  0
 59 60  1  0
 59 56  1  0
 60 58  2  0
 61 62  1  0
 62 63  2  0
 64 67  1  0
 64 63  1  0
 65 64  2  0
 66 65  1  0
 66 61  2  0
 67 68  1  0
 68 69  1  0
 69 70  2  0
 71 70  1  0
 71 75  1  0
 72 71  2  0
 73 68  2  0
 73 72  1  0
 74 73  1  0
 76 77  1  0
 77 80  1  0
 77 79  1  0
 78 76  2  0
 81 82  1  0
 81 56  1  0
 83 81  1  0
M  ISO  4   1 101   2 101  46 100  54 100
M  END
>  <TORSDO>  (60) 
F 19

>  <SCORE>  (60) 
-16.287

>  <name>  (60) 
59

>  <ligand_id>  (60) 
59

>  <original_smiles>  (60) 
[H]c1c([H])c([H])c2c(c1[H])C([H])([H])C([H])([H])C([H])([H])C2([H])N([H])C(=O)C1([H])N(C(=O)C([H])(N([H])C(=O)C([H])(N([H])C([H])([H])[H])C([H])([H])[H])C(C([H])([H])[H])(C([H])([H])[H])C([H])([H])[H])C([H])([H])c2c([H])c(OC([H])([H])C([H])([H])C([H])([H])C([H])([H])N([H])C(=O)N3C([H])([H])C([H])([H])C([H])([H])C([H])(n4nc(-c5c([H])c([H])c(Oc6c([H])c([H])c(F)c([H])c6F)c([H])c5[H])c(C(=O)N([H])[H])c4N([H])[H])C3([H])[H])c([H])c([H])c2C1([H])[H]

>  <smiles>  (60) 
[H]c1c([H])c([H])c2c(c1[H])C([H])([H])C([H])([H])C([H])([H])C2([H])N([H])C(=O)C1([H])N(C(=O)C([H])(N([H])C(=O)C([H])(N([H])C([H])([H])[H])C([H])([H])[H])C(C([H])([H])[H])(C([H])([H])[H])C([H])([H])[H])C([H])([H])c2c([H])c(OC([H])([H])C([H])([H])C([H])([H])C([H])([H])N([H])C(=O)N3C([H])([H])C([H])([H])C([H])([H])C([H])(n4nc(-c5c([H])c([H])c(Oc6c([H])c([H])c(F)c([H])c6F)c([H])c5[H])c(C(=O)N([H])[H])c4N([H])[H])C3([H])[H])c([H])c([H])c2C1([H])[H]

$$$$
60:0:0
     RDKit          3D

 92100  0  0  1  0  0  0  0  0999 V2000
  -30.7630  -18.6680   20.3550 C   0  0  0  0  0  3  0  0  0  0  0  0
  -30.5130  -20.1200   20.2850 C   0  0  0  0  0  3  0  0  0  0  0  0
  -28.2410  -19.6940   19.9020 C   0  0  0  0  0  3  0  0  0  0  0  0
  -28.4710  -18.2770   19.9800 C   0  0  0  0  0  0  0  0  0  0  0  0
  -29.7450  -17.6470   20.2020 C   0  0  0  0  0  0  0  0  0  0  0  0
  -29.2150  -20.7090   20.0440 C   0  0  0  0  0  0  0  0  0  0  0  0
  -30.5790  -14.9720   19.9370 C   0  0  0  0  0  0  0  0  0  0  0  0
  -30.3600  -12.6460   18.9380 C   0  0  0  0  0  2  0  0  0  0  0  0
  -29.3360  -12.6530   17.7760 C   0  0  0  0  0  2  0  0  0  0  0  0
  -27.9030  -12.4380   18.3020 C   0  0  0  0  0  2  0  0  0  0  0  0
  -27.5840  -13.3250   19.5330 C   0  0  0  0  0  3  0  0  0  0  0  0
  -28.7270  -13.2970   20.5780 C   0  0  0  0  0  2  0  0  0  0  0  0
  -29.9700  -13.7130   19.9020 N   0  0  0  0  0  0  0  0  0  0  0  0
  -31.7410  -15.0640   19.5290 O   0  0  0  0  0  0  0  0  0  0  0  0
  -29.7940  -16.1000   20.2770 N   0  0  0  0  0  0  0  0  0  0  0  0
  -28.9010  -15.7460   20.5900 H   0  0  0  0  0  0  0  0  0  0  0  0
  -25.2310  -13.8610   20.4260 C   0  0  0  0  0  0  0  0  0  0  0  0
  -24.2040  -13.0870   20.8650 C   0  0  0  0  0  0  0  0  0  0  0  0
  -24.6690  -11.7450   20.7630 C   0  0  0  0  0  0  0  0  0  0  0  0
  -26.2760  -13.0090   20.1110 N   0  0  0  0  0  0  0  0  0  0  0  0
  -25.9410  -11.7180   20.3710 N   0  0  0  0  0  0  0  0  0  0  0  0
  -23.9450  -10.4880   20.9560 C   0  0  0  0  0  0  0  0  0  0  0  0
  -24.3930   -9.5150   21.8740 C   0  0  0  0  0  3  0  0  0  0  0  0
  -23.6630   -8.3230   22.0600 C   0  0  0  0  0  3  0  0  0  0  0  0
  -22.4710   -8.0990   21.3290 C   0  0  0  0  0  0  0  0  0  0  0  0
  -22.0420   -9.0630   20.4010 C   0  0  0  0  0  3  0  0  0  0  0  0
  -22.7730  -10.2460   20.2130 C   0  0  0  0  0  3  0  0  0  0  0  0
  -21.7120   -6.9590   21.4280 O   0  0  0  0  0  0  0  0  0  0  0  0
  -21.6430   -6.2420   22.5950 C   0  0  0  0  0  0  0  0  0  0  0  0
  -21.1540   -6.8100   23.7910 C   0  0  0  0  0  3  0  0  0  0  0  0
  -21.0360   -6.0170   24.9490 C   0  0  0  0  0  3  0  0  0  0  0  0
  -21.3980   -4.6560   24.9120 C   0  0  0  0  0  0  0  0  0  0  0  0
  -21.8810   -4.0880   23.7200 C   0  0  0  0  0  3  0  0  0  0  0  0
  -22.0010   -4.8790   22.5640 C   0  0  0  0  0  0  0  0  0  0  0  0
  -22.4480   -4.3220   21.4130 F   0  0  0  0  0  0  0  0  0  0  0  0
  -21.2750   -3.8920   26.0220 F   0  0  0  0  0  0  0  0  0  0  0  0
  -22.8330  -13.5730   21.2400 C   0  0  0  0  0  0  0  0  0  0  0  0
  -22.1630  -12.8680   22.1440 N   0  0  0  0  0  0  0  0  0  0  0  0
  -22.3710  -14.6150   20.7760 O   0  0  0  0  0  0  0  0  0  0  0  0
  -22.5520  -12.0280   22.5440 H   0  0  0  0  0  0  0  0  0  0  0  0
  -21.2470  -13.1750   22.4420 H   0  0  0  0  0  0  0  0  0  0  0  0
  -25.3080  -15.2200   20.2340 N   0  0  0  0  0  0  0  0  0  0  0  0
  -24.5150  -15.8270   20.4010 H   0  0  0  0  0  0  0  0  0  0  0  0
  -26.0720  -15.6880   19.7620 H   0  0  0  0  0  0  0  0  0  0  0  0
  -27.2710  -17.4020   19.7360 C   0  0  1  0  0  0  0  0  0  0  0  0
  -26.1090  -18.0590   19.6850 F   0  0  0  0  0  0  0  0  0  0  0  0
  -27.4940  -16.8340   18.5490 F   0  0  0  0  0  0  0  0  0  0  0  0
  -27.1940  -16.4780   20.6950 F   0  0  0  0  0  0  0  0  0  0  0  0
  -28.7030  -22.0650   19.8650 O   0  0  0  0  0  0  0  0  0  0  0  0
  -29.2230  -23.4750   20.1090 C   0  0  0  0  0  3  0  0  0  0  0  0
  -28.1770  -24.7570   19.8220 C   0  0  0  0  0  3  0  0  0  0  0  0
  -28.3620  -26.2660   20.0930 O   0  0  0  0  0  0  0  0  0  0  0  0
  -24.5380  -31.7520   23.1350 C   0  0  0  0  0  0  0  0  0  0  0  0
  -27.2570  -27.1850   20.0350 C   0  0  0  0  0  0  0  0  0  0  0  0
  -23.3820  -30.3760   21.4440 C   0  0  0  0  0  3  0  0  0  0  0  0
  -24.8790  -28.8570   20.0110 C   0  0  0  0  0  0  0  0  0  0  0  0
  -25.9300  -30.6950   21.3220 C   0  0  0  0  0  2  0  0  0  0  0  0
  -26.0390  -29.3220   20.6420 C   0  0  0  0  0  0  0  0  0  0  0  0
  -27.2250  -28.5030   20.6370 C   0  0  0  0  0  3  0  0  0  0  0  0
  -26.0630  -26.8080   19.3760 C   0  0  0  0  0  3  0  0  0  0  0  0
  -24.9010  -27.6120   19.3640 C   0  0  0  0  0  3  0  0  0  0  0  0
  -23.6340  -29.7290   20.0560 C   0  0  0  0  0  2  0  0  0  0  0  0
  -24.6350  -30.9610   22.0230 N   0  0  0  0  0  0  0  0  0  0  0  0
  -23.4410  -32.0090   23.6520 O   0  0  0  0  0  0  0  0  0  0  0  0
  -22.7030  -29.3400   22.3730 C   0  0  0  0  0  0  0  0  0  0  0  0
  -21.3710  -29.1930   22.2570 N   0  0  0  0  0  0  0  0  0  0  0  0
  -23.3760  -28.6720   23.1620 O   0  0  0  0  0  0  0  0  0  0  0  0
  -20.8850  -29.7840   21.5960 H   0  0  0  0  0  0  0  0  0  0  0  0
  -17.9710  -28.0680   22.8010 C   0  0  0  0  0  0  0  0  0  0  0  0
  -20.5440  -28.2380   23.0000 C   0  0  0  0  0  3  0  0  0  0  0  0
  -20.5830  -26.8390   22.3410 C   0  0  0  0  0  2  0  0  0  0  0  0
  -19.4400  -26.6090   21.3460 C   0  0  0  0  0  2  0  0  0  0  0  0
  -18.0840  -26.7570   22.0420 C   0  0  0  0  0  2  0  0  0  0  0  0
  -19.1260  -28.7710   23.2360 C   0  0  0  0  0  0  0  0  0  0  0  0
  -18.9650  -30.0020   23.9100 C   0  0  0  0  0  3  0  0  0  0  0  0
  -17.6810  -30.5290   24.1490 C   0  0  0  0  0  3  0  0  0  0  0  0
  -16.5410  -29.8220   23.7280 C   0  0  0  0  0  3  0  0  0  0  0  0
  -16.6880  -28.5930   23.0590 C   0  0  0  0  0  3  0  0  0  0  0  0
  -25.7980  -32.3880   23.7950 C   0  0  0  0  0  3  0  0  0  0  0  0
  -26.2840  -31.6100   25.0800 C   0  0  1  0  0  0  0  0  0  0  0  0
  -25.1650  -31.3650   26.1200 C   0  0  0  0  0  1  0  0  0  0  0  0
  -26.8780  -30.2350   24.6980 C   0  0  0  0  0  1  0  0  0  0  0  0
  -27.4170  -32.4020   25.7750 C   0  0  0  0  0  1  0  0  0  0  0  0
  -25.4720  -33.7820   24.1330 N   0  0  0  0  0  0  0  0  0  0  0  0
  -25.8050  -34.8460   23.3910 C   0  0  0  0  0  0  0  0  0  0  0  0
  -26.4870  -34.7580   22.3660 O   0  0  0  0  0  0  0  0  0  0  0  0
  -24.8660  -33.9230   24.9280 H   0  0  0  0  0  0  0  0  0  0  0  0
  -24.0700  -36.6360   23.0380 C   0  0  0  0  0  1  0  0  0  0  0  0
  -25.3050  -36.2280   23.8580 C   0  0  0  0  0  3  0  0  0  0  0  0
  -27.4190  -37.1240   24.7290 C   0  0  0  0  0  1  0  0  0  0  0  0
  -26.3330  -37.2880   23.7670 N   0  0  0  0  0  0  0  0  0  0  0  0
  -25.9180  -38.2050   23.9100 H   0  0  0  0  0  0  0  0  0  0  0  0
  2  1  1  0
  3  4  2  0
  3  6  1  0
  4  5  1  0
  5 15  1  0
  5  1  2  0
  6  2  2  0
  7 15  1  0
  8 13  1  0
  9 10  1  0
  9  8  1  0
 11 10  1  0
 11 20  1  0
 11 12  1  0
 13  7  1  0
 13 12  1  0
 14  7  2  0
 15 16  1  0
 17 18  2  0
 18 37  1  0
 19 18  1  0
 19 22  1  0
 20 21  1  0
 20 17  1  0
 21 19  2  0
 22 23  1  0
 23 24  2  0
 25 28  1  0
 25 24  1  0
 26 25  2  0
 27 26  1  0
 27 22  2  0
 28 29  1  0
 29 30  1  0
 30 31  2  0
 32 31  1  0
 32 36  1  0
 33 32  2  0
 34 29  2  0
 34 33  1  0
 35 34  1  0
 37 38  1  0
 38 41  1  0
 38 40  1  0
 39 37  2  0
 42 43  1  0
 42 17  1  0
 44 42  1  0
 45  4  1  0
 45 48  1  1
 46 45  1  0
 47 45  1  0
 49  6  1  0
 49 50  1  0
 51 52  1  0
 51 50  2  0
 53 64  2  0
 54 52  1  0
 54 59  1  0
 55 63  1  0
 55 65  1  0
 56 62  1  0
 56 58  1  0
 57 63  1  0
 58 57  1  0
 59 58  2  0
 60 54  2  0
 61 60  1  0
 61 56  2  0
 62 55  1  0
 63 53  1  0
 65 67  2  0
 66 65  1  0
 68 66  1  0
 69 78  2  0
 69 74  1  0
 70 66  1  0
 70 74  1  0
 71 70  1  0
 72 73  1  0
 72 71  1  0
 73 69  1  0
 74 75  2  0
 75 76  1  0
 77 76  2  0
 78 77  1  0
 79 53  1  0
 79 84  1  0
 79 80  1  0
 80 83  1  1
 80 81  1  0
 82 80  1  0
 84 87  1  0
 85 89  1  0
 85 84  1  0
 86 85  2  0
 89 88  1  0
 91 89  1  0
 91 92  1  0
 91 90  1  0
M  ISO  4   7 100  15 100  51 101  52 101
M  END
>  <TORSDO>  (61) 
F 20

>  <SCORE>  (61) 
-14.103

>  <name>  (61) 
60

>  <ligand_id>  (61) 
60

>  <original_smiles>  (61) 
[H]c1c([H])c([H])c2c(c1[H])C([H])([H])C([H])([H])C([H])([H])C2([H])N([H])C(=O)C1([H])N(C(=O)C([H])(N([H])C(=O)C([H])(N([H])C([H])([H])[H])C([H])([H])[H])C(C([H])([H])[H])(C([H])([H])[H])C([H])([H])[H])C([H])([H])c2c([H])c(OC([H])([H])C([H])([H])Oc3c([H])c([H])c(N([H])C(=O)N4C([H])([H])C([H])([H])C([H])([H])C([H])(n5nc(-c6c([H])c([H])c(Oc7c([H])c([H])c(F)c([H])c7F)c([H])c6[H])c(C(=O)N([H])[H])c5N([H])[H])C4([H])[H])c(C(F)(F)F)c3[H])c([H])c([H])c2C1([H])[H]

>  <smiles>  (61) 
[H]c1c([H])c([H])c2c(c1[H])C([H])([H])C([H])([H])C([H])([H])C2([H])N([H])C(=O)C1([H])N(C(=O)C([H])(N([H])C(=O)C([H])(N([H])C([H])([H])[H])C([H])([H])[H])C(C([H])([H])[H])(C([H])([H])[H])C([H])([H])[H])C([H])([H])c2c([H])c(OC([H])([H])C([H])([H])Oc3c([H])c([H])c(N([H])C(=O)N4C([H])([H])C([H])([H])C([H])([H])C([H])(n5nc(-c6c([H])c([H])c(Oc7c([H])c([H])c(F)c([H])c7F)c([H])c6[H])c(C(=O)N([H])[H])c5N([H])[H])C4([H])[H])c(C(F)(F)F)c3[H])c([H])c([H])c2C1([H])[H]

$$$$
61:0:0
     RDKit          3D

 85 93  0  0  1  0  0  0  0  0999 V2000
  -27.8690  -20.5330   20.2500 C   0  0  0  0  0  3  0  0  0  0  0  0
  -29.9410  -20.9170   20.2420 C   0  0  0  0  0  3  0  0  0  0  0  0
  -27.5530  -22.1030   20.2650 C   0  0  0  0  0  3  0  0  0  0  0  0
  -29.6220  -22.4840   20.2590 C   0  0  0  0  0  3  0  0  0  0  0  0
  -29.1170  -19.6110   20.2350 C   0  0  0  0  0  0  0  0  0  0  0  0
  -28.3750  -23.4100   20.2720 C   0  0  0  0  0  0  0  0  0  0  0  0
  -30.1350  -16.2720   20.1640 C   0  0  0  0  0  0  0  0  0  0  0  0
  -30.4150  -13.6120   19.3740 C   0  0  0  0  0  2  0  0  0  0  0  0
  -29.5800  -12.9620   18.2160 C   0  0  0  0  0  2  0  0  0  0  0  0
  -28.2080  -12.4820   18.7050 C   0  0  0  0  0  2  0  0  0  0  0  0
  -27.6220  -13.4990   19.7000 C   0  0  0  0  0  3  0  0  0  0  0  0
  -28.6220  -14.0210   20.7740 C   0  0  0  0  0  2  0  0  0  0  0  0
  -29.6930  -14.8130   20.0790 N   0  0  0  0  0  0  0  0  0  0  0  0
  -31.3800  -16.1530   20.0280 O   0  0  0  0  0  0  0  0  0  0  0  0
  -29.3210  -17.7340   20.2220 N   0  0  0  0  0  0  0  0  0  0  0  0
  -28.3760  -17.3810   20.2740 H   0  0  0  0  0  0  0  0  0  0  0  0
  -25.2700  -13.9480   20.5120 C   0  0  0  0  0  0  0  0  0  0  0  0
  -24.2310  -13.1450   20.8780 C   0  0  0  0  0  0  0  0  0  0  0  0
  -24.7240  -11.8040   20.8200 C   0  0  0  0  0  0  0  0  0  0  0  0
  -26.3290  -13.1030   20.2440 N   0  0  0  0  0  0  0  0  0  0  0  0
  -26.0170  -11.8020   20.4920 N   0  0  0  0  0  0  0  0  0  0  0  0
  -24.0140  -10.5290   21.0000 C   0  0  0  0  0  0  0  0  0  0  0  0
  -24.4420   -9.5660   21.9410 C   0  0  0  0  0  3  0  0  0  0  0  0
  -23.7250   -8.3630   22.1140 C   0  0  0  0  0  3  0  0  0  0  0  0
  -22.5630   -8.1110   21.3470 C   0  0  0  0  0  0  0  0  0  0  0  0
  -22.1520   -9.0620   20.3960 C   0  0  0  0  0  3  0  0  0  0  0  0
  -22.8690  -10.2570   20.2220 C   0  0  0  0  0  3  0  0  0  0  0  0
  -21.8180   -6.9590   21.4280 O   0  0  0  0  0  0  0  0  0  0  0  0
  -21.7340   -6.2350   22.5910 C   0  0  0  0  0  0  0  0  0  0  0  0
  -21.2190   -6.7950   23.7800 C   0  0  0  0  0  3  0  0  0  0  0  0
  -21.0870   -5.9970   24.9340 C   0  0  0  0  0  3  0  0  0  0  0  0
  -21.4570   -4.6390   24.8980 C   0  0  0  0  0  0  0  0  0  0  0  0
  -21.9650   -4.0790   23.7130 C   0  0  0  0  0  3  0  0  0  0  0  0
  -22.1000   -4.8740   22.5620 C   0  0  0  0  0  0  0  0  0  0  0  0
  -22.5680   -4.3230   21.4150 F   0  0  0  0  0  0  0  0  0  0  0  0
  -21.3240   -3.8690   26.0030 F   0  0  0  0  0  0  0  0  0  0  0  0
  -22.8300  -13.5980   21.1600 C   0  0  0  0  0  0  0  0  0  0  0  0
  -22.1210  -12.8920   22.0330 N   0  0  0  0  0  0  0  0  0  0  0  0
  -22.3730  -14.6170   20.6430 O   0  0  0  0  0  0  0  0  0  0  0  0
  -22.5050  -12.0690   22.4740 H   0  0  0  0  0  0  0  0  0  0  0  0
  -21.1810  -13.1790   22.2660 H   0  0  0  0  0  0  0  0  0  0  0  0
  -25.4000  -15.3240   20.3460 N   0  0  0  0  0  0  0  0  0  0  0  0
  -24.6150  -15.9550   20.4640 H   0  0  0  0  0  0  0  0  0  0  0  0
  -26.2250  -15.7790   19.9790 H   0  0  0  0  0  0  0  0  0  0  0  0
  -28.2040  -25.1520   20.3060 O   0  0  0  0  0  0  0  0  0  0  0  0
  -24.6990  -31.8750   23.1860 C   0  0  0  0  0  0  0  0  0  0  0  0
  -27.2260  -26.4850   20.2890 C   0  0  0  0  0  0  0  0  0  0  0  0
  -23.5350  -30.4560   21.5570 C   0  0  0  0  0  3  0  0  0  0  0  0
  -24.9910  -28.7300   20.1880 C   0  0  0  0  0  0  0  0  0  0  0  0
  -26.1260  -30.4990   21.4920 C   0  0  0  0  0  2  0  0  0  0  0  0
  -26.1870  -29.0250   20.8520 C   0  0  0  0  0  0  0  0  0  0  0  0
  -27.2670  -27.9420   20.8620 C   0  0  0  0  0  3  0  0  0  0  0  0
  -25.9970  -26.4900   19.5550 C   0  0  0  0  0  3  0  0  0  0  0  0
  -24.9550  -27.4910   19.5150 C   0  0  0  0  0  3  0  0  0  0  0  0
  -23.8000  -29.7230   20.2050 C   0  0  0  0  0  2  0  0  0  0  0  0
  -24.8140  -30.9850   22.1290 N   0  0  0  0  0  0  0  0  0  0  0  0
  -23.5970  -32.1920   23.6700 O   0  0  0  0  0  0  0  0  0  0  0  0
  -22.7800  -29.5160   22.5370 C   0  0  0  0  0  0  0  0  0  0  0  0
  -21.4440  -29.3840   22.4100 N   0  0  0  0  0  0  0  0  0  0  0  0
  -23.4160  -28.8980   23.3940 O   0  0  0  0  0  0  0  0  0  0  0  0
  -20.9760  -29.9330   21.7010 H   0  0  0  0  0  0  0  0  0  0  0  0
  -18.0400  -28.2000   22.9360 C   0  0  0  0  0  0  0  0  0  0  0  0
  -20.6050  -28.4590   23.1850 C   0  0  0  0  0  3  0  0  0  0  0  0
  -20.6930  -27.0230   22.6170 C   0  0  0  0  0  2  0  0  0  0  0  0
  -19.5880  -26.7060   21.6050 C   0  0  0  0  0  2  0  0  0  0  0  0
  -18.2090  -26.8540   22.2510 C   0  0  0  0  0  2  0  0  0  0  0  0
  -19.1640  -28.9620   23.3590 C   0  0  0  0  0  0  0  0  0  0  0  0
  -18.9470  -30.2160   23.9670 C   0  0  0  0  0  3  0  0  0  0  0  0
  -17.6430  -30.7140   24.1500 C   0  0  0  0  0  3  0  0  0  0  0  0
  -16.5350  -29.9530   23.7380 C   0  0  0  0  0  3  0  0  0  0  0  0
  -16.7340  -28.6970   23.1370 C   0  0  0  0  0  3  0  0  0  0  0  0
  -25.9420  -32.5460   23.8440 C   0  0  0  0  0  3  0  0  0  0  0  0
  -25.6070  -33.9530   24.1650 N   0  0  0  0  0  0  0  0  0  0  0  0
  -25.9340  -35.0200   23.4240 C   0  0  0  0  0  0  0  0  0  0  0  0
  -26.5960  -34.9260   22.3880 O   0  0  0  0  0  0  0  0  0  0  0  0
  -25.0120  -34.0970   24.9680 H   0  0  0  0  0  0  0  0  0  0  0  0
  -24.1920  -36.8230   23.1260 C   0  0  0  0  0  1  0  0  0  0  0  0
  -25.4560  -36.4120   23.9000 C   0  0  0  0  0  3  0  0  0  0  0  0
  -27.5990  -37.3240   24.6860 C   0  0  0  0  0  1  0  0  0  0  0  0
  -26.4820  -37.4700   23.7570 N   0  0  0  0  0  0  0  0  0  0  0  0
  -26.0730  -38.3910   23.8940 H   0  0  0  0  0  0  0  0  0  0  0  0
  -26.4160  -31.8110   25.1610 C   0  0  1  0  0  0  0  0  0  0  0  0
  -25.2890  -31.6010   26.2010 C   0  0  0  0  0  1  0  0  0  0  0  0
  -27.0110  -30.4230   24.8420 C   0  0  0  0  0  1  0  0  0  0  0  0
  -27.5460  -32.6230   25.8390 C   0  0  0  0  0  1  0  0  0  0  0  0
  1  3  1  0
  2  4  2  0
  3  6  2  0
  4  6  1  0
  5  2  1  0
  5  1  2  0
  6 45  1  0
  7 15  1  0
  8 13  1  0
  9 10  1  0
  9  8  1  0
 11 10  1  0
 11 20  1  0
 11 12  1  0
 13  7  1  0
 13 12  1  0
 14  7  2  0
 15  5  1  0
 15 16  1  0
 17 18  2  0
 18 37  1  0
 19 18  1  0
 19 22  1  0
 20 21  1  0
 20 17  1  0
 21 19  2  0
 22 23  1  0
 23 24  2  0
 25 28  1  0
 25 24  1  0
 26 25  2  0
 27 26  1  0
 27 22  2  0
 28 29  1  0
 29 30  1  0
 30 31  2  0
 32 31  1  0
 32 36  1  0
 33 32  2  0
 34 29  2  0
 34 33  1  0
 35 34  1  0
 37 38  1  0
 38 41  1  0
 38 40  1  0
 39 37  2  0
 42 43  1  0
 42 17  1  0
 44 42  1  0
 46 57  2  0
 47 45  1  0
 47 52  1  0
 48 56  1  0
 48 58  1  0
 49 55  1  0
 49 51  1  0
 50 56  1  0
 51 52  2  0
 51 50  1  0
 53 47  2  0
 54 53  1  0
 54 49  2  0
 55 48  1  0
 56 46  1  0
 58 60  2  0
 59 58  1  0
 61 59  1  0
 62 71  2  0
 62 67  1  0
 63 59  1  0
 63 67  1  0
 64 63  1  0
 65 66  1  0
 65 64  1  0
 66 62  1  0
 67 68  2  0
 68 69  1  0
 70 69  2  0
 71 70  1  0
 72 46  1  0
 72 73  1  0
 72 82  1  0
 73 76  1  0
 74 78  1  0
 74 73  1  0
 75 74  2  0
 78 77  1  0
 80 81  1  0
 80 78  1  0
 80 79  1  0
 82 85  1  1
 82 83  1  0
 84 82  1  0
M  ISO  4   6 101   7 100  15 100  45 101
M  END
>  <TORSDO>  (62) 
F 16

>  <SCORE>  (62) 
-16.478

>  <name>  (62) 
61

>  <ligand_id>  (62) 
61

>  <original_smiles>  (62) 
[H]c1c([H])c([H])c2c(c1[H])C([H])([H])C([H])([H])C([H])([H])C2([H])N([H])C(=O)C1([H])N(C(=O)C([H])(N([H])C(=O)C([H])(N([H])C([H])([H])[H])C([H])([H])[H])C(C([H])([H])[H])(C([H])([H])[H])C([H])([H])[H])C([H])([H])c2c([H])c(Oc3c([H])c([H])c(N([H])C(=O)N4C([H])([H])C([H])([H])C([H])([H])C([H])(n5nc(-c6c([H])c([H])c(Oc7c([H])c([H])c(F)c([H])c7F)c([H])c6[H])c(C(=O)N([H])[H])c5N([H])[H])C4([H])[H])c([H])c3[H])c([H])c([H])c2C1([H])[H]

>  <smiles>  (62) 
[H]c1c([H])c([H])c2c(c1[H])C([H])([H])C([H])([H])C([H])([H])C2([H])N([H])C(=O)C1([H])N(C(=O)C([H])(N([H])C(=O)C([H])(N([H])C([H])([H])[H])C([H])([H])[H])C(C([H])([H])[H])(C([H])([H])[H])C([H])([H])[H])C([H])([H])c2c([H])c(Oc3c([H])c([H])c(N([H])C(=O)N4C([H])([H])C([H])([H])C([H])([H])C([H])(n5nc(-c6c([H])c([H])c(Oc7c([H])c([H])c(F)c([H])c7F)c([H])c6[H])c(C(=O)N([H])[H])c5N([H])[H])C4([H])[H])c([H])c3[H])c([H])c([H])c2C1([H])[H]

$$$$
62:0:0
     RDKit          3D

 86 94  0  0  1  0  0  0  0  0999 V2000
  -31.1700  -20.9320   20.4430 C   0  0  0  0  0  3  0  0  0  0  0  0
  -30.2760  -22.0570   20.4060 C   0  0  0  0  0  3  0  0  0  0  0  0
  -30.8430  -19.5330   20.3890 C   0  0  0  0  0  3  0  0  0  0  0  0
  -28.5970  -20.3530   20.2540 C   0  0  0  0  0  3  0  0  0  0  0  0
  -28.8660  -21.9710   20.3050 C   0  0  0  0  0  0  0  0  0  0  0  0
  -29.5320  -19.0050   20.2890 C   0  0  0  0  0  0  0  0  0  0  0  0
  -30.1920  -15.8550   20.2000 C   0  0  0  0  0  0  0  0  0  0  0  0
  -30.3410  -13.2850   19.3630 C   0  0  0  0  0  2  0  0  0  0  0  0
  -29.4560  -12.8160   18.1690 C   0  0  0  0  0  2  0  0  0  0  0  0
  -28.0490  -12.4220   18.6400 C   0  0  0  0  0  2  0  0  0  0  0  0
  -27.5220  -13.4180   19.6950 C   0  0  0  0  0  3  0  0  0  0  0  0
  -28.5540  -13.7840   20.7920 C   0  0  0  0  0  2  0  0  0  0  0  0
  -29.6910  -14.4650   20.1150 N   0  0  0  0  0  0  0  0  0  0  0  0
  -31.4300  -15.7760   20.0400 O   0  0  0  0  0  0  0  0  0  0  0  0
  -29.4130  -17.2430   20.2600 N   0  0  0  0  0  0  0  0  0  0  0  0
  -28.4360  -16.9880   20.2920 H   0  0  0  0  0  0  0  0  0  0  0  0
  -25.1650  -13.9080   20.4880 C   0  0  0  0  0  0  0  0  0  0  0  0
  -24.1200  -13.1120   20.8580 C   0  0  0  0  0  0  0  0  0  0  0  0
  -24.6060  -11.7690   20.8140 C   0  0  0  0  0  0  0  0  0  0  0  0
  -26.2190  -13.0530   20.2290 N   0  0  0  0  0  0  0  0  0  0  0  0
  -25.8990  -11.7570   20.4910 N   0  0  0  0  0  0  0  0  0  0  0  0
  -23.8950  -10.4960   20.9990 C   0  0  0  0  0  0  0  0  0  0  0  0
  -24.3210   -9.5410   21.9480 C   0  0  0  0  0  3  0  0  0  0  0  0
  -23.6030   -8.3370   22.1240 C   0  0  0  0  0  3  0  0  0  0  0  0
  -22.4450   -8.0810   21.3530 C   0  0  0  0  0  0  0  0  0  0  0  0
  -22.0370   -9.0260   20.3930 C   0  0  0  0  0  3  0  0  0  0  0  0
  -22.7560  -10.2200   20.2160 C   0  0  0  0  0  3  0  0  0  0  0  0
  -21.7000   -6.9290   21.4370 O   0  0  0  0  0  0  0  0  0  0  0  0
  -21.6170   -6.2090   22.6020 C   0  0  0  0  0  0  0  0  0  0  0  0
  -21.1080   -6.7740   23.7910 C   0  0  0  0  0  3  0  0  0  0  0  0
  -20.9740   -5.9790   24.9470 C   0  0  0  0  0  3  0  0  0  0  0  0
  -21.3410   -4.6210   24.9140 C   0  0  0  0  0  0  0  0  0  0  0  0
  -21.8440   -4.0550   23.7290 C   0  0  0  0  0  3  0  0  0  0  0  0
  -21.9780   -4.8470   22.5760 C   0  0  0  0  0  0  0  0  0  0  0  0
  -22.4430   -4.2910   21.4310 F   0  0  0  0  0  0  0  0  0  0  0  0
  -21.2070   -3.8540   26.0220 F   0  0  0  0  0  0  0  0  0  0  0  0
  -22.7170  -13.5690   21.1330 C   0  0  0  0  0  0  0  0  0  0  0  0
  -22.0030  -12.8670   22.0040 N   0  0  0  0  0  0  0  0  0  0  0  0
  -22.2660  -14.5890   20.6110 O   0  0  0  0  0  0  0  0  0  0  0  0
  -22.3830  -12.0440   22.4480 H   0  0  0  0  0  0  0  0  0  0  0  0
  -21.0620  -13.1570   22.2300 H   0  0  0  0  0  0  0  0  0  0  0  0
  -25.3030  -15.2820   20.3150 N   0  0  0  0  0  0  0  0  0  0  0  0
  -24.5210  -15.9180   20.4310 H   0  0  0  0  0  0  0  0  0  0  0  0
  -26.1290  -15.7320   19.9470 H   0  0  0  0  0  0  0  0  0  0  0  0
  -27.9040  -23.6280   20.2440 C   0  0  0  0  0  2  0  0  0  0  0  0
  -28.1320  -25.4200   20.3730 O   0  0  0  0  0  0  0  0  0  0  0  0
  -24.6750  -31.8720   23.2620 C   0  0  0  0  0  0  0  0  0  0  0  0
  -27.1850  -26.6880   20.3150 C   0  0  0  0  0  0  0  0  0  0  0  0
  -23.4950  -30.4780   21.6190 C   0  0  0  0  0  3  0  0  0  0  0  0
  -24.9430  -28.7980   20.2290 C   0  0  0  0  0  0  0  0  0  0  0  0
  -26.0790  -30.5740   21.5310 C   0  0  0  0  0  2  0  0  0  0  0  0
  -26.1380  -29.1300   20.8780 C   0  0  0  0  0  0  0  0  0  0  0  0
  -27.2390  -28.1060   20.8840 C   0  0  0  0  0  3  0  0  0  0  0  0
  -25.9550  -26.5930   19.6070 C   0  0  0  0  0  3  0  0  0  0  0  0
  -24.8960  -27.5580   19.5690 C   0  0  0  0  0  3  0  0  0  0  0  0
  -23.7460  -29.7690   20.2550 C   0  0  0  0  0  2  0  0  0  0  0  0
  -24.7750  -31.0100   22.1900 N   0  0  0  0  0  0  0  0  0  0  0  0
  -23.5770  -32.1850   23.7580 O   0  0  0  0  0  0  0  0  0  0  0  0
  -22.7530  -29.5170   22.5880 C   0  0  0  0  0  0  0  0  0  0  0  0
  -21.4200  -29.3750   22.4510 N   0  0  0  0  0  0  0  0  0  0  0  0
  -23.3920  -28.8940   23.4400 O   0  0  0  0  0  0  0  0  0  0  0  0
  -20.9530  -29.9280   21.7440 H   0  0  0  0  0  0  0  0  0  0  0  0
  -18.0190  -28.1820   22.9320 C   0  0  0  0  0  0  0  0  0  0  0  0
  -20.5780  -28.4480   23.2190 C   0  0  0  0  0  3  0  0  0  0  0  0
  -20.6800  -27.0100   22.6570 C   0  0  0  0  0  2  0  0  0  0  0  0
  -19.5890  -26.6850   21.6310 C   0  0  0  0  0  2  0  0  0  0  0  0
  -18.2010  -26.8320   22.2590 C   0  0  0  0  0  2  0  0  0  0  0  0
  -19.1330  -28.9480   23.3680 C   0  0  0  0  0  0  0  0  0  0  0  0
  -18.9060  -30.2070   23.9630 C   0  0  0  0  0  3  0  0  0  0  0  0
  -17.5980  -30.7030   24.1240 C   0  0  0  0  0  3  0  0  0  0  0  0
  -16.4980  -29.9370   23.7000 C   0  0  0  0  0  3  0  0  0  0  0  0
  -16.7090  -28.6770   23.1110 C   0  0  0  0  0  3  0  0  0  0  0  0
  -25.9330  -32.5200   23.9170 C   0  0  0  0  0  3  0  0  0  0  0  0
  -25.6150  -33.9250   24.2440 N   0  0  0  0  0  0  0  0  0  0  0  0
  -25.9320  -34.9870   23.4900 C   0  0  0  0  0  0  0  0  0  0  0  0
  -26.5750  -34.8860   22.4430 O   0  0  0  0  0  0  0  0  0  0  0  0
  -25.0360  -34.0750   25.0570 H   0  0  0  0  0  0  0  0  0  0  0  0
  -24.1820  -36.7830   23.2210 C   0  0  0  0  0  1  0  0  0  0  0  0
  -25.4640  -36.3790   23.9670 C   0  0  0  0  0  3  0  0  0  0  0  0
  -27.6290  -37.2890   24.6910 C   0  0  0  0  0  1  0  0  0  0  0  0
  -26.4850  -37.4380   23.7970 N   0  0  0  0  0  0  0  0  0  0  0  0
  -26.0790  -38.3570   23.9500 H   0  0  0  0  0  0  0  0  0  0  0  0
  -26.4050  -31.7660   25.2230 C   0  0  1  0  0  0  0  0  0  0  0  0
  -25.2830  -31.5600   26.2680 C   0  0  0  0  0  1  0  0  0  0  0  0
  -26.9830  -30.3740   24.8840 C   0  0  0  0  0  1  0  0  0  0  0  0
  -27.5480  -32.5590   25.9010 C   0  0  0  0  0  1  0  0  0  0  0  0
  2  1  1  0
  3  1  2  0
  4  6  2  0
  4  5  1  0
  5  2  2  0
  6  3  1  0
  7 15  1  0
  8 13  1  0
  9 10  1  0
  9  8  1  0
 11 10  1  0
 11 20  1  0
 11 12  1  0
 13  7  1  0
 13 12  1  0
 14  7  2  0
 15  6  1  0
 15 16  1  0
 17 18  2  0
 18 37  1  0
 19 18  1  0
 19 22  1  0
 20 17  1  0
 20 21  1  0
 21 19  2  0
 22 23  1  0
 23 24  2  0
 25 28  1  0
 25 24  1  0
 26 25  2  0
 27 26  1  0
 27 22  2  0
 28 29  1  0
 29 30  1  0
 30 31  2  0
 32 31  1  0
 32 36  1  0
 33 32  2  0
 34 29  2  0
 34 33  1  0
 35 34  1  0
 37 38  1  0
 38 41  1  0
 38 40  1  0
 39 37  2  0
 42 43  1  0
 42 17  1  0
 44 42  1  0
 45  5  1  0
 45 46  1  0
 47 58  2  0
 48 46  1  0
 48 53  1  0
 49 57  1  0
 49 59  1  0
 50 56  1  0
 50 52  1  0
 51 57  1  0
 52 53  2  0
 52 51  1  0
 54 48  2  0
 55 54  1  0
 55 50  2  0
 56 49  1  0
 57 47  1  0
 59 61  2  0
 60 59  1  0
 62 60  1  0
 63 72  2  0
 63 68  1  0
 64 60  1  0
 64 68  1  0
 65 64  1  0
 66 67  1  0
 66 65  1  0
 67 63  1  0
 68 69  2  0
 69 70  1  0
 71 70  2  0
 72 71  1  0
 73 47  1  0
 73 74  1  0
 73 83  1  0
 74 77  1  0
 75 79  1  0
 75 74  1  0
 76 75  2  0
 79 78  1  0
 81 82  1  0
 81 79  1  0
 81 80  1  0
 83 86  1  1
 83 84  1  0
 85 83  1  0
M  ISO  4   7 100  15 100  45 101  46 101
M  END
>  <TORSDO>  (63) 
F 17

>  <SCORE>  (63) 
-16.516

>  <name>  (63) 
62

>  <ligand_id>  (63) 
62

>  <original_smiles>  (63) 
[H]c1c([H])c(N([H])C(=O)N2C([H])([H])C([H])([H])C([H])([H])C([H])(n3nc(-c4c([H])c([H])c(Oc5c([H])c([H])c(F)c([H])c5F)c([H])c4[H])c(C(=O)N([H])[H])c3N([H])[H])C2([H])[H])c([H])c(C([H])([H])Oc2c([H])c([H])c3c(c2[H])C([H])([H])N(C(=O)C([H])(N([H])C(=O)C([H])(N([H])C([H])([H])[H])C([H])([H])[H])C(C([H])([H])[H])(C([H])([H])[H])C([H])([H])[H])C([H])(C(=O)N([H])C2([H])c4c([H])c([H])c([H])c([H])c4C([H])([H])C([H])([H])C2([H])[H])C3([H])[H])c1[H]

>  <smiles>  (63) 
[H]c1c([H])c(N([H])C(=O)N2C([H])([H])C([H])([H])C([H])([H])C([H])(n3nc(-c4c([H])c([H])c(Oc5c([H])c([H])c(F)c([H])c5F)c([H])c4[H])c(C(=O)N([H])[H])c3N([H])[H])C2([H])[H])c([H])c(C([H])([H])Oc2c([H])c([H])c3c(c2[H])C([H])([H])N(C(=O)C([H])(N([H])C(=O)C([H])(N([H])C([H])([H])[H])C([H])([H])[H])C(C([H])([H])[H])(C([H])([H])[H])C([H])([H])[H])C([H])(C(=O)N([H])C2([H])c4c([H])c([H])c([H])c([H])c4C([H])([H])C([H])([H])C2([H])[H])C3([H])[H])c1[H]

$$$$
63:0:0
     RDKit          3D

 89 97  0  0  1  0  0  0  0  0999 V2000
  -29.2850  -21.8340   21.0500 C   0  0  0  0  0  3  0  0  0  0  0  0
  -29.3810  -22.3360   18.9440 C   0  0  0  0  0  3  0  0  0  0  0  0
  -29.2290  -20.6600   20.3140 C   0  0  0  0  0  0  0  0  0  0  0  0
  -29.3050  -21.0030   18.9630 N   0  0  0  0  0  0  0  0  0  0  0  0
  -29.3570  -22.9150   20.1570 N   0  0  0  0  0  0  0  0  0  0  0  0
  -29.0000  -19.2130   20.7650 C   0  0  0  0  0  2  0  0  0  0  0  0
  -30.2350  -18.2510   20.7860 C   0  0  0  0  0  2  0  0  0  0  0  0
  -30.1840  -16.9880   19.8600 C   0  0  0  0  0  2  0  0  0  0  0  0
  -30.7010  -14.5520   20.2520 C   0  0  0  0  0  0  0  0  0  0  0  0
  -30.3780  -12.3510   19.1900 C   0  0  0  0  0  2  0  0  0  0  0  0
  -29.4380  -12.5560   17.9830 C   0  0  0  0  0  2  0  0  0  0  0  0
  -27.9660  -12.4320   18.4220 C   0  0  0  0  0  2  0  0  0  0  0  0
  -27.6410  -13.2740   19.6850 C   0  0  0  0  0  3  0  0  0  0  0  0
  -28.7100  -13.0840   20.7870 C   0  0  0  0  0  2  0  0  0  0  0  0
  -30.0260  -13.3660   20.1970 N   0  0  0  0  0  0  0  0  0  0  0  0
  -31.8620  -14.6650   19.8480 O   0  0  0  0  0  0  0  0  0  0  0  0
  -29.9510  -15.6560   20.4920 N   0  0  0  0  0  0  0  0  0  0  0  0
  -29.0190  -15.4810   20.8380 H   0  0  0  0  0  0  0  0  0  0  0  0
  -25.2530  -13.8870   20.4170 C   0  0  0  0  0  0  0  0  0  0  0  0
  -24.1870  -13.1190   20.8020 C   0  0  0  0  0  0  0  0  0  0  0  0
  -24.6450  -11.7660   20.7750 C   0  0  0  0  0  0  0  0  0  0  0  0
  -26.2930  -13.0020   20.1800 N   0  0  0  0  0  0  0  0  0  0  0  0
  -25.9320  -11.7230   20.4550 N   0  0  0  0  0  0  0  0  0  0  0  0
  -23.9160  -10.5080   20.9790 C   0  0  0  0  0  0  0  0  0  0  0  0
  -24.3570   -9.5440   21.9120 C   0  0  0  0  0  3  0  0  0  0  0  0
  -23.6300   -8.3490   22.1060 C   0  0  0  0  0  3  0  0  0  0  0  0
  -22.4480   -8.1100   21.3650 C   0  0  0  0  0  0  0  0  0  0  0  0
  -22.0260   -9.0630   20.4210 C   0  0  0  0  0  3  0  0  0  0  0  0
  -22.7530  -10.2490   20.2270 C   0  0  0  0  0  3  0  0  0  0  0  0
  -21.6900   -6.9680   21.4680 O   0  0  0  0  0  0  0  0  0  0  0  0
  -21.6560   -6.2290   22.6240 C   0  0  0  0  0  0  0  0  0  0  0  0
  -21.2540   -6.7910   23.8550 C   0  0  0  0  0  3  0  0  0  0  0  0
  -21.1660   -5.9780   25.0040 C   0  0  0  0  0  3  0  0  0  0  0  0
  -21.4670   -4.6060   24.9210 C   0  0  0  0  0  0  0  0  0  0  0  0
  -21.8620   -4.0430   23.6950 C   0  0  0  0  0  3  0  0  0  0  0  0
  -21.9520   -4.8530   22.5480 C   0  0  0  0  0  0  0  0  0  0  0  0
  -22.3120   -4.3020   21.3640 F   0  0  0  0  0  0  0  0  0  0  0  0
  -21.3740   -3.8230   26.0220 F   0  0  0  0  0  0  0  0  0  0  0  0
  -22.7930  -13.6000   21.0840 C   0  0  0  0  0  0  0  0  0  0  0  0
  -22.0700  -12.9110   21.9610 N   0  0  0  0  0  0  0  0  0  0  0  0
  -22.3510  -14.6220   20.5610 O   0  0  0  0  0  0  0  0  0  0  0  0
  -22.4420  -12.0870   22.4100 H   0  0  0  0  0  0  0  0  0  0  0  0
  -21.1330  -13.2120   22.1870 H   0  0  0  0  0  0  0  0  0  0  0  0
  -25.4170  -15.2560   20.2280 N   0  0  0  0  0  0  0  0  0  0  0  0
  -24.6500  -15.9110   20.3340 H   0  0  0  0  0  0  0  0  0  0  0  0
  -26.2590  -15.6900   19.8700 H   0  0  0  0  0  0  0  0  0  0  0  0
  -29.4490  -24.3610   20.4610 C   0  0  0  0  0  2  0  0  0  0  0  0
  -28.2480  -25.2190   19.9650 C   0  0  0  0  0  2  0  0  0  0  0  0
  -28.3700  -26.6440   20.2220 O   0  0  0  0  0  0  0  0  0  0  0  0
  -24.5890  -31.9120   23.2440 C   0  0  0  0  0  0  0  0  0  0  0  0
  -27.2120  -27.4160   20.1780 C   0  0  0  0  0  0  0  0  0  0  0  0
  -23.3790  -30.5170   21.6020 C   0  0  0  0  0  3  0  0  0  0  0  0
  -24.8280  -28.9710   20.1770 C   0  0  0  0  0  0  0  0  0  0  0  0
  -25.9130  -30.8490   21.4140 C   0  0  0  0  0  2  0  0  0  0  0  0
  -25.9900  -29.4770   20.7690 C   0  0  0  0  0  0  0  0  0  0  0  0
  -27.1840  -28.7100   20.7640 C   0  0  0  0  0  3  0  0  0  0  0  0
  -26.0250  -26.9420   19.5680 C   0  0  0  0  0  3  0  0  0  0  0  0
  -24.8440  -27.7040   19.5700 C   0  0  0  0  0  3  0  0  0  0  0  0
  -23.5910  -29.8390   20.2220 C   0  0  0  0  0  2  0  0  0  0  0  0
  -24.6460  -31.1090   22.1430 N   0  0  0  0  0  0  0  0  0  0  0  0
  -23.5090  -32.1900   23.7820 O   0  0  0  0  0  0  0  0  0  0  0  0
  -22.7200  -29.5000   22.5610 C   0  0  0  0  0  0  0  0  0  0  0  0
  -21.3960  -29.3210   22.4310 N   0  0  0  0  0  0  0  0  0  0  0  0
  -23.3970  -28.8760   23.3810 O   0  0  0  0  0  0  0  0  0  0  0  0
  -20.9080  -29.8790   21.7430 H   0  0  0  0  0  0  0  0  0  0  0  0
  -18.0180  -28.1330   22.9170 C   0  0  0  0  0  0  0  0  0  0  0  0
  -20.5740  -28.3870   23.2010 C   0  0  0  0  0  3  0  0  0  0  0  0
  -20.6780  -26.9530   22.6340 C   0  0  0  0  0  2  0  0  0  0  0  0
  -19.5820  -26.6280   21.6150 C   0  0  0  0  0  2  0  0  0  0  0  0
  -18.1960  -26.7790   22.2490 C   0  0  0  0  0  2  0  0  0  0  0  0
  -19.1350  -28.8940   23.3500 C   0  0  0  0  0  0  0  0  0  0  0  0
  -18.9170  -30.1600   23.9340 C   0  0  0  0  0  3  0  0  0  0  0  0
  -17.6130  -30.6650   24.0930 C   0  0  0  0  0  3  0  0  0  0  0  0
  -16.5090  -29.9000   23.6790 C   0  0  0  0  0  3  0  0  0  0  0  0
  -16.7120  -28.6370   23.0930 C   0  0  0  0  0  3  0  0  0  0  0  0
  -25.8780  -32.5380   23.8620 C   0  0  0  0  0  3  0  0  0  0  0  0
  -25.5790  -33.9380   24.1910 N   0  0  0  0  0  0  0  0  0  0  0  0
  -25.9110  -34.9880   23.4280 C   0  0  0  0  0  0  0  0  0  0  0  0
  -26.5750  -34.8810   22.3950 O   0  0  0  0  0  0  0  0  0  0  0  0
  -24.9920  -34.0960   24.9970 H   0  0  0  0  0  0  0  0  0  0  0  0
  -24.1860  -36.7870   23.0780 C   0  0  0  0  0  1  0  0  0  0  0  0
  -25.4270  -36.3790   23.8860 C   0  0  0  0  0  3  0  0  0  0  0  0
  -27.5650  -37.2580   24.7140 C   0  0  0  0  0  1  0  0  0  0  0  0
  -26.4630  -37.4290   23.7710 N   0  0  0  0  0  0  0  0  0  0  0  0
  -26.0580  -38.3490   23.9180 H   0  0  0  0  0  0  0  0  0  0  0  0
  -26.3950  -31.7660   25.1380 C   0  0  1  0  0  0  0  0  0  0  0  0
  -25.3030  -31.5350   26.2090 C   0  0  0  0  0  1  0  0  0  0  0  0
  -26.9750  -30.3860   24.7480 C   0  0  0  0  0  1  0  0  0  0  0  0
  -27.5480  -32.5580   25.8000 C   0  0  0  0  0  1  0  0  0  0  0  0
  2  4  2  0
  2  5  1  0
  3  6  1  0
  3  1  2  0
  4  3  1  0
  5 47  1  0
  5  1  1  0
  6  7  1  0
  8 17  1  0
  8  7  1  0
  9 17  1  0
 10 15  1  0
 11 12  1  0
 11 10  1  0
 13 12  1  0
 13 22  1  0
 13 14  1  0
 15  9  1  0
 15 14  1  0
 16  9  2  0
 17 18  1  0
 19 20  2  0
 20 39  1  0
 21 20  1  0
 21 24  1  0
 22 19  1  0
 22 23  1  0
 23 21  2  0
 24 25  1  0
 25 26  2  0
 27 30  1  0
 27 26  1  0
 28 27  2  0
 29 28  1  0
 29 24  2  0
 30 31  1  0
 31 32  1  0
 32 33  2  0
 34 33  1  0
 34 38  1  0
 35 34  2  0
 36 31  2  0
 36 35  1  0
 37 36  1  0
 39 40  1  0
 40 43  1  0
 40 42  1  0
 41 39  2  0
 44 45  1  0
 44 19  1  0
 46 44  1  0
 48 49  1  0
 48 47  1  0
 50 61  2  0
 51 49  1  0
 51 56  1  0
 52 60  1  0
 52 62  1  0
 53 59  1  0
 53 55  1  0
 54 60  1  0
 55 54  1  0
 56 55  2  0
 57 58  1  0
 57 51  2  0
 58 53  2  0
 59 52  1  0
 60 50  1  0
 62 64  2  0
 63 62  1  0
 65 63  1  0
 66 75  2  0
 66 71  1  0
 67 63  1  0
 67 71  1  0
 68 67  1  0
 69 70  1  0
 69 68  1  0
 70 66  1  0
 71 72  2  0
 72 73  1  0
 74 73  2  0
 75 74  1  0
 76 50  1  0
 76 77  1  0
 76 86  1  0
 77 80  1  0
 78 82  1  0
 78 77  1  0
 79 78  2  0
 82 81  1  0
 84 82  1  0
 84 85  1  0
 84 83  1  0
 86 89  1  1
 86 87  1  0
 88 86  1  0
M  ISO  4   9 100  17 100  48 101  49 101
M  END
>  <TORSDO>  (64) 
F 21

>  <SCORE>  (64) 
-13.337

>  <name>  (64) 
63

>  <ligand_id>  (64) 
63

>  <original_smiles>  (64) 
[H]c1c([H])c([H])c2c(c1[H])C([H])([H])C([H])([H])C([H])([H])C2([H])N([H])C(=O)C1([H])N(C(=O)C([H])(N([H])C(=O)C([H])(N([H])C([H])([H])[H])C([H])([H])[H])C(C([H])([H])[H])(C([H])([H])[H])C([H])([H])[H])C([H])([H])c2c([H])c(OC([H])([H])C([H])([H])n3c([H])nc(C([H])([H])C([H])([H])C([H])([H])N([H])C(=O)N4C([H])([H])C([H])([H])C([H])([H])C([H])(n5nc(-c6c([H])c([H])c(Oc7c([H])c([H])c(F)c([H])c7F)c([H])c6[H])c(C(=O)N([H])[H])c5N([H])[H])C4([H])[H])c3[H])c([H])c([H])c2C1([H])[H]

>  <smiles>  (64) 
[H]c1c([H])c([H])c2c(c1[H])C([H])([H])C([H])([H])C([H])([H])C2([H])N([H])C(=O)C1([H])N(C(=O)C([H])(N([H])C(=O)C([H])(N([H])C([H])([H])[H])C([H])([H])[H])C(C([H])([H])[H])(C([H])([H])[H])C([H])([H])[H])C([H])([H])c2c([H])c(OC([H])([H])C([H])([H])n3c([H])nc(C([H])([H])C([H])([H])C([H])([H])N([H])C(=O)N4C([H])([H])C([H])([H])C([H])([H])C([H])(n5nc(-c6c([H])c([H])c(Oc7c([H])c([H])c(F)c([H])c7F)c([H])c6[H])c(C(=O)N([H])[H])c5N([H])[H])C4([H])[H])c3[H])c([H])c([H])c2C1([H])[H]

$$$$
64:0:0
     RDKit          3D

 86 94  0  0  1  0  0  0  0  0999 V2000
  -31.1700  -20.9320   20.4430 C   0  0  0  0  0  3  0  0  0  0  0  0
  -30.2760  -22.0570   20.4060 C   0  0  0  0  0  3  0  0  0  0  0  0
  -30.8430  -19.5330   20.3890 C   0  0  0  0  0  3  0  0  0  0  0  0
  -28.5970  -20.3530   20.2540 C   0  0  0  0  0  3  0  0  0  0  0  0
  -28.8660  -21.9710   20.3050 C   0  0  0  0  0  0  0  0  0  0  0  0
  -29.5320  -19.0050   20.2890 C   0  0  0  0  0  0  0  0  0  0  0  0
  -30.1920  -15.8550   20.2000 C   0  0  0  0  0  0  0  0  0  0  0  0
  -30.3410  -13.2850   19.3630 C   0  0  0  0  0  2  0  0  0  0  0  0
  -29.4560  -12.8160   18.1690 C   0  0  0  0  0  2  0  0  0  0  0  0
  -28.0490  -12.4220   18.6400 C   0  0  0  0  0  2  0  0  0  0  0  0
  -27.5220  -13.4180   19.6950 C   0  0  0  0  0  3  0  0  0  0  0  0
  -28.5540  -13.7840   20.7920 C   0  0  0  0  0  2  0  0  0  0  0  0
  -29.6910  -14.4650   20.1150 N   0  0  0  0  0  0  0  0  0  0  0  0
  -31.4300  -15.7760   20.0400 O   0  0  0  0  0  0  0  0  0  0  0  0
  -29.4130  -17.2430   20.2600 N   0  0  0  0  0  0  0  0  0  0  0  0
  -28.4360  -16.9880   20.2920 H   0  0  0  0  0  0  0  0  0  0  0  0
  -25.1650  -13.9080   20.4880 C   0  0  0  0  0  0  0  0  0  0  0  0
  -24.1200  -13.1120   20.8580 C   0  0  0  0  0  0  0  0  0  0  0  0
  -24.6060  -11.7690   20.8140 C   0  0  0  0  0  0  0  0  0  0  0  0
  -26.2190  -13.0530   20.2290 N   0  0  0  0  0  0  0  0  0  0  0  0
  -25.8990  -11.7570   20.4910 N   0  0  0  0  0  0  0  0  0  0  0  0
  -23.8950  -10.4960   20.9990 C   0  0  0  0  0  0  0  0  0  0  0  0
  -24.3210   -9.5410   21.9480 C   0  0  0  0  0  3  0  0  0  0  0  0
  -23.6030   -8.3370   22.1240 C   0  0  0  0  0  3  0  0  0  0  0  0
  -22.4450   -8.0810   21.3530 C   0  0  0  0  0  0  0  0  0  0  0  0
  -22.0370   -9.0260   20.3930 C   0  0  0  0  0  3  0  0  0  0  0  0
  -22.7560  -10.2200   20.2160 C   0  0  0  0  0  3  0  0  0  0  0  0
  -21.7000   -6.9290   21.4370 O   0  0  0  0  0  0  0  0  0  0  0  0
  -21.6170   -6.2090   22.6020 C   0  0  0  0  0  0  0  0  0  0  0  0
  -21.1080   -6.7740   23.7910 C   0  0  0  0  0  3  0  0  0  0  0  0
  -20.9740   -5.9790   24.9470 C   0  0  0  0  0  3  0  0  0  0  0  0
  -21.3410   -4.6210   24.9140 C   0  0  0  0  0  0  0  0  0  0  0  0
  -21.8440   -4.0550   23.7290 C   0  0  0  0  0  3  0  0  0  0  0  0
  -21.9780   -4.8470   22.5760 C   0  0  0  0  0  0  0  0  0  0  0  0
  -22.4430   -4.2910   21.4310 F   0  0  0  0  0  0  0  0  0  0  0  0
  -21.2070   -3.8540   26.0220 F   0  0  0  0  0  0  0  0  0  0  0  0
  -22.7170  -13.5690   21.1330 C   0  0  0  0  0  0  0  0  0  0  0  0
  -22.0030  -12.8670   22.0040 N   0  0  0  0  0  0  0  0  0  0  0  0
  -22.2660  -14.5890   20.6110 O   0  0  0  0  0  0  0  0  0  0  0  0
  -22.3830  -12.0440   22.4480 H   0  0  0  0  0  0  0  0  0  0  0  0
  -21.0620  -13.1570   22.2300 H   0  0  0  0  0  0  0  0  0  0  0  0
  -25.3030  -15.2820   20.3150 N   0  0  0  0  0  0  0  0  0  0  0  0
  -24.5210  -15.9180   20.4310 H   0  0  0  0  0  0  0  0  0  0  0  0
  -26.1290  -15.7320   19.9470 H   0  0  0  0  0  0  0  0  0  0  0  0
  -27.9040  -23.6280   20.2440 C   0  0  0  0  0  2  0  0  0  0  0  0
  -28.1320  -25.4200   20.3730 O   0  0  0  0  0  0  0  0  0  0  0  0
  -24.6750  -31.8720   23.2620 C   0  0  0  0  0  0  0  0  0  0  0  0
  -27.1850  -26.6880   20.3150 C   0  0  0  0  0  0  0  0  0  0  0  0
  -23.4950  -30.4780   21.6190 C   0  0  0  0  0  3  0  0  0  0  0  0
  -24.9430  -28.7980   20.2290 C   0  0  0  0  0  0  0  0  0  0  0  0
  -26.0790  -30.5740   21.5310 C   0  0  0  0  0  2  0  0  0  0  0  0
  -26.1380  -29.1300   20.8780 C   0  0  0  0  0  0  0  0  0  0  0  0
  -27.2390  -28.1060   20.8840 C   0  0  0  0  0  3  0  0  0  0  0  0
  -25.9550  -26.5930   19.6070 C   0  0  0  0  0  3  0  0  0  0  0  0
  -24.8960  -27.5580   19.5690 C   0  0  0  0  0  3  0  0  0  0  0  0
  -23.7460  -29.7690   20.2550 C   0  0  0  0  0  2  0  0  0  0  0  0
  -24.7750  -31.0100   22.1900 N   0  0  0  0  0  0  0  0  0  0  0  0
  -23.5770  -32.1850   23.7580 O   0  0  0  0  0  0  0  0  0  0  0  0
  -22.7530  -29.5170   22.5880 C   0  0  0  0  0  0  0  0  0  0  0  0
  -21.4200  -29.3750   22.4510 N   0  0  0  0  0  0  0  0  0  0  0  0
  -23.3920  -28.8940   23.4400 O   0  0  0  0  0  0  0  0  0  0  0  0
  -20.9530  -29.9280   21.7440 H   0  0  0  0  0  0  0  0  0  0  0  0
  -18.0190  -28.1820   22.9320 C   0  0  0  0  0  0  0  0  0  0  0  0
  -20.5780  -28.4480   23.2190 C   0  0  0  0  0  3  0  0  0  0  0  0
  -20.6800  -27.0100   22.6570 C   0  0  0  0  0  2  0  0  0  0  0  0
  -19.5890  -26.6850   21.6310 C   0  0  0  0  0  2  0  0  0  0  0  0
  -18.2010  -26.8320   22.2590 C   0  0  0  0  0  2  0  0  0  0  0  0
  -19.1330  -28.9480   23.3680 C   0  0  0  0  0  0  0  0  0  0  0  0
  -18.9060  -30.2070   23.9630 C   0  0  0  0  0  3  0  0  0  0  0  0
  -17.5980  -30.7030   24.1240 C   0  0  0  0  0  3  0  0  0  0  0  0
  -16.4980  -29.9370   23.7000 C   0  0  0  0  0  3  0  0  0  0  0  0
  -16.7090  -28.6770   23.1110 C   0  0  0  0  0  3  0  0  0  0  0  0
  -25.9330  -32.5200   23.9170 C   0  0  0  0  0  3  0  0  0  0  0  0
  -25.6150  -33.9250   24.2440 N   0  0  0  0  0  0  0  0  0  0  0  0
  -25.9320  -34.9870   23.4900 C   0  0  0  0  0  0  0  0  0  0  0  0
  -26.5750  -34.8860   22.4430 O   0  0  0  0  0  0  0  0  0  0  0  0
  -25.0360  -34.0750   25.0570 H   0  0  0  0  0  0  0  0  0  0  0  0
  -24.1820  -36.7830   23.2210 C   0  0  0  0  0  1  0  0  0  0  0  0
  -25.4640  -36.3790   23.9670 C   0  0  0  0  0  3  0  0  0  0  0  0
  -27.6290  -37.2890   24.6910 C   0  0  0  0  0  1  0  0  0  0  0  0
  -26.4850  -37.4380   23.7970 N   0  0  0  0  0  0  0  0  0  0  0  0
  -26.0790  -38.3570   23.9500 H   0  0  0  0  0  0  0  0  0  0  0  0
  -26.4050  -31.7660   25.2230 C   0  0  1  0  0  0  0  0  0  0  0  0
  -25.2830  -31.5600   26.2680 C   0  0  0  0  0  1  0  0  0  0  0  0
  -26.9830  -30.3740   24.8840 C   0  0  0  0  0  1  0  0  0  0  0  0
  -27.5480  -32.5590   25.9010 C   0  0  0  0  0  1  0  0  0  0  0  0
  2  1  1  0
  3  1  2  0
  4  6  2  0
  4  5  1  0
  5  2  2  0
  6  3  1  0
  7 15  1  0
  8 13  1  0
  9 10  1  0
  9  8  1  0
 11 10  1  0
 11 20  1  0
 11 12  1  0
 13  7  1  0
 13 12  1  0
 14  7  2  0
 15  6  1  0
 15 16  1  0
 17 18  2  0
 18 37  1  0
 19 18  1  0
 19 22  1  0
 20 17  1  0
 20 21  1  0
 21 19  2  0
 22 23  1  0
 23 24  2  0
 25 28  1  0
 25 24  1  0
 26 25  2  0
 27 26  1  0
 27 22  2  0
 28 29  1  0
 29 30  1  0
 30 31  2  0
 32 31  1  0
 32 36  1  0
 33 32  2  0
 34 29  2  0
 34 33  1  0
 35 34  1  0
 37 38  1  0
 38 41  1  0
 38 40  1  0
 39 37  2  0
 42 43  1  0
 42 17  1  0
 44 42  1  0
 45  5  1  0
 45 46  1  0
 47 58  2  0
 48 46  1  0
 48 53  1  0
 49 57  1  0
 49 59  1  0
 50 56  1  0
 50 52  1  0
 51 57  1  0
 52 53  2  0
 52 51  1  0
 54 48  2  0
 55 54  1  0
 55 50  2  0
 56 49  1  0
 57 47  1  0
 59 61  2  0
 60 59  1  0
 62 60  1  0
 63 72  2  0
 63 68  1  0
 64 60  1  0
 64 68  1  0
 65 64  1  0
 66 67  1  0
 66 65  1  0
 67 63  1  0
 68 69  2  0
 69 70  1  0
 71 70  2  0
 72 71  1  0
 73 47  1  0
 73 74  1  0
 73 83  1  0
 74 77  1  0
 75 79  1  0
 75 74  1  0
 76 75  2  0
 79 78  1  0
 81 82  1  0
 81 79  1  0
 81 80  1  0
 83 86  1  1
 83 84  1  0
 85 83  1  0
M  ISO  4   7 100  15 100  45 101  46 101
M  END
>  <TORSDO>  (65) 
F 17

>  <SCORE>  (65) 
-16.516

>  <name>  (65) 
64

>  <ligand_id>  (65) 
64

>  <original_smiles>  (65) 
[H]c1c([H])c(N([H])C(=O)N2C([H])([H])C([H])([H])C([H])([H])C([H])(n3nc(-c4c([H])c([H])c(Oc5c([H])c([H])c(F)c([H])c5F)c([H])c4[H])c(C(=O)N([H])[H])c3N([H])[H])C2([H])[H])c([H])c(C([H])([H])Oc2c([H])c([H])c3c(c2[H])C([H])([H])N(C(=O)C([H])(N([H])C(=O)C([H])(N([H])C([H])([H])[H])C([H])([H])[H])C(C([H])([H])[H])(C([H])([H])[H])C([H])([H])[H])C([H])(C(=O)N([H])C2([H])c4c([H])c([H])c([H])c([H])c4C([H])([H])C([H])([H])C2([H])[H])C3([H])[H])c1[H]

>  <smiles>  (65) 
[H]c1c([H])c(N([H])C(=O)N2C([H])([H])C([H])([H])C([H])([H])C([H])(n3nc(-c4c([H])c([H])c(Oc5c([H])c([H])c(F)c([H])c5F)c([H])c4[H])c(C(=O)N([H])[H])c3N([H])[H])C2([H])[H])c([H])c(C([H])([H])Oc2c([H])c([H])c3c(c2[H])C([H])([H])N(C(=O)C([H])(N([H])C(=O)C([H])(N([H])C([H])([H])[H])C([H])([H])[H])C(C([H])([H])[H])(C([H])([H])[H])C([H])([H])[H])C([H])(C(=O)N([H])C2([H])c4c([H])c([H])c([H])c([H])c4C([H])([H])C([H])([H])C2([H])[H])C3([H])[H])c1[H]

$$$$
65:0:0
     RDKit          3D

 89 97  0  0  1  0  0  0  0  0999 V2000
  -28.4320  -21.7010   20.2000 O   0  0  0  0  0  0  0  0  0  0  0  0
  -31.6200  -19.6430   19.9990 C   0  0  0  0  0  3  0  0  0  0  0  0
  -31.2540  -18.2860   20.1360 C   0  0  0  0  0  3  0  0  0  0  0  0
  -30.6950  -20.7090   20.0290 C   0  0  0  0  0  3  0  0  0  0  0  0
  -28.9670  -19.0380   20.3330 C   0  0  0  0  0  3  0  0  0  0  0  0
  -29.9170  -17.8650   20.3070 C   0  0  0  0  0  0  0  0  0  0  0  0
  -29.3120  -20.5030   20.2030 C   0  0  0  0  0  0  0  0  0  0  0  0
  -30.4470  -15.1280   20.2840 C   0  0  0  0  0  0  0  0  0  0  0  0
  -30.3680  -12.7640   19.3350 C   0  0  0  0  0  2  0  0  0  0  0  0
  -29.4050  -12.6450   18.1290 C   0  0  0  0  0  2  0  0  0  0  0  0
  -27.9650  -12.3960   18.6120 C   0  0  0  0  0  2  0  0  0  0  0  0
  -27.5610  -13.3490   19.7650 C   0  0  0  0  0  3  0  0  0  0  0  0
  -28.6330  -13.3880   20.8730 C   0  0  0  0  0  2  0  0  0  0  0  0
  -29.8730  -13.8510   20.2360 N   0  0  0  0  0  0  0  0  0  0  0  0
  -31.6520  -15.1670   20.0020 O   0  0  0  0  0  0  0  0  0  0  0  0
  -29.6540  -16.3290   20.4380 N   0  0  0  0  0  0  0  0  0  0  0  0
  -28.6930  -16.1070   20.6480 H   0  0  0  0  0  0  0  0  0  0  0  0
  -25.2000  -13.9180   20.5590 C   0  0  0  0  0  0  0  0  0  0  0  0
  -24.1420  -13.1410   20.9350 C   0  0  0  0  0  0  0  0  0  0  0  0
  -24.6050  -11.7890   20.8770 C   0  0  0  0  0  0  0  0  0  0  0  0
  -26.2360  -13.0440   20.2870 N   0  0  0  0  0  0  0  0  0  0  0  0
  -25.8900  -11.7560   20.5440 N   0  0  0  0  0  0  0  0  0  0  0  0
  -23.8830  -10.5240   21.0520 C   0  0  0  0  0  0  0  0  0  0  0  0
  -24.3090   -9.5510   21.9830 C   0  0  0  0  0  3  0  0  0  0  0  0
  -23.5840   -8.3510   22.1470 C   0  0  0  0  0  3  0  0  0  0  0  0
  -22.4210   -8.1130   21.3780 C   0  0  0  0  0  0  0  0  0  0  0  0
  -22.0150   -9.0730   20.4340 C   0  0  0  0  0  3  0  0  0  0  0  0
  -22.7410  -10.2640   20.2690 C   0  0  0  0  0  3  0  0  0  0  0  0
  -21.6690   -6.9660   21.4520 O   0  0  0  0  0  0  0  0  0  0  0  0
  -21.5820   -6.2360   22.6110 C   0  0  0  0  0  0  0  0  0  0  0  0
  -21.0550   -6.7860   23.7990 C   0  0  0  0  0  3  0  0  0  0  0  0
  -20.9210   -5.9820   24.9480 C   0  0  0  0  0  3  0  0  0  0  0  0
  -21.3020   -4.6270   24.9090 C   0  0  0  0  0  0  0  0  0  0  0  0
  -21.8210   -4.0750   23.7230 C   0  0  0  0  0  3  0  0  0  0  0  0
  -21.9580   -4.8780   22.5770 C   0  0  0  0  0  0  0  0  0  0  0  0
  -22.4390   -4.3370   21.4320 F   0  0  0  0  0  0  0  0  0  0  0  0
  -21.1650   -3.8510   26.0090 F   0  0  0  0  0  0  0  0  0  0  0  0
  -22.7480  -13.6120   21.2300 C   0  0  0  0  0  0  0  0  0  0  0  0
  -22.0300  -12.8990   22.0880 N   0  0  0  0  0  0  0  0  0  0  0  0
  -22.3070  -14.6490   20.7350 O   0  0  0  0  0  0  0  0  0  0  0  0
  -22.4010  -12.0600   22.5110 H   0  0  0  0  0  0  0  0  0  0  0  0
  -21.0950  -13.1960   22.3290 H   0  0  0  0  0  0  0  0  0  0  0  0
  -25.3640  -15.2920   20.3980 N   0  0  0  0  0  0  0  0  0  0  0  0
  -24.5970  -15.9420   20.5250 H   0  0  0  0  0  0  0  0  0  0  0  0
  -26.1780  -15.7180   19.9780 H   0  0  0  0  0  0  0  0  0  0  0  0
  -29.2870  -23.4160   21.7480 C   0  0  0  0  0  1  0  0  0  0  0  0
  -28.8470  -23.2260   20.2980 C   0  0  0  0  0  3  0  0  0  0  0  0
  -27.9050  -24.6130   19.9370 C   0  0  0  0  0  2  0  0  0  0  0  0
  -28.1930  -26.1430   20.2360 O   0  0  0  0  0  0  0  0  0  0  0  0
  -24.6260  -31.9340   23.2430 C   0  0  0  0  0  0  0  0  0  0  0  0
  -27.1660  -27.1690   20.1930 C   0  0  0  0  0  0  0  0  0  0  0  0
  -23.4220  -30.5380   21.6090 C   0  0  0  0  0  3  0  0  0  0  0  0
  -24.8600  -28.9520   20.1860 C   0  0  0  0  0  0  0  0  0  0  0  0
  -25.9770  -30.7880   21.4350 C   0  0  0  0  0  2  0  0  0  0  0  0
  -26.0470  -29.3850   20.7890 C   0  0  0  0  0  0  0  0  0  0  0  0
  -27.2030  -28.5080   20.7770 C   0  0  0  0  0  3  0  0  0  0  0  0
  -25.9540  -26.8570   19.5430 C   0  0  0  0  0  3  0  0  0  0  0  0
  -24.8270  -27.7040   19.5500 C   0  0  0  0  0  3  0  0  0  0  0  0
  -23.6450  -29.8630   20.2310 C   0  0  0  0  0  2  0  0  0  0  0  0
  -24.6960  -31.1090   22.1530 N   0  0  0  0  0  0  0  0  0  0  0  0
  -23.5390  -32.2220   23.7710 O   0  0  0  0  0  0  0  0  0  0  0  0
  -22.7400  -29.5340   22.5760 C   0  0  0  0  0  0  0  0  0  0  0  0
  -21.4100  -29.3630   22.4490 N   0  0  0  0  0  0  0  0  0  0  0  0
  -23.4100  -28.9110   23.4050 O   0  0  0  0  0  0  0  0  0  0  0  0
  -20.9230  -29.9270   21.7670 H   0  0  0  0  0  0  0  0  0  0  0  0
  -18.0320  -28.1540   22.9660 C   0  0  0  0  0  0  0  0  0  0  0  0
  -20.5910  -28.4240   23.2220 C   0  0  0  0  0  3  0  0  0  0  0  0
  -20.6920  -26.9880   22.6550 C   0  0  0  0  0  2  0  0  0  0  0  0
  -19.5900  -26.6590   21.6430 C   0  0  0  0  0  2  0  0  0  0  0  0
  -18.2100  -26.8040   22.2930 C   0  0  0  0  0  2  0  0  0  0  0  0
  -19.1500  -28.9200   23.3910 C   0  0  0  0  0  0  0  0  0  0  0  0
  -18.9310  -30.1820   23.9850 C   0  0  0  0  0  3  0  0  0  0  0  0
  -17.6260  -30.6800   24.1520 C   0  0  0  0  0  3  0  0  0  0  0  0
  -16.5220  -29.9130   23.7410 C   0  0  0  0  0  3  0  0  0  0  0  0
  -16.7260  -28.6510   23.1560 C   0  0  0  0  0  3  0  0  0  0  0  0
  -25.9050  -32.5750   23.8650 C   0  0  0  0  0  3  0  0  0  0  0  0
  -26.4160  -31.8150   25.1520 C   0  0  1  0  0  0  0  0  0  0  0  0
  -25.3190  -31.5800   26.2180 C   0  0  0  0  0  1  0  0  0  0  0  0
  -27.0040  -30.4350   24.7760 C   0  0  0  0  0  1  0  0  0  0  0  0
  -27.5650  -32.6150   25.8090 C   0  0  0  0  0  1  0  0  0  0  0  0
  -25.5940  -33.9770   24.1880 N   0  0  0  0  0  0  0  0  0  0  0  0
  -25.9130  -35.0250   23.4160 C   0  0  0  0  0  0  0  0  0  0  0  0
  -26.5610  -34.9110   22.3720 O   0  0  0  0  0  0  0  0  0  0  0  0
  -25.0220  -34.1380   25.0040 H   0  0  0  0  0  0  0  0  0  0  0  0
  -24.1820  -36.8210   23.0790 C   0  0  0  0  0  1  0  0  0  0  0  0
  -25.4370  -36.4170   23.8690 C   0  0  0  0  0  3  0  0  0  0  0  0
  -27.5830  -37.3190   24.6600 C   0  0  0  0  0  1  0  0  0  0  0  0
  -26.4680  -37.4700   23.7290 N   0  0  0  0  0  0  0  0  0  0  0  0
  -26.0600  -38.3890   23.8690 H   0  0  0  0  0  0  0  0  0  0  0  0
  1  7  1  0
  1 47  1  0
  2  4  2  0
  2  3  1  0
  3  6  2  0
  4  7  1  0
  6  5  1  0
  6 16  1  0
  7  5  2  0
  8 16  1  0
  9 14  1  0
 10 11  1  0
 10  9  1  0
 12 11  1  0
 12 21  1  0
 12 13  1  0
 14  8  1  0
 14 13  1  0
 15  8  2  0
 16 17  1  0
 18 19  2  0
 19 38  1  0
 20 19  1  0
 20 23  1  0
 21 22  1  0
 21 18  1  0
 22 20  2  0
 23 24  1  0
 24 25  2  0
 26 29  1  0
 26 25  1  0
 27 26  2  0
 28 27  1  0
 28 23  2  0
 29 30  1  0
 30 31  1  0
 31 32  2  0
 33 32  1  0
 33 37  1  0
 34 33  2  0
 35 30  2  0
 35 34  1  0
 36 35  1  0
 38 39  1  0
 39 42  1  0
 39 41  1  0
 40 38  2  0
 43 44  1  0
 43 18  1  0
 45 43  1  0
 47 46  1  0
 48 49  1  0
 48 47  1  0
 50 61  2  0
 51 49  1  0
 51 56  1  0
 52 60  1  0
 52 62  1  0
 53 59  1  0
 53 55  1  0
 54 60  1  0
 55 54  1  0
 56 55  2  0
 57 58  1  0
 57 51  2  0
 58 53  2  0
 59 52  1  0
 60 50  1  0
 62 64  2  0
 63 62  1  0
 65 63  1  0
 66 75  2  0
 66 71  1  0
 67 63  1  0
 67 71  1  0
 68 67  1  0
 69 70  1  0
 69 68  1  0
 70 66  1  0
 71 72  2  0
 72 73  1  0
 74 73  2  0
 75 74  1  0
 76 50  1  0
 76 81  1  0
 76 77  1  0
 77 80  1  1
 77 78  1  0
 79 77  1  0
 81 84  1  0
 82 86  1  0
 82 81  1  0
 83 82  2  0
 86 85  1  0
 88 89  1  0
 88 86  1  0
 88 87  1  0
M  ISO  4   8 100  16 100  48 101  49 101
M  END
>  <TORSDO>  (66) 
F 19

>  <SCORE>  (66) 
-14.881

>  <name>  (66) 
65

>  <ligand_id>  (66) 
65

>  <original_smiles>  (66) 
[H]c1c([H])c(OC([H])(C([H])([H])[H])C([H])([H])Oc2c([H])c([H])c3c(c2[H])C([H])([H])N(C(=O)C([H])(N([H])C(=O)C([H])(N([H])C([H])([H])[H])C([H])([H])[H])C(C([H])([H])[H])(C([H])([H])[H])C([H])([H])[H])C([H])(C(=O)N([H])C2([H])c4c([H])c([H])c([H])c([H])c4C([H])([H])C([H])([H])C2([H])[H])C3([H])[H])c([H])c(N([H])C(=O)N2C([H])([H])C([H])([H])C([H])([H])C([H])(n3nc(-c4c([H])c([H])c(Oc5c([H])c([H])c(F)c([H])c5F)c([H])c4[H])c(C(=O)N([H])[H])c3N([H])[H])C2([H])[H])c1[H]

>  <smiles>  (66) 
[H]c1c([H])c(OC([H])(C([H])([H])[H])C([H])([H])Oc2c([H])c([H])c3c(c2[H])C([H])([H])N(C(=O)C([H])(N([H])C(=O)C([H])(N([H])C([H])([H])[H])C([H])([H])[H])C(C([H])([H])[H])(C([H])([H])[H])C([H])([H])[H])C([H])(C(=O)N([H])C2([H])c4c([H])c([H])c([H])c([H])c4C([H])([H])C([H])([H])C2([H])[H])C3([H])[H])c([H])c(N([H])C(=O)N2C([H])([H])C([H])([H])C([H])([H])C([H])(n3nc(-c4c([H])c([H])c(Oc5c([H])c([H])c(F)c([H])c5F)c([H])c4[H])c(C(=O)N([H])[H])c3N([H])[H])C2([H])[H])c1[H]

$$$$
66:0:0
     RDKit          3D

 87 94  0  0  1  0  0  0  0  0999 V2000
  -29.1130  -22.7980   20.1480 O   0  0  0  0  0  0  0  0  0  0  0  0
  -29.2650  -24.1800   20.5710 C   0  0  0  0  0  2  0  0  0  0  0  0
  -28.1950  -25.1410   19.9510 C   0  0  0  0  0  2  0  0  0  0  0  0
  -28.3440  -26.5690   20.2300 O   0  0  0  0  0  0  0  0  0  0  0  0
  -24.6030  -31.8820   23.2540 C   0  0  0  0  0  0  0  0  0  0  0  0
  -27.2030  -27.3700   20.1730 C   0  0  0  0  0  0  0  0  0  0  0  0
  -23.3880  -30.4910   21.6140 C   0  0  0  0  0  3  0  0  0  0  0  0
  -24.8290  -28.9470   20.1790 C   0  0  0  0  0  0  0  0  0  0  0  0
  -25.9230  -30.8160   21.4190 C   0  0  0  0  0  2  0  0  0  0  0  0
  -25.9960  -29.4430   20.7740 C   0  0  0  0  0  0  0  0  0  0  0  0
  -27.1840  -28.6630   20.7670 C   0  0  0  0  0  3  0  0  0  0  0  0
  -26.0140  -26.9200   19.5460 C   0  0  0  0  0  3  0  0  0  0  0  0
  -24.8370  -27.6890   19.5590 C   0  0  0  0  0  3  0  0  0  0  0  0
  -23.5920  -29.8180   20.2320 C   0  0  0  0  0  2  0  0  0  0  0  0
  -24.6560  -31.0790   22.1530 N   0  0  0  0  0  0  0  0  0  0  0  0
  -23.5240  -32.1610   23.7950 O   0  0  0  0  0  0  0  0  0  0  0  0
  -22.7290  -29.4710   22.5730 C   0  0  0  0  0  0  0  0  0  0  0  0
  -21.4040  -29.2960   22.4460 N   0  0  0  0  0  0  0  0  0  0  0  0
  -23.4090  -28.8420   23.3890 O   0  0  0  0  0  0  0  0  0  0  0  0
  -20.9160  -29.8550   21.7610 H   0  0  0  0  0  0  0  0  0  0  0  0
  -18.0240  -28.1080   22.9390 C   0  0  0  0  0  0  0  0  0  0  0  0
  -20.5820  -28.3620   23.2170 C   0  0  0  0  0  3  0  0  0  0  0  0
  -20.6820  -26.9290   22.6440 C   0  0  0  0  0  2  0  0  0  0  0  0
  -19.5830  -26.6070   21.6270 C   0  0  0  0  0  2  0  0  0  0  0  0
  -18.2000  -26.7570   22.2670 C   0  0  0  0  0  2  0  0  0  0  0  0
  -19.1430  -28.8680   23.3700 C   0  0  0  0  0  0  0  0  0  0  0  0
  -18.9250  -30.1340   23.9590 C   0  0  0  0  0  3  0  0  0  0  0  0
  -17.6220  -30.6390   24.1180 C   0  0  0  0  0  3  0  0  0  0  0  0
  -16.5170  -29.8760   23.7040 C   0  0  0  0  0  3  0  0  0  0  0  0
  -16.7190  -28.6120   23.1200 C   0  0  0  0  0  3  0  0  0  0  0  0
  -25.8930  -32.5060   23.8720 C   0  0  0  0  0  3  0  0  0  0  0  0
  -26.4080  -31.7310   25.1470 C   0  0  1  0  0  0  0  0  0  0  0  0
  -25.3180  -31.5010   26.2190 C   0  0  0  0  0  1  0  0  0  0  0  0
  -26.9820  -30.3500   24.7520 C   0  0  0  0  0  1  0  0  0  0  0  0
  -27.5640  -32.5190   25.8080 C   0  0  0  0  0  1  0  0  0  0  0  0
  -25.5920  -33.9060   24.2030 N   0  0  0  0  0  0  0  0  0  0  0  0
  -25.9250  -34.9570   23.4410 C   0  0  0  0  0  0  0  0  0  0  0  0
  -26.5890  -34.8480   22.4060 O   0  0  0  0  0  0  0  0  0  0  0  0
  -25.0030  -34.0650   25.0080 H   0  0  0  0  0  0  0  0  0  0  0  0
  -24.2020  -36.7560   23.0930 C   0  0  0  0  0  1  0  0  0  0  0  0
  -25.4460  -36.3470   23.8980 C   0  0  0  0  0  3  0  0  0  0  0  0
  -27.5900  -37.2240   24.7140 C   0  0  0  0  0  1  0  0  0  0  0  0
  -26.4820  -37.3950   23.7780 N   0  0  0  0  0  0  0  0  0  0  0  0
  -26.0800  -38.3170   23.9270 H   0  0  0  0  0  0  0  0  0  0  0  0
  -29.8660  -21.8260   20.9130 C   0  0  0  0  0  2  0  0  0  0  0  0
  -29.9940  -20.3890   20.2800 C   0  0  0  0  0  2  0  0  0  0  0  0
  -29.6060  -19.3250   21.1790 O   0  0  0  0  0  0  0  0  0  0  0  0
  -30.3560  -18.0820   21.1900 C   0  0  0  0  0  2  0  0  0  0  0  0
  -29.9920  -17.0260   20.1000 C   0  0  0  0  0  2  0  0  0  0  0  0
  -30.6580  -14.5630   20.1340 C   0  0  0  0  0  0  0  0  0  0  0  0
  -30.3320  -12.3860   19.0110 C   0  0  0  0  0  2  0  0  0  0  0  0
  -29.3420  -12.5990   17.8440 C   0  0  0  0  0  2  0  0  0  0  0  0
  -27.8850  -12.4670   18.3310 C   0  0  0  0  0  2  0  0  0  0  0  0
  -27.6040  -13.2910   19.6150 C   0  0  0  0  0  3  0  0  0  0  0  0
  -28.7030  -13.0590   20.6790 C   0  0  0  0  0  2  0  0  0  0  0  0
  -30.0040  -13.3660   20.0610 N   0  0  0  0  0  0  0  0  0  0  0  0
  -31.7760  -14.7380   19.6440 O   0  0  0  0  0  0  0  0  0  0  0  0
  -29.9110  -15.6090   20.5580 N   0  0  0  0  0  0  0  0  0  0  0  0
  -29.0360  -15.3490   20.9880 H   0  0  0  0  0  0  0  0  0  0  0  0
  -25.2410  -13.9170   20.4180 C   0  0  0  0  0  0  0  0  0  0  0  0
  -24.1800  -13.1550   20.8240 C   0  0  0  0  0  0  0  0  0  0  0  0
  -24.6260  -11.7980   20.7700 C   0  0  0  0  0  0  0  0  0  0  0  0
  -26.2680  -13.0270   20.1440 N   0  0  0  0  0  0  0  0  0  0  0  0
  -25.9040  -11.7470   20.4140 N   0  0  0  0  0  0  0  0  0  0  0  0
  -23.8950  -10.5420   20.9820 C   0  0  0  0  0  0  0  0  0  0  0  0
  -24.3570   -9.5630   21.8880 C   0  0  0  0  0  3  0  0  0  0  0  0
  -23.6260   -8.3710   22.0880 C   0  0  0  0  0  3  0  0  0  0  0  0
  -22.4190   -8.1520   21.3830 C   0  0  0  0  0  0  0  0  0  0  0  0
  -21.9750   -9.1210   20.4660 C   0  0  0  0  0  3  0  0  0  0  0  0
  -22.7060  -10.3040   20.2640 C   0  0  0  0  0  3  0  0  0  0  0  0
  -21.6570   -7.0150   21.4950 O   0  0  0  0  0  0  0  0  0  0  0  0
  -21.6560   -6.2580   22.6390 C   0  0  0  0  0  0  0  0  0  0  0  0
  -21.3040   -6.8040   23.8930 C   0  0  0  0  0  3  0  0  0  0  0  0
  -21.2500   -5.9740   25.0310 C   0  0  0  0  0  3  0  0  0  0  0  0
  -21.5350   -4.6010   24.9170 C   0  0  0  0  0  0  0  0  0  0  0  0
  -21.8800   -4.0550   23.6680 C   0  0  0  0  0  3  0  0  0  0  0  0
  -21.9370   -4.8820   22.5310 C   0  0  0  0  0  0  0  0  0  0  0  0
  -22.2490   -4.3460   21.3260 F   0  0  0  0  0  0  0  0  0  0  0  0
  -21.4760   -3.8020   26.0080 F   0  0  0  0  0  0  0  0  0  0  0  0
  -22.7990  -13.6450   21.1510 C   0  0  0  0  0  0  0  0  0  0  0  0
  -22.0980  -12.9520   22.0420 N   0  0  0  0  0  0  0  0  0  0  0  0
  -22.3520  -14.6760   20.6520 O   0  0  0  0  0  0  0  0  0  0  0  0
  -22.4730  -12.1180   22.4680 H   0  0  0  0  0  0  0  0  0  0  0  0
  -21.1730  -13.2630   22.3040 H   0  0  0  0  0  0  0  0  0  0  0  0
  -25.4140  -15.2870   20.2390 N   0  0  0  0  0  0  0  0  0  0  0  0
  -24.6560  -15.9470   20.3780 H   0  0  0  0  0  0  0  0  0  0  0  0
  -26.2510  -15.7180   19.8670 H   0  0  0  0  0  0  0  0  0  0  0  0
  1  2  1  0
  1 45  1  0
  3  4  1  0
  3  2  1  0
  5 16  2  0
  6  4  1  0
  6 11  1  0
  7 15  1  0
  7 17  1  0
  8 14  1  0
  8 10  1  0
  9 15  1  0
 10  9  1  0
 11 10  2  0
 12 13  1  0
 12  6  2  0
 13  8  2  0
 14  7  1  0
 15  5  1  0
 17 19  2  0
 18 17  1  0
 20 18  1  0
 21 30  2  0
 21 26  1  0
 22 18  1  0
 22 26  1  0
 23 22  1  0
 24 25  1  0
 24 23  1  0
 25 21  1  0
 26 27  2  0
 27 28  1  0
 29 28  2  0
 30 29  1  0
 31  5  1  0
 31 36  1  0
 31 32  1  0
 32 35  1  1
 32 33  1  0
 34 32  1  0
 36 39  1  0
 37 41  1  0
 37 36  1  0
 38 37  2  0
 41 40  1  0
 43 41  1  0
 43 44  1  0
 43 42  1  0
 46 45  1  0
 46 47  1  0
 47 48  1  0
 49 58  1  0
 49 48  1  0
 50 58  1  0
 51 56  1  0
 52 53  1  0
 52 51  1  0
 54 53  1  0
 54 63  1  0
 54 55  1  0
 56 50  1  0
 56 55  1  0
 57 50  2  0
 58 59  1  0
 60 61  2  0
 61 80  1  0
 62 61  1  0
 62 65  1  0
 63 64  1  0
 63 60  1  0
 64 62  2  0
 65 66  1  0
 66 67  2  0
 68 71  1  0
 68 67  1  0
 69 68  2  0
 70 69  1  0
 70 65  2  0
 71 72  1  0
 72 73  1  0
 73 74  2  0
 75 74  1  0
 75 79  1  0
 76 75  2  0
 77 72  2  0
 77 76  1  0
 78 77  1  0
 80 81  1  0
 81 84  1  0
 81 83  1  0
 82 80  2  0
 85 86  1  0
 85 60  1  0
 87 85  1  0
M  ISO  4   3 101   4 101  50 100  58 100
M  END
>  <TORSDO>  (67) 
F 23

>  <SCORE>  (67) 
-12.462

>  <name>  (67) 
66

>  <ligand_id>  (67) 
66

>  <original_smiles>  (67) 
[H]c1c([H])c([H])c2c(c1[H])C([H])([H])C([H])([H])C([H])([H])C2([H])N([H])C(=O)C1([H])N(C(=O)C([H])(N([H])C(=O)C([H])(N([H])C([H])([H])[H])C([H])([H])[H])C(C([H])([H])[H])(C([H])([H])[H])C([H])([H])[H])C([H])([H])c2c([H])c(OC([H])([H])C([H])([H])OC([H])([H])C([H])([H])OC([H])([H])C([H])([H])N([H])C(=O)N3C([H])([H])C([H])([H])C([H])([H])C([H])(n4nc(-c5c([H])c([H])c(Oc6c([H])c([H])c(F)c([H])c6F)c([H])c5[H])c(C(=O)N([H])[H])c4N([H])[H])C3([H])[H])c([H])c([H])c2C1([H])[H]

>  <smiles>  (67) 
[H]c1c([H])c([H])c2c(c1[H])C([H])([H])C([H])([H])C([H])([H])C2([H])N([H])C(=O)C1([H])N(C(=O)C([H])(N([H])C(=O)C([H])(N([H])C([H])([H])[H])C([H])([H])[H])C(C([H])([H])[H])(C([H])([H])[H])C([H])([H])[H])C([H])([H])c2c([H])c(OC([H])([H])C([H])([H])OC([H])([H])C([H])([H])OC([H])([H])C([H])([H])N([H])C(=O)N3C([H])([H])C([H])([H])C([H])([H])C([H])(n4nc(-c5c([H])c([H])c(Oc6c([H])c([H])c(F)c([H])c6F)c([H])c5[H])c(C(=O)N([H])[H])c4N([H])[H])C3([H])[H])c([H])c([H])c2C1([H])[H]

$$$$
67:0:0
     RDKit          3D

 97105  0  0  1  0  0  0  0  0999 V2000
  -24.5640  -23.1620   20.6450 C   0  0  0  0  0  0  0  0  0  0  0  0
  -25.6090  -23.8270   21.1520 N   0  0  0  0  0  0  0  0  0  0  0  0
  -23.6160  -22.8630   21.3680 O   0  0  0  0  0  0  0  0  0  0  0  0
  -25.5510  -24.0770   22.1310 H   0  0  0  0  0  0  0  0  0  0  0  0
  -24.4950  -22.8290   19.1450 C   0  0  0  0  0  2  0  0  0  0  0  0
  -25.7050  -22.0860   18.5360 C   0  0  0  0  0  2  0  0  0  0  0  0
  -26.1630  -20.8170   19.2730 C   0  0  0  0  0  2  0  0  0  0  0  0
  -27.2710  -20.3150   18.5360 O   0  0  0  0  0  0  0  0  0  0  0  0
  -29.2890  -18.5000   21.1150 C   0  0  0  0  0  3  0  0  0  0  0  0
  -30.2470  -18.1990   18.8960 C   0  0  0  0  0  3  0  0  0  0  0  0
  -28.2570  -19.2890   20.5640 C   0  0  0  0  0  3  0  0  0  0  0  0
  -29.2160  -18.9840   18.3500 C   0  0  0  0  0  3  0  0  0  0  0  0
  -30.2900  -17.9460   20.2870 C   0  0  0  0  0  0  0  0  0  0  0  0
  -28.2200  -19.5460   19.1710 C   0  0  0  0  0  0  0  0  0  0  0  0
  -32.0240  -16.2030   20.3010 C   0  0  0  0  0  0  0  0  0  0  0  0
  -31.8520  -13.9430   19.3140 C   0  0  0  0  0  2  0  0  0  0  0  0
  -30.9550  -13.9460   18.0610 C   0  0  0  0  0  2  0  0  0  0  0  0
  -29.4740  -13.7680   18.4520 C   0  0  0  0  0  2  0  0  0  0  0  0
  -29.0390  -14.7380   19.5800 C   0  0  0  0  0  3  0  0  0  0  0  0
  -30.0450  -14.7040   20.7500 C   0  0  0  0  0  2  0  0  0  0  0  0
  -31.3780  -15.0120   20.2030 N   0  0  0  0  0  0  0  0  0  0  0  0
  -33.1440  -16.4040   19.8250 O   0  0  0  0  0  0  0  0  0  0  0  0
  -31.3480  -17.2060   20.8870 N   0  0  0  0  0  0  0  0  0  0  0  0
  -31.9340  -17.7830   21.4720 H   0  0  0  0  0  0  0  0  0  0  0  0
  -26.6340  -15.3580   20.2420 C   0  0  0  0  0  0  0  0  0  0  0  0
  -25.5530  -14.5910   20.5840 C   0  0  0  0  0  0  0  0  0  0  0  0
  -26.0110  -13.2380   20.5560 C   0  0  0  0  0  0  0  0  0  0  0  0
  -27.6790  -14.4730   20.0320 N   0  0  0  0  0  0  0  0  0  0  0  0
  -27.3060  -13.1930   20.2750 N   0  0  0  0  0  0  0  0  0  0  0  0
  -25.2770  -11.9790   20.7170 C   0  0  0  0  0  0  0  0  0  0  0  0
  -25.5350  -11.1100   21.8000 C   0  0  0  0  0  3  0  0  0  0  0  0
  -24.8070   -9.9100   21.9470 C   0  0  0  0  0  3  0  0  0  0  0  0
  -23.8060   -9.5740   21.0060 C   0  0  0  0  0  0  0  0  0  0  0  0
  -23.5650  -10.4330   19.9180 C   0  0  0  0  0  3  0  0  0  0  0  0
  -24.2960  -11.6220   19.7720 C   0  0  0  0  0  3  0  0  0  0  0  0
  -23.0650   -8.4180   21.0500 O   0  0  0  0  0  0  0  0  0  0  0  0
  -22.6170   -7.8980   22.2380 C   0  0  0  0  0  0  0  0  0  0  0  0
  -21.7860   -8.6370   23.1080 C   0  0  0  0  0  3  0  0  0  0  0  0
  -21.2920   -8.0400   24.2850 C   0  0  0  0  0  3  0  0  0  0  0  0
  -21.6190   -6.7040   24.5870 C   0  0  0  0  0  0  0  0  0  0  0  0
  -22.4410   -5.9650   23.7190 C   0  0  0  0  0  3  0  0  0  0  0  0
  -22.9370   -6.5590   22.5470 C   0  0  0  0  0  0  0  0  0  0  0  0
  -23.7120   -5.8380   21.7020 F   0  0  0  0  0  0  0  0  0  0  0  0
  -21.1380   -6.1270   25.7130 F   0  0  0  0  0  0  0  0  0  0  0  0
  -24.1550  -15.0760   20.8300 C   0  0  0  0  0  0  0  0  0  0  0  0
  -23.4300  -14.4240   21.7320 N   0  0  0  0  0  0  0  0  0  0  0  0
  -23.7100  -16.0680   20.2560 O   0  0  0  0  0  0  0  0  0  0  0  0
  -23.7980  -13.6190   22.2170 H   0  0  0  0  0  0  0  0  0  0  0  0
  -22.4910  -14.7340   21.9350 H   0  0  0  0  0  0  0  0  0  0  0  0
  -26.8040  -16.7250   20.0750 N   0  0  0  0  0  0  0  0  0  0  0  0
  -26.0440  -17.3840   20.1830 H   0  0  0  0  0  0  0  0  0  0  0  0
  -27.6870  -17.1690   19.8510 H   0  0  0  0  0  0  0  0  0  0  0  0
  -26.8780  -24.0840   20.4900 C   0  0  0  0  0  2  0  0  0  0  0  0
  -27.7890  -24.9720   21.3410 C   0  0  0  0  0  2  0  0  0  0  0  0
  -29.1960  -25.0600   20.7270 C   0  0  0  0  0  2  0  0  0  0  0  0
  -29.8930  -26.4040   20.9750 C   0  0  0  0  0  2  0  0  0  0  0  0
  -29.5680  -27.3230   19.9400 O   0  0  0  0  0  0  0  0  0  0  0  0
  -24.7610  -31.4640   23.1630 C   0  0  0  0  0  0  0  0  0  0  0  0
  -28.2890  -27.8110   19.9710 C   0  0  0  0  0  0  0  0  0  0  0  0
  -23.9060  -30.0320   21.3320 C   0  0  0  0  0  3  0  0  0  0  0  0
  -25.6790  -28.8660   19.9210 C   0  0  0  0  0  0  0  0  0  0  0  0
  -26.3400  -30.8060   21.3560 C   0  0  0  0  0  2  0  0  0  0  0  0
  -26.6880  -29.5230   20.6370 C   0  0  0  0  0  0  0  0  0  0  0  0
  -27.9950  -28.9980   20.6700 C   0  0  0  0  0  3  0  0  0  0  0  0
  -27.2720  -27.1580   19.2470 C   0  0  0  0  0  3  0  0  0  0  0  0
  -25.9610  -27.6730   19.2290 C   0  0  0  0  0  3  0  0  0  0  0  0
  -24.3110  -29.5090   19.9280 C   0  0  0  0  0  2  0  0  0  0  0  0
  -25.0130  -30.7810   22.0100 N   0  0  0  0  0  0  0  0  0  0  0  0
  -23.6190  -31.5140   23.6390 O   0  0  0  0  0  0  0  0  0  0  0  0
  -23.3720  -28.8450   22.1640 C   0  0  0  0  0  0  0  0  0  0  0  0
  -22.1200  -28.4430   21.8960 N   0  0  0  0  0  0  0  0  0  0  0  0
  -24.0850  -28.2900   23.0040 O   0  0  0  0  0  0  0  0  0  0  0  0
  -21.5950  -28.9540   21.1980 H   0  0  0  0  0  0  0  0  0  0  0  0
  -18.9760  -26.6720   22.0210 C   0  0  0  0  0  0  0  0  0  0  0  0
  -21.4240  -27.3240   22.5270 C   0  0  0  0  0  3  0  0  0  0  0  0
  -21.8130  -25.9830   21.8620 C   0  0  0  0  0  2  0  0  0  0  0  0
  -20.8580  -25.5690   20.7380 C   0  0  0  0  0  2  0  0  0  0  0  0
  -19.4280  -25.4310   21.2680 C   0  0  0  0  0  2  0  0  0  0  0  0
  -19.9140  -27.5690   22.5980 C   0  0  0  0  0  0  0  0  0  0  0  0
  -19.4420  -28.7240   23.2560 C   0  0  0  0  0  3  0  0  0  0  0  0
  -18.0620  -28.9910   23.3420 C   0  0  0  0  0  3  0  0  0  0  0  0
  -17.1370  -28.0930   22.7810 C   0  0  0  0  0  3  0  0  0  0  0  0
  -17.5940  -26.9350   22.1270 C   0  0  0  0  0  3  0  0  0  0  0  0
  -25.8890  -32.2310   23.9240 C   0  0  0  0  0  3  0  0  0  0  0  0
  -26.2810  -31.5620   25.2990 C   0  0  1  0  0  0  0  0  0  0  0  0
  -25.0680  -31.2370   26.2000 C   0  0  0  0  0  1  0  0  0  0  0  0
  -27.0620  -30.2490   25.0620 C   0  0  0  0  0  1  0  0  0  0  0  0
  -27.2200  -32.5020   26.0920 C   0  0  0  0  0  1  0  0  0  0  0  0
  -25.4240  -33.6090   24.1320 N   0  0  0  0  0  0  0  0  0  0  0  0
  -25.7510  -34.6480   23.3520 C   0  0  0  0  0  0  0  0  0  0  0  0
  -26.5470  -34.5560   22.4130 O   0  0  0  0  0  0  0  0  0  0  0  0
  -24.7340  -33.7490   24.8560 H   0  0  0  0  0  0  0  0  0  0  0  0
  -23.9200  -36.2390   22.6930 C   0  0  0  0  0  1  0  0  0  0  0  0
  -25.0890  -36.0040   23.6620 C   0  0  0  0  0  3  0  0  0  0  0  0
  -27.0120  -37.1450   24.6740 C   0  0  0  0  0  1  0  0  0  0  0  0
  -26.0270  -37.1450   23.5960 N   0  0  0  0  0  0  0  0  0  0  0  0
  -25.5240  -38.0280   23.6240 H   0  0  0  0  0  0  0  0  0  0  0  0
  1  2  1  0
  1  3  2  0
  2  4  1  0
  5  1  1  0
  6  5  1  0
  6  7  1  0
  8 14  1  0
  8  7  1  0
 10 13  1  0
 11  9  1  0
 12 10  2  0
 12 14  1  0
 13 23  1  0
 13  9  2  0
 14 11  2  0
 15 23  1  0
 16 21  1  0
 17 18  1  0
 17 16  1  0
 19 18  1  0
 19 28  1  0
 19 20  1  0
 21 15  1  0
 21 20  1  0
 22 15  2  0
 23 24  1  0
 25 26  2  0
 26 45  1  0
 27 26  1  0
 27 30  1  0
 28 25  1  0
 28 29  1  0
 29 27  2  0
 30 31  1  0
 31 32  2  0
 33 36  1  0
 33 32  1  0
 34 33  2  0
 35 34  1  0
 35 30  2  0
 36 37  1  0
 37 42  2  0
 37 38  1  0
 38 39  2  0
 39 40  1  0
 40 44  1  0
 41 40  2  0
 42 41  1  0
 43 42  1  0
 45 46  1  0
 46 49  1  0
 46 48  1  0
 47 45  2  0
 50 51  1  0
 50 25  1  0
 52 50  1  0
 53  2  1  0
 53 54  1  0
 55 56  1  0
 55 54  1  0
 57 59  1  0
 57 56  1  0
 58 69  2  0
 59 64  1  0
 60 68  1  0
 60 70  1  0
 61 67  1  0
 61 63  1  0
 62 68  1  0
 63 64  2  0
 63 62  1  0
 65 59  2  0
 66 65  1  0
 66 61  2  0
 67 60  1  0
 68 58  1  0
 70 72  2  0
 71 70  1  0
 73 71  1  0
 74 83  2  0
 74 79  1  0
 75 71  1  0
 75 79  1  0
 76 75  1  0
 77 78  1  0
 77 76  1  0
 78 74  1  0
 79 80  2  0
 80 81  1  0
 82 81  2  0
 83 82  1  0
 84 58  1  0
 84 89  1  0
 84 85  1  0
 85 88  1  1
 85 86  1  0
 87 85  1  0
 89 92  1  0
 90 94  1  0
 90 89  1  0
 91 90  2  0
 94 93  1  0
 96 97  1  0
 96 94  1  0
 96 95  1  0
M  ISO  4  15 100  23 100  56 101  57 101
M  END
>  <TORSDO>  (68) 
F 25

>  <SCORE>  (68) 
-6.003

>  <name>  (68) 
67

>  <ligand_id>  (68) 
67

>  <original_smiles>  (68) 
[H]c1c([H])c([H])c2c(c1[H])C([H])([H])C([H])([H])C([H])([H])C2([H])N([H])C(=O)C1([H])N(C(=O)C([H])(N([H])C(=O)C([H])(N([H])C([H])([H])[H])C([H])([H])[H])C(C([H])([H])[H])(C([H])([H])[H])C([H])([H])[H])C([H])([H])c2c([H])c(OC([H])([H])C([H])([H])C([H])([H])C([H])([H])N([H])C(=O)C([H])([H])C([H])([H])C([H])([H])Oc3c([H])c([H])c(N([H])C(=O)N4C([H])([H])C([H])([H])C([H])([H])C([H])(n5nc(-c6c([H])c([H])c(Oc7c([H])c([H])c(F)c([H])c7F)c([H])c6[H])c(C(=O)N([H])[H])c5N([H])[H])C4([H])[H])c([H])c3[H])c([H])c([H])c2C1([H])[H]

>  <smiles>  (68) 
[H]c1c([H])c([H])c2c(c1[H])C([H])([H])C([H])([H])C([H])([H])C2([H])N([H])C(=O)C1([H])N(C(=O)C([H])(N([H])C(=O)C([H])(N([H])C([H])([H])[H])C([H])([H])[H])C(C([H])([H])[H])(C([H])([H])[H])C([H])([H])[H])C([H])([H])c2c([H])c(OC([H])([H])C([H])([H])C([H])([H])C([H])([H])N([H])C(=O)C([H])([H])C([H])([H])C([H])([H])Oc3c([H])c([H])c(N([H])C(=O)N4C([H])([H])C([H])([H])C([H])([H])C([H])(n5nc(-c6c([H])c([H])c(Oc7c([H])c([H])c(F)c([H])c7F)c([H])c6[H])c(C(=O)N([H])[H])c5N([H])[H])C4([H])[H])c([H])c3[H])c([H])c([H])c2C1([H])[H]

$$$$
68:0:0
     RDKit          3D

 88 96  0  0  1  0  0  0  0  0999 V2000
  -28.2700  -18.1960   20.5690 C   0  0  0  0  0  3  0  0  0  0  0  0
  -30.5440  -18.6580   20.1620 C   0  0  0  0  0  3  0  0  0  0  0  0
  -27.9690  -19.6050   20.5110 C   0  0  0  0  0  3  0  0  0  0  0  0
  -30.2360  -20.0970   20.1140 C   0  0  0  0  0  3  0  0  0  0  0  0
  -29.5660  -17.6210   20.3920 C   0  0  0  0  0  0  0  0  0  0  0  0
  -28.9130  -20.6520   20.2830 C   0  0  0  0  0  0  0  0  0  0  0  0
  -30.5640  -15.0240   20.2100 C   0  0  0  0  0  0  0  0  0  0  0  0
  -30.4770  -12.6790   19.2500 C   0  0  0  0  0  2  0  0  0  0  0  0
  -29.4990  -12.6500   18.0480 C   0  0  0  0  0  2  0  0  0  0  0  0
  -28.0470  -12.4370   18.5210 C   0  0  0  0  0  2  0  0  0  0  0  0
  -27.6750  -13.3480   19.7200 C   0  0  0  0  0  3  0  0  0  0  0  0
  -28.7640  -13.3150   20.8150 C   0  0  0  0  0  2  0  0  0  0  0  0
  -30.0230  -13.7410   20.1870 N   0  0  0  0  0  0  0  0  0  0  0  0
  -31.7370  -15.1720   19.8490 O   0  0  0  0  0  0  0  0  0  0  0  0
  -29.6830  -16.0950   20.4860 N   0  0  0  0  0  0  0  0  0  0  0  0
  -28.8050  -15.6890   20.7700 H   0  0  0  0  0  0  0  0  0  0  0  0
  -25.3170  -13.9250   20.5440 C   0  0  0  0  0  0  0  0  0  0  0  0
  -24.2620  -13.1460   20.9340 C   0  0  0  0  0  0  0  0  0  0  0  0
  -24.7190  -11.7940   20.8530 C   0  0  0  0  0  0  0  0  0  0  0  0
  -26.3480  -13.0470   20.2490 N   0  0  0  0  0  0  0  0  0  0  0  0
  -25.9980  -11.7600   20.4990 N   0  0  0  0  0  0  0  0  0  0  0  0
  -23.9930  -10.5300   21.0340 C   0  0  0  0  0  0  0  0  0  0  0  0
  -24.4280   -9.5560   21.9590 C   0  0  0  0  0  3  0  0  0  0  0  0
  -23.7020   -8.3560   22.1280 C   0  0  0  0  0  3  0  0  0  0  0  0
  -22.5270   -8.1240   21.3750 C   0  0  0  0  0  0  0  0  0  0  0  0
  -22.1100   -9.0890   20.4410 C   0  0  0  0  0  3  0  0  0  0  0  0
  -22.8370  -10.2790   20.2680 C   0  0  0  0  0  3  0  0  0  0  0  0
  -21.7730   -6.9790   21.4560 O   0  0  0  0  0  0  0  0  0  0  0  0
  -21.6880   -6.2530   22.6170 C   0  0  0  0  0  0  0  0  0  0  0  0
  -21.1540   -6.8030   23.8030 C   0  0  0  0  0  3  0  0  0  0  0  0
  -21.0220   -6.0010   24.9530 C   0  0  0  0  0  3  0  0  0  0  0  0
  -21.4140   -4.6490   24.9190 C   0  0  0  0  0  0  0  0  0  0  0  0
  -21.9400   -4.0980   23.7370 C   0  0  0  0  0  3  0  0  0  0  0  0
  -22.0740   -4.8980   22.5890 C   0  0  0  0  0  0  0  0  0  0  0  0
  -22.5620   -4.3560   21.4470 F   0  0  0  0  0  0  0  0  0  0  0  0
  -21.2790   -3.8750   26.0220 F   0  0  0  0  0  0  0  0  0  0  0  0
  -22.8760  -13.6220   21.2610 C   0  0  0  0  0  0  0  0  0  0  0  0
  -22.1760  -12.9110   22.1370 N   0  0  0  0  0  0  0  0  0  0  0  0
  -22.4260  -14.6590   20.7750 O   0  0  0  0  0  0  0  0  0  0  0  0
  -22.5530  -12.0730   22.5520 H   0  0  0  0  0  0  0  0  0  0  0  0
  -21.2460  -13.2120   22.3990 H   0  0  0  0  0  0  0  0  0  0  0  0
  -25.4790  -15.2980   20.3870 N   0  0  0  0  0  0  0  0  0  0  0  0
  -24.6990  -15.9360   20.5080 H   0  0  0  0  0  0  0  0  0  0  0  0
  -26.2670  -15.7220   19.9170 H   0  0  0  0  0  0  0  0  0  0  0  0
  -28.3850  -22.0170   20.2260 O   0  0  0  0  0  0  0  0  0  0  0  0
  -29.0060  -23.4170   20.2140 C   0  0  0  0  0  3  0  0  0  0  0  0
  -28.0130  -24.7620   20.0050 C   0  0  0  0  0  3  0  0  0  0  0  0
  -28.2930  -26.2800   20.1940 O   0  0  0  0  0  0  0  0  0  0  0  0
  -24.6160  -31.8830   23.2510 C   0  0  0  0  0  0  0  0  0  0  0  0
  -27.2250  -27.2480   20.1450 C   0  0  0  0  0  0  0  0  0  0  0  0
  -23.4230  -30.5100   21.5880 C   0  0  0  0  0  3  0  0  0  0  0  0
  -24.8820  -28.9690   20.1390 C   0  0  0  0  0  0  0  0  0  0  0  0
  -25.9760  -30.7940   21.4300 C   0  0  0  0  0  2  0  0  0  0  0  0
  -26.0590  -29.4160   20.7540 C   0  0  0  0  0  0  0  0  0  0  0  0
  -27.2310  -28.5720   20.7390 C   0  0  0  0  0  3  0  0  0  0  0  0
  -26.0180  -26.9000   19.4960 C   0  0  0  0  0  3  0  0  0  0  0  0
  -24.8750  -27.7250   19.4950 C   0  0  0  0  0  3  0  0  0  0  0  0
  -23.6490  -29.8570   20.1990 C   0  0  0  0  0  2  0  0  0  0  0  0
  -24.6910  -31.0830   22.1440 N   0  0  0  0  0  0  0  0  0  0  0  0
  -23.5270  -32.1530   23.7830 O   0  0  0  0  0  0  0  0  0  0  0  0
  -22.7510  -29.4810   22.5320 C   0  0  0  0  0  0  0  0  0  0  0  0
  -21.4240  -29.3020   22.3970 N   0  0  0  0  0  0  0  0  0  0  0  0
  -23.4240  -28.8480   23.3490 O   0  0  0  0  0  0  0  0  0  0  0  0
  -20.9370  -29.8650   21.7140 H   0  0  0  0  0  0  0  0  0  0  0  0
  -18.0440  -28.1000   22.8940 C   0  0  0  0  0  0  0  0  0  0  0  0
  -20.6060  -28.3490   23.1520 C   0  0  0  0  0  3  0  0  0  0  0  0
  -20.6990  -26.9300   22.5440 C   0  0  0  0  0  2  0  0  0  0  0  0
  -19.5900  -26.6350   21.5290 C   0  0  0  0  0  2  0  0  0  0  0  0
  -18.2130  -26.7680   22.1850 C   0  0  0  0  0  2  0  0  0  0  0  0
  -19.1680  -28.8500   23.3340 C   0  0  0  0  0  0  0  0  0  0  0  0
  -18.9540  -30.0990   23.9590 C   0  0  0  0  0  3  0  0  0  0  0  0
  -17.6520  -30.5970   24.1490 C   0  0  0  0  0  3  0  0  0  0  0  0
  -16.5430  -29.8440   23.7240 C   0  0  0  0  0  3  0  0  0  0  0  0
  -16.7410  -28.5970   23.1030 C   0  0  0  0  0  3  0  0  0  0  0  0
  -25.8900  -32.5140   23.8890 C   0  0  0  0  0  3  0  0  0  0  0  0
  -26.3890  -31.7410   25.1720 C   0  0  1  0  0  0  0  0  0  0  0  0
  -25.2800  -31.5020   26.2240 C   0  0  0  0  0  1  0  0  0  0  0  0
  -26.9790  -30.3650   24.7900 C   0  0  0  0  0  1  0  0  0  0  0  0
  -27.5300  -32.5350   25.8510 C   0  0  0  0  0  1  0  0  0  0  0  0
  -25.5790  -33.9130   24.2220 N   0  0  0  0  0  0  0  0  0  0  0  0
  -25.8850  -34.9680   23.4560 C   0  0  0  0  0  0  0  0  0  0  0  0
  -26.5270  -34.8660   22.4060 O   0  0  0  0  0  0  0  0  0  0  0  0
  -25.0080  -34.0650   25.0400 H   0  0  0  0  0  0  0  0  0  0  0  0
  -24.1320  -36.7490   23.1580 C   0  0  0  0  0  1  0  0  0  0  0  0
  -25.4060  -36.3550   23.9250 C   0  0  0  0  0  3  0  0  0  0  0  0
  -27.5520  -37.2720   24.6870 C   0  0  0  0  0  1  0  0  0  0  0  0
  -26.4250  -37.4160   23.7700 N   0  0  0  0  0  0  0  0  0  0  0  0
  -26.0150  -38.3350   23.9150 H   0  0  0  0  0  0  0  0  0  0  0  0
  2  5  1  0
  3  1  1  0
  4  2  2  0
  4  6  1  0
  5 15  1  0
  5  1  2  0
  6  3  2  0
  7 15  1  0
  8 13  1  0
  9 10  1  0
  9  8  1  0
 11 10  1  0
 11 20  1  0
 11 12  1  0
 13  7  1  0
 13 12  1  0
 14  7  2  0
 15 16  1  0
 17 18  2  0
 18 37  1  0
 19 18  1  0
 19 22  1  0
 20 21  1  0
 20 17  1  0
 21 19  2  0
 22 23  1  0
 23 24  2  0
 25 28  1  0
 25 24  1  0
 26 25  2  0
 27 26  1  0
 27 22  2  0
 28 29  1  0
 29 30  1  0
 30 31  2  0
 32 31  1  0
 32 36  1  0
 33 32  2  0
 34 29  2  0
 34 33  1  0
 35 34  1  0
 37 38  1  0
 38 41  1  0
 38 40  1  0
 39 37  2  0
 42 43  1  0
 42 17  1  0
 44 42  1  0
 45  6  1  0
 46 45  1  0
 47 48  1  0
 47 46  2  0
 49 60  2  0
 50 48  1  0
 50 55  1  0
 51 59  1  0
 51 61  1  0
 52 58  1  0
 52 54  1  0
 53 59  1  0
 54 53  1  0
 55 54  2  0
 56 50  2  0
 57 56  1  0
 57 52  2  0
 58 51  1  0
 59 49  1  0
 61 63  2  0
 62 61  1  0
 64 62  1  0
 65 74  2  0
 65 70  1  0
 66 62  1  0
 66 70  1  0
 67 66  1  0
 68 69  1  0
 68 67  1  0
 69 65  1  0
 70 71  2  0
 71 72  1  0
 73 72  2  0
 74 73  1  0
 75 49  1  0
 75 80  1  0
 75 76  1  0
 76 79  1  1
 76 77  1  0
 78 76  1  0
 80 83  1  0
 81 85  1  0
 81 80  1  0
 82 81  2  0
 85 84  1  0
 87 88  1  0
 87 85  1  0
 87 86  1  0
M  ISO  4   7 100  15 100  47 101  48 101
M  END
>  <TORSDO>  (69) 
F 19

>  <SCORE>  (69) 
-14.020

>  <name>  (69) 
68

>  <ligand_id>  (69) 
68

>  <original_smiles>  (69) 
[H]c1c([H])c([H])c2c(c1[H])C([H])([H])C([H])([H])C([H])([H])C2([H])N([H])C(=O)C1([H])N(C(=O)C([H])(N([H])C(=O)C([H])(N([H])C([H])([H])[H])C([H])([H])[H])C(C([H])([H])[H])(C([H])([H])[H])C([H])([H])[H])C([H])([H])c2c([H])c(OC([H])([H])C([H])([H])Oc3c([H])c([H])c(N([H])C(=O)N4C([H])([H])C([H])([H])C([H])([H])C([H])(n5nc(-c6c([H])c([H])c(Oc7c([H])c([H])c(F)c([H])c7F)c([H])c6[H])c(C(=O)N([H])[H])c5N([H])[H])C4([H])[H])c([H])c3[H])c([H])c([H])c2C1([H])[H]

>  <smiles>  (69) 
[H]c1c([H])c([H])c2c(c1[H])C([H])([H])C([H])([H])C([H])([H])C2([H])N([H])C(=O)C1([H])N(C(=O)C([H])(N([H])C(=O)C([H])(N([H])C([H])([H])[H])C([H])([H])[H])C(C([H])([H])[H])(C([H])([H])[H])C([H])([H])[H])C([H])([H])c2c([H])c(OC([H])([H])C([H])([H])Oc3c([H])c([H])c(N([H])C(=O)N4C([H])([H])C([H])([H])C([H])([H])C([H])(n5nc(-c6c([H])c([H])c(Oc7c([H])c([H])c(F)c([H])c7F)c([H])c6[H])c(C(=O)N([H])[H])c5N([H])[H])C4([H])[H])c([H])c3[H])c([H])c([H])c2C1([H])[H]

$$$$
69:0:0
     RDKit          3D

 94102  0  0  1  0  0  0  0  0999 V2000
  -29.1650  -18.4000   20.7370 C   0  0  0  0  0  0  0  0  0  0  0  0
  -29.3520  -19.7270   20.5960 N   0  0  0  0  0  0  0  0  0  0  0  0
  -28.3110  -17.7880   20.0890 O   0  0  0  0  0  0  0  0  0  0  0  0
  -30.0800  -20.1590   21.1500 H   0  0  0  0  0  0  0  0  0  0  0  0
  -31.1730  -17.6900   23.9200 C   0  0  0  0  0  3  0  0  0  0  0  0
  -31.6750  -16.4000   23.6920 C   0  0  0  0  0  3  0  0  0  0  0  0
  -30.3840  -18.3210   22.9400 C   0  0  0  0  0  3  0  0  0  0  0  0
  -31.3790  -15.7400   22.4880 C   0  0  0  0  0  3  0  0  0  0  0  0
  -30.0710  -17.6790   21.7170 C   0  0  0  0  0  0  0  0  0  0  0  0
  -30.5740  -16.3560   21.4980 C   0  0  0  0  0  0  0  0  0  0  0  0
  -30.8490  -14.5520   19.8230 C   0  0  0  0  0  0  0  0  0  0  0  0
  -30.4000  -12.4480   18.6110 C   0  0  0  0  0  2  0  0  0  0  0  0
  -29.3650  -12.6650   17.4890 C   0  0  0  0  0  2  0  0  0  0  0  0
  -27.9250  -12.5610   18.0320 C   0  0  0  0  0  2  0  0  0  0  0  0
  -27.7030  -13.4000   19.3200 C   0  0  0  0  0  3  0  0  0  0  0  0
  -28.8330  -13.1470   20.3390 C   0  0  0  0  0  2  0  0  0  0  0  0
  -30.1100  -13.4270   19.6620 N   0  0  0  0  0  0  0  0  0  0  0  0
  -31.9680  -14.7150   19.3280 O   0  0  0  0  0  0  0  0  0  0  0  0
  -30.1830  -15.5790   20.3700 N   0  0  0  0  0  0  0  0  0  0  0  0
  -29.1910  -15.5850   20.1860 H   0  0  0  0  0  0  0  0  0  0  0  0
  -25.3980  -14.0610   20.2440 C   0  0  0  0  0  0  0  0  0  0  0  0
  -24.3400  -13.3110   20.6860 C   0  0  0  0  0  0  0  0  0  0  0  0
  -24.7570  -11.9480   20.5930 C   0  0  0  0  0  0  0  0  0  0  0  0
  -26.3900  -13.1550   19.9070 N   0  0  0  0  0  0  0  0  0  0  0  0
  -26.0160  -11.8780   20.1790 N   0  0  0  0  0  0  0  0  0  0  0  0
  -24.0140  -10.7020   20.8200 C   0  0  0  0  0  0  0  0  0  0  0  0
  -24.4660   -9.7320   21.7390 C   0  0  0  0  0  3  0  0  0  0  0  0
  -23.7300   -8.5470   21.9520 C   0  0  0  0  0  3  0  0  0  0  0  0
  -22.5240   -8.3250   21.2440 C   0  0  0  0  0  0  0  0  0  0  0  0
  -22.0910   -9.2840   20.3090 C   0  0  0  0  0  3  0  0  0  0  0  0
  -22.8300  -10.4600   20.0970 C   0  0  0  0  0  3  0  0  0  0  0  0
  -21.7550   -7.1950   21.3670 O   0  0  0  0  0  0  0  0  0  0  0  0
  -21.6880   -6.4920   22.5440 C   0  0  0  0  0  0  0  0  0  0  0  0
  -21.2690   -7.0940   23.7490 C   0  0  0  0  0  3  0  0  0  0  0  0
  -21.1480   -6.3190   24.9190 C   0  0  0  0  0  3  0  0  0  0  0  0
  -21.4380   -4.9410   24.8850 C   0  0  0  0  0  0  0  0  0  0  0  0
  -21.8480   -4.3370   23.6830 C   0  0  0  0  0  3  0  0  0  0  0  0
  -21.9720   -5.1110   22.5160 C   0  0  0  0  0  0  0  0  0  0  0  0
  -22.3490   -4.5210   21.3560 F   0  0  0  0  0  0  0  0  0  0  0  0
  -21.3140   -4.1940   26.0050 F   0  0  0  0  0  0  0  0  0  0  0  0
  -22.9840  -13.8190   21.0770 C   0  0  0  0  0  0  0  0  0  0  0  0
  -22.3120  -13.1280   21.9900 N   0  0  0  0  0  0  0  0  0  0  0  0
  -22.5280  -14.8570   20.6020 O   0  0  0  0  0  0  0  0  0  0  0  0
  -22.6990  -12.2900   22.3970 H   0  0  0  0  0  0  0  0  0  0  0  0
  -21.3970  -13.4410   22.2860 H   0  0  0  0  0  0  0  0  0  0  0  0
  -25.5940  -15.4290   20.0790 N   0  0  0  0  0  0  0  0  0  0  0  0
  -24.8790  -16.1160   20.2880 H   0  0  0  0  0  0  0  0  0  0  0  0
  -26.4350  -15.8430   19.6920 H   0  0  0  0  0  0  0  0  0  0  0  0
  -28.5460  -20.5780   19.7130 C   0  0  0  0  0  2  0  0  0  0  0  0
  -28.8840  -22.0880   19.8170 C   0  0  0  0  0  2  0  0  0  0  0  0
  -28.0150  -22.9560   18.8720 C   0  0  0  0  0  2  0  0  0  0  0  0
  -28.4220  -24.4470   18.7100 C   0  0  0  0  0  2  0  0  0  0  0  0
  -28.2420  -25.3360   19.9600 C   0  0  0  0  0  2  0  0  0  0  0  0
  -28.3250  -26.7460   19.6700 O   0  0  0  0  0  0  0  0  0  0  0  0
  -24.7880  -31.7010   23.3840 C   0  0  0  0  0  0  0  0  0  0  0  0
  -27.1680  -27.4890   19.7900 C   0  0  0  0  0  0  0  0  0  0  0  0
  -23.4700  -30.4840   21.6810 C   0  0  0  0  0  3  0  0  0  0  0  0
  -24.8130  -29.0430   20.0580 C   0  0  0  0  0  0  0  0  0  0  0  0
  -25.9930  -30.7980   21.3950 C   0  0  0  0  0  2  0  0  0  0  0  0
  -26.0110  -29.4860   20.6320 C   0  0  0  0  0  0  0  0  0  0  0  0
  -27.1910  -28.7180   20.4920 C   0  0  0  0  0  3  0  0  0  0  0  0
  -25.9520  -27.0660   19.2070 C   0  0  0  0  0  3  0  0  0  0  0  0
  -24.7800  -27.8330   19.3440 C   0  0  0  0  0  3  0  0  0  0  0  0
  -23.5950  -29.9220   20.2400 C   0  0  0  0  0  2  0  0  0  0  0  0
  -24.7720  -31.0030   22.2120 N   0  0  0  0  0  0  0  0  0  0  0  0
  -23.7410  -31.9500   23.9960 O   0  0  0  0  0  0  0  0  0  0  0  0
  -22.8300  -29.4020   22.5780 C   0  0  0  0  0  0  0  0  0  0  0  0
  -21.5050  -29.2180   22.4460 N   0  0  0  0  0  0  0  0  0  0  0  0
  -23.5210  -28.7310   23.3490 O   0  0  0  0  0  0  0  0  0  0  0  0
  -21.0030  -29.8170   21.8070 H   0  0  0  0  0  0  0  0  0  0  0  0
  -18.1660  -27.8920   22.7950 C   0  0  0  0  0  0  0  0  0  0  0  0
  -20.7040  -28.2200   23.1540 C   0  0  0  0  0  3  0  0  0  0  0  0
  -20.8710  -26.8190   22.5170 C   0  0  0  0  0  2  0  0  0  0  0  0
  -19.8100  -26.5070   21.4600 C   0  0  0  0  0  2  0  0  0  0  0  0
  -18.4070  -26.5780   22.0700 C   0  0  0  0  0  2  0  0  0  0  0  0
  -19.2460  -28.6700   23.2910 C   0  0  0  0  0  0  0  0  0  0  0  0
  -18.9670  -29.8990   23.9280 C   0  0  0  0  0  3  0  0  0  0  0  0
  -17.6420  -30.3500   24.0730 C   0  0  0  0  0  3  0  0  0  0  0  0
  -16.5770  -29.5690   23.5920 C   0  0  0  0  0  3  0  0  0  0  0  0
  -16.8390  -28.3410   22.9600 C   0  0  0  0  0  3  0  0  0  0  0  0
  -26.1180  -32.2380   24.0000 C   0  0  0  0  0  3  0  0  0  0  0  0
  -25.8670  -33.6070   24.4700 N   0  0  0  0  0  0  0  0  0  0  0  0
  -26.2050  -34.7160   23.7990 C   0  0  0  0  0  0  0  0  0  0  0  0
  -26.8340  -34.6910   22.7370 O   0  0  0  0  0  0  0  0  0  0  0  0
  -25.3100  -33.7030   25.3080 H   0  0  0  0  0  0  0  0  0  0  0  0
  -24.5240  -36.5800   23.6760 C   0  0  0  0  0  1  0  0  0  0  0  0
  -25.7790  -36.0690   24.4010 C   0  0  0  0  0  3  0  0  0  0  0  0
  -27.9680  -36.8090   25.2290 C   0  0  0  0  0  1  0  0  0  0  0  0
  -26.8400  -37.0980   24.3470 N   0  0  0  0  0  0  0  0  0  0  0  0
  -26.4690  -38.0110   24.5970 H   0  0  0  0  0  0  0  0  0  0  0  0
  -26.6690  -31.3380   25.1740 C   0  0  1  0  0  0  0  0  0  0  0  0
  -25.6160  -31.0150   26.2580 C   0  0  0  0  0  1  0  0  0  0  0  0
  -27.2080  -30.0000   24.6220 C   0  0  0  0  0  1  0  0  0  0  0  0
  -27.8630  -32.0470   25.8580 C   0  0  0  0  0  1  0  0  0  0  0  0
  1  9  1  0
  2  1  1  0
  2  4  1  0
  3  1  2  0
  6  5  1  0
  7  5  2  0
  8  6  2  0
  9  7  1  0
 10  9  2  0
 10  8  1  0
 11 19  1  0
 12 17  1  0
 13 14  1  0
 13 12  1  0
 15 14  1  0
 15 24  1  0
 15 16  1  0
 17 11  1  0
 17 16  1  0
 18 11  2  0
 19 10  1  0
 20 19  1  0
 21 22  2  0
 22 41  1  0
 23 22  1  0
 23 26  1  0
 24 25  1  0
 24 21  1  0
 25 23  2  0
 26 27  1  0
 27 28  2  0
 29 32  1  0
 29 28  1  0
 30 29  2  0
 31 30  1  0
 31 26  2  0
 32 33  1  0
 33 34  1  0
 34 35  2  0
 36 35  1  0
 36 40  1  0
 37 36  2  0
 38 33  2  0
 38 37  1  0
 39 38  1  0
 41 42  1  0
 42 45  1  0
 42 44  1  0
 43 41  2  0
 46 21  1  0
 46 47  1  0
 48 46  1  0
 49 50  1  0
 49  2  1  0
 51 50  1  0
 52 51  1  0
 52 53  1  0
 54 56  1  0
 54 53  1  0
 55 66  2  0
 56 61  1  0
 57 65  1  0
 57 67  1  0
 58 64  1  0
 58 60  1  0
 59 65  1  0
 60 59  1  0
 61 60  2  0
 62 63  1  0
 62 56  2  0
 63 58  2  0
 64 57  1  0
 65 55  1  0
 67 69  2  0
 68 67  1  0
 70 68  1  0
 71 80  2  0
 71 76  1  0
 72 68  1  0
 72 76  1  0
 73 72  1  0
 74 75  1  0
 74 73  1  0
 75 71  1  0
 76 77  2  0
 77 78  1  0
 79 78  2  0
 80 79  1  0
 81 55  1  0
 81 82  1  0
 81 91  1  0
 82 85  1  0
 83 87  1  0
 83 82  1  0
 84 83  2  0
 87 86  1  0
 89 87  1  0
 89 90  1  0
 89 88  1  0
 91 94  1  1
 91 92  1  0
 93 91  1  0
M  ISO  4  11 100  19 100  53 101  54 101
M  END
>  <TORSDO>  (70) 
F 22

>  <SCORE>  (70) 
-7.546

>  <name>  (70) 
69

>  <ligand_id>  (70) 
69

>  <original_smiles>  (70) 
[H]c1c([H])c([H])c(N([H])C(=O)N2C([H])([H])C([H])([H])C([H])([H])C([H])(n3nc(-c4c([H])c([H])c(Oc5c([H])c([H])c(F)c([H])c5F)c([H])c4[H])c(C(=O)N([H])[H])c3N([H])[H])C2([H])[H])c(C(=O)N([H])C([H])([H])C([H])([H])C([H])([H])C([H])([H])C([H])([H])Oc2c([H])c([H])c3c(c2[H])C([H])([H])N(C(=O)C([H])(N([H])C(=O)C([H])(N([H])C([H])([H])[H])C([H])([H])[H])C(C([H])([H])[H])(C([H])([H])[H])C([H])([H])[H])C([H])(C(=O)N([H])C2([H])c4c([H])c([H])c([H])c([H])c4C([H])([H])C([H])([H])C2([H])[H])C3([H])[H])c1[H]

>  <smiles>  (70) 
[H]c1c([H])c([H])c(N([H])C(=O)N2C([H])([H])C([H])([H])C([H])([H])C([H])(n3nc(-c4c([H])c([H])c(Oc5c([H])c([H])c(F)c([H])c5F)c([H])c4[H])c(C(=O)N([H])[H])c3N([H])[H])C2([H])[H])c(C(=O)N([H])C([H])([H])C([H])([H])C([H])([H])C([H])([H])C([H])([H])Oc2c([H])c([H])c3c(c2[H])C([H])([H])N(C(=O)C([H])(N([H])C(=O)C([H])(N([H])C([H])([H])[H])C([H])([H])[H])C(C([H])([H])[H])(C([H])([H])[H])C([H])([H])[H])C([H])(C(=O)N([H])C2([H])c4c([H])c([H])c([H])c([H])c4C([H])([H])C([H])([H])C2([H])[H])C3([H])[H])c1[H]

$$$$
70:0:0
     RDKit          3D

 85 93  0  0  1  0  0  0  0  0999 V2000
  -27.8690  -20.5330   20.2500 C   0  0  0  0  0  3  0  0  0  0  0  0
  -29.9410  -20.9170   20.2420 C   0  0  0  0  0  3  0  0  0  0  0  0
  -27.5530  -22.1030   20.2650 C   0  0  0  0  0  3  0  0  0  0  0  0
  -29.6220  -22.4840   20.2590 C   0  0  0  0  0  3  0  0  0  0  0  0
  -29.1170  -19.6110   20.2350 C   0  0  0  0  0  0  0  0  0  0  0  0
  -28.3750  -23.4100   20.2720 C   0  0  0  0  0  0  0  0  0  0  0  0
  -30.1350  -16.2720   20.1640 C   0  0  0  0  0  0  0  0  0  0  0  0
  -30.4150  -13.6120   19.3740 C   0  0  0  0  0  2  0  0  0  0  0  0
  -29.5800  -12.9620   18.2160 C   0  0  0  0  0  2  0  0  0  0  0  0
  -28.2080  -12.4820   18.7050 C   0  0  0  0  0  2  0  0  0  0  0  0
  -27.6220  -13.4990   19.7000 C   0  0  0  0  0  3  0  0  0  0  0  0
  -28.6220  -14.0210   20.7740 C   0  0  0  0  0  2  0  0  0  0  0  0
  -29.6930  -14.8130   20.0790 N   0  0  0  0  0  0  0  0  0  0  0  0
  -31.3800  -16.1530   20.0280 O   0  0  0  0  0  0  0  0  0  0  0  0
  -29.3210  -17.7340   20.2220 N   0  0  0  0  0  0  0  0  0  0  0  0
  -28.3760  -17.3810   20.2740 H   0  0  0  0  0  0  0  0  0  0  0  0
  -25.2700  -13.9480   20.5120 C   0  0  0  0  0  0  0  0  0  0  0  0
  -24.2310  -13.1450   20.8780 C   0  0  0  0  0  0  0  0  0  0  0  0
  -24.7240  -11.8040   20.8200 C   0  0  0  0  0  0  0  0  0  0  0  0
  -26.3290  -13.1030   20.2440 N   0  0  0  0  0  0  0  0  0  0  0  0
  -26.0170  -11.8020   20.4920 N   0  0  0  0  0  0  0  0  0  0  0  0
  -24.0140  -10.5290   21.0000 C   0  0  0  0  0  0  0  0  0  0  0  0
  -24.4420   -9.5660   21.9410 C   0  0  0  0  0  3  0  0  0  0  0  0
  -23.7250   -8.3630   22.1140 C   0  0  0  0  0  3  0  0  0  0  0  0
  -22.5630   -8.1110   21.3470 C   0  0  0  0  0  0  0  0  0  0  0  0
  -22.1520   -9.0620   20.3960 C   0  0  0  0  0  3  0  0  0  0  0  0
  -22.8690  -10.2570   20.2220 C   0  0  0  0  0  3  0  0  0  0  0  0
  -21.8180   -6.9590   21.4280 O   0  0  0  0  0  0  0  0  0  0  0  0
  -21.7340   -6.2350   22.5910 C   0  0  0  0  0  0  0  0  0  0  0  0
  -21.2190   -6.7950   23.7800 C   0  0  0  0  0  3  0  0  0  0  0  0
  -21.0870   -5.9970   24.9340 C   0  0  0  0  0  3  0  0  0  0  0  0
  -21.4570   -4.6390   24.8980 C   0  0  0  0  0  0  0  0  0  0  0  0
  -21.9650   -4.0790   23.7130 C   0  0  0  0  0  3  0  0  0  0  0  0
  -22.1000   -4.8740   22.5620 C   0  0  0  0  0  0  0  0  0  0  0  0
  -22.5680   -4.3230   21.4150 F   0  0  0  0  0  0  0  0  0  0  0  0
  -21.3240   -3.8690   26.0030 F   0  0  0  0  0  0  0  0  0  0  0  0
  -22.8300  -13.5980   21.1600 C   0  0  0  0  0  0  0  0  0  0  0  0
  -22.1210  -12.8920   22.0330 N   0  0  0  0  0  0  0  0  0  0  0  0
  -22.3730  -14.6170   20.6430 O   0  0  0  0  0  0  0  0  0  0  0  0
  -22.5050  -12.0690   22.4740 H   0  0  0  0  0  0  0  0  0  0  0  0
  -21.1810  -13.1790   22.2660 H   0  0  0  0  0  0  0  0  0  0  0  0
  -25.4000  -15.3240   20.3460 N   0  0  0  0  0  0  0  0  0  0  0  0
  -24.6150  -15.9550   20.4640 H   0  0  0  0  0  0  0  0  0  0  0  0
  -26.2250  -15.7790   19.9790 H   0  0  0  0  0  0  0  0  0  0  0  0
  -28.2040  -25.1520   20.3060 O   0  0  0  0  0  0  0  0  0  0  0  0
  -24.6990  -31.8750   23.1860 C   0  0  0  0  0  0  0  0  0  0  0  0
  -27.2260  -26.4850   20.2890 C   0  0  0  0  0  0  0  0  0  0  0  0
  -23.5350  -30.4560   21.5570 C   0  0  0  0  0  3  0  0  0  0  0  0
  -24.9910  -28.7300   20.1880 C   0  0  0  0  0  0  0  0  0  0  0  0
  -26.1260  -30.4990   21.4920 C   0  0  0  0  0  2  0  0  0  0  0  0
  -26.1870  -29.0250   20.8520 C   0  0  0  0  0  0  0  0  0  0  0  0
  -27.2670  -27.9420   20.8620 C   0  0  0  0  0  3  0  0  0  0  0  0
  -25.9970  -26.4900   19.5550 C   0  0  0  0  0  3  0  0  0  0  0  0
  -24.9550  -27.4910   19.5150 C   0  0  0  0  0  3  0  0  0  0  0  0
  -23.8000  -29.7230   20.2050 C   0  0  0  0  0  2  0  0  0  0  0  0
  -24.8140  -30.9850   22.1290 N   0  0  0  0  0  0  0  0  0  0  0  0
  -23.5970  -32.1920   23.6700 O   0  0  0  0  0  0  0  0  0  0  0  0
  -22.7800  -29.5160   22.5370 C   0  0  0  0  0  0  0  0  0  0  0  0
  -21.4440  -29.3840   22.4100 N   0  0  0  0  0  0  0  0  0  0  0  0
  -23.4160  -28.8980   23.3940 O   0  0  0  0  0  0  0  0  0  0  0  0
  -20.9760  -29.9330   21.7010 H   0  0  0  0  0  0  0  0  0  0  0  0
  -18.0400  -28.2000   22.9360 C   0  0  0  0  0  0  0  0  0  0  0  0
  -20.6050  -28.4590   23.1850 C   0  0  0  0  0  3  0  0  0  0  0  0
  -20.6930  -27.0230   22.6170 C   0  0  0  0  0  2  0  0  0  0  0  0
  -19.5880  -26.7060   21.6050 C   0  0  0  0  0  2  0  0  0  0  0  0
  -18.2090  -26.8540   22.2510 C   0  0  0  0  0  2  0  0  0  0  0  0
  -19.1640  -28.9620   23.3590 C   0  0  0  0  0  0  0  0  0  0  0  0
  -18.9470  -30.2160   23.9670 C   0  0  0  0  0  3  0  0  0  0  0  0
  -17.6430  -30.7140   24.1500 C   0  0  0  0  0  3  0  0  0  0  0  0
  -16.5350  -29.9530   23.7380 C   0  0  0  0  0  3  0  0  0  0  0  0
  -16.7340  -28.6970   23.1370 C   0  0  0  0  0  3  0  0  0  0  0  0
  -25.9420  -32.5460   23.8440 C   0  0  0  0  0  3  0  0  0  0  0  0
  -25.6070  -33.9530   24.1650 N   0  0  0  0  0  0  0  0  0  0  0  0
  -25.9340  -35.0200   23.4240 C   0  0  0  0  0  0  0  0  0  0  0  0
  -26.5960  -34.9260   22.3880 O   0  0  0  0  0  0  0  0  0  0  0  0
  -25.0120  -34.0970   24.9680 H   0  0  0  0  0  0  0  0  0  0  0  0
  -24.1920  -36.8230   23.1260 C   0  0  0  0  0  1  0  0  0  0  0  0
  -25.4560  -36.4120   23.9000 C   0  0  0  0  0  3  0  0  0  0  0  0
  -27.5990  -37.3240   24.6860 C   0  0  0  0  0  1  0  0  0  0  0  0
  -26.4820  -37.4700   23.7570 N   0  0  0  0  0  0  0  0  0  0  0  0
  -26.0730  -38.3910   23.8940 H   0  0  0  0  0  0  0  0  0  0  0  0
  -26.4160  -31.8110   25.1610 C   0  0  1  0  0  0  0  0  0  0  0  0
  -25.2890  -31.6010   26.2010 C   0  0  0  0  0  1  0  0  0  0  0  0
  -27.0110  -30.4230   24.8420 C   0  0  0  0  0  1  0  0  0  0  0  0
  -27.5460  -32.6230   25.8390 C   0  0  0  0  0  1  0  0  0  0  0  0
  1  3  1  0
  2  4  2  0
  3  6  2  0
  4  6  1  0
  5  2  1  0
  5  1  2  0
  6 45  1  0
  7 15  1  0
  8 13  1  0
  9 10  1  0
  9  8  1  0
 11 10  1  0
 11 20  1  0
 11 12  1  0
 13  7  1  0
 13 12  1  0
 14  7  2  0
 15  5  1  0
 15 16  1  0
 17 18  2  0
 18 37  1  0
 19 18  1  0
 19 22  1  0
 20 21  1  0
 20 17  1  0
 21 19  2  0
 22 23  1  0
 23 24  2  0
 25 28  1  0
 25 24  1  0
 26 25  2  0
 27 26  1  0
 27 22  2  0
 28 29  1  0
 29 30  1  0
 30 31  2  0
 32 31  1  0
 32 36  1  0
 33 32  2  0
 34 29  2  0
 34 33  1  0
 35 34  1  0
 37 38  1  0
 38 41  1  0
 38 40  1  0
 39 37  2  0
 42 43  1  0
 42 17  1  0
 44 42  1  0
 46 57  2  0
 47 45  1  0
 47 52  1  0
 48 56  1  0
 48 58  1  0
 49 55  1  0
 49 51  1  0
 50 56  1  0
 51 52  2  0
 51 50  1  0
 53 47  2  0
 54 53  1  0
 54 49  2  0
 55 48  1  0
 56 46  1  0
 58 60  2  0
 59 58  1  0
 61 59  1  0
 62 71  2  0
 62 67  1  0
 63 59  1  0
 63 67  1  0
 64 63  1  0
 65 66  1  0
 65 64  1  0
 66 62  1  0
 67 68  2  0
 68 69  1  0
 70 69  2  0
 71 70  1  0
 72 46  1  0
 72 73  1  0
 72 82  1  0
 73 76  1  0
 74 78  1  0
 74 73  1  0
 75 74  2  0
 78 77  1  0
 80 81  1  0
 80 78  1  0
 80 79  1  0
 82 85  1  1
 82 83  1  0
 84 82  1  0
M  ISO  4   6 101   7 100  15 100  45 101
M  END
>  <TORSDO>  (71) 
F 16

>  <SCORE>  (71) 
-16.478

>  <name>  (71) 
70

>  <ligand_id>  (71) 
70

>  <original_smiles>  (71) 
[H]c1c([H])c([H])c2c(c1[H])C([H])([H])C([H])([H])C([H])([H])C2([H])N([H])C(=O)C1([H])N(C(=O)C([H])(N([H])C(=O)C([H])(N([H])C([H])([H])[H])C([H])([H])[H])C(C([H])([H])[H])(C([H])([H])[H])C([H])([H])[H])C([H])([H])c2c([H])c(Oc3c([H])c([H])c(N([H])C(=O)N4C([H])([H])C([H])([H])C([H])([H])C([H])(n5nc(-c6c([H])c([H])c(Oc7c([H])c([H])c(F)c([H])c7F)c([H])c6[H])c(C(=O)N([H])[H])c5N([H])[H])C4([H])[H])c([H])c3[H])c([H])c([H])c2C1([H])[H]

>  <smiles>  (71) 
[H]c1c([H])c([H])c2c(c1[H])C([H])([H])C([H])([H])C([H])([H])C2([H])N([H])C(=O)C1([H])N(C(=O)C([H])(N([H])C(=O)C([H])(N([H])C([H])([H])[H])C([H])([H])[H])C(C([H])([H])[H])(C([H])([H])[H])C([H])([H])[H])C([H])([H])c2c([H])c(Oc3c([H])c([H])c(N([H])C(=O)N4C([H])([H])C([H])([H])C([H])([H])C([H])(n5nc(-c6c([H])c([H])c(Oc7c([H])c([H])c(F)c([H])c7F)c([H])c6[H])c(C(=O)N([H])[H])c5N([H])[H])C4([H])[H])c([H])c3[H])c([H])c([H])c2C1([H])[H]

$$$$
71:0:0
     RDKit          3D

 93101  0  0  1  0  0  0  0  0999 V2000
  -29.4300  -21.9980   20.4490 C   0  0  0  0  0  0  0  0  0  0  0  0
  -30.0310  -21.1040   21.2560 N   0  0  0  0  0  0  0  0  0  0  0  0
  -29.0520  -21.7130   19.3090 O   0  0  0  0  0  0  0  0  0  0  0  0
  -30.4300  -21.4630   22.1120 H   0  0  0  0  0  0  0  0  0  0  0  0
  -31.3350  -19.0120   21.1030 C   0  0  0  0  0  3  0  0  0  0  0  0
  -28.9090  -18.9350   20.9590 C   0  0  0  0  0  3  0  0  0  0  0  0
  -31.3890  -17.5990   21.0170 C   0  0  0  0  0  3  0  0  0  0  0  0
  -28.9620  -17.5260   20.8990 C   0  0  0  0  0  3  0  0  0  0  0  0
  -30.0960  -19.6920   21.0670 C   0  0  0  0  0  0  0  0  0  0  0  0
  -30.1980  -16.8400   20.9210 C   0  0  0  0  0  0  0  0  0  0  0  0
  -30.8150  -14.5220   20.1550 C   0  0  0  0  0  0  0  0  0  0  0  0
  -30.4800  -12.4150   18.9010 C   0  0  0  0  0  2  0  0  0  0  0  0
  -29.4580  -12.6580   17.7690 C   0  0  0  0  0  2  0  0  0  0  0  0
  -28.0110  -12.4990   18.2810 C   0  0  0  0  0  2  0  0  0  0  0  0
  -27.7530  -13.2780   19.5980 C   0  0  0  0  0  3  0  0  0  0  0  0
  -28.8690  -12.9850   20.6240 C   0  0  0  0  0  2  0  0  0  0  0  0
  -30.1630  -13.3340   20.0040 N   0  0  0  0  0  0  0  0  0  0  0  0
  -31.8780  -14.7810   19.5800 O   0  0  0  0  0  0  0  0  0  0  0  0
  -30.1540  -15.4120   20.9210 N   0  0  0  0  0  0  0  0  0  0  0  0
  -29.3250  -15.0140   21.3350 H   0  0  0  0  0  0  0  0  0  0  0  0
  -25.3990  -13.8630   20.4630 C   0  0  0  0  0  0  0  0  0  0  0  0
  -24.3520  -13.0780   20.8700 C   0  0  0  0  0  0  0  0  0  0  0  0
  -24.8070  -11.7280   20.7630 C   0  0  0  0  0  0  0  0  0  0  0  0
  -26.4270  -12.9910   20.1420 N   0  0  0  0  0  0  0  0  0  0  0  0
  -26.0770  -11.6990   20.3760 N   0  0  0  0  0  0  0  0  0  0  0  0
  -24.0920  -10.4600   20.9510 C   0  0  0  0  0  0  0  0  0  0  0  0
  -24.5240   -9.5030   21.8950 C   0  0  0  0  0  3  0  0  0  0  0  0
  -23.8100   -8.2970   22.0700 C   0  0  0  0  0  3  0  0  0  0  0  0
  -22.6490   -8.0430   21.3010 C   0  0  0  0  0  0  0  0  0  0  0  0
  -22.2370   -8.9900   20.3470 C   0  0  0  0  0  3  0  0  0  0  0  0
  -22.9520  -10.1860   20.1690 C   0  0  0  0  0  3  0  0  0  0  0  0
  -21.9070   -6.8900   21.3840 O   0  0  0  0  0  0  0  0  0  0  0  0
  -21.7740   -6.2030   22.5640 C   0  0  0  0  0  0  0  0  0  0  0  0
  -21.2080   -6.7990   23.7130 C   0  0  0  0  0  3  0  0  0  0  0  0
  -21.0270   -6.0350   24.8840 C   0  0  0  0  0  3  0  0  0  0  0  0
  -21.4010   -4.6780   24.9060 C   0  0  0  0  0  0  0  0  0  0  0  0
  -21.9600   -4.0830   23.7610 C   0  0  0  0  0  3  0  0  0  0  0  0
  -22.1430   -4.8440   22.5930 C   0  0  0  0  0  0  0  0  0  0  0  0
  -22.6630   -4.2590   21.4860 F   0  0  0  0  0  0  0  0  0  0  0  0
  -21.2200   -3.9430   26.0280 F   0  0  0  0  0  0  0  0  0  0  0  0
  -22.9750  -13.5450   21.2440 C   0  0  0  0  0  0  0  0  0  0  0  0
  -22.2970  -12.8130   22.1210 N   0  0  0  0  0  0  0  0  0  0  0  0
  -22.5100  -14.5920   20.7950 O   0  0  0  0  0  0  0  0  0  0  0  0
  -22.6870  -11.9650   22.5050 H   0  0  0  0  0  0  0  0  0  0  0  0
  -21.3750  -13.1060   22.4140 H   0  0  0  0  0  0  0  0  0  0  0  0
  -25.5550  -15.2390   20.3220 N   0  0  0  0  0  0  0  0  0  0  0  0
  -24.7920  -15.8860   20.4860 H   0  0  0  0  0  0  0  0  0  0  0  0
  -26.3680  -15.6810   19.9130 H   0  0  0  0  0  0  0  0  0  0  0  0
  -29.2730  -23.3080   21.0720 C   0  0  0  0  0  3  0  0  0  0  0  0
  -28.9580  -24.4060   20.3420 C   0  0  0  0  0  3  0  0  0  0  0  0
  -28.6680  -25.7150   20.9700 C   0  0  0  0  0  0  0  0  0  0  0  0
  -28.5320  -25.8780   22.1860 O   0  0  0  0  0  0  0  0  0  0  0  0
  -28.4620  -26.6960   20.0490 O   0  0  0  0  0  0  0  0  0  0  0  0
  -24.6650  -31.8840   23.2100 C   0  0  0  0  0  0  0  0  0  0  0  0
  -27.3150  -27.4550   20.1270 C   0  0  0  0  0  0  0  0  0  0  0  0
  -23.4550  -30.4720   21.5790 C   0  0  0  0  0  3  0  0  0  0  0  0
  -24.9110  -28.9430   20.1470 C   0  0  0  0  0  0  0  0  0  0  0  0
  -25.9750  -30.8520   21.3580 C   0  0  0  0  0  2  0  0  0  0  0  0
  -26.0700  -29.4780   20.7250 C   0  0  0  0  0  0  0  0  0  0  0  0
  -27.2800  -28.7440   20.7110 C   0  0  0  0  0  3  0  0  0  0  0  0
  -26.1430  -26.9410   19.5330 C   0  0  0  0  0  3  0  0  0  0  0  0
  -24.9410  -27.6720   19.5480 C   0  0  0  0  0  3  0  0  0  0  0  0
  -23.6600  -29.7910   20.1990 C   0  0  0  0  0  2  0  0  0  0  0  0
  -24.7170  -31.0830   22.1080 N   0  0  0  0  0  0  0  0  0  0  0  0
  -23.5860  -32.1480   23.7600 O   0  0  0  0  0  0  0  0  0  0  0  0
  -22.8190  -29.4460   22.5460 C   0  0  0  0  0  0  0  0  0  0  0  0
  -21.4950  -29.2540   22.4300 N   0  0  0  0  0  0  0  0  0  0  0  0
  -23.5150  -28.8260   23.3540 O   0  0  0  0  0  0  0  0  0  0  0  0
  -20.9950  -29.8070   21.7470 H   0  0  0  0  0  0  0  0  0  0  0  0
  -18.1330  -28.0380   22.9530 C   0  0  0  0  0  0  0  0  0  0  0  0
  -20.6910  -28.3110   23.2060 C   0  0  0  0  0  3  0  0  0  0  0  0
  -20.7980  -26.8800   22.6280 C   0  0  0  0  0  2  0  0  0  0  0  0
  -19.6890  -26.5520   21.6230 C   0  0  0  0  0  2  0  0  0  0  0  0
  -18.3120  -26.6900   22.2770 C   0  0  0  0  0  2  0  0  0  0  0  0
  -19.2500  -28.8060   23.3750 C   0  0  0  0  0  0  0  0  0  0  0  0
  -19.0300  -30.0690   23.9660 C   0  0  0  0  0  3  0  0  0  0  0  0
  -17.7250  -30.5650   24.1410 C   0  0  0  0  0  3  0  0  0  0  0  0
  -16.6210  -29.7930   23.7370 C   0  0  0  0  0  3  0  0  0  0  0  0
  -16.8260  -28.5320   23.1490 C   0  0  0  0  0  3  0  0  0  0  0  0
  -25.9520  -32.5230   23.8180 C   0  0  0  0  0  3  0  0  0  0  0  0
  -26.4940  -31.7490   25.0810 C   0  0  1  0  0  0  0  0  0  0  0  0
  -25.4160  -31.4900   26.1610 C   0  0  0  0  0  1  0  0  0  0  0  0
  -27.0860  -30.3820   24.6670 C   0  0  0  0  0  1  0  0  0  0  0  0
  -27.6440  -32.5490   25.7360 C   0  0  0  0  0  1  0  0  0  0  0  0
  -25.6360  -33.9170   24.1580 N   0  0  0  0  0  0  0  0  0  0  0  0
  -25.9540  -34.9750   23.4010 C   0  0  0  0  0  0  0  0  0  0  0  0
  -26.6180  -34.8820   22.3640 O   0  0  0  0  0  0  0  0  0  0  0  0
  -25.0460  -34.0630   24.9640 H   0  0  0  0  0  0  0  0  0  0  0  0
  -24.2180  -36.7600   23.0510 C   0  0  0  0  0  1  0  0  0  0  0  0
  -25.4570  -36.3560   23.8670 C   0  0  0  0  0  3  0  0  0  0  0  0
  -27.5810  -37.2450   24.7190 C   0  0  0  0  0  1  0  0  0  0  0  0
  -26.4840  -37.4160   23.7710 N   0  0  0  0  0  0  0  0  0  0  0  0
  -26.0710  -38.3320   23.9260 H   0  0  0  0  0  0  0  0  0  0  0  0
  1 49  1  0
  1  2  1  0
  2  4  1  0
  3  1  2  0
  6  9  2  0
  7  5  2  0
  8 10  2  0
  8  6  1  0
  9  5  1  0
  9  2  1  0
 10  7  1  0
 11 19  1  0
 12 17  1  0
 13 14  1  0
 13 12  1  0
 15 14  1  0
 15 24  1  0
 15 16  1  0
 17 11  1  0
 17 16  1  0
 18 11  2  0
 19 10  1  0
 19 20  1  0
 21 22  2  0
 22 41  1  0
 23 22  1  0
 23 26  1  0
 24 25  1  0
 24 21  1  0
 25 23  2  0
 26 27  1  0
 27 28  2  0
 29 32  1  0
 29 28  1  0
 30 29  2  0
 31 30  1  0
 31 26  2  0
 32 33  1  0
 33 38  2  0
 33 34  1  0
 34 35  2  0
 35 36  1  0
 36 40  1  0
 37 36  2  0
 38 37  1  0
 39 38  1  0
 41 42  1  0
 42 45  1  0
 42 44  1  0
 43 41  2  0
 46 21  1  0
 46 47  1  0
 48 46  1  0
 50 51  1  0
 50 49  2  0
 51 52  2  0
 53 55  1  0
 53 51  1  0
 54 65  2  0
 55 60  1  0
 56 64  1  0
 56 66  1  0
 57 63  1  0
 57 59  1  0
 58 64  1  0
 59 58  1  0
 60 59  2  0
 61 62  1  0
 61 55  2  0
 62 57  2  0
 63 56  1  0
 64 54  1  0
 66 68  2  0
 67 66  1  0
 69 67  1  0
 70 79  2  0
 70 75  1  0
 71 67  1  0
 71 75  1  0
 72 71  1  0
 73 74  1  0
 73 72  1  0
 74 70  1  0
 75 76  2  0
 76 77  1  0
 78 77  2  0
 79 78  1  0
 80 54  1  0
 80 85  1  0
 80 81  1  0
 81 84  1  1
 81 82  1  0
 83 81  1  0
 85 88  1  0
 86 90  1  0
 86 85  1  0
 87 86  2  0
 90 89  1  0
 92 90  1  0
 92 93  1  0
 92 91  1  0
M  ISO  4  11 100  19 100  51 101  53 101
M  END
>  <TORSDO>  (72) 
F 19

>  <SCORE>  (72) 
-13.913

>  <name>  (72) 
71

>  <ligand_id>  (72) 
71

>  <original_smiles>  (72) 
[H]C(C(=O)Oc1c([H])c([H])c2c(c1[H])C([H])([H])N(C(=O)C([H])(N([H])C(=O)C([H])(N([H])C([H])([H])[H])C([H])([H])[H])C(C([H])([H])[H])(C([H])([H])[H])C([H])([H])[H])C([H])(C(=O)N([H])C1([H])c3c([H])c([H])c([H])c([H])c3C([H])([H])C([H])([H])C1([H])[H])C2([H])[H])=C([H])C(=O)N([H])c1c([H])c([H])c(N([H])C(=O)N2C([H])([H])C([H])([H])C([H])([H])C([H])(n3nc(-c4c([H])c([H])c(Oc5c([H])c([H])c(F)c([H])c5F)c([H])c4[H])c(C(=O)N([H])[H])c3N([H])[H])C2([H])[H])c([H])c1[H]

>  <smiles>  (72) 
[H]C(C(=O)Oc1c([H])c([H])c2c(c1[H])C([H])([H])N(C(=O)C([H])(N([H])C(=O)C([H])(N([H])C([H])([H])[H])C([H])([H])[H])C(C([H])([H])[H])(C([H])([H])[H])C([H])([H])[H])C([H])(C(=O)N([H])C1([H])c3c([H])c([H])c([H])c([H])c3C([H])([H])C([H])([H])C1([H])[H])C2([H])[H])=C([H])C(=O)N([H])c1c([H])c([H])c(N([H])C(=O)N2C([H])([H])C([H])([H])C([H])([H])C([H])(n3nc(-c4c([H])c([H])c(Oc5c([H])c([H])c(F)c([H])c5F)c([H])c4[H])c(C(=O)N([H])[H])c3N([H])[H])C2([H])[H])c([H])c1[H]

$$$$
72:0:0
     RDKit          3D

 98106  0  0  1  0  0  0  0  0999 V2000
  -29.8340  -21.6410   20.9890 C   0  0  0  0  0  0  0  0  0  0  0  0
  -31.1470  -21.6370   20.6590 N   0  0  0  0  0  0  0  0  0  0  0  0
  -29.4900  -21.9300   22.1390 O   0  0  0  0  0  0  0  0  0  0  0  0
  -27.7520  -22.5650   19.8830 C   0  0  0  0  0  1  0  0  0  0  0  0
  -27.8730  -20.1640   20.4400 C   0  0  0  0  0  1  0  0  0  0  0  0
  -28.7210  -21.3600   19.9280 C   0  0  2  0  0  0  0  0  0  0  0  0
  -30.3700  -21.9470   16.4670 C   0  0  0  0  0  3  0  0  0  0  0  0
  -30.2110  -20.6930   15.8510 C   0  0  0  0  0  3  0  0  0  0  0  0
  -29.8890  -22.1590   17.7730 C   0  0  0  0  0  3  0  0  0  0  0  0
  -29.0940  -19.8650   17.8510 C   0  0  0  0  0  3  0  0  0  0  0  0
  -29.5690  -19.6500   16.5440 C   0  0  0  0  0  0  0  0  0  0  0  0
  -29.2580  -21.1170   18.4970 C   0  0  0  0  0  0  0  0  0  0  0  0
  -29.3990  -18.2890   15.8990 C   0  0  0  0  0  1  0  0  0  0  0  0
  -31.9230  -20.3310   20.9040 C   0  0  0  0  0  2  0  0  0  0  0  0
  -31.1840  -18.8820   21.0460 C   0  0  0  0  0  3  0  0  0  0  0  0
  -31.9280  -17.5620   20.4670 C   0  0  0  0  0  3  0  0  0  0  0  0
  -32.0900  -14.9430   20.4870 C   0  0  0  0  0  0  0  0  0  0  0  0
  -31.6100  -12.8780   19.1730 C   0  0  0  0  0  2  0  0  0  0  0  0
  -30.7510  -13.2860   17.9530 C   0  0  0  0  0  2  0  0  0  0  0  0
  -29.2530  -13.2620   18.3200 C   0  0  0  0  0  2  0  0  0  0  0  0
  -28.9460  -13.9690   19.6690 C   0  0  0  0  0  3  0  0  0  0  0  0
  -29.9490  -13.5760   20.7780 C   0  0  0  0  0  2  0  0  0  0  0  0
  -31.3010  -13.8310   20.2640 N   0  0  0  0  0  0  0  0  0  0  0  0
  -33.2760  -14.9310   20.1430 O   0  0  0  0  0  0  0  0  0  0  0  0
  -31.4920  -16.1390   20.8530 N   0  0  0  0  0  0  0  0  0  0  0  0
  -30.5420  -16.0450   21.1790 H   0  0  0  0  0  0  0  0  0  0  0  0
  -26.5470  -14.7190   20.1840 C   0  0  0  0  0  0  0  0  0  0  0  0
  -25.4160  -14.0280   20.5260 C   0  0  0  0  0  0  0  0  0  0  0  0
  -25.8020  -12.6540   20.6000 C   0  0  0  0  0  0  0  0  0  0  0  0
  -27.5550  -13.7760   20.0740 N   0  0  0  0  0  0  0  0  0  0  0  0
  -27.1080  -12.5290   20.3830 N   0  0  0  0  0  0  0  0  0  0  0  0
  -24.9890  -11.4460   20.8040 C   0  0  0  0  0  0  0  0  0  0  0  0
  -25.2960  -10.5090   21.8120 C   0  0  0  0  0  3  0  0  0  0  0  0
  -24.4870   -9.3670   22.0010 C   0  0  0  0  0  3  0  0  0  0  0  0
  -23.3560   -9.1540   21.1800 C   0  0  0  0  0  0  0  0  0  0  0  0
  -23.0690  -10.0800   20.1630 C   0  0  0  0  0  3  0  0  0  0  0  0
  -23.8770  -11.2130   19.9710 C   0  0  0  0  0  3  0  0  0  0  0  0
  -22.5270   -8.0610   21.2740 O   0  0  0  0  0  0  0  0  0  0  0  0
  -22.2710   -7.4570   22.4780 C   0  0  0  0  0  0  0  0  0  0  0  0
  -21.7900   -8.1830   23.5910 C   0  0  0  0  0  3  0  0  0  0  0  0
  -21.4680   -7.5090   24.7850 C   0  0  0  0  0  3  0  0  0  0  0  0
  -21.6190   -6.1120   24.8710 C   0  0  0  0  0  0  0  0  0  0  0  0
  -22.0930   -5.3870   23.7620 C   0  0  0  0  0  3  0  0  0  0  0  0
  -22.4150   -6.0570   22.5700 C   0  0  0  0  0  0  0  0  0  0  0  0
  -22.8480   -5.3520   21.4970 F   0  0  0  0  0  0  0  0  0  0  0  0
  -21.3100   -5.4610   26.0180 F   0  0  0  0  0  0  0  0  0  0  0  0
  -24.0340  -14.5990   20.6780 C   0  0  0  0  0  0  0  0  0  0  0  0
  -23.2240  -14.0200   21.5590 N   0  0  0  0  0  0  0  0  0  0  0  0
  -23.6790  -15.5930   20.0480 O   0  0  0  0  0  0  0  0  0  0  0  0
  -23.5250  -13.2230   22.0990 H   0  0  0  0  0  0  0  0  0  0  0  0
  -22.2950  -14.3920   21.7000 H   0  0  0  0  0  0  0  0  0  0  0  0
  -26.7990  -16.0640   19.9340 N   0  0  0  0  0  0  0  0  0  0  0  0
  -26.0670  -16.7650   19.9330 H   0  0  0  0  0  0  0  0  0  0  0  0
  -27.6890  -16.4230   19.6170 H   0  0  0  0  0  0  0  0  0  0  0  0
  -31.8770  -22.9270   21.0330 C   0  0  0  0  0  2  0  0  0  0  0  0
  -31.3610  -24.4270   20.6730 C   0  0  0  0  0  3  0  0  0  0  0  0
  -30.4520  -25.3450   21.6180 C   0  0  0  0  0  3  0  0  0  0  0  0
  -30.3060  -26.8140   21.4060 O   0  0  0  0  0  0  0  0  0  0  0  0
  -25.2370  -31.6110   23.4140 C   0  0  0  0  0  0  0  0  0  0  0  0
  -29.0590  -27.4250   21.1890 C   0  0  0  0  0  0  0  0  0  0  0  0
  -24.6070  -30.0140   21.6400 C   0  0  0  0  0  3  0  0  0  0  0  0
  -26.5270  -28.6460   20.6300 C   0  0  0  0  0  0  0  0  0  0  0  0
  -27.0580  -30.7030   21.9490 C   0  0  0  0  0  2  0  0  0  0  0  0
  -27.4680  -29.3310   21.4100 C   0  0  0  0  0  0  0  0  0  0  0  0
  -28.7390  -28.7370   21.6690 C   0  0  0  0  0  3  0  0  0  0  0  0
  -28.0900  -26.7760   20.3980 C   0  0  0  0  0  3  0  0  0  0  0  0
  -26.8400  -27.3730   20.1190 C   0  0  0  0  0  3  0  0  0  0  0  0
  -25.1980  -29.3320   20.3750 C   0  0  0  0  0  2  0  0  0  0  0  0
  -25.6390  -30.7970   22.3930 N   0  0  0  0  0  0  0  0  0  0  0  0
  -24.0380  -31.7400   23.7010 O   0  0  0  0  0  0  0  0  0  0  0  0
  -23.9060  -28.9350   22.5010 C   0  0  0  0  0  0  0  0  0  0  0  0
  -22.6360  -28.6360   22.1820 N   0  0  0  0  0  0  0  0  0  0  0  0
  -24.5120  -28.3740   23.4180 O   0  0  0  0  0  0  0  0  0  0  0  0
  -22.2020  -29.1470   21.4270 H   0  0  0  0  0  0  0  0  0  0  0  0
  -19.3050  -27.2340   22.2880 C   0  0  0  0  0  0  0  0  0  0  0  0
  -21.8040  -27.6200   22.8320 C   0  0  0  0  0  3  0  0  0  0  0  0
  -22.0480  -26.2240   22.2150 C   0  0  0  0  0  2  0  0  0  0  0  0
  -21.0740  -25.8880   21.0810 C   0  0  0  0  0  2  0  0  0  0  0  0
  -19.6270  -25.9280   21.5820 C   0  0  0  0  0  2  0  0  0  0  0  0
  -20.3280  -28.0350   22.8600 C   0  0  0  0  0  0  0  0  0  0  0  0
  -19.9740  -29.2580   23.4730 C   0  0  0  0  0  3  0  0  0  0  0  0
  -18.6310  -29.6750   23.5240 C   0  0  0  0  0  3  0  0  0  0  0  0
  -17.6210  -28.8680   22.9710 C   0  0  0  0  0  3  0  0  0  0  0  0
  -17.9610  -27.6500   22.3560 C   0  0  0  0  0  3  0  0  0  0  0  0
  -26.2590  -32.4390   24.2510 C   0  0  0  0  0  3  0  0  0  0  0  0
  -25.7260  -33.8010   24.3860 N   0  0  0  0  0  0  0  0  0  0  0  0
  -26.0800  -34.8370   23.6120 C   0  0  0  0  0  0  0  0  0  0  0  0
  -26.9510  -34.7570   22.7430 O   0  0  0  0  0  0  0  0  0  0  0  0
  -24.9700  -33.9260   25.0410 H   0  0  0  0  0  0  0  0  0  0  0  0
  -24.2380  -36.3400   22.7910 C   0  0  0  0  0  1  0  0  0  0  0  0
  -25.3480  -36.1750   23.8410 C   0  0  0  0  0  3  0  0  0  0  0  0
  -27.1810  -37.4000   24.9260 C   0  0  0  0  0  1  0  0  0  0  0  0
  -26.2460  -37.3500   23.8030 N   0  0  0  0  0  0  0  0  0  0  0  0
  -25.7090  -38.2120   23.8000 H   0  0  0  0  0  0  0  0  0  0  0  0
  -26.5510  -31.8140   25.6710 C   0  0  1  0  0  0  0  0  0  0  0  0
  -25.2730  -31.4820   26.4760 C   0  0  0  0  0  1  0  0  0  0  0  0
  -27.3790  -30.5140   25.5370 C   0  0  0  0  0  1  0  0  0  0  0  0
  -27.4040  -32.7960   26.5080 C   0  0  0  0  0  1  0  0  0  0  0  0
  1  3  2  0
  2 14  1  0
  2  1  1  0
  2 55  1  0
  6  4  1  6
  6  5  1  0
  6  1  1  0
  7  9  1  0
  8  7  2  0
  8 11  1  0
  9 12  2  0
 10 12  1  0
 11 10  2  0
 12  6  1  0
 13 11  1  0
 14 15  1  0
 16 25  1  0
 16 15  2  0
 17 25  1  0
 18 23  1  0
 19 20  1  0
 19 18  1  0
 21 20  1  0
 21 30  1  0
 21 22  1  0
 23 17  1  0
 23 22  1  0
 24 17  2  0
 25 26  1  0
 27 28  2  0
 28 29  1  0
 28 47  1  0
 29 32  1  0
 30 27  1  0
 30 31  1  0
 31 29  2  0
 32 33  1  0
 33 34  2  0
 35 38  1  0
 35 34  1  0
 36 35  2  0
 37 36  1  0
 37 32  2  0
 38 39  1  0
 39 44  2  0
 39 40  1  0
 40 41  2  0
 41 42  1  0
 42 46  1  0
 43 42  2  0
 44 43  1  0
 45 44  1  0
 47 48  1  0
 48 51  1  0
 48 50  1  0
 49 47  2  0
 52 27  1  0
 53 52  1  0
 54 52  1  0
 56 55  1  0
 56 57  2  0
 58 57  1  0
 59 70  2  0
 60 58  1  0
 60 65  1  0
 61 69  1  0
 61 71  1  0
 62 64  1  0
 63 69  1  0
 64 65  2  0
 64 63  1  0
 66 60  2  0
 67 66  1  0
 67 62  2  0
 68 62  1  0
 68 61  1  0
 69 59  1  0
 71 73  2  0
 72 71  1  0
 74 72  1  0
 75 84  2  0
 75 80  1  0
 76 72  1  0
 76 80  1  0
 77 76  1  0
 78 79  1  0
 78 77  1  0
 79 75  1  0
 80 81  2  0
 81 82  1  0
 83 82  2  0
 84 83  1  0
 85 59  1  0
 85 86  1  0
 85 95  1  0
 86 89  1  0
 87 91  1  0
 87 86  1  0
 88 87  2  0
 91 90  1  0
 93 91  1  0
 93 92  1  0
 94 93  1  0
 95 96  1  1
 95 98  1  0
 97 95  1  0
M  ISO  4  17 100  25 100  57 101  58 101
M  END
>  <TORSDO>  (73) 
F 24

>  <SCORE>  (73) 
-9.214

>  <name>  (73) 
72

>  <ligand_id>  (73) 
72

>  <original_smiles>  (73) 
[H]c1c([H])c([H])c2c(c1[H])C([H])([H])C([H])([H])C([H])([H])C2([H])N([H])C(=O)C1([H])N(C(=O)C([H])(N([H])C(=O)C([H])(N([H])C([H])([H])[H])C([H])([H])[H])C(C([H])([H])[H])(C([H])([H])[H])C([H])([H])[H])C([H])([H])c2c([H])c(OC([H])([H])C([H])([H])C([H])([H])N(C(=O)C(c3c([H])c([H])c([H])c(C([H])([H])[H])c3[H])(C([H])([H])[H])C([H])([H])[H])C([H])([H])C([H])([H])C([H])([H])N([H])C(=O)N3C([H])([H])C([H])([H])C([H])([H])C([H])(n4nc(-c5c([H])c([H])c(Oc6c([H])c([H])c(F)c([H])c6F)c([H])c5[H])c(C(=O)N([H])[H])c4N([H])[H])C3([H])[H])c([H])c([H])c2C1([H])[H]

>  <smiles>  (73) 
[H]c1c([H])c([H])c2c(c1[H])C([H])([H])C([H])([H])C([H])([H])C2([H])N([H])C(=O)C1([H])N(C(=O)C([H])(N([H])C(=O)C([H])(N([H])C([H])([H])[H])C([H])([H])[H])C(C([H])([H])[H])(C([H])([H])[H])C([H])([H])[H])C([H])([H])c2c([H])c(OC([H])([H])C([H])([H])C([H])([H])N(C(=O)C(c3c([H])c([H])c([H])c(C([H])([H])[H])c3[H])(C([H])([H])[H])C([H])([H])[H])C([H])([H])C([H])([H])C([H])([H])N([H])C(=O)N3C([H])([H])C([H])([H])C([H])([H])C([H])(n4nc(-c5c([H])c([H])c(Oc6c([H])c([H])c(F)c([H])c6F)c([H])c5[H])c(C(=O)N([H])[H])c4N([H])[H])C3([H])[H])c([H])c([H])c2C1([H])[H]

$$$$
73:0:0
     RDKit          3D

 96104  0  0  1  0  0  0  0  0999 V2000
  -33.3180  -22.7170   20.1080 C   0  0  0  0  0  3  0  0  0  0  0  0
  -32.5940  -23.9250   20.1000 C   0  0  0  0  0  3  0  0  0  0  0  0
  -30.6090  -22.7210   19.3650 C   0  0  0  0  0  3  0  0  0  0  0  0
  -32.6930  -21.5020   19.7610 C   0  0  0  0  0  0  0  0  0  0  0  0
  -31.3210  -21.4980   19.4090 C   0  0  0  0  0  0  0  0  0  0  0  0
  -31.2330  -23.9340   19.7250 C   0  0  0  0  0  0  0  0  0  0  0  0
  -33.5020  -20.2160   19.7770 C   0  0  0  0  0  1  0  0  0  0  0  0
  -29.4790  -19.8320   19.3610 C   0  0  0  0  0  0  0  0  0  0  0  0
  -30.7120  -20.2640   19.0560 N   0  0  0  0  0  0  0  0  0  0  0  0
  -28.6800  -20.4610   20.0590 O   0  0  0  0  0  0  0  0  0  0  0  0
  -31.3150  -19.5870   18.6090 H   0  0  0  0  0  0  0  0  0  0  0  0
  -29.0790  -18.4740   18.7790 C   0  0  0  0  0  2  0  0  0  0  0  0
  -28.8020  -17.3780   19.8250 C   0  0  0  0  0  2  0  0  0  0  0  0
  -30.0330  -16.9200   20.6410 C   0  0  0  0  0  2  0  0  0  0  0  0
  -30.6330  -14.5070   20.5410 C   0  0  0  0  0  0  0  0  0  0  0  0
  -30.3640  -12.3620   19.3790 C   0  0  0  0  0  2  0  0  0  0  0  0
  -29.4340  -12.5820   18.1670 C   0  0  0  0  0  2  0  0  0  0  0  0
  -27.9540  -12.4390   18.5770 C   0  0  0  0  0  2  0  0  0  0  0  0
  -27.6000  -13.2560   19.8510 C   0  0  0  0  0  3  0  0  0  0  0  0
  -28.6420  -13.0190   20.9660 C   0  0  0  0  0  2  0  0  0  0  0  0
  -29.9790  -13.3240   20.4210 N   0  0  0  0  0  0  0  0  0  0  0  0
  -31.7510  -14.7180   20.0630 O   0  0  0  0  0  0  0  0  0  0  0  0
  -29.8820  -15.5130   21.0160 N   0  0  0  0  0  0  0  0  0  0  0  0
  -29.0000  -15.2470   21.4280 H   0  0  0  0  0  0  0  0  0  0  0  0
  -25.1880  -13.8360   20.5420 C   0  0  0  0  0  0  0  0  0  0  0  0
  -24.1270  -13.0510   20.9030 C   0  0  0  0  0  0  0  0  0  0  0  0
  -24.6050  -11.7050   20.8720 C   0  0  0  0  0  0  0  0  0  0  0  0
  -26.2450  -12.9670   20.3160 N   0  0  0  0  0  0  0  0  0  0  0  0
  -25.8970  -11.6810   20.5720 N   0  0  0  0  0  0  0  0  0  0  0  0
  -23.8970  -10.4330   21.0560 C   0  0  0  0  0  0  0  0  0  0  0  0
  -24.3450   -9.4680   21.9850 C   0  0  0  0  0  3  0  0  0  0  0  0
  -23.6380   -8.2580   22.1550 C   0  0  0  0  0  3  0  0  0  0  0  0
  -22.4680   -8.0050   21.4000 C   0  0  0  0  0  0  0  0  0  0  0  0
  -22.0430   -8.9600   20.4600 C   0  0  0  0  0  3  0  0  0  0  0  0
  -22.7480  -10.1610   20.2860 C   0  0  0  0  0  3  0  0  0  0  0  0
  -21.7300   -6.8490   21.4820 O   0  0  0  0  0  0  0  0  0  0  0  0
  -21.7000   -6.0950   22.6290 C   0  0  0  0  0  0  0  0  0  0  0  0
  -21.2710   -6.6320   23.8610 C   0  0  0  0  0  3  0  0  0  0  0  0
  -21.1860   -5.8020   24.9980 C   0  0  0  0  0  3  0  0  0  0  0  0
  -21.5200   -4.4370   24.9020 C   0  0  0  0  0  0  0  0  0  0  0  0
  -21.9390   -3.9000   23.6730 C   0  0  0  0  0  3  0  0  0  0  0  0
  -22.0260   -4.7270   22.5380 C   0  0  0  0  0  0  0  0  0  0  0  0
  -22.4090   -4.1980   21.3520 F   0  0  0  0  0  0  0  0  0  0  0  0
  -21.4320   -3.6410   25.9930 F   0  0  0  0  0  0  0  0  0  0  0  0
  -22.7210  -13.5050   21.1680 C   0  0  0  0  0  0  0  0  0  0  0  0
  -21.9960  -12.7940   22.0270 N   0  0  0  0  0  0  0  0  0  0  0  0
  -22.2710  -14.5250   20.6460 O   0  0  0  0  0  0  0  0  0  0  0  0
  -22.3740  -11.9690   22.4700 H   0  0  0  0  0  0  0  0  0  0  0  0
  -21.0500  -13.0730   22.2450 H   0  0  0  0  0  0  0  0  0  0  0  0
  -25.3450  -15.2080   20.3740 N   0  0  0  0  0  0  0  0  0  0  0  0
  -24.5830  -15.8640   20.5040 H   0  0  0  0  0  0  0  0  0  0  0  0
  -26.2040  -15.6530   20.0800 H   0  0  0  0  0  0  0  0  0  0  0  0
  -30.5100  -25.1000   19.6670 O   0  0  0  0  0  0  0  0  0  0  0  0
  -30.4460  -25.8370   20.8880 C   0  0  0  0  0  2  0  0  0  0  0  0
  -29.5720  -27.0870   20.7050 C   0  0  0  0  0  2  0  0  0  0  0  0
  -28.3570  -26.6770   20.0870 O   0  0  0  0  0  0  0  0  0  0  0  0
  -24.5950  -31.8890   23.2350 C   0  0  0  0  0  0  0  0  0  0  0  0
  -27.2420  -27.4810   20.1480 C   0  0  0  0  0  0  0  0  0  0  0  0
  -23.3790  -30.4870   21.5970 C   0  0  0  0  0  3  0  0  0  0  0  0
  -24.8300  -28.9550   20.1660 C   0  0  0  0  0  0  0  0  0  0  0  0
  -25.8970  -30.8630   21.3810 C   0  0  0  0  0  2  0  0  0  0  0  0
  -25.9860  -29.4920   20.7470 C   0  0  0  0  0  0  0  0  0  0  0  0
  -27.1950  -28.7660   20.7390 C   0  0  0  0  0  3  0  0  0  0  0  0
  -26.0700  -26.9540   19.5670 C   0  0  0  0  0  3  0  0  0  0  0  0
  -24.8650  -27.6800   19.5750 C   0  0  0  0  0  3  0  0  0  0  0  0
  -23.5820  -29.8060   20.2170 C   0  0  0  0  0  2  0  0  0  0  0  0
  -24.6410  -31.0930   22.1310 N   0  0  0  0  0  0  0  0  0  0  0  0
  -23.5180  -32.1600   23.7840 O   0  0  0  0  0  0  0  0  0  0  0  0
  -22.7380  -29.4630   22.5610 C   0  0  0  0  0  0  0  0  0  0  0  0
  -21.4130  -29.2780   22.4400 N   0  0  0  0  0  0  0  0  0  0  0  0
  -23.4270  -28.8410   23.3730 O   0  0  0  0  0  0  0  0  0  0  0  0
  -20.9180  -29.8360   21.7590 H   0  0  0  0  0  0  0  0  0  0  0  0
  -18.0440  -28.0810   22.9470 C   0  0  0  0  0  0  0  0  0  0  0  0
  -20.6020  -28.3400   23.2140 C   0  0  0  0  0  3  0  0  0  0  0  0
  -20.7040  -26.9090   22.6370 C   0  0  0  0  0  2  0  0  0  0  0  0
  -19.6010  -26.5860   21.6250 C   0  0  0  0  0  2  0  0  0  0  0  0
  -18.2200  -26.7300   22.2720 C   0  0  0  0  0  2  0  0  0  0  0  0
  -19.1640  -28.8420   23.3740 C   0  0  0  0  0  0  0  0  0  0  0  0
  -18.9470  -30.1070   23.9640 C   0  0  0  0  0  3  0  0  0  0  0  0
  -17.6430  -30.6090   24.1310 C   0  0  0  0  0  3  0  0  0  0  0  0
  -16.5380  -29.8440   23.7200 C   0  0  0  0  0  3  0  0  0  0  0  0
  -16.7390  -28.5810   23.1340 C   0  0  0  0  0  3  0  0  0  0  0  0
  -25.8870  -32.5170   23.8480 C   0  0  0  0  0  3  0  0  0  0  0  0
  -25.5830  -33.9140   24.1830 N   0  0  0  0  0  0  0  0  0  0  0  0
  -25.9110  -34.9670   23.4220 C   0  0  0  0  0  0  0  0  0  0  0  0
  -26.5740  -34.8640   22.3870 O   0  0  0  0  0  0  0  0  0  0  0  0
  -24.9950  -34.0680   24.9890 H   0  0  0  0  0  0  0  0  0  0  0  0
  -24.1830  -36.7590   23.0710 C   0  0  0  0  0  1  0  0  0  0  0  0
  -25.4230  -36.3530   23.8820 C   0  0  0  0  0  3  0  0  0  0  0  0
  -27.5600  -37.2320   24.7120 C   0  0  0  0  0  1  0  0  0  0  0  0
  -26.4560  -37.4060   23.7720 N   0  0  0  0  0  0  0  0  0  0  0  0
  -26.0510  -38.3260   23.9260 H   0  0  0  0  0  0  0  0  0  0  0  0
  -26.4190  -31.7390   25.1130 C   0  0  1  0  0  0  0  0  0  0  0  0
  -25.3390  -31.4960   26.1930 C   0  0  0  0  0  1  0  0  0  0  0  0
  -27.0000  -30.3650   24.7050 C   0  0  0  0  0  1  0  0  0  0  0  0
  -27.5750  -32.5310   25.7690 C   0  0  0  0  0  1  0  0  0  0  0  0
  2  1  1  0
  3  5  2  0
  3  6  1  0
  4  7  1  0
  4  1  2  0
  5  4  1  0
  6  2  2  0
  8 10  2  0
  9  8  1  0
  9  5  1  0
 11  9  1  0
 12  8  1  0
 12 13  1  0
 13 14  1  0
 14 23  1  0
 15 23  1  0
 16 21  1  0
 17 18  1  0
 17 16  1  0
 19 18  1  0
 19 28  1  0
 19 20  1  0
 21 15  1  0
 21 20  1  0
 22 15  2  0
 23 24  1  0
 25 26  2  0
 26 45  1  0
 27 26  1  0
 27 30  1  0
 28 25  1  0
 28 29  1  0
 29 27  2  0
 30 31  1  0
 31 32  2  0
 33 36  1  0
 33 32  1  0
 34 33  2  0
 35 34  1  0
 35 30  2  0
 36 37  1  0
 37 38  1  0
 38 39  2  0
 40 39  1  0
 40 44  1  0
 41 40  2  0
 42 37  2  0
 42 41  1  0
 43 42  1  0
 45 46  1  0
 46 49  1  0
 46 48  1  0
 47 45  2  0
 50 51  1  0
 50 25  1  0
 52 50  1  0
 53  6  1  0
 53 54  1  0
 55 54  1  0
 56 58  1  0
 56 55  1  0
 57 68  2  0
 58 63  1  0
 59 67  1  0
 59 69  1  0
 60 66  1  0
 60 62  1  0
 61 67  1  0
 62 61  1  0
 63 62  2  0
 64 65  1  0
 64 58  2  0
 65 60  2  0
 66 59  1  0
 67 57  1  0
 69 71  2  0
 70 69  1  0
 72 70  1  0
 73 82  2  0
 73 78  1  0
 74 70  1  0
 74 78  1  0
 75 74  1  0
 76 77  1  0
 76 75  1  0
 77 73  1  0
 78 79  2  0
 79 80  1  0
 81 80  2  0
 82 81  1  0
 83 57  1  0
 83 84  1  0
 83 93  1  0
 84 87  1  0
 85 89  1  0
 85 84  1  0
 86 85  2  0
 89 88  1  0
 91 89  1  0
 91 92  1  0
 91 90  1  0
 93 96  1  1
 93 94  1  0
 95 93  1  0
M  ISO  4  15 100  23 100  55 101  56 101
M  END
>  <TORSDO>  (74) 
F 23

>  <SCORE>  (74) 
-12.761

>  <name>  (74) 
73

>  <ligand_id>  (74) 
73

>  <original_smiles>  (74) 
[H]c1c([H])c([H])c2c(c1[H])C([H])([H])C([H])([H])C([H])([H])C2([H])N([H])C(=O)C1([H])N(C(=O)C([H])(N([H])C(=O)C([H])(N([H])C([H])([H])[H])C([H])([H])[H])C(C([H])([H])[H])(C([H])([H])[H])C([H])([H])[H])C([H])([H])c2c([H])c(OC([H])([H])C([H])([H])Oc3c([H])c([H])c(C([H])([H])[H])c(N([H])C(=O)C([H])([H])C([H])([H])C([H])([H])N([H])C(=O)N4C([H])([H])C([H])([H])C([H])([H])C([H])(n5nc(-c6c([H])c([H])c(Oc7c([H])c([H])c(F)c([H])c7F)c([H])c6[H])c(C(=O)N([H])[H])c5N([H])[H])C4([H])[H])c3[H])c([H])c([H])c2C1([H])[H]

>  <smiles>  (74) 
[H]c1c([H])c([H])c2c(c1[H])C([H])([H])C([H])([H])C([H])([H])C2([H])N([H])C(=O)C1([H])N(C(=O)C([H])(N([H])C(=O)C([H])(N([H])C([H])([H])[H])C([H])([H])[H])C(C([H])([H])[H])(C([H])([H])[H])C([H])([H])[H])C([H])([H])c2c([H])c(OC([H])([H])C([H])([H])Oc3c([H])c([H])c(C([H])([H])[H])c(N([H])C(=O)C([H])([H])C([H])([H])C([H])([H])N([H])C(=O)N4C([H])([H])C([H])([H])C([H])([H])C([H])(n5nc(-c6c([H])c([H])c(Oc7c([H])c([H])c(F)c([H])c7F)c([H])c6[H])c(C(=O)N([H])[H])c5N([H])[H])C4([H])[H])c3[H])c([H])c([H])c2C1([H])[H]

$$$$
74:0:0
     RDKit          3D

 81 85  0  0  1  0  0  0  0  0999 V2000
  -28.1090  -24.6470   20.3000 O   0  0  0  0  0  1  0  0  0  0  0  0
  -24.7100  -31.7810   23.1610 C   0  0  0  0  0  0  0  0  0  0  0  0
  -27.2070  -26.1440   20.2640 C   0  0  0  0  0  0  0  0  0  0  0  0
  -23.5560  -30.3680   21.5220 C   0  0  0  0  0  3  0  0  0  0  0  0
  -25.0090  -28.5810   20.1690 C   0  0  0  0  0  0  0  0  0  0  0  0
  -26.1560  -30.3130   21.5020 C   0  0  0  0  0  2  0  0  0  0  0  0
  -26.2110  -28.8120   20.8490 C   0  0  0  0  0  0  0  0  0  0  0  0
  -27.2590  -27.6460   20.8460 C   0  0  0  0  0  3  0  0  0  0  0  0
  -25.9680  -26.2870   19.5230 C   0  0  0  0  0  3  0  0  0  0  0  0
  -24.9660  -27.3480   19.4800 C   0  0  0  0  0  3  0  0  0  0  0  0
  -23.8360  -29.6140   20.1780 C   0  0  0  0  0  2  0  0  0  0  0  0
  -24.8390  -30.8700   22.1140 N   0  0  0  0  0  0  0  0  0  0  0  0
  -23.6010  -32.1150   23.6230 O   0  0  0  0  0  0  0  0  0  0  0  0
  -22.7620  -29.4580   22.5040 C   0  0  0  0  0  0  0  0  0  0  0  0
  -21.4220  -29.3560   22.3730 N   0  0  0  0  0  0  0  0  0  0  0  0
  -23.3780  -28.8290   23.3670 O   0  0  0  0  0  0  0  0  0  0  0  0
  -20.9670  -29.9120   21.6630 H   0  0  0  0  0  0  0  0  0  0  0  0
  -17.9970  -28.2130   22.9010 C   0  0  0  0  0  0  0  0  0  0  0  0
  -20.5670  -28.4380   23.1430 C   0  0  0  0  0  3  0  0  0  0  0  0
  -20.6330  -27.0060   22.5600 C   0  0  0  0  0  2  0  0  0  0  0  0
  -19.5210  -26.7160   21.5460 C   0  0  0  0  0  2  0  0  0  0  0  0
  -18.1460  -26.8740   22.1990 C   0  0  0  0  0  2  0  0  0  0  0  0
  -19.1320  -28.9550   23.3290 C   0  0  0  0  0  0  0  0  0  0  0  0
  -18.9320  -30.2040   23.9560 C   0  0  0  0  0  3  0  0  0  0  0  0
  -17.6350  -30.7130   24.1530 C   0  0  0  0  0  3  0  0  0  0  0  0
  -16.5160  -29.9710   23.7350 C   0  0  0  0  0  3  0  0  0  0  0  0
  -16.6980  -28.7220   23.1160 C   0  0  0  0  0  3  0  0  0  0  0  0
  -25.9400  -32.4590   23.8420 C   0  0  0  0  0  3  0  0  0  0  0  0
  -25.5980  -33.8650   24.1720 N   0  0  0  0  0  0  0  0  0  0  0  0
  -25.9200  -34.9450   23.4450 C   0  0  0  0  0  0  0  0  0  0  0  0
  -26.5760  -34.8640   22.4040 O   0  0  0  0  0  0  0  0  0  0  0  0
  -25.0070  -33.9990   24.9800 H   0  0  0  0  0  0  0  0  0  0  0  0
  -24.1680  -36.7480   23.1980 C   0  0  0  0  0  1  0  0  0  0  0  0
  -25.4480  -36.3330   23.9420 C   0  0  0  0  0  3  0  0  0  0  0  0
  -27.6060  -37.2470   24.6880 C   0  0  0  0  0  1  0  0  0  0  0  0
  -26.4650  -37.3980   23.7880 N   0  0  0  0  0  0  0  0  0  0  0  0
  -26.0550  -38.3150   23.9480 H   0  0  0  0  0  0  0  0  0  0  0  0
  -26.3960  -31.7200   25.1620 C   0  0  1  0  0  0  0  0  0  0  0  0
  -25.2580  -31.5140   26.1910 C   0  0  0  0  0  1  0  0  0  0  0  0
  -26.9880  -30.3300   24.8490 C   0  0  0  0  0  1  0  0  0  0  0  0
  -27.5230  -32.5250   25.8520 C   0  0  0  0  0  1  0  0  0  0  0  0
  -28.1400  -22.5480   20.1630 C   0  0  0  0  0 15  0  0  0  0  0  0
  -29.1420  -20.4180   20.2160 C   0  0  0  0  0 15  0  0  0  0  0  0
  -29.9010  -16.6470   20.0860 C   0  0  0  0  0  0  0  0  0  0  0  0
  -30.2300  -13.8900   19.2940 C   0  0  0  0  0  2  0  0  0  0  0  0
  -29.4480  -13.0530   18.1990 C   0  0  0  0  0  2  0  0  0  0  0  0
  -28.1340  -12.4820   18.7300 C   0  0  0  0  0  2  0  0  0  0  0  0
  -27.5010  -13.5140   19.6750 C   0  0  0  0  0  3  0  0  0  0  0  0
  -28.4750  -14.2100   20.6950 C   0  0  0  0  0  2  0  0  0  0  0  0
  -29.4550  -15.1290   19.9600 N   0  0  0  0  0  0  0  0  0  0  0  0
  -31.1430  -16.3980   20.0040 O   0  0  0  0  0  0  0  0  0  0  0  0
  -29.2570  -18.3100   20.1340 N   0  0  0  0  0  2  0  0  0  0  0  0
  -30.2580  -18.4710   20.1320 H   0  0  0  0  0  0  0  0  0  0  0  0
  -25.1600  -13.9200   20.5080 C   0  0  0  0  0  0  0  0  0  0  0  0
  -24.1280  -13.1120   20.8810 C   0  0  0  0  0  0  0  0  0  0  0  0
  -24.6260  -11.7720   20.8220 C   0  0  0  0  0  0  0  0  0  0  0  0
  -26.2240  -13.0860   20.2420 N   0  0  0  0  0  0  0  0  0  0  0  0
  -25.9190  -11.7780   20.4820 N   0  0  0  0  0  0  0  0  0  0  0  0
  -23.9140  -10.4950   21.0120 C   0  0  0  0  0  0  0  0  0  0  0  0
  -24.3570   -9.5290   21.9420 C   0  0  0  0  0  3  0  0  0  0  0  0
  -23.6350   -8.3280   22.1300 C   0  0  0  0  0  3  0  0  0  0  0  0
  -22.4560   -8.0830   21.3870 C   0  0  0  0  0  0  0  0  0  0  0  0
  -22.0290   -9.0390   20.4470 C   0  0  0  0  0  3  0  0  0  0  0  0
  -22.7510  -10.2310   20.2590 C   0  0  0  0  0  3  0  0  0  0  0  0
  -21.7070   -6.9350   21.4820 O   0  0  0  0  0  0  0  0  0  0  0  0
  -21.6700   -6.1910   22.6350 C   0  0  0  0  0  0  0  0  0  0  0  0
  -21.2140   -6.7320   23.8560 C   0  0  0  0  0  3  0  0  0  0  0  0
  -21.1260   -5.9140   25.0000 C   0  0  0  0  0  3  0  0  0  0  0  0
  -21.4850   -4.5540   24.9250 C   0  0  0  0  0  0  0  0  0  0  0  0
  -21.9340   -4.0110   23.7070 C   0  0  0  0  0  3  0  0  0  0  0  0
  -22.0220   -4.8270   22.5660 C   0  0  0  0  0  0  0  0  0  0  0  0
  -22.4340   -4.2930   21.3900 F   0  0  0  0  0  0  0  0  0  0  0  0
  -21.3950   -3.7660   26.0220 F   0  0  0  0  0  0  0  0  0  0  0  0
  -22.7270  -13.5620   21.1730 C   0  0  0  0  0  0  0  0  0  0  0  0
  -22.0260  -12.8570   22.0520 N   0  0  0  0  0  0  0  0  0  0  0  0
  -22.2670  -14.5820   20.6590 O   0  0  0  0  0  0  0  0  0  0  0  0
  -22.4140  -12.0340   22.4890 H   0  0  0  0  0  0  0  0  0  0  0  0
  -21.0880  -13.1430   22.2910 H   0  0  0  0  0  0  0  0  0  0  0  0
  -25.2790  -15.2960   20.3350 N   0  0  0  0  0  0  0  0  0  0  0  0
  -24.4980  -15.9290   20.4650 H   0  0  0  0  0  0  0  0  0  0  0  0
  -26.1180  -15.7610   20.0090 H   0  0  0  0  0  0  0  0  0  0  0  0
  2 13  2  0
  3  1  1  0
  3  8  1  0
  4 12  1  0
  4 14  1  0
  5 11  1  0
  5  7  1  0
  6 12  1  0
  7  6  1  0
  8  7  2  0
  9  3  2  0
 10  9  1  0
 10  5  2  0
 11  4  1  0
 12  2  1  0
 14 16  2  0
 15 14  1  0
 17 15  1  0
 18 27  2  0
 18 23  1  0
 19 15  1  0
 19 23  1  0
 20 19  1  0
 21 22  1  0
 21 20  1  0
 22 18  1  0
 23 24  2  0
 24 25  1  0
 26 25  2  0
 27 26  1  0
 28  2  1  0
 28 29  1  0
 28 38  1  0
 29 32  1  0
 30 34  1  0
 30 29  1  0
 31 30  2  0
 34 33  1  0
 36 34  1  0
 36 37  1  0
 36 35  1  0
 38 41  1  1
 38 39  1  0
 40 38  1  0
 44 52  1  0
 45 50  1  0
 46 47  1  0
 46 45  1  0
 48 47  1  0
 48 57  1  0
 48 49  1  0
 50 44  1  0
 50 49  1  0
 51 44  2  0
 53 52  1  0
 54 55  2  0
 55 74  1  0
 56 55  1  0
 56 59  1  0
 57 58  1  0
 57 54  1  0
 58 56  2  0
 59 60  1  0
 60 61  2  0
 62 65  1  0
 62 61  1  0
 63 62  2  0
 64 63  1  0
 64 59  2  0
 65 66  1  0
 66 67  1  0
 67 68  2  0
 69 68  1  0
 69 73  1  0
 70 69  2  0
 71 66  2  0
 71 70  1  0
 72 71  1  0
 74 75  1  0
 75 78  1  0
 75 77  1  0
 76 74  2  0
 79 80  1  0
 79 54  1  0
 81 79  1  0
M  ISO  4   1 101  42 101  44 100  52 100
M  END
>  <TORSDO>  (75) 
F 17

>  <SCORE>  (75) 
-16.141

>  <name>  (75) 
74

>  <ligand_id>  (75) 
74

>  <original_smiles>  (75) 
[H]c1c([H])c([H])c2c(c1[H])C([H])([H])C([H])([H])C([H])([H])C2([H])N([H])C(=O)C1([H])N(C(=O)C([H])(N([H])C(=O)C([H])(N([H])C([H])([H])[H])C([H])([H])[H])C(C([H])([H])[H])(C([H])([H])[H])C([H])([H])[H])C([H])([H])c2c([H])c(OC([H])([H])C([H])([H])N([H])C(=O)N3C([H])([H])C([H])([H])C([H])([H])C([H])(n4nc(-c5c([H])c([H])c(Oc6c([H])c([H])c(F)c([H])c6F)c([H])c5[H])c(C(=O)N([H])[H])c4N([H])[H])C3([H])[H])c([H])c([H])c2C1([H])[H]

>  <smiles>  (75) 
[H]c1c([H])c([H])c2c(c1[H])C([H])([H])C([H])([H])C([H])([H])C2([H])N([H])C(=O)C1([H])N(C(=O)C([H])(N([H])C(=O)C([H])(N([H])C([H])([H])[H])C([H])([H])[H])C(C([H])([H])[H])(C([H])([H])[H])C([H])([H])[H])C([H])([H])c2c([H])c(OC([H])([H])C([H])([H])N([H])C(=O)N3C([H])([H])C([H])([H])C([H])([H])C([H])(n4nc(-c5c([H])c([H])c(Oc6c([H])c([H])c(F)c([H])c6F)c([H])c5[H])c(C(=O)N([H])[H])c4N([H])[H])C3([H])[H])c([H])c([H])c2C1([H])[H]

$$$$
75:0:0
     RDKit          3D

 87 94  0  0  1  0  0  0  0  0999 V2000
  -31.0390  -20.7200   22.7080 C   0  0  0  0  0  3  0  0  0  0  0  0
  -31.3800  -19.3810   22.6910 C   0  0  0  0  0  3  0  0  0  0  0  0
  -30.1370  -21.2160   21.7700 C   0  0  0  0  0  3  0  0  0  0  0  0
  -30.8050  -18.5170   21.7590 C   0  0  0  0  0  3  0  0  0  0  0  0
  -29.4730  -20.4880   20.7450 C   0  0  0  0  0  0  0  0  0  0  0  0
  -29.8420  -18.8300   20.7530 C   0  0  0  0  0  0  0  0  0  0  0  0
  -30.2940  -15.7980   20.1880 C   0  0  0  0  0  0  0  0  0  0  0  0
  -30.3820  -13.2720   19.2840 C   0  0  0  0  0  2  0  0  0  0  0  0
  -29.4710  -12.8360   18.1000 C   0  0  0  0  0  2  0  0  0  0  0  0
  -28.0680  -12.4500   18.5970 C   0  0  0  0  0  2  0  0  0  0  0  0
  -27.5630  -13.4480   19.6620 C   0  0  0  0  0  3  0  0  0  0  0  0
  -28.6140  -13.7860   20.7460 C   0  0  0  0  0  2  0  0  0  0  0  0
  -29.7470  -14.4440   20.0470 N   0  0  0  0  0  0  0  0  0  0  0  0
  -31.5330  -15.6910   20.0710 O   0  0  0  0  0  0  0  0  0  0  0  0
  -29.5900  -17.2150   20.1920 N   0  0  0  0  0  0  0  0  0  0  0  0
  -28.6360  -17.0930   19.8820 H   0  0  0  0  0  0  0  0  0  0  0  0
  -25.2140  -13.9440   20.4870 C   0  0  0  0  0  0  0  0  0  0  0  0
  -24.1700  -13.1490   20.8610 C   0  0  0  0  0  0  0  0  0  0  0  0
  -24.6550  -11.8050   20.8080 C   0  0  0  0  0  0  0  0  0  0  0  0
  -26.2630  -13.0880   20.2120 N   0  0  0  0  0  0  0  0  0  0  0  0
  -25.9440  -11.7930   20.4740 N   0  0  0  0  0  0  0  0  0  0  0  0
  -23.9460  -10.5320   20.9950 C   0  0  0  0  0  0  0  0  0  0  0  0
  -24.3940   -9.5630   21.9200 C   0  0  0  0  0  3  0  0  0  0  0  0
  -23.6780   -8.3590   22.0990 C   0  0  0  0  0  3  0  0  0  0  0  0
  -22.5000   -8.1160   21.3530 C   0  0  0  0  0  0  0  0  0  0  0  0
  -22.0720   -9.0730   20.4170 C   0  0  0  0  0  3  0  0  0  0  0  0
  -22.7880  -10.2680   20.2360 C   0  0  0  0  0  3  0  0  0  0  0  0
  -21.7560   -6.9640   21.4400 O   0  0  0  0  0  0  0  0  0  0  0  0
  -21.7140   -6.2200   22.5920 C   0  0  0  0  0  0  0  0  0  0  0  0
  -21.2730   -6.7680   23.8170 C   0  0  0  0  0  3  0  0  0  0  0  0
  -21.1800   -5.9500   24.9610 C   0  0  0  0  0  3  0  0  0  0  0  0
  -21.5170   -4.5860   24.8820 C   0  0  0  0  0  0  0  0  0  0  0  0
  -21.9510   -4.0370   23.6620 C   0  0  0  0  0  3  0  0  0  0  0  0
  -22.0460   -4.8520   22.5210 C   0  0  0  0  0  0  0  0  0  0  0  0
  -22.4450   -4.3140   21.3430 F   0  0  0  0  0  0  0  0  0  0  0  0
  -21.4200   -3.7990   25.9780 F   0  0  0  0  0  0  0  0  0  0  0  0
  -22.7710  -13.6060   21.1510 C   0  0  0  0  0  0  0  0  0  0  0  0
  -22.0630  -12.8960   22.0200 N   0  0  0  0  0  0  0  0  0  0  0  0
  -22.3180  -14.6320   20.6430 O   0  0  0  0  0  0  0  0  0  0  0  0
  -22.4440  -12.0680   22.4520 H   0  0  0  0  0  0  0  0  0  0  0  0
  -21.1250  -13.1860   22.2600 H   0  0  0  0  0  0  0  0  0  0  0  0
  -25.3550  -15.3190   20.3250 N   0  0  0  0  0  0  0  0  0  0  0  0
  -24.5870  -15.9650   20.4740 H   0  0  0  0  0  0  0  0  0  0  0  0
  -26.1970  -15.7750   19.9980 H   0  0  0  0  0  0  0  0  0  0  0  0
  -28.6450  -21.9830   20.0030 C   0  0  0  0  0  1  0  0  0  0  0  0
  -28.1100  -23.8170   20.5220 C   0  0  0  0  0  1  0  0  0  0  0  0
  -28.2390  -25.5780   20.2770 O   0  0  0  0  0  0  0  0  0  0  0  0
  -24.7070  -31.9200   23.2070 C   0  0  0  0  0  0  0  0  0  0  0  0
  -27.2490  -26.7910   20.2810 C   0  0  0  0  0  0  0  0  0  0  0  0
  -23.5230  -30.5010   21.5860 C   0  0  0  0  0  3  0  0  0  0  0  0
  -24.9750  -28.8350   20.2000 C   0  0  0  0  0  0  0  0  0  0  0  0
  -26.1040  -30.6440   21.4640 C   0  0  0  0  0  2  0  0  0  0  0  0
  -26.1730  -29.1990   20.8250 C   0  0  0  0  0  0  0  0  0  0  0  0
  -27.2950  -28.2090   20.8270 C   0  0  0  0  0  3  0  0  0  0  0  0
  -26.0120  -26.6440   19.6030 C   0  0  0  0  0  3  0  0  0  0  0  0
  -24.9350  -27.5840   19.5620 C   0  0  0  0  0  3  0  0  0  0  0  0
  -23.7670  -29.7870   20.2260 C   0  0  0  0  0  2  0  0  0  0  0  0
  -24.8020  -31.0550   22.1390 N   0  0  0  0  0  0  0  0  0  0  0  0
  -23.6120  -32.2220   23.7130 O   0  0  0  0  0  0  0  0  0  0  0  0
  -22.8080  -29.5340   22.5690 C   0  0  0  0  0  0  0  0  0  0  0  0
  -21.4760  -29.3750   22.4460 N   0  0  0  0  0  0  0  0  0  0  0  0
  -23.4650  -28.9210   23.4140 O   0  0  0  0  0  0  0  0  0  0  0  0
  -20.9950  -29.9200   21.7430 H   0  0  0  0  0  0  0  0  0  0  0  0
  -18.0920  -28.1530   22.9710 C   0  0  0  0  0  0  0  0  0  0  0  0
  -20.6520  -28.4450   23.2280 C   0  0  0  0  0  3  0  0  0  0  0  0
  -20.7620  -27.0050   22.6740 C   0  0  0  0  0  2  0  0  0  0  0  0
  -19.6630  -26.6620   21.6620 C   0  0  0  0  0  2  0  0  0  0  0  0
  -18.2800  -26.8010   22.3050 C   0  0  0  0  0  2  0  0  0  0  0  0
  -19.2050  -28.9320   23.3900 C   0  0  0  0  0  0  0  0  0  0  0  0
  -18.9720  -30.1940   23.9780 C   0  0  0  0  0  3  0  0  0  0  0  0
  -17.6620  -30.6790   24.1480 C   0  0  0  0  0  3  0  0  0  0  0  0
  -16.5650  -29.9010   23.7410 C   0  0  0  0  0  3  0  0  0  0  0  0
  -16.7810  -28.6390   23.1590 C   0  0  0  0  0  3  0  0  0  0  0  0
  -25.9670  -32.5830   23.8430 C   0  0  0  0  0  3  0  0  0  0  0  0
  -25.6350  -33.9840   24.1690 N   0  0  0  0  0  0  0  0  0  0  0  0
  -25.9670  -35.0510   23.4290 C   0  0  0  0  0  0  0  0  0  0  0  0
  -26.6400  -34.9580   22.3990 O   0  0  0  0  0  0  0  0  0  0  0  0
  -25.0360  -34.1270   24.9690 H   0  0  0  0  0  0  0  0  0  0  0  0
  -24.2380  -36.8550   23.0960 C   0  0  0  0  0  1  0  0  0  0  0  0
  -25.4790  -36.4380   23.9010 C   0  0  0  0  0  3  0  0  0  0  0  0
  -27.6110  -37.3270   24.7410 C   0  0  0  0  0  1  0  0  0  0  0  0
  -26.5100  -37.4950   23.7950 N   0  0  0  0  0  0  0  0  0  0  0  0
  -26.1020  -38.4140   23.9440 H   0  0  0  0  0  0  0  0  0  0  0  0
  -26.4660  -31.8370   25.1410 C   0  0  1  0  0  0  0  0  0  0  0  0
  -25.3610  -31.6150   26.2010 C   0  0  0  0  0  1  0  0  0  0  0  0
  -27.0600  -30.4540   24.7940 C   0  0  0  0  0  1  0  0  0  0  0  0
  -27.6050  -32.6470   25.8040 C   0  0  0  0  0  1  0  0  0  0  0  0
  2  1  1  0
  3  1  2  0
  4  2  2  0
  5  6  2  0
  5  3  1  0
  6  4  1  0
  7 15  1  0
  8 13  1  0
  9 10  1  0
  9  8  1  0
 11 10  1  0
 11 20  1  0
 11 12  1  0
 13  7  1  0
 13 12  1  0
 14  7  2  0
 15  6  1  0
 16 15  1  0
 17 18  2  0
 18 37  1  0
 19 18  1  0
 19 22  1  0
 20 21  1  0
 20 17  1  0
 21 19  2  0
 22 23  1  0
 23 24  2  0
 25 28  1  0
 25 24  1  0
 26 25  2  0
 27 26  1  0
 27 22  2  0
 28 29  1  0
 29 30  1  0
 30 31  2  0
 32 31  1  0
 32 36  1  0
 33 32  2  0
 34 29  2  0
 34 33  1  0
 35 34  1  0
 37 38  1  0
 38 41  1  0
 38 40  1  0
 39 37  2  0
 42 43  1  0
 42 17  1  0
 44 42  1  0
 45  5  1  0
 47 49  1  0
 47 46  1  0
 48 59  2  0
 49 54  1  0
 50 58  1  0
 50 60  1  0
 51 57  1  0
 51 53  1  0
 52 58  1  0
 53 54  2  0
 53 52  1  0
 55 49  2  0
 56 55  1  0
 56 51  2  0
 57 50  1  0
 58 48  1  0
 60 62  2  0
 61 60  1  0
 63 61  1  0
 64 73  2  0
 64 69  1  0
 65 61  1  0
 65 69  1  0
 66 65  1  0
 67 68  1  0
 67 66  1  0
 68 64  1  0
 69 70  2  0
 70 71  1  0
 72 71  2  0
 73 72  1  0
 74 48  1  0
 74 75  1  0
 74 84  1  0
 75 78  1  0
 76 80  1  0
 76 75  1  0
 77 76  2  0
 80 79  1  0
 82 80  1  0
 82 83  1  0
 82 81  1  0
 84 87  1  1
 84 85  1  0
 86 84  1  0
M  ISO  4   7 100  15 100  46 101  47 101
M  END
>  <TORSDO>  (76) 
F 18

>  <SCORE>  (76) 
-16.782

>  <name>  (76) 
75

>  <ligand_id>  (76) 
75

>  <original_smiles>  (76) 
[H]c1c([H])c([H])c(C([H])([H])C([H])([H])Oc2c([H])c([H])c3c(c2[H])C([H])([H])N(C(=O)C([H])(N([H])C(=O)C([H])(N([H])C([H])([H])[H])C([H])([H])[H])C(C([H])([H])[H])(C([H])([H])[H])C([H])([H])[H])C([H])(C(=O)N([H])C2([H])c4c([H])c([H])c([H])c([H])c4C([H])([H])C([H])([H])C2([H])[H])C3([H])[H])c(N([H])C(=O)N2C([H])([H])C([H])([H])C([H])([H])C([H])(n3nc(-c4c([H])c([H])c(Oc5c([H])c([H])c(F)c([H])c5F)c([H])c4[H])c(C(=O)N([H])[H])c3N([H])[H])C2([H])[H])c1[H]

>  <smiles>  (76) 
[H]c1c([H])c([H])c(C([H])([H])C([H])([H])Oc2c([H])c([H])c3c(c2[H])C([H])([H])N(C(=O)C([H])(N([H])C(=O)C([H])(N([H])C([H])([H])[H])C([H])([H])[H])C(C([H])([H])[H])(C([H])([H])[H])C([H])([H])[H])C([H])(C(=O)N([H])C2([H])c4c([H])c([H])c([H])c([H])c4C([H])([H])C([H])([H])C2([H])[H])C3([H])[H])c(N([H])C(=O)N2C([H])([H])C([H])([H])C([H])([H])C([H])(n3nc(-c4c([H])c([H])c(Oc5c([H])c([H])c(F)c([H])c5F)c([H])c4[H])c(C(=O)N([H])[H])c3N([H])[H])C2([H])[H])c1[H]

$$$$
76:0:0
     RDKit          3D

 83 90  0  0  1  0  0  0  0  0999 V2000
  -27.9490  -23.9120   20.2000 C   0  0  0  0  0  3  0  0  0  0  0  0
  -28.1500  -25.6420   20.2980 O   0  0  0  0  0  0  0  0  0  0  0  0
  -24.6720  -31.8880   23.2420 C   0  0  0  0  0  0  0  0  0  0  0  0
  -27.1710  -26.8340   20.2470 C   0  0  0  0  0  0  0  0  0  0  0  0
  -23.4710  -30.4970   21.6080 C   0  0  0  0  0  3  0  0  0  0  0  0
  -24.9060  -28.8480   20.1930 C   0  0  0  0  0  0  0  0  0  0  0  0
  -26.0490  -30.6390   21.4750 C   0  0  0  0  0  2  0  0  0  0  0  0
  -26.1040  -29.2100   20.8200 C   0  0  0  0  0  0  0  0  0  0  0  0
  -27.2230  -28.2300   20.8150 C   0  0  0  0  0  3  0  0  0  0  0  0
  -25.9390  -26.6690   19.5680 C   0  0  0  0  0  3  0  0  0  0  0  0
  -24.8600  -27.6020   19.5430 C   0  0  0  0  0  3  0  0  0  0  0  0
  -23.7020  -29.8000   20.2370 C   0  0  0  0  0  2  0  0  0  0  0  0
  -24.7550  -31.0400   22.1610 N   0  0  0  0  0  0  0  0  0  0  0  0
  -23.5830  -32.1920   23.7560 O   0  0  0  0  0  0  0  0  0  0  0  0
  -22.7560  -29.5220   22.5800 C   0  0  0  0  0  0  0  0  0  0  0  0
  -21.4230  -29.3690   22.4550 N   0  0  0  0  0  0  0  0  0  0  0  0
  -23.4110  -28.8980   23.4200 O   0  0  0  0  0  0  0  0  0  0  0  0
  -20.9460  -29.9220   21.7570 H   0  0  0  0  0  0  0  0  0  0  0  0
  -18.0330  -28.1690   22.9680 C   0  0  0  0  0  0  0  0  0  0  0  0
  -20.5930  -28.4390   23.2300 C   0  0  0  0  0  3  0  0  0  0  0  0
  -20.6940  -27.0020   22.6640 C   0  0  0  0  0  2  0  0  0  0  0  0
  -19.5940  -26.6750   21.6500 C   0  0  0  0  0  2  0  0  0  0  0  0
  -18.2110  -26.8200   22.2910 C   0  0  0  0  0  2  0  0  0  0  0  0
  -19.1500  -28.9350   23.3940 C   0  0  0  0  0  0  0  0  0  0  0  0
  -18.9270  -30.1950   23.9910 C   0  0  0  0  0  3  0  0  0  0  0  0
  -17.6200  -30.6890   24.1620 C   0  0  0  0  0  3  0  0  0  0  0  0
  -16.5170  -29.9210   23.7490 C   0  0  0  0  0  3  0  0  0  0  0  0
  -16.7250  -28.6620   23.1580 C   0  0  0  0  0  3  0  0  0  0  0  0
  -25.9420  -32.5310   23.8780 C   0  0  0  0  0  3  0  0  0  0  0  0
  -26.4400  -31.7670   25.1680 C   0  0  1  0  0  0  0  0  0  0  0  0
  -25.3350  -31.5460   26.2290 C   0  0  0  0  0  1  0  0  0  0  0  0
  -27.0170  -30.3800   24.8050 C   0  0  0  0  0  1  0  0  0  0  0  0
  -27.5910  -32.5580   25.8350 C   0  0  0  0  0  1  0  0  0  0  0  0
  -25.6270  -33.9320   24.2180 N   0  0  0  0  0  0  0  0  0  0  0  0
  -25.9330  -34.9970   23.4640 C   0  0  0  0  0  0  0  0  0  0  0  0
  -26.5690  -34.9020   22.4100 O   0  0  0  0  0  0  0  0  0  0  0  0
  -25.0570  -34.0770   25.0370 H   0  0  0  0  0  0  0  0  0  0  0  0
  -24.1800  -36.7890   23.2110 C   0  0  0  0  0  1  0  0  0  0  0  0
  -25.4650  -36.3850   23.9520 C   0  0  0  0  0  3  0  0  0  0  0  0
  -27.6320  -37.2910   24.6730 C   0  0  0  0  0  1  0  0  0  0  0  0
  -26.4840  -37.4450   23.7830 N   0  0  0  0  0  0  0  0  0  0  0  0
  -26.0790  -38.3630   23.9460 H   0  0  0  0  0  0  0  0  0  0  0  0
  -28.9470  -22.2690   20.2790 C   0  0  0  0  0  3  0  0  0  0  0  0
  -28.7110  -20.3580   20.2370 C   0  0  0  0  0  3  0  0  0  0  0  0
  -29.7530  -18.7430   20.2450 C   0  0  0  0  0  3  0  0  0  0  0  0
  -30.2820  -15.6460   20.1480 C   0  0  0  0  0  0  0  0  0  0  0  0
  -30.3500  -13.1330   19.2860 C   0  0  0  0  0  2  0  0  0  0  0  0
  -29.4300  -12.7740   18.0850 C   0  0  0  0  0  2  0  0  0  0  0  0
  -28.0130  -12.4240   18.5630 C   0  0  0  0  0  2  0  0  0  0  0  0
  -27.5300  -13.4030   19.6600 C   0  0  0  0  0  3  0  0  0  0  0  0
  -28.5860  -13.6800   20.7550 C   0  0  0  0  0  2  0  0  0  0  0  0
  -29.7510  -14.2930   20.0790 N   0  0  0  0  0  0  0  0  0  0  0  0
  -31.5110  -15.5990   19.9480 O   0  0  0  0  0  0  0  0  0  0  0  0
  -29.5270  -16.9940   20.2480 N   0  0  0  0  0  0  0  0  0  0  0  0
  -28.5450  -16.7820   20.3500 H   0  0  0  0  0  0  0  0  0  0  0  0
  -25.1770  -13.9060   20.4730 C   0  0  0  0  0  0  0  0  0  0  0  0
  -24.1340  -13.1120   20.8550 C   0  0  0  0  0  0  0  0  0  0  0  0
  -24.6200  -11.7680   20.8040 C   0  0  0  0  0  0  0  0  0  0  0  0
  -26.2270  -13.0500   20.2020 N   0  0  0  0  0  0  0  0  0  0  0  0
  -25.9070  -11.7560   20.4690 N   0  0  0  0  0  0  0  0  0  0  0  0
  -23.9110  -10.4960   20.9970 C   0  0  0  0  0  0  0  0  0  0  0  0
  -24.3510   -9.5380   21.9370 C   0  0  0  0  0  3  0  0  0  0  0  0
  -23.6360   -8.3340   22.1190 C   0  0  0  0  0  3  0  0  0  0  0  0
  -22.4690   -8.0770   21.3610 C   0  0  0  0  0  0  0  0  0  0  0  0
  -22.0480   -9.0240   20.4100 C   0  0  0  0  0  3  0  0  0  0  0  0
  -22.7630  -10.2200   20.2260 C   0  0  0  0  0  3  0  0  0  0  0  0
  -21.7270   -6.9240   21.4530 O   0  0  0  0  0  0  0  0  0  0  0  0
  -21.6590   -6.2030   22.6170 C   0  0  0  0  0  0  0  0  0  0  0  0
  -21.1670   -6.7650   23.8150 C   0  0  0  0  0  3  0  0  0  0  0  0
  -21.0490   -5.9670   24.9700 C   0  0  0  0  0  3  0  0  0  0  0  0
  -21.4130   -4.6090   24.9290 C   0  0  0  0  0  0  0  0  0  0  0  0
  -21.8990   -4.0450   23.7360 C   0  0  0  0  0  3  0  0  0  0  0  0
  -22.0180   -4.8400   22.5820 C   0  0  0  0  0  0  0  0  0  0  0  0
  -22.4660   -4.2870   21.4300 F   0  0  0  0  0  0  0  0  0  0  0  0
  -21.2940   -3.8400   26.0380 F   0  0  0  0  0  0  0  0  0  0  0  0
  -22.7360  -13.5700   21.1460 C   0  0  0  0  0  0  0  0  0  0  0  0
  -22.0320  -12.8660   22.0240 N   0  0  0  0  0  0  0  0  0  0  0  0
  -22.2780  -14.5880   20.6300 O   0  0  0  0  0  0  0  0  0  0  0  0
  -22.4170  -12.0420   22.4630 H   0  0  0  0  0  0  0  0  0  0  0  0
  -21.0930  -13.1550   22.2630 H   0  0  0  0  0  0  0  0  0  0  0  0
  -25.3150  -15.2810   20.3020 N   0  0  0  0  0  0  0  0  0  0  0  0
  -24.5370  -15.9190   20.4270 H   0  0  0  0  0  0  0  0  0  0  0  0
  -26.1390  -15.7310   19.9280 H   0  0  0  0  0  0  0  0  0  0  0  0
  1 43  2  0
  1  2  1  0
  3 14  2  0
  4  2  1  0
  4  9  1  0
  5 13  1  0
  5 15  1  0
  6 12  1  0
  6  8  1  0
  7 13  1  0
  8  7  1  0
  9  8  2  0
 10  4  2  0
 11 10  1  0
 11  6  2  0
 12  5  1  0
 13  3  1  0
 15 17  2  0
 16 15  1  0
 18 16  1  0
 19 28  2  0
 19 24  1  0
 20 16  1  0
 20 24  1  0
 21 20  1  0
 22 23  1  0
 22 21  1  0
 23 19  1  0
 24 25  2  0
 25 26  1  0
 27 26  2  0
 28 27  1  0
 29  3  1  0
 29 34  1  0
 29 30  1  0
 30 33  1  1
 30 31  1  0
 32 30  1  0
 34 37  1  0
 35 39  1  0
 35 34  1  0
 36 35  2  0
 39 38  1  0
 41 42  1  0
 41 39  1  0
 41 40  1  0
 44 45  2  0
 44 43  1  0
 45 54  1  0
 46 54  1  0
 47 52  1  0
 48 49  1  0
 48 47  1  0
 50 49  1  0
 50 59  1  0
 50 51  1  0
 52 46  1  0
 52 51  1  0
 53 46  2  0
 54 55  1  0
 56 57  2  0
 57 76  1  0
 58 57  1  0
 58 61  1  0
 59 60  1  0
 59 56  1  0
 60 58  2  0
 61 62  1  0
 62 63  2  0
 64 67  1  0
 64 63  1  0
 65 64  2  0
 66 65  1  0
 66 61  2  0
 67 68  1  0
 68 69  1  0
 69 70  2  0
 71 70  1  0
 71 75  1  0
 72 71  2  0
 73 68  2  0
 73 72  1  0
 74 73  1  0
 76 77  1  0
 77 80  1  0
 77 79  1  0
 78 76  2  0
 81 82  1  0
 81 56  1  0
 83 81  1  0
M  ISO  4   1 101   2 101  46 100  54 100
M  END
>  <TORSDO>  (77) 
F 19

>  <SCORE>  (77) 
-16.287

>  <name>  (77) 
76

>  <ligand_id>  (77) 
76

>  <original_smiles>  (77) 
[H]c1c([H])c([H])c2c(c1[H])C([H])([H])C([H])([H])C([H])([H])C2([H])N([H])C(=O)C1([H])N(C(=O)C([H])(N([H])C(=O)C([H])(N([H])C([H])([H])[H])C([H])([H])[H])C(C([H])([H])[H])(C([H])([H])[H])C([H])([H])[H])C([H])([H])c2c([H])c(OC([H])([H])C([H])([H])C([H])([H])C([H])([H])N([H])C(=O)N3C([H])([H])C([H])([H])C([H])([H])C([H])(n4nc(-c5c([H])c([H])c(Oc6c([H])c([H])c(F)c([H])c6F)c([H])c5[H])c(C(=O)N([H])[H])c4N([H])[H])C3([H])[H])c([H])c([H])c2C1([H])[H]

>  <smiles>  (77) 
[H]c1c([H])c([H])c2c(c1[H])C([H])([H])C([H])([H])C([H])([H])C2([H])N([H])C(=O)C1([H])N(C(=O)C([H])(N([H])C(=O)C([H])(N([H])C([H])([H])[H])C([H])([H])[H])C(C([H])([H])[H])(C([H])([H])[H])C([H])([H])[H])C([H])([H])c2c([H])c(OC([H])([H])C([H])([H])C([H])([H])C([H])([H])N([H])C(=O)N3C([H])([H])C([H])([H])C([H])([H])C([H])(n4nc(-c5c([H])c([H])c(Oc6c([H])c([H])c(F)c([H])c6F)c([H])c5[H])c(C(=O)N([H])[H])c4N([H])[H])C3([H])[H])c([H])c([H])c2C1([H])[H]

$$$$
77:0:0
     RDKit          3D

 84 91  0  0  1  0  0  0  0  0999 V2000
  -28.7200  -22.8200   19.9390 C   0  0  0  0  0  2  0  0  0  0  0  0
  -28.9750  -21.2040   20.6560 C   0  0  0  0  0  2  0  0  0  0  0  0
  -29.1120  -19.5470   20.0050 C   0  0  0  0  0  2  0  0  0  0  0  0
  -29.8670  -18.0600   20.6330 C   0  0  0  0  0  2  0  0  0  0  0  0
  -30.3960  -15.2010   20.2700 C   0  0  0  0  0  0  0  0  0  0  0  0
  -30.3500  -12.7810   19.3600 C   0  0  0  0  0  2  0  0  0  0  0  0
  -29.4120  -12.6020   18.1410 C   0  0  0  0  0  2  0  0  0  0  0  0
  -27.9650  -12.3420   18.5970 C   0  0  0  0  0  2  0  0  0  0  0  0
  -27.5320  -13.3000   19.7350 C   0  0  0  0  0  3  0  0  0  0  0  0
  -28.5930  -13.4210   20.8470 C   0  0  0  0  0  2  0  0  0  0  0  0
  -29.8190  -13.9100   20.2000 N   0  0  0  0  0  0  0  0  0  0  0  0
  -31.6200  -15.2130   20.0850 O   0  0  0  0  0  0  0  0  0  0  0  0
  -29.6200  -16.4480   20.3470 N   0  0  0  0  0  0  0  0  0  0  0  0
  -28.6340  -16.2300   20.3490 H   0  0  0  0  0  0  0  0  0  0  0  0
  -25.1640  -13.8590   20.5070 C   0  0  0  0  0  0  0  0  0  0  0  0
  -24.1070  -13.0800   20.8850 C   0  0  0  0  0  0  0  0  0  0  0  0
  -24.5780  -11.7320   20.8550 C   0  0  0  0  0  0  0  0  0  0  0  0
  -26.2080  -12.9850   20.2570 N   0  0  0  0  0  0  0  0  0  0  0  0
  -25.8670  -11.7000   20.5360 N   0  0  0  0  0  0  0  0  0  0  0  0
  -23.8560  -10.4680   21.0510 C   0  0  0  0  0  0  0  0  0  0  0  0
  -24.3040   -9.4940   21.9700 C   0  0  0  0  0  3  0  0  0  0  0  0
  -23.5790   -8.2970   22.1560 C   0  0  0  0  0  3  0  0  0  0  0  0
  -22.3920   -8.0650   21.4220 C   0  0  0  0  0  0  0  0  0  0  0  0
  -21.9620   -9.0270   20.4910 C   0  0  0  0  0  3  0  0  0  0  0  0
  -22.6880  -10.2150   20.3040 C   0  0  0  0  0  3  0  0  0  0  0  0
  -21.6370   -6.9210   21.5170 O   0  0  0  0  0  0  0  0  0  0  0  0
  -21.6230   -6.1620   22.6600 C   0  0  0  0  0  0  0  0  0  0  0  0
  -21.2490   -6.7030   23.9090 C   0  0  0  0  0  3  0  0  0  0  0  0
  -21.1820   -5.8710   25.0460 C   0  0  0  0  0  3  0  0  0  0  0  0
  -21.4760   -4.4990   24.9330 C   0  0  0  0  0  0  0  0  0  0  0  0
  -21.8430   -3.9570   23.6880 C   0  0  0  0  0  3  0  0  0  0  0  0
  -21.9120   -4.7860   22.5540 C   0  0  0  0  0  0  0  0  0  0  0  0
  -22.2450   -4.2550   21.3530 F   0  0  0  0  0  0  0  0  0  0  0  0
  -21.4040   -3.6980   26.0210 F   0  0  0  0  0  0  0  0  0  0  0  0
  -22.7100  -13.5540   21.1580 C   0  0  0  0  0  0  0  0  0  0  0  0
  -21.9870  -12.8610   22.0310 N   0  0  0  0  0  0  0  0  0  0  0  0
  -22.2690  -14.5760   20.6330 O   0  0  0  0  0  0  0  0  0  0  0  0
  -22.3580  -12.0360   22.4770 H   0  0  0  0  0  0  0  0  0  0  0  0
  -21.0490  -13.1600   22.2560 H   0  0  0  0  0  0  0  0  0  0  0  0
  -25.3190  -15.2300   20.3220 N   0  0  0  0  0  0  0  0  0  0  0  0
  -24.5440  -15.8760   20.4320 H   0  0  0  0  0  0  0  0  0  0  0  0
  -26.1490  -15.6710   19.9480 H   0  0  0  0  0  0  0  0  0  0  0  0
  -28.0700  -24.3570   20.5690 C   0  0  0  0  0  2  0  0  0  0  0  0
  -28.2440  -25.9400   20.2190 O   0  0  0  0  0  0  0  0  0  0  0  0
  -24.6360  -31.8510   23.1910 C   0  0  0  0  0  0  0  0  0  0  0  0
  -27.2030  -26.9910   20.2220 C   0  0  0  0  0  0  0  0  0  0  0  0
  -23.4440  -30.4430   21.5620 C   0  0  0  0  0  3  0  0  0  0  0  0
  -24.8930  -28.8310   20.1590 C   0  0  0  0  0  0  0  0  0  0  0  0
  -26.0070  -30.6690   21.4100 C   0  0  0  0  0  2  0  0  0  0  0  0
  -26.0800  -29.2570   20.7700 C   0  0  0  0  0  0  0  0  0  0  0  0
  -27.2330  -28.3580   20.7710 C   0  0  0  0  0  3  0  0  0  0  0  0
  -25.9840  -26.6990   19.5730 C   0  0  0  0  0  3  0  0  0  0  0  0
  -24.8670  -27.5710   19.5410 C   0  0  0  0  0  3  0  0  0  0  0  0
  -23.6730  -29.7490   20.1920 C   0  0  0  0  0  2  0  0  0  0  0  0
  -24.7180  -31.0140   22.1080 N   0  0  0  0  0  0  0  0  0  0  0  0
  -23.5480  -32.1440   23.7100 O   0  0  0  0  0  0  0  0  0  0  0  0
  -22.7520  -29.4530   22.5340 C   0  0  0  0  0  0  0  0  0  0  0  0
  -21.4230  -29.2840   22.4070 N   0  0  0  0  0  0  0  0  0  0  0  0
  -23.4180  -28.8350   23.3680 O   0  0  0  0  0  0  0  0  0  0  0  0
  -20.9400  -29.8330   21.7090 H   0  0  0  0  0  0  0  0  0  0  0  0
  -18.0440  -28.0620   22.9000 C   0  0  0  0  0  0  0  0  0  0  0  0
  -20.5990  -28.3520   23.1830 C   0  0  0  0  0  3  0  0  0  0  0  0
  -20.7170  -26.9120   22.6300 C   0  0  0  0  0  2  0  0  0  0  0  0
  -19.6270  -26.5660   21.6110 C   0  0  0  0  0  2  0  0  0  0  0  0
  -18.2380  -26.7060   22.2410 C   0  0  0  0  0  2  0  0  0  0  0  0
  -19.1530  -28.8410   23.3270 C   0  0  0  0  0  0  0  0  0  0  0  0
  -18.9150  -30.1070   23.9070 C   0  0  0  0  0  3  0  0  0  0  0  0
  -17.6030  -30.5950   24.0600 C   0  0  0  0  0  3  0  0  0  0  0  0
  -16.5100  -29.8140   23.6450 C   0  0  0  0  0  3  0  0  0  0  0  0
  -16.7310  -28.5490   23.0720 C   0  0  0  0  0  3  0  0  0  0  0  0
  -25.9090  -32.4980   23.8200 C   0  0  0  0  0  3  0  0  0  0  0  0
  -26.4210  -31.7340   25.1030 C   0  0  1  0  0  0  0  0  0  0  0  0
  -25.3240  -31.5030   26.1710 C   0  0  0  0  0  1  0  0  0  0  0  0
  -27.0060  -30.3530   24.7280 C   0  0  0  0  0  1  0  0  0  0  0  0
  -27.5690  -32.5320   25.7650 C   0  0  0  0  0  1  0  0  0  0  0  0
  -25.5860  -33.8960   24.1570 N   0  0  0  0  0  0  0  0  0  0  0  0
  -25.9120  -34.9590   23.4110 C   0  0  0  0  0  0  0  0  0  0  0  0
  -26.5790  -34.8680   22.3770 O   0  0  0  0  0  0  0  0  0  0  0  0
  -24.9920  -34.0390   24.9610 H   0  0  0  0  0  0  0  0  0  0  0  0
  -24.1740  -36.7540   23.0900 C   0  0  0  0  0  1  0  0  0  0  0  0
  -25.4240  -36.3440   23.8850 C   0  0  0  0  0  3  0  0  0  0  0  0
  -27.5630  -37.2340   24.7020 C   0  0  0  0  0  1  0  0  0  0  0  0
  -26.4510  -37.4030   23.7700 N   0  0  0  0  0  0  0  0  0  0  0  0
  -26.0430  -38.3200   23.9280 H   0  0  0  0  0  0  0  0  0  0  0  0
  1 43  1  0
  1  2  1  0
  3  4  1  0
  3  2  1  0
  5 13  1  0
  6 11  1  0
  7  8  1  0
  7  6  1  0
  9  8  1  0
  9 18  1  0
  9 10  1  0
 11  5  1  0
 11 10  1  0
 12  5  2  0
 13 14  1  0
 13  4  1  0
 15 16  2  0
 16 35  1  0
 17 16  1  0
 17 20  1  0
 18 15  1  0
 18 19  1  0
 19 17  2  0
 20 21  1  0
 21 22  2  0
 23 26  1  0
 23 22  1  0
 24 23  2  0
 25 24  1  0
 25 20  2  0
 26 27  1  0
 27 28  1  0
 28 29  2  0
 30 29  1  0
 30 34  1  0
 31 30  2  0
 32 27  2  0
 32 31  1  0
 33 32  1  0
 35 36  1  0
 36 39  1  0
 36 38  1  0
 37 35  2  0
 40 41  1  0
 40 15  1  0
 42 40  1  0
 44 46  1  0
 44 43  1  0
 45 56  2  0
 46 51  1  0
 47 55  1  0
 47 57  1  0
 48 54  1  0
 48 50  1  0
 49 55  1  0
 50 51  2  0
 50 49  1  0
 52 46  2  0
 53 52  1  0
 53 48  2  0
 54 47  1  0
 55 45  1  0
 57 59  2  0
 58 57  1  0
 60 58  1  0
 61 70  2  0
 61 66  1  0
 62 58  1  0
 62 66  1  0
 63 62  1  0
 64 65  1  0
 64 63  1  0
 65 61  1  0
 66 67  2  0
 67 68  1  0
 69 68  2  0
 70 69  1  0
 71 45  1  0
 71 76  1  0
 71 72  1  0
 72 75  1  1
 72 73  1  0
 74 72  1  0
 76 79  1  0
 77 81  1  0
 77 76  1  0
 78 77  2  0
 81 80  1  0
 83 81  1  0
 83 84  1  0
 83 82  1  0
M  ISO  4   5 100  13 100  43 101  44 101
M  END
>  <TORSDO>  (78) 
F 20

>  <SCORE>  (78) 
-15.593

>  <name>  (78) 
77

>  <ligand_id>  (78) 
77

>  <original_smiles>  (78) 
[H]c1c([H])c([H])c2c(c1[H])C([H])([H])C([H])([H])C([H])([H])C2([H])N([H])C(=O)C1([H])N(C(=O)C([H])(N([H])C(=O)C([H])(N([H])C([H])([H])[H])C([H])([H])[H])C(C([H])([H])[H])(C([H])([H])[H])C([H])([H])[H])C([H])([H])c2c([H])c(OC([H])([H])C([H])([H])C([H])([H])C([H])([H])C([H])([H])N([H])C(=O)N3C([H])([H])C([H])([H])C([H])([H])C([H])(n4nc(-c5c([H])c([H])c(Oc6c([H])c([H])c(F)c([H])c6F)c([H])c5[H])c(C(=O)N([H])[H])c4N([H])[H])C3([H])[H])c([H])c([H])c2C1([H])[H]

>  <smiles>  (78) 
[H]c1c([H])c([H])c2c(c1[H])C([H])([H])C([H])([H])C([H])([H])C2([H])N([H])C(=O)C1([H])N(C(=O)C([H])(N([H])C(=O)C([H])(N([H])C([H])([H])[H])C([H])([H])[H])C(C([H])([H])[H])(C([H])([H])[H])C([H])([H])[H])C([H])([H])c2c([H])c(OC([H])([H])C([H])([H])C([H])([H])C([H])([H])C([H])([H])N([H])C(=O)N3C([H])([H])C([H])([H])C([H])([H])C([H])(n4nc(-c5c([H])c([H])c(Oc6c([H])c([H])c(F)c([H])c6F)c([H])c5[H])c(C(=O)N([H])[H])c4N([H])[H])C3([H])[H])c([H])c([H])c2C1([H])[H]

$$$$
78:0:0
     RDKit          3D

 89 97  0  0  1  0  0  0  0  0999 V2000
  -29.5440  -21.4810   19.8000 O   0  0  0  0  0  0  0  0  0  0  0  0
  -30.2950  -17.8220   19.2330 C   0  0  0  0  0  3  0  0  0  0  0  0
  -29.6100  -18.0620   21.5290 C   0  0  0  0  0  3  0  0  0  0  0  0
  -30.1380  -19.2310   19.0550 C   0  0  0  0  0  3  0  0  0  0  0  0
  -29.4900  -19.4810   21.3580 C   0  0  0  0  0  3  0  0  0  0  0  0
  -30.0110  -17.1830   20.4750 C   0  0  0  0  0  0  0  0  0  0  0  0
  -29.7280  -20.1090   20.1010 C   0  0  0  0  0  0  0  0  0  0  0  0
  -30.6810  -14.6900   20.0640 C   0  0  0  0  0  0  0  0  0  0  0  0
  -30.4070  -12.4780   18.9480 C   0  0  0  0  0  2  0  0  0  0  0  0
  -29.4060  -12.6530   17.7840 C   0  0  0  0  0  2  0  0  0  0  0  0
  -27.9570  -12.4770   18.2740 C   0  0  0  0  0  2  0  0  0  0  0  0
  -27.6670  -13.2830   19.5690 C   0  0  0  0  0  3  0  0  0  0  0  0
  -28.7820  -13.0970   20.6240 C   0  0  0  0  0  2  0  0  0  0  0  0
  -30.0640  -13.4630   19.9990 N   0  0  0  0  0  0  0  0  0  0  0  0
  -31.7780  -14.8690   19.5220 O   0  0  0  0  0  0  0  0  0  0  0  0
  -30.0080  -15.7210   20.6770 N   0  0  0  0  0  0  0  0  0  0  0  0
  -29.2980  -15.3940   21.3180 H   0  0  0  0  0  0  0  0  0  0  0  0
  -25.3150  -13.8610   20.4180 C   0  0  0  0  0  0  0  0  0  0  0  0
  -24.2640  -13.0810   20.8230 C   0  0  0  0  0  0  0  0  0  0  0  0
  -24.7220  -11.7300   20.7360 C   0  0  0  0  0  0  0  0  0  0  0  0
  -26.3440  -12.9850   20.1100 N   0  0  0  0  0  0  0  0  0  0  0  0
  -25.9970  -11.6970   20.3590 N   0  0  0  0  0  0  0  0  0  0  0  0
  -24.0000  -10.4630   20.9290 C   0  0  0  0  0  0  0  0  0  0  0  0
  -24.4340   -9.5050   21.8700 C   0  0  0  0  0  3  0  0  0  0  0  0
  -23.7110   -8.3070   22.0570 C   0  0  0  0  0  3  0  0  0  0  0  0
  -22.5420   -8.0580   21.3020 C   0  0  0  0  0  0  0  0  0  0  0  0
  -22.1280   -9.0050   20.3490 C   0  0  0  0  0  3  0  0  0  0  0  0
  -22.8510  -10.1940   20.1600 C   0  0  0  0  0  3  0  0  0  0  0  0
  -21.7930   -6.9100   21.3950 O   0  0  0  0  0  0  0  0  0  0  0  0
  -21.6850   -6.2140   22.5740 C   0  0  0  0  0  0  0  0  0  0  0  0
  -21.1710   -6.8070   23.7460 C   0  0  0  0  0  3  0  0  0  0  0  0
  -21.0150   -6.0350   24.9150 C   0  0  0  0  0  3  0  0  0  0  0  0
  -21.3580   -4.6720   24.9110 C   0  0  0  0  0  0  0  0  0  0  0  0
  -21.8680   -4.0770   23.7420 C   0  0  0  0  0  3  0  0  0  0  0  0
  -22.0250   -4.8450   22.5760 C   0  0  0  0  0  0  0  0  0  0  0  0
  -22.4920   -4.2620   21.4470 F   0  0  0  0  0  0  0  0  0  0  0  0
  -21.2020   -3.9290   26.0300 F   0  0  0  0  0  0  0  0  0  0  0  0
  -22.8840  -13.5550   21.1750 C   0  0  0  0  0  0  0  0  0  0  0  0
  -22.1950  -12.8410   22.0630 N   0  0  0  0  0  0  0  0  0  0  0  0
  -22.4230  -14.5940   20.7030 O   0  0  0  0  0  0  0  0  0  0  0  0
  -22.5800  -12.0020   22.4720 H   0  0  0  0  0  0  0  0  0  0  0  0
  -21.2690  -13.1360   22.3320 H   0  0  0  0  0  0  0  0  0  0  0  0
  -25.4750  -15.2350   20.2710 N   0  0  0  0  0  0  0  0  0  0  0  0
  -24.7240  -15.8930   20.4490 H   0  0  0  0  0  0  0  0  0  0  0  0
  -26.3150  -15.6820   19.9300 H   0  0  0  0  0  0  0  0  0  0  0  0
  -29.5360  -22.5380   20.8210 C   0  0  0  0  0  2  0  0  0  0  0  0
  -29.6060  -24.0830   20.3680 C   0  0  0  0  0  3  0  0  0  0  0  0
  -28.3060  -24.9980   20.2520 C   0  0  0  0  0  3  0  0  0  0  0  0
  -28.4640  -26.4780   20.2340 O   0  0  0  0  0  0  0  0  0  0  0  0
  -24.6350  -31.8460   23.2070 C   0  0  0  0  0  0  0  0  0  0  0  0
  -27.3140  -27.2920   20.1940 C   0  0  0  0  0  0  0  0  0  0  0  0
  -23.4500  -30.4330   21.5650 C   0  0  0  0  0  3  0  0  0  0  0  0
  -24.9230  -28.8770   20.1610 C   0  0  0  0  0  0  0  0  0  0  0  0
  -25.9890  -30.7640   21.3990 C   0  0  0  0  0  2  0  0  0  0  0  0
  -26.0830  -29.3840   20.7600 C   0  0  0  0  0  0  0  0  0  0  0  0
  -27.2790  -28.6040   20.7640 C   0  0  0  0  0  3  0  0  0  0  0  0
  -26.1260  -26.8340   19.5790 C   0  0  0  0  0  3  0  0  0  0  0  0
  -24.9470  -27.6060   19.5630 C   0  0  0  0  0  3  0  0  0  0  0  0
  -23.6760  -29.7400   20.1940 C   0  0  0  0  0  2  0  0  0  0  0  0
  -24.7100  -31.0330   22.1130 N   0  0  0  0  0  0  0  0  0  0  0  0
  -23.5480  -32.1220   23.7320 O   0  0  0  0  0  0  0  0  0  0  0  0
  -22.7860  -29.4210   22.5280 C   0  0  0  0  0  0  0  0  0  0  0  0
  -21.4620  -29.2400   22.3930 N   0  0  0  0  0  0  0  0  0  0  0  0
  -23.4610  -28.7970   23.3520 O   0  0  0  0  0  0  0  0  0  0  0  0
  -20.9810  -29.7870   21.6940 H   0  0  0  0  0  0  0  0  0  0  0  0
  -18.0800  -28.0600   22.8960 C   0  0  0  0  0  0  0  0  0  0  0  0
  -20.6400  -28.3050   23.1600 C   0  0  0  0  0  3  0  0  0  0  0  0
  -20.7370  -26.8770   22.5740 C   0  0  0  0  0  2  0  0  0  0  0  0
  -19.6290  -26.5640   21.5650 C   0  0  0  0  0  2  0  0  0  0  0  0
  -18.2490  -26.7140   22.2100 C   0  0  0  0  0  2  0  0  0  0  0  0
  -19.2040  -28.8150   23.3260 C   0  0  0  0  0  0  0  0  0  0  0  0
  -18.9940  -30.0760   23.9240 C   0  0  0  0  0  3  0  0  0  0  0  0
  -17.6920  -30.5810   24.1000 C   0  0  0  0  0  3  0  0  0  0  0  0
  -16.5830  -29.8240   23.6860 C   0  0  0  0  0  3  0  0  0  0  0  0
  -16.7780  -28.5660   23.0900 C   0  0  0  0  0  3  0  0  0  0  0  0
  -25.9120  -32.4860   23.8370 C   0  0  0  0  0  3  0  0  0  0  0  0
  -26.4240  -31.7160   25.1150 C   0  0  1  0  0  0  0  0  0  0  0  0
  -25.3250  -31.4660   26.1740 C   0  0  0  0  0  1  0  0  0  0  0  0
  -27.0240  -30.3450   24.7260 C   0  0  0  0  0  1  0  0  0  0  0  0
  -27.5650  -32.5170   25.7860 C   0  0  0  0  0  1  0  0  0  0  0  0
  -25.5930  -33.8820   24.1710 N   0  0  0  0  0  0  0  0  0  0  0  0
  -25.9220  -34.9400   23.4160 C   0  0  0  0  0  0  0  0  0  0  0  0
  -26.5960  -34.8420   22.3870 O   0  0  0  0  0  0  0  0  0  0  0  0
  -25.0020  -34.0290   24.9740 H   0  0  0  0  0  0  0  0  0  0  0  0
  -24.1860  -36.7230   23.0530 C   0  0  0  0  0  1  0  0  0  0  0  0
  -25.4230  -36.3230   23.8750 C   0  0  0  0  0  3  0  0  0  0  0  0
  -27.5440  -37.2150   24.7320 C   0  0  0  0  0  1  0  0  0  0  0  0
  -26.4500  -37.3830   23.7760 N   0  0  0  0  0  0  0  0  0  0  0  0
  -26.0400  -38.3000   23.9230 H   0  0  0  0  0  0  0  0  0  0  0  0
  1  7  1  0
  1 46  1  0
  2  6  1  0
  4  2  2  0
  4  7  1  0
  5  3  1  0
  6 16  1  0
  6  3  2  0
  7  5  2  0
  8 16  1  0
  9 14  1  0
 10 11  1  0
 10  9  1  0
 12 11  1  0
 12 21  1  0
 12 13  1  0
 14  8  1  0
 14 13  1  0
 15  8  2  0
 16 17  1  0
 18 19  2  0
 19 38  1  0
 20 19  1  0
 20 23  1  0
 21 22  1  0
 21 18  1  0
 22 20  2  0
 23 24  1  0
 24 25  2  0
 26 29  1  0
 26 25  1  0
 27 26  2  0
 28 27  1  0
 28 23  2  0
 29 30  1  0
 30 35  2  0
 30 31  1  0
 31 32  2  0
 33 32  1  0
 33 37  1  0
 34 33  2  0
 35 34  1  0
 36 35  1  0
 38 39  1  0
 39 42  1  0
 39 41  1  0
 40 38  2  0
 43 18  1  0
 43 44  1  0
 45 43  1  0
 47 46  1  0
 48 47  2  0
 49 48  1  0
 50 61  2  0
 51 49  1  0
 51 56  1  0
 52 60  1  0
 52 62  1  0
 53 59  1  0
 53 55  1  0
 54 60  1  0
 55 56  2  0
 55 54  1  0
 57 51  2  0
 58 57  1  0
 58 53  2  0
 59 52  1  0
 60 50  1  0
 62 64  2  0
 63 62  1  0
 65 63  1  0
 66 75  2  0
 66 71  1  0
 67 63  1  0
 67 71  1  0
 68 67  1  0
 69 70  1  0
 69 68  1  0
 70 66  1  0
 71 72  2  0
 72 73  1  0
 74 73  2  0
 75 74  1  0
 76 50  1  0
 76 81  1  0
 76 77  1  0
 77 80  1  1
 77 78  1  0
 79 77  1  0
 81 84  1  0
 82 86  1  0
 82 81  1  0
 83 82  2  0
 86 85  1  0
 88 86  1  0
 88 89  1  0
 88 87  1  0
M  ISO  4   8 100  16 100  48 101  49 101
M  END
>  <TORSDO>  (79) 
F 20

>  <SCORE>  (79) 
-13.067

>  <name>  (79) 
78

>  <ligand_id>  (79) 
78

>  <original_smiles>  (79) 
[H]c1c([H])c([H])c2c(c1[H])C([H])([H])C([H])([H])C([H])([H])C2([H])N([H])C(=O)C1([H])N(C(=O)C([H])(N([H])C(=O)C([H])(N([H])C([H])([H])[H])C([H])([H])[H])C(C([H])([H])[H])(C([H])([H])[H])C([H])([H])[H])C([H])([H])c2c([H])c(OC([H])([H])C([H])([H])C([H])([H])Oc3c([H])c([H])c(N([H])C(=O)N4C([H])([H])C([H])([H])C([H])([H])C([H])(n5nc(-c6c([H])c([H])c(Oc7c([H])c([H])c(F)c([H])c7F)c([H])c6[H])c(C(=O)N([H])[H])c5N([H])[H])C4([H])[H])c([H])c3[H])c([H])c([H])c2C1([H])[H]

>  <smiles>  (79) 
[H]c1c([H])c([H])c2c(c1[H])C([H])([H])C([H])([H])C([H])([H])C2([H])N([H])C(=O)C1([H])N(C(=O)C([H])(N([H])C(=O)C([H])(N([H])C([H])([H])[H])C([H])([H])[H])C(C([H])([H])[H])(C([H])([H])[H])C([H])([H])[H])C([H])([H])c2c([H])c(OC([H])([H])C([H])([H])C([H])([H])Oc3c([H])c([H])c(N([H])C(=O)N4C([H])([H])C([H])([H])C([H])([H])C([H])(n5nc(-c6c([H])c([H])c(Oc7c([H])c([H])c(F)c([H])c7F)c([H])c6[H])c(C(=O)N([H])[H])c5N([H])[H])C4([H])[H])c([H])c3[H])c([H])c([H])c2C1([H])[H]

$$$$
79:0:0
     RDKit          3D

103110  0  0  1  0  0  0  0  0999 V2000
  -25.9530  -23.6780   20.9330 C   0  0  0  0  0  0  0  0  0  0  0  0
  -26.0690  -22.4960   18.8050 C   0  0  0  0  0  0  0  0  0  0  0  0
  -25.5210  -23.4090   19.6680 N   0  0  0  0  0  0  0  0  0  0  0  0
  -25.1680  -24.0530   21.8120 O   0  0  0  0  0  0  0  0  0  0  0  0
  -25.6880  -22.4100   17.6300 O   0  0  0  0  0  0  0  0  0  0  0  0
  -27.4540  -23.6730   21.2820 C   0  0  0  0  0  2  0  0  0  0  0  0
  -27.9840  -25.0320   21.7780 C   0  0  0  0  0  2  0  0  0  0  0  0
  -29.1790  -25.5410   20.9380 C   0  0  0  0  0  2  0  0  0  0  0  0
  -29.1470  -26.9540   20.7730 O   0  0  0  0  0  0  0  0  0  0  0  0
  -24.6160  -31.8390   23.1400 C   0  0  0  0  0  0  0  0  0  0  0  0
  -27.9280  -27.5570   20.5460 C   0  0  0  0  0  0  0  0  0  0  0  0
  -23.7310  -30.3410   21.3790 C   0  0  0  0  0  3  0  0  0  0  0  0
  -25.4550  -28.8760   20.2020 C   0  0  0  0  0  0  0  0  0  0  0  0
  -26.2300  -30.8590   21.5190 C   0  0  0  0  0  2  0  0  0  0  0  0
  -26.4830  -29.4920   20.9250 C   0  0  0  0  0  0  0  0  0  0  0  0
  -27.7200  -28.8380   21.0950 C   0  0  0  0  0  3  0  0  0  0  0  0
  -26.8810  -26.9470   19.8130 C   0  0  0  0  0  3  0  0  0  0  0  0
  -25.6460  -27.5980   19.6470 C   0  0  0  0  0  3  0  0  0  0  0  0
  -24.1650  -29.6500   20.0580 C   0  0  0  0  0  2  0  0  0  0  0  0
  -24.8660  -31.0300   22.0730 N   0  0  0  0  0  0  0  0  0  0  0  0
  -23.4570  -32.0520   23.5210 O   0  0  0  0  0  0  0  0  0  0  0  0
  -23.0140  -29.2980   22.2640 C   0  0  0  0  0  0  0  0  0  0  0  0
  -21.6890  -29.1690   22.0820 N   0  0  0  0  0  0  0  0  0  0  0  0
  -23.6480  -28.6100   23.0690 O   0  0  0  0  0  0  0  0  0  0  0  0
  -21.2400  -29.7790   21.4120 H   0  0  0  0  0  0  0  0  0  0  0  0
  -18.2360  -28.2730   22.6520 C   0  0  0  0  0  0  0  0  0  0  0  0
  -20.8170  -28.2200   22.7720 C   0  0  0  0  0  3  0  0  0  0  0  0
  -20.7270  -26.8840   21.9990 C   0  0  0  0  0  2  0  0  0  0  0  0
  -19.5340  -26.8150   21.0420 C   0  0  0  0  0  2  0  0  0  0  0  0
  -18.2210  -27.0140   21.8030 C   0  0  0  0  0  2  0  0  0  0  0  0
  -19.4570  -28.8460   23.0980 C   0  0  0  0  0  0  0  0  0  0  0  0
  -19.4180  -30.0310   23.8640 C   0  0  0  0  0  3  0  0  0  0  0  0
  -18.1900  -30.6430   24.1830 C   0  0  0  0  0  3  0  0  0  0  0  0
  -16.9840  -30.0660   23.7480 C   0  0  0  0  0  3  0  0  0  0  0  0
  -17.0090  -28.8810   22.9900 C   0  0  0  0  0  3  0  0  0  0  0  0
  -25.7670  -32.5500   23.9170 C   0  0  0  0  0  3  0  0  0  0  0  0
  -25.3390  -33.9300   24.1730 N   0  0  0  0  0  0  0  0  0  0  0  0
  -25.7010  -34.9880   23.4340 C   0  0  0  0  0  0  0  0  0  0  0  0
  -26.4990  -34.9060   22.4960 O   0  0  0  0  0  0  0  0  0  0  0  0
  -24.6450  -34.0620   24.8960 H   0  0  0  0  0  0  0  0  0  0  0  0
  -23.9150  -36.6490   22.8320 C   0  0  0  0  0  1  0  0  0  0  0  0
  -25.0780  -36.3490   23.7930 C   0  0  0  0  0  3  0  0  0  0  0  0
  -27.0600  -37.3760   24.8150 C   0  0  0  0  0  1  0  0  0  0  0  0
  -26.0480  -37.4650   23.7660 N   0  0  0  0  0  0  0  0  0  0  0  0
  -25.5720  -38.3600   23.8560 H   0  0  0  0  0  0  0  0  0  0  0  0
  -26.1540  -31.8250   25.2640 C   0  0  1  0  0  0  0  0  0  0  0  0
  -24.9330  -31.3950   26.1100 C   0  0  0  0  0  1  0  0  0  0  0  0
  -27.0010  -30.5620   24.9810 C   0  0  0  0  0  1  0  0  0  0  0  0
  -27.0330  -32.7580   26.1280 C   0  0  0  0  0  1  0  0  0  0  0  0
  -27.1440  -21.4780   19.2340 C   0  0  0  0  0  2  0  0  0  0  0  0
  -27.3490  -20.4950   18.1480 N   0  0  0  0  0  4  0  0  0  0  0  0
  -26.6410  -20.7260   17.4630 H   0  0  0  0  0  0  0  0  0  0  0  0
  -27.1250  -19.5690   18.4750 H   0  0  0  0  0  0  0  0  0  0  0  0
  -28.6820  -20.5360   17.5040 C   0  0  0  0  0  2  0  0  0  0  0  0
  -29.7310  -21.3340   18.3070 C   0  0  0  0  0  2  0  0  0  0  0  0
  -30.6160  -20.4280   19.1690 C   0  0  0  0  0  2  0  0  0  0  0  0
  -31.5080  -21.1920   20.1630 C   0  0  0  0  0  2  0  0  0  0  0  0
  -33.8050  -20.4950   19.5820 C   0  0  0  0  0  0  0  0  0  0  0  0
  -35.4970  -19.1640   18.3850 C   0  0  0  0  0  2  0  0  0  0  0  0
  -34.8580  -18.4930   17.1520 C   0  0  0  0  0  2  0  0  0  0  0  0
  -34.1970  -17.1530   17.5310 C   0  0  0  0  0  2  0  0  0  0  0  0
  -33.2720  -17.2730   18.7710 C   0  0  0  0  0  3  0  0  0  0  0  0
  -34.0050  -18.0070   19.9160 C   0  0  0  0  0  2  0  0  0  0  0  0
  -34.4610  -19.3190   19.4150 N   0  0  0  0  0  0  0  0  0  0  0  0
  -34.1050  -21.5390   18.9920 O   0  0  0  0  0  0  0  0  0  0  0  0
  -32.7220  -20.4120   20.3630 N   0  0  0  0  0  0  0  0  0  0  0  0
  -32.6250  -19.5530   20.8810 H   0  0  0  0  0  0  0  0  0  0  0  0
  -31.4780  -15.4760   19.2270 C   0  0  0  0  0  0  0  0  0  0  0  0
  -31.5760  -14.1760   19.6470 C   0  0  0  0  0  0  0  0  0  0  0  0
  -32.9690  -13.9290   19.8450 C   0  0  0  0  0  0  0  0  0  0  0  0
  -32.7770  -15.9640   19.1960 N   0  0  0  0  0  0  0  0  0  0  0  0
  -33.6690  -15.0330   19.6190 N   0  0  0  0  0  0  0  0  0  0  0  0
  -33.6840  -12.6920   20.1780 C   0  0  0  0  0  0  0  0  0  0  0  0
  -34.7110  -12.6690   21.1480 C   0  0  0  0  0  3  0  0  0  0  0  0
  -35.3710  -11.4630   21.4630 C   0  0  0  0  0  3  0  0  0  0  0  0
  -35.0040  -10.2610   20.8100 C   0  0  0  0  0  0  0  0  0  0  0  0
  -33.9980  -10.2940   19.8280 C   0  0  0  0  0  3  0  0  0  0  0  0
  -33.3450  -11.4980   19.5120 C   0  0  0  0  0  3  0  0  0  0  0  0
  -35.6060   -9.0470   21.0350 O   0  0  0  0  0  0  0  0  0  0  0  0
  -36.3610   -8.8170   22.1580 C   0  0  0  0  0  0  0  0  0  0  0  0
  -35.8130   -8.9070   23.4560 C   0  0  0  0  0  3  0  0  0  0  0  0
  -36.6060   -8.5940   24.5780 C   0  0  0  0  0  3  0  0  0  0  0  0
  -37.9410   -8.1810   24.4030 C   0  0  0  0  0  0  0  0  0  0  0  0
  -38.4870   -8.0870   23.1110 C   0  0  0  0  0  3  0  0  0  0  0  0
  -37.6970   -8.4010   21.9910 C   0  0  0  0  0  0  0  0  0  0  0  0
  -38.2220   -8.2870   20.7470 F   0  0  0  0  0  0  0  0  0  0  0  0
  -38.7010   -7.8710   25.4800 F   0  0  0  0  0  0  0  0  0  0  0  0
  -30.4520  -13.1860   19.7650 C   0  0  0  0  0  0  0  0  0  0  0  0
  -30.5250  -12.2870   20.7410 N   0  0  0  0  0  0  0  0  0  0  0  0
  -29.4760  -13.2340   19.0180 O   0  0  0  0  0  0  0  0  0  0  0  0
  -31.3150  -12.2540   21.3680 H   0  0  0  0  0  0  0  0  0  0  0  0
  -29.7760  -11.6190   20.8630 H   0  0  0  0  0  0  0  0  0  0  0  0
  -30.4030  -16.2740   18.8480 N   0  0  0  0  0  0  0  0  0  0  0  0
  -29.4700  -15.8870   18.7620 H   0  0  0  0  0  0  0  0  0  0  0  0
  -30.5210  -17.1800   18.4190 H   0  0  0  0  0  0  0  0  0  0  0  0
  -24.3480  -24.1910   19.1990 C   0  0  0  0  0  2  0  0  0  0  0  0
  -23.0250  -23.7720   19.8780 C   0  0  0  0  0  2  0  0  0  0  0  0
  -21.9270  -24.8460   19.7880 C   0  0  0  0  0  2  0  0  0  0  0  0
  -20.3320  -24.4160   17.9310 C   0  0  0  0  0  0  0  0  0  0  0  0
  -20.0660  -24.5960   16.4440 C   0  0  0  0  0  1  0  0  0  0  0  0
  -21.4390  -24.9880   18.4190 N   0  0  0  0  0  0  0  0  0  0  0  0
  -19.5560  -23.7540   18.6210 O   0  0  0  0  0  0  0  0  0  0  0  0
  -22.0080  -25.5280   17.7800 H   0  0  0  0  0  0  0  0  0  0  0  0
  1  6  1  0
  1  4  2  0
  2 50  1  0
  2  3  1  0
  3  1  1  0
  5  2  2  0
  6  7  1  0
  8  7  1  0
  9  8  1  0
 10 21  2  0
 11  9  1  0
 11 16  1  0
 12 20  1  0
 12 22  1  0
 13 15  1  0
 14 20  1  0
 15 16  2  0
 15 14  1  0
 17 11  2  0
 18 17  1  0
 18 13  2  0
 19 13  1  0
 19 12  1  0
 20 10  1  0
 22 24  2  0
 23 22  1  0
 25 23  1  0
 26 35  2  0
 26 31  1  0
 27 23  1  0
 27 31  1  0
 28 27  1  0
 29 30  1  0
 29 28  1  0
 30 26  1  0
 31 32  2  0
 32 33  1  0
 34 33  2  0
 35 34  1  0
 36 10  1  0
 36 37  1  0
 36 46  1  0
 37 40  1  0
 38 42  1  0
 38 37  1  0
 39 38  2  0
 42 41  1  0
 44 42  1  0
 44 45  1  0
 44 43  1  0
 46 47  1  1
 46 49  1  0
 48 46  1  0
 51 53  1  0
 51 50  1  0
 52 51  1  0
 54 51  1  0
 54 55  1  0
 55 56  1  0
 56 57  1  0
 57 66  1  0
 58 66  1  0
 59 64  1  0
 60 61  1  0
 60 59  1  0
 62 61  1  0
 62 71  1  0
 62 63  1  0
 64 58  1  0
 64 63  1  0
 65 58  2  0
 66 67  1  0
 68 69  2  0
 69 88  1  0
 69 70  1  0
 70 73  1  0
 71 68  1  0
 71 72  1  0
 72 70  2  0
 73 74  1  0
 74 75  2  0
 76 79  1  0
 76 75  1  0
 77 76  2  0
 78 77  1  0
 78 73  2  0
 79 80  1  0
 80 81  1  0
 81 82  2  0
 83 82  1  0
 83 87  1  0
 84 83  2  0
 85 80  2  0
 85 84  1  0
 86 85  1  0
 88 89  1  0
 89 92  1  0
 89 91  1  0
 90 88  2  0
 93 68  1  0
 94 93  1  0
 95 93  1  0
 96  3  1  0
 96 97  1  0
 98 97  1  0
 99101  1  0
 99102  2  0
100 99  1  0
101 98  1  0
103101  1  0
M  ISO  4   8 101   9 101  58 100  66 100
M  END
>  <TORSDO>  (80) 
F 29

>  <SCORE>  (80) 
-8.061

>  <name>  (80) 
79

>  <ligand_id>  (80) 
79

>  <original_smiles>  (80) 
[H]c1c([H])c([H])c2c(c1[H])C([H])([H])C([H])([H])C([H])([H])C2([H])N([H])C(=O)C1([H])N(C(=O)C([H])(N([H])C(=O)C([H])(N([H])C([H])([H])[H])C([H])([H])[H])C(C([H])([H])[H])(C([H])([H])[H])C([H])([H])[H])C([H])([H])c2c([H])c(OC([H])([H])C([H])([H])C([H])([H])C(=O)N(C(=O)C([H])([H])[N+]([H])([H])C([H])([H])C([H])([H])C([H])([H])C([H])([H])N([H])C(=O)N3C([H])([H])C([H])([H])C([H])([H])C([H])(n4nc(-c5c([H])c([H])c(Oc6c([H])c([H])c(F)c([H])c6F)c([H])c5[H])c(C(=O)N([H])[H])c4N([H])[H])C3([H])[H])C([H])([H])C([H])([H])C([H])([H])N([H])C(=O)C([H])([H])[H])c([H])c([H])c2C1([H])[H]

>  <smiles>  (80) 
[H]c1c([H])c([H])c2c(c1[H])C([H])([H])C([H])([H])C([H])([H])C2([H])N([H])C(=O)C1([H])N(C(=O)C([H])(N([H])C(=O)C([H])(N([H])C([H])([H])[H])C([H])([H])[H])C(C([H])([H])[H])(C([H])([H])[H])C([H])([H])[H])C([H])([H])c2c([H])c(OC([H])([H])C([H])([H])C([H])([H])C(=O)N(C(=O)C([H])([H])[N+]([H])([H])C([H])([H])C([H])([H])C([H])([H])C([H])([H])N([H])C(=O)N3C([H])([H])C([H])([H])C([H])([H])C([H])(n4nc(-c5c([H])c([H])c(Oc6c([H])c([H])c(F)c([H])c6F)c([H])c5[H])c(C(=O)N([H])[H])c4N([H])[H])C3([H])[H])C([H])([H])C([H])([H])C([H])([H])N([H])C(=O)C([H])([H])[H])c([H])c([H])c2C1([H])[H]

$$$$
80:0:0
     RDKit          3D

 88 95  0  0  1  0  0  0  0  0999 V2000
  -31.4210  -20.6260   20.9030 C   0  0  0  0  0  3  0  0  0  0  0  0
  -31.0510  -19.2420   20.7460 C   0  0  0  0  0  3  0  0  0  0  0  0
  -30.5590  -21.7760   20.7370 C   0  0  0  0  0  3  0  0  0  0  0  0
  -28.8470  -20.1080   20.2700 C   0  0  0  0  0  3  0  0  0  0  0  0
  -29.7450  -18.7780   20.4050 C   0  0  0  0  0  0  0  0  0  0  0  0
  -29.1580  -21.6810   20.4100 C   0  0  0  0  0  3  0  0  0  0  0  0
  -30.2700  -15.6890   20.1990 C   0  0  0  0  0  0  0  0  0  0  0  0
  -30.3350  -13.1350   19.4080 C   0  0  0  0  0  2  0  0  0  0  0  0
  -29.4770  -12.7880   18.1610 C   0  0  0  0  0  2  0  0  0  0  0  0
  -28.0490  -12.4180   18.5950 C   0  0  0  0  0  2  0  0  0  0  0  0
  -27.5200  -13.4030   19.6690 C   0  0  0  0  0  3  0  0  0  0  0  0
  -28.5350  -13.6990   20.8050 C   0  0  0  0  0  2  0  0  0  0  0  0
  -29.7310  -14.3210   20.1790 N   0  0  0  0  0  0  0  0  0  0  0  0
  -31.4710  -15.6210   19.8750 O   0  0  0  0  0  0  0  0  0  0  0  0
  -29.5420  -17.0620   20.3690 N   0  0  0  0  0  0  0  0  0  0  0  0
  -28.6150  -16.8350   20.6840 H   0  0  0  0  0  0  0  0  0  0  0  0
  -25.1610  -13.8920   20.4710 C   0  0  0  0  0  0  0  0  0  0  0  0
  -24.1130  -13.0990   20.8520 C   0  0  0  0  0  0  0  0  0  0  0  0
  -24.5970  -11.7550   20.7970 C   0  0  0  0  0  0  0  0  0  0  0  0
  -26.2050  -13.0360   20.1890 N   0  0  0  0  0  0  0  0  0  0  0  0
  -25.8850  -11.7400   20.4630 N   0  0  0  0  0  0  0  0  0  0  0  0
  -23.8850  -10.4880   21.0020 C   0  0  0  0  0  0  0  0  0  0  0  0
  -24.3290   -9.5290   21.9410 C   0  0  0  0  0  3  0  0  0  0  0  0
  -23.6200   -8.3210   22.1220 C   0  0  0  0  0  3  0  0  0  0  0  0
  -22.4490   -8.0690   21.3670 C   0  0  0  0  0  0  0  0  0  0  0  0
  -22.0230   -9.0190   20.4240 C   0  0  0  0  0  3  0  0  0  0  0  0
  -22.7350  -10.2160   20.2410 C   0  0  0  0  0  3  0  0  0  0  0  0
  -21.7040   -6.9180   21.4650 O   0  0  0  0  0  0  0  0  0  0  0  0
  -21.6540   -6.1810   22.6190 C   0  0  0  0  0  0  0  0  0  0  0  0
  -21.2110   -6.7400   23.8400 C   0  0  0  0  0  3  0  0  0  0  0  0
  -21.1100   -5.9310   24.9880 C   0  0  0  0  0  3  0  0  0  0  0  0
  -21.4510   -4.5670   24.9230 C   0  0  0  0  0  0  0  0  0  0  0  0
  -21.8910   -4.0060   23.7100 C   0  0  0  0  0  3  0  0  0  0  0  0
  -21.9950   -4.8120   22.5620 C   0  0  0  0  0  0  0  0  0  0  0  0
  -22.4010   -4.2650   21.3890 F   0  0  0  0  0  0  0  0  0  0  0  0
  -21.3480   -3.7880   26.0250 F   0  0  0  0  0  0  0  0  0  0  0  0
  -22.7150  -13.5630   21.1260 C   0  0  0  0  0  0  0  0  0  0  0  0
  -21.9890  -12.8670   21.9950 N   0  0  0  0  0  0  0  0  0  0  0  0
  -22.2680  -14.5790   20.6040 O   0  0  0  0  0  0  0  0  0  0  0  0
  -22.3620  -12.0540   22.4520 H   0  0  0  0  0  0  0  0  0  0  0  0
  -21.0490  -13.1730   22.2070 H   0  0  0  0  0  0  0  0  0  0  0  0
  -25.3130  -15.2700   20.3090 N   0  0  0  0  0  0  0  0  0  0  0  0
  -24.5720  -15.9360   20.5160 H   0  0  0  0  0  0  0  0  0  0  0  0
  -26.1810  -15.7100   20.0180 H   0  0  0  0  0  0  0  0  0  0  0  0
  -27.1170  -23.4680   21.6340 O   0  0  0  0  0  1  0  0  0  0  0  0
  -27.0250  -23.3710   19.1540 O   0  0  0  0  0  0  0  0  0  0  0  0
  -27.8560  -23.5760   20.3660 S   0  0  0  0  0  0  0  0  0  0  0  0
  -28.2360  -25.5570   20.3050 O   0  0  0  0  0  0  0  0  0  0  0  0
  -24.6690  -31.8820   23.1920 C   0  0  0  0  0  0  0  0  0  0  0  0
  -27.2540  -26.7800   20.2730 C   0  0  0  0  0  0  0  0  0  0  0  0
  -23.4890  -30.4750   21.5640 C   0  0  0  0  0  3  0  0  0  0  0  0
  -24.9560  -28.8000   20.1990 C   0  0  0  0  0  0  0  0  0  0  0  0
  -26.0740  -30.6100   21.4590 C   0  0  0  0  0  2  0  0  0  0  0  0
  -26.1490  -29.1650   20.8280 C   0  0  0  0  0  0  0  0  0  0  0  0
  -27.2780  -28.1890   20.8330 C   0  0  0  0  0  3  0  0  0  0  0  0
  -26.0190  -26.6240   19.5820 C   0  0  0  0  0  3  0  0  0  0  0  0
  -24.9260  -27.5460   19.5560 C   0  0  0  0  0  3  0  0  0  0  0  0
  -23.7350  -29.7380   20.2190 C   0  0  0  0  0  2  0  0  0  0  0  0
  -24.7710  -31.0260   22.1200 N   0  0  0  0  0  0  0  0  0  0  0  0
  -23.5750  -32.1980   23.6880 O   0  0  0  0  0  0  0  0  0  0  0  0
  -22.7540  -29.5230   22.5410 C   0  0  0  0  0  0  0  0  0  0  0  0
  -21.4220  -29.3840   22.4070 N   0  0  0  0  0  0  0  0  0  0  0  0
  -23.3960  -28.9000   23.3890 O   0  0  0  0  0  0  0  0  0  0  0  0
  -20.9570  -29.9270   21.6910 H   0  0  0  0  0  0  0  0  0  0  0  0
  -18.0110  -28.2270   22.9090 C   0  0  0  0  0  0  0  0  0  0  0  0
  -20.5770  -28.4650   23.1790 C   0  0  0  0  0  3  0  0  0  0  0  0
  -20.6570  -27.0300   22.6060 C   0  0  0  0  0  2  0  0  0  0  0  0
  -19.5520  -26.7180   21.5890 C   0  0  0  0  0  2  0  0  0  0  0  0
  -18.1710  -26.8770   22.2270 C   0  0  0  0  0  2  0  0  0  0  0  0
  -19.1380  -28.9800   23.3380 C   0  0  0  0  0  0  0  0  0  0  0  0
  -18.9270  -30.2380   23.9420 C   0  0  0  0  0  3  0  0  0  0  0  0
  -17.6270  -30.7510   24.1110 C   0  0  0  0  0  3  0  0  0  0  0  0
  -16.5170  -29.9980   23.7000 C   0  0  0  0  0  3  0  0  0  0  0  0
  -16.7070  -28.7390   23.1040 C   0  0  0  0  0  3  0  0  0  0  0  0
  -25.9280  -32.5350   23.8460 C   0  0  0  0  0  3  0  0  0  0  0  0
  -25.6060  -33.9390   24.1800 N   0  0  0  0  0  0  0  0  0  0  0  0
  -25.9340  -35.0060   23.4390 C   0  0  0  0  0  0  0  0  0  0  0  0
  -26.5960  -34.9160   22.4040 O   0  0  0  0  0  0  0  0  0  0  0  0
  -25.0050  -34.0780   24.9800 H   0  0  0  0  0  0  0  0  0  0  0  0
  -24.1910  -36.8010   23.1450 C   0  0  0  0  0  1  0  0  0  0  0  0
  -25.4570  -36.3930   23.9160 C   0  0  0  0  0  3  0  0  0  0  0  0
  -27.6150  -37.2840   24.6900 C   0  0  0  0  0  1  0  0  0  0  0  0
  -26.4810  -37.4520   23.7800 N   0  0  0  0  0  0  0  0  0  0  0  0
  -26.0780  -38.3680   23.9430 H   0  0  0  0  0  0  0  0  0  0  0  0
  -26.4120  -31.7730   25.1470 C   0  0  1  0  0  0  0  0  0  0  0  0
  -25.2930  -31.5670   26.1950 C   0  0  0  0  0  1  0  0  0  0  0  0
  -26.9760  -30.3770   24.7900 C   0  0  0  0  0  1  0  0  0  0  0  0
  -27.5630  -32.5550   25.8220 C   0  0  0  0  0  1  0  0  0  0  0  0
  2  1  1  0
  3  1  2  0
  4  5  1  0
  4  6  2  0
  5  2  2  0
  6  3  1  0
  7 15  1  0
  8 13  1  0
  9 10  1  0
  9  8  1  0
 11 10  1  0
 11 20  1  0
 11 12  1  0
 13  7  1  0
 13 12  1  0
 14  7  2  0
 15  5  1  0
 15 16  1  0
 17 18  2  0
 18 37  1  0
 19 18  1  0
 19 22  1  0
 20 21  1  0
 20 17  1  0
 21 19  2  0
 22 23  1  0
 23 24  2  0
 25 28  1  0
 25 24  1  0
 26 25  2  0
 27 26  1  0
 27 22  2  0
 28 29  1  0
 29 30  1  0
 30 31  2  0
 32 31  1  0
 32 36  1  0
 33 32  2  0
 34 29  2  0
 34 33  1  0
 35 34  1  0
 37 38  1  0
 38 41  1  0
 38 40  1  0
 39 37  2  0
 42 17  1  0
 42 43  1  0
 44 42  1  0
 47 46  2  0
 47 45  1  0
 48 47  1  0
 49 60  2  0
 50 48  1  0
 50 55  1  0
 51 59  1  0
 51 61  1  0
 52 58  1  0
 52 54  1  0
 53 59  1  0
 54 55  2  0
 54 53  1  0
 56 50  2  0
 57 56  1  0
 57 52  2  0
 58 51  1  0
 59 49  1  0
 61 63  2  0
 62 61  1  0
 64 62  1  0
 65 74  2  0
 65 70  1  0
 66 62  1  0
 66 70  1  0
 67 66  1  0
 68 69  1  0
 68 67  1  0
 69 65  1  0
 70 71  2  0
 71 72  1  0
 73 72  2  0
 74 73  1  0
 75 49  1  0
 75 76  1  0
 75 85  1  0
 76 79  1  0
 77 81  1  0
 77 76  1  0
 78 77  2  0
 81 80  1  0
 83 81  1  0
 83 84  1  0
 83 82  1  0
 85 88  1  1
 85 86  1  0
 87 85  1  0
M  ISO  4   7 100  15 100  47 101  48 101
M  END
>  <TORSDO>  (81) 
F 17

>  <SCORE>  (81) 
-16.794

>  <name>  (81) 
80

>  <ligand_id>  (81) 
80

>  <original_smiles>  (81) 
[H]c1c([H])c([H])c2c(c1[H])C([H])([H])C([H])([H])C([H])([H])C2([H])N([H])C(=O)C1([H])N(C(=O)C([H])(N([H])C(=O)C([H])(N([H])C([H])([H])[H])C([H])([H])[H])C(C([H])([H])[H])(C([H])([H])[H])C([H])([H])[H])C([H])([H])c2c([H])c(OS(=O)(=O)c3c([H])c([H])c([H])c(N([H])C(=O)N4C([H])([H])C([H])([H])C([H])([H])C([H])(n5nc(-c6c([H])c([H])c(Oc7c([H])c([H])c(F)c([H])c7F)c([H])c6[H])c(C(=O)N([H])[H])c5N([H])[H])C4([H])[H])c3[H])c([H])c([H])c2C1([H])[H]

>  <smiles>  (81) 
[H]c1c([H])c([H])c2c(c1[H])C([H])([H])C([H])([H])C([H])([H])C2([H])N([H])C(=O)C1([H])N(C(=O)C([H])(N([H])C(=O)C([H])(N([H])C([H])([H])[H])C([H])([H])[H])C(C([H])([H])[H])(C([H])([H])[H])C([H])([H])[H])C([H])([H])c2c([H])c(OS(=O)(=O)c3c([H])c([H])c([H])c(N([H])C(=O)N4C([H])([H])C([H])([H])C([H])([H])C([H])(n5nc(-c6c([H])c([H])c(Oc7c([H])c([H])c(F)c([H])c7F)c([H])c6[H])c(C(=O)N([H])[H])c5N([H])[H])C4([H])[H])c3[H])c([H])c([H])c2C1([H])[H]

$$$$
